
  MOE2020           3D

 43 45  0  0  1  0  0  0  0  0999 V2000
   -0.2390   10.8530   23.5530 O   0  5  0  0  0  0  0  0  0  0  0  0
   -0.1770    9.8560   22.8030 C   0  0  0  0  0  0  0  0  0  0  0  0
   -0.8420    8.8070   22.9350 O   0  0  0  0  0  0  0  0  0  0  0  0
    0.8320    9.9000   21.6520 C   0  0  2  0  0  0  0  0  0  0  0  0
    0.1970    9.6830   20.2750 C   0  0  0  0  0  0  0  0  0  0  0  0
   -0.5980    8.9410   20.3430 H   0  0  0  0  0  0  0  0  0  0  0  0
   -0.1920   10.6140   19.8600 H   0  0  0  0  0  0  0  0  0  0  0  0
    1.3440    9.1270   19.4330 C   0  0  0  0  0  0  0  0  0  0  0  0
    2.0110    9.9430   19.1520 H   0  0  0  0  0  0  0  0  0  0  0  0
    0.9860    8.6200   18.5370 H   0  0  0  0  0  0  0  0  0  0  0  0
    2.0760    8.1750   20.3810 C   0  0  2  0  0  0  0  0  0  0  0  0
    1.5410    6.8200   20.3390 N   0  0  0  0  0  0  0  0  0  0  0  0
    0.6520    6.7630   20.8580 H   0  0  0  0  0  0  0  0  0  0  0  0
    2.3560    5.7290   20.5130 C   0  0  0  0  0  0  0  0  0  0  0  0
    2.2380    5.0410   21.5270 O   0  0  0  0  0  0  0  0  0  0  0  0
    3.2730    5.3920   19.5290 N   0  0  0  0  0  0  0  0  0  0  0  0
    3.7730    4.0280   19.3970 C   0  0  0  0  0  0  0  0  0  0  0  0
    2.9680    3.3110   19.5300 H   0  0  0  0  0  0  0  0  0  0  0  0
    4.5270    3.8250   20.1500 H   0  0  0  0  0  0  0  0  0  0  0  0
    4.3980    3.8610   18.0090 C   0  0  0  0  0  0  0  0  0  0  0  0
    3.7030    3.3540   17.3430 H   0  0  0  0  0  0  0  0  0  0  0  0
    5.3260    3.2910   18.0470 H   0  0  0  0  0  0  0  0  0  0  0  0
    4.6180    5.3040   17.5330 C   0  0  2  0  0  0  0  0  0  0  0  0
    6.0020    5.8550   17.8600 C   0  0  0  0  0  0  0  0  0  0  0  0
    6.7360    5.4210   18.9670 C   0  0  0  0  0  0  0  0  0  0  0  0
    6.3710    4.6600   19.5990 H   0  0  0  0  0  0  0  0  0  0  0  0
    7.9680    5.9870   19.2710 C   0  0  0  0  0  0  0  0  0  0  0  0
    8.5110    5.6270   20.1040 H   0  0  0  0  0  0  0  0  0  0  0  0
    8.4720    7.0300   18.5020 C   0  0  0  0  0  0  0  0  0  0  0  0
    9.3880    7.4860   18.7670 H   0  0  0  0  0  0  0  0  0  0  0  0
    7.7700    7.4690   17.3880 C   0  0  0  0  0  0  0  0  0  0  0  0
    8.1500    8.2500   16.7890 H   0  0  0  0  0  0  0  0  0  0  0  0
    6.5590    6.8640   17.0780 C   0  0  0  0  0  0  0  0  0  0  0  0
    5.9070    7.2850   15.9700 F   0  0  0  0  0  0  0  0  0  0  0  0
    3.5400    6.0940   18.2850 C   0  0  0  0  0  0  0  0  0  0  0  0
    3.8860    7.1110   18.4610 H   0  0  0  0  0  0  0  0  0  0  0  0
    2.6300    6.1330   17.6870 H   0  0  0  0  0  0  0  0  0  0  0  0
    1.8960    8.8010   21.7710 C   0  0  0  0  0  0  0  0  0  0  0  0
    2.8270    9.2300   22.1330 H   0  0  0  0  0  0  0  0  0  0  0  0
    1.5870    8.0440   22.4840 H   0  0  0  0  0  0  0  0  0  0  0  0
    1.3340   10.8690   21.6480 H   0  0  0  0  0  0  0  0  0  0  0  0
    3.1220    8.1390   20.1180 H   0  0  0  0  0  0  0  0  0  0  0  0
    4.4560    5.3600   16.4560 H   0  0  0  0  0  0  0  0  0  0  0  0
  1  2  1  0  0  0  0
  2  3  2  0  0  0  0
  2  4  1  0  0  0  0
  4  5  1  0  0  0  0
  4 38  1  0  0  0  0
  4 41  1  0  0  0  0
  5  6  1  0  0  0  0
  5  7  1  0  0  0  0
  5  8  1  0  0  0  0
  8  9  1  0  0  0  0
  8 10  1  0  0  0  0
  8 11  1  0  0  0  0
 11 12  1  0  0  0  0
 11 38  1  0  0  0  0
 11 42  1  0  0  0  0
 12 13  1  0  0  0  0
 12 14  1  0  0  0  0
 14 15  2  0  0  0  0
 14 16  1  0  0  0  0
 16 17  1  0  0  0  0
 16 35  1  0  0  0  0
 17 18  1  0  0  0  0
 17 19  1  0  0  0  0
 17 20  1  0  0  0  0
 20 21  1  0  0  0  0
 20 22  1  0  0  0  0
 20 23  1  0  0  0  0
 23 24  1  0  0  0  0
 23 35  1  0  0  0  0
 23 43  1  0  0  0  0
 24 25  1  0  0  0  0
 24 33  2  0  0  0  0
 25 26  1  0  0  0  0
 25 27  2  0  0  0  0
 27 28  1  0  0  0  0
 27 29  1  0  0  0  0
 29 30  1  0  0  0  0
 29 31  2  0  0  0  0
 31 32  1  0  0  0  0
 31 33  1  0  0  0  0
 33 34  1  0  0  0  0
 35 36  1  0  0  0  0
 35 37  1  0  0  0  0
 38 39  1  0  0  0  0
 38 40  1  0  0  0  0
M  CHG  1   1  -1
M  END
>  <receptor>
S(=O)(=O)([O-])[O-].S(CCC(NC(=O)C(NC(=O)C(NC(=O)CNC(=O)C(NC(=O)C1N(C(=O)C(NC(=O)C(NC(=O)C(NC(=O)C(NC(=O)C(NC(=O)C(NC(=O)C(NC(=O)C(NC(=O)C(NC(=O)C(NC(=O)C(NC(=O)C(NC(=O)C(NC(=O)C(NC(=O)C(NC(=O)C(NC(=O)C(NC(=O)C(NC(=O)C(NC(=O)CNC(=O)C(NC(=O)C(NC(=O)C(NC(=O)C(NC(=O)C(NC(=O)C(NC(=O)C(NC(=O)C(NC(=O)C(NC(=O)C(NC(=O)C(NC(=O)C(NC(=O)C(NC(=O)C)CCCC[NH3+])C(C)C)C(O)C)CCC(=O)N)CCC(=O)[O-])CCC(=O)N)Cc2ccccc2)CCC(=O)[O-])CC(C)C)Cc2ccc(O)cc2)CS)CCC(=O)[O-])CCSC)CO)C(O)C)Cc2ccccc2)CCC(=O)N)CC(C)C)C[S-])CCCC[NH3+])C(CC)C)C[S-])C)CCC(=O)[O-])CC(=O)N)CC(=O)[O-])CCCC[NH3+])CC(=O)[O-])C(C)C)CCCC[NH3+])C(CC)C)CCC(=O)[O-])CCC1)C[S-])Cc1nc[n-]c1)CC(C)C)C(=O)NC(C(=O)NC(C(=O)NC(C(=O)NC(C(=O)NC(C(=O)NC(C(=O)NC(C(=O)NC(C(=O)NC(C(=O)NC(C(=O)NC(C(=O)NC(C(=O)NCC(=O)NC(C(=O)NCC(=O)NC(C(=O)N1C(C(=O)NC(C(=O)NC(C(=O)NC(C(=O)NC(C(=O)NC(C(=O)NC(C(=O)NC(C(=O)NCC(=O)NC(C(=O)NC(C(=O)N2C(C(=O)NC(C(=O)NC(C(=O)NC(C(=O)NC(C(=O)N3C(C(=O)NC(C(=O)NC(C(=O)[O-])CC(=O)[O-])Cc4ccccc4)CCC3)CC(=O)[O-])C(C)C)C(CC)C)C(CC)C)CCC2)CCC(=O)[O-])C(O)C)CCCC[NH3+])C(CC)C)CCC(=O)[O-])CS)CCCNC(=[NH2+])N)C[S-])Cc2ccccc2)CCC1)C[S-])CCC(=O)N)CC(=O)[O-])CO)CCC(=O)[O-])CCC(=O)N)Cc1c2c([nH]c1)cccc2)C)C(O)C)CC(C)C)C[S-])CO)C(O)C)C[S-])C.S(CCC(NC(=O)C(NC(=O)C(NC(=O)C(NC(=O)C(NC(=O)C(NC(=O)C(NC(=O)C(NC(=O)C(NC(=O)C(NC(=O)C(NC(=O)C(NC(=O)C(NC(=O)C(NC(=O)C(NC(=O)C(NC(=O)C[NH3+])CCC(=O)N)C)C)C)CC(=O)[O-])CCCNC(=[NH2+])N)CCCNC(=[NH2+])N)C(O)C)C(C)C)CCC(=O)[O-])CCCC[NH3+])C(O)C)Cc1c2c([nH]c1)cccc2)C)CC(C)C)C(=O)NC(C(=O)NC(C(=O)NC(C(=O)NC(C(=O)NC(C(=O)NC(C(=O)NC(C(=O)NC(C(=O)NC(C(=O)N1C(C(=O)NC(C(=O)NC(C(=O)NC(C(=O)NC(C(=O)NC(C(=O)NC(C(=O)NC(C(=O)N2C(C(=O)N3C(C(=O)NC(C(=O)NC(C(=O)NC(C(=O)NC(C(=O)NC(C(=O)NC(C(=O)N4C(C(=O)NC(C(=O)NC(C(=O)NC(C(=O)NC(C(=O)NC(C(=O)NC(C(=O)NC(C(=O)NC(C(=O)NC(C(=O)NC(C(=O)NC(C(=O)NC(C(=O)NC(C(=O)NC(C(=O)NC(C(=O)NC(C(=O)NC(C(=O)NC(C(=O)NC(C(=O)NC(C(=O)NC(C(=O)NC(C(=O)NC(C(=O)NC(C(=O)NC(C(=O)NC(C(=O)NC(C(=O)NC(C(=O)NC(C(=O)NC(C(=O)NC(C(=O)NC(C(=O)NC(C(=O)NC(C(=O)NC(C(=O)NC(C(=O)NC(C(=O)NC(C(=O)NC(C(=O)NC(C(=O)NC(C(=O)NC(C(=O)NC(C(=O)NC(C(=O)NC(C(=O)NC(C(=O)NC(C(=O)NC(C(=O)NCC(=O)NC(C(=O)NC(C(=O)NC(C(=O)NC(C(=O)NC(C(=O)NC(C(=O)NC(C(=O)NC(C(=O)NC(C(=O)NC(C(=O)NC(C(=O)NC(C(=O)NC(C(=O)NC(C(=O)NC(C(=O)NC(C(=O)NC(C(=O)NC(C(=O)NC(C(=O)NC(C(=O)NC(C(=O)NC(C(=O)NC(C(=O)NC(C(=O)NC(C(=O)NC(C(=O)NC(C(=O)NC(C(=O)NC(C(=O)NC(C(=O)NC(C(=O)NC(C(=O)NC(C(=O)N5C(C(=O)NC(C(=O)NCC(=O)NC(C(=O)NC(C(=O)NC(C(=O)NCC(=O)NC(C(=O)NC(C(=O)NC(C(=O)NC(C(=O)NC(C(=O)NC(C(=O)NC(C(=O)NC(C(=O)NC(C(=O)NC(C(=O)NC(C(=O)NC(C(=O)NC(C(=O)NC(C(=O)NC(C(=O)NC(C(=O)NC(C(=O)NC(C(=O)NCC(=O)NC(C(=O)NC(C(=O)NC(C(=O)NC(C(=O)NC(C(=O)N6C(C(=O)NC(C(=O)NC(C(=O)NC(C(=O)NC(C(=O)NC(C(=O)NC(C(=O)NC(C(=O)NC(C(=O)NC(C(=O)NC(C(=O)NC(C(=O)NC(C(=O)NC(C(=O)NC(C(=O)NC(C(=O)NC(C(=O)NCC(=O)NC(C(=O)NC(C(=O)NC(C(=O)NC(C(=O)NC(C(=O)NC(C(=O)NC(C(=O)NC(C(=O)NC(C(=O)NC(C(=O)NC(C(=O)NC(C(=O)NC(C(=O)NC(C(=O)NC(C(=O)NC(C(=O)NC(C(=O)NC(C(=O)NC(C(=O)NC(C(=O)NC(C(=O)NC(C(=O)NC(C(=O)NC(C(=O)NC(C(=O)NC(C(=O)NC(C(=O)NC(C(=O)NC(C(=O)NC(C(=O)NC(C(=O)N7C(C(=O)NC(C(=O)NCC(=O)NC(C(=O)NC(C(=O)NC(C(=O)NC(C(=O)NC(C(=O)NC(C(=O)NC(C(=O)NC(C(=O)NC(C(=O)NC(C(=O)NC(C(=O)NC(C(=O)NC(C(=O)N8C(C(=O)NCC(=O)NC(C(=O)NC(C(=O)NC(C(=O)NC(C(=O)NC(C(=O)NC(C(=O)NC(C(=O)NC(C(=O)NC(C(=O)NC(C(=O)NC(C(=O)NC(C(=O)NC(C(=O)NC(C(=O)NC(C(=O)NC(C(=O)NC(C(=O)NC(C(=O)NC(C(=O)NC(C(=O)N9C(C(=O)NCC(=O)NC(C(=O)NC(C(=O)NC(C(=O)NC(C(=O)NC(C(=O)NC(C(=O)NC(C(=O)NC(C(=O)NC(C(=O)NC(C(=O)NC(C(=O)NCC(=O)NC(C(=O)NC(C(=O)NC(C(=O)NC(C(=O)NCC(=O)NC(C(=O)NC(C(=O)NC(C(=O)NCC(=O)NC(C(=O)NCC(=O)NC(C(=O)NC(C(=O)NC(C(=O)NC(C(=O)NC(C(=O)NC(C(=O)N%10C(C(=O)NC(C(=O)NC(C(=O)NC(C(=O)N%11C(C(=O)NC(C(=O)NC(C(=O)NC(C(=O)NC(C(=O)NC(C(=O)NC(C(=O)NC(C(=O)NCC(=O)NC(C(=O)NC(C(=O)NC(C(=O)NCC(=O)NC(C(=O)NC(C(=O)NC(C(=O)NC(C(=O)N%12C(C(=O)NC(C(=O)NCC(=O)NC(C(=O)NC(C(=O)NC(C(=O)NC(C(=O)NC)CC(=O)N)Cc%13ccc(O)cc%13)CO)CCCNC(=[NH2+])N)CC(=O)[O-])CCC%12)Cc%12ccc(O)cc%12)CC(C)C)Cc%12ccc(O)cc%12)Cc%12ccccc%12)CCC(=O)[O-])C)CO)CC(=O)[O-])C(CC)C)CC(C)C)C)CCC(=O)N)Cc%12ccccc%12)CC(C)C)CCC%11)CCCC[NH3+])CC(=O)N)Cc%11[nH]cnc%11)CCC%10)C(CC)C)C(O)C)CCC(=O)N)CC(C)C)C(CC)C)CC(=O)N)CC(=O)[O-])C(O)C)C(C)C)Cc%10ccc(O)cc%10)C(CC)C)C)Cc%10c%11c([nH]c%10)cccc%11)CCC(=O)N)CC(C)C)CCCNC(=[NH2+])N)C(O)C)CS)CO)CC(C)C)CCCNC(=[NH2+])N)Cc%10ccccc%10)C(CC)C)Cc%10ccc(O)cc%10)CO)CCC9)CCCC[NH3+])C(O)C)CO)Cc9ccc(O)cc9)CCCC[NH3+])CCC(=O)N)CC(C)C)CCCNC(=[NH2+])N)C)CCCC[NH3+])C(C)C)CCC(=O)[O-])CC(=O)[O-])Cc9ccc(O)cc9)C(O)C)CC(C)C)Cc9ccccc9)C)CCSC)Cc9ccc(O)cc9)CCC8)Cc8nc[nH]c8)C(O)C)C(C)C)C)CC(C)C)Cc8ccccc8)CC(=O)N)Cc8c9c([nH]c8)cccc9)CC(=O)N)CCCNC(=[NH2+])N)CC(C)C)C(CC)C)CO)Cc8c9c([nH]c8)cccc9)CCC7)CCC(=O)N)Cc7ccccc7)CC(C)C)CCCNC(=[NH2+])N)C(O)C)Cc7ccccc7)C(CC)C)CC(=O)[O-])Cc7ccccc7)CCC(=O)[O-])Cc7ccccc7)C(C)C)CO)C(CC)C)Cc7ccc(O)cc7)CC(=O)[O-])CC(=O)N)CS)C(O)C)CC(C)C)CC(=O)[O-])C(CC)C)C(O)C)CO)CCCC[NH3+])CC(C)C)C)CCSC)C)CCC(=O)[O-])CC(C)C)CO)CO)C(CC)C)CCC(=O)N)Cc7nc[nH]c7)C(C)C)CCC(=O)[O-])Cc7nc[nH]c7)CC(C)C)CS)CCC(=O)N)CCCNC(=[NH2+])N)Cc7ccccc7)C(C)C)CCCC[NH3+])Cc7c8c([nH]c7)cccc8)CCC6)C(C)C)C(CC)C)C(O)C)CCCC[NH3+])CC(=O)[O-])Cc6ccccc6)Cc6ccccc6)CCCC[NH3+])CCCNC(=[NH2+])N)Cc6c7c([nH]c6)cccc7)Cc6ccccc6)CCC(=O)[O-])C)C)CC(=O)[O-])C)CCCC[NH3+])C(O)C)C(CC)C)CCCNC(=[NH2+])N)Cc6ccccc6)CC(=O)N)CC(=O)[O-])CCC(=O)N)Cc6ccccc6)CCC(=O)N)CC(=O)N)CCC5)Cc5ccccc5)C(CC)C)C)CCCC[NH3+])C(CC)C)CCC(=O)[O-])C)CC(C)C)CCSC)Cc5nc[nH]c5)CO)Cc5ccccc5)C(CC)C)CC(C)C)CO)CC(C)C)CCCC[NH3+])C(O)C)CC(C)C)CC(=O)N)CCCNC(=[NH2+])N)CCCNC(=[NH2+])N)CC(=O)[O-])CCC(=O)N)CO)CCC(=O)N)CCC(=O)[O-])CCC(=O)[O-])Cc5ccc(O)cc5)CCSC)CCCNC(=[NH2+])N)CCC(=O)[O-])CCCC[NH3+])CCC(=O)[O-])CCCC[NH3+])Cc5ccccc5)CC(C)C)CCCNC(=[NH2+])N)C(CC)C)C)CCCNC(=[NH2+])N)CCCC[NH3+])CO)CCCC[NH3+])CCCC[NH3+])CCSC)CC(C)C)CO)CC(=O)[O-])C(CC)C)Cc5ccc(O)cc5)C(CC)C)CCCC[NH3+])Cc5ccccc5)Cc5ccc(O)cc5)CCC(=O)[O-])CC(=O)N)CCC(=O)[O-])CO)CC(C)C)CCC(=O)N)C)CC(C)C)CCCC[NH3+])CCC(=O)N)CC(=O)N)CC(=O)[O-])CC(=O)[O-])Cc5ccc(O)cc5)CCCC[NH3+])CO)CC(C)C)C(CC)C)CC(C)C)CCCNC(=[NH2+])N)CC(C)C)Cc5nc[nH]c5)CCC(=O)N)Cc5ccc(O)cc5)C(O)C)CC(=O)[O-])CCC4)CC(C)C)C(CC)C)CC(=O)[O-])CC(C)C)C(CC)C)Cc4ccc(O)cc4)CCC3)CCC2)CO)CC(=O)N)CCCC[NH3+])CC(C)C)CCC(=O)N)CC(C)C)CCCC[NH3+])CCC1)CC(=O)N)CCC(=O)N)CS)CC(C)C)CCCNC(=[NH2+])N)C(C)C)C(C)C)C)CC(=O)[O-])C.OCCO.[UH+3].[Zn+2].[Zn+2].O.O.O.O.O.O.O.O.O.O.O.O.O.O.O.O.O.O.O.O.O.O.O.O.O.O.O.O.O.O.O.O.O.O.O.O.O.O.O.O.O.O.O.O.O.O.O.O.O.O.O.O.O.O.O.O.O.O.O.O.O.O.O.O.O.O.O.O.O.O.O.O.O.O.O.O.O.O.O.O.O.O.O.O.O.O.O.O.O.O.O.O.O.O.O.O.O.O.O.O.O.O.O.O.O.O.O.O.O.O.O.O.O.O.O.O.O.O.O.O.O.O.O.O.O.O.O.O.O.O.O.O.O.O.O.O.O.O.O.O.O.O

>  <rseq>
1

>  <mseq>
1

>  <S>
-7.2691054

>  <rmsd_refine>
1.0224907

>  <E_conf>
-139.91933

>  <E_place>
-56.418873

>  <E_score1>
-10.527879

>  <E_refine>
-27.936132

>  <E_score2>
-7.2691054

>  <Field_2>
TE01

>  <pseq>
1

>  <%C>
99.204704

>  <a_heavy>
23

>  <h_logP>
0.80385447

>  <Weight>
319.35599

>  <E_orig>
0.79868853

>  <PLIF_raw>
[[1,1,1],[1771,1774,1777],[141,141,141],[7,7,7],[3.229812979,1.085282165,3.159066758]]

>  <FP:PLIF>
1

>  <PLIF_ligidx>
[[1,1,1]]

$$$$

  MOE2020           3D

 51 53  0  0  1  0  0  0  0  0999 V2000
   -3.3560    9.9790   15.7270 C   0  0  0  0  0  0  0  0  0  0  0  0
   -2.7750   10.1500   14.8210 H   0  0  0  0  0  0  0  0  0  0  0  0
   -4.3510   10.4030   15.5870 H   0  0  0  0  0  0  0  0  0  0  0  0
   -3.4430    8.9090   15.8950 H   0  0  0  0  0  0  0  0  0  0  0  0
   -2.6730   10.6220   16.9040 C   0  0  0  0  0  0  0  0  0  0  0  0
   -3.2260   11.5680   17.7570 C   0  0  0  0  0  0  0  0  0  0  0  0
   -4.2090   11.9600   17.7150 H   0  0  0  0  0  0  0  0  0  0  0  0
   -2.2670   11.9180   18.6420 C   0  0  0  0  0  0  0  0  0  0  0  0
   -2.3070   12.9230   19.7710 C   0  0  0  0  0  0  0  0  0  0  0  0
   -1.5830   13.7190   19.5960 H   0  0  0  0  0  0  0  0  0  0  0  0
   -2.0830   12.4400   20.7220 H   0  0  0  0  0  0  0  0  0  0  0  0
   -3.2980   13.3740   19.8370 H   0  0  0  0  0  0  0  0  0  0  0  0
   -1.1790   11.1820   18.2910 N   0  0  0  0  0  0  0  0  0  0  0  0
    0.1610   11.2980   18.8710 C   0  0  0  0  0  0  0  0  0  0  0  0
    0.1230   11.8440   19.8030 H   0  0  0  0  0  0  0  0  0  0  0  0
    0.7650   11.9200   18.2240 H   0  0  0  0  0  0  0  0  0  0  0  0
    0.8820    9.9850   19.1010 C   0  0  0  0  0  0  0  0  0  0  0  0
    1.6600    9.4290   18.0880 C   0  0  0  0  0  0  0  0  0  0  0  0
    1.7550    9.9350   17.1620 H   0  0  0  0  0  0  0  0  0  0  0  0
    2.3030    8.2120   18.2810 C   0  0  0  0  0  0  0  0  0  0  0  0
    2.8780    7.8090   17.4900 H   0  0  0  0  0  0  0  0  0  0  0  0
    2.1790    7.5240   19.4980 C   0  0  0  0  0  0  0  0  0  0  0  0
    2.8020    6.2150   19.7140 C   0  0  0  0  0  0  0  0  0  0  0  0
    2.5300    5.5000   20.6730 O   0  0  0  0  0  0  0  0  0  0  0  0
    3.7270    5.7550   18.8070 N   0  0  0  0  0  0  0  0  0  0  0  0
    3.9170    6.3270   17.9720 H   0  0  0  0  0  0  0  0  0  0  0  0
    4.4100    4.4600   18.9310 C   0  0  0  0  0  0  0  0  0  0  0  0
    3.8040    3.6850   18.4630 H   0  0  0  0  0  0  0  0  0  0  0  0
    4.5140    4.1890   19.9800 H   0  0  0  0  0  0  0  0  0  0  0  0
    5.8070    4.4310   18.2960 C   0  0  2  0  0  0  0  0  0  0  0  0
    6.8130    5.3700   18.9700 C   0  0  0  0  0  0  0  0  0  0  0  0
    7.1990    4.9680   19.9060 H   0  0  0  0  0  0  0  0  0  0  0  0
    6.3480    6.3380   19.1510 H   0  0  0  0  0  0  0  0  0  0  0  0
    7.9130    5.5430   17.9290 C   0  0  0  0  0  0  0  0  0  0  0  0
    8.3700    6.5310   17.9880 H   0  0  0  0  0  0  0  0  0  0  0  0
    8.6630    4.7650   18.0770 H   0  0  0  0  0  0  0  0  0  0  0  0
    7.2280    5.3060   16.5800 C   0  0  0  0  0  0  0  0  0  0  0  0
    7.8480    4.6550   15.9770 H   0  0  0  0  0  0  0  0  0  0  0  0
    7.1830    6.2360   16.0290 H   0  0  0  0  0  0  0  0  0  0  0  0
    5.8620    4.7390   16.8280 N   0  3  1  0  0  0  0  0  0  0  0  0
    5.1950    5.4780   16.6580 H   0  0  0  0  0  0  0  0  0  0  0  0
    5.5010    3.5840   15.9420 C   0  0  0  0  0  0  0  0  0  0  0  0
    4.5070    3.2020   16.1330 H   0  0  0  0  0  0  0  0  0  0  0  0
    5.5230    3.8350   14.8900 H   0  0  0  0  0  0  0  0  0  0  0  0
    6.1650    2.7390   16.0550 H   0  0  0  0  0  0  0  0  0  0  0  0
    1.4150    8.1080   20.5180 C   0  0  0  0  0  0  0  0  0  0  0  0
    1.3210    7.6210   21.4520 H   0  0  0  0  0  0  0  0  0  0  0  0
    0.7660    9.3200   20.3180 C   0  0  0  0  0  0  0  0  0  0  0  0
    0.1800    9.7360   21.0960 H   0  0  0  0  0  0  0  0  0  0  0  0
   -1.4390   10.3660   17.2320 N   0  0  0  0  0  0  0  0  0  0  0  0
    6.1870    3.4310   18.4550 H   0  0  0  0  0  0  0  0  0  0  0  0
  1  2  1  0  0  0  0
  1  3  1  0  0  0  0
  1  4  1  0  0  0  0
  1  5  1  0  0  0  0
  5  6  1  0  0  0  0
  5 50  2  0  0  0  0
  6  7  1  0  0  0  0
  6  8  2  0  0  0  0
  8  9  1  0  0  0  0
  8 13  1  0  0  0  0
  9 10  1  0  0  0  0
  9 11  1  0  0  0  0
  9 12  1  0  0  0  0
 13 14  1  0  0  0  0
 13 50  1  0  0  0  0
 14 15  1  0  0  0  0
 14 16  1  0  0  0  0
 14 17  1  0  0  0  0
 17 18  1  0  0  0  0
 17 48  2  0  0  0  0
 18 19  1  0  0  0  0
 18 20  2  0  0  0  0
 20 21  1  0  0  0  0
 20 22  1  0  0  0  0
 22 23  1  0  0  0  0
 22 46  2  0  0  0  0
 23 24  2  0  0  0  0
 23 25  1  0  0  0  0
 25 26  1  0  0  0  0
 25 27  1  0  0  0  0
 27 28  1  0  0  0  0
 27 29  1  0  0  0  0
 27 30  1  0  0  0  0
 30 31  1  0  0  0  0
 30 40  1  0  0  0  0
 30 51  1  0  0  0  0
 31 32  1  0  0  0  0
 31 33  1  0  0  0  0
 31 34  1  0  0  0  0
 34 35  1  0  0  0  0
 34 36  1  0  0  0  0
 34 37  1  0  0  0  0
 37 38  1  0  0  0  0
 37 39  1  0  0  0  0
 37 40  1  0  0  0  0
 40 41  1  0  0  0  0
 40 42  1  0  0  0  0
 42 43  1  0  0  0  0
 42 44  1  0  0  0  0
 42 45  1  0  0  0  0
 46 47  1  0  0  0  0
 46 48  1  0  0  0  0
 48 49  1  0  0  0  0
M  CHG  1  40   1
M  END
>  <receptor>
S(=O)(=O)([O-])[O-].S(CCC(NC(=O)C(NC(=O)C(NC(=O)CNC(=O)C(NC(=O)C1N(C(=O)C(NC(=O)C(NC(=O)C(NC(=O)C(NC(=O)C(NC(=O)C(NC(=O)C(NC(=O)C(NC(=O)C(NC(=O)C(NC(=O)C(NC(=O)C(NC(=O)C(NC(=O)C(NC(=O)C(NC(=O)C(NC(=O)C(NC(=O)C(NC(=O)C(NC(=O)CNC(=O)C(NC(=O)C(NC(=O)C(NC(=O)C(NC(=O)C(NC(=O)C(NC(=O)C(NC(=O)C(NC(=O)C(NC(=O)C(NC(=O)C(NC(=O)C(NC(=O)C(NC(=O)C)CCCC[NH3+])C(C)C)C(O)C)CCC(=O)N)CCC(=O)[O-])CCC(=O)N)Cc2ccccc2)CCC(=O)[O-])CC(C)C)Cc2ccc(O)cc2)CS)CCC(=O)[O-])CCSC)CO)C(O)C)Cc2ccccc2)CCC(=O)N)CC(C)C)C[S-])CCCC[NH3+])C(CC)C)C[S-])C)CCC(=O)[O-])CC(=O)N)CC(=O)[O-])CCCC[NH3+])CC(=O)[O-])C(C)C)CCCC[NH3+])C(CC)C)CCC(=O)[O-])CCC1)C[S-])Cc1nc[n-]c1)CC(C)C)C(=O)NC(C(=O)NC(C(=O)NC(C(=O)NC(C(=O)NC(C(=O)NC(C(=O)NC(C(=O)NC(C(=O)NC(C(=O)NC(C(=O)NC(C(=O)NC(C(=O)NCC(=O)NC(C(=O)NCC(=O)NC(C(=O)N1C(C(=O)NC(C(=O)NC(C(=O)NC(C(=O)NC(C(=O)NC(C(=O)NC(C(=O)NC(C(=O)NCC(=O)NC(C(=O)NC(C(=O)N2C(C(=O)NC(C(=O)NC(C(=O)NC(C(=O)NC(C(=O)N3C(C(=O)NC(C(=O)NC(C(=O)[O-])CC(=O)[O-])Cc4ccccc4)CCC3)CC(=O)[O-])C(C)C)C(CC)C)C(CC)C)CCC2)CCC(=O)[O-])C(O)C)CCCC[NH3+])C(CC)C)CCC(=O)[O-])CS)CCCNC(=[NH2+])N)C[S-])Cc2ccccc2)CCC1)C[S-])CCC(=O)N)CC(=O)[O-])CO)CCC(=O)[O-])CCC(=O)N)Cc1c2c([nH]c1)cccc2)C)C(O)C)CC(C)C)C[S-])CO)C(O)C)C[S-])C.S(CCC(NC(=O)C(NC(=O)C(NC(=O)C(NC(=O)C(NC(=O)C(NC(=O)C(NC(=O)C(NC(=O)C(NC(=O)C(NC(=O)C(NC(=O)C(NC(=O)C(NC(=O)C(NC(=O)C(NC(=O)C(NC(=O)C[NH3+])CCC(=O)N)C)C)C)CC(=O)[O-])CCCNC(=[NH2+])N)CCCNC(=[NH2+])N)C(O)C)C(C)C)CCC(=O)[O-])CCCC[NH3+])C(O)C)Cc1c2c([nH]c1)cccc2)C)CC(C)C)C(=O)NC(C(=O)NC(C(=O)NC(C(=O)NC(C(=O)NC(C(=O)NC(C(=O)NC(C(=O)NC(C(=O)NC(C(=O)N1C(C(=O)NC(C(=O)NC(C(=O)NC(C(=O)NC(C(=O)NC(C(=O)NC(C(=O)NC(C(=O)N2C(C(=O)N3C(C(=O)NC(C(=O)NC(C(=O)NC(C(=O)NC(C(=O)NC(C(=O)NC(C(=O)N4C(C(=O)NC(C(=O)NC(C(=O)NC(C(=O)NC(C(=O)NC(C(=O)NC(C(=O)NC(C(=O)NC(C(=O)NC(C(=O)NC(C(=O)NC(C(=O)NC(C(=O)NC(C(=O)NC(C(=O)NC(C(=O)NC(C(=O)NC(C(=O)NC(C(=O)NC(C(=O)NC(C(=O)NC(C(=O)NC(C(=O)NC(C(=O)NC(C(=O)NC(C(=O)NC(C(=O)NC(C(=O)NC(C(=O)NC(C(=O)NC(C(=O)NC(C(=O)NC(C(=O)NC(C(=O)NC(C(=O)NC(C(=O)NC(C(=O)NC(C(=O)NC(C(=O)NC(C(=O)NC(C(=O)NC(C(=O)NC(C(=O)NC(C(=O)NC(C(=O)NC(C(=O)NC(C(=O)NC(C(=O)NC(C(=O)NCC(=O)NC(C(=O)NC(C(=O)NC(C(=O)NC(C(=O)NC(C(=O)NC(C(=O)NC(C(=O)NC(C(=O)NC(C(=O)NC(C(=O)NC(C(=O)NC(C(=O)NC(C(=O)NC(C(=O)NC(C(=O)NC(C(=O)NC(C(=O)NC(C(=O)NC(C(=O)NC(C(=O)NC(C(=O)NC(C(=O)NC(C(=O)NC(C(=O)NC(C(=O)NC(C(=O)NC(C(=O)NC(C(=O)NC(C(=O)NC(C(=O)NC(C(=O)NC(C(=O)NC(C(=O)N5C(C(=O)NC(C(=O)NCC(=O)NC(C(=O)NC(C(=O)NC(C(=O)NCC(=O)NC(C(=O)NC(C(=O)NC(C(=O)NC(C(=O)NC(C(=O)NC(C(=O)NC(C(=O)NC(C(=O)NC(C(=O)NC(C(=O)NC(C(=O)NC(C(=O)NC(C(=O)NC(C(=O)NC(C(=O)NC(C(=O)NC(C(=O)NC(C(=O)NCC(=O)NC(C(=O)NC(C(=O)NC(C(=O)NC(C(=O)NC(C(=O)N6C(C(=O)NC(C(=O)NC(C(=O)NC(C(=O)NC(C(=O)NC(C(=O)NC(C(=O)NC(C(=O)NC(C(=O)NC(C(=O)NC(C(=O)NC(C(=O)NC(C(=O)NC(C(=O)NC(C(=O)NC(C(=O)NC(C(=O)NCC(=O)NC(C(=O)NC(C(=O)NC(C(=O)NC(C(=O)NC(C(=O)NC(C(=O)NC(C(=O)NC(C(=O)NC(C(=O)NC(C(=O)NC(C(=O)NC(C(=O)NC(C(=O)NC(C(=O)NC(C(=O)NC(C(=O)NC(C(=O)NC(C(=O)NC(C(=O)NC(C(=O)NC(C(=O)NC(C(=O)NC(C(=O)NC(C(=O)NC(C(=O)NC(C(=O)NC(C(=O)NC(C(=O)NC(C(=O)NC(C(=O)NC(C(=O)N7C(C(=O)NC(C(=O)NCC(=O)NC(C(=O)NC(C(=O)NC(C(=O)NC(C(=O)NC(C(=O)NC(C(=O)NC(C(=O)NC(C(=O)NC(C(=O)NC(C(=O)NC(C(=O)NC(C(=O)NC(C(=O)N8C(C(=O)NCC(=O)NC(C(=O)NC(C(=O)NC(C(=O)NC(C(=O)NC(C(=O)NC(C(=O)NC(C(=O)NC(C(=O)NC(C(=O)NC(C(=O)NC(C(=O)NC(C(=O)NC(C(=O)NC(C(=O)NC(C(=O)NC(C(=O)NC(C(=O)NC(C(=O)NC(C(=O)NC(C(=O)N9C(C(=O)NCC(=O)NC(C(=O)NC(C(=O)NC(C(=O)NC(C(=O)NC(C(=O)NC(C(=O)NC(C(=O)NC(C(=O)NC(C(=O)NC(C(=O)NC(C(=O)NCC(=O)NC(C(=O)NC(C(=O)NC(C(=O)NC(C(=O)NCC(=O)NC(C(=O)NC(C(=O)NC(C(=O)NCC(=O)NC(C(=O)NCC(=O)NC(C(=O)NC(C(=O)NC(C(=O)NC(C(=O)NC(C(=O)NC(C(=O)N%10C(C(=O)NC(C(=O)NC(C(=O)NC(C(=O)N%11C(C(=O)NC(C(=O)NC(C(=O)NC(C(=O)NC(C(=O)NC(C(=O)NC(C(=O)NC(C(=O)NCC(=O)NC(C(=O)NC(C(=O)NC(C(=O)NCC(=O)NC(C(=O)NC(C(=O)NC(C(=O)NC(C(=O)N%12C(C(=O)NC(C(=O)NCC(=O)NC(C(=O)NC(C(=O)NC(C(=O)NC(C(=O)NC)CC(=O)N)Cc%13ccc(O)cc%13)CO)CCCNC(=[NH2+])N)CC(=O)[O-])CCC%12)Cc%12ccc(O)cc%12)CC(C)C)Cc%12ccc(O)cc%12)Cc%12ccccc%12)CCC(=O)[O-])C)CO)CC(=O)[O-])C(CC)C)CC(C)C)C)CCC(=O)N)Cc%12ccccc%12)CC(C)C)CCC%11)CCCC[NH3+])CC(=O)N)Cc%11[nH]cnc%11)CCC%10)C(CC)C)C(O)C)CCC(=O)N)CC(C)C)C(CC)C)CC(=O)N)CC(=O)[O-])C(O)C)C(C)C)Cc%10ccc(O)cc%10)C(CC)C)C)Cc%10c%11c([nH]c%10)cccc%11)CCC(=O)N)CC(C)C)CCCNC(=[NH2+])N)C(O)C)CS)CO)CC(C)C)CCCNC(=[NH2+])N)Cc%10ccccc%10)C(CC)C)Cc%10ccc(O)cc%10)CO)CCC9)CCCC[NH3+])C(O)C)CO)Cc9ccc(O)cc9)CCCC[NH3+])CCC(=O)N)CC(C)C)CCCNC(=[NH2+])N)C)CCCC[NH3+])C(C)C)CCC(=O)[O-])CC(=O)[O-])Cc9ccc(O)cc9)C(O)C)CC(C)C)Cc9ccccc9)C)CCSC)Cc9ccc(O)cc9)CCC8)Cc8nc[nH]c8)C(O)C)C(C)C)C)CC(C)C)Cc8ccccc8)CC(=O)N)Cc8c9c([nH]c8)cccc9)CC(=O)N)CCCNC(=[NH2+])N)CC(C)C)C(CC)C)CO)Cc8c9c([nH]c8)cccc9)CCC7)CCC(=O)N)Cc7ccccc7)CC(C)C)CCCNC(=[NH2+])N)C(O)C)Cc7ccccc7)C(CC)C)CC(=O)[O-])Cc7ccccc7)CCC(=O)[O-])Cc7ccccc7)C(C)C)CO)C(CC)C)Cc7ccc(O)cc7)CC(=O)[O-])CC(=O)N)CS)C(O)C)CC(C)C)CC(=O)[O-])C(CC)C)C(O)C)CO)CCCC[NH3+])CC(C)C)C)CCSC)C)CCC(=O)[O-])CC(C)C)CO)CO)C(CC)C)CCC(=O)N)Cc7nc[nH]c7)C(C)C)CCC(=O)[O-])Cc7nc[nH]c7)CC(C)C)CS)CCC(=O)N)CCCNC(=[NH2+])N)Cc7ccccc7)C(C)C)CCCC[NH3+])Cc7c8c([nH]c7)cccc8)CCC6)C(C)C)C(CC)C)C(O)C)CCCC[NH3+])CC(=O)[O-])Cc6ccccc6)Cc6ccccc6)CCCC[NH3+])CCCNC(=[NH2+])N)Cc6c7c([nH]c6)cccc7)Cc6ccccc6)CCC(=O)[O-])C)C)CC(=O)[O-])C)CCCC[NH3+])C(O)C)C(CC)C)CCCNC(=[NH2+])N)Cc6ccccc6)CC(=O)N)CC(=O)[O-])CCC(=O)N)Cc6ccccc6)CCC(=O)N)CC(=O)N)CCC5)Cc5ccccc5)C(CC)C)C)CCCC[NH3+])C(CC)C)CCC(=O)[O-])C)CC(C)C)CCSC)Cc5nc[nH]c5)CO)Cc5ccccc5)C(CC)C)CC(C)C)CO)CC(C)C)CCCC[NH3+])C(O)C)CC(C)C)CC(=O)N)CCCNC(=[NH2+])N)CCCNC(=[NH2+])N)CC(=O)[O-])CCC(=O)N)CO)CCC(=O)N)CCC(=O)[O-])CCC(=O)[O-])Cc5ccc(O)cc5)CCSC)CCCNC(=[NH2+])N)CCC(=O)[O-])CCCC[NH3+])CCC(=O)[O-])CCCC[NH3+])Cc5ccccc5)CC(C)C)CCCNC(=[NH2+])N)C(CC)C)C)CCCNC(=[NH2+])N)CCCC[NH3+])CO)CCCC[NH3+])CCCC[NH3+])CCSC)CC(C)C)CO)CC(=O)[O-])C(CC)C)Cc5ccc(O)cc5)C(CC)C)CCCC[NH3+])Cc5ccccc5)Cc5ccc(O)cc5)CCC(=O)[O-])CC(=O)N)CCC(=O)[O-])CO)CC(C)C)CCC(=O)N)C)CC(C)C)CCCC[NH3+])CCC(=O)N)CC(=O)N)CC(=O)[O-])CC(=O)[O-])Cc5ccc(O)cc5)CCCC[NH3+])CO)CC(C)C)C(CC)C)CC(C)C)CCCNC(=[NH2+])N)CC(C)C)Cc5nc[nH]c5)CCC(=O)N)Cc5ccc(O)cc5)C(O)C)CC(=O)[O-])CCC4)CC(C)C)C(CC)C)CC(=O)[O-])CC(C)C)C(CC)C)Cc4ccc(O)cc4)CCC3)CCC2)CO)CC(=O)N)CCCC[NH3+])CC(C)C)CCC(=O)N)CC(C)C)CCCC[NH3+])CCC1)CC(=O)N)CCC(=O)N)CS)CC(C)C)CCCNC(=[NH2+])N)C(C)C)C(C)C)C)CC(=O)[O-])C.OCCO.[UH+3].[Zn+2].[Zn+2].O.O.O.O.O.O.O.O.O.O.O.O.O.O.O.O.O.O.O.O.O.O.O.O.O.O.O.O.O.O.O.O.O.O.O.O.O.O.O.O.O.O.O.O.O.O.O.O.O.O.O.O.O.O.O.O.O.O.O.O.O.O.O.O.O.O.O.O.O.O.O.O.O.O.O.O.O.O.O.O.O.O.O.O.O.O.O.O.O.O.O.O.O.O.O.O.O.O.O.O.O.O.O.O.O.O.O.O.O.O.O.O.O.O.O.O.O.O.O.O.O.O.O.O.O.O.O.O.O.O.O.O.O.O.O.O.O.O.O.O.O.O

>  <rseq>
1

>  <mseq>
2

>  <S>
-7.5305982

>  <rmsd_refine>
1.0230142

>  <E_conf>
50.090794

>  <E_place>
-67.439713

>  <E_score1>
-11.072446

>  <E_refine>
-38.857059

>  <E_score2>
-7.5305982

>  <Field_2>
TE02

>  <pseq>
2

>  <%C>
97.768089

>  <a_heavy>
24

>  <h_logP>
-0.2438783

>  <Weight>
327.452

>  <E_orig>
2.4000001

>  <PLIF_raw>
[42,3028,218,3,0.7]

>  <FP:PLIF>
2

>  <PLIF_ligidx>
42

$$$$

  MOE2020           3D

 40 42  0  0  0  0  0  0  0  0999 V2000
    3.0550    5.5000   19.1380 O   0  0  0  0  0  0  0  0  0  0  0  0
    3.6950    6.2550   18.4140 C   0  0  0  0  0  0  0  0  0  0  0  0
    3.2930    7.5630   18.2600 N   0  0  0  0  0  0  0  0  0  0  0  0
    3.8810    8.1790   17.6820 H   0  0  0  0  0  0  0  0  0  0  0  0
    2.0670    8.1720   18.8010 C   0  0  0  0  0  0  0  0  0  0  0  0
    1.2280    7.6780   18.3200 H   0  0  0  0  0  0  0  0  0  0  0  0
    1.9240    8.0230   20.3320 C   0  0  0  0  0  0  0  0  0  0  0  0
    1.7410    6.9820   20.5940 H   0  0  0  0  0  0  0  0  0  0  0  0
    2.8440    8.3360   20.8120 H   0  0  0  0  0  0  0  0  0  0  0  0
    0.7900    8.8570   20.9380 C   0  0  0  0  0  0  0  0  0  0  0  0
   -0.1690    8.4550   20.6430 H   0  0  0  0  0  0  0  0  0  0  0  0
    0.8410    8.7610   22.0140 H   0  0  0  0  0  0  0  0  0  0  0  0
    0.8690   10.2710   20.5560 N   0  0  0  0  0  0  0  0  0  0  0  0
    0.1210   11.2300   21.2990 C   0  0  0  0  0  0  0  0  0  0  0  0
   -0.8520   10.8460   22.2370 C   0  0  0  0  0  0  0  0  0  0  0  0
   -1.0730    9.8250   22.4040 H   0  0  0  0  0  0  0  0  0  0  0  0
   -1.5520   11.8110   22.9490 C   0  0  0  0  0  0  0  0  0  0  0  0
   -2.3000   11.5230   23.6410 H   0  0  0  0  0  0  0  0  0  0  0  0
   -1.2770   13.1650   22.7520 C   0  0  0  0  0  0  0  0  0  0  0  0
   -2.1210   14.3640   23.6730 Cl  0  0  0  0  0  0  0  0  0  0  0  0
   -0.3130   13.5530   21.8210 C   0  0  0  0  0  0  0  0  0  0  0  0
   -0.1140   14.5820   21.6670 H   0  0  0  0  0  0  0  0  0  0  0  0
    0.3840   12.5930   21.0990 C   0  0  0  0  0  0  0  0  0  0  0  0
    1.1250   12.8950   20.4040 H   0  0  0  0  0  0  0  0  0  0  0  0
    0.8500   10.4160   19.0870 C   0  0  0  0  0  0  0  0  0  0  0  0
   -0.0960   10.0550   18.7040 H   0  0  0  0  0  0  0  0  0  0  0  0
    0.8990   11.4550   18.7940 H   0  0  0  0  0  0  0  0  0  0  0  0
    2.0030    9.6580   18.4110 C   0  0  0  0  0  0  0  0  0  0  0  0
    2.9360   10.1440   18.6900 H   0  0  0  0  0  0  0  0  0  0  0  0
    1.8900    9.7420   17.3300 H   0  0  0  0  0  0  0  0  0  0  0  0
    4.8850    5.8110   17.6930 C   0  0  0  0  0  0  0  0  0  0  0  0
    5.1170    6.1670   16.3630 C   0  0  0  0  0  0  0  0  0  0  0  0
    4.4340    6.7900   15.8450 H   0  0  0  0  0  0  0  0  0  0  0  0
    6.2410    5.6850   15.7040 C   0  0  0  0  0  0  0  0  0  0  0  0
    6.4120    5.9350   14.6880 H   0  0  0  0  0  0  0  0  0  0  0  0
    7.1320    4.9010   16.3110 N   0  0  0  0  0  0  0  0  0  0  0  0
    6.9390    4.5540   17.5830 C   0  0  0  0  0  0  0  0  0  0  0  0
    7.6630    3.9300   18.0410 H   0  0  0  0  0  0  0  0  0  0  0  0
    5.8280    4.9830   18.3020 C   0  0  0  0  0  0  0  0  0  0  0  0
    5.7020    4.6790   19.3100 H   0  0  0  0  0  0  0  0  0  0  0  0
  1  2  2  0  0  0  0
  2  3  1  0  0  0  0
  2 31  1  0  0  0  0
  3  4  1  0  0  0  0
  3  5  1  0  0  0  0
  5  6  1  0  0  0  0
  5  7  1  0  0  0  0
  5 28  1  0  0  0  0
  7  8  1  0  0  0  0
  7  9  1  0  0  0  0
  7 10  1  0  0  0  0
 10 11  1  0  0  0  0
 10 12  1  0  0  0  0
 10 13  1  0  0  0  0
 13 14  1  0  0  0  0
 13 25  1  0  0  0  0
 14 15  1  0  0  0  0
 14 23  2  0  0  0  0
 15 16  1  0  0  0  0
 15 17  2  0  0  0  0
 17 18  1  0  0  0  0
 17 19  1  0  0  0  0
 19 20  1  0  0  0  0
 19 21  2  0  0  0  0
 21 22  1  0  0  0  0
 21 23  1  0  0  0  0
 23 24  1  0  0  0  0
 25 26  1  0  0  0  0
 25 27  1  0  0  0  0
 25 28  1  0  0  0  0
 28 29  1  0  0  0  0
 28 30  1  0  0  0  0
 31 32  1  0  0  0  0
 31 39  2  0  0  0  0
 32 33  1  0  0  0  0
 32 34  2  0  0  0  0
 34 35  1  0  0  0  0
 34 36  1  0  0  0  0
 36 37  2  0  0  0  0
 37 38  1  0  0  0  0
 37 39  1  0  0  0  0
 39 40  1  0  0  0  0
M  END
>  <receptor>
S(=O)(=O)([O-])[O-].S(CCC(NC(=O)C(NC(=O)C(NC(=O)CNC(=O)C(NC(=O)C1N(C(=O)C(NC(=O)C(NC(=O)C(NC(=O)C(NC(=O)C(NC(=O)C(NC(=O)C(NC(=O)C(NC(=O)C(NC(=O)C(NC(=O)C(NC(=O)C(NC(=O)C(NC(=O)C(NC(=O)C(NC(=O)C(NC(=O)C(NC(=O)C(NC(=O)C(NC(=O)CNC(=O)C(NC(=O)C(NC(=O)C(NC(=O)C(NC(=O)C(NC(=O)C(NC(=O)C(NC(=O)C(NC(=O)C(NC(=O)C(NC(=O)C(NC(=O)C(NC(=O)C(NC(=O)C)CCCC[NH3+])C(C)C)C(O)C)CCC(=O)N)CCC(=O)[O-])CCC(=O)N)Cc2ccccc2)CCC(=O)[O-])CC(C)C)Cc2ccc(O)cc2)CS)CCC(=O)[O-])CCSC)CO)C(O)C)Cc2ccccc2)CCC(=O)N)CC(C)C)C[S-])CCCC[NH3+])C(CC)C)C[S-])C)CCC(=O)[O-])CC(=O)N)CC(=O)[O-])CCCC[NH3+])CC(=O)[O-])C(C)C)CCCC[NH3+])C(CC)C)CCC(=O)[O-])CCC1)C[S-])Cc1nc[n-]c1)CC(C)C)C(=O)NC(C(=O)NC(C(=O)NC(C(=O)NC(C(=O)NC(C(=O)NC(C(=O)NC(C(=O)NC(C(=O)NC(C(=O)NC(C(=O)NC(C(=O)NC(C(=O)NCC(=O)NC(C(=O)NCC(=O)NC(C(=O)N1C(C(=O)NC(C(=O)NC(C(=O)NC(C(=O)NC(C(=O)NC(C(=O)NC(C(=O)NC(C(=O)NCC(=O)NC(C(=O)NC(C(=O)N2C(C(=O)NC(C(=O)NC(C(=O)NC(C(=O)NC(C(=O)N3C(C(=O)NC(C(=O)NC(C(=O)[O-])CC(=O)[O-])Cc4ccccc4)CCC3)CC(=O)[O-])C(C)C)C(CC)C)C(CC)C)CCC2)CCC(=O)[O-])C(O)C)CCCC[NH3+])C(CC)C)CCC(=O)[O-])CS)CCCNC(=[NH2+])N)C[S-])Cc2ccccc2)CCC1)C[S-])CCC(=O)N)CC(=O)[O-])CO)CCC(=O)[O-])CCC(=O)N)Cc1c2c([nH]c1)cccc2)C)C(O)C)CC(C)C)C[S-])CO)C(O)C)C[S-])C.S(CCC(NC(=O)C(NC(=O)C(NC(=O)C(NC(=O)C(NC(=O)C(NC(=O)C(NC(=O)C(NC(=O)C(NC(=O)C(NC(=O)C(NC(=O)C(NC(=O)C(NC(=O)C(NC(=O)C(NC(=O)C(NC(=O)C[NH3+])CCC(=O)N)C)C)C)CC(=O)[O-])CCCNC(=[NH2+])N)CCCNC(=[NH2+])N)C(O)C)C(C)C)CCC(=O)[O-])CCCC[NH3+])C(O)C)Cc1c2c([nH]c1)cccc2)C)CC(C)C)C(=O)NC(C(=O)NC(C(=O)NC(C(=O)NC(C(=O)NC(C(=O)NC(C(=O)NC(C(=O)NC(C(=O)NC(C(=O)N1C(C(=O)NC(C(=O)NC(C(=O)NC(C(=O)NC(C(=O)NC(C(=O)NC(C(=O)NC(C(=O)N2C(C(=O)N3C(C(=O)NC(C(=O)NC(C(=O)NC(C(=O)NC(C(=O)NC(C(=O)NC(C(=O)N4C(C(=O)NC(C(=O)NC(C(=O)NC(C(=O)NC(C(=O)NC(C(=O)NC(C(=O)NC(C(=O)NC(C(=O)NC(C(=O)NC(C(=O)NC(C(=O)NC(C(=O)NC(C(=O)NC(C(=O)NC(C(=O)NC(C(=O)NC(C(=O)NC(C(=O)NC(C(=O)NC(C(=O)NC(C(=O)NC(C(=O)NC(C(=O)NC(C(=O)NC(C(=O)NC(C(=O)NC(C(=O)NC(C(=O)NC(C(=O)NC(C(=O)NC(C(=O)NC(C(=O)NC(C(=O)NC(C(=O)NC(C(=O)NC(C(=O)NC(C(=O)NC(C(=O)NC(C(=O)NC(C(=O)NC(C(=O)NC(C(=O)NC(C(=O)NC(C(=O)NC(C(=O)NC(C(=O)NC(C(=O)NC(C(=O)NCC(=O)NC(C(=O)NC(C(=O)NC(C(=O)NC(C(=O)NC(C(=O)NC(C(=O)NC(C(=O)NC(C(=O)NC(C(=O)NC(C(=O)NC(C(=O)NC(C(=O)NC(C(=O)NC(C(=O)NC(C(=O)NC(C(=O)NC(C(=O)NC(C(=O)NC(C(=O)NC(C(=O)NC(C(=O)NC(C(=O)NC(C(=O)NC(C(=O)NC(C(=O)NC(C(=O)NC(C(=O)NC(C(=O)NC(C(=O)NC(C(=O)NC(C(=O)NC(C(=O)NC(C(=O)N5C(C(=O)NC(C(=O)NCC(=O)NC(C(=O)NC(C(=O)NC(C(=O)NCC(=O)NC(C(=O)NC(C(=O)NC(C(=O)NC(C(=O)NC(C(=O)NC(C(=O)NC(C(=O)NC(C(=O)NC(C(=O)NC(C(=O)NC(C(=O)NC(C(=O)NC(C(=O)NC(C(=O)NC(C(=O)NC(C(=O)NC(C(=O)NC(C(=O)NCC(=O)NC(C(=O)NC(C(=O)NC(C(=O)NC(C(=O)NC(C(=O)N6C(C(=O)NC(C(=O)NC(C(=O)NC(C(=O)NC(C(=O)NC(C(=O)NC(C(=O)NC(C(=O)NC(C(=O)NC(C(=O)NC(C(=O)NC(C(=O)NC(C(=O)NC(C(=O)NC(C(=O)NC(C(=O)NC(C(=O)NCC(=O)NC(C(=O)NC(C(=O)NC(C(=O)NC(C(=O)NC(C(=O)NC(C(=O)NC(C(=O)NC(C(=O)NC(C(=O)NC(C(=O)NC(C(=O)NC(C(=O)NC(C(=O)NC(C(=O)NC(C(=O)NC(C(=O)NC(C(=O)NC(C(=O)NC(C(=O)NC(C(=O)NC(C(=O)NC(C(=O)NC(C(=O)NC(C(=O)NC(C(=O)NC(C(=O)NC(C(=O)NC(C(=O)NC(C(=O)NC(C(=O)NC(C(=O)N7C(C(=O)NC(C(=O)NCC(=O)NC(C(=O)NC(C(=O)NC(C(=O)NC(C(=O)NC(C(=O)NC(C(=O)NC(C(=O)NC(C(=O)NC(C(=O)NC(C(=O)NC(C(=O)NC(C(=O)NC(C(=O)N8C(C(=O)NCC(=O)NC(C(=O)NC(C(=O)NC(C(=O)NC(C(=O)NC(C(=O)NC(C(=O)NC(C(=O)NC(C(=O)NC(C(=O)NC(C(=O)NC(C(=O)NC(C(=O)NC(C(=O)NC(C(=O)NC(C(=O)NC(C(=O)NC(C(=O)NC(C(=O)NC(C(=O)NC(C(=O)N9C(C(=O)NCC(=O)NC(C(=O)NC(C(=O)NC(C(=O)NC(C(=O)NC(C(=O)NC(C(=O)NC(C(=O)NC(C(=O)NC(C(=O)NC(C(=O)NC(C(=O)NCC(=O)NC(C(=O)NC(C(=O)NC(C(=O)NC(C(=O)NCC(=O)NC(C(=O)NC(C(=O)NC(C(=O)NCC(=O)NC(C(=O)NCC(=O)NC(C(=O)NC(C(=O)NC(C(=O)NC(C(=O)NC(C(=O)NC(C(=O)N%10C(C(=O)NC(C(=O)NC(C(=O)NC(C(=O)N%11C(C(=O)NC(C(=O)NC(C(=O)NC(C(=O)NC(C(=O)NC(C(=O)NC(C(=O)NC(C(=O)NCC(=O)NC(C(=O)NC(C(=O)NC(C(=O)NCC(=O)NC(C(=O)NC(C(=O)NC(C(=O)NC(C(=O)N%12C(C(=O)NC(C(=O)NCC(=O)NC(C(=O)NC(C(=O)NC(C(=O)NC(C(=O)NC)CC(=O)N)Cc%13ccc(O)cc%13)CO)CCCNC(=[NH2+])N)CC(=O)[O-])CCC%12)Cc%12ccc(O)cc%12)CC(C)C)Cc%12ccc(O)cc%12)Cc%12ccccc%12)CCC(=O)[O-])C)CO)CC(=O)[O-])C(CC)C)CC(C)C)C)CCC(=O)N)Cc%12ccccc%12)CC(C)C)CCC%11)CCCC[NH3+])CC(=O)N)Cc%11[nH]cnc%11)CCC%10)C(CC)C)C(O)C)CCC(=O)N)CC(C)C)C(CC)C)CC(=O)N)CC(=O)[O-])C(O)C)C(C)C)Cc%10ccc(O)cc%10)C(CC)C)C)Cc%10c%11c([nH]c%10)cccc%11)CCC(=O)N)CC(C)C)CCCNC(=[NH2+])N)C(O)C)CS)CO)CC(C)C)CCCNC(=[NH2+])N)Cc%10ccccc%10)C(CC)C)Cc%10ccc(O)cc%10)CO)CCC9)CCCC[NH3+])C(O)C)CO)Cc9ccc(O)cc9)CCCC[NH3+])CCC(=O)N)CC(C)C)CCCNC(=[NH2+])N)C)CCCC[NH3+])C(C)C)CCC(=O)[O-])CC(=O)[O-])Cc9ccc(O)cc9)C(O)C)CC(C)C)Cc9ccccc9)C)CCSC)Cc9ccc(O)cc9)CCC8)Cc8nc[nH]c8)C(O)C)C(C)C)C)CC(C)C)Cc8ccccc8)CC(=O)N)Cc8c9c([nH]c8)cccc9)CC(=O)N)CCCNC(=[NH2+])N)CC(C)C)C(CC)C)CO)Cc8c9c([nH]c8)cccc9)CCC7)CCC(=O)N)Cc7ccccc7)CC(C)C)CCCNC(=[NH2+])N)C(O)C)Cc7ccccc7)C(CC)C)CC(=O)[O-])Cc7ccccc7)CCC(=O)[O-])Cc7ccccc7)C(C)C)CO)C(CC)C)Cc7ccc(O)cc7)CC(=O)[O-])CC(=O)N)CS)C(O)C)CC(C)C)CC(=O)[O-])C(CC)C)C(O)C)CO)CCCC[NH3+])CC(C)C)C)CCSC)C)CCC(=O)[O-])CC(C)C)CO)CO)C(CC)C)CCC(=O)N)Cc7nc[nH]c7)C(C)C)CCC(=O)[O-])Cc7nc[nH]c7)CC(C)C)CS)CCC(=O)N)CCCNC(=[NH2+])N)Cc7ccccc7)C(C)C)CCCC[NH3+])Cc7c8c([nH]c7)cccc8)CCC6)C(C)C)C(CC)C)C(O)C)CCCC[NH3+])CC(=O)[O-])Cc6ccccc6)Cc6ccccc6)CCCC[NH3+])CCCNC(=[NH2+])N)Cc6c7c([nH]c6)cccc7)Cc6ccccc6)CCC(=O)[O-])C)C)CC(=O)[O-])C)CCCC[NH3+])C(O)C)C(CC)C)CCCNC(=[NH2+])N)Cc6ccccc6)CC(=O)N)CC(=O)[O-])CCC(=O)N)Cc6ccccc6)CCC(=O)N)CC(=O)N)CCC5)Cc5ccccc5)C(CC)C)C)CCCC[NH3+])C(CC)C)CCC(=O)[O-])C)CC(C)C)CCSC)Cc5nc[nH]c5)CO)Cc5ccccc5)C(CC)C)CC(C)C)CO)CC(C)C)CCCC[NH3+])C(O)C)CC(C)C)CC(=O)N)CCCNC(=[NH2+])N)CCCNC(=[NH2+])N)CC(=O)[O-])CCC(=O)N)CO)CCC(=O)N)CCC(=O)[O-])CCC(=O)[O-])Cc5ccc(O)cc5)CCSC)CCCNC(=[NH2+])N)CCC(=O)[O-])CCCC[NH3+])CCC(=O)[O-])CCCC[NH3+])Cc5ccccc5)CC(C)C)CCCNC(=[NH2+])N)C(CC)C)C)CCCNC(=[NH2+])N)CCCC[NH3+])CO)CCCC[NH3+])CCCC[NH3+])CCSC)CC(C)C)CO)CC(=O)[O-])C(CC)C)Cc5ccc(O)cc5)C(CC)C)CCCC[NH3+])Cc5ccccc5)Cc5ccc(O)cc5)CCC(=O)[O-])CC(=O)N)CCC(=O)[O-])CO)CC(C)C)CCC(=O)N)C)CC(C)C)CCCC[NH3+])CCC(=O)N)CC(=O)N)CC(=O)[O-])CC(=O)[O-])Cc5ccc(O)cc5)CCCC[NH3+])CO)CC(C)C)C(CC)C)CC(C)C)CCCNC(=[NH2+])N)CC(C)C)Cc5nc[nH]c5)CCC(=O)N)Cc5ccc(O)cc5)C(O)C)CC(=O)[O-])CCC4)CC(C)C)C(CC)C)CC(=O)[O-])CC(C)C)C(CC)C)Cc4ccc(O)cc4)CCC3)CCC2)CO)CC(=O)N)CCCC[NH3+])CC(C)C)CCC(=O)N)CC(C)C)CCCC[NH3+])CCC1)CC(=O)N)CCC(=O)N)CS)CC(C)C)CCCNC(=[NH2+])N)C(C)C)C(C)C)C)CC(=O)[O-])C.OCCO.[UH+3].[Zn+2].[Zn+2].O.O.O.O.O.O.O.O.O.O.O.O.O.O.O.O.O.O.O.O.O.O.O.O.O.O.O.O.O.O.O.O.O.O.O.O.O.O.O.O.O.O.O.O.O.O.O.O.O.O.O.O.O.O.O.O.O.O.O.O.O.O.O.O.O.O.O.O.O.O.O.O.O.O.O.O.O.O.O.O.O.O.O.O.O.O.O.O.O.O.O.O.O.O.O.O.O.O.O.O.O.O.O.O.O.O.O.O.O.O.O.O.O.O.O.O.O.O.O.O.O.O.O.O.O.O.O.O.O.O.O.O.O.O.O.O.O.O.O.O.O.O

>  <rseq>
1

>  <mseq>
3

>  <S>
-6.3293834

>  <rmsd_refine>
2.1988988

>  <E_conf>
-72.98378

>  <E_place>
-71.558563

>  <E_score1>
-9.9916611

>  <E_refine>
-32.876144

>  <E_score2>
-6.3293834

>  <Field_2>
TE03

>  <pseq>
3

>  <%C>
99.436531

>  <a_heavy>
22

>  <h_logP>
3.1839383

>  <Weight>
315.80399

>  <E_orig>
0.60000002

>  <PLIF_raw>
[1,6345,220688,6,0.7]

>  <FP:PLIF>
3

>  <PLIF_ligidx>
1

$$$$

  MOE2020           3D

 50 52  0  0  1  0  0  0  0  0999 V2000
    6.9540    4.9720   14.4230 C   0  0  0  0  0  0  0  0  0  0  0  0
    8.0290    5.0520   14.5500 H   0  0  0  0  0  0  0  0  0  0  0  0
    6.6360    5.7300   13.7100 H   0  0  0  0  0  0  0  0  0  0  0  0
    6.6970    3.9860   14.0350 H   0  0  0  0  0  0  0  0  0  0  0  0
    6.2720    5.2140   15.7710 C   0  0  2  0  0  0  0  0  0  0  0  0
    6.6250    4.1000   16.7650 C   0  0  0  0  0  0  0  0  0  0  0  0
    6.3450    3.1510   16.3110 H   0  0  0  0  0  0  0  0  0  0  0  0
    7.6940    4.1080   16.9820 H   0  0  0  0  0  0  0  0  0  0  0  0
    5.8270    4.2510   18.0650 C   0  0  0  0  0  0  0  0  0  0  0  0
    6.1550    5.1480   18.5930 H   0  0  0  0  0  0  0  0  0  0  0  0
    5.9990    3.3860   18.6990 H   0  0  0  0  0  0  0  0  0  0  0  0
    4.3240    4.3460   17.7840 C   0  0  0  0  0  0  0  0  0  0  0  0
    3.7950    4.4120   18.7180 H   0  0  0  0  0  0  0  0  0  0  0  0
    3.9910    3.4180   17.3390 H   0  0  0  0  0  0  0  0  0  0  0  0
    4.0190    5.4570   16.8750 N   0  0  0  0  0  0  0  0  0  0  0  0
    3.8880    6.7050   17.3700 C   0  0  0  0  0  0  0  0  0  0  0  0
    4.7130    7.5690   17.0870 O   0  0  0  0  0  0  0  0  0  0  0  0
    2.6310    7.1040   18.1840 C   0  0  0  0  0  0  0  0  0  0  0  0
    1.7580    6.6750   17.6980 H   0  0  0  0  0  0  0  0  0  0  0  0
    2.6520    6.5810   19.6320 C   0  0  0  0  0  0  0  0  0  0  0  0
    3.6590    6.6640   20.0260 H   0  0  0  0  0  0  0  0  0  0  0  0
    2.3800    5.5290   19.6390 H   0  0  0  0  0  0  0  0  0  0  0  0
    1.6740    7.2680   20.5970 C   0  0  0  0  0  0  0  0  0  0  0  0
    1.9680    6.9990   21.5970 H   0  0  0  0  0  0  0  0  0  0  0  0
    0.6940    6.8330   20.4880 H   0  0  0  0  0  0  0  0  0  0  0  0
    1.5680    8.7300   20.4580 N   0  0  0  0  0  0  0  0  0  0  0  0
    0.9210    9.4030   21.5070 C   0  0  0  0  0  0  0  0  0  0  0  0
    1.3690    9.1930   22.8070 C   0  0  0  0  0  0  0  0  0  0  0  0
    2.2270    8.6050   22.9810 H   0  0  0  0  0  0  0  0  0  0  0  0
    0.6930    9.7740   23.8640 C   0  0  0  0  0  0  0  0  0  0  0  0
    1.0160    9.5920   24.8550 H   0  0  0  0  0  0  0  0  0  0  0  0
   -0.3480   10.5800   23.6810 N   0  0  0  0  0  0  0  0  0  0  0  0
   -0.7700   10.8600   22.4270 C   0  0  0  0  0  0  0  0  0  0  0  0
   -1.8850   11.7950   22.2560 C   0  0  0  0  0  0  0  0  0  0  0  0
   -2.6870   12.0860   23.3210 N   0  0  0  0  0  0  0  0  0  0  0  0
   -3.5190   12.6870   23.2010 H   0  0  0  0  0  0  0  0  0  0  0  0
   -2.5260   11.6410   24.2360 H   0  0  0  0  0  0  0  0  0  0  0  0
   -2.1540   12.3410   21.1930 O   0  0  0  0  0  0  0  0  0  0  0  0
   -0.1550   10.2740   21.3160 C   0  0  0  0  0  0  0  0  0  0  0  0
   -0.5140   10.4840   20.3430 H   0  0  0  0  0  0  0  0  0  0  0  0
    1.3550    9.1640   19.0820 C   0  0  0  0  0  0  0  0  0  0  0  0
    0.3890    8.8440   18.7260 H   0  0  0  0  0  0  0  0  0  0  0  0
    1.3520   10.2450   19.0300 H   0  0  0  0  0  0  0  0  0  0  0  0
    2.4530    8.6390   18.1630 C   0  0  0  0  0  0  0  0  0  0  0  0
    2.2330    8.9600   17.1470 H   0  0  0  0  0  0  0  0  0  0  0  0
    3.3770    9.1160   18.4890 H   0  0  0  0  0  0  0  0  0  0  0  0
    4.7450    5.2990   15.5990 C   0  0  0  0  0  0  0  0  0  0  0  0
    4.4090    4.3970   15.1080 H   0  0  0  0  0  0  0  0  0  0  0  0
    4.4950    6.1060   14.9230 H   0  0  0  0  0  0  0  0  0  0  0  0
    6.6210    6.1670   16.1690 H   0  0  0  0  0  0  0  0  0  0  0  0
  1  2  1  0  0  0  0
  1  3  1  0  0  0  0
  1  4  1  0  0  0  0
  1  5  1  0  0  0  0
  5  6  1  0  0  0  0
  5 47  1  0  0  0  0
  5 50  1  0  0  0  0
  6  7  1  0  0  0  0
  6  8  1  0  0  0  0
  6  9  1  0  0  0  0
  9 10  1  0  0  0  0
  9 11  1  0  0  0  0
  9 12  1  0  0  0  0
 12 13  1  0  0  0  0
 12 14  1  0  0  0  0
 12 15  1  0  0  0  0
 15 16  1  0  0  0  0
 15 47  1  0  0  0  0
 16 17  2  0  0  0  0
 16 18  1  0  0  0  0
 18 19  1  0  0  0  0
 18 20  1  0  0  0  0
 18 44  1  0  0  0  0
 20 21  1  0  0  0  0
 20 22  1  0  0  0  0
 20 23  1  0  0  0  0
 23 24  1  0  0  0  0
 23 25  1  0  0  0  0
 23 26  1  0  0  0  0
 26 27  1  0  0  0  0
 26 41  1  0  0  0  0
 27 28  2  0  0  0  0
 27 39  1  0  0  0  0
 28 29  1  0  0  0  0
 28 30  1  0  0  0  0
 30 31  1  0  0  0  0
 30 32  2  0  0  0  0
 32 33  1  0  0  0  0
 33 34  1  0  0  0  0
 33 39  2  0  0  0  0
 34 35  1  0  0  0  0
 34 38  2  0  0  0  0
 35 36  1  0  0  0  0
 35 37  1  0  0  0  0
 39 40  1  0  0  0  0
 41 42  1  0  0  0  0
 41 43  1  0  0  0  0
 41 44  1  0  0  0  0
 44 45  1  0  0  0  0
 44 46  1  0  0  0  0
 47 48  1  0  0  0  0
 47 49  1  0  0  0  0
M  END
>  <receptor>
S(=O)(=O)([O-])[O-].S(CCC(NC(=O)C(NC(=O)C(NC(=O)CNC(=O)C(NC(=O)C1N(C(=O)C(NC(=O)C(NC(=O)C(NC(=O)C(NC(=O)C(NC(=O)C(NC(=O)C(NC(=O)C(NC(=O)C(NC(=O)C(NC(=O)C(NC(=O)C(NC(=O)C(NC(=O)C(NC(=O)C(NC(=O)C(NC(=O)C(NC(=O)C(NC(=O)C(NC(=O)CNC(=O)C(NC(=O)C(NC(=O)C(NC(=O)C(NC(=O)C(NC(=O)C(NC(=O)C(NC(=O)C(NC(=O)C(NC(=O)C(NC(=O)C(NC(=O)C(NC(=O)C(NC(=O)C)CCCC[NH3+])C(C)C)C(O)C)CCC(=O)N)CCC(=O)[O-])CCC(=O)N)Cc2ccccc2)CCC(=O)[O-])CC(C)C)Cc2ccc(O)cc2)CS)CCC(=O)[O-])CCSC)CO)C(O)C)Cc2ccccc2)CCC(=O)N)CC(C)C)C[S-])CCCC[NH3+])C(CC)C)C[S-])C)CCC(=O)[O-])CC(=O)N)CC(=O)[O-])CCCC[NH3+])CC(=O)[O-])C(C)C)CCCC[NH3+])C(CC)C)CCC(=O)[O-])CCC1)C[S-])Cc1nc[n-]c1)CC(C)C)C(=O)NC(C(=O)NC(C(=O)NC(C(=O)NC(C(=O)NC(C(=O)NC(C(=O)NC(C(=O)NC(C(=O)NC(C(=O)NC(C(=O)NC(C(=O)NC(C(=O)NCC(=O)NC(C(=O)NCC(=O)NC(C(=O)N1C(C(=O)NC(C(=O)NC(C(=O)NC(C(=O)NC(C(=O)NC(C(=O)NC(C(=O)NC(C(=O)NCC(=O)NC(C(=O)NC(C(=O)N2C(C(=O)NC(C(=O)NC(C(=O)NC(C(=O)NC(C(=O)N3C(C(=O)NC(C(=O)NC(C(=O)[O-])CC(=O)[O-])Cc4ccccc4)CCC3)CC(=O)[O-])C(C)C)C(CC)C)C(CC)C)CCC2)CCC(=O)[O-])C(O)C)CCCC[NH3+])C(CC)C)CCC(=O)[O-])CS)CCCNC(=[NH2+])N)C[S-])Cc2ccccc2)CCC1)C[S-])CCC(=O)N)CC(=O)[O-])CO)CCC(=O)[O-])CCC(=O)N)Cc1c2c([nH]c1)cccc2)C)C(O)C)CC(C)C)C[S-])CO)C(O)C)C[S-])C.S(CCC(NC(=O)C(NC(=O)C(NC(=O)C(NC(=O)C(NC(=O)C(NC(=O)C(NC(=O)C(NC(=O)C(NC(=O)C(NC(=O)C(NC(=O)C(NC(=O)C(NC(=O)C(NC(=O)C(NC(=O)C(NC(=O)C[NH3+])CCC(=O)N)C)C)C)CC(=O)[O-])CCCNC(=[NH2+])N)CCCNC(=[NH2+])N)C(O)C)C(C)C)CCC(=O)[O-])CCCC[NH3+])C(O)C)Cc1c2c([nH]c1)cccc2)C)CC(C)C)C(=O)NC(C(=O)NC(C(=O)NC(C(=O)NC(C(=O)NC(C(=O)NC(C(=O)NC(C(=O)NC(C(=O)NC(C(=O)N1C(C(=O)NC(C(=O)NC(C(=O)NC(C(=O)NC(C(=O)NC(C(=O)NC(C(=O)NC(C(=O)N2C(C(=O)N3C(C(=O)NC(C(=O)NC(C(=O)NC(C(=O)NC(C(=O)NC(C(=O)NC(C(=O)N4C(C(=O)NC(C(=O)NC(C(=O)NC(C(=O)NC(C(=O)NC(C(=O)NC(C(=O)NC(C(=O)NC(C(=O)NC(C(=O)NC(C(=O)NC(C(=O)NC(C(=O)NC(C(=O)NC(C(=O)NC(C(=O)NC(C(=O)NC(C(=O)NC(C(=O)NC(C(=O)NC(C(=O)NC(C(=O)NC(C(=O)NC(C(=O)NC(C(=O)NC(C(=O)NC(C(=O)NC(C(=O)NC(C(=O)NC(C(=O)NC(C(=O)NC(C(=O)NC(C(=O)NC(C(=O)NC(C(=O)NC(C(=O)NC(C(=O)NC(C(=O)NC(C(=O)NC(C(=O)NC(C(=O)NC(C(=O)NC(C(=O)NC(C(=O)NC(C(=O)NC(C(=O)NC(C(=O)NC(C(=O)NC(C(=O)NCC(=O)NC(C(=O)NC(C(=O)NC(C(=O)NC(C(=O)NC(C(=O)NC(C(=O)NC(C(=O)NC(C(=O)NC(C(=O)NC(C(=O)NC(C(=O)NC(C(=O)NC(C(=O)NC(C(=O)NC(C(=O)NC(C(=O)NC(C(=O)NC(C(=O)NC(C(=O)NC(C(=O)NC(C(=O)NC(C(=O)NC(C(=O)NC(C(=O)NC(C(=O)NC(C(=O)NC(C(=O)NC(C(=O)NC(C(=O)NC(C(=O)NC(C(=O)NC(C(=O)NC(C(=O)N5C(C(=O)NC(C(=O)NCC(=O)NC(C(=O)NC(C(=O)NC(C(=O)NCC(=O)NC(C(=O)NC(C(=O)NC(C(=O)NC(C(=O)NC(C(=O)NC(C(=O)NC(C(=O)NC(C(=O)NC(C(=O)NC(C(=O)NC(C(=O)NC(C(=O)NC(C(=O)NC(C(=O)NC(C(=O)NC(C(=O)NC(C(=O)NC(C(=O)NCC(=O)NC(C(=O)NC(C(=O)NC(C(=O)NC(C(=O)NC(C(=O)N6C(C(=O)NC(C(=O)NC(C(=O)NC(C(=O)NC(C(=O)NC(C(=O)NC(C(=O)NC(C(=O)NC(C(=O)NC(C(=O)NC(C(=O)NC(C(=O)NC(C(=O)NC(C(=O)NC(C(=O)NC(C(=O)NC(C(=O)NCC(=O)NC(C(=O)NC(C(=O)NC(C(=O)NC(C(=O)NC(C(=O)NC(C(=O)NC(C(=O)NC(C(=O)NC(C(=O)NC(C(=O)NC(C(=O)NC(C(=O)NC(C(=O)NC(C(=O)NC(C(=O)NC(C(=O)NC(C(=O)NC(C(=O)NC(C(=O)NC(C(=O)NC(C(=O)NC(C(=O)NC(C(=O)NC(C(=O)NC(C(=O)NC(C(=O)NC(C(=O)NC(C(=O)NC(C(=O)NC(C(=O)NC(C(=O)N7C(C(=O)NC(C(=O)NCC(=O)NC(C(=O)NC(C(=O)NC(C(=O)NC(C(=O)NC(C(=O)NC(C(=O)NC(C(=O)NC(C(=O)NC(C(=O)NC(C(=O)NC(C(=O)NC(C(=O)NC(C(=O)N8C(C(=O)NCC(=O)NC(C(=O)NC(C(=O)NC(C(=O)NC(C(=O)NC(C(=O)NC(C(=O)NC(C(=O)NC(C(=O)NC(C(=O)NC(C(=O)NC(C(=O)NC(C(=O)NC(C(=O)NC(C(=O)NC(C(=O)NC(C(=O)NC(C(=O)NC(C(=O)NC(C(=O)NC(C(=O)N9C(C(=O)NCC(=O)NC(C(=O)NC(C(=O)NC(C(=O)NC(C(=O)NC(C(=O)NC(C(=O)NC(C(=O)NC(C(=O)NC(C(=O)NC(C(=O)NC(C(=O)NCC(=O)NC(C(=O)NC(C(=O)NC(C(=O)NC(C(=O)NCC(=O)NC(C(=O)NC(C(=O)NC(C(=O)NCC(=O)NC(C(=O)NCC(=O)NC(C(=O)NC(C(=O)NC(C(=O)NC(C(=O)NC(C(=O)NC(C(=O)N%10C(C(=O)NC(C(=O)NC(C(=O)NC(C(=O)N%11C(C(=O)NC(C(=O)NC(C(=O)NC(C(=O)NC(C(=O)NC(C(=O)NC(C(=O)NC(C(=O)NCC(=O)NC(C(=O)NC(C(=O)NC(C(=O)NCC(=O)NC(C(=O)NC(C(=O)NC(C(=O)NC(C(=O)N%12C(C(=O)NC(C(=O)NCC(=O)NC(C(=O)NC(C(=O)NC(C(=O)NC(C(=O)NC)CC(=O)N)Cc%13ccc(O)cc%13)CO)CCCNC(=[NH2+])N)CC(=O)[O-])CCC%12)Cc%12ccc(O)cc%12)CC(C)C)Cc%12ccc(O)cc%12)Cc%12ccccc%12)CCC(=O)[O-])C)CO)CC(=O)[O-])C(CC)C)CC(C)C)C)CCC(=O)N)Cc%12ccccc%12)CC(C)C)CCC%11)CCCC[NH3+])CC(=O)N)Cc%11[nH]cnc%11)CCC%10)C(CC)C)C(O)C)CCC(=O)N)CC(C)C)C(CC)C)CC(=O)N)CC(=O)[O-])C(O)C)C(C)C)Cc%10ccc(O)cc%10)C(CC)C)C)Cc%10c%11c([nH]c%10)cccc%11)CCC(=O)N)CC(C)C)CCCNC(=[NH2+])N)C(O)C)CS)CO)CC(C)C)CCCNC(=[NH2+])N)Cc%10ccccc%10)C(CC)C)Cc%10ccc(O)cc%10)CO)CCC9)CCCC[NH3+])C(O)C)CO)Cc9ccc(O)cc9)CCCC[NH3+])CCC(=O)N)CC(C)C)CCCNC(=[NH2+])N)C)CCCC[NH3+])C(C)C)CCC(=O)[O-])CC(=O)[O-])Cc9ccc(O)cc9)C(O)C)CC(C)C)Cc9ccccc9)C)CCSC)Cc9ccc(O)cc9)CCC8)Cc8nc[nH]c8)C(O)C)C(C)C)C)CC(C)C)Cc8ccccc8)CC(=O)N)Cc8c9c([nH]c8)cccc9)CC(=O)N)CCCNC(=[NH2+])N)CC(C)C)C(CC)C)CO)Cc8c9c([nH]c8)cccc9)CCC7)CCC(=O)N)Cc7ccccc7)CC(C)C)CCCNC(=[NH2+])N)C(O)C)Cc7ccccc7)C(CC)C)CC(=O)[O-])Cc7ccccc7)CCC(=O)[O-])Cc7ccccc7)C(C)C)CO)C(CC)C)Cc7ccc(O)cc7)CC(=O)[O-])CC(=O)N)CS)C(O)C)CC(C)C)CC(=O)[O-])C(CC)C)C(O)C)CO)CCCC[NH3+])CC(C)C)C)CCSC)C)CCC(=O)[O-])CC(C)C)CO)CO)C(CC)C)CCC(=O)N)Cc7nc[nH]c7)C(C)C)CCC(=O)[O-])Cc7nc[nH]c7)CC(C)C)CS)CCC(=O)N)CCCNC(=[NH2+])N)Cc7ccccc7)C(C)C)CCCC[NH3+])Cc7c8c([nH]c7)cccc8)CCC6)C(C)C)C(CC)C)C(O)C)CCCC[NH3+])CC(=O)[O-])Cc6ccccc6)Cc6ccccc6)CCCC[NH3+])CCCNC(=[NH2+])N)Cc6c7c([nH]c6)cccc7)Cc6ccccc6)CCC(=O)[O-])C)C)CC(=O)[O-])C)CCCC[NH3+])C(O)C)C(CC)C)CCCNC(=[NH2+])N)Cc6ccccc6)CC(=O)N)CC(=O)[O-])CCC(=O)N)Cc6ccccc6)CCC(=O)N)CC(=O)N)CCC5)Cc5ccccc5)C(CC)C)C)CCCC[NH3+])C(CC)C)CCC(=O)[O-])C)CC(C)C)CCSC)Cc5nc[nH]c5)CO)Cc5ccccc5)C(CC)C)CC(C)C)CO)CC(C)C)CCCC[NH3+])C(O)C)CC(C)C)CC(=O)N)CCCNC(=[NH2+])N)CCCNC(=[NH2+])N)CC(=O)[O-])CCC(=O)N)CO)CCC(=O)N)CCC(=O)[O-])CCC(=O)[O-])Cc5ccc(O)cc5)CCSC)CCCNC(=[NH2+])N)CCC(=O)[O-])CCCC[NH3+])CCC(=O)[O-])CCCC[NH3+])Cc5ccccc5)CC(C)C)CCCNC(=[NH2+])N)C(CC)C)C)CCCNC(=[NH2+])N)CCCC[NH3+])CO)CCCC[NH3+])CCCC[NH3+])CCSC)CC(C)C)CO)CC(=O)[O-])C(CC)C)Cc5ccc(O)cc5)C(CC)C)CCCC[NH3+])Cc5ccccc5)Cc5ccc(O)cc5)CCC(=O)[O-])CC(=O)N)CCC(=O)[O-])CO)CC(C)C)CCC(=O)N)C)CC(C)C)CCCC[NH3+])CCC(=O)N)CC(=O)N)CC(=O)[O-])CC(=O)[O-])Cc5ccc(O)cc5)CCCC[NH3+])CO)CC(C)C)C(CC)C)CC(C)C)CCCNC(=[NH2+])N)CC(C)C)Cc5nc[nH]c5)CCC(=O)N)Cc5ccc(O)cc5)C(O)C)CC(=O)[O-])CCC4)CC(C)C)C(CC)C)CC(=O)[O-])CC(C)C)C(CC)C)Cc4ccc(O)cc4)CCC3)CCC2)CO)CC(=O)N)CCCC[NH3+])CC(C)C)CCC(=O)N)CC(C)C)CCCC[NH3+])CCC1)CC(=O)N)CCC(=O)N)CS)CC(C)C)CCCNC(=[NH2+])N)C(C)C)C(C)C)C)CC(=O)[O-])C.OCCO.[UH+3].[Zn+2].[Zn+2].O.O.O.O.O.O.O.O.O.O.O.O.O.O.O.O.O.O.O.O.O.O.O.O.O.O.O.O.O.O.O.O.O.O.O.O.O.O.O.O.O.O.O.O.O.O.O.O.O.O.O.O.O.O.O.O.O.O.O.O.O.O.O.O.O.O.O.O.O.O.O.O.O.O.O.O.O.O.O.O.O.O.O.O.O.O.O.O.O.O.O.O.O.O.O.O.O.O.O.O.O.O.O.O.O.O.O.O.O.O.O.O.O.O.O.O.O.O.O.O.O.O.O.O.O.O.O.O.O.O.O.O.O.O.O.O.O.O.O.O.O.O

>  <rseq>
1

>  <mseq>
4

>  <S>
-7.2964578

>  <rmsd_refine>
1.7735242

>  <E_conf>
-8.9206629

>  <E_place>
-48.638725

>  <E_score1>
-10.896259

>  <E_refine>
-30.058273

>  <E_score2>
-7.2964578

>  <Field_2>
TE04

>  <pseq>
4

>  <%C>
97.488869

>  <a_heavy>
24

>  <h_logP>
1.1370554

>  <Weight>
330.43201

>  <E_orig>
0.2

>  <PLIF_raw>
[[],[],[],[],[]]

>  <PLIF_ligidx>
[]

$$$$

  MOE2020           3D

 43 45  0  0  1  0  0  0  0  0999 V2000
    0.8870   12.3280   22.0860 O   0  5  0  0  0  0  0  0  0  0  0  0
    0.6360   11.1180   22.3340 C   0  0  0  0  0  0  0  0  0  0  0  0
    0.0490   10.7810   23.4000 O   0  0  0  0  0  0  0  0  0  0  0  0
    1.0810   10.0820   21.4030 C   0  0  0  0  0  0  0  0  0  0  0  0
    1.3150    8.7750   21.8600 C   0  0  0  0  0  0  0  0  0  0  0  0
    1.1380    8.5400   22.8770 H   0  0  0  0  0  0  0  0  0  0  0  0
    1.7840    7.7880   21.0040 C   0  0  0  0  0  0  0  0  0  0  0  0
    1.9500    6.8100   21.3720 H   0  0  0  0  0  0  0  0  0  0  0  0
    2.0380    8.0650   19.6580 C   0  0  0  0  0  0  0  0  0  0  0  0
    2.5280    7.0140   18.7800 C   0  0  0  0  0  0  0  0  0  0  0  0
    2.0400    6.8040   17.6800 O   0  0  0  0  0  0  0  0  0  0  0  0
    3.5530    6.2120   19.2370 N   0  0  0  0  0  0  0  0  0  0  0  0
    3.9230    6.4160   20.1790 H   0  0  0  0  0  0  0  0  0  0  0  0
    3.9800    4.9280   18.6530 C   0  0  0  0  0  0  0  0  0  0  0  0
    3.2000    4.1930   18.8440 H   0  0  0  0  0  0  0  0  0  0  0  0
    4.8430    4.5800   19.2140 H   0  0  0  0  0  0  0  0  0  0  0  0
    4.3030    4.9210   17.1320 C   0  0  2  0  0  0  0  0  0  0  0  0
    4.6880    3.5660   16.5420 C   0  0  0  0  0  0  0  0  0  0  0  0
    5.3690    3.0550   17.2160 H   0  0  0  0  0  0  0  0  0  0  0  0
    3.8070    2.9500   16.3650 H   0  0  0  0  0  0  0  0  0  0  0  0
    5.4090    3.9090   15.2440 C   0  0  0  0  0  0  0  0  0  0  0  0
    6.3810    3.4220   15.2160 H   0  0  0  0  0  0  0  0  0  0  0  0
    4.8230    3.6260   14.3720 H   0  0  0  0  0  0  0  0  0  0  0  0
    5.5830    5.4280   15.2680 C   0  0  0  0  0  0  0  0  0  0  0  0
    4.8840    5.8850   14.5820 H   0  0  0  0  0  0  0  0  0  0  0  0
    6.5730    5.7140   14.9370 H   0  0  0  0  0  0  0  0  0  0  0  0
    5.2840    5.8980   16.6250 N   0  0  0  0  0  0  0  0  0  0  0  0
    6.4490    6.2350   17.3340 C   0  0  0  0  0  0  0  0  0  0  0  0
    6.9700    7.5050   17.0910 C   0  0  0  0  0  0  0  0  0  0  0  0
    6.4990    8.1390   16.3930 H   0  0  0  0  0  0  0  0  0  0  0  0
    8.1050    7.9250   17.7610 C   0  0  0  0  0  0  0  0  0  0  0  0
    8.5060    8.8830   17.5820 H   0  0  0  0  0  0  0  0  0  0  0  0
    8.7290    7.0820   18.6660 C   0  0  0  0  0  0  0  0  0  0  0  0
    9.5930    7.4210   19.1640 H   0  0  0  0  0  0  0  0  0  0  0  0
    8.2330    5.8030   18.8960 C   0  0  0  0  0  0  0  0  0  0  0  0
    8.7250    5.1600   19.5790 H   0  0  0  0  0  0  0  0  0  0  0  0
    7.1000    5.3670   18.2230 C   0  0  0  0  0  0  0  0  0  0  0  0
    6.7530    4.3820   18.3780 H   0  0  0  0  0  0  0  0  0  0  0  0
    1.7760    9.3650   19.2070 C   0  0  0  0  0  0  0  0  0  0  0  0
    2.0010    9.6830   17.8990 F   0  0  0  0  0  0  0  0  0  0  0  0
    1.3060   10.3660   20.0470 C   0  0  0  0  0  0  0  0  0  0  0  0
    1.1270   11.3390   19.6650 H   0  0  0  0  0  0  0  0  0  0  0  0
    3.3860    5.1760   16.6270 H   0  0  0  0  0  0  0  0  0  0  0  0
  1  2  1  0  0  0  0
  2  3  2  0  0  0  0
  2  4  1  0  0  0  0
  4  5  2  0  0  0  0
  4 41  1  0  0  0  0
  5  6  1  0  0  0  0
  5  7  1  0  0  0  0
  7  8  1  0  0  0  0
  7  9  2  0  0  0  0
  9 10  1  0  0  0  0
  9 39  1  0  0  0  0
 10 11  2  0  0  0  0
 10 12  1  0  0  0  0
 12 13  1  0  0  0  0
 12 14  1  0  0  0  0
 14 15  1  0  0  0  0
 14 16  1  0  0  0  0
 14 17  1  0  0  0  0
 17 18  1  0  0  0  0
 17 27  1  0  0  0  0
 17 43  1  0  0  0  0
 18 19  1  0  0  0  0
 18 20  1  0  0  0  0
 18 21  1  0  0  0  0
 21 22  1  0  0  0  0
 21 23  1  0  0  0  0
 21 24  1  0  0  0  0
 24 25  1  0  0  0  0
 24 26  1  0  0  0  0
 24 27  1  0  0  0  0
 27 28  1  0  0  0  0
 28 29  1  0  0  0  0
 28 37  2  0  0  0  0
 29 30  1  0  0  0  0
 29 31  2  0  0  0  0
 31 32  1  0  0  0  0
 31 33  1  0  0  0  0
 33 34  1  0  0  0  0
 33 35  2  0  0  0  0
 35 36  1  0  0  0  0
 35 37  1  0  0  0  0
 37 38  1  0  0  0  0
 39 40  1  0  0  0  0
 39 41  2  0  0  0  0
 41 42  1  0  0  0  0
M  CHG  1   1  -1
M  END
>  <receptor>
S(=O)(=O)([O-])[O-].S(CCC(NC(=O)C(NC(=O)C(NC(=O)CNC(=O)C(NC(=O)C1N(C(=O)C(NC(=O)C(NC(=O)C(NC(=O)C(NC(=O)C(NC(=O)C(NC(=O)C(NC(=O)C(NC(=O)C(NC(=O)C(NC(=O)C(NC(=O)C(NC(=O)C(NC(=O)C(NC(=O)C(NC(=O)C(NC(=O)C(NC(=O)C(NC(=O)C(NC(=O)CNC(=O)C(NC(=O)C(NC(=O)C(NC(=O)C(NC(=O)C(NC(=O)C(NC(=O)C(NC(=O)C(NC(=O)C(NC(=O)C(NC(=O)C(NC(=O)C(NC(=O)C(NC(=O)C)CCCC[NH3+])C(C)C)C(O)C)CCC(=O)N)CCC(=O)[O-])CCC(=O)N)Cc2ccccc2)CCC(=O)[O-])CC(C)C)Cc2ccc(O)cc2)CS)CCC(=O)[O-])CCSC)CO)C(O)C)Cc2ccccc2)CCC(=O)N)CC(C)C)C[S-])CCCC[NH3+])C(CC)C)C[S-])C)CCC(=O)[O-])CC(=O)N)CC(=O)[O-])CCCC[NH3+])CC(=O)[O-])C(C)C)CCCC[NH3+])C(CC)C)CCC(=O)[O-])CCC1)C[S-])Cc1nc[n-]c1)CC(C)C)C(=O)NC(C(=O)NC(C(=O)NC(C(=O)NC(C(=O)NC(C(=O)NC(C(=O)NC(C(=O)NC(C(=O)NC(C(=O)NC(C(=O)NC(C(=O)NC(C(=O)NCC(=O)NC(C(=O)NCC(=O)NC(C(=O)N1C(C(=O)NC(C(=O)NC(C(=O)NC(C(=O)NC(C(=O)NC(C(=O)NC(C(=O)NC(C(=O)NCC(=O)NC(C(=O)NC(C(=O)N2C(C(=O)NC(C(=O)NC(C(=O)NC(C(=O)NC(C(=O)N3C(C(=O)NC(C(=O)NC(C(=O)[O-])CC(=O)[O-])Cc4ccccc4)CCC3)CC(=O)[O-])C(C)C)C(CC)C)C(CC)C)CCC2)CCC(=O)[O-])C(O)C)CCCC[NH3+])C(CC)C)CCC(=O)[O-])CS)CCCNC(=[NH2+])N)C[S-])Cc2ccccc2)CCC1)C[S-])CCC(=O)N)CC(=O)[O-])CO)CCC(=O)[O-])CCC(=O)N)Cc1c2c([nH]c1)cccc2)C)C(O)C)CC(C)C)C[S-])CO)C(O)C)C[S-])C.S(CCC(NC(=O)C(NC(=O)C(NC(=O)C(NC(=O)C(NC(=O)C(NC(=O)C(NC(=O)C(NC(=O)C(NC(=O)C(NC(=O)C(NC(=O)C(NC(=O)C(NC(=O)C(NC(=O)C(NC(=O)C(NC(=O)C[NH3+])CCC(=O)N)C)C)C)CC(=O)[O-])CCCNC(=[NH2+])N)CCCNC(=[NH2+])N)C(O)C)C(C)C)CCC(=O)[O-])CCCC[NH3+])C(O)C)Cc1c2c([nH]c1)cccc2)C)CC(C)C)C(=O)NC(C(=O)NC(C(=O)NC(C(=O)NC(C(=O)NC(C(=O)NC(C(=O)NC(C(=O)NC(C(=O)NC(C(=O)N1C(C(=O)NC(C(=O)NC(C(=O)NC(C(=O)NC(C(=O)NC(C(=O)NC(C(=O)NC(C(=O)N2C(C(=O)N3C(C(=O)NC(C(=O)NC(C(=O)NC(C(=O)NC(C(=O)NC(C(=O)NC(C(=O)N4C(C(=O)NC(C(=O)NC(C(=O)NC(C(=O)NC(C(=O)NC(C(=O)NC(C(=O)NC(C(=O)NC(C(=O)NC(C(=O)NC(C(=O)NC(C(=O)NC(C(=O)NC(C(=O)NC(C(=O)NC(C(=O)NC(C(=O)NC(C(=O)NC(C(=O)NC(C(=O)NC(C(=O)NC(C(=O)NC(C(=O)NC(C(=O)NC(C(=O)NC(C(=O)NC(C(=O)NC(C(=O)NC(C(=O)NC(C(=O)NC(C(=O)NC(C(=O)NC(C(=O)NC(C(=O)NC(C(=O)NC(C(=O)NC(C(=O)NC(C(=O)NC(C(=O)NC(C(=O)NC(C(=O)NC(C(=O)NC(C(=O)NC(C(=O)NC(C(=O)NC(C(=O)NC(C(=O)NC(C(=O)NC(C(=O)NCC(=O)NC(C(=O)NC(C(=O)NC(C(=O)NC(C(=O)NC(C(=O)NC(C(=O)NC(C(=O)NC(C(=O)NC(C(=O)NC(C(=O)NC(C(=O)NC(C(=O)NC(C(=O)NC(C(=O)NC(C(=O)NC(C(=O)NC(C(=O)NC(C(=O)NC(C(=O)NC(C(=O)NC(C(=O)NC(C(=O)NC(C(=O)NC(C(=O)NC(C(=O)NC(C(=O)NC(C(=O)NC(C(=O)NC(C(=O)NC(C(=O)NC(C(=O)NC(C(=O)NC(C(=O)N5C(C(=O)NC(C(=O)NCC(=O)NC(C(=O)NC(C(=O)NC(C(=O)NCC(=O)NC(C(=O)NC(C(=O)NC(C(=O)NC(C(=O)NC(C(=O)NC(C(=O)NC(C(=O)NC(C(=O)NC(C(=O)NC(C(=O)NC(C(=O)NC(C(=O)NC(C(=O)NC(C(=O)NC(C(=O)NC(C(=O)NC(C(=O)NC(C(=O)NCC(=O)NC(C(=O)NC(C(=O)NC(C(=O)NC(C(=O)NC(C(=O)N6C(C(=O)NC(C(=O)NC(C(=O)NC(C(=O)NC(C(=O)NC(C(=O)NC(C(=O)NC(C(=O)NC(C(=O)NC(C(=O)NC(C(=O)NC(C(=O)NC(C(=O)NC(C(=O)NC(C(=O)NC(C(=O)NC(C(=O)NCC(=O)NC(C(=O)NC(C(=O)NC(C(=O)NC(C(=O)NC(C(=O)NC(C(=O)NC(C(=O)NC(C(=O)NC(C(=O)NC(C(=O)NC(C(=O)NC(C(=O)NC(C(=O)NC(C(=O)NC(C(=O)NC(C(=O)NC(C(=O)NC(C(=O)NC(C(=O)NC(C(=O)NC(C(=O)NC(C(=O)NC(C(=O)NC(C(=O)NC(C(=O)NC(C(=O)NC(C(=O)NC(C(=O)NC(C(=O)NC(C(=O)NC(C(=O)N7C(C(=O)NC(C(=O)NCC(=O)NC(C(=O)NC(C(=O)NC(C(=O)NC(C(=O)NC(C(=O)NC(C(=O)NC(C(=O)NC(C(=O)NC(C(=O)NC(C(=O)NC(C(=O)NC(C(=O)NC(C(=O)N8C(C(=O)NCC(=O)NC(C(=O)NC(C(=O)NC(C(=O)NC(C(=O)NC(C(=O)NC(C(=O)NC(C(=O)NC(C(=O)NC(C(=O)NC(C(=O)NC(C(=O)NC(C(=O)NC(C(=O)NC(C(=O)NC(C(=O)NC(C(=O)NC(C(=O)NC(C(=O)NC(C(=O)NC(C(=O)N9C(C(=O)NCC(=O)NC(C(=O)NC(C(=O)NC(C(=O)NC(C(=O)NC(C(=O)NC(C(=O)NC(C(=O)NC(C(=O)NC(C(=O)NC(C(=O)NC(C(=O)NCC(=O)NC(C(=O)NC(C(=O)NC(C(=O)NC(C(=O)NCC(=O)NC(C(=O)NC(C(=O)NC(C(=O)NCC(=O)NC(C(=O)NCC(=O)NC(C(=O)NC(C(=O)NC(C(=O)NC(C(=O)NC(C(=O)NC(C(=O)N%10C(C(=O)NC(C(=O)NC(C(=O)NC(C(=O)N%11C(C(=O)NC(C(=O)NC(C(=O)NC(C(=O)NC(C(=O)NC(C(=O)NC(C(=O)NC(C(=O)NCC(=O)NC(C(=O)NC(C(=O)NC(C(=O)NCC(=O)NC(C(=O)NC(C(=O)NC(C(=O)NC(C(=O)N%12C(C(=O)NC(C(=O)NCC(=O)NC(C(=O)NC(C(=O)NC(C(=O)NC(C(=O)NC)CC(=O)N)Cc%13ccc(O)cc%13)CO)CCCNC(=[NH2+])N)CC(=O)[O-])CCC%12)Cc%12ccc(O)cc%12)CC(C)C)Cc%12ccc(O)cc%12)Cc%12ccccc%12)CCC(=O)[O-])C)CO)CC(=O)[O-])C(CC)C)CC(C)C)C)CCC(=O)N)Cc%12ccccc%12)CC(C)C)CCC%11)CCCC[NH3+])CC(=O)N)Cc%11[nH]cnc%11)CCC%10)C(CC)C)C(O)C)CCC(=O)N)CC(C)C)C(CC)C)CC(=O)N)CC(=O)[O-])C(O)C)C(C)C)Cc%10ccc(O)cc%10)C(CC)C)C)Cc%10c%11c([nH]c%10)cccc%11)CCC(=O)N)CC(C)C)CCCNC(=[NH2+])N)C(O)C)CS)CO)CC(C)C)CCCNC(=[NH2+])N)Cc%10ccccc%10)C(CC)C)Cc%10ccc(O)cc%10)CO)CCC9)CCCC[NH3+])C(O)C)CO)Cc9ccc(O)cc9)CCCC[NH3+])CCC(=O)N)CC(C)C)CCCNC(=[NH2+])N)C)CCCC[NH3+])C(C)C)CCC(=O)[O-])CC(=O)[O-])Cc9ccc(O)cc9)C(O)C)CC(C)C)Cc9ccccc9)C)CCSC)Cc9ccc(O)cc9)CCC8)Cc8nc[nH]c8)C(O)C)C(C)C)C)CC(C)C)Cc8ccccc8)CC(=O)N)Cc8c9c([nH]c8)cccc9)CC(=O)N)CCCNC(=[NH2+])N)CC(C)C)C(CC)C)CO)Cc8c9c([nH]c8)cccc9)CCC7)CCC(=O)N)Cc7ccccc7)CC(C)C)CCCNC(=[NH2+])N)C(O)C)Cc7ccccc7)C(CC)C)CC(=O)[O-])Cc7ccccc7)CCC(=O)[O-])Cc7ccccc7)C(C)C)CO)C(CC)C)Cc7ccc(O)cc7)CC(=O)[O-])CC(=O)N)CS)C(O)C)CC(C)C)CC(=O)[O-])C(CC)C)C(O)C)CO)CCCC[NH3+])CC(C)C)C)CCSC)C)CCC(=O)[O-])CC(C)C)CO)CO)C(CC)C)CCC(=O)N)Cc7nc[nH]c7)C(C)C)CCC(=O)[O-])Cc7nc[nH]c7)CC(C)C)CS)CCC(=O)N)CCCNC(=[NH2+])N)Cc7ccccc7)C(C)C)CCCC[NH3+])Cc7c8c([nH]c7)cccc8)CCC6)C(C)C)C(CC)C)C(O)C)CCCC[NH3+])CC(=O)[O-])Cc6ccccc6)Cc6ccccc6)CCCC[NH3+])CCCNC(=[NH2+])N)Cc6c7c([nH]c6)cccc7)Cc6ccccc6)CCC(=O)[O-])C)C)CC(=O)[O-])C)CCCC[NH3+])C(O)C)C(CC)C)CCCNC(=[NH2+])N)Cc6ccccc6)CC(=O)N)CC(=O)[O-])CCC(=O)N)Cc6ccccc6)CCC(=O)N)CC(=O)N)CCC5)Cc5ccccc5)C(CC)C)C)CCCC[NH3+])C(CC)C)CCC(=O)[O-])C)CC(C)C)CCSC)Cc5nc[nH]c5)CO)Cc5ccccc5)C(CC)C)CC(C)C)CO)CC(C)C)CCCC[NH3+])C(O)C)CC(C)C)CC(=O)N)CCCNC(=[NH2+])N)CCCNC(=[NH2+])N)CC(=O)[O-])CCC(=O)N)CO)CCC(=O)N)CCC(=O)[O-])CCC(=O)[O-])Cc5ccc(O)cc5)CCSC)CCCNC(=[NH2+])N)CCC(=O)[O-])CCCC[NH3+])CCC(=O)[O-])CCCC[NH3+])Cc5ccccc5)CC(C)C)CCCNC(=[NH2+])N)C(CC)C)C)CCCNC(=[NH2+])N)CCCC[NH3+])CO)CCCC[NH3+])CCCC[NH3+])CCSC)CC(C)C)CO)CC(=O)[O-])C(CC)C)Cc5ccc(O)cc5)C(CC)C)CCCC[NH3+])Cc5ccccc5)Cc5ccc(O)cc5)CCC(=O)[O-])CC(=O)N)CCC(=O)[O-])CO)CC(C)C)CCC(=O)N)C)CC(C)C)CCCC[NH3+])CCC(=O)N)CC(=O)N)CC(=O)[O-])CC(=O)[O-])Cc5ccc(O)cc5)CCCC[NH3+])CO)CC(C)C)C(CC)C)CC(C)C)CCCNC(=[NH2+])N)CC(C)C)Cc5nc[nH]c5)CCC(=O)N)Cc5ccc(O)cc5)C(O)C)CC(=O)[O-])CCC4)CC(C)C)C(CC)C)CC(=O)[O-])CC(C)C)C(CC)C)Cc4ccc(O)cc4)CCC3)CCC2)CO)CC(=O)N)CCCC[NH3+])CC(C)C)CCC(=O)N)CC(C)C)CCCC[NH3+])CCC1)CC(=O)N)CCC(=O)N)CS)CC(C)C)CCCNC(=[NH2+])N)C(C)C)C(C)C)C)CC(=O)[O-])C.OCCO.[UH+3].[Zn+2].[Zn+2].O.O.O.O.O.O.O.O.O.O.O.O.O.O.O.O.O.O.O.O.O.O.O.O.O.O.O.O.O.O.O.O.O.O.O.O.O.O.O.O.O.O.O.O.O.O.O.O.O.O.O.O.O.O.O.O.O.O.O.O.O.O.O.O.O.O.O.O.O.O.O.O.O.O.O.O.O.O.O.O.O.O.O.O.O.O.O.O.O.O.O.O.O.O.O.O.O.O.O.O.O.O.O.O.O.O.O.O.O.O.O.O.O.O.O.O.O.O.O.O.O.O.O.O.O.O.O.O.O.O.O.O.O.O.O.O.O.O.O.O.O.O

>  <rseq>
1

>  <mseq>
5

>  <S>
-7.4143987

>  <rmsd_refine>
1.092773

>  <E_conf>
-51.511356

>  <E_place>
-72.178406

>  <E_score1>
-11.896691

>  <E_refine>
-32.839962

>  <E_score2>
-7.4143987

>  <Field_2>
TE05

>  <pseq>
5

>  <%C>
99.797615

>  <a_heavy>
25

>  <h_logP>
2.7947621

>  <Weight>
341.362

>  <E_orig>
2.4000001

>  <PLIF_raw>
[[11,1,1,3,3,3],[6345,1774,1777,1771,1774,1777],[220688,141,141,141,141,141],[6,7,7,7,7,7],[0.7,2.776350325,3.51595877,2.220122487,1.069576451,3.146890964]]

>  <FP:PLIF>
1 4 3

>  <PLIF_ligidx>
[[1,1,3,3,3],1,11]

$$$$

  MOE2020           3D

 48 50  0  0  1  0  0  0  0  0999 V2000
    3.7450    4.2950   17.0880 O   0  0  0  0  0  0  0  0  0  0  0  0
    4.3790    5.3110   16.8580 C   0  0  0  0  0  0  0  0  0  0  0  0
    3.9630    6.5240   17.3630 N   0  0  0  0  0  0  0  0  0  0  0  0
    4.5580    7.3500   17.2020 H   0  0  0  0  0  0  0  0  0  0  0  0
    2.8370    6.6960   18.2920 C   0  0  1  0  0  0  0  0  0  0  0  0
    3.1020    5.9710   19.6200 C   0  0  0  0  0  0  0  0  0  0  0  0
    3.1630    4.8950   19.4640 H   0  0  0  0  0  0  0  0  0  0  0  0
    4.0470    6.3050   20.0420 H   0  0  0  0  0  0  0  0  0  0  0  0
    1.9660    6.2490   20.5980 C   0  0  0  0  0  0  0  0  0  0  0  0
    1.0480    5.8110   20.2130 H   0  0  0  0  0  0  0  0  0  0  0  0
    2.1910    5.7650   21.5460 H   0  0  0  0  0  0  0  0  0  0  0  0
    1.7390    7.7500   20.8140 C   0  0  0  0  0  0  0  0  0  0  0  0
    0.9210    7.8640   21.5100 H   0  0  0  0  0  0  0  0  0  0  0  0
    2.5920    8.1880   21.3080 H   0  0  0  0  0  0  0  0  0  0  0  0
    1.4970    8.4860   19.5590 N   0  0  0  0  0  0  0  0  0  0  0  0
    0.5600    9.4730   19.5400 C   0  0  0  0  0  0  0  0  0  0  0  0
   -0.1200    9.7130   20.5390 O   0  0  0  0  0  0  0  0  0  0  0  0
    0.3000   10.3120   18.3000 C   0  0  0  0  0  0  0  0  0  0  0  0
   -0.7720   10.3930   18.1750 H   0  0  0  0  0  0  0  0  0  0  0  0
    0.6160    9.8310   17.3920 H   0  0  0  0  0  0  0  0  0  0  0  0
    0.8860   11.7100   18.3670 C   0  0  0  0  0  0  0  0  0  0  0  0
    0.0480   12.8210   18.4690 C   0  0  0  0  0  0  0  0  0  0  0  0
   -1.0040   12.6960   18.5080 H   0  0  0  0  0  0  0  0  0  0  0  0
    0.5840   14.1050   18.5080 C   0  0  0  0  0  0  0  0  0  0  0  0
   -0.0610   14.9430   18.5800 H   0  0  0  0  0  0  0  0  0  0  0  0
    1.9610   14.2870   18.4380 C   0  0  0  0  0  0  0  0  0  0  0  0
    2.3690   15.2640   18.4570 H   0  0  0  0  0  0  0  0  0  0  0  0
    2.8010   13.1840   18.3360 C   0  0  0  0  0  0  0  0  0  0  0  0
    3.8500   13.3220   18.2740 H   0  0  0  0  0  0  0  0  0  0  0  0
    2.2650   11.9000   18.3110 C   0  0  0  0  0  0  0  0  0  0  0  0
    2.9090   11.0640   18.2450 H   0  0  0  0  0  0  0  0  0  0  0  0
    2.4940    8.1980   18.4860 C   0  0  0  0  0  0  0  0  0  0  0  0
    3.4030    8.7350   18.7120 H   0  0  0  0  0  0  0  0  0  0  0  0
    2.1850    8.5810   17.5280 H   0  0  0  0  0  0  0  0  0  0  0  0
    5.5780    5.2690   16.0440 C   0  0  0  0  0  0  0  0  0  0  0  0
    5.4590    4.9010   14.7030 C   0  0  0  0  0  0  0  0  0  0  0  0
    4.5240    4.6260   14.2930 H   0  0  0  0  0  0  0  0  0  0  0  0
    6.5870    4.9090   13.9080 C   0  0  0  0  0  0  0  0  0  0  0  0
    6.5290    4.6390   12.8850 H   0  0  0  0  0  0  0  0  0  0  0  0
    7.7970    5.2900   14.4640 C   0  0  0  0  0  0  0  0  0  0  0  0
    8.6630    5.3600   13.8590 H   0  0  0  0  0  0  0  0  0  0  0  0
    7.9100    5.5880   15.7570 N   0  0  0  0  0  0  0  0  0  0  0  0
    6.8510    5.5640   16.5640 C   0  0  0  0  0  0  0  0  0  0  0  0
    7.0860    5.8980   18.0390 C   0  0  0  0  0  0  0  0  0  0  0  0
    6.7410    7.1620   18.3050 F   0  0  0  0  0  0  0  0  0  0  0  0
    6.3890    5.1230   18.8830 F   0  0  0  0  0  0  0  0  0  0  0  0
    8.3700    5.7800   18.4140 F   0  0  0  0  0  0  0  0  0  0  0  0
    1.9590    6.2450   17.8350 H   0  0  0  0  0  0  0  0  0  0  0  0
  1  2  2  0  0  0  0
  2  3  1  0  0  0  0
  2 35  1  0  0  0  0
  3  4  1  0  0  0  0
  3  5  1  0  0  0  0
  5  6  1  0  0  0  0
  5 32  1  0  0  0  0
  5 48  1  0  0  0  0
  6  7  1  0  0  0  0
  6  8  1  0  0  0  0
  6  9  1  0  0  0  0
  9 10  1  0  0  0  0
  9 11  1  0  0  0  0
  9 12  1  0  0  0  0
 12 13  1  0  0  0  0
 12 14  1  0  0  0  0
 12 15  1  0  0  0  0
 15 16  1  0  0  0  0
 15 32  1  0  0  0  0
 16 17  2  0  0  0  0
 16 18  1  0  0  0  0
 18 19  1  0  0  0  0
 18 20  1  0  0  0  0
 18 21  1  0  0  0  0
 21 22  1  0  0  0  0
 21 30  2  0  0  0  0
 22 23  1  0  0  0  0
 22 24  2  0  0  0  0
 24 25  1  0  0  0  0
 24 26  1  0  0  0  0
 26 27  1  0  0  0  0
 26 28  2  0  0  0  0
 28 29  1  0  0  0  0
 28 30  1  0  0  0  0
 30 31  1  0  0  0  0
 32 33  1  0  0  0  0
 32 34  1  0  0  0  0
 35 36  1  0  0  0  0
 35 43  2  0  0  0  0
 36 37  1  0  0  0  0
 36 38  2  0  0  0  0
 38 39  1  0  0  0  0
 38 40  1  0  0  0  0
 40 41  1  0  0  0  0
 40 42  2  0  0  0  0
 42 43  1  0  0  0  0
 43 44  1  0  0  0  0
 44 45  1  0  0  0  0
 44 46  1  0  0  0  0
 44 47  1  0  0  0  0
M  END
>  <receptor>
S(=O)(=O)([O-])[O-].S(CCC(NC(=O)C(NC(=O)C(NC(=O)CNC(=O)C(NC(=O)C1N(C(=O)C(NC(=O)C(NC(=O)C(NC(=O)C(NC(=O)C(NC(=O)C(NC(=O)C(NC(=O)C(NC(=O)C(NC(=O)C(NC(=O)C(NC(=O)C(NC(=O)C(NC(=O)C(NC(=O)C(NC(=O)C(NC(=O)C(NC(=O)C(NC(=O)C(NC(=O)CNC(=O)C(NC(=O)C(NC(=O)C(NC(=O)C(NC(=O)C(NC(=O)C(NC(=O)C(NC(=O)C(NC(=O)C(NC(=O)C(NC(=O)C(NC(=O)C(NC(=O)C(NC(=O)C)CCCC[NH3+])C(C)C)C(O)C)CCC(=O)N)CCC(=O)[O-])CCC(=O)N)Cc2ccccc2)CCC(=O)[O-])CC(C)C)Cc2ccc(O)cc2)CS)CCC(=O)[O-])CCSC)CO)C(O)C)Cc2ccccc2)CCC(=O)N)CC(C)C)C[S-])CCCC[NH3+])C(CC)C)C[S-])C)CCC(=O)[O-])CC(=O)N)CC(=O)[O-])CCCC[NH3+])CC(=O)[O-])C(C)C)CCCC[NH3+])C(CC)C)CCC(=O)[O-])CCC1)C[S-])Cc1nc[n-]c1)CC(C)C)C(=O)NC(C(=O)NC(C(=O)NC(C(=O)NC(C(=O)NC(C(=O)NC(C(=O)NC(C(=O)NC(C(=O)NC(C(=O)NC(C(=O)NC(C(=O)NC(C(=O)NCC(=O)NC(C(=O)NCC(=O)NC(C(=O)N1C(C(=O)NC(C(=O)NC(C(=O)NC(C(=O)NC(C(=O)NC(C(=O)NC(C(=O)NC(C(=O)NCC(=O)NC(C(=O)NC(C(=O)N2C(C(=O)NC(C(=O)NC(C(=O)NC(C(=O)NC(C(=O)N3C(C(=O)NC(C(=O)NC(C(=O)[O-])CC(=O)[O-])Cc4ccccc4)CCC3)CC(=O)[O-])C(C)C)C(CC)C)C(CC)C)CCC2)CCC(=O)[O-])C(O)C)CCCC[NH3+])C(CC)C)CCC(=O)[O-])CS)CCCNC(=[NH2+])N)C[S-])Cc2ccccc2)CCC1)C[S-])CCC(=O)N)CC(=O)[O-])CO)CCC(=O)[O-])CCC(=O)N)Cc1c2c([nH]c1)cccc2)C)C(O)C)CC(C)C)C[S-])CO)C(O)C)C[S-])C.S(CCC(NC(=O)C(NC(=O)C(NC(=O)C(NC(=O)C(NC(=O)C(NC(=O)C(NC(=O)C(NC(=O)C(NC(=O)C(NC(=O)C(NC(=O)C(NC(=O)C(NC(=O)C(NC(=O)C(NC(=O)C(NC(=O)C[NH3+])CCC(=O)N)C)C)C)CC(=O)[O-])CCCNC(=[NH2+])N)CCCNC(=[NH2+])N)C(O)C)C(C)C)CCC(=O)[O-])CCCC[NH3+])C(O)C)Cc1c2c([nH]c1)cccc2)C)CC(C)C)C(=O)NC(C(=O)NC(C(=O)NC(C(=O)NC(C(=O)NC(C(=O)NC(C(=O)NC(C(=O)NC(C(=O)NC(C(=O)N1C(C(=O)NC(C(=O)NC(C(=O)NC(C(=O)NC(C(=O)NC(C(=O)NC(C(=O)NC(C(=O)N2C(C(=O)N3C(C(=O)NC(C(=O)NC(C(=O)NC(C(=O)NC(C(=O)NC(C(=O)NC(C(=O)N4C(C(=O)NC(C(=O)NC(C(=O)NC(C(=O)NC(C(=O)NC(C(=O)NC(C(=O)NC(C(=O)NC(C(=O)NC(C(=O)NC(C(=O)NC(C(=O)NC(C(=O)NC(C(=O)NC(C(=O)NC(C(=O)NC(C(=O)NC(C(=O)NC(C(=O)NC(C(=O)NC(C(=O)NC(C(=O)NC(C(=O)NC(C(=O)NC(C(=O)NC(C(=O)NC(C(=O)NC(C(=O)NC(C(=O)NC(C(=O)NC(C(=O)NC(C(=O)NC(C(=O)NC(C(=O)NC(C(=O)NC(C(=O)NC(C(=O)NC(C(=O)NC(C(=O)NC(C(=O)NC(C(=O)NC(C(=O)NC(C(=O)NC(C(=O)NC(C(=O)NC(C(=O)NC(C(=O)NC(C(=O)NC(C(=O)NCC(=O)NC(C(=O)NC(C(=O)NC(C(=O)NC(C(=O)NC(C(=O)NC(C(=O)NC(C(=O)NC(C(=O)NC(C(=O)NC(C(=O)NC(C(=O)NC(C(=O)NC(C(=O)NC(C(=O)NC(C(=O)NC(C(=O)NC(C(=O)NC(C(=O)NC(C(=O)NC(C(=O)NC(C(=O)NC(C(=O)NC(C(=O)NC(C(=O)NC(C(=O)NC(C(=O)NC(C(=O)NC(C(=O)NC(C(=O)NC(C(=O)NC(C(=O)NC(C(=O)NC(C(=O)N5C(C(=O)NC(C(=O)NCC(=O)NC(C(=O)NC(C(=O)NC(C(=O)NCC(=O)NC(C(=O)NC(C(=O)NC(C(=O)NC(C(=O)NC(C(=O)NC(C(=O)NC(C(=O)NC(C(=O)NC(C(=O)NC(C(=O)NC(C(=O)NC(C(=O)NC(C(=O)NC(C(=O)NC(C(=O)NC(C(=O)NC(C(=O)NC(C(=O)NCC(=O)NC(C(=O)NC(C(=O)NC(C(=O)NC(C(=O)NC(C(=O)N6C(C(=O)NC(C(=O)NC(C(=O)NC(C(=O)NC(C(=O)NC(C(=O)NC(C(=O)NC(C(=O)NC(C(=O)NC(C(=O)NC(C(=O)NC(C(=O)NC(C(=O)NC(C(=O)NC(C(=O)NC(C(=O)NC(C(=O)NCC(=O)NC(C(=O)NC(C(=O)NC(C(=O)NC(C(=O)NC(C(=O)NC(C(=O)NC(C(=O)NC(C(=O)NC(C(=O)NC(C(=O)NC(C(=O)NC(C(=O)NC(C(=O)NC(C(=O)NC(C(=O)NC(C(=O)NC(C(=O)NC(C(=O)NC(C(=O)NC(C(=O)NC(C(=O)NC(C(=O)NC(C(=O)NC(C(=O)NC(C(=O)NC(C(=O)NC(C(=O)NC(C(=O)NC(C(=O)NC(C(=O)NC(C(=O)N7C(C(=O)NC(C(=O)NCC(=O)NC(C(=O)NC(C(=O)NC(C(=O)NC(C(=O)NC(C(=O)NC(C(=O)NC(C(=O)NC(C(=O)NC(C(=O)NC(C(=O)NC(C(=O)NC(C(=O)NC(C(=O)N8C(C(=O)NCC(=O)NC(C(=O)NC(C(=O)NC(C(=O)NC(C(=O)NC(C(=O)NC(C(=O)NC(C(=O)NC(C(=O)NC(C(=O)NC(C(=O)NC(C(=O)NC(C(=O)NC(C(=O)NC(C(=O)NC(C(=O)NC(C(=O)NC(C(=O)NC(C(=O)NC(C(=O)NC(C(=O)N9C(C(=O)NCC(=O)NC(C(=O)NC(C(=O)NC(C(=O)NC(C(=O)NC(C(=O)NC(C(=O)NC(C(=O)NC(C(=O)NC(C(=O)NC(C(=O)NC(C(=O)NCC(=O)NC(C(=O)NC(C(=O)NC(C(=O)NC(C(=O)NCC(=O)NC(C(=O)NC(C(=O)NC(C(=O)NCC(=O)NC(C(=O)NCC(=O)NC(C(=O)NC(C(=O)NC(C(=O)NC(C(=O)NC(C(=O)NC(C(=O)N%10C(C(=O)NC(C(=O)NC(C(=O)NC(C(=O)N%11C(C(=O)NC(C(=O)NC(C(=O)NC(C(=O)NC(C(=O)NC(C(=O)NC(C(=O)NC(C(=O)NCC(=O)NC(C(=O)NC(C(=O)NC(C(=O)NCC(=O)NC(C(=O)NC(C(=O)NC(C(=O)NC(C(=O)N%12C(C(=O)NC(C(=O)NCC(=O)NC(C(=O)NC(C(=O)NC(C(=O)NC(C(=O)NC)CC(=O)N)Cc%13ccc(O)cc%13)CO)CCCNC(=[NH2+])N)CC(=O)[O-])CCC%12)Cc%12ccc(O)cc%12)CC(C)C)Cc%12ccc(O)cc%12)Cc%12ccccc%12)CCC(=O)[O-])C)CO)CC(=O)[O-])C(CC)C)CC(C)C)C)CCC(=O)N)Cc%12ccccc%12)CC(C)C)CCC%11)CCCC[NH3+])CC(=O)N)Cc%11[nH]cnc%11)CCC%10)C(CC)C)C(O)C)CCC(=O)N)CC(C)C)C(CC)C)CC(=O)N)CC(=O)[O-])C(O)C)C(C)C)Cc%10ccc(O)cc%10)C(CC)C)C)Cc%10c%11c([nH]c%10)cccc%11)CCC(=O)N)CC(C)C)CCCNC(=[NH2+])N)C(O)C)CS)CO)CC(C)C)CCCNC(=[NH2+])N)Cc%10ccccc%10)C(CC)C)Cc%10ccc(O)cc%10)CO)CCC9)CCCC[NH3+])C(O)C)CO)Cc9ccc(O)cc9)CCCC[NH3+])CCC(=O)N)CC(C)C)CCCNC(=[NH2+])N)C)CCCC[NH3+])C(C)C)CCC(=O)[O-])CC(=O)[O-])Cc9ccc(O)cc9)C(O)C)CC(C)C)Cc9ccccc9)C)CCSC)Cc9ccc(O)cc9)CCC8)Cc8nc[nH]c8)C(O)C)C(C)C)C)CC(C)C)Cc8ccccc8)CC(=O)N)Cc8c9c([nH]c8)cccc9)CC(=O)N)CCCNC(=[NH2+])N)CC(C)C)C(CC)C)CO)Cc8c9c([nH]c8)cccc9)CCC7)CCC(=O)N)Cc7ccccc7)CC(C)C)CCCNC(=[NH2+])N)C(O)C)Cc7ccccc7)C(CC)C)CC(=O)[O-])Cc7ccccc7)CCC(=O)[O-])Cc7ccccc7)C(C)C)CO)C(CC)C)Cc7ccc(O)cc7)CC(=O)[O-])CC(=O)N)CS)C(O)C)CC(C)C)CC(=O)[O-])C(CC)C)C(O)C)CO)CCCC[NH3+])CC(C)C)C)CCSC)C)CCC(=O)[O-])CC(C)C)CO)CO)C(CC)C)CCC(=O)N)Cc7nc[nH]c7)C(C)C)CCC(=O)[O-])Cc7nc[nH]c7)CC(C)C)CS)CCC(=O)N)CCCNC(=[NH2+])N)Cc7ccccc7)C(C)C)CCCC[NH3+])Cc7c8c([nH]c7)cccc8)CCC6)C(C)C)C(CC)C)C(O)C)CCCC[NH3+])CC(=O)[O-])Cc6ccccc6)Cc6ccccc6)CCCC[NH3+])CCCNC(=[NH2+])N)Cc6c7c([nH]c6)cccc7)Cc6ccccc6)CCC(=O)[O-])C)C)CC(=O)[O-])C)CCCC[NH3+])C(O)C)C(CC)C)CCCNC(=[NH2+])N)Cc6ccccc6)CC(=O)N)CC(=O)[O-])CCC(=O)N)Cc6ccccc6)CCC(=O)N)CC(=O)N)CCC5)Cc5ccccc5)C(CC)C)C)CCCC[NH3+])C(CC)C)CCC(=O)[O-])C)CC(C)C)CCSC)Cc5nc[nH]c5)CO)Cc5ccccc5)C(CC)C)CC(C)C)CO)CC(C)C)CCCC[NH3+])C(O)C)CC(C)C)CC(=O)N)CCCNC(=[NH2+])N)CCCNC(=[NH2+])N)CC(=O)[O-])CCC(=O)N)CO)CCC(=O)N)CCC(=O)[O-])CCC(=O)[O-])Cc5ccc(O)cc5)CCSC)CCCNC(=[NH2+])N)CCC(=O)[O-])CCCC[NH3+])CCC(=O)[O-])CCCC[NH3+])Cc5ccccc5)CC(C)C)CCCNC(=[NH2+])N)C(CC)C)C)CCCNC(=[NH2+])N)CCCC[NH3+])CO)CCCC[NH3+])CCCC[NH3+])CCSC)CC(C)C)CO)CC(=O)[O-])C(CC)C)Cc5ccc(O)cc5)C(CC)C)CCCC[NH3+])Cc5ccccc5)Cc5ccc(O)cc5)CCC(=O)[O-])CC(=O)N)CCC(=O)[O-])CO)CC(C)C)CCC(=O)N)C)CC(C)C)CCCC[NH3+])CCC(=O)N)CC(=O)N)CC(=O)[O-])CC(=O)[O-])Cc5ccc(O)cc5)CCCC[NH3+])CO)CC(C)C)C(CC)C)CC(C)C)CCCNC(=[NH2+])N)CC(C)C)Cc5nc[nH]c5)CCC(=O)N)Cc5ccc(O)cc5)C(O)C)CC(=O)[O-])CCC4)CC(C)C)C(CC)C)CC(=O)[O-])CC(C)C)C(CC)C)Cc4ccc(O)cc4)CCC3)CCC2)CO)CC(=O)N)CCCC[NH3+])CC(C)C)CCC(=O)N)CC(C)C)CCCC[NH3+])CCC1)CC(=O)N)CCC(=O)N)CS)CC(C)C)CCCNC(=[NH2+])N)C(C)C)C(C)C)C)CC(=O)[O-])C.OCCO.[UH+3].[Zn+2].[Zn+2].O.O.O.O.O.O.O.O.O.O.O.O.O.O.O.O.O.O.O.O.O.O.O.O.O.O.O.O.O.O.O.O.O.O.O.O.O.O.O.O.O.O.O.O.O.O.O.O.O.O.O.O.O.O.O.O.O.O.O.O.O.O.O.O.O.O.O.O.O.O.O.O.O.O.O.O.O.O.O.O.O.O.O.O.O.O.O.O.O.O.O.O.O.O.O.O.O.O.O.O.O.O.O.O.O.O.O.O.O.O.O.O.O.O.O.O.O.O.O.O.O.O.O.O.O.O.O.O.O.O.O.O.O.O.O.O.O.O.O.O.O.O

>  <rseq>
1

>  <mseq>
6

>  <S>
-7.3180952

>  <rmsd_refine>
1.5681947

>  <E_conf>
43.352203

>  <E_place>
-54.652931

>  <E_score1>
-10.289042

>  <E_refine>
-33.889515

>  <E_score2>
-7.3180952

>  <Field_2>
TE06

>  <pseq>
6

>  <%C>
100

>  <a_heavy>
28

>  <h_logP>
3.8625977

>  <Weight>
391.39301

>  <E_orig>
0.3895067

>  <PLIF_raw>
[1,6345,220688,6,2]

>  <FP:PLIF>
3 5

>  <PLIF_ligidx>
[1,1]

$$$$

  MOE2020           3D

 42 43  0  0  0  0  0  0  0  0999 V2000
    4.8260    5.3310   14.7320 N   0  0  0  0  0  0  0  0  0  0  0  0
    4.4750    5.5250   13.8050 H   0  0  0  0  0  0  0  0  0  0  0  0
    4.3570    5.6900   15.5480 H   0  0  0  0  0  0  0  0  0  0  0  0
    5.8870    4.5410   14.8780 C   0  0  0  0  0  0  0  0  0  0  0  0
    6.4590    4.0660   13.9020 O   0  0  0  0  0  0  0  0  0  0  0  0
    6.4050    4.2340   16.2920 C   0  0  0  0  0  0  0  0  0  0  0  0
    7.4490    4.5360   16.3400 H   0  0  0  0  0  0  0  0  0  0  0  0
    6.3800    3.1540   16.4110 H   0  0  0  0  0  0  0  0  0  0  0  0
    5.6470    4.8360   17.4100 N   0  0  0  0  0  0  0  0  0  0  0  0
    4.5000    4.2450   17.8260 C   0  0  0  0  0  0  0  0  0  0  0  0
    4.0090    3.3200   17.1800 O   0  0  0  0  0  0  0  0  0  0  0  0
    3.8020    4.7110   19.1000 C   0  0  0  0  0  0  0  0  0  0  0  0
    3.1110    3.9430   19.4180 H   0  0  0  0  0  0  0  0  0  0  0  0
    4.5310    4.7560   19.8950 H   0  0  0  0  0  0  0  0  0  0  0  0
    3.0570    6.0430   19.0510 C   0  0  0  0  0  0  0  0  0  0  0  0
    3.0600    6.8670   17.9250 C   0  0  0  0  0  0  0  0  0  0  0  0
    3.5610    6.5700   17.0430 H   0  0  0  0  0  0  0  0  0  0  0  0
    2.4120    8.0980   17.9460 C   0  0  0  0  0  0  0  0  0  0  0  0
    2.4250    8.7090   17.0820 H   0  0  0  0  0  0  0  0  0  0  0  0
    1.7500    8.5350   19.0920 C   0  0  0  0  0  0  0  0  0  0  0  0
    1.0600    9.8950   19.0800 C   0  0  0  0  0  0  0  0  0  0  0  0
    1.8980   10.8780   18.7190 F   0  0  0  0  0  0  0  0  0  0  0  0
    0.5560   10.2490   20.2780 F   0  0  0  0  0  0  0  0  0  0  0  0
    0.0390    9.9280   18.2140 F   0  0  0  0  0  0  0  0  0  0  0  0
    1.7340    7.7040   20.2150 C   0  0  0  0  0  0  0  0  0  0  0  0
    1.2320    8.0040   21.0980 H   0  0  0  0  0  0  0  0  0  0  0  0
    2.3740    6.4680   20.1880 C   0  0  0  0  0  0  0  0  0  0  0  0
    2.3480    5.8480   21.0470 H   0  0  0  0  0  0  0  0  0  0  0  0
    6.2460    6.0030   18.1110 C   0  0  0  0  0  0  0  0  0  0  0  0
    5.5590    6.4260   18.8240 H   0  0  0  0  0  0  0  0  0  0  0  0
    6.6250    7.1580   17.1810 C   0  0  0  0  0  0  0  0  0  0  0  0
    6.2210    7.0590   16.1770 H   0  0  0  0  0  0  0  0  0  0  0  0
    6.2470    8.0810   17.6130 H   0  0  0  0  0  0  0  0  0  0  0  0
    8.1450    7.2240   17.1610 C   0  0  0  0  0  0  0  0  0  0  0  0
    8.5240    6.5150   16.4300 H   0  0  0  0  0  0  0  0  0  0  0  0
    8.5050    8.2280   16.9610 H   0  0  0  0  0  0  0  0  0  0  0  0
    8.5170    6.7820   18.5750 C   0  0  0  0  0  0  0  0  0  0  0  0
    8.3980    7.6330   19.2350 H   0  0  0  0  0  0  0  0  0  0  0  0
    9.5300    6.4220   18.6540 H   0  0  0  0  0  0  0  0  0  0  0  0
    7.5200    5.6700   18.8880 C   0  0  0  0  0  0  0  0  0  0  0  0
    7.3260    5.6100   19.9590 H   0  0  0  0  0  0  0  0  0  0  0  0
    7.9370    4.7200   18.5520 H   0  0  0  0  0  0  0  0  0  0  0  0
  1  2  1  0  0  0  0
  1  3  1  0  0  0  0
  1  4  1  0  0  0  0
  4  5  2  0  0  0  0
  4  6  1  0  0  0  0
  6  7  1  0  0  0  0
  6  8  1  0  0  0  0
  6  9  1  0  0  0  0
  9 10  1  0  0  0  0
  9 29  1  0  0  0  0
 10 11  2  0  0  0  0
 10 12  1  0  0  0  0
 12 13  1  0  0  0  0
 12 14  1  0  0  0  0
 12 15  1  0  0  0  0
 15 16  1  0  0  0  0
 15 27  2  0  0  0  0
 16 17  1  0  0  0  0
 16 18  2  0  0  0  0
 18 19  1  0  0  0  0
 18 20  1  0  0  0  0
 20 21  1  0  0  0  0
 20 25  2  0  0  0  0
 21 22  1  0  0  0  0
 21 23  1  0  0  0  0
 21 24  1  0  0  0  0
 25 26  1  0  0  0  0
 25 27  1  0  0  0  0
 27 28  1  0  0  0  0
 29 30  1  0  0  0  0
 29 31  1  0  0  0  0
 29 40  1  0  0  0  0
 31 32  1  0  0  0  0
 31 33  1  0  0  0  0
 31 34  1  0  0  0  0
 34 35  1  0  0  0  0
 34 36  1  0  0  0  0
 34 37  1  0  0  0  0
 37 38  1  0  0  0  0
 37 39  1  0  0  0  0
 37 40  1  0  0  0  0
 40 41  1  0  0  0  0
 40 42  1  0  0  0  0
M  END
>  <receptor>
S(=O)(=O)([O-])[O-].S(CCC(NC(=O)C(NC(=O)C(NC(=O)CNC(=O)C(NC(=O)C1N(C(=O)C(NC(=O)C(NC(=O)C(NC(=O)C(NC(=O)C(NC(=O)C(NC(=O)C(NC(=O)C(NC(=O)C(NC(=O)C(NC(=O)C(NC(=O)C(NC(=O)C(NC(=O)C(NC(=O)C(NC(=O)C(NC(=O)C(NC(=O)C(NC(=O)C(NC(=O)CNC(=O)C(NC(=O)C(NC(=O)C(NC(=O)C(NC(=O)C(NC(=O)C(NC(=O)C(NC(=O)C(NC(=O)C(NC(=O)C(NC(=O)C(NC(=O)C(NC(=O)C(NC(=O)C)CCCC[NH3+])C(C)C)C(O)C)CCC(=O)N)CCC(=O)[O-])CCC(=O)N)Cc2ccccc2)CCC(=O)[O-])CC(C)C)Cc2ccc(O)cc2)CS)CCC(=O)[O-])CCSC)CO)C(O)C)Cc2ccccc2)CCC(=O)N)CC(C)C)C[S-])CCCC[NH3+])C(CC)C)C[S-])C)CCC(=O)[O-])CC(=O)N)CC(=O)[O-])CCCC[NH3+])CC(=O)[O-])C(C)C)CCCC[NH3+])C(CC)C)CCC(=O)[O-])CCC1)C[S-])Cc1nc[n-]c1)CC(C)C)C(=O)NC(C(=O)NC(C(=O)NC(C(=O)NC(C(=O)NC(C(=O)NC(C(=O)NC(C(=O)NC(C(=O)NC(C(=O)NC(C(=O)NC(C(=O)NC(C(=O)NCC(=O)NC(C(=O)NCC(=O)NC(C(=O)N1C(C(=O)NC(C(=O)NC(C(=O)NC(C(=O)NC(C(=O)NC(C(=O)NC(C(=O)NC(C(=O)NCC(=O)NC(C(=O)NC(C(=O)N2C(C(=O)NC(C(=O)NC(C(=O)NC(C(=O)NC(C(=O)N3C(C(=O)NC(C(=O)NC(C(=O)[O-])CC(=O)[O-])Cc4ccccc4)CCC3)CC(=O)[O-])C(C)C)C(CC)C)C(CC)C)CCC2)CCC(=O)[O-])C(O)C)CCCC[NH3+])C(CC)C)CCC(=O)[O-])CS)CCCNC(=[NH2+])N)C[S-])Cc2ccccc2)CCC1)C[S-])CCC(=O)N)CC(=O)[O-])CO)CCC(=O)[O-])CCC(=O)N)Cc1c2c([nH]c1)cccc2)C)C(O)C)CC(C)C)C[S-])CO)C(O)C)C[S-])C.S(CCC(NC(=O)C(NC(=O)C(NC(=O)C(NC(=O)C(NC(=O)C(NC(=O)C(NC(=O)C(NC(=O)C(NC(=O)C(NC(=O)C(NC(=O)C(NC(=O)C(NC(=O)C(NC(=O)C(NC(=O)C(NC(=O)C[NH3+])CCC(=O)N)C)C)C)CC(=O)[O-])CCCNC(=[NH2+])N)CCCNC(=[NH2+])N)C(O)C)C(C)C)CCC(=O)[O-])CCCC[NH3+])C(O)C)Cc1c2c([nH]c1)cccc2)C)CC(C)C)C(=O)NC(C(=O)NC(C(=O)NC(C(=O)NC(C(=O)NC(C(=O)NC(C(=O)NC(C(=O)NC(C(=O)NC(C(=O)N1C(C(=O)NC(C(=O)NC(C(=O)NC(C(=O)NC(C(=O)NC(C(=O)NC(C(=O)NC(C(=O)N2C(C(=O)N3C(C(=O)NC(C(=O)NC(C(=O)NC(C(=O)NC(C(=O)NC(C(=O)NC(C(=O)N4C(C(=O)NC(C(=O)NC(C(=O)NC(C(=O)NC(C(=O)NC(C(=O)NC(C(=O)NC(C(=O)NC(C(=O)NC(C(=O)NC(C(=O)NC(C(=O)NC(C(=O)NC(C(=O)NC(C(=O)NC(C(=O)NC(C(=O)NC(C(=O)NC(C(=O)NC(C(=O)NC(C(=O)NC(C(=O)NC(C(=O)NC(C(=O)NC(C(=O)NC(C(=O)NC(C(=O)NC(C(=O)NC(C(=O)NC(C(=O)NC(C(=O)NC(C(=O)NC(C(=O)NC(C(=O)NC(C(=O)NC(C(=O)NC(C(=O)NC(C(=O)NC(C(=O)NC(C(=O)NC(C(=O)NC(C(=O)NC(C(=O)NC(C(=O)NC(C(=O)NC(C(=O)NC(C(=O)NC(C(=O)NC(C(=O)NCC(=O)NC(C(=O)NC(C(=O)NC(C(=O)NC(C(=O)NC(C(=O)NC(C(=O)NC(C(=O)NC(C(=O)NC(C(=O)NC(C(=O)NC(C(=O)NC(C(=O)NC(C(=O)NC(C(=O)NC(C(=O)NC(C(=O)NC(C(=O)NC(C(=O)NC(C(=O)NC(C(=O)NC(C(=O)NC(C(=O)NC(C(=O)NC(C(=O)NC(C(=O)NC(C(=O)NC(C(=O)NC(C(=O)NC(C(=O)NC(C(=O)NC(C(=O)NC(C(=O)NC(C(=O)N5C(C(=O)NC(C(=O)NCC(=O)NC(C(=O)NC(C(=O)NC(C(=O)NCC(=O)NC(C(=O)NC(C(=O)NC(C(=O)NC(C(=O)NC(C(=O)NC(C(=O)NC(C(=O)NC(C(=O)NC(C(=O)NC(C(=O)NC(C(=O)NC(C(=O)NC(C(=O)NC(C(=O)NC(C(=O)NC(C(=O)NC(C(=O)NC(C(=O)NCC(=O)NC(C(=O)NC(C(=O)NC(C(=O)NC(C(=O)NC(C(=O)N6C(C(=O)NC(C(=O)NC(C(=O)NC(C(=O)NC(C(=O)NC(C(=O)NC(C(=O)NC(C(=O)NC(C(=O)NC(C(=O)NC(C(=O)NC(C(=O)NC(C(=O)NC(C(=O)NC(C(=O)NC(C(=O)NC(C(=O)NCC(=O)NC(C(=O)NC(C(=O)NC(C(=O)NC(C(=O)NC(C(=O)NC(C(=O)NC(C(=O)NC(C(=O)NC(C(=O)NC(C(=O)NC(C(=O)NC(C(=O)NC(C(=O)NC(C(=O)NC(C(=O)NC(C(=O)NC(C(=O)NC(C(=O)NC(C(=O)NC(C(=O)NC(C(=O)NC(C(=O)NC(C(=O)NC(C(=O)NC(C(=O)NC(C(=O)NC(C(=O)NC(C(=O)NC(C(=O)NC(C(=O)NC(C(=O)N7C(C(=O)NC(C(=O)NCC(=O)NC(C(=O)NC(C(=O)NC(C(=O)NC(C(=O)NC(C(=O)NC(C(=O)NC(C(=O)NC(C(=O)NC(C(=O)NC(C(=O)NC(C(=O)NC(C(=O)NC(C(=O)N8C(C(=O)NCC(=O)NC(C(=O)NC(C(=O)NC(C(=O)NC(C(=O)NC(C(=O)NC(C(=O)NC(C(=O)NC(C(=O)NC(C(=O)NC(C(=O)NC(C(=O)NC(C(=O)NC(C(=O)NC(C(=O)NC(C(=O)NC(C(=O)NC(C(=O)NC(C(=O)NC(C(=O)NC(C(=O)N9C(C(=O)NCC(=O)NC(C(=O)NC(C(=O)NC(C(=O)NC(C(=O)NC(C(=O)NC(C(=O)NC(C(=O)NC(C(=O)NC(C(=O)NC(C(=O)NC(C(=O)NCC(=O)NC(C(=O)NC(C(=O)NC(C(=O)NC(C(=O)NCC(=O)NC(C(=O)NC(C(=O)NC(C(=O)NCC(=O)NC(C(=O)NCC(=O)NC(C(=O)NC(C(=O)NC(C(=O)NC(C(=O)NC(C(=O)NC(C(=O)N%10C(C(=O)NC(C(=O)NC(C(=O)NC(C(=O)N%11C(C(=O)NC(C(=O)NC(C(=O)NC(C(=O)NC(C(=O)NC(C(=O)NC(C(=O)NC(C(=O)NCC(=O)NC(C(=O)NC(C(=O)NC(C(=O)NCC(=O)NC(C(=O)NC(C(=O)NC(C(=O)NC(C(=O)N%12C(C(=O)NC(C(=O)NCC(=O)NC(C(=O)NC(C(=O)NC(C(=O)NC(C(=O)NC)CC(=O)N)Cc%13ccc(O)cc%13)CO)CCCNC(=[NH2+])N)CC(=O)[O-])CCC%12)Cc%12ccc(O)cc%12)CC(C)C)Cc%12ccc(O)cc%12)Cc%12ccccc%12)CCC(=O)[O-])C)CO)CC(=O)[O-])C(CC)C)CC(C)C)C)CCC(=O)N)Cc%12ccccc%12)CC(C)C)CCC%11)CCCC[NH3+])CC(=O)N)Cc%11[nH]cnc%11)CCC%10)C(CC)C)C(O)C)CCC(=O)N)CC(C)C)C(CC)C)CC(=O)N)CC(=O)[O-])C(O)C)C(C)C)Cc%10ccc(O)cc%10)C(CC)C)C)Cc%10c%11c([nH]c%10)cccc%11)CCC(=O)N)CC(C)C)CCCNC(=[NH2+])N)C(O)C)CS)CO)CC(C)C)CCCNC(=[NH2+])N)Cc%10ccccc%10)C(CC)C)Cc%10ccc(O)cc%10)CO)CCC9)CCCC[NH3+])C(O)C)CO)Cc9ccc(O)cc9)CCCC[NH3+])CCC(=O)N)CC(C)C)CCCNC(=[NH2+])N)C)CCCC[NH3+])C(C)C)CCC(=O)[O-])CC(=O)[O-])Cc9ccc(O)cc9)C(O)C)CC(C)C)Cc9ccccc9)C)CCSC)Cc9ccc(O)cc9)CCC8)Cc8nc[nH]c8)C(O)C)C(C)C)C)CC(C)C)Cc8ccccc8)CC(=O)N)Cc8c9c([nH]c8)cccc9)CC(=O)N)CCCNC(=[NH2+])N)CC(C)C)C(CC)C)CO)Cc8c9c([nH]c8)cccc9)CCC7)CCC(=O)N)Cc7ccccc7)CC(C)C)CCCNC(=[NH2+])N)C(O)C)Cc7ccccc7)C(CC)C)CC(=O)[O-])Cc7ccccc7)CCC(=O)[O-])Cc7ccccc7)C(C)C)CO)C(CC)C)Cc7ccc(O)cc7)CC(=O)[O-])CC(=O)N)CS)C(O)C)CC(C)C)CC(=O)[O-])C(CC)C)C(O)C)CO)CCCC[NH3+])CC(C)C)C)CCSC)C)CCC(=O)[O-])CC(C)C)CO)CO)C(CC)C)CCC(=O)N)Cc7nc[nH]c7)C(C)C)CCC(=O)[O-])Cc7nc[nH]c7)CC(C)C)CS)CCC(=O)N)CCCNC(=[NH2+])N)Cc7ccccc7)C(C)C)CCCC[NH3+])Cc7c8c([nH]c7)cccc8)CCC6)C(C)C)C(CC)C)C(O)C)CCCC[NH3+])CC(=O)[O-])Cc6ccccc6)Cc6ccccc6)CCCC[NH3+])CCCNC(=[NH2+])N)Cc6c7c([nH]c6)cccc7)Cc6ccccc6)CCC(=O)[O-])C)C)CC(=O)[O-])C)CCCC[NH3+])C(O)C)C(CC)C)CCCNC(=[NH2+])N)Cc6ccccc6)CC(=O)N)CC(=O)[O-])CCC(=O)N)Cc6ccccc6)CCC(=O)N)CC(=O)N)CCC5)Cc5ccccc5)C(CC)C)C)CCCC[NH3+])C(CC)C)CCC(=O)[O-])C)CC(C)C)CCSC)Cc5nc[nH]c5)CO)Cc5ccccc5)C(CC)C)CC(C)C)CO)CC(C)C)CCCC[NH3+])C(O)C)CC(C)C)CC(=O)N)CCCNC(=[NH2+])N)CCCNC(=[NH2+])N)CC(=O)[O-])CCC(=O)N)CO)CCC(=O)N)CCC(=O)[O-])CCC(=O)[O-])Cc5ccc(O)cc5)CCSC)CCCNC(=[NH2+])N)CCC(=O)[O-])CCCC[NH3+])CCC(=O)[O-])CCCC[NH3+])Cc5ccccc5)CC(C)C)CCCNC(=[NH2+])N)C(CC)C)C)CCCNC(=[NH2+])N)CCCC[NH3+])CO)CCCC[NH3+])CCCC[NH3+])CCSC)CC(C)C)CO)CC(=O)[O-])C(CC)C)Cc5ccc(O)cc5)C(CC)C)CCCC[NH3+])Cc5ccccc5)Cc5ccc(O)cc5)CCC(=O)[O-])CC(=O)N)CCC(=O)[O-])CO)CC(C)C)CCC(=O)N)C)CC(C)C)CCCC[NH3+])CCC(=O)N)CC(=O)N)CC(=O)[O-])CC(=O)[O-])Cc5ccc(O)cc5)CCCC[NH3+])CO)CC(C)C)C(CC)C)CC(C)C)CCCNC(=[NH2+])N)CC(C)C)Cc5nc[nH]c5)CCC(=O)N)Cc5ccc(O)cc5)C(O)C)CC(=O)[O-])CCC4)CC(C)C)C(CC)C)CC(=O)[O-])CC(C)C)C(CC)C)Cc4ccc(O)cc4)CCC3)CCC2)CO)CC(=O)N)CCCC[NH3+])CC(C)C)CCC(=O)N)CC(C)C)CCCC[NH3+])CCC1)CC(=O)N)CCC(=O)N)CS)CC(C)C)CCCNC(=[NH2+])N)C(C)C)C(C)C)C)CC(=O)[O-])C.OCCO.[UH+3].[Zn+2].[Zn+2].O.O.O.O.O.O.O.O.O.O.O.O.O.O.O.O.O.O.O.O.O.O.O.O.O.O.O.O.O.O.O.O.O.O.O.O.O.O.O.O.O.O.O.O.O.O.O.O.O.O.O.O.O.O.O.O.O.O.O.O.O.O.O.O.O.O.O.O.O.O.O.O.O.O.O.O.O.O.O.O.O.O.O.O.O.O.O.O.O.O.O.O.O.O.O.O.O.O.O.O.O.O.O.O.O.O.O.O.O.O.O.O.O.O.O.O.O.O.O.O.O.O.O.O.O.O.O.O.O.O.O.O.O.O.O.O.O.O.O.O.O.O

>  <rseq>
1

>  <mseq>
7

>  <S>
-7.1090112

>  <rmsd_refine>
1.2217356

>  <E_conf>
10.541861

>  <E_place>
-64.116554

>  <E_score1>
-11.016968

>  <E_refine>
-29.897987

>  <E_score2>
-7.1090112

>  <Field_2>
TE07

>  <pseq>
7

>  <%C>
100

>  <a_heavy>
23

>  <h_logP>
2.3930831

>  <Weight>
328.33398

>  <E_orig>
1.2939587

>  <PLIF_raw>
[[15,27,25,20,18,16],[5181,5181,5181,5181,5181,5181],[366,366,366,366,366,366],[10,10,10,10,10,10],[0.7,0.7,0.7,0.7,0.7,0.7]]

>  <FP:PLIF>
6

>  <PLIF_ligidx>
[[15,27,25,20,18,16]]

$$$$

  MOE2020           3D

 48 50  0  0  0  0  0  0  0  0999 V2000
    6.1290    3.6740   13.4030 C   0  0  0  0  0  0  0  0  0  0  0  0
    5.0830    3.9160   13.2800 H   0  0  0  0  0  0  0  0  0  0  0  0
    6.5980    3.7470   12.4310 H   0  0  0  0  0  0  0  0  0  0  0  0
    6.2080    2.6450   13.7020 H   0  0  0  0  0  0  0  0  0  0  0  0
    6.7550    4.5320   14.4020 N   0  0  0  0  0  0  0  0  0  0  0  0
    7.5250    5.5920   13.7770 C   0  0  0  0  0  0  0  0  0  0  0  0
    8.2480    5.9920   14.4660 H   0  0  0  0  0  0  0  0  0  0  0  0
    8.0810    5.2470   12.9160 H   0  0  0  0  0  0  0  0  0  0  0  0
    6.8780    6.3880   13.4440 H   0  0  0  0  0  0  0  0  0  0  0  0
    6.0480    4.7540   15.6100 C   0  0  0  0  0  0  0  0  0  0  0  0
    6.0940    5.9830   16.2900 C   0  0  0  0  0  0  0  0  0  0  0  0
    6.7080    6.7660   15.9450 H   0  0  0  0  0  0  0  0  0  0  0  0
    5.3280    6.1820   17.4310 C   0  0  0  0  0  0  0  0  0  0  0  0
    5.3780    7.1100   17.9390 H   0  0  0  0  0  0  0  0  0  0  0  0
    4.4960    5.1650   17.9210 C   0  0  0  0  0  0  0  0  0  0  0  0
    3.6560    5.3250   19.1020 C   0  0  0  0  0  0  0  0  0  0  0  0
    3.5790    4.4110   19.9220 O   0  0  0  0  0  0  0  0  0  0  0  0
    2.8750    6.4630   19.3280 N   0  0  0  0  0  0  0  0  0  0  0  0
    2.4340    7.3820   18.2450 C   0  0  0  0  0  0  0  0  0  0  0  0
    3.2020    7.5190   17.5020 H   0  0  0  0  0  0  0  0  0  0  0  0
    1.6200    6.9160   17.7120 H   0  0  0  0  0  0  0  0  0  0  0  0
    1.9690    8.7830   18.7170 C   0  0  0  0  0  0  0  0  0  0  0  0
    1.4250    9.2550   17.9100 H   0  0  0  0  0  0  0  0  0  0  0  0
    2.8420    9.4010   18.8730 H   0  0  0  0  0  0  0  0  0  0  0  0
    1.1680    8.7710   19.9590 N   0  0  0  0  0  0  0  0  0  0  0  0
    0.1380    9.6600   20.2420 C   0  0  0  0  0  0  0  0  0  0  0  0
   -0.4730    9.5360   21.3020 O   0  0  0  0  0  0  0  0  0  0  0  0
   -0.2120   10.7170   19.3050 C   0  0  0  0  0  0  0  0  0  0  0  0
   -1.4280   10.6780   18.6110 C   0  0  0  0  0  0  0  0  0  0  0  0
   -2.0840    9.8550   18.7360 H   0  0  0  0  0  0  0  0  0  0  0  0
   -1.7910   11.7230   17.7670 C   0  0  0  0  0  0  0  0  0  0  0  0
   -2.7150   11.6900   17.2480 H   0  0  0  0  0  0  0  0  0  0  0  0
   -0.9480   12.8200   17.6020 C   0  0  0  0  0  0  0  0  0  0  0  0
   -1.2330   13.6090   16.9580 H   0  0  0  0  0  0  0  0  0  0  0  0
    0.2680   12.8780   18.2740 C   0  0  0  0  0  0  0  0  0  0  0  0
    0.9140   13.7080   18.1490 H   0  0  0  0  0  0  0  0  0  0  0  0
    0.6150   11.8300   19.1130 C   0  0  0  0  0  0  0  0  0  0  0  0
    1.7980   11.9150   19.7840 F   0  0  0  0  0  0  0  0  0  0  0  0
    1.7180    7.9160   21.0090 C   0  0  0  0  0  0  0  0  0  0  0  0
    2.6330    8.3590   21.3720 H   0  0  0  0  0  0  0  0  0  0  0  0
    1.0680    7.8660   21.8690 H   0  0  0  0  0  0  0  0  0  0  0  0
    2.0000    6.4960   20.5150 C   0  0  0  0  0  0  0  0  0  0  0  0
    1.0660    6.0030   20.2930 H   0  0  0  0  0  0  0  0  0  0  0  0
    2.4160    5.9230   21.3290 H   0  0  0  0  0  0  0  0  0  0  0  0
    4.5120    3.9220   17.2750 C   0  0  0  0  0  0  0  0  0  0  0  0
    3.9300    3.1250   17.6580 H   0  0  0  0  0  0  0  0  0  0  0  0
    5.2790    3.7130   16.1440 C   0  0  0  0  0  0  0  0  0  0  0  0
    5.2860    2.7590   15.6950 H   0  0  0  0  0  0  0  0  0  0  0  0
  1  2  1  0  0  0  0
  1  3  1  0  0  0  0
  1  4  1  0  0  0  0
  1  5  1  0  0  0  0
  5  6  1  0  0  0  0
  5 10  1  0  0  0  0
  6  7  1  0  0  0  0
  6  8  1  0  0  0  0
  6  9  1  0  0  0  0
 10 11  1  0  0  0  0
 10 47  2  0  0  0  0
 11 12  1  0  0  0  0
 11 13  2  0  0  0  0
 13 14  1  0  0  0  0
 13 15  1  0  0  0  0
 15 16  1  0  0  0  0
 15 45  2  0  0  0  0
 16 17  2  0  0  0  0
 16 18  1  0  0  0  0
 18 19  1  0  0  0  0
 18 42  1  0  0  0  0
 19 20  1  0  0  0  0
 19 21  1  0  0  0  0
 19 22  1  0  0  0  0
 22 23  1  0  0  0  0
 22 24  1  0  0  0  0
 22 25  1  0  0  0  0
 25 26  1  0  0  0  0
 25 39  1  0  0  0  0
 26 27  2  0  0  0  0
 26 28  1  0  0  0  0
 28 29  1  0  0  0  0
 28 37  2  0  0  0  0
 29 30  1  0  0  0  0
 29 31  2  0  0  0  0
 31 32  1  0  0  0  0
 31 33  1  0  0  0  0
 33 34  1  0  0  0  0
 33 35  2  0  0  0  0
 35 36  1  0  0  0  0
 35 37  1  0  0  0  0
 37 38  1  0  0  0  0
 39 40  1  0  0  0  0
 39 41  1  0  0  0  0
 39 42  1  0  0  0  0
 42 43  1  0  0  0  0
 42 44  1  0  0  0  0
 45 46  1  0  0  0  0
 45 47  1  0  0  0  0
 47 48  1  0  0  0  0
M  END
>  <receptor>
S(=O)(=O)([O-])[O-].S(CCC(NC(=O)C(NC(=O)C(NC(=O)CNC(=O)C(NC(=O)C1N(C(=O)C(NC(=O)C(NC(=O)C(NC(=O)C(NC(=O)C(NC(=O)C(NC(=O)C(NC(=O)C(NC(=O)C(NC(=O)C(NC(=O)C(NC(=O)C(NC(=O)C(NC(=O)C(NC(=O)C(NC(=O)C(NC(=O)C(NC(=O)C(NC(=O)C(NC(=O)CNC(=O)C(NC(=O)C(NC(=O)C(NC(=O)C(NC(=O)C(NC(=O)C(NC(=O)C(NC(=O)C(NC(=O)C(NC(=O)C(NC(=O)C(NC(=O)C(NC(=O)C(NC(=O)C)CCCC[NH3+])C(C)C)C(O)C)CCC(=O)N)CCC(=O)[O-])CCC(=O)N)Cc2ccccc2)CCC(=O)[O-])CC(C)C)Cc2ccc(O)cc2)CS)CCC(=O)[O-])CCSC)CO)C(O)C)Cc2ccccc2)CCC(=O)N)CC(C)C)C[S-])CCCC[NH3+])C(CC)C)C[S-])C)CCC(=O)[O-])CC(=O)N)CC(=O)[O-])CCCC[NH3+])CC(=O)[O-])C(C)C)CCCC[NH3+])C(CC)C)CCC(=O)[O-])CCC1)C[S-])Cc1nc[n-]c1)CC(C)C)C(=O)NC(C(=O)NC(C(=O)NC(C(=O)NC(C(=O)NC(C(=O)NC(C(=O)NC(C(=O)NC(C(=O)NC(C(=O)NC(C(=O)NC(C(=O)NC(C(=O)NCC(=O)NC(C(=O)NCC(=O)NC(C(=O)N1C(C(=O)NC(C(=O)NC(C(=O)NC(C(=O)NC(C(=O)NC(C(=O)NC(C(=O)NC(C(=O)NCC(=O)NC(C(=O)NC(C(=O)N2C(C(=O)NC(C(=O)NC(C(=O)NC(C(=O)NC(C(=O)N3C(C(=O)NC(C(=O)NC(C(=O)[O-])CC(=O)[O-])Cc4ccccc4)CCC3)CC(=O)[O-])C(C)C)C(CC)C)C(CC)C)CCC2)CCC(=O)[O-])C(O)C)CCCC[NH3+])C(CC)C)CCC(=O)[O-])CS)CCCNC(=[NH2+])N)C[S-])Cc2ccccc2)CCC1)C[S-])CCC(=O)N)CC(=O)[O-])CO)CCC(=O)[O-])CCC(=O)N)Cc1c2c([nH]c1)cccc2)C)C(O)C)CC(C)C)C[S-])CO)C(O)C)C[S-])C.S(CCC(NC(=O)C(NC(=O)C(NC(=O)C(NC(=O)C(NC(=O)C(NC(=O)C(NC(=O)C(NC(=O)C(NC(=O)C(NC(=O)C(NC(=O)C(NC(=O)C(NC(=O)C(NC(=O)C(NC(=O)C(NC(=O)C[NH3+])CCC(=O)N)C)C)C)CC(=O)[O-])CCCNC(=[NH2+])N)CCCNC(=[NH2+])N)C(O)C)C(C)C)CCC(=O)[O-])CCCC[NH3+])C(O)C)Cc1c2c([nH]c1)cccc2)C)CC(C)C)C(=O)NC(C(=O)NC(C(=O)NC(C(=O)NC(C(=O)NC(C(=O)NC(C(=O)NC(C(=O)NC(C(=O)NC(C(=O)N1C(C(=O)NC(C(=O)NC(C(=O)NC(C(=O)NC(C(=O)NC(C(=O)NC(C(=O)NC(C(=O)N2C(C(=O)N3C(C(=O)NC(C(=O)NC(C(=O)NC(C(=O)NC(C(=O)NC(C(=O)NC(C(=O)N4C(C(=O)NC(C(=O)NC(C(=O)NC(C(=O)NC(C(=O)NC(C(=O)NC(C(=O)NC(C(=O)NC(C(=O)NC(C(=O)NC(C(=O)NC(C(=O)NC(C(=O)NC(C(=O)NC(C(=O)NC(C(=O)NC(C(=O)NC(C(=O)NC(C(=O)NC(C(=O)NC(C(=O)NC(C(=O)NC(C(=O)NC(C(=O)NC(C(=O)NC(C(=O)NC(C(=O)NC(C(=O)NC(C(=O)NC(C(=O)NC(C(=O)NC(C(=O)NC(C(=O)NC(C(=O)NC(C(=O)NC(C(=O)NC(C(=O)NC(C(=O)NC(C(=O)NC(C(=O)NC(C(=O)NC(C(=O)NC(C(=O)NC(C(=O)NC(C(=O)NC(C(=O)NC(C(=O)NC(C(=O)NC(C(=O)NCC(=O)NC(C(=O)NC(C(=O)NC(C(=O)NC(C(=O)NC(C(=O)NC(C(=O)NC(C(=O)NC(C(=O)NC(C(=O)NC(C(=O)NC(C(=O)NC(C(=O)NC(C(=O)NC(C(=O)NC(C(=O)NC(C(=O)NC(C(=O)NC(C(=O)NC(C(=O)NC(C(=O)NC(C(=O)NC(C(=O)NC(C(=O)NC(C(=O)NC(C(=O)NC(C(=O)NC(C(=O)NC(C(=O)NC(C(=O)NC(C(=O)NC(C(=O)NC(C(=O)NC(C(=O)N5C(C(=O)NC(C(=O)NCC(=O)NC(C(=O)NC(C(=O)NC(C(=O)NCC(=O)NC(C(=O)NC(C(=O)NC(C(=O)NC(C(=O)NC(C(=O)NC(C(=O)NC(C(=O)NC(C(=O)NC(C(=O)NC(C(=O)NC(C(=O)NC(C(=O)NC(C(=O)NC(C(=O)NC(C(=O)NC(C(=O)NC(C(=O)NC(C(=O)NCC(=O)NC(C(=O)NC(C(=O)NC(C(=O)NC(C(=O)NC(C(=O)N6C(C(=O)NC(C(=O)NC(C(=O)NC(C(=O)NC(C(=O)NC(C(=O)NC(C(=O)NC(C(=O)NC(C(=O)NC(C(=O)NC(C(=O)NC(C(=O)NC(C(=O)NC(C(=O)NC(C(=O)NC(C(=O)NC(C(=O)NCC(=O)NC(C(=O)NC(C(=O)NC(C(=O)NC(C(=O)NC(C(=O)NC(C(=O)NC(C(=O)NC(C(=O)NC(C(=O)NC(C(=O)NC(C(=O)NC(C(=O)NC(C(=O)NC(C(=O)NC(C(=O)NC(C(=O)NC(C(=O)NC(C(=O)NC(C(=O)NC(C(=O)NC(C(=O)NC(C(=O)NC(C(=O)NC(C(=O)NC(C(=O)NC(C(=O)NC(C(=O)NC(C(=O)NC(C(=O)NC(C(=O)NC(C(=O)N7C(C(=O)NC(C(=O)NCC(=O)NC(C(=O)NC(C(=O)NC(C(=O)NC(C(=O)NC(C(=O)NC(C(=O)NC(C(=O)NC(C(=O)NC(C(=O)NC(C(=O)NC(C(=O)NC(C(=O)NC(C(=O)N8C(C(=O)NCC(=O)NC(C(=O)NC(C(=O)NC(C(=O)NC(C(=O)NC(C(=O)NC(C(=O)NC(C(=O)NC(C(=O)NC(C(=O)NC(C(=O)NC(C(=O)NC(C(=O)NC(C(=O)NC(C(=O)NC(C(=O)NC(C(=O)NC(C(=O)NC(C(=O)NC(C(=O)NC(C(=O)N9C(C(=O)NCC(=O)NC(C(=O)NC(C(=O)NC(C(=O)NC(C(=O)NC(C(=O)NC(C(=O)NC(C(=O)NC(C(=O)NC(C(=O)NC(C(=O)NC(C(=O)NCC(=O)NC(C(=O)NC(C(=O)NC(C(=O)NC(C(=O)NCC(=O)NC(C(=O)NC(C(=O)NC(C(=O)NCC(=O)NC(C(=O)NCC(=O)NC(C(=O)NC(C(=O)NC(C(=O)NC(C(=O)NC(C(=O)NC(C(=O)N%10C(C(=O)NC(C(=O)NC(C(=O)NC(C(=O)N%11C(C(=O)NC(C(=O)NC(C(=O)NC(C(=O)NC(C(=O)NC(C(=O)NC(C(=O)NC(C(=O)NCC(=O)NC(C(=O)NC(C(=O)NC(C(=O)NCC(=O)NC(C(=O)NC(C(=O)NC(C(=O)NC(C(=O)N%12C(C(=O)NC(C(=O)NCC(=O)NC(C(=O)NC(C(=O)NC(C(=O)NC(C(=O)NC)CC(=O)N)Cc%13ccc(O)cc%13)CO)CCCNC(=[NH2+])N)CC(=O)[O-])CCC%12)Cc%12ccc(O)cc%12)CC(C)C)Cc%12ccc(O)cc%12)Cc%12ccccc%12)CCC(=O)[O-])C)CO)CC(=O)[O-])C(CC)C)CC(C)C)C)CCC(=O)N)Cc%12ccccc%12)CC(C)C)CCC%11)CCCC[NH3+])CC(=O)N)Cc%11[nH]cnc%11)CCC%10)C(CC)C)C(O)C)CCC(=O)N)CC(C)C)C(CC)C)CC(=O)N)CC(=O)[O-])C(O)C)C(C)C)Cc%10ccc(O)cc%10)C(CC)C)C)Cc%10c%11c([nH]c%10)cccc%11)CCC(=O)N)CC(C)C)CCCNC(=[NH2+])N)C(O)C)CS)CO)CC(C)C)CCCNC(=[NH2+])N)Cc%10ccccc%10)C(CC)C)Cc%10ccc(O)cc%10)CO)CCC9)CCCC[NH3+])C(O)C)CO)Cc9ccc(O)cc9)CCCC[NH3+])CCC(=O)N)CC(C)C)CCCNC(=[NH2+])N)C)CCCC[NH3+])C(C)C)CCC(=O)[O-])CC(=O)[O-])Cc9ccc(O)cc9)C(O)C)CC(C)C)Cc9ccccc9)C)CCSC)Cc9ccc(O)cc9)CCC8)Cc8nc[nH]c8)C(O)C)C(C)C)C)CC(C)C)Cc8ccccc8)CC(=O)N)Cc8c9c([nH]c8)cccc9)CC(=O)N)CCCNC(=[NH2+])N)CC(C)C)C(CC)C)CO)Cc8c9c([nH]c8)cccc9)CCC7)CCC(=O)N)Cc7ccccc7)CC(C)C)CCCNC(=[NH2+])N)C(O)C)Cc7ccccc7)C(CC)C)CC(=O)[O-])Cc7ccccc7)CCC(=O)[O-])Cc7ccccc7)C(C)C)CO)C(CC)C)Cc7ccc(O)cc7)CC(=O)[O-])CC(=O)N)CS)C(O)C)CC(C)C)CC(=O)[O-])C(CC)C)C(O)C)CO)CCCC[NH3+])CC(C)C)C)CCSC)C)CCC(=O)[O-])CC(C)C)CO)CO)C(CC)C)CCC(=O)N)Cc7nc[nH]c7)C(C)C)CCC(=O)[O-])Cc7nc[nH]c7)CC(C)C)CS)CCC(=O)N)CCCNC(=[NH2+])N)Cc7ccccc7)C(C)C)CCCC[NH3+])Cc7c8c([nH]c7)cccc8)CCC6)C(C)C)C(CC)C)C(O)C)CCCC[NH3+])CC(=O)[O-])Cc6ccccc6)Cc6ccccc6)CCCC[NH3+])CCCNC(=[NH2+])N)Cc6c7c([nH]c6)cccc7)Cc6ccccc6)CCC(=O)[O-])C)C)CC(=O)[O-])C)CCCC[NH3+])C(O)C)C(CC)C)CCCNC(=[NH2+])N)Cc6ccccc6)CC(=O)N)CC(=O)[O-])CCC(=O)N)Cc6ccccc6)CCC(=O)N)CC(=O)N)CCC5)Cc5ccccc5)C(CC)C)C)CCCC[NH3+])C(CC)C)CCC(=O)[O-])C)CC(C)C)CCSC)Cc5nc[nH]c5)CO)Cc5ccccc5)C(CC)C)CC(C)C)CO)CC(C)C)CCCC[NH3+])C(O)C)CC(C)C)CC(=O)N)CCCNC(=[NH2+])N)CCCNC(=[NH2+])N)CC(=O)[O-])CCC(=O)N)CO)CCC(=O)N)CCC(=O)[O-])CCC(=O)[O-])Cc5ccc(O)cc5)CCSC)CCCNC(=[NH2+])N)CCC(=O)[O-])CCCC[NH3+])CCC(=O)[O-])CCCC[NH3+])Cc5ccccc5)CC(C)C)CCCNC(=[NH2+])N)C(CC)C)C)CCCNC(=[NH2+])N)CCCC[NH3+])CO)CCCC[NH3+])CCCC[NH3+])CCSC)CC(C)C)CO)CC(=O)[O-])C(CC)C)Cc5ccc(O)cc5)C(CC)C)CCCC[NH3+])Cc5ccccc5)Cc5ccc(O)cc5)CCC(=O)[O-])CC(=O)N)CCC(=O)[O-])CO)CC(C)C)CCC(=O)N)C)CC(C)C)CCCC[NH3+])CCC(=O)N)CC(=O)N)CC(=O)[O-])CC(=O)[O-])Cc5ccc(O)cc5)CCCC[NH3+])CO)CC(C)C)C(CC)C)CC(C)C)CCCNC(=[NH2+])N)CC(C)C)Cc5nc[nH]c5)CCC(=O)N)Cc5ccc(O)cc5)C(O)C)CC(=O)[O-])CCC4)CC(C)C)C(CC)C)CC(=O)[O-])CC(C)C)C(CC)C)Cc4ccc(O)cc4)CCC3)CCC2)CO)CC(=O)N)CCCC[NH3+])CC(C)C)CCC(=O)N)CC(C)C)CCCC[NH3+])CCC1)CC(=O)N)CCC(=O)N)CS)CC(C)C)CCCNC(=[NH2+])N)C(C)C)C(C)C)C)CC(=O)[O-])C.OCCO.[UH+3].[Zn+2].[Zn+2].O.O.O.O.O.O.O.O.O.O.O.O.O.O.O.O.O.O.O.O.O.O.O.O.O.O.O.O.O.O.O.O.O.O.O.O.O.O.O.O.O.O.O.O.O.O.O.O.O.O.O.O.O.O.O.O.O.O.O.O.O.O.O.O.O.O.O.O.O.O.O.O.O.O.O.O.O.O.O.O.O.O.O.O.O.O.O.O.O.O.O.O.O.O.O.O.O.O.O.O.O.O.O.O.O.O.O.O.O.O.O.O.O.O.O.O.O.O.O.O.O.O.O.O.O.O.O.O.O.O.O.O.O.O.O.O.O.O.O.O.O.O

>  <rseq>
1

>  <mseq>
8

>  <S>
-7.1977124

>  <rmsd_refine>
2.2146542

>  <E_conf>
49.846802

>  <E_place>
-41.41433

>  <E_score1>
-10.142262

>  <E_refine>
-29.410162

>  <E_score2>
-7.1977124

>  <Field_2>
TE08

>  <pseq>
8

>  <%C>
100

>  <a_heavy>
26

>  <h_logP>
3.7064085

>  <Weight>
355.41299

>  <E_orig>
1

>  <PLIF_raw>
[[22,10,47,45,15,13,11],[5184,3767,3767,3767,3767,3767,3767],[366,263,263,263,263,263,263],[1,10,10,10,10,10,10],[0.6,0.6,0.6,0.6,0.6,0.6,0.6]]

>  <FP:PLIF>
7 8

>  <PLIF_ligidx>
[[10,47,45,15,13,11],22]

$$$$

  MOE2020           3D

 52 54  0  0  1  0  0  0  0  0999 V2000
   -7.3940   10.8470   18.2790 O   0  0  0  0  0  0  0  0  0  0  0  0
   -6.4630   10.2000   18.7550 C   0  0  0  0  0  0  0  0  0  0  0  0
   -6.6950    9.2110   19.8940 C   0  0  0  0  0  0  0  0  0  0  0  0
   -6.0940    9.5630   20.7250 H   0  0  0  0  0  0  0  0  0  0  0  0
   -6.3670    8.2140   19.6020 H   0  0  0  0  0  0  0  0  0  0  0  0
   -8.1490    9.1680   20.3580 C   0  0  0  0  0  0  0  0  0  0  0  0
   -8.7290    8.6140   19.6290 H   0  0  0  0  0  0  0  0  0  0  0  0
   -8.5030   10.1870   20.4060 H   0  0  0  0  0  0  0  0  0  0  0  0
   -8.3800    8.5660   21.7380 C   0  0  2  0  0  0  0  0  0  0  0  0
   -9.7530    8.9400   22.2890 C   0  0  0  0  0  0  0  0  0  0  0  0
   -9.9580   10.0000   22.1420 H   0  0  0  0  0  0  0  0  0  0  0  0
  -10.5590    8.3440   21.8780 H   0  0  0  0  0  0  0  0  0  0  0  0
   -9.5550    8.6460   23.7580 C   0  0  0  0  0  0  0  0  0  0  0  0
   -9.8240    7.6090   23.9390 H   0  0  0  0  0  0  0  0  0  0  0  0
  -10.1520    9.3130   24.3740 H   0  0  0  0  0  0  0  0  0  0  0  0
   -8.0540    8.8300   23.9640 C   0  0  0  0  0  0  0  0  0  0  0  0
   -7.6240    7.9070   24.3300 H   0  0  0  0  0  0  0  0  0  0  0  0
   -7.8270    9.6470   24.6440 H   0  0  0  0  0  0  0  0  0  0  0  0
   -7.5140    9.1090   22.6980 O   0  0  0  0  0  0  0  0  0  0  0  0
   -5.1890   10.3950   18.3920 N   0  0  0  0  0  0  0  0  0  0  0  0
   -4.4610    9.8600   18.8390 H   0  0  0  0  0  0  0  0  0  0  0  0
   -4.8040   11.4280   17.4420 C   0  0  0  0  0  0  0  0  0  0  0  0
   -5.6400   11.6290   16.7740 H   0  0  0  0  0  0  0  0  0  0  0  0
   -4.5080   12.7150   18.2230 C   0  0  0  0  0  0  0  0  0  0  0  0
   -4.5580   13.5490   17.5320 H   0  0  0  0  0  0  0  0  0  0  0  0
   -5.2790   12.8810   18.9780 H   0  0  0  0  0  0  0  0  0  0  0  0
   -3.1350   12.6930   18.9050 C   0  0  0  0  0  0  0  0  0  0  0  0
   -3.1910   12.0120   19.7440 H   0  0  0  0  0  0  0  0  0  0  0  0
   -2.9660   13.6610   19.3590 H   0  0  0  0  0  0  0  0  0  0  0  0
   -2.0110   12.3160   17.9840 N   0  3  0  0  0  0  0  0  0  0  0  0
   -2.0270   13.0170   17.2500 H   0  0  0  0  0  0  0  0  0  0  0  0
   -0.6500   12.4070   18.6140 C   0  0  0  0  0  0  0  0  0  0  0  0
    0.1200   12.1670   17.8920 H   0  0  0  0  0  0  0  0  0  0  0  0
   -0.4270   13.4310   18.8820 H   0  0  0  0  0  0  0  0  0  0  0  0
   -0.4190   11.5510   19.8450 C   0  0  0  0  0  0  0  0  0  0  0  0
   -0.7710   12.0350   21.1090 C   0  0  0  0  0  0  0  0  0  0  0  0
   -1.2050   12.9980   21.2060 H   0  0  0  0  0  0  0  0  0  0  0  0
   -0.5560   11.2610   22.2450 C   0  0  0  0  0  0  0  0  0  0  0  0
   -0.8240   11.6220   23.2050 H   0  0  0  0  0  0  0  0  0  0  0  0
    0.0170   10.0050   22.0970 C   0  0  0  0  0  0  0  0  0  0  0  0
    0.2380    9.2540   23.2030 F   0  0  0  0  0  0  0  0  0  0  0  0
    0.3730    9.4970   20.8530 C   0  0  0  0  0  0  0  0  0  0  0  0
    0.8080    8.5350   20.7680 H   0  0  0  0  0  0  0  0  0  0  0  0
    0.1500   10.2790   19.7220 C   0  0  0  0  0  0  0  0  0  0  0  0
    0.4180    9.9080   18.7660 H   0  0  0  0  0  0  0  0  0  0  0  0
   -2.2790   11.0060   17.3140 C   0  0  0  0  0  0  0  0  0  0  0  0
   -2.2710   10.1970   18.0320 H   0  0  0  0  0  0  0  0  0  0  0  0
   -1.4950   10.7490   16.6150 H   0  0  0  0  0  0  0  0  0  0  0  0
   -3.6200   10.9680   16.5710 C   0  0  0  0  0  0  0  0  0  0  0  0
   -3.5440   11.6370   15.7140 H   0  0  0  0  0  0  0  0  0  0  0  0
   -3.7970    9.9620   16.1940 H   0  0  0  0  0  0  0  0  0  0  0  0
   -8.2550    7.4850   21.7100 H   0  0  0  0  0  0  0  0  0  0  0  0
  1  2  2  0  0  0  0
  2  3  1  0  0  0  0
  2 20  1  0  0  0  0
  3  4  1  0  0  0  0
  3  5  1  0  0  0  0
  3  6  1  0  0  0  0
  6  7  1  0  0  0  0
  6  8  1  0  0  0  0
  6  9  1  0  0  0  0
  9 10  1  0  0  0  0
  9 19  1  0  0  0  0
  9 52  1  0  0  0  0
 10 11  1  0  0  0  0
 10 12  1  0  0  0  0
 10 13  1  0  0  0  0
 13 14  1  0  0  0  0
 13 15  1  0  0  0  0
 13 16  1  0  0  0  0
 16 17  1  0  0  0  0
 16 18  1  0  0  0  0
 16 19  1  0  0  0  0
 20 21  1  0  0  0  0
 20 22  1  0  0  0  0
 22 23  1  0  0  0  0
 22 24  1  0  0  0  0
 22 49  1  0  0  0  0
 24 25  1  0  0  0  0
 24 26  1  0  0  0  0
 24 27  1  0  0  0  0
 27 28  1  0  0  0  0
 27 29  1  0  0  0  0
 27 30  1  0  0  0  0
 30 31  1  0  0  0  0
 30 32  1  0  0  0  0
 30 46  1  0  0  0  0
 32 33  1  0  0  0  0
 32 34  1  0  0  0  0
 32 35  1  0  0  0  0
 35 36  1  0  0  0  0
 35 44  2  0  0  0  0
 36 37  1  0  0  0  0
 36 38  2  0  0  0  0
 38 39  1  0  0  0  0
 38 40  1  0  0  0  0
 40 41  1  0  0  0  0
 40 42  2  0  0  0  0
 42 43  1  0  0  0  0
 42 44  1  0  0  0  0
 44 45  1  0  0  0  0
 46 47  1  0  0  0  0
 46 48  1  0  0  0  0
 46 49  1  0  0  0  0
 49 50  1  0  0  0  0
 49 51  1  0  0  0  0
M  CHG  1  30   1
M  END
>  <receptor>
S(=O)(=O)([O-])[O-].S(CCC(NC(=O)C(NC(=O)C(NC(=O)CNC(=O)C(NC(=O)C1N(C(=O)C(NC(=O)C(NC(=O)C(NC(=O)C(NC(=O)C(NC(=O)C(NC(=O)C(NC(=O)C(NC(=O)C(NC(=O)C(NC(=O)C(NC(=O)C(NC(=O)C(NC(=O)C(NC(=O)C(NC(=O)C(NC(=O)C(NC(=O)C(NC(=O)C(NC(=O)CNC(=O)C(NC(=O)C(NC(=O)C(NC(=O)C(NC(=O)C(NC(=O)C(NC(=O)C(NC(=O)C(NC(=O)C(NC(=O)C(NC(=O)C(NC(=O)C(NC(=O)C(NC(=O)C)CCCC[NH3+])C(C)C)C(O)C)CCC(=O)N)CCC(=O)[O-])CCC(=O)N)Cc2ccccc2)CCC(=O)[O-])CC(C)C)Cc2ccc(O)cc2)CS)CCC(=O)[O-])CCSC)CO)C(O)C)Cc2ccccc2)CCC(=O)N)CC(C)C)C[S-])CCCC[NH3+])C(CC)C)C[S-])C)CCC(=O)[O-])CC(=O)N)CC(=O)[O-])CCCC[NH3+])CC(=O)[O-])C(C)C)CCCC[NH3+])C(CC)C)CCC(=O)[O-])CCC1)C[S-])Cc1nc[n-]c1)CC(C)C)C(=O)NC(C(=O)NC(C(=O)NC(C(=O)NC(C(=O)NC(C(=O)NC(C(=O)NC(C(=O)NC(C(=O)NC(C(=O)NC(C(=O)NC(C(=O)NC(C(=O)NCC(=O)NC(C(=O)NCC(=O)NC(C(=O)N1C(C(=O)NC(C(=O)NC(C(=O)NC(C(=O)NC(C(=O)NC(C(=O)NC(C(=O)NC(C(=O)NCC(=O)NC(C(=O)NC(C(=O)N2C(C(=O)NC(C(=O)NC(C(=O)NC(C(=O)NC(C(=O)N3C(C(=O)NC(C(=O)NC(C(=O)[O-])CC(=O)[O-])Cc4ccccc4)CCC3)CC(=O)[O-])C(C)C)C(CC)C)C(CC)C)CCC2)CCC(=O)[O-])C(O)C)CCCC[NH3+])C(CC)C)CCC(=O)[O-])CS)CCCNC(=[NH2+])N)C[S-])Cc2ccccc2)CCC1)C[S-])CCC(=O)N)CC(=O)[O-])CO)CCC(=O)[O-])CCC(=O)N)Cc1c2c([nH]c1)cccc2)C)C(O)C)CC(C)C)C[S-])CO)C(O)C)C[S-])C.S(CCC(NC(=O)C(NC(=O)C(NC(=O)C(NC(=O)C(NC(=O)C(NC(=O)C(NC(=O)C(NC(=O)C(NC(=O)C(NC(=O)C(NC(=O)C(NC(=O)C(NC(=O)C(NC(=O)C(NC(=O)C(NC(=O)C[NH3+])CCC(=O)N)C)C)C)CC(=O)[O-])CCCNC(=[NH2+])N)CCCNC(=[NH2+])N)C(O)C)C(C)C)CCC(=O)[O-])CCCC[NH3+])C(O)C)Cc1c2c([nH]c1)cccc2)C)CC(C)C)C(=O)NC(C(=O)NC(C(=O)NC(C(=O)NC(C(=O)NC(C(=O)NC(C(=O)NC(C(=O)NC(C(=O)NC(C(=O)N1C(C(=O)NC(C(=O)NC(C(=O)NC(C(=O)NC(C(=O)NC(C(=O)NC(C(=O)NC(C(=O)N2C(C(=O)N3C(C(=O)NC(C(=O)NC(C(=O)NC(C(=O)NC(C(=O)NC(C(=O)NC(C(=O)N4C(C(=O)NC(C(=O)NC(C(=O)NC(C(=O)NC(C(=O)NC(C(=O)NC(C(=O)NC(C(=O)NC(C(=O)NC(C(=O)NC(C(=O)NC(C(=O)NC(C(=O)NC(C(=O)NC(C(=O)NC(C(=O)NC(C(=O)NC(C(=O)NC(C(=O)NC(C(=O)NC(C(=O)NC(C(=O)NC(C(=O)NC(C(=O)NC(C(=O)NC(C(=O)NC(C(=O)NC(C(=O)NC(C(=O)NC(C(=O)NC(C(=O)NC(C(=O)NC(C(=O)NC(C(=O)NC(C(=O)NC(C(=O)NC(C(=O)NC(C(=O)NC(C(=O)NC(C(=O)NC(C(=O)NC(C(=O)NC(C(=O)NC(C(=O)NC(C(=O)NC(C(=O)NC(C(=O)NC(C(=O)NC(C(=O)NCC(=O)NC(C(=O)NC(C(=O)NC(C(=O)NC(C(=O)NC(C(=O)NC(C(=O)NC(C(=O)NC(C(=O)NC(C(=O)NC(C(=O)NC(C(=O)NC(C(=O)NC(C(=O)NC(C(=O)NC(C(=O)NC(C(=O)NC(C(=O)NC(C(=O)NC(C(=O)NC(C(=O)NC(C(=O)NC(C(=O)NC(C(=O)NC(C(=O)NC(C(=O)NC(C(=O)NC(C(=O)NC(C(=O)NC(C(=O)NC(C(=O)NC(C(=O)NC(C(=O)NC(C(=O)N5C(C(=O)NC(C(=O)NCC(=O)NC(C(=O)NC(C(=O)NC(C(=O)NCC(=O)NC(C(=O)NC(C(=O)NC(C(=O)NC(C(=O)NC(C(=O)NC(C(=O)NC(C(=O)NC(C(=O)NC(C(=O)NC(C(=O)NC(C(=O)NC(C(=O)NC(C(=O)NC(C(=O)NC(C(=O)NC(C(=O)NC(C(=O)NC(C(=O)NCC(=O)NC(C(=O)NC(C(=O)NC(C(=O)NC(C(=O)NC(C(=O)N6C(C(=O)NC(C(=O)NC(C(=O)NC(C(=O)NC(C(=O)NC(C(=O)NC(C(=O)NC(C(=O)NC(C(=O)NC(C(=O)NC(C(=O)NC(C(=O)NC(C(=O)NC(C(=O)NC(C(=O)NC(C(=O)NC(C(=O)NCC(=O)NC(C(=O)NC(C(=O)NC(C(=O)NC(C(=O)NC(C(=O)NC(C(=O)NC(C(=O)NC(C(=O)NC(C(=O)NC(C(=O)NC(C(=O)NC(C(=O)NC(C(=O)NC(C(=O)NC(C(=O)NC(C(=O)NC(C(=O)NC(C(=O)NC(C(=O)NC(C(=O)NC(C(=O)NC(C(=O)NC(C(=O)NC(C(=O)NC(C(=O)NC(C(=O)NC(C(=O)NC(C(=O)NC(C(=O)NC(C(=O)NC(C(=O)N7C(C(=O)NC(C(=O)NCC(=O)NC(C(=O)NC(C(=O)NC(C(=O)NC(C(=O)NC(C(=O)NC(C(=O)NC(C(=O)NC(C(=O)NC(C(=O)NC(C(=O)NC(C(=O)NC(C(=O)NC(C(=O)N8C(C(=O)NCC(=O)NC(C(=O)NC(C(=O)NC(C(=O)NC(C(=O)NC(C(=O)NC(C(=O)NC(C(=O)NC(C(=O)NC(C(=O)NC(C(=O)NC(C(=O)NC(C(=O)NC(C(=O)NC(C(=O)NC(C(=O)NC(C(=O)NC(C(=O)NC(C(=O)NC(C(=O)NC(C(=O)N9C(C(=O)NCC(=O)NC(C(=O)NC(C(=O)NC(C(=O)NC(C(=O)NC(C(=O)NC(C(=O)NC(C(=O)NC(C(=O)NC(C(=O)NC(C(=O)NC(C(=O)NCC(=O)NC(C(=O)NC(C(=O)NC(C(=O)NC(C(=O)NCC(=O)NC(C(=O)NC(C(=O)NC(C(=O)NCC(=O)NC(C(=O)NCC(=O)NC(C(=O)NC(C(=O)NC(C(=O)NC(C(=O)NC(C(=O)NC(C(=O)N%10C(C(=O)NC(C(=O)NC(C(=O)NC(C(=O)N%11C(C(=O)NC(C(=O)NC(C(=O)NC(C(=O)NC(C(=O)NC(C(=O)NC(C(=O)NC(C(=O)NCC(=O)NC(C(=O)NC(C(=O)NC(C(=O)NCC(=O)NC(C(=O)NC(C(=O)NC(C(=O)NC(C(=O)N%12C(C(=O)NC(C(=O)NCC(=O)NC(C(=O)NC(C(=O)NC(C(=O)NC(C(=O)NC)CC(=O)N)Cc%13ccc(O)cc%13)CO)CCCNC(=[NH2+])N)CC(=O)[O-])CCC%12)Cc%12ccc(O)cc%12)CC(C)C)Cc%12ccc(O)cc%12)Cc%12ccccc%12)CCC(=O)[O-])C)CO)CC(=O)[O-])C(CC)C)CC(C)C)C)CCC(=O)N)Cc%12ccccc%12)CC(C)C)CCC%11)CCCC[NH3+])CC(=O)N)Cc%11[nH]cnc%11)CCC%10)C(CC)C)C(O)C)CCC(=O)N)CC(C)C)C(CC)C)CC(=O)N)CC(=O)[O-])C(O)C)C(C)C)Cc%10ccc(O)cc%10)C(CC)C)C)Cc%10c%11c([nH]c%10)cccc%11)CCC(=O)N)CC(C)C)CCCNC(=[NH2+])N)C(O)C)CS)CO)CC(C)C)CCCNC(=[NH2+])N)Cc%10ccccc%10)C(CC)C)Cc%10ccc(O)cc%10)CO)CCC9)CCCC[NH3+])C(O)C)CO)Cc9ccc(O)cc9)CCCC[NH3+])CCC(=O)N)CC(C)C)CCCNC(=[NH2+])N)C)CCCC[NH3+])C(C)C)CCC(=O)[O-])CC(=O)[O-])Cc9ccc(O)cc9)C(O)C)CC(C)C)Cc9ccccc9)C)CCSC)Cc9ccc(O)cc9)CCC8)Cc8nc[nH]c8)C(O)C)C(C)C)C)CC(C)C)Cc8ccccc8)CC(=O)N)Cc8c9c([nH]c8)cccc9)CC(=O)N)CCCNC(=[NH2+])N)CC(C)C)C(CC)C)CO)Cc8c9c([nH]c8)cccc9)CCC7)CCC(=O)N)Cc7ccccc7)CC(C)C)CCCNC(=[NH2+])N)C(O)C)Cc7ccccc7)C(CC)C)CC(=O)[O-])Cc7ccccc7)CCC(=O)[O-])Cc7ccccc7)C(C)C)CO)C(CC)C)Cc7ccc(O)cc7)CC(=O)[O-])CC(=O)N)CS)C(O)C)CC(C)C)CC(=O)[O-])C(CC)C)C(O)C)CO)CCCC[NH3+])CC(C)C)C)CCSC)C)CCC(=O)[O-])CC(C)C)CO)CO)C(CC)C)CCC(=O)N)Cc7nc[nH]c7)C(C)C)CCC(=O)[O-])Cc7nc[nH]c7)CC(C)C)CS)CCC(=O)N)CCCNC(=[NH2+])N)Cc7ccccc7)C(C)C)CCCC[NH3+])Cc7c8c([nH]c7)cccc8)CCC6)C(C)C)C(CC)C)C(O)C)CCCC[NH3+])CC(=O)[O-])Cc6ccccc6)Cc6ccccc6)CCCC[NH3+])CCCNC(=[NH2+])N)Cc6c7c([nH]c6)cccc7)Cc6ccccc6)CCC(=O)[O-])C)C)CC(=O)[O-])C)CCCC[NH3+])C(O)C)C(CC)C)CCCNC(=[NH2+])N)Cc6ccccc6)CC(=O)N)CC(=O)[O-])CCC(=O)N)Cc6ccccc6)CCC(=O)N)CC(=O)N)CCC5)Cc5ccccc5)C(CC)C)C)CCCC[NH3+])C(CC)C)CCC(=O)[O-])C)CC(C)C)CCSC)Cc5nc[nH]c5)CO)Cc5ccccc5)C(CC)C)CC(C)C)CO)CC(C)C)CCCC[NH3+])C(O)C)CC(C)C)CC(=O)N)CCCNC(=[NH2+])N)CCCNC(=[NH2+])N)CC(=O)[O-])CCC(=O)N)CO)CCC(=O)N)CCC(=O)[O-])CCC(=O)[O-])Cc5ccc(O)cc5)CCSC)CCCNC(=[NH2+])N)CCC(=O)[O-])CCCC[NH3+])CCC(=O)[O-])CCCC[NH3+])Cc5ccccc5)CC(C)C)CCCNC(=[NH2+])N)C(CC)C)C)CCCNC(=[NH2+])N)CCCC[NH3+])CO)CCCC[NH3+])CCCC[NH3+])CCSC)CC(C)C)CO)CC(=O)[O-])C(CC)C)Cc5ccc(O)cc5)C(CC)C)CCCC[NH3+])Cc5ccccc5)Cc5ccc(O)cc5)CCC(=O)[O-])CC(=O)N)CCC(=O)[O-])CO)CC(C)C)CCC(=O)N)C)CC(C)C)CCCC[NH3+])CCC(=O)N)CC(=O)N)CC(=O)[O-])CC(=O)[O-])Cc5ccc(O)cc5)CCCC[NH3+])CO)CC(C)C)C(CC)C)CC(C)C)CCCNC(=[NH2+])N)CC(C)C)Cc5nc[nH]c5)CCC(=O)N)Cc5ccc(O)cc5)C(O)C)CC(=O)[O-])CCC4)CC(C)C)C(CC)C)CC(=O)[O-])CC(C)C)C(CC)C)Cc4ccc(O)cc4)CCC3)CCC2)CO)CC(=O)N)CCCC[NH3+])CC(C)C)CCC(=O)N)CC(C)C)CCCC[NH3+])CCC1)CC(=O)N)CCC(=O)N)CS)CC(C)C)CCCNC(=[NH2+])N)C(C)C)C(C)C)C)CC(=O)[O-])C.OCCO.[UH+3].[Zn+2].[Zn+2].O.O.O.O.O.O.O.O.O.O.O.O.O.O.O.O.O.O.O.O.O.O.O.O.O.O.O.O.O.O.O.O.O.O.O.O.O.O.O.O.O.O.O.O.O.O.O.O.O.O.O.O.O.O.O.O.O.O.O.O.O.O.O.O.O.O.O.O.O.O.O.O.O.O.O.O.O.O.O.O.O.O.O.O.O.O.O.O.O.O.O.O.O.O.O.O.O.O.O.O.O.O.O.O.O.O.O.O.O.O.O.O.O.O.O.O.O.O.O.O.O.O.O.O.O.O.O.O.O.O.O.O.O.O.O.O.O.O.O.O.O.O

>  <rseq>
1

>  <mseq>
9

>  <S>
-7.4173341

>  <rmsd_refine>
2.6604841

>  <E_conf>
-72.147163

>  <E_place>
-51.586914

>  <E_score1>
-10.240558

>  <E_refine>
-34.372089

>  <E_score2>
-7.4173341

>  <Field_2>
TE09

>  <pseq>
9

>  <%C>
96.732315

>  <a_heavy>
24

>  <h_logP>
-0.88524169

>  <Weight>
335.44299

>  <E_orig>
1.4

>  <PLIF_raw>
[[30,30,1,30,30],[3850,3851,543,3850,3851],[268,268,70,268,268],[1,1,2,7,7],[3.6,4,0.6,4.077646458,2.438157613]]

>  <FP:PLIF>
9 10 11 12 13

>  <PLIF_ligidx>
[1,[30,30],[30,30],[30,30],30]

$$$$

  MOE2020           3D

 66 68  0  0  0  0  0  0  0  0999 V2000
    2.4480    8.2610   17.7050 C   0  0  0  0  0  0  0  0  0  0  0  0
    2.7840    9.1530   18.2290 H   0  0  0  0  0  0  0  0  0  0  0  0
    2.6290    8.4240   16.6510 H   0  0  0  0  0  0  0  0  0  0  0  0
    1.3730    8.1380   17.8180 H   0  0  0  0  0  0  0  0  0  0  0  0
    3.1860    7.0250   18.1800 C   0  0  0  0  0  0  0  0  0  0  0  0
    4.2080    6.5220   17.3820 C   0  0  0  0  0  0  0  0  0  0  0  0
    4.4600    7.0300   16.4890 H   0  0  0  0  0  0  0  0  0  0  0  0
    4.9060    5.3510   17.7220 C   0  0  0  0  0  0  0  0  0  0  0  0
    5.9890    4.8430   16.8780 C   0  0  0  0  0  0  0  0  0  0  0  0
    6.8480    4.0650   17.2870 O   0  0  0  0  0  0  0  0  0  0  0  0
    6.0520    5.2530   15.5610 N   0  0  0  0  0  0  0  0  0  0  0  0
    5.3040    5.8670   15.2100 H   0  0  0  0  0  0  0  0  0  0  0  0
    6.9570    4.6960   14.5520 C   0  0  0  0  0  0  0  0  0  0  0  0
    7.7690    4.1590   15.0330 H   0  0  0  0  0  0  0  0  0  0  0  0
    7.5550    5.7460   13.6310 C   0  0  0  0  0  0  0  0  0  0  0  0
    6.7980    6.4950   13.4150 H   0  0  0  0  0  0  0  0  0  0  0  0
    8.4360    6.1860   14.0840 H   0  0  0  0  0  0  0  0  0  0  0  0
    7.9520    5.0600   12.3370 C   0  0  0  0  0  0  0  0  0  0  0  0
    7.8270    5.7110   11.4750 H   0  0  0  0  0  0  0  0  0  0  0  0
    9.0000    4.7880   12.3770 H   0  0  0  0  0  0  0  0  0  0  0  0
    7.0560    3.8260   12.2650 C   0  0  0  0  0  0  0  0  0  0  0  0
    7.6710    2.9350   12.1820 H   0  0  0  0  0  0  0  0  0  0  0  0
    6.3970    3.8920   11.4030 H   0  0  0  0  0  0  0  0  0  0  0  0
    6.2370    3.7920   13.5620 C   0  0  0  0  0  0  0  0  0  0  0  0
    6.1750    2.7880   13.9700 H   0  0  0  0  0  0  0  0  0  0  0  0
    5.2370    4.1800   13.3670 H   0  0  0  0  0  0  0  0  0  0  0  0
    4.5300    4.6730   18.8910 C   0  0  0  0  0  0  0  0  0  0  0  0
    5.0260    3.7760   19.1610 H   0  0  0  0  0  0  0  0  0  0  0  0
    3.5090    5.1570   19.6980 C   0  0  0  0  0  0  0  0  0  0  0  0
    3.2210    4.6270   20.5670 H   0  0  0  0  0  0  0  0  0  0  0  0
    2.8560    6.3510   19.3720 C   0  0  0  0  0  0  0  0  0  0  0  0
    1.8740    6.8080   20.2680 N   0  0  0  0  0  0  0  0  0  0  0  0
    1.6850    6.1370   21.0280 H   0  0  0  0  0  0  0  0  0  0  0  0
    1.9820    8.1770   20.7950 C   0  0  0  0  0  0  0  0  0  0  0  0
    2.8250    8.6670   20.3240 H   0  0  0  0  0  0  0  0  0  0  0  0
    2.1960    8.1380   21.8620 H   0  0  0  0  0  0  0  0  0  0  0  0
    0.7280    9.0350   20.5660 C   0  0  0  0  0  0  0  0  0  0  0  0
    0.2920    8.7410   19.6190 H   0  0  0  0  0  0  0  0  0  0  0  0
    1.0450   10.5420   20.4470 C   0  0  0  0  0  0  0  0  0  0  0  0
    1.9220   10.6980   19.8200 H   0  0  0  0  0  0  0  0  0  0  0  0
    0.2060   11.0340   19.9560 H   0  0  0  0  0  0  0  0  0  0  0  0
    1.2590   11.2060   21.8120 C   0  0  0  0  0  0  0  0  0  0  0  0
    2.1190   10.7420   22.2760 H   0  0  0  0  0  0  0  0  0  0  0  0
    1.5710   12.2280   21.7200 H   0  0  0  0  0  0  0  0  0  0  0  0
    0.0960   11.0040   22.6860 N   0  0  0  0  0  0  0  0  0  0  0  0
   -0.9980   11.7990   22.8730 C   0  0  0  0  0  0  0  0  0  0  0  0
   -1.9220   11.3670   23.5650 O   0  0  0  0  0  0  0  0  0  0  0  0
   -1.2780   13.1670   22.1560 C   0  0  0  0  0  0  0  0  0  0  0  0
   -2.0770   14.0920   23.1090 C   0  0  0  0  0  0  0  0  0  0  0  0
   -3.0200   13.6260   23.3970 H   0  0  0  0  0  0  0  0  0  0  0  0
   -2.3150   15.0410   22.6270 H   0  0  0  0  0  0  0  0  0  0  0  0
   -1.4960   14.2870   24.0120 H   0  0  0  0  0  0  0  0  0  0  0  0
   -2.1700   12.9320   20.9210 C   0  0  0  0  0  0  0  0  0  0  0  0
   -1.6680   12.2790   20.2090 H   0  0  0  0  0  0  0  0  0  0  0  0
   -3.1070   12.4620   21.2220 H   0  0  0  0  0  0  0  0  0  0  0  0
   -2.3990   13.8770   20.4250 H   0  0  0  0  0  0  0  0  0  0  0  0
   -0.0750   14.0240   21.7040 C   0  0  0  0  0  0  0  0  0  0  0  0
    0.3690   13.6100   20.7990 H   0  0  0  0  0  0  0  0  0  0  0  0
   -0.3980   15.0330   21.4450 H   0  0  0  0  0  0  0  0  0  0  0  0
    0.6640   14.0920   22.4990 H   0  0  0  0  0  0  0  0  0  0  0  0
   -0.0150    9.5600   22.9700 C   0  0  0  0  0  0  0  0  0  0  0  0
    0.9040    9.1960   23.4070 H   0  0  0  0  0  0  0  0  0  0  0  0
   -0.7720    9.3400   23.7090 H   0  0  0  0  0  0  0  0  0  0  0  0
   -0.3190    8.7980   21.6700 C   0  0  0  0  0  0  0  0  0  0  0  0
   -1.2590    9.1870   21.2990 H   0  0  0  0  0  0  0  0  0  0  0  0
   -0.4400    7.7340   21.8630 H   0  0  0  0  0  0  0  0  0  0  0  0
  1  2  1  0  0  0  0
  1  3  1  0  0  0  0
  1  4  1  0  0  0  0
  1  5  1  0  0  0  0
  5  6  1  0  0  0  0
  5 31  2  0  0  0  0
  6  7  1  0  0  0  0
  6  8  2  0  0  0  0
  8  9  1  0  0  0  0
  8 27  1  0  0  0  0
  9 10  2  0  0  0  0
  9 11  1  0  0  0  0
 11 12  1  0  0  0  0
 11 13  1  0  0  0  0
 13 14  1  0  0  0  0
 13 15  1  0  0  0  0
 13 24  1  0  0  0  0
 15 16  1  0  0  0  0
 15 17  1  0  0  0  0
 15 18  1  0  0  0  0
 18 19  1  0  0  0  0
 18 20  1  0  0  0  0
 18 21  1  0  0  0  0
 21 22  1  0  0  0  0
 21 23  1  0  0  0  0
 21 24  1  0  0  0  0
 24 25  1  0  0  0  0
 24 26  1  0  0  0  0
 27 28  1  0  0  0  0
 27 29  2  0  0  0  0
 29 30  1  0  0  0  0
 29 31  1  0  0  0  0
 31 32  1  0  0  0  0
 32 33  1  0  0  0  0
 32 34  1  0  0  0  0
 34 35  1  0  0  0  0
 34 36  1  0  0  0  0
 34 37  1  0  0  0  0
 37 38  1  0  0  0  0
 37 39  1  0  0  0  0
 37 64  1  0  0  0  0
 39 40  1  0  0  0  0
 39 41  1  0  0  0  0
 39 42  1  0  0  0  0
 42 43  1  0  0  0  0
 42 44  1  0  0  0  0
 42 45  1  0  0  0  0
 45 46  1  0  0  0  0
 45 61  1  0  0  0  0
 46 47  2  0  0  0  0
 46 48  1  0  0  0  0
 48 49  1  0  0  0  0
 48 53  1  0  0  0  0
 48 57  1  0  0  0  0
 49 50  1  0  0  0  0
 49 51  1  0  0  0  0
 49 52  1  0  0  0  0
 53 54  1  0  0  0  0
 53 55  1  0  0  0  0
 53 56  1  0  0  0  0
 57 58  1  0  0  0  0
 57 59  1  0  0  0  0
 57 60  1  0  0  0  0
 61 62  1  0  0  0  0
 61 63  1  0  0  0  0
 61 64  1  0  0  0  0
 64 65  1  0  0  0  0
 64 66  1  0  0  0  0
M  END
>  <receptor>
S(=O)(=O)([O-])[O-].S(CCC(NC(=O)C(NC(=O)C(NC(=O)CNC(=O)C(NC(=O)C1N(C(=O)C(NC(=O)C(NC(=O)C(NC(=O)C(NC(=O)C(NC(=O)C(NC(=O)C(NC(=O)C(NC(=O)C(NC(=O)C(NC(=O)C(NC(=O)C(NC(=O)C(NC(=O)C(NC(=O)C(NC(=O)C(NC(=O)C(NC(=O)C(NC(=O)C(NC(=O)CNC(=O)C(NC(=O)C(NC(=O)C(NC(=O)C(NC(=O)C(NC(=O)C(NC(=O)C(NC(=O)C(NC(=O)C(NC(=O)C(NC(=O)C(NC(=O)C(NC(=O)C(NC(=O)C)CCCC[NH3+])C(C)C)C(O)C)CCC(=O)N)CCC(=O)[O-])CCC(=O)N)Cc2ccccc2)CCC(=O)[O-])CC(C)C)Cc2ccc(O)cc2)CS)CCC(=O)[O-])CCSC)CO)C(O)C)Cc2ccccc2)CCC(=O)N)CC(C)C)C[S-])CCCC[NH3+])C(CC)C)C[S-])C)CCC(=O)[O-])CC(=O)N)CC(=O)[O-])CCCC[NH3+])CC(=O)[O-])C(C)C)CCCC[NH3+])C(CC)C)CCC(=O)[O-])CCC1)C[S-])Cc1nc[n-]c1)CC(C)C)C(=O)NC(C(=O)NC(C(=O)NC(C(=O)NC(C(=O)NC(C(=O)NC(C(=O)NC(C(=O)NC(C(=O)NC(C(=O)NC(C(=O)NC(C(=O)NC(C(=O)NCC(=O)NC(C(=O)NCC(=O)NC(C(=O)N1C(C(=O)NC(C(=O)NC(C(=O)NC(C(=O)NC(C(=O)NC(C(=O)NC(C(=O)NC(C(=O)NCC(=O)NC(C(=O)NC(C(=O)N2C(C(=O)NC(C(=O)NC(C(=O)NC(C(=O)NC(C(=O)N3C(C(=O)NC(C(=O)NC(C(=O)[O-])CC(=O)[O-])Cc4ccccc4)CCC3)CC(=O)[O-])C(C)C)C(CC)C)C(CC)C)CCC2)CCC(=O)[O-])C(O)C)CCCC[NH3+])C(CC)C)CCC(=O)[O-])CS)CCCNC(=[NH2+])N)C[S-])Cc2ccccc2)CCC1)C[S-])CCC(=O)N)CC(=O)[O-])CO)CCC(=O)[O-])CCC(=O)N)Cc1c2c([nH]c1)cccc2)C)C(O)C)CC(C)C)C[S-])CO)C(O)C)C[S-])C.S(CCC(NC(=O)C(NC(=O)C(NC(=O)C(NC(=O)C(NC(=O)C(NC(=O)C(NC(=O)C(NC(=O)C(NC(=O)C(NC(=O)C(NC(=O)C(NC(=O)C(NC(=O)C(NC(=O)C(NC(=O)C(NC(=O)C[NH3+])CCC(=O)N)C)C)C)CC(=O)[O-])CCCNC(=[NH2+])N)CCCNC(=[NH2+])N)C(O)C)C(C)C)CCC(=O)[O-])CCCC[NH3+])C(O)C)Cc1c2c([nH]c1)cccc2)C)CC(C)C)C(=O)NC(C(=O)NC(C(=O)NC(C(=O)NC(C(=O)NC(C(=O)NC(C(=O)NC(C(=O)NC(C(=O)NC(C(=O)N1C(C(=O)NC(C(=O)NC(C(=O)NC(C(=O)NC(C(=O)NC(C(=O)NC(C(=O)NC(C(=O)N2C(C(=O)N3C(C(=O)NC(C(=O)NC(C(=O)NC(C(=O)NC(C(=O)NC(C(=O)NC(C(=O)N4C(C(=O)NC(C(=O)NC(C(=O)NC(C(=O)NC(C(=O)NC(C(=O)NC(C(=O)NC(C(=O)NC(C(=O)NC(C(=O)NC(C(=O)NC(C(=O)NC(C(=O)NC(C(=O)NC(C(=O)NC(C(=O)NC(C(=O)NC(C(=O)NC(C(=O)NC(C(=O)NC(C(=O)NC(C(=O)NC(C(=O)NC(C(=O)NC(C(=O)NC(C(=O)NC(C(=O)NC(C(=O)NC(C(=O)NC(C(=O)NC(C(=O)NC(C(=O)NC(C(=O)NC(C(=O)NC(C(=O)NC(C(=O)NC(C(=O)NC(C(=O)NC(C(=O)NC(C(=O)NC(C(=O)NC(C(=O)NC(C(=O)NC(C(=O)NC(C(=O)NC(C(=O)NC(C(=O)NC(C(=O)NC(C(=O)NCC(=O)NC(C(=O)NC(C(=O)NC(C(=O)NC(C(=O)NC(C(=O)NC(C(=O)NC(C(=O)NC(C(=O)NC(C(=O)NC(C(=O)NC(C(=O)NC(C(=O)NC(C(=O)NC(C(=O)NC(C(=O)NC(C(=O)NC(C(=O)NC(C(=O)NC(C(=O)NC(C(=O)NC(C(=O)NC(C(=O)NC(C(=O)NC(C(=O)NC(C(=O)NC(C(=O)NC(C(=O)NC(C(=O)NC(C(=O)NC(C(=O)NC(C(=O)NC(C(=O)NC(C(=O)N5C(C(=O)NC(C(=O)NCC(=O)NC(C(=O)NC(C(=O)NC(C(=O)NCC(=O)NC(C(=O)NC(C(=O)NC(C(=O)NC(C(=O)NC(C(=O)NC(C(=O)NC(C(=O)NC(C(=O)NC(C(=O)NC(C(=O)NC(C(=O)NC(C(=O)NC(C(=O)NC(C(=O)NC(C(=O)NC(C(=O)NC(C(=O)NC(C(=O)NCC(=O)NC(C(=O)NC(C(=O)NC(C(=O)NC(C(=O)NC(C(=O)N6C(C(=O)NC(C(=O)NC(C(=O)NC(C(=O)NC(C(=O)NC(C(=O)NC(C(=O)NC(C(=O)NC(C(=O)NC(C(=O)NC(C(=O)NC(C(=O)NC(C(=O)NC(C(=O)NC(C(=O)NC(C(=O)NC(C(=O)NCC(=O)NC(C(=O)NC(C(=O)NC(C(=O)NC(C(=O)NC(C(=O)NC(C(=O)NC(C(=O)NC(C(=O)NC(C(=O)NC(C(=O)NC(C(=O)NC(C(=O)NC(C(=O)NC(C(=O)NC(C(=O)NC(C(=O)NC(C(=O)NC(C(=O)NC(C(=O)NC(C(=O)NC(C(=O)NC(C(=O)NC(C(=O)NC(C(=O)NC(C(=O)NC(C(=O)NC(C(=O)NC(C(=O)NC(C(=O)NC(C(=O)NC(C(=O)N7C(C(=O)NC(C(=O)NCC(=O)NC(C(=O)NC(C(=O)NC(C(=O)NC(C(=O)NC(C(=O)NC(C(=O)NC(C(=O)NC(C(=O)NC(C(=O)NC(C(=O)NC(C(=O)NC(C(=O)NC(C(=O)N8C(C(=O)NCC(=O)NC(C(=O)NC(C(=O)NC(C(=O)NC(C(=O)NC(C(=O)NC(C(=O)NC(C(=O)NC(C(=O)NC(C(=O)NC(C(=O)NC(C(=O)NC(C(=O)NC(C(=O)NC(C(=O)NC(C(=O)NC(C(=O)NC(C(=O)NC(C(=O)NC(C(=O)NC(C(=O)N9C(C(=O)NCC(=O)NC(C(=O)NC(C(=O)NC(C(=O)NC(C(=O)NC(C(=O)NC(C(=O)NC(C(=O)NC(C(=O)NC(C(=O)NC(C(=O)NC(C(=O)NCC(=O)NC(C(=O)NC(C(=O)NC(C(=O)NC(C(=O)NCC(=O)NC(C(=O)NC(C(=O)NC(C(=O)NCC(=O)NC(C(=O)NCC(=O)NC(C(=O)NC(C(=O)NC(C(=O)NC(C(=O)NC(C(=O)NC(C(=O)N%10C(C(=O)NC(C(=O)NC(C(=O)NC(C(=O)N%11C(C(=O)NC(C(=O)NC(C(=O)NC(C(=O)NC(C(=O)NC(C(=O)NC(C(=O)NC(C(=O)NCC(=O)NC(C(=O)NC(C(=O)NC(C(=O)NCC(=O)NC(C(=O)NC(C(=O)NC(C(=O)NC(C(=O)N%12C(C(=O)NC(C(=O)NCC(=O)NC(C(=O)NC(C(=O)NC(C(=O)NC(C(=O)NC)CC(=O)N)Cc%13ccc(O)cc%13)CO)CCCNC(=[NH2+])N)CC(=O)[O-])CCC%12)Cc%12ccc(O)cc%12)CC(C)C)Cc%12ccc(O)cc%12)Cc%12ccccc%12)CCC(=O)[O-])C)CO)CC(=O)[O-])C(CC)C)CC(C)C)C)CCC(=O)N)Cc%12ccccc%12)CC(C)C)CCC%11)CCCC[NH3+])CC(=O)N)Cc%11[nH]cnc%11)CCC%10)C(CC)C)C(O)C)CCC(=O)N)CC(C)C)C(CC)C)CC(=O)N)CC(=O)[O-])C(O)C)C(C)C)Cc%10ccc(O)cc%10)C(CC)C)C)Cc%10c%11c([nH]c%10)cccc%11)CCC(=O)N)CC(C)C)CCCNC(=[NH2+])N)C(O)C)CS)CO)CC(C)C)CCCNC(=[NH2+])N)Cc%10ccccc%10)C(CC)C)Cc%10ccc(O)cc%10)CO)CCC9)CCCC[NH3+])C(O)C)CO)Cc9ccc(O)cc9)CCCC[NH3+])CCC(=O)N)CC(C)C)CCCNC(=[NH2+])N)C)CCCC[NH3+])C(C)C)CCC(=O)[O-])CC(=O)[O-])Cc9ccc(O)cc9)C(O)C)CC(C)C)Cc9ccccc9)C)CCSC)Cc9ccc(O)cc9)CCC8)Cc8nc[nH]c8)C(O)C)C(C)C)C)CC(C)C)Cc8ccccc8)CC(=O)N)Cc8c9c([nH]c8)cccc9)CC(=O)N)CCCNC(=[NH2+])N)CC(C)C)C(CC)C)CO)Cc8c9c([nH]c8)cccc9)CCC7)CCC(=O)N)Cc7ccccc7)CC(C)C)CCCNC(=[NH2+])N)C(O)C)Cc7ccccc7)C(CC)C)CC(=O)[O-])Cc7ccccc7)CCC(=O)[O-])Cc7ccccc7)C(C)C)CO)C(CC)C)Cc7ccc(O)cc7)CC(=O)[O-])CC(=O)N)CS)C(O)C)CC(C)C)CC(=O)[O-])C(CC)C)C(O)C)CO)CCCC[NH3+])CC(C)C)C)CCSC)C)CCC(=O)[O-])CC(C)C)CO)CO)C(CC)C)CCC(=O)N)Cc7nc[nH]c7)C(C)C)CCC(=O)[O-])Cc7nc[nH]c7)CC(C)C)CS)CCC(=O)N)CCCNC(=[NH2+])N)Cc7ccccc7)C(C)C)CCCC[NH3+])Cc7c8c([nH]c7)cccc8)CCC6)C(C)C)C(CC)C)C(O)C)CCCC[NH3+])CC(=O)[O-])Cc6ccccc6)Cc6ccccc6)CCCC[NH3+])CCCNC(=[NH2+])N)Cc6c7c([nH]c6)cccc7)Cc6ccccc6)CCC(=O)[O-])C)C)CC(=O)[O-])C)CCCC[NH3+])C(O)C)C(CC)C)CCCNC(=[NH2+])N)Cc6ccccc6)CC(=O)N)CC(=O)[O-])CCC(=O)N)Cc6ccccc6)CCC(=O)N)CC(=O)N)CCC5)Cc5ccccc5)C(CC)C)C)CCCC[NH3+])C(CC)C)CCC(=O)[O-])C)CC(C)C)CCSC)Cc5nc[nH]c5)CO)Cc5ccccc5)C(CC)C)CC(C)C)CO)CC(C)C)CCCC[NH3+])C(O)C)CC(C)C)CC(=O)N)CCCNC(=[NH2+])N)CCCNC(=[NH2+])N)CC(=O)[O-])CCC(=O)N)CO)CCC(=O)N)CCC(=O)[O-])CCC(=O)[O-])Cc5ccc(O)cc5)CCSC)CCCNC(=[NH2+])N)CCC(=O)[O-])CCCC[NH3+])CCC(=O)[O-])CCCC[NH3+])Cc5ccccc5)CC(C)C)CCCNC(=[NH2+])N)C(CC)C)C)CCCNC(=[NH2+])N)CCCC[NH3+])CO)CCCC[NH3+])CCCC[NH3+])CCSC)CC(C)C)CO)CC(=O)[O-])C(CC)C)Cc5ccc(O)cc5)C(CC)C)CCCC[NH3+])Cc5ccccc5)Cc5ccc(O)cc5)CCC(=O)[O-])CC(=O)N)CCC(=O)[O-])CO)CC(C)C)CCC(=O)N)C)CC(C)C)CCCC[NH3+])CCC(=O)N)CC(=O)N)CC(=O)[O-])CC(=O)[O-])Cc5ccc(O)cc5)CCCC[NH3+])CO)CC(C)C)C(CC)C)CC(C)C)CCCNC(=[NH2+])N)CC(C)C)Cc5nc[nH]c5)CCC(=O)N)Cc5ccc(O)cc5)C(O)C)CC(=O)[O-])CCC4)CC(C)C)C(CC)C)CC(=O)[O-])CC(C)C)C(CC)C)Cc4ccc(O)cc4)CCC3)CCC2)CO)CC(=O)N)CCCC[NH3+])CC(C)C)CCC(=O)N)CC(C)C)CCCC[NH3+])CCC1)CC(=O)N)CCC(=O)N)CS)CC(C)C)CCCNC(=[NH2+])N)C(C)C)C(C)C)C)CC(=O)[O-])C.OCCO.[UH+3].[Zn+2].[Zn+2].O.O.O.O.O.O.O.O.O.O.O.O.O.O.O.O.O.O.O.O.O.O.O.O.O.O.O.O.O.O.O.O.O.O.O.O.O.O.O.O.O.O.O.O.O.O.O.O.O.O.O.O.O.O.O.O.O.O.O.O.O.O.O.O.O.O.O.O.O.O.O.O.O.O.O.O.O.O.O.O.O.O.O.O.O.O.O.O.O.O.O.O.O.O.O.O.O.O.O.O.O.O.O.O.O.O.O.O.O.O.O.O.O.O.O.O.O.O.O.O.O.O.O.O.O.O.O.O.O.O.O.O.O.O.O.O.O.O.O.O.O.O

>  <rseq>
1

>  <mseq>
10

>  <S>
-8.4305525

>  <rmsd_refine>
1.1620463

>  <E_conf>
-2.8041718

>  <E_place>
-39.474186

>  <E_score1>
-10.384506

>  <E_refine>
-32.497845

>  <E_score2>
-8.4305525

>  <Field_2>
TE10

>  <pseq>
10

>  <%C>
100

>  <a_heavy>
29

>  <h_logP>
3.2114024

>  <Weight>
399.57898

>  <E_orig>
0.83596963

>  <PLIF_raw>
[[],[],[],[],[]]

>  <PLIF_ligidx>
[]

$$$$

  MOE2020           3D

 63 66  0  0  1  0  0  0  0  0999 V2000
   -3.7660   10.2300   15.2630 C   0  0  0  0  0  0  0  0  0  0  0  0
   -3.1540   10.7610   14.5350 H   0  0  0  0  0  0  0  0  0  0  0  0
   -4.8070   10.3270   14.9700 H   0  0  0  0  0  0  0  0  0  0  0  0
   -3.4940    9.1780   15.2310 H   0  0  0  0  0  0  0  0  0  0  0  0
   -3.5320   10.7920   16.6430 C   0  0  0  0  0  0  0  0  0  0  0  0
   -2.6790   10.1380   17.5190 C   0  0  0  0  0  0  0  0  0  0  0  0
   -2.2710    9.1980   17.2580 H   0  0  0  0  0  0  0  0  0  0  0  0
   -2.3310   10.7250   18.7280 C   0  0  0  0  0  0  0  0  0  0  0  0
   -1.7010   10.1780   19.3650 H   0  0  0  0  0  0  0  0  0  0  0  0
   -2.7890   12.0020   19.0680 C   0  0  0  0  0  0  0  0  0  0  0  0
   -2.2310   12.8660   20.2130 C   0  0  0  0  0  0  0  0  0  0  0  0
   -2.9930   13.5840   20.4870 H   0  0  0  0  0  0  0  0  0  0  0  0
   -1.4580   13.4940   19.7930 H   0  0  0  0  0  0  0  0  0  0  0  0
   -1.6900   12.2510   21.4620 N   0  0  0  0  0  0  0  0  0  0  0  0
   -2.5750   12.3780   22.6290 C   0  0  0  0  0  0  0  0  0  0  0  0
   -2.0220   12.3080   23.5530 H   0  0  0  0  0  0  0  0  0  0  0  0
   -3.3400   11.6180   22.6380 H   0  0  0  0  0  0  0  0  0  0  0  0
   -3.0760   13.3370   22.6480 H   0  0  0  0  0  0  0  0  0  0  0  0
   -0.6770   11.2550   21.4100 C   0  0  0  0  0  0  0  0  0  0  0  0
   -0.6220   10.2340   22.3640 C   0  0  0  0  0  0  0  0  0  0  0  0
   -1.2210   10.2670   23.2360 H   0  0  0  0  0  0  0  0  0  0  0  0
    0.1850    9.1290   22.1370 C   0  0  0  0  0  0  0  0  0  0  0  0
    0.1870    8.3510   22.8510 H   0  0  0  0  0  0  0  0  0  0  0  0
    0.9450    9.0010   20.9730 C   0  0  0  0  0  0  0  0  0  0  0  0
    1.6160    7.6400   20.7950 C   0  0  0  0  0  0  0  0  0  0  0  0
    0.8470    6.8840   20.7260 H   0  0  0  0  0  0  0  0  0  0  0  0
    2.1180    7.4060   21.7180 H   0  0  0  0  0  0  0  0  0  0  0  0
    2.5480    7.4460   19.6940 N   0  0  0  0  0  0  0  0  0  0  0  0
    2.9440    8.2940   19.2600 H   0  0  0  0  0  0  0  0  0  0  0  0
    3.2220    6.2700   19.5130 C   0  0  0  0  0  0  0  0  0  0  0  0
    2.9260    5.2300   20.1040 O   0  0  0  0  0  0  0  0  0  0  0  0
    4.2530    6.3520   18.6180 N   0  0  0  0  0  0  0  0  0  0  0  0
    4.4620    7.2710   18.2020 H   0  0  0  0  0  0  0  0  0  0  0  0
    5.2230    5.2790   18.4100 C   0  0  2  0  0  0  0  0  0  0  0  0
    6.6020    5.5860   19.0330 C   0  0  0  0  0  0  0  0  0  0  0  0
    6.6900    6.6610   19.1740 H   0  0  0  0  0  0  0  0  0  0  0  0
    6.7350    5.0730   19.9840 H   0  0  0  0  0  0  0  0  0  0  0  0
    7.6680    5.1560   18.0110 C   0  0  0  0  0  0  0  0  0  0  0  0
    8.1120    4.2020   18.2940 H   0  0  0  0  0  0  0  0  0  0  0  0
    8.4370    5.9230   17.9110 H   0  0  0  0  0  0  0  0  0  0  0  0
    6.8960    4.9910   16.7340 C   0  0  0  0  0  0  0  0  0  0  0  0
    7.3900    4.7790   15.4550 C   0  0  0  0  0  0  0  0  0  0  0  0
    8.4280    4.7090   15.2950 H   0  0  0  0  0  0  0  0  0  0  0  0
    6.5050    4.6500   14.3880 C   0  0  0  0  0  0  0  0  0  0  0  0
    6.8740    4.4880   13.4090 H   0  0  0  0  0  0  0  0  0  0  0  0
    5.1330    4.7340   14.6110 C   0  0  0  0  0  0  0  0  0  0  0  0
    4.4650    4.6350   13.7960 H   0  0  0  0  0  0  0  0  0  0  0  0
    4.6460    4.9440   15.9000 C   0  0  0  0  0  0  0  0  0  0  0  0
    3.6090    5.0100   16.0830 H   0  0  0  0  0  0  0  0  0  0  0  0
    5.5380    5.0690   16.9550 C   0  0  0  0  0  0  0  0  0  0  0  0
    0.9680   10.0810   20.0600 C   0  0  0  0  0  0  0  0  0  0  0  0
    1.6400   10.0440   18.7680 C   0  0  0  0  0  0  0  0  0  0  0  0
    0.8460    9.9860   17.6710 N   0  0  0  0  0  0  0  0  0  0  0  0
    1.2490   10.1720   16.7400 H   0  0  0  0  0  0  0  0  0  0  0  0
   -0.1760   10.0780   17.7720 H   0  0  0  0  0  0  0  0  0  0  0  0
    2.8500   10.0770   18.5910 O   0  0  0  0  0  0  0  0  0  0  0  0
    0.2170   11.2290   20.3350 C   0  0  0  0  0  0  0  0  0  0  0  0
    0.2570   12.0470   19.6630 H   0  0  0  0  0  0  0  0  0  0  0  0
   -3.7400   12.5920   18.2350 C   0  0  0  0  0  0  0  0  0  0  0  0
   -4.1560   13.5320   18.4910 H   0  0  0  0  0  0  0  0  0  0  0  0
   -4.1120   11.9920   17.0360 C   0  0  0  0  0  0  0  0  0  0  0  0
   -4.8090   12.4770   16.4030 H   0  0  0  0  0  0  0  0  0  0  0  0
    4.8530    4.3440   18.8090 H   0  0  0  0  0  0  0  0  0  0  0  0
  1  2  1  0  0  0  0
  1  3  1  0  0  0  0
  1  4  1  0  0  0  0
  1  5  1  0  0  0  0
  5  6  1  0  0  0  0
  5 61  2  0  0  0  0
  6  7  1  0  0  0  0
  6  8  2  0  0  0  0
  8  9  1  0  0  0  0
  8 10  1  0  0  0  0
 10 11  1  0  0  0  0
 10 59  2  0  0  0  0
 11 12  1  0  0  0  0
 11 13  1  0  0  0  0
 11 14  1  0  0  0  0
 14 15  1  0  0  0  0
 14 19  1  0  0  0  0
 15 16  1  0  0  0  0
 15 17  1  0  0  0  0
 15 18  1  0  0  0  0
 19 20  1  0  0  0  0
 19 57  2  0  0  0  0
 20 21  1  0  0  0  0
 20 22  2  0  0  0  0
 22 23  1  0  0  0  0
 22 24  1  0  0  0  0
 24 25  1  0  0  0  0
 24 51  2  0  0  0  0
 25 26  1  0  0  0  0
 25 27  1  0  0  0  0
 25 28  1  0  0  0  0
 28 29  1  0  0  0  0
 28 30  1  0  0  0  0
 30 31  2  0  0  0  0
 30 32  1  0  0  0  0
 32 33  1  0  0  0  0
 32 34  1  0  0  0  0
 34 35  1  0  0  0  0
 34 50  1  0  0  0  0
 34 63  1  0  0  0  0
 35 36  1  0  0  0  0
 35 37  1  0  0  0  0
 35 38  1  0  0  0  0
 38 39  1  0  0  0  0
 38 40  1  0  0  0  0
 38 41  1  0  0  0  0
 41 42  1  0  0  0  0
 41 50  2  0  0  0  0
 42 43  1  0  0  0  0
 42 44  2  0  0  0  0
 44 45  1  0  0  0  0
 44 46  1  0  0  0  0
 46 47  1  0  0  0  0
 46 48  2  0  0  0  0
 48 49  1  0  0  0  0
 48 50  1  0  0  0  0
 51 52  1  0  0  0  0
 51 57  1  0  0  0  0
 52 53  1  0  0  0  0
 52 56  2  0  0  0  0
 53 54  1  0  0  0  0
 53 55  1  0  0  0  0
 57 58  1  0  0  0  0
 59 60  1  0  0  0  0
 59 61  1  0  0  0  0
 61 62  1  0  0  0  0
M  END
>  <receptor>
S(=O)(=O)([O-])[O-].S(CCC(NC(=O)C(NC(=O)C(NC(=O)CNC(=O)C(NC(=O)C1N(C(=O)C(NC(=O)C(NC(=O)C(NC(=O)C(NC(=O)C(NC(=O)C(NC(=O)C(NC(=O)C(NC(=O)C(NC(=O)C(NC(=O)C(NC(=O)C(NC(=O)C(NC(=O)C(NC(=O)C(NC(=O)C(NC(=O)C(NC(=O)C(NC(=O)C(NC(=O)CNC(=O)C(NC(=O)C(NC(=O)C(NC(=O)C(NC(=O)C(NC(=O)C(NC(=O)C(NC(=O)C(NC(=O)C(NC(=O)C(NC(=O)C(NC(=O)C(NC(=O)C(NC(=O)C)CCCC[NH3+])C(C)C)C(O)C)CCC(=O)N)CCC(=O)[O-])CCC(=O)N)Cc2ccccc2)CCC(=O)[O-])CC(C)C)Cc2ccc(O)cc2)CS)CCC(=O)[O-])CCSC)CO)C(O)C)Cc2ccccc2)CCC(=O)N)CC(C)C)C[S-])CCCC[NH3+])C(CC)C)C[S-])C)CCC(=O)[O-])CC(=O)N)CC(=O)[O-])CCCC[NH3+])CC(=O)[O-])C(C)C)CCCC[NH3+])C(CC)C)CCC(=O)[O-])CCC1)C[S-])Cc1nc[n-]c1)CC(C)C)C(=O)NC(C(=O)NC(C(=O)NC(C(=O)NC(C(=O)NC(C(=O)NC(C(=O)NC(C(=O)NC(C(=O)NC(C(=O)NC(C(=O)NC(C(=O)NC(C(=O)NCC(=O)NC(C(=O)NCC(=O)NC(C(=O)N1C(C(=O)NC(C(=O)NC(C(=O)NC(C(=O)NC(C(=O)NC(C(=O)NC(C(=O)NC(C(=O)NCC(=O)NC(C(=O)NC(C(=O)N2C(C(=O)NC(C(=O)NC(C(=O)NC(C(=O)NC(C(=O)N3C(C(=O)NC(C(=O)NC(C(=O)[O-])CC(=O)[O-])Cc4ccccc4)CCC3)CC(=O)[O-])C(C)C)C(CC)C)C(CC)C)CCC2)CCC(=O)[O-])C(O)C)CCCC[NH3+])C(CC)C)CCC(=O)[O-])CS)CCCNC(=[NH2+])N)C[S-])Cc2ccccc2)CCC1)C[S-])CCC(=O)N)CC(=O)[O-])CO)CCC(=O)[O-])CCC(=O)N)Cc1c2c([nH]c1)cccc2)C)C(O)C)CC(C)C)C[S-])CO)C(O)C)C[S-])C.S(CCC(NC(=O)C(NC(=O)C(NC(=O)C(NC(=O)C(NC(=O)C(NC(=O)C(NC(=O)C(NC(=O)C(NC(=O)C(NC(=O)C(NC(=O)C(NC(=O)C(NC(=O)C(NC(=O)C(NC(=O)C(NC(=O)C[NH3+])CCC(=O)N)C)C)C)CC(=O)[O-])CCCNC(=[NH2+])N)CCCNC(=[NH2+])N)C(O)C)C(C)C)CCC(=O)[O-])CCCC[NH3+])C(O)C)Cc1c2c([nH]c1)cccc2)C)CC(C)C)C(=O)NC(C(=O)NC(C(=O)NC(C(=O)NC(C(=O)NC(C(=O)NC(C(=O)NC(C(=O)NC(C(=O)NC(C(=O)N1C(C(=O)NC(C(=O)NC(C(=O)NC(C(=O)NC(C(=O)NC(C(=O)NC(C(=O)NC(C(=O)N2C(C(=O)N3C(C(=O)NC(C(=O)NC(C(=O)NC(C(=O)NC(C(=O)NC(C(=O)NC(C(=O)N4C(C(=O)NC(C(=O)NC(C(=O)NC(C(=O)NC(C(=O)NC(C(=O)NC(C(=O)NC(C(=O)NC(C(=O)NC(C(=O)NC(C(=O)NC(C(=O)NC(C(=O)NC(C(=O)NC(C(=O)NC(C(=O)NC(C(=O)NC(C(=O)NC(C(=O)NC(C(=O)NC(C(=O)NC(C(=O)NC(C(=O)NC(C(=O)NC(C(=O)NC(C(=O)NC(C(=O)NC(C(=O)NC(C(=O)NC(C(=O)NC(C(=O)NC(C(=O)NC(C(=O)NC(C(=O)NC(C(=O)NC(C(=O)NC(C(=O)NC(C(=O)NC(C(=O)NC(C(=O)NC(C(=O)NC(C(=O)NC(C(=O)NC(C(=O)NC(C(=O)NC(C(=O)NC(C(=O)NC(C(=O)NC(C(=O)NCC(=O)NC(C(=O)NC(C(=O)NC(C(=O)NC(C(=O)NC(C(=O)NC(C(=O)NC(C(=O)NC(C(=O)NC(C(=O)NC(C(=O)NC(C(=O)NC(C(=O)NC(C(=O)NC(C(=O)NC(C(=O)NC(C(=O)NC(C(=O)NC(C(=O)NC(C(=O)NC(C(=O)NC(C(=O)NC(C(=O)NC(C(=O)NC(C(=O)NC(C(=O)NC(C(=O)NC(C(=O)NC(C(=O)NC(C(=O)NC(C(=O)NC(C(=O)NC(C(=O)NC(C(=O)N5C(C(=O)NC(C(=O)NCC(=O)NC(C(=O)NC(C(=O)NC(C(=O)NCC(=O)NC(C(=O)NC(C(=O)NC(C(=O)NC(C(=O)NC(C(=O)NC(C(=O)NC(C(=O)NC(C(=O)NC(C(=O)NC(C(=O)NC(C(=O)NC(C(=O)NC(C(=O)NC(C(=O)NC(C(=O)NC(C(=O)NC(C(=O)NC(C(=O)NCC(=O)NC(C(=O)NC(C(=O)NC(C(=O)NC(C(=O)NC(C(=O)N6C(C(=O)NC(C(=O)NC(C(=O)NC(C(=O)NC(C(=O)NC(C(=O)NC(C(=O)NC(C(=O)NC(C(=O)NC(C(=O)NC(C(=O)NC(C(=O)NC(C(=O)NC(C(=O)NC(C(=O)NC(C(=O)NC(C(=O)NCC(=O)NC(C(=O)NC(C(=O)NC(C(=O)NC(C(=O)NC(C(=O)NC(C(=O)NC(C(=O)NC(C(=O)NC(C(=O)NC(C(=O)NC(C(=O)NC(C(=O)NC(C(=O)NC(C(=O)NC(C(=O)NC(C(=O)NC(C(=O)NC(C(=O)NC(C(=O)NC(C(=O)NC(C(=O)NC(C(=O)NC(C(=O)NC(C(=O)NC(C(=O)NC(C(=O)NC(C(=O)NC(C(=O)NC(C(=O)NC(C(=O)NC(C(=O)N7C(C(=O)NC(C(=O)NCC(=O)NC(C(=O)NC(C(=O)NC(C(=O)NC(C(=O)NC(C(=O)NC(C(=O)NC(C(=O)NC(C(=O)NC(C(=O)NC(C(=O)NC(C(=O)NC(C(=O)NC(C(=O)N8C(C(=O)NCC(=O)NC(C(=O)NC(C(=O)NC(C(=O)NC(C(=O)NC(C(=O)NC(C(=O)NC(C(=O)NC(C(=O)NC(C(=O)NC(C(=O)NC(C(=O)NC(C(=O)NC(C(=O)NC(C(=O)NC(C(=O)NC(C(=O)NC(C(=O)NC(C(=O)NC(C(=O)NC(C(=O)N9C(C(=O)NCC(=O)NC(C(=O)NC(C(=O)NC(C(=O)NC(C(=O)NC(C(=O)NC(C(=O)NC(C(=O)NC(C(=O)NC(C(=O)NC(C(=O)NC(C(=O)NCC(=O)NC(C(=O)NC(C(=O)NC(C(=O)NC(C(=O)NCC(=O)NC(C(=O)NC(C(=O)NC(C(=O)NCC(=O)NC(C(=O)NCC(=O)NC(C(=O)NC(C(=O)NC(C(=O)NC(C(=O)NC(C(=O)NC(C(=O)N%10C(C(=O)NC(C(=O)NC(C(=O)NC(C(=O)N%11C(C(=O)NC(C(=O)NC(C(=O)NC(C(=O)NC(C(=O)NC(C(=O)NC(C(=O)NC(C(=O)NCC(=O)NC(C(=O)NC(C(=O)NC(C(=O)NCC(=O)NC(C(=O)NC(C(=O)NC(C(=O)NC(C(=O)N%12C(C(=O)NC(C(=O)NCC(=O)NC(C(=O)NC(C(=O)NC(C(=O)NC(C(=O)NC)CC(=O)N)Cc%13ccc(O)cc%13)CO)CCCNC(=[NH2+])N)CC(=O)[O-])CCC%12)Cc%12ccc(O)cc%12)CC(C)C)Cc%12ccc(O)cc%12)Cc%12ccccc%12)CCC(=O)[O-])C)CO)CC(=O)[O-])C(CC)C)CC(C)C)C)CCC(=O)N)Cc%12ccccc%12)CC(C)C)CCC%11)CCCC[NH3+])CC(=O)N)Cc%11[nH]cnc%11)CCC%10)C(CC)C)C(O)C)CCC(=O)N)CC(C)C)C(CC)C)CC(=O)N)CC(=O)[O-])C(O)C)C(C)C)Cc%10ccc(O)cc%10)C(CC)C)C)Cc%10c%11c([nH]c%10)cccc%11)CCC(=O)N)CC(C)C)CCCNC(=[NH2+])N)C(O)C)CS)CO)CC(C)C)CCCNC(=[NH2+])N)Cc%10ccccc%10)C(CC)C)Cc%10ccc(O)cc%10)CO)CCC9)CCCC[NH3+])C(O)C)CO)Cc9ccc(O)cc9)CCCC[NH3+])CCC(=O)N)CC(C)C)CCCNC(=[NH2+])N)C)CCCC[NH3+])C(C)C)CCC(=O)[O-])CC(=O)[O-])Cc9ccc(O)cc9)C(O)C)CC(C)C)Cc9ccccc9)C)CCSC)Cc9ccc(O)cc9)CCC8)Cc8nc[nH]c8)C(O)C)C(C)C)C)CC(C)C)Cc8ccccc8)CC(=O)N)Cc8c9c([nH]c8)cccc9)CC(=O)N)CCCNC(=[NH2+])N)CC(C)C)C(CC)C)CO)Cc8c9c([nH]c8)cccc9)CCC7)CCC(=O)N)Cc7ccccc7)CC(C)C)CCCNC(=[NH2+])N)C(O)C)Cc7ccccc7)C(CC)C)CC(=O)[O-])Cc7ccccc7)CCC(=O)[O-])Cc7ccccc7)C(C)C)CO)C(CC)C)Cc7ccc(O)cc7)CC(=O)[O-])CC(=O)N)CS)C(O)C)CC(C)C)CC(=O)[O-])C(CC)C)C(O)C)CO)CCCC[NH3+])CC(C)C)C)CCSC)C)CCC(=O)[O-])CC(C)C)CO)CO)C(CC)C)CCC(=O)N)Cc7nc[nH]c7)C(C)C)CCC(=O)[O-])Cc7nc[nH]c7)CC(C)C)CS)CCC(=O)N)CCCNC(=[NH2+])N)Cc7ccccc7)C(C)C)CCCC[NH3+])Cc7c8c([nH]c7)cccc8)CCC6)C(C)C)C(CC)C)C(O)C)CCCC[NH3+])CC(=O)[O-])Cc6ccccc6)Cc6ccccc6)CCCC[NH3+])CCCNC(=[NH2+])N)Cc6c7c([nH]c6)cccc7)Cc6ccccc6)CCC(=O)[O-])C)C)CC(=O)[O-])C)CCCC[NH3+])C(O)C)C(CC)C)CCCNC(=[NH2+])N)Cc6ccccc6)CC(=O)N)CC(=O)[O-])CCC(=O)N)Cc6ccccc6)CCC(=O)N)CC(=O)N)CCC5)Cc5ccccc5)C(CC)C)C)CCCC[NH3+])C(CC)C)CCC(=O)[O-])C)CC(C)C)CCSC)Cc5nc[nH]c5)CO)Cc5ccccc5)C(CC)C)CC(C)C)CO)CC(C)C)CCCC[NH3+])C(O)C)CC(C)C)CC(=O)N)CCCNC(=[NH2+])N)CCCNC(=[NH2+])N)CC(=O)[O-])CCC(=O)N)CO)CCC(=O)N)CCC(=O)[O-])CCC(=O)[O-])Cc5ccc(O)cc5)CCSC)CCCNC(=[NH2+])N)CCC(=O)[O-])CCCC[NH3+])CCC(=O)[O-])CCCC[NH3+])Cc5ccccc5)CC(C)C)CCCNC(=[NH2+])N)C(CC)C)C)CCCNC(=[NH2+])N)CCCC[NH3+])CO)CCCC[NH3+])CCCC[NH3+])CCSC)CC(C)C)CO)CC(=O)[O-])C(CC)C)Cc5ccc(O)cc5)C(CC)C)CCCC[NH3+])Cc5ccccc5)Cc5ccc(O)cc5)CCC(=O)[O-])CC(=O)N)CCC(=O)[O-])CO)CC(C)C)CCC(=O)N)C)CC(C)C)CCCC[NH3+])CCC(=O)N)CC(=O)N)CC(=O)[O-])CC(=O)[O-])Cc5ccc(O)cc5)CCCC[NH3+])CO)CC(C)C)C(CC)C)CC(C)C)CCCNC(=[NH2+])N)CC(C)C)Cc5nc[nH]c5)CCC(=O)N)Cc5ccc(O)cc5)C(O)C)CC(=O)[O-])CCC4)CC(C)C)C(CC)C)CC(=O)[O-])CC(C)C)C(CC)C)Cc4ccc(O)cc4)CCC3)CCC2)CO)CC(=O)N)CCCC[NH3+])CC(C)C)CCC(=O)N)CC(C)C)CCCC[NH3+])CCC1)CC(=O)N)CCC(=O)N)CS)CC(C)C)CCCNC(=[NH2+])N)C(C)C)C(C)C)C)CC(=O)[O-])C.OCCO.[UH+3].[Zn+2].[Zn+2].O.O.O.O.O.O.O.O.O.O.O.O.O.O.O.O.O.O.O.O.O.O.O.O.O.O.O.O.O.O.O.O.O.O.O.O.O.O.O.O.O.O.O.O.O.O.O.O.O.O.O.O.O.O.O.O.O.O.O.O.O.O.O.O.O.O.O.O.O.O.O.O.O.O.O.O.O.O.O.O.O.O.O.O.O.O.O.O.O.O.O.O.O.O.O.O.O.O.O.O.O.O.O.O.O.O.O.O.O.O.O.O.O.O.O.O.O.O.O.O.O.O.O.O.O.O.O.O.O.O.O.O.O.O.O.O.O.O.O.O.O.O

>  <rseq>
1

>  <mseq>
11

>  <S>
-8.4399862

>  <rmsd_refine>
1.207706

>  <E_conf>
-129.79048

>  <E_place>
-114.2288

>  <E_score1>
-12.196369

>  <E_refine>
-40.580799

>  <E_score2>
-8.4399862

>  <Field_2>
GF01

>  <pseq>
11

>  <%C>
100

>  <a_heavy>
33

>  <h_logP>
3.7490966

>  <Weight>
442.56299

>  <E_orig>
1.4240098

>  <PLIF_raw>
[53,3756,263,3,1.4]

>  <FP:PLIF>
14

>  <PLIF_ligidx>
53

$$$$

  MOE2020           3D

 55 58  0  0  1  0  0  0  0  0999 V2000
   -1.4120   10.7510   18.2780 C   0  0  0  0  0  0  0  0  0  0  0  0
   -2.3600   11.0280   17.8150 H   0  0  0  0  0  0  0  0  0  0  0  0
   -1.6270    9.9960   19.0330 H   0  0  0  0  0  0  0  0  0  0  0  0
   -0.7830   10.3070   17.5070 H   0  0  0  0  0  0  0  0  0  0  0  0
   -0.7370   11.9650   18.8920 C   0  0  0  0  0  0  0  0  0  0  0  0
   -1.0630   13.2240   18.4030 C   0  0  0  0  0  0  0  0  0  0  0  0
   -1.7500   13.3100   17.6030 H   0  0  0  0  0  0  0  0  0  0  0  0
   -0.4960   14.3690   18.9510 C   0  0  0  0  0  0  0  0  0  0  0  0
   -0.7620   15.3220   18.5720 H   0  0  0  0  0  0  0  0  0  0  0  0
    0.4120   14.2610   19.9970 C   0  0  0  0  0  0  0  0  0  0  0  0
    0.8360   15.1340   20.4210 H   0  0  0  0  0  0  0  0  0  0  0  0
    0.7680   13.0080   20.4770 C   0  0  0  0  0  0  0  0  0  0  0  0
    1.4720   12.9290   21.2640 H   0  0  0  0  0  0  0  0  0  0  0  0
    0.2190   11.8470   19.9160 C   0  0  0  0  0  0  0  0  0  0  0  0
    0.6970   10.5430   20.3560 C   0  0  0  0  0  0  0  0  0  0  0  0
    0.3570   10.0670   21.6240 C   0  0  0  0  0  0  0  0  0  0  0  0
   -0.3780   10.8480   22.4660 F   0  0  0  0  0  0  0  0  0  0  0  0
    0.7320    8.8160   22.0750 C   0  0  0  0  0  0  0  0  0  0  0  0
    0.4550    8.4940   23.0440 H   0  0  0  0  0  0  0  0  0  0  0  0
    1.4700    7.9940   21.2330 C   0  0  0  0  0  0  0  0  0  0  0  0
    1.7470    7.0320   21.5700 H   0  0  0  0  0  0  0  0  0  0  0  0
    1.8510    8.4230   19.9610 C   0  0  0  0  0  0  0  0  0  0  0  0
    2.6500    7.4860   19.0550 C   0  0  0  0  0  0  0  0  0  0  0  0
    3.4510    8.0560   18.6110 H   0  0  0  0  0  0  0  0  0  0  0  0
    2.0210    7.1710   18.2340 H   0  0  0  0  0  0  0  0  0  0  0  0
    3.2270    6.3060   19.6950 N   0  0  0  0  0  0  0  0  0  0  0  0
    3.0310    6.2010   20.7020 H   0  0  0  0  0  0  0  0  0  0  0  0
    3.5510    5.1540   19.0250 C   0  0  0  0  0  0  0  0  0  0  0  0
    3.5010    4.0730   19.6050 O   0  0  0  0  0  0  0  0  0  0  0  0
    3.9190    5.2050   17.7010 N   0  0  0  0  0  0  0  0  0  0  0  0
    3.9760    4.2750   17.2600 H   0  0  0  0  0  0  0  0  0  0  0  0
    5.0130    6.0640   17.2560 C   0  0  2  0  0  0  0  0  0  0  0  0
    5.3230    5.8640   15.7550 C   0  0  0  0  0  0  0  0  0  0  0  0
    4.4850    5.4360   15.2100 H   0  0  0  0  0  0  0  0  0  0  0  0
    5.5710    6.8340   15.3250 H   0  0  0  0  0  0  0  0  0  0  0  0
    6.5600    4.9530   15.6710 C   0  0  0  0  0  0  0  0  0  0  0  0
    7.2650    5.3150   14.9220 H   0  0  0  0  0  0  0  0  0  0  0  0
    6.2600    3.9270   15.4510 H   0  0  0  0  0  0  0  0  0  0  0  0
    7.1440    5.0160   17.0540 C   0  0  0  0  0  0  0  0  0  0  0  0
    8.3560    4.5110   17.5020 C   0  0  0  0  0  0  0  0  0  0  0  0
    8.9970    4.0050   16.8370 H   0  0  0  0  0  0  0  0  0  0  0  0
    8.7150    4.6770   18.8370 C   0  0  0  0  0  0  0  0  0  0  0  0
    9.6320    4.2900   19.1950 H   0  0  0  0  0  0  0  0  0  0  0  0
    7.8610    5.3370   19.7150 C   0  0  0  0  0  0  0  0  0  0  0  0
    8.1330    5.4490   20.7310 H   0  0  0  0  0  0  0  0  0  0  0  0
    6.6410    5.8260   19.2610 C   0  0  0  0  0  0  0  0  0  0  0  0
    5.9780    6.3060   19.9270 H   0  0  0  0  0  0  0  0  0  0  0  0
    6.2930    5.6580   17.9280 C   0  0  0  0  0  0  0  0  0  0  0  0
    1.4920    9.7190   19.5200 C   0  0  0  0  0  0  0  0  0  0  0  0
    1.9430   10.2040   18.2090 C   0  0  0  0  0  0  0  0  0  0  0  0
    2.4010   11.4800   18.0660 N   0  0  0  0  0  0  0  0  0  0  0  0
    2.5870   11.8500   17.1210 H   0  0  0  0  0  0  0  0  0  0  0  0
    2.3150   12.1510   18.8440 H   0  0  0  0  0  0  0  0  0  0  0  0
    1.9560    9.5120   17.2020 O   0  0  0  0  0  0  0  0  0  0  0  0
    4.8020    7.1040   17.4450 H   0  0  0  0  0  0  0  0  0  0  0  0
  1  2  1  0  0  0  0
  1  3  1  0  0  0  0
  1  4  1  0  0  0  0
  1  5  1  0  0  0  0
  5  6  1  0  0  0  0
  5 14  2  0  0  0  0
  6  7  1  0  0  0  0
  6  8  2  0  0  0  0
  8  9  1  0  0  0  0
  8 10  1  0  0  0  0
 10 11  1  0  0  0  0
 10 12  2  0  0  0  0
 12 13  1  0  0  0  0
 12 14  1  0  0  0  0
 14 15  1  0  0  0  0
 15 16  1  0  0  0  0
 15 49  2  0  0  0  0
 16 17  1  0  0  0  0
 16 18  2  0  0  0  0
 18 19  1  0  0  0  0
 18 20  1  0  0  0  0
 20 21  1  0  0  0  0
 20 22  2  0  0  0  0
 22 23  1  0  0  0  0
 22 49  1  0  0  0  0
 23 24  1  0  0  0  0
 23 25  1  0  0  0  0
 23 26  1  0  0  0  0
 26 27  1  0  0  0  0
 26 28  1  0  0  0  0
 28 29  2  0  0  0  0
 28 30  1  0  0  0  0
 30 31  1  0  0  0  0
 30 32  1  0  0  0  0
 32 33  1  0  0  0  0
 32 48  1  0  0  0  0
 32 55  1  0  0  0  0
 33 34  1  0  0  0  0
 33 35  1  0  0  0  0
 33 36  1  0  0  0  0
 36 37  1  0  0  0  0
 36 38  1  0  0  0  0
 36 39  1  0  0  0  0
 39 40  1  0  0  0  0
 39 48  2  0  0  0  0
 40 41  1  0  0  0  0
 40 42  2  0  0  0  0
 42 43  1  0  0  0  0
 42 44  1  0  0  0  0
 44 45  1  0  0  0  0
 44 46  2  0  0  0  0
 46 47  1  0  0  0  0
 46 48  1  0  0  0  0
 49 50  1  0  0  0  0
 50 51  1  0  0  0  0
 50 54  2  0  0  0  0
 51 52  1  0  0  0  0
 51 53  1  0  0  0  0
M  END
>  <receptor>
S(=O)(=O)([O-])[O-].S(CCC(NC(=O)C(NC(=O)C(NC(=O)CNC(=O)C(NC(=O)C1N(C(=O)C(NC(=O)C(NC(=O)C(NC(=O)C(NC(=O)C(NC(=O)C(NC(=O)C(NC(=O)C(NC(=O)C(NC(=O)C(NC(=O)C(NC(=O)C(NC(=O)C(NC(=O)C(NC(=O)C(NC(=O)C(NC(=O)C(NC(=O)C(NC(=O)C(NC(=O)CNC(=O)C(NC(=O)C(NC(=O)C(NC(=O)C(NC(=O)C(NC(=O)C(NC(=O)C(NC(=O)C(NC(=O)C(NC(=O)C(NC(=O)C(NC(=O)C(NC(=O)C(NC(=O)C)CCCC[NH3+])C(C)C)C(O)C)CCC(=O)N)CCC(=O)[O-])CCC(=O)N)Cc2ccccc2)CCC(=O)[O-])CC(C)C)Cc2ccc(O)cc2)CS)CCC(=O)[O-])CCSC)CO)C(O)C)Cc2ccccc2)CCC(=O)N)CC(C)C)C[S-])CCCC[NH3+])C(CC)C)C[S-])C)CCC(=O)[O-])CC(=O)N)CC(=O)[O-])CCCC[NH3+])CC(=O)[O-])C(C)C)CCCC[NH3+])C(CC)C)CCC(=O)[O-])CCC1)C[S-])Cc1nc[n-]c1)CC(C)C)C(=O)NC(C(=O)NC(C(=O)NC(C(=O)NC(C(=O)NC(C(=O)NC(C(=O)NC(C(=O)NC(C(=O)NC(C(=O)NC(C(=O)NC(C(=O)NC(C(=O)NCC(=O)NC(C(=O)NCC(=O)NC(C(=O)N1C(C(=O)NC(C(=O)NC(C(=O)NC(C(=O)NC(C(=O)NC(C(=O)NC(C(=O)NC(C(=O)NCC(=O)NC(C(=O)NC(C(=O)N2C(C(=O)NC(C(=O)NC(C(=O)NC(C(=O)NC(C(=O)N3C(C(=O)NC(C(=O)NC(C(=O)[O-])CC(=O)[O-])Cc4ccccc4)CCC3)CC(=O)[O-])C(C)C)C(CC)C)C(CC)C)CCC2)CCC(=O)[O-])C(O)C)CCCC[NH3+])C(CC)C)CCC(=O)[O-])CS)CCCNC(=[NH2+])N)C[S-])Cc2ccccc2)CCC1)C[S-])CCC(=O)N)CC(=O)[O-])CO)CCC(=O)[O-])CCC(=O)N)Cc1c2c([nH]c1)cccc2)C)C(O)C)CC(C)C)C[S-])CO)C(O)C)C[S-])C.S(CCC(NC(=O)C(NC(=O)C(NC(=O)C(NC(=O)C(NC(=O)C(NC(=O)C(NC(=O)C(NC(=O)C(NC(=O)C(NC(=O)C(NC(=O)C(NC(=O)C(NC(=O)C(NC(=O)C(NC(=O)C(NC(=O)C[NH3+])CCC(=O)N)C)C)C)CC(=O)[O-])CCCNC(=[NH2+])N)CCCNC(=[NH2+])N)C(O)C)C(C)C)CCC(=O)[O-])CCCC[NH3+])C(O)C)Cc1c2c([nH]c1)cccc2)C)CC(C)C)C(=O)NC(C(=O)NC(C(=O)NC(C(=O)NC(C(=O)NC(C(=O)NC(C(=O)NC(C(=O)NC(C(=O)NC(C(=O)N1C(C(=O)NC(C(=O)NC(C(=O)NC(C(=O)NC(C(=O)NC(C(=O)NC(C(=O)NC(C(=O)N2C(C(=O)N3C(C(=O)NC(C(=O)NC(C(=O)NC(C(=O)NC(C(=O)NC(C(=O)NC(C(=O)N4C(C(=O)NC(C(=O)NC(C(=O)NC(C(=O)NC(C(=O)NC(C(=O)NC(C(=O)NC(C(=O)NC(C(=O)NC(C(=O)NC(C(=O)NC(C(=O)NC(C(=O)NC(C(=O)NC(C(=O)NC(C(=O)NC(C(=O)NC(C(=O)NC(C(=O)NC(C(=O)NC(C(=O)NC(C(=O)NC(C(=O)NC(C(=O)NC(C(=O)NC(C(=O)NC(C(=O)NC(C(=O)NC(C(=O)NC(C(=O)NC(C(=O)NC(C(=O)NC(C(=O)NC(C(=O)NC(C(=O)NC(C(=O)NC(C(=O)NC(C(=O)NC(C(=O)NC(C(=O)NC(C(=O)NC(C(=O)NC(C(=O)NC(C(=O)NC(C(=O)NC(C(=O)NC(C(=O)NC(C(=O)NC(C(=O)NCC(=O)NC(C(=O)NC(C(=O)NC(C(=O)NC(C(=O)NC(C(=O)NC(C(=O)NC(C(=O)NC(C(=O)NC(C(=O)NC(C(=O)NC(C(=O)NC(C(=O)NC(C(=O)NC(C(=O)NC(C(=O)NC(C(=O)NC(C(=O)NC(C(=O)NC(C(=O)NC(C(=O)NC(C(=O)NC(C(=O)NC(C(=O)NC(C(=O)NC(C(=O)NC(C(=O)NC(C(=O)NC(C(=O)NC(C(=O)NC(C(=O)NC(C(=O)NC(C(=O)NC(C(=O)N5C(C(=O)NC(C(=O)NCC(=O)NC(C(=O)NC(C(=O)NC(C(=O)NCC(=O)NC(C(=O)NC(C(=O)NC(C(=O)NC(C(=O)NC(C(=O)NC(C(=O)NC(C(=O)NC(C(=O)NC(C(=O)NC(C(=O)NC(C(=O)NC(C(=O)NC(C(=O)NC(C(=O)NC(C(=O)NC(C(=O)NC(C(=O)NC(C(=O)NCC(=O)NC(C(=O)NC(C(=O)NC(C(=O)NC(C(=O)NC(C(=O)N6C(C(=O)NC(C(=O)NC(C(=O)NC(C(=O)NC(C(=O)NC(C(=O)NC(C(=O)NC(C(=O)NC(C(=O)NC(C(=O)NC(C(=O)NC(C(=O)NC(C(=O)NC(C(=O)NC(C(=O)NC(C(=O)NC(C(=O)NCC(=O)NC(C(=O)NC(C(=O)NC(C(=O)NC(C(=O)NC(C(=O)NC(C(=O)NC(C(=O)NC(C(=O)NC(C(=O)NC(C(=O)NC(C(=O)NC(C(=O)NC(C(=O)NC(C(=O)NC(C(=O)NC(C(=O)NC(C(=O)NC(C(=O)NC(C(=O)NC(C(=O)NC(C(=O)NC(C(=O)NC(C(=O)NC(C(=O)NC(C(=O)NC(C(=O)NC(C(=O)NC(C(=O)NC(C(=O)NC(C(=O)NC(C(=O)N7C(C(=O)NC(C(=O)NCC(=O)NC(C(=O)NC(C(=O)NC(C(=O)NC(C(=O)NC(C(=O)NC(C(=O)NC(C(=O)NC(C(=O)NC(C(=O)NC(C(=O)NC(C(=O)NC(C(=O)NC(C(=O)N8C(C(=O)NCC(=O)NC(C(=O)NC(C(=O)NC(C(=O)NC(C(=O)NC(C(=O)NC(C(=O)NC(C(=O)NC(C(=O)NC(C(=O)NC(C(=O)NC(C(=O)NC(C(=O)NC(C(=O)NC(C(=O)NC(C(=O)NC(C(=O)NC(C(=O)NC(C(=O)NC(C(=O)NC(C(=O)N9C(C(=O)NCC(=O)NC(C(=O)NC(C(=O)NC(C(=O)NC(C(=O)NC(C(=O)NC(C(=O)NC(C(=O)NC(C(=O)NC(C(=O)NC(C(=O)NC(C(=O)NCC(=O)NC(C(=O)NC(C(=O)NC(C(=O)NC(C(=O)NCC(=O)NC(C(=O)NC(C(=O)NC(C(=O)NCC(=O)NC(C(=O)NCC(=O)NC(C(=O)NC(C(=O)NC(C(=O)NC(C(=O)NC(C(=O)NC(C(=O)N%10C(C(=O)NC(C(=O)NC(C(=O)NC(C(=O)N%11C(C(=O)NC(C(=O)NC(C(=O)NC(C(=O)NC(C(=O)NC(C(=O)NC(C(=O)NC(C(=O)NCC(=O)NC(C(=O)NC(C(=O)NC(C(=O)NCC(=O)NC(C(=O)NC(C(=O)NC(C(=O)NC(C(=O)N%12C(C(=O)NC(C(=O)NCC(=O)NC(C(=O)NC(C(=O)NC(C(=O)NC(C(=O)NC)CC(=O)N)Cc%13ccc(O)cc%13)CO)CCCNC(=[NH2+])N)CC(=O)[O-])CCC%12)Cc%12ccc(O)cc%12)CC(C)C)Cc%12ccc(O)cc%12)Cc%12ccccc%12)CCC(=O)[O-])C)CO)CC(=O)[O-])C(CC)C)CC(C)C)C)CCC(=O)N)Cc%12ccccc%12)CC(C)C)CCC%11)CCCC[NH3+])CC(=O)N)Cc%11[nH]cnc%11)CCC%10)C(CC)C)C(O)C)CCC(=O)N)CC(C)C)C(CC)C)CC(=O)N)CC(=O)[O-])C(O)C)C(C)C)Cc%10ccc(O)cc%10)C(CC)C)C)Cc%10c%11c([nH]c%10)cccc%11)CCC(=O)N)CC(C)C)CCCNC(=[NH2+])N)C(O)C)CS)CO)CC(C)C)CCCNC(=[NH2+])N)Cc%10ccccc%10)C(CC)C)Cc%10ccc(O)cc%10)CO)CCC9)CCCC[NH3+])C(O)C)CO)Cc9ccc(O)cc9)CCCC[NH3+])CCC(=O)N)CC(C)C)CCCNC(=[NH2+])N)C)CCCC[NH3+])C(C)C)CCC(=O)[O-])CC(=O)[O-])Cc9ccc(O)cc9)C(O)C)CC(C)C)Cc9ccccc9)C)CCSC)Cc9ccc(O)cc9)CCC8)Cc8nc[nH]c8)C(O)C)C(C)C)C)CC(C)C)Cc8ccccc8)CC(=O)N)Cc8c9c([nH]c8)cccc9)CC(=O)N)CCCNC(=[NH2+])N)CC(C)C)C(CC)C)CO)Cc8c9c([nH]c8)cccc9)CCC7)CCC(=O)N)Cc7ccccc7)CC(C)C)CCCNC(=[NH2+])N)C(O)C)Cc7ccccc7)C(CC)C)CC(=O)[O-])Cc7ccccc7)CCC(=O)[O-])Cc7ccccc7)C(C)C)CO)C(CC)C)Cc7ccc(O)cc7)CC(=O)[O-])CC(=O)N)CS)C(O)C)CC(C)C)CC(=O)[O-])C(CC)C)C(O)C)CO)CCCC[NH3+])CC(C)C)C)CCSC)C)CCC(=O)[O-])CC(C)C)CO)CO)C(CC)C)CCC(=O)N)Cc7nc[nH]c7)C(C)C)CCC(=O)[O-])Cc7nc[nH]c7)CC(C)C)CS)CCC(=O)N)CCCNC(=[NH2+])N)Cc7ccccc7)C(C)C)CCCC[NH3+])Cc7c8c([nH]c7)cccc8)CCC6)C(C)C)C(CC)C)C(O)C)CCCC[NH3+])CC(=O)[O-])Cc6ccccc6)Cc6ccccc6)CCCC[NH3+])CCCNC(=[NH2+])N)Cc6c7c([nH]c6)cccc7)Cc6ccccc6)CCC(=O)[O-])C)C)CC(=O)[O-])C)CCCC[NH3+])C(O)C)C(CC)C)CCCNC(=[NH2+])N)Cc6ccccc6)CC(=O)N)CC(=O)[O-])CCC(=O)N)Cc6ccccc6)CCC(=O)N)CC(=O)N)CCC5)Cc5ccccc5)C(CC)C)C)CCCC[NH3+])C(CC)C)CCC(=O)[O-])C)CC(C)C)CCSC)Cc5nc[nH]c5)CO)Cc5ccccc5)C(CC)C)CC(C)C)CO)CC(C)C)CCCC[NH3+])C(O)C)CC(C)C)CC(=O)N)CCCNC(=[NH2+])N)CCCNC(=[NH2+])N)CC(=O)[O-])CCC(=O)N)CO)CCC(=O)N)CCC(=O)[O-])CCC(=O)[O-])Cc5ccc(O)cc5)CCSC)CCCNC(=[NH2+])N)CCC(=O)[O-])CCCC[NH3+])CCC(=O)[O-])CCCC[NH3+])Cc5ccccc5)CC(C)C)CCCNC(=[NH2+])N)C(CC)C)C)CCCNC(=[NH2+])N)CCCC[NH3+])CO)CCCC[NH3+])CCCC[NH3+])CCSC)CC(C)C)CO)CC(=O)[O-])C(CC)C)Cc5ccc(O)cc5)C(CC)C)CCCC[NH3+])Cc5ccccc5)Cc5ccc(O)cc5)CCC(=O)[O-])CC(=O)N)CCC(=O)[O-])CO)CC(C)C)CCC(=O)N)C)CC(C)C)CCCC[NH3+])CCC(=O)N)CC(=O)N)CC(=O)[O-])CC(=O)[O-])Cc5ccc(O)cc5)CCCC[NH3+])CO)CC(C)C)C(CC)C)CC(C)C)CCCNC(=[NH2+])N)CC(C)C)Cc5nc[nH]c5)CCC(=O)N)Cc5ccc(O)cc5)C(O)C)CC(=O)[O-])CCC4)CC(C)C)C(CC)C)CC(=O)[O-])CC(C)C)C(CC)C)Cc4ccc(O)cc4)CCC3)CCC2)CO)CC(=O)N)CCCC[NH3+])CC(C)C)CCC(=O)N)CC(C)C)CCCC[NH3+])CCC1)CC(=O)N)CCC(=O)N)CS)CC(C)C)CCCNC(=[NH2+])N)C(C)C)C(C)C)C)CC(=O)[O-])C.OCCO.[UH+3].[Zn+2].[Zn+2].O.O.O.O.O.O.O.O.O.O.O.O.O.O.O.O.O.O.O.O.O.O.O.O.O.O.O.O.O.O.O.O.O.O.O.O.O.O.O.O.O.O.O.O.O.O.O.O.O.O.O.O.O.O.O.O.O.O.O.O.O.O.O.O.O.O.O.O.O.O.O.O.O.O.O.O.O.O.O.O.O.O.O.O.O.O.O.O.O.O.O.O.O.O.O.O.O.O.O.O.O.O.O.O.O.O.O.O.O.O.O.O.O.O.O.O.O.O.O.O.O.O.O.O.O.O.O.O.O.O.O.O.O.O.O.O.O.O.O.O.O.O

>  <rseq>
1

>  <mseq>
12

>  <S>
-7.9807448

>  <rmsd_refine>
1.9726727

>  <E_conf>
-120.04405

>  <E_place>
-91.412407

>  <E_score1>
-10.39575

>  <E_refine>
-39.80537

>  <E_score2>
-7.9807448

>  <Field_2>
GF02

>  <pseq>
12

>  <%C>
100

>  <a_heavy>
31

>  <h_logP>
3.9134383

>  <Weight>
417.48398

>  <E_orig>
1.4219226

>  <PLIF_raw>
[[26,54],[5177,3751],[366,263],[3,4],[0.5,3.3]]

>  <FP:PLIF>
15 16 17

>  <PLIF_ligidx>
[54,54,26]

$$$$

  MOE2020           3D

 55 58  0  0  1  0  0  0  0  0999 V2000
    7.3010    6.5170   17.1860 C   0  0  0  0  0  0  0  0  0  0  0  0
    6.6830    7.4010   17.3500 H   0  0  0  0  0  0  0  0  0  0  0  0
    7.3990    5.9830   18.1320 H   0  0  0  0  0  0  0  0  0  0  0  0
    8.2920    6.8540   16.8860 H   0  0  0  0  0  0  0  0  0  0  0  0
    6.6780    5.6190   16.1330 C   0  0  0  0  0  0  0  0  0  0  0  0
    7.3390    5.3930   14.9270 C   0  0  0  0  0  0  0  0  0  0  0  0
    8.2760    5.8340   14.7290 H   0  0  0  0  0  0  0  0  0  0  0  0
    6.7410    4.6030   13.9570 C   0  0  0  0  0  0  0  0  0  0  0  0
    7.3460    4.4490   12.7510 F   0  0  0  0  0  0  0  0  0  0  0  0
    5.5310    3.9720   14.1730 C   0  0  0  0  0  0  0  0  0  0  0  0
    5.1010    3.3800   13.4160 H   0  0  0  0  0  0  0  0  0  0  0  0
    4.8950    4.1530   15.3910 C   0  0  0  0  0  0  0  0  0  0  0  0
    3.9890    3.6470   15.5930 H   0  0  0  0  0  0  0  0  0  0  0  0
    5.4220    5.0240   16.3510 C   0  0  0  0  0  0  0  0  0  0  0  0
    4.5990    5.3380   17.5080 C   0  0  0  0  0  0  0  0  0  0  0  0
    4.4550    4.4280   18.5630 C   0  0  0  0  0  0  0  0  0  0  0  0
    5.0080    3.5240   18.5590 H   0  0  0  0  0  0  0  0  0  0  0  0
    3.5660    4.6910   19.6000 C   0  0  0  0  0  0  0  0  0  0  0  0
    3.4300    3.9860   20.3770 H   0  0  0  0  0  0  0  0  0  0  0  0
    2.8440    5.8780   19.5940 C   0  0  0  0  0  0  0  0  0  0  0  0
    3.0010    6.7980   18.5770 C   0  0  0  0  0  0  0  0  0  0  0  0
    3.8710    6.5350   17.5280 C   0  0  0  0  0  0  0  0  0  0  0  0
    3.9630    7.2210   16.7290 H   0  0  0  0  0  0  0  0  0  0  0  0
    2.0860    7.9820   18.7760 C   0  0  2  0  0  0  0  0  0  0  0  0
    2.6790    9.2820   18.4960 N   0  0  0  0  0  0  0  0  0  0  0  0
    3.6470    9.4370   18.8130 H   0  0  0  0  0  0  0  0  0  0  0  0
    1.8890   10.3850   18.2990 C   0  0  0  0  0  0  0  0  0  0  0  0
    0.6720   10.3070   18.1190 O   0  0  0  0  0  0  0  0  0  0  0  0
    2.5650   11.5740   18.3240 N   0  0  0  0  0  0  0  0  0  0  0  0
    3.5910   11.5410   18.4000 H   0  0  0  0  0  0  0  0  0  0  0  0
    1.9800   12.8170   17.8320 C   0  0  0  0  0  0  0  0  0  0  0  0
    2.1300   12.8650   16.7630 H   0  0  0  0  0  0  0  0  0  0  0  0
    0.9060   12.8130   17.9520 H   0  0  0  0  0  0  0  0  0  0  0  0
    2.5740   14.0530   18.4900 C   0  0  0  0  0  0  0  0  0  0  0  0
    3.3250   14.9260   17.6980 C   0  0  0  0  0  0  0  0  0  0  0  0
    3.4540   14.7280   16.6670 H   0  0  0  0  0  0  0  0  0  0  0  0
    3.9130   16.0600   18.2440 C   0  0  0  0  0  0  0  0  0  0  0  0
    4.4810   16.7180   17.6400 H   0  0  0  0  0  0  0  0  0  0  0  0
    3.7420   16.3100   19.5970 C   0  0  0  0  0  0  0  0  0  0  0  0
    4.3120   17.4160   20.1370 F   0  0  0  0  0  0  0  0  0  0  0  0
    3.0070   15.4670   20.4150 C   0  0  0  0  0  0  0  0  0  0  0  0
    2.8990   15.6880   21.4460 H   0  0  0  0  0  0  0  0  0  0  0  0
    2.4050   14.3260   19.8670 C   0  0  0  0  0  0  0  0  0  0  0  0
    1.6390   13.4630   20.7630 C   0  0  0  0  0  0  0  0  0  0  0  0
    0.3490   13.1480   20.4590 N   0  0  0  0  0  0  0  0  0  0  0  0
   -0.0820   13.4710   19.5780 H   0  0  0  0  0  0  0  0  0  0  0  0
   -0.1930   12.5220   21.0730 H   0  0  0  0  0  0  0  0  0  0  0  0
    2.0890   13.0370   21.8210 O   0  0  0  0  0  0  0  0  0  0  0  0
    1.6210    7.8280   20.2410 C   0  0  0  0  0  0  0  0  0  0  0  0
    0.5870    8.1460   20.3760 H   0  0  0  0  0  0  0  0  0  0  0  0
    2.2700    8.4200   20.8860 H   0  0  0  0  0  0  0  0  0  0  0  0
    1.8180    6.3450   20.5870 C   0  0  0  0  0  0  0  0  0  0  0  0
    2.1520    6.2040   21.6070 H   0  0  0  0  0  0  0  0  0  0  0  0
    0.8910    5.8000   20.4330 H   0  0  0  0  0  0  0  0  0  0  0  0
    1.2410    7.8420   18.1170 H   0  0  0  0  0  0  0  0  0  0  0  0
  1  2  1  0  0  0  0
  1  3  1  0  0  0  0
  1  4  1  0  0  0  0
  1  5  1  0  0  0  0
  5  6  2  0  0  0  0
  5 14  1  0  0  0  0
  6  7  1  0  0  0  0
  6  8  1  0  0  0  0
  8  9  1  0  0  0  0
  8 10  2  0  0  0  0
 10 11  1  0  0  0  0
 10 12  1  0  0  0  0
 12 13  1  0  0  0  0
 12 14  2  0  0  0  0
 14 15  1  0  0  0  0
 15 16  2  0  0  0  0
 15 22  1  0  0  0  0
 16 17  1  0  0  0  0
 16 18  1  0  0  0  0
 18 19  1  0  0  0  0
 18 20  2  0  0  0  0
 20 21  1  0  0  0  0
 20 52  1  0  0  0  0
 21 22  2  0  0  0  0
 21 24  1  0  0  0  0
 22 23  1  0  0  0  0
 24 25  1  0  0  0  0
 24 49  1  0  0  0  0
 24 55  1  0  0  0  0
 25 26  1  0  0  0  0
 25 27  1  0  0  0  0
 27 28  2  0  0  0  0
 27 29  1  0  0  0  0
 29 30  1  0  0  0  0
 29 31  1  0  0  0  0
 31 32  1  0  0  0  0
 31 33  1  0  0  0  0
 31 34  1  0  0  0  0
 34 35  1  0  0  0  0
 34 43  2  0  0  0  0
 35 36  1  0  0  0  0
 35 37  2  0  0  0  0
 37 38  1  0  0  0  0
 37 39  1  0  0  0  0
 39 40  1  0  0  0  0
 39 41  2  0  0  0  0
 41 42  1  0  0  0  0
 41 43  1  0  0  0  0
 43 44  1  0  0  0  0
 44 45  1  0  0  0  0
 44 48  2  0  0  0  0
 45 46  1  0  0  0  0
 45 47  1  0  0  0  0
 49 50  1  0  0  0  0
 49 51  1  0  0  0  0
 49 52  1  0  0  0  0
 52 53  1  0  0  0  0
 52 54  1  0  0  0  0
M  END
>  <receptor>
S(=O)(=O)([O-])[O-].S(CCC(NC(=O)C(NC(=O)C(NC(=O)CNC(=O)C(NC(=O)C1N(C(=O)C(NC(=O)C(NC(=O)C(NC(=O)C(NC(=O)C(NC(=O)C(NC(=O)C(NC(=O)C(NC(=O)C(NC(=O)C(NC(=O)C(NC(=O)C(NC(=O)C(NC(=O)C(NC(=O)C(NC(=O)C(NC(=O)C(NC(=O)C(NC(=O)C(NC(=O)CNC(=O)C(NC(=O)C(NC(=O)C(NC(=O)C(NC(=O)C(NC(=O)C(NC(=O)C(NC(=O)C(NC(=O)C(NC(=O)C(NC(=O)C(NC(=O)C(NC(=O)C(NC(=O)C)CCCC[NH3+])C(C)C)C(O)C)CCC(=O)N)CCC(=O)[O-])CCC(=O)N)Cc2ccccc2)CCC(=O)[O-])CC(C)C)Cc2ccc(O)cc2)CS)CCC(=O)[O-])CCSC)CO)C(O)C)Cc2ccccc2)CCC(=O)N)CC(C)C)C[S-])CCCC[NH3+])C(CC)C)C[S-])C)CCC(=O)[O-])CC(=O)N)CC(=O)[O-])CCCC[NH3+])CC(=O)[O-])C(C)C)CCCC[NH3+])C(CC)C)CCC(=O)[O-])CCC1)C[S-])Cc1nc[n-]c1)CC(C)C)C(=O)NC(C(=O)NC(C(=O)NC(C(=O)NC(C(=O)NC(C(=O)NC(C(=O)NC(C(=O)NC(C(=O)NC(C(=O)NC(C(=O)NC(C(=O)NC(C(=O)NCC(=O)NC(C(=O)NCC(=O)NC(C(=O)N1C(C(=O)NC(C(=O)NC(C(=O)NC(C(=O)NC(C(=O)NC(C(=O)NC(C(=O)NC(C(=O)NCC(=O)NC(C(=O)NC(C(=O)N2C(C(=O)NC(C(=O)NC(C(=O)NC(C(=O)NC(C(=O)N3C(C(=O)NC(C(=O)NC(C(=O)[O-])CC(=O)[O-])Cc4ccccc4)CCC3)CC(=O)[O-])C(C)C)C(CC)C)C(CC)C)CCC2)CCC(=O)[O-])C(O)C)CCCC[NH3+])C(CC)C)CCC(=O)[O-])CS)CCCNC(=[NH2+])N)C[S-])Cc2ccccc2)CCC1)C[S-])CCC(=O)N)CC(=O)[O-])CO)CCC(=O)[O-])CCC(=O)N)Cc1c2c([nH]c1)cccc2)C)C(O)C)CC(C)C)C[S-])CO)C(O)C)C[S-])C.S(CCC(NC(=O)C(NC(=O)C(NC(=O)C(NC(=O)C(NC(=O)C(NC(=O)C(NC(=O)C(NC(=O)C(NC(=O)C(NC(=O)C(NC(=O)C(NC(=O)C(NC(=O)C(NC(=O)C(NC(=O)C(NC(=O)C[NH3+])CCC(=O)N)C)C)C)CC(=O)[O-])CCCNC(=[NH2+])N)CCCNC(=[NH2+])N)C(O)C)C(C)C)CCC(=O)[O-])CCCC[NH3+])C(O)C)Cc1c2c([nH]c1)cccc2)C)CC(C)C)C(=O)NC(C(=O)NC(C(=O)NC(C(=O)NC(C(=O)NC(C(=O)NC(C(=O)NC(C(=O)NC(C(=O)NC(C(=O)N1C(C(=O)NC(C(=O)NC(C(=O)NC(C(=O)NC(C(=O)NC(C(=O)NC(C(=O)NC(C(=O)N2C(C(=O)N3C(C(=O)NC(C(=O)NC(C(=O)NC(C(=O)NC(C(=O)NC(C(=O)NC(C(=O)N4C(C(=O)NC(C(=O)NC(C(=O)NC(C(=O)NC(C(=O)NC(C(=O)NC(C(=O)NC(C(=O)NC(C(=O)NC(C(=O)NC(C(=O)NC(C(=O)NC(C(=O)NC(C(=O)NC(C(=O)NC(C(=O)NC(C(=O)NC(C(=O)NC(C(=O)NC(C(=O)NC(C(=O)NC(C(=O)NC(C(=O)NC(C(=O)NC(C(=O)NC(C(=O)NC(C(=O)NC(C(=O)NC(C(=O)NC(C(=O)NC(C(=O)NC(C(=O)NC(C(=O)NC(C(=O)NC(C(=O)NC(C(=O)NC(C(=O)NC(C(=O)NC(C(=O)NC(C(=O)NC(C(=O)NC(C(=O)NC(C(=O)NC(C(=O)NC(C(=O)NC(C(=O)NC(C(=O)NC(C(=O)NC(C(=O)NCC(=O)NC(C(=O)NC(C(=O)NC(C(=O)NC(C(=O)NC(C(=O)NC(C(=O)NC(C(=O)NC(C(=O)NC(C(=O)NC(C(=O)NC(C(=O)NC(C(=O)NC(C(=O)NC(C(=O)NC(C(=O)NC(C(=O)NC(C(=O)NC(C(=O)NC(C(=O)NC(C(=O)NC(C(=O)NC(C(=O)NC(C(=O)NC(C(=O)NC(C(=O)NC(C(=O)NC(C(=O)NC(C(=O)NC(C(=O)NC(C(=O)NC(C(=O)NC(C(=O)NC(C(=O)N5C(C(=O)NC(C(=O)NCC(=O)NC(C(=O)NC(C(=O)NC(C(=O)NCC(=O)NC(C(=O)NC(C(=O)NC(C(=O)NC(C(=O)NC(C(=O)NC(C(=O)NC(C(=O)NC(C(=O)NC(C(=O)NC(C(=O)NC(C(=O)NC(C(=O)NC(C(=O)NC(C(=O)NC(C(=O)NC(C(=O)NC(C(=O)NC(C(=O)NCC(=O)NC(C(=O)NC(C(=O)NC(C(=O)NC(C(=O)NC(C(=O)N6C(C(=O)NC(C(=O)NC(C(=O)NC(C(=O)NC(C(=O)NC(C(=O)NC(C(=O)NC(C(=O)NC(C(=O)NC(C(=O)NC(C(=O)NC(C(=O)NC(C(=O)NC(C(=O)NC(C(=O)NC(C(=O)NC(C(=O)NCC(=O)NC(C(=O)NC(C(=O)NC(C(=O)NC(C(=O)NC(C(=O)NC(C(=O)NC(C(=O)NC(C(=O)NC(C(=O)NC(C(=O)NC(C(=O)NC(C(=O)NC(C(=O)NC(C(=O)NC(C(=O)NC(C(=O)NC(C(=O)NC(C(=O)NC(C(=O)NC(C(=O)NC(C(=O)NC(C(=O)NC(C(=O)NC(C(=O)NC(C(=O)NC(C(=O)NC(C(=O)NC(C(=O)NC(C(=O)NC(C(=O)NC(C(=O)N7C(C(=O)NC(C(=O)NCC(=O)NC(C(=O)NC(C(=O)NC(C(=O)NC(C(=O)NC(C(=O)NC(C(=O)NC(C(=O)NC(C(=O)NC(C(=O)NC(C(=O)NC(C(=O)NC(C(=O)NC(C(=O)N8C(C(=O)NCC(=O)NC(C(=O)NC(C(=O)NC(C(=O)NC(C(=O)NC(C(=O)NC(C(=O)NC(C(=O)NC(C(=O)NC(C(=O)NC(C(=O)NC(C(=O)NC(C(=O)NC(C(=O)NC(C(=O)NC(C(=O)NC(C(=O)NC(C(=O)NC(C(=O)NC(C(=O)NC(C(=O)N9C(C(=O)NCC(=O)NC(C(=O)NC(C(=O)NC(C(=O)NC(C(=O)NC(C(=O)NC(C(=O)NC(C(=O)NC(C(=O)NC(C(=O)NC(C(=O)NC(C(=O)NCC(=O)NC(C(=O)NC(C(=O)NC(C(=O)NC(C(=O)NCC(=O)NC(C(=O)NC(C(=O)NC(C(=O)NCC(=O)NC(C(=O)NCC(=O)NC(C(=O)NC(C(=O)NC(C(=O)NC(C(=O)NC(C(=O)NC(C(=O)N%10C(C(=O)NC(C(=O)NC(C(=O)NC(C(=O)N%11C(C(=O)NC(C(=O)NC(C(=O)NC(C(=O)NC(C(=O)NC(C(=O)NC(C(=O)NC(C(=O)NCC(=O)NC(C(=O)NC(C(=O)NC(C(=O)NCC(=O)NC(C(=O)NC(C(=O)NC(C(=O)NC(C(=O)N%12C(C(=O)NC(C(=O)NCC(=O)NC(C(=O)NC(C(=O)NC(C(=O)NC(C(=O)NC)CC(=O)N)Cc%13ccc(O)cc%13)CO)CCCNC(=[NH2+])N)CC(=O)[O-])CCC%12)Cc%12ccc(O)cc%12)CC(C)C)Cc%12ccc(O)cc%12)Cc%12ccccc%12)CCC(=O)[O-])C)CO)CC(=O)[O-])C(CC)C)CC(C)C)C)CCC(=O)N)Cc%12ccccc%12)CC(C)C)CCC%11)CCCC[NH3+])CC(=O)N)Cc%11[nH]cnc%11)CCC%10)C(CC)C)C(O)C)CCC(=O)N)CC(C)C)C(CC)C)CC(=O)N)CC(=O)[O-])C(O)C)C(C)C)Cc%10ccc(O)cc%10)C(CC)C)C)Cc%10c%11c([nH]c%10)cccc%11)CCC(=O)N)CC(C)C)CCCNC(=[NH2+])N)C(O)C)CS)CO)CC(C)C)CCCNC(=[NH2+])N)Cc%10ccccc%10)C(CC)C)Cc%10ccc(O)cc%10)CO)CCC9)CCCC[NH3+])C(O)C)CO)Cc9ccc(O)cc9)CCCC[NH3+])CCC(=O)N)CC(C)C)CCCNC(=[NH2+])N)C)CCCC[NH3+])C(C)C)CCC(=O)[O-])CC(=O)[O-])Cc9ccc(O)cc9)C(O)C)CC(C)C)Cc9ccccc9)C)CCSC)Cc9ccc(O)cc9)CCC8)Cc8nc[nH]c8)C(O)C)C(C)C)C)CC(C)C)Cc8ccccc8)CC(=O)N)Cc8c9c([nH]c8)cccc9)CC(=O)N)CCCNC(=[NH2+])N)CC(C)C)C(CC)C)CO)Cc8c9c([nH]c8)cccc9)CCC7)CCC(=O)N)Cc7ccccc7)CC(C)C)CCCNC(=[NH2+])N)C(O)C)Cc7ccccc7)C(CC)C)CC(=O)[O-])Cc7ccccc7)CCC(=O)[O-])Cc7ccccc7)C(C)C)CO)C(CC)C)Cc7ccc(O)cc7)CC(=O)[O-])CC(=O)N)CS)C(O)C)CC(C)C)CC(=O)[O-])C(CC)C)C(O)C)CO)CCCC[NH3+])CC(C)C)C)CCSC)C)CCC(=O)[O-])CC(C)C)CO)CO)C(CC)C)CCC(=O)N)Cc7nc[nH]c7)C(C)C)CCC(=O)[O-])Cc7nc[nH]c7)CC(C)C)CS)CCC(=O)N)CCCNC(=[NH2+])N)Cc7ccccc7)C(C)C)CCCC[NH3+])Cc7c8c([nH]c7)cccc8)CCC6)C(C)C)C(CC)C)C(O)C)CCCC[NH3+])CC(=O)[O-])Cc6ccccc6)Cc6ccccc6)CCCC[NH3+])CCCNC(=[NH2+])N)Cc6c7c([nH]c6)cccc7)Cc6ccccc6)CCC(=O)[O-])C)C)CC(=O)[O-])C)CCCC[NH3+])C(O)C)C(CC)C)CCCNC(=[NH2+])N)Cc6ccccc6)CC(=O)N)CC(=O)[O-])CCC(=O)N)Cc6ccccc6)CCC(=O)N)CC(=O)N)CCC5)Cc5ccccc5)C(CC)C)C)CCCC[NH3+])C(CC)C)CCC(=O)[O-])C)CC(C)C)CCSC)Cc5nc[nH]c5)CO)Cc5ccccc5)C(CC)C)CC(C)C)CO)CC(C)C)CCCC[NH3+])C(O)C)CC(C)C)CC(=O)N)CCCNC(=[NH2+])N)CCCNC(=[NH2+])N)CC(=O)[O-])CCC(=O)N)CO)CCC(=O)N)CCC(=O)[O-])CCC(=O)[O-])Cc5ccc(O)cc5)CCSC)CCCNC(=[NH2+])N)CCC(=O)[O-])CCCC[NH3+])CCC(=O)[O-])CCCC[NH3+])Cc5ccccc5)CC(C)C)CCCNC(=[NH2+])N)C(CC)C)C)CCCNC(=[NH2+])N)CCCC[NH3+])CO)CCCC[NH3+])CCCC[NH3+])CCSC)CC(C)C)CO)CC(=O)[O-])C(CC)C)Cc5ccc(O)cc5)C(CC)C)CCCC[NH3+])Cc5ccccc5)Cc5ccc(O)cc5)CCC(=O)[O-])CC(=O)N)CCC(=O)[O-])CO)CC(C)C)CCC(=O)N)C)CC(C)C)CCCC[NH3+])CCC(=O)N)CC(=O)N)CC(=O)[O-])CC(=O)[O-])Cc5ccc(O)cc5)CCCC[NH3+])CO)CC(C)C)C(CC)C)CC(C)C)CCCNC(=[NH2+])N)CC(C)C)Cc5nc[nH]c5)CCC(=O)N)Cc5ccc(O)cc5)C(O)C)CC(=O)[O-])CCC4)CC(C)C)C(CC)C)CC(=O)[O-])CC(C)C)C(CC)C)Cc4ccc(O)cc4)CCC3)CCC2)CO)CC(=O)N)CCCC[NH3+])CC(C)C)CCC(=O)N)CC(C)C)CCCC[NH3+])CCC1)CC(=O)N)CCC(=O)N)CS)CC(C)C)CCCNC(=[NH2+])N)C(C)C)C(C)C)C)CC(=O)[O-])C.OCCO.[UH+3].[Zn+2].[Zn+2].O.O.O.O.O.O.O.O.O.O.O.O.O.O.O.O.O.O.O.O.O.O.O.O.O.O.O.O.O.O.O.O.O.O.O.O.O.O.O.O.O.O.O.O.O.O.O.O.O.O.O.O.O.O.O.O.O.O.O.O.O.O.O.O.O.O.O.O.O.O.O.O.O.O.O.O.O.O.O.O.O.O.O.O.O.O.O.O.O.O.O.O.O.O.O.O.O.O.O.O.O.O.O.O.O.O.O.O.O.O.O.O.O.O.O.O.O.O.O.O.O.O.O.O.O.O.O.O.O.O.O.O.O.O.O.O.O.O.O.O.O.O

>  <rseq>
1

>  <mseq>
13

>  <S>
-8.1391678

>  <rmsd_refine>
1.5863416

>  <E_conf>
-136.59151

>  <E_place>
-74.083549

>  <E_score1>
-11.628247

>  <E_refine>
-41.310982

>  <E_score2>
-8.1391678

>  <Field_2>
GF03

>  <pseq>
13

>  <%C>
100

>  <a_heavy>
32

>  <h_logP>
3.8701158

>  <Weight>
435.474

>  <E_orig>
2.0031252

>  <PLIF_raw>
[[25,37,48],[5184,3736,1777],[366,261,141],[1,1,2],[0.9,0.6,3.4]]

>  <FP:PLIF>
18 19 20 8

>  <PLIF_ligidx>
[48,48,37,25]

$$$$

  MOE2020           3D

 56 59  0  0  1  0  0  0  0  0999 V2000
   -2.9430   12.9350   19.4070 C   0  0  0  0  0  0  0  0  0  0  0  0
   -3.7210   13.6800   19.2420 H   0  0  0  0  0  0  0  0  0  0  0  0
   -3.3240   11.9620   19.0980 H   0  0  0  0  0  0  0  0  0  0  0  0
   -2.0810   13.1910   18.7910 H   0  0  0  0  0  0  0  0  0  0  0  0
   -2.5740   12.9120   20.8040 O   0  0  0  0  0  0  0  0  0  0  0  0
   -1.6690   12.0260   21.3410 C   0  0  0  0  0  0  0  0  0  0  0  0
   -1.6330   11.9170   22.7280 C   0  0  0  0  0  0  0  0  0  0  0  0
   -2.2760   12.5100   23.3270 H   0  0  0  0  0  0  0  0  0  0  0  0
   -0.7550   11.0140   23.3140 C   0  0  0  0  0  0  0  0  0  0  0  0
   -0.7190   10.9130   24.3600 H   0  0  0  0  0  0  0  0  0  0  0  0
    0.0790   10.2320   22.5290 C   0  0  0  0  0  0  0  0  0  0  0  0
    0.7440    9.5520   22.9950 H   0  0  0  0  0  0  0  0  0  0  0  0
    0.0440   10.3320   21.1340 C   0  0  0  0  0  0  0  0  0  0  0  0
    0.8930    9.4660   20.3250 C   0  0  0  0  0  0  0  0  0  0  0  0
    1.5950    9.9550   19.2220 C   0  0  0  0  0  0  0  0  0  0  0  0
    1.5240   10.9800   18.9580 H   0  0  0  0  0  0  0  0  0  0  0  0
    2.3950    9.1080   18.4670 C   0  0  0  0  0  0  0  0  0  0  0  0
    2.9190    9.5020   17.6410 H   0  0  0  0  0  0  0  0  0  0  0  0
    2.5100    7.7580   18.7870 C   0  0  0  0  0  0  0  0  0  0  0  0
    3.4320    6.8840   17.9570 C   0  0  0  0  0  0  0  0  0  0  0  0
    3.5240    7.3030   16.9660 H   0  0  0  0  0  0  0  0  0  0  0  0
    3.0110    5.9050   17.7950 H   0  0  0  0  0  0  0  0  0  0  0  0
    4.7670    6.7690   18.5170 N   0  0  0  0  0  0  0  0  0  0  0  0
    5.4610    7.4810   18.2540 H   0  0  0  0  0  0  0  0  0  0  0  0
    5.1870    5.7270   19.3040 C   0  0  0  0  0  0  0  0  0  0  0  0
    4.4400    4.8340   19.6920 O   0  0  0  0  0  0  0  0  0  0  0  0
    6.5230    5.6810   19.6040 N   0  0  0  0  0  0  0  0  0  0  0  0
    6.7630    4.9780   20.3190 H   0  0  0  0  0  0  0  0  0  0  0  0
    7.5000    5.7040   18.5190 C   0  0  2  0  0  0  0  0  0  0  0  0
    7.9340    7.1200   18.0930 C   0  0  0  0  0  0  0  0  0  0  0  0
    8.9870    7.2730   18.3250 H   0  0  0  0  0  0  0  0  0  0  0  0
    7.3480    7.8800   18.6010 H   0  0  0  0  0  0  0  0  0  0  0  0
    7.6840    7.2290   16.5820 C   0  0  0  0  0  0  0  0  0  0  0  0
    7.0130    8.0620   16.3800 H   0  0  0  0  0  0  0  0  0  0  0  0
    8.6280    7.3630   16.0640 H   0  0  0  0  0  0  0  0  0  0  0  0
    7.0340    5.9300   16.1790 C   0  0  0  0  0  0  0  0  0  0  0  0
    6.5050    5.5370   14.9500 C   0  0  0  0  0  0  0  0  0  0  0  0
    6.5660    6.1560   14.0990 H   0  0  0  0  0  0  0  0  0  0  0  0
    5.8570    4.3110   14.8390 C   0  0  0  0  0  0  0  0  0  0  0  0
    5.4490    4.0080   13.9090 H   0  0  0  0  0  0  0  0  0  0  0  0
    5.7280    3.4920   15.9560 C   0  0  0  0  0  0  0  0  0  0  0  0
    5.2090    2.5780   15.8930 H   0  0  0  0  0  0  0  0  0  0  0  0
    6.2700    3.8820   17.1720 C   0  0  0  0  0  0  0  0  0  0  0  0
    6.1450    3.2840   18.0350 H   0  0  0  0  0  0  0  0  0  0  0  0
    6.9360    5.0930   17.2660 C   0  0  0  0  0  0  0  0  0  0  0  0
    1.7820    7.2470   19.8750 C   0  0  0  0  0  0  0  0  0  0  0  0
    1.7490    5.8250   20.1830 C   0  0  0  0  0  0  0  0  0  0  0  0
    2.1020    5.3960   21.4190 N   0  0  0  0  0  0  0  0  0  0  0  0
    2.1690    4.3820   21.5980 H   0  0  0  0  0  0  0  0  0  0  0  0
    2.5430    6.0480   22.0850 H   0  0  0  0  0  0  0  0  0  0  0  0
    1.3910    4.9780   19.3820 O   0  0  0  0  0  0  0  0  0  0  0  0
    1.0010    8.1130   20.6410 C   0  0  0  0  0  0  0  0  0  0  0  0
    0.4450    7.7260   21.4540 H   0  0  0  0  0  0  0  0  0  0  0  0
   -0.8340   11.2450   20.5400 C   0  0  0  0  0  0  0  0  0  0  0  0
   -0.8700   11.3280   19.4840 H   0  0  0  0  0  0  0  0  0  0  0  0
    8.3720    5.1390   18.8210 H   0  0  0  0  0  0  0  0  0  0  0  0
  1  2  1  0  0  0  0
  1  3  1  0  0  0  0
  1  4  1  0  0  0  0
  1  5  1  0  0  0  0
  5  6  1  0  0  0  0
  6  7  1  0  0  0  0
  6 54  2  0  0  0  0
  7  8  1  0  0  0  0
  7  9  2  0  0  0  0
  9 10  1  0  0  0  0
  9 11  1  0  0  0  0
 11 12  1  0  0  0  0
 11 13  2  0  0  0  0
 13 14  1  0  0  0  0
 13 54  1  0  0  0  0
 14 15  2  0  0  0  0
 14 52  1  0  0  0  0
 15 16  1  0  0  0  0
 15 17  1  0  0  0  0
 17 18  1  0  0  0  0
 17 19  2  0  0  0  0
 19 20  1  0  0  0  0
 19 46  1  0  0  0  0
 20 21  1  0  0  0  0
 20 22  1  0  0  0  0
 20 23  1  0  0  0  0
 23 24  1  0  0  0  0
 23 25  1  0  0  0  0
 25 26  2  0  0  0  0
 25 27  1  0  0  0  0
 27 28  1  0  0  0  0
 27 29  1  0  0  0  0
 29 30  1  0  0  0  0
 29 45  1  0  0  0  0
 29 56  1  0  0  0  0
 30 31  1  0  0  0  0
 30 32  1  0  0  0  0
 30 33  1  0  0  0  0
 33 34  1  0  0  0  0
 33 35  1  0  0  0  0
 33 36  1  0  0  0  0
 36 37  1  0  0  0  0
 36 45  2  0  0  0  0
 37 38  1  0  0  0  0
 37 39  2  0  0  0  0
 39 40  1  0  0  0  0
 39 41  1  0  0  0  0
 41 42  1  0  0  0  0
 41 43  2  0  0  0  0
 43 44  1  0  0  0  0
 43 45  1  0  0  0  0
 46 47  1  0  0  0  0
 46 52  2  0  0  0  0
 47 48  1  0  0  0  0
 47 51  2  0  0  0  0
 48 49  1  0  0  0  0
 48 50  1  0  0  0  0
 52 53  1  0  0  0  0
 54 55  1  0  0  0  0
M  END
>  <receptor>
S(=O)(=O)([O-])[O-].S(CCC(NC(=O)C(NC(=O)C(NC(=O)CNC(=O)C(NC(=O)C1N(C(=O)C(NC(=O)C(NC(=O)C(NC(=O)C(NC(=O)C(NC(=O)C(NC(=O)C(NC(=O)C(NC(=O)C(NC(=O)C(NC(=O)C(NC(=O)C(NC(=O)C(NC(=O)C(NC(=O)C(NC(=O)C(NC(=O)C(NC(=O)C(NC(=O)C(NC(=O)CNC(=O)C(NC(=O)C(NC(=O)C(NC(=O)C(NC(=O)C(NC(=O)C(NC(=O)C(NC(=O)C(NC(=O)C(NC(=O)C(NC(=O)C(NC(=O)C(NC(=O)C(NC(=O)C)CCCC[NH3+])C(C)C)C(O)C)CCC(=O)N)CCC(=O)[O-])CCC(=O)N)Cc2ccccc2)CCC(=O)[O-])CC(C)C)Cc2ccc(O)cc2)CS)CCC(=O)[O-])CCSC)CO)C(O)C)Cc2ccccc2)CCC(=O)N)CC(C)C)C[S-])CCCC[NH3+])C(CC)C)C[S-])C)CCC(=O)[O-])CC(=O)N)CC(=O)[O-])CCCC[NH3+])CC(=O)[O-])C(C)C)CCCC[NH3+])C(CC)C)CCC(=O)[O-])CCC1)C[S-])Cc1nc[n-]c1)CC(C)C)C(=O)NC(C(=O)NC(C(=O)NC(C(=O)NC(C(=O)NC(C(=O)NC(C(=O)NC(C(=O)NC(C(=O)NC(C(=O)NC(C(=O)NC(C(=O)NC(C(=O)NCC(=O)NC(C(=O)NCC(=O)NC(C(=O)N1C(C(=O)NC(C(=O)NC(C(=O)NC(C(=O)NC(C(=O)NC(C(=O)NC(C(=O)NC(C(=O)NCC(=O)NC(C(=O)NC(C(=O)N2C(C(=O)NC(C(=O)NC(C(=O)NC(C(=O)NC(C(=O)N3C(C(=O)NC(C(=O)NC(C(=O)[O-])CC(=O)[O-])Cc4ccccc4)CCC3)CC(=O)[O-])C(C)C)C(CC)C)C(CC)C)CCC2)CCC(=O)[O-])C(O)C)CCCC[NH3+])C(CC)C)CCC(=O)[O-])CS)CCCNC(=[NH2+])N)C[S-])Cc2ccccc2)CCC1)C[S-])CCC(=O)N)CC(=O)[O-])CO)CCC(=O)[O-])CCC(=O)N)Cc1c2c([nH]c1)cccc2)C)C(O)C)CC(C)C)C[S-])CO)C(O)C)C[S-])C.S(CCC(NC(=O)C(NC(=O)C(NC(=O)C(NC(=O)C(NC(=O)C(NC(=O)C(NC(=O)C(NC(=O)C(NC(=O)C(NC(=O)C(NC(=O)C(NC(=O)C(NC(=O)C(NC(=O)C(NC(=O)C(NC(=O)C[NH3+])CCC(=O)N)C)C)C)CC(=O)[O-])CCCNC(=[NH2+])N)CCCNC(=[NH2+])N)C(O)C)C(C)C)CCC(=O)[O-])CCCC[NH3+])C(O)C)Cc1c2c([nH]c1)cccc2)C)CC(C)C)C(=O)NC(C(=O)NC(C(=O)NC(C(=O)NC(C(=O)NC(C(=O)NC(C(=O)NC(C(=O)NC(C(=O)NC(C(=O)N1C(C(=O)NC(C(=O)NC(C(=O)NC(C(=O)NC(C(=O)NC(C(=O)NC(C(=O)NC(C(=O)N2C(C(=O)N3C(C(=O)NC(C(=O)NC(C(=O)NC(C(=O)NC(C(=O)NC(C(=O)NC(C(=O)N4C(C(=O)NC(C(=O)NC(C(=O)NC(C(=O)NC(C(=O)NC(C(=O)NC(C(=O)NC(C(=O)NC(C(=O)NC(C(=O)NC(C(=O)NC(C(=O)NC(C(=O)NC(C(=O)NC(C(=O)NC(C(=O)NC(C(=O)NC(C(=O)NC(C(=O)NC(C(=O)NC(C(=O)NC(C(=O)NC(C(=O)NC(C(=O)NC(C(=O)NC(C(=O)NC(C(=O)NC(C(=O)NC(C(=O)NC(C(=O)NC(C(=O)NC(C(=O)NC(C(=O)NC(C(=O)NC(C(=O)NC(C(=O)NC(C(=O)NC(C(=O)NC(C(=O)NC(C(=O)NC(C(=O)NC(C(=O)NC(C(=O)NC(C(=O)NC(C(=O)NC(C(=O)NC(C(=O)NC(C(=O)NC(C(=O)NCC(=O)NC(C(=O)NC(C(=O)NC(C(=O)NC(C(=O)NC(C(=O)NC(C(=O)NC(C(=O)NC(C(=O)NC(C(=O)NC(C(=O)NC(C(=O)NC(C(=O)NC(C(=O)NC(C(=O)NC(C(=O)NC(C(=O)NC(C(=O)NC(C(=O)NC(C(=O)NC(C(=O)NC(C(=O)NC(C(=O)NC(C(=O)NC(C(=O)NC(C(=O)NC(C(=O)NC(C(=O)NC(C(=O)NC(C(=O)NC(C(=O)NC(C(=O)NC(C(=O)NC(C(=O)N5C(C(=O)NC(C(=O)NCC(=O)NC(C(=O)NC(C(=O)NC(C(=O)NCC(=O)NC(C(=O)NC(C(=O)NC(C(=O)NC(C(=O)NC(C(=O)NC(C(=O)NC(C(=O)NC(C(=O)NC(C(=O)NC(C(=O)NC(C(=O)NC(C(=O)NC(C(=O)NC(C(=O)NC(C(=O)NC(C(=O)NC(C(=O)NC(C(=O)NCC(=O)NC(C(=O)NC(C(=O)NC(C(=O)NC(C(=O)NC(C(=O)N6C(C(=O)NC(C(=O)NC(C(=O)NC(C(=O)NC(C(=O)NC(C(=O)NC(C(=O)NC(C(=O)NC(C(=O)NC(C(=O)NC(C(=O)NC(C(=O)NC(C(=O)NC(C(=O)NC(C(=O)NC(C(=O)NC(C(=O)NCC(=O)NC(C(=O)NC(C(=O)NC(C(=O)NC(C(=O)NC(C(=O)NC(C(=O)NC(C(=O)NC(C(=O)NC(C(=O)NC(C(=O)NC(C(=O)NC(C(=O)NC(C(=O)NC(C(=O)NC(C(=O)NC(C(=O)NC(C(=O)NC(C(=O)NC(C(=O)NC(C(=O)NC(C(=O)NC(C(=O)NC(C(=O)NC(C(=O)NC(C(=O)NC(C(=O)NC(C(=O)NC(C(=O)NC(C(=O)NC(C(=O)NC(C(=O)N7C(C(=O)NC(C(=O)NCC(=O)NC(C(=O)NC(C(=O)NC(C(=O)NC(C(=O)NC(C(=O)NC(C(=O)NC(C(=O)NC(C(=O)NC(C(=O)NC(C(=O)NC(C(=O)NC(C(=O)NC(C(=O)N8C(C(=O)NCC(=O)NC(C(=O)NC(C(=O)NC(C(=O)NC(C(=O)NC(C(=O)NC(C(=O)NC(C(=O)NC(C(=O)NC(C(=O)NC(C(=O)NC(C(=O)NC(C(=O)NC(C(=O)NC(C(=O)NC(C(=O)NC(C(=O)NC(C(=O)NC(C(=O)NC(C(=O)NC(C(=O)N9C(C(=O)NCC(=O)NC(C(=O)NC(C(=O)NC(C(=O)NC(C(=O)NC(C(=O)NC(C(=O)NC(C(=O)NC(C(=O)NC(C(=O)NC(C(=O)NC(C(=O)NCC(=O)NC(C(=O)NC(C(=O)NC(C(=O)NC(C(=O)NCC(=O)NC(C(=O)NC(C(=O)NC(C(=O)NCC(=O)NC(C(=O)NCC(=O)NC(C(=O)NC(C(=O)NC(C(=O)NC(C(=O)NC(C(=O)NC(C(=O)N%10C(C(=O)NC(C(=O)NC(C(=O)NC(C(=O)N%11C(C(=O)NC(C(=O)NC(C(=O)NC(C(=O)NC(C(=O)NC(C(=O)NC(C(=O)NC(C(=O)NCC(=O)NC(C(=O)NC(C(=O)NC(C(=O)NCC(=O)NC(C(=O)NC(C(=O)NC(C(=O)NC(C(=O)N%12C(C(=O)NC(C(=O)NCC(=O)NC(C(=O)NC(C(=O)NC(C(=O)NC(C(=O)NC)CC(=O)N)Cc%13ccc(O)cc%13)CO)CCCNC(=[NH2+])N)CC(=O)[O-])CCC%12)Cc%12ccc(O)cc%12)CC(C)C)Cc%12ccc(O)cc%12)Cc%12ccccc%12)CCC(=O)[O-])C)CO)CC(=O)[O-])C(CC)C)CC(C)C)C)CCC(=O)N)Cc%12ccccc%12)CC(C)C)CCC%11)CCCC[NH3+])CC(=O)N)Cc%11[nH]cnc%11)CCC%10)C(CC)C)C(O)C)CCC(=O)N)CC(C)C)C(CC)C)CC(=O)N)CC(=O)[O-])C(O)C)C(C)C)Cc%10ccc(O)cc%10)C(CC)C)C)Cc%10c%11c([nH]c%10)cccc%11)CCC(=O)N)CC(C)C)CCCNC(=[NH2+])N)C(O)C)CS)CO)CC(C)C)CCCNC(=[NH2+])N)Cc%10ccccc%10)C(CC)C)Cc%10ccc(O)cc%10)CO)CCC9)CCCC[NH3+])C(O)C)CO)Cc9ccc(O)cc9)CCCC[NH3+])CCC(=O)N)CC(C)C)CCCNC(=[NH2+])N)C)CCCC[NH3+])C(C)C)CCC(=O)[O-])CC(=O)[O-])Cc9ccc(O)cc9)C(O)C)CC(C)C)Cc9ccccc9)C)CCSC)Cc9ccc(O)cc9)CCC8)Cc8nc[nH]c8)C(O)C)C(C)C)C)CC(C)C)Cc8ccccc8)CC(=O)N)Cc8c9c([nH]c8)cccc9)CC(=O)N)CCCNC(=[NH2+])N)CC(C)C)C(CC)C)CO)Cc8c9c([nH]c8)cccc9)CCC7)CCC(=O)N)Cc7ccccc7)CC(C)C)CCCNC(=[NH2+])N)C(O)C)Cc7ccccc7)C(CC)C)CC(=O)[O-])Cc7ccccc7)CCC(=O)[O-])Cc7ccccc7)C(C)C)CO)C(CC)C)Cc7ccc(O)cc7)CC(=O)[O-])CC(=O)N)CS)C(O)C)CC(C)C)CC(=O)[O-])C(CC)C)C(O)C)CO)CCCC[NH3+])CC(C)C)C)CCSC)C)CCC(=O)[O-])CC(C)C)CO)CO)C(CC)C)CCC(=O)N)Cc7nc[nH]c7)C(C)C)CCC(=O)[O-])Cc7nc[nH]c7)CC(C)C)CS)CCC(=O)N)CCCNC(=[NH2+])N)Cc7ccccc7)C(C)C)CCCC[NH3+])Cc7c8c([nH]c7)cccc8)CCC6)C(C)C)C(CC)C)C(O)C)CCCC[NH3+])CC(=O)[O-])Cc6ccccc6)Cc6ccccc6)CCCC[NH3+])CCCNC(=[NH2+])N)Cc6c7c([nH]c6)cccc7)Cc6ccccc6)CCC(=O)[O-])C)C)CC(=O)[O-])C)CCCC[NH3+])C(O)C)C(CC)C)CCCNC(=[NH2+])N)Cc6ccccc6)CC(=O)N)CC(=O)[O-])CCC(=O)N)Cc6ccccc6)CCC(=O)N)CC(=O)N)CCC5)Cc5ccccc5)C(CC)C)C)CCCC[NH3+])C(CC)C)CCC(=O)[O-])C)CC(C)C)CCSC)Cc5nc[nH]c5)CO)Cc5ccccc5)C(CC)C)CC(C)C)CO)CC(C)C)CCCC[NH3+])C(O)C)CC(C)C)CC(=O)N)CCCNC(=[NH2+])N)CCCNC(=[NH2+])N)CC(=O)[O-])CCC(=O)N)CO)CCC(=O)N)CCC(=O)[O-])CCC(=O)[O-])Cc5ccc(O)cc5)CCSC)CCCNC(=[NH2+])N)CCC(=O)[O-])CCCC[NH3+])CCC(=O)[O-])CCCC[NH3+])Cc5ccccc5)CC(C)C)CCCNC(=[NH2+])N)C(CC)C)C)CCCNC(=[NH2+])N)CCCC[NH3+])CO)CCCC[NH3+])CCCC[NH3+])CCSC)CC(C)C)CO)CC(=O)[O-])C(CC)C)Cc5ccc(O)cc5)C(CC)C)CCCC[NH3+])Cc5ccccc5)Cc5ccc(O)cc5)CCC(=O)[O-])CC(=O)N)CCC(=O)[O-])CO)CC(C)C)CCC(=O)N)C)CC(C)C)CCCC[NH3+])CCC(=O)N)CC(=O)N)CC(=O)[O-])CC(=O)[O-])Cc5ccc(O)cc5)CCCC[NH3+])CO)CC(C)C)C(CC)C)CC(C)C)CCCNC(=[NH2+])N)CC(C)C)Cc5nc[nH]c5)CCC(=O)N)Cc5ccc(O)cc5)C(O)C)CC(=O)[O-])CCC4)CC(C)C)C(CC)C)CC(=O)[O-])CC(C)C)C(CC)C)Cc4ccc(O)cc4)CCC3)CCC2)CO)CC(=O)N)CCCC[NH3+])CC(C)C)CCC(=O)N)CC(C)C)CCCC[NH3+])CCC1)CC(=O)N)CCC(=O)N)CS)CC(C)C)CCCNC(=[NH2+])N)C(C)C)C(C)C)C)CC(=O)[O-])C.OCCO.[UH+3].[Zn+2].[Zn+2].O.O.O.O.O.O.O.O.O.O.O.O.O.O.O.O.O.O.O.O.O.O.O.O.O.O.O.O.O.O.O.O.O.O.O.O.O.O.O.O.O.O.O.O.O.O.O.O.O.O.O.O.O.O.O.O.O.O.O.O.O.O.O.O.O.O.O.O.O.O.O.O.O.O.O.O.O.O.O.O.O.O.O.O.O.O.O.O.O.O.O.O.O.O.O.O.O.O.O.O.O.O.O.O.O.O.O.O.O.O.O.O.O.O.O.O.O.O.O.O.O.O.O.O.O.O.O.O.O.O.O.O.O.O.O.O.O.O.O.O.O.O

>  <rseq>
1

>  <mseq>
14

>  <S>
-7.9907365

>  <rmsd_refine>
1.231199

>  <E_conf>
-130.26028

>  <E_place>
-99.350945

>  <E_score1>
-12.748675

>  <E_refine>
-35.300175

>  <E_score2>
-7.9907365

>  <Field_2>
GF04

>  <pseq>
14

>  <%C>
100

>  <a_heavy>
31

>  <h_logP>
3.1480803

>  <Weight>
415.49298

>  <E_orig>
2.6222253

>  <PLIF_raw>
[[48,51,30,30,30,30,30,30,36,45,43,41,39,37],[5177,6345,5135,5139,5143,5141,5137,5134,3036,3036,3036,3036,3036,3036],[366,220688,363,363,363,363,363,363,219,219,219,219,219,219],[3,6,10,10,10,10,10,10,10,10,10,10,10,10],[3.4,1.6,0.5,0.5,0.5,0.5,0.5,0.5,0.7,0.7,0.7,0.7,0.7,0.7]]

>  <FP:PLIF>
21 22 17 23 3 5

>  <PLIF_ligidx>
[[36,45,43,41,39,37],[30,30,30,30,30,30],48,48,51,51]

$$$$

  MOE2020           3D

 56 59  0  0  1  0  0  0  0  0999 V2000
   -3.5030   10.2450   14.6970 C   0  0  0  0  0  0  0  0  0  0  0  0
   -4.1320   10.1130   13.8170 H   0  0  0  0  0  0  0  0  0  0  0  0
   -3.1430    9.2700   15.0170 H   0  0  0  0  0  0  0  0  0  0  0  0
   -2.6500   10.8680   14.4310 H   0  0  0  0  0  0  0  0  0  0  0  0
   -4.2610   10.8660   15.7540 O   0  0  0  0  0  0  0  0  0  0  0  0
   -3.6840   11.2600   16.9370 C   0  0  0  0  0  0  0  0  0  0  0  0
   -4.2950   12.2830   17.6550 C   0  0  0  0  0  0  0  0  0  0  0  0
   -5.1870   12.7280   17.2960 H   0  0  0  0  0  0  0  0  0  0  0  0
   -3.7040   12.7330   18.8300 C   0  0  0  0  0  0  0  0  0  0  0  0
   -4.1480   13.5280   19.3720 H   0  0  0  0  0  0  0  0  0  0  0  0
   -2.5230   12.1560   19.2890 C   0  0  0  0  0  0  0  0  0  0  0  0
   -2.0810   12.5280   20.1760 H   0  0  0  0  0  0  0  0  0  0  0  0
   -1.9280   11.0910   18.5950 C   0  0  0  0  0  0  0  0  0  0  0  0
   -0.7550   10.3840   19.1160 C   0  0  0  0  0  0  0  0  0  0  0  0
    0.1650    9.7860   18.2490 C   0  0  0  0  0  0  0  0  0  0  0  0
    0.1040    9.9640   17.2100 H   0  0  0  0  0  0  0  0  0  0  0  0
    1.1300    8.9130   18.7300 C   0  0  0  0  0  0  0  0  0  0  0  0
    1.7770    8.4330   18.0430 H   0  0  0  0  0  0  0  0  0  0  0  0
    1.2230    8.6430   20.0920 C   0  0  0  0  0  0  0  0  0  0  0  0
    2.1950    7.5840   20.5740 C   0  0  0  0  0  0  0  0  0  0  0  0
    1.9270    7.2810   21.5730 H   0  0  0  0  0  0  0  0  0  0  0  0
    3.1550    8.0480   20.6840 H   0  0  0  0  0  0  0  0  0  0  0  0
    2.3070    6.3520   19.7840 N   0  0  0  0  0  0  0  0  0  0  0  0
    1.8990    5.5210   20.2380 H   0  0  0  0  0  0  0  0  0  0  0  0
    3.4100    6.1300   19.0010 C   0  0  0  0  0  0  0  0  0  0  0  0
    3.9190    7.0090   18.3000 O   0  0  0  0  0  0  0  0  0  0  0  0
    3.9070    4.8530   19.0910 N   0  0  0  0  0  0  0  0  0  0  0  0
    3.4510    4.2260   19.7680 H   0  0  0  0  0  0  0  0  0  0  0  0
    5.2680    4.4630   18.6800 C   0  0  2  0  0  0  0  0  0  0  0  0
    6.3990    5.3290   19.2930 C   0  0  0  0  0  0  0  0  0  0  0  0
    6.8990    4.8090   20.1050 H   0  0  0  0  0  0  0  0  0  0  0  0
    6.0010    6.2620   19.6780 H   0  0  0  0  0  0  0  0  0  0  0  0
    7.3950    5.6460   18.1670 C   0  0  0  0  0  0  0  0  0  0  0  0
    8.3160    5.0810   18.3100 H   0  0  0  0  0  0  0  0  0  0  0  0
    7.6040    6.7160   18.1240 H   0  0  0  0  0  0  0  0  0  0  0  0
    6.7060    5.1800   16.9160 C   0  0  0  0  0  0  0  0  0  0  0  0
    7.1380    5.3380   15.6070 C   0  0  0  0  0  0  0  0  0  0  0  0
    8.0370    5.8490   15.4000 H   0  0  0  0  0  0  0  0  0  0  0  0
    6.3730    4.8190   14.5670 C   0  0  0  0  0  0  0  0  0  0  0  0
    6.6940    4.9360   13.5640 H   0  0  0  0  0  0  0  0  0  0  0  0
    5.1870    4.1450   14.8460 C   0  0  0  0  0  0  0  0  0  0  0  0
    4.6100    3.7550   14.0500 H   0  0  0  0  0  0  0  0  0  0  0  0
    4.7610    3.9860   16.1640 C   0  0  0  0  0  0  0  0  0  0  0  0
    3.8670    3.4610   16.3780 H   0  0  0  0  0  0  0  0  0  0  0  0
    5.5250    4.5210   17.1950 C   0  0  0  0  0  0  0  0  0  0  0  0
    0.4200    9.3690   20.9950 C   0  0  0  0  0  0  0  0  0  0  0  0
    0.5870    9.2830   22.4480 C   0  0  0  0  0  0  0  0  0  0  0  0
   -0.5250    9.2370   23.2290 N   0  0  0  0  0  0  0  0  0  0  0  0
   -0.4430    9.1400   24.2510 H   0  0  0  0  0  0  0  0  0  0  0  0
   -1.4640    9.2470   22.8040 H   0  0  0  0  0  0  0  0  0  0  0  0
    1.6700    9.2760   23.0230 O   0  0  0  0  0  0  0  0  0  0  0  0
   -0.5740   10.2140   20.4890 C   0  0  0  0  0  0  0  0  0  0  0  0
   -1.2130   10.7210   21.1630 H   0  0  0  0  0  0  0  0  0  0  0  0
   -2.5190   10.6560   17.4040 C   0  0  0  0  0  0  0  0  0  0  0  0
   -2.0920    9.8520   16.8670 H   0  0  0  0  0  0  0  0  0  0  0  0
    5.4250    3.4380   18.9870 H   0  0  0  0  0  0  0  0  0  0  0  0
  1  2  1  0  0  0  0
  1  3  1  0  0  0  0
  1  4  1  0  0  0  0
  1  5  1  0  0  0  0
  5  6  1  0  0  0  0
  6  7  1  0  0  0  0
  6 54  2  0  0  0  0
  7  8  1  0  0  0  0
  7  9  2  0  0  0  0
  9 10  1  0  0  0  0
  9 11  1  0  0  0  0
 11 12  1  0  0  0  0
 11 13  2  0  0  0  0
 13 14  1  0  0  0  0
 13 54  1  0  0  0  0
 14 15  2  0  0  0  0
 14 52  1  0  0  0  0
 15 16  1  0  0  0  0
 15 17  1  0  0  0  0
 17 18  1  0  0  0  0
 17 19  2  0  0  0  0
 19 20  1  0  0  0  0
 19 46  1  0  0  0  0
 20 21  1  0  0  0  0
 20 22  1  0  0  0  0
 20 23  1  0  0  0  0
 23 24  1  0  0  0  0
 23 25  1  0  0  0  0
 25 26  2  0  0  0  0
 25 27  1  0  0  0  0
 27 28  1  0  0  0  0
 27 29  1  0  0  0  0
 29 30  1  0  0  0  0
 29 45  1  0  0  0  0
 29 56  1  0  0  0  0
 30 31  1  0  0  0  0
 30 32  1  0  0  0  0
 30 33  1  0  0  0  0
 33 34  1  0  0  0  0
 33 35  1  0  0  0  0
 33 36  1  0  0  0  0
 36 37  1  0  0  0  0
 36 45  2  0  0  0  0
 37 38  1  0  0  0  0
 37 39  2  0  0  0  0
 39 40  1  0  0  0  0
 39 41  1  0  0  0  0
 41 42  1  0  0  0  0
 41 43  2  0  0  0  0
 43 44  1  0  0  0  0
 43 45  1  0  0  0  0
 46 47  1  0  0  0  0
 46 52  2  0  0  0  0
 47 48  1  0  0  0  0
 47 51  2  0  0  0  0
 48 49  1  0  0  0  0
 48 50  1  0  0  0  0
 52 53  1  0  0  0  0
 54 55  1  0  0  0  0
M  END
>  <receptor>
S(=O)(=O)([O-])[O-].S(CCC(NC(=O)C(NC(=O)C(NC(=O)CNC(=O)C(NC(=O)C1N(C(=O)C(NC(=O)C(NC(=O)C(NC(=O)C(NC(=O)C(NC(=O)C(NC(=O)C(NC(=O)C(NC(=O)C(NC(=O)C(NC(=O)C(NC(=O)C(NC(=O)C(NC(=O)C(NC(=O)C(NC(=O)C(NC(=O)C(NC(=O)C(NC(=O)C(NC(=O)CNC(=O)C(NC(=O)C(NC(=O)C(NC(=O)C(NC(=O)C(NC(=O)C(NC(=O)C(NC(=O)C(NC(=O)C(NC(=O)C(NC(=O)C(NC(=O)C(NC(=O)C(NC(=O)C)CCCC[NH3+])C(C)C)C(O)C)CCC(=O)N)CCC(=O)[O-])CCC(=O)N)Cc2ccccc2)CCC(=O)[O-])CC(C)C)Cc2ccc(O)cc2)CS)CCC(=O)[O-])CCSC)CO)C(O)C)Cc2ccccc2)CCC(=O)N)CC(C)C)C[S-])CCCC[NH3+])C(CC)C)C[S-])C)CCC(=O)[O-])CC(=O)N)CC(=O)[O-])CCCC[NH3+])CC(=O)[O-])C(C)C)CCCC[NH3+])C(CC)C)CCC(=O)[O-])CCC1)C[S-])Cc1nc[n-]c1)CC(C)C)C(=O)NC(C(=O)NC(C(=O)NC(C(=O)NC(C(=O)NC(C(=O)NC(C(=O)NC(C(=O)NC(C(=O)NC(C(=O)NC(C(=O)NC(C(=O)NC(C(=O)NCC(=O)NC(C(=O)NCC(=O)NC(C(=O)N1C(C(=O)NC(C(=O)NC(C(=O)NC(C(=O)NC(C(=O)NC(C(=O)NC(C(=O)NC(C(=O)NCC(=O)NC(C(=O)NC(C(=O)N2C(C(=O)NC(C(=O)NC(C(=O)NC(C(=O)NC(C(=O)N3C(C(=O)NC(C(=O)NC(C(=O)[O-])CC(=O)[O-])Cc4ccccc4)CCC3)CC(=O)[O-])C(C)C)C(CC)C)C(CC)C)CCC2)CCC(=O)[O-])C(O)C)CCCC[NH3+])C(CC)C)CCC(=O)[O-])CS)CCCNC(=[NH2+])N)C[S-])Cc2ccccc2)CCC1)C[S-])CCC(=O)N)CC(=O)[O-])CO)CCC(=O)[O-])CCC(=O)N)Cc1c2c([nH]c1)cccc2)C)C(O)C)CC(C)C)C[S-])CO)C(O)C)C[S-])C.S(CCC(NC(=O)C(NC(=O)C(NC(=O)C(NC(=O)C(NC(=O)C(NC(=O)C(NC(=O)C(NC(=O)C(NC(=O)C(NC(=O)C(NC(=O)C(NC(=O)C(NC(=O)C(NC(=O)C(NC(=O)C(NC(=O)C[NH3+])CCC(=O)N)C)C)C)CC(=O)[O-])CCCNC(=[NH2+])N)CCCNC(=[NH2+])N)C(O)C)C(C)C)CCC(=O)[O-])CCCC[NH3+])C(O)C)Cc1c2c([nH]c1)cccc2)C)CC(C)C)C(=O)NC(C(=O)NC(C(=O)NC(C(=O)NC(C(=O)NC(C(=O)NC(C(=O)NC(C(=O)NC(C(=O)NC(C(=O)N1C(C(=O)NC(C(=O)NC(C(=O)NC(C(=O)NC(C(=O)NC(C(=O)NC(C(=O)NC(C(=O)N2C(C(=O)N3C(C(=O)NC(C(=O)NC(C(=O)NC(C(=O)NC(C(=O)NC(C(=O)NC(C(=O)N4C(C(=O)NC(C(=O)NC(C(=O)NC(C(=O)NC(C(=O)NC(C(=O)NC(C(=O)NC(C(=O)NC(C(=O)NC(C(=O)NC(C(=O)NC(C(=O)NC(C(=O)NC(C(=O)NC(C(=O)NC(C(=O)NC(C(=O)NC(C(=O)NC(C(=O)NC(C(=O)NC(C(=O)NC(C(=O)NC(C(=O)NC(C(=O)NC(C(=O)NC(C(=O)NC(C(=O)NC(C(=O)NC(C(=O)NC(C(=O)NC(C(=O)NC(C(=O)NC(C(=O)NC(C(=O)NC(C(=O)NC(C(=O)NC(C(=O)NC(C(=O)NC(C(=O)NC(C(=O)NC(C(=O)NC(C(=O)NC(C(=O)NC(C(=O)NC(C(=O)NC(C(=O)NC(C(=O)NC(C(=O)NC(C(=O)NCC(=O)NC(C(=O)NC(C(=O)NC(C(=O)NC(C(=O)NC(C(=O)NC(C(=O)NC(C(=O)NC(C(=O)NC(C(=O)NC(C(=O)NC(C(=O)NC(C(=O)NC(C(=O)NC(C(=O)NC(C(=O)NC(C(=O)NC(C(=O)NC(C(=O)NC(C(=O)NC(C(=O)NC(C(=O)NC(C(=O)NC(C(=O)NC(C(=O)NC(C(=O)NC(C(=O)NC(C(=O)NC(C(=O)NC(C(=O)NC(C(=O)NC(C(=O)NC(C(=O)NC(C(=O)N5C(C(=O)NC(C(=O)NCC(=O)NC(C(=O)NC(C(=O)NC(C(=O)NCC(=O)NC(C(=O)NC(C(=O)NC(C(=O)NC(C(=O)NC(C(=O)NC(C(=O)NC(C(=O)NC(C(=O)NC(C(=O)NC(C(=O)NC(C(=O)NC(C(=O)NC(C(=O)NC(C(=O)NC(C(=O)NC(C(=O)NC(C(=O)NC(C(=O)NCC(=O)NC(C(=O)NC(C(=O)NC(C(=O)NC(C(=O)NC(C(=O)N6C(C(=O)NC(C(=O)NC(C(=O)NC(C(=O)NC(C(=O)NC(C(=O)NC(C(=O)NC(C(=O)NC(C(=O)NC(C(=O)NC(C(=O)NC(C(=O)NC(C(=O)NC(C(=O)NC(C(=O)NC(C(=O)NC(C(=O)NCC(=O)NC(C(=O)NC(C(=O)NC(C(=O)NC(C(=O)NC(C(=O)NC(C(=O)NC(C(=O)NC(C(=O)NC(C(=O)NC(C(=O)NC(C(=O)NC(C(=O)NC(C(=O)NC(C(=O)NC(C(=O)NC(C(=O)NC(C(=O)NC(C(=O)NC(C(=O)NC(C(=O)NC(C(=O)NC(C(=O)NC(C(=O)NC(C(=O)NC(C(=O)NC(C(=O)NC(C(=O)NC(C(=O)NC(C(=O)NC(C(=O)NC(C(=O)N7C(C(=O)NC(C(=O)NCC(=O)NC(C(=O)NC(C(=O)NC(C(=O)NC(C(=O)NC(C(=O)NC(C(=O)NC(C(=O)NC(C(=O)NC(C(=O)NC(C(=O)NC(C(=O)NC(C(=O)NC(C(=O)N8C(C(=O)NCC(=O)NC(C(=O)NC(C(=O)NC(C(=O)NC(C(=O)NC(C(=O)NC(C(=O)NC(C(=O)NC(C(=O)NC(C(=O)NC(C(=O)NC(C(=O)NC(C(=O)NC(C(=O)NC(C(=O)NC(C(=O)NC(C(=O)NC(C(=O)NC(C(=O)NC(C(=O)NC(C(=O)N9C(C(=O)NCC(=O)NC(C(=O)NC(C(=O)NC(C(=O)NC(C(=O)NC(C(=O)NC(C(=O)NC(C(=O)NC(C(=O)NC(C(=O)NC(C(=O)NC(C(=O)NCC(=O)NC(C(=O)NC(C(=O)NC(C(=O)NC(C(=O)NCC(=O)NC(C(=O)NC(C(=O)NC(C(=O)NCC(=O)NC(C(=O)NCC(=O)NC(C(=O)NC(C(=O)NC(C(=O)NC(C(=O)NC(C(=O)NC(C(=O)N%10C(C(=O)NC(C(=O)NC(C(=O)NC(C(=O)N%11C(C(=O)NC(C(=O)NC(C(=O)NC(C(=O)NC(C(=O)NC(C(=O)NC(C(=O)NC(C(=O)NCC(=O)NC(C(=O)NC(C(=O)NC(C(=O)NCC(=O)NC(C(=O)NC(C(=O)NC(C(=O)NC(C(=O)N%12C(C(=O)NC(C(=O)NCC(=O)NC(C(=O)NC(C(=O)NC(C(=O)NC(C(=O)NC)CC(=O)N)Cc%13ccc(O)cc%13)CO)CCCNC(=[NH2+])N)CC(=O)[O-])CCC%12)Cc%12ccc(O)cc%12)CC(C)C)Cc%12ccc(O)cc%12)Cc%12ccccc%12)CCC(=O)[O-])C)CO)CC(=O)[O-])C(CC)C)CC(C)C)C)CCC(=O)N)Cc%12ccccc%12)CC(C)C)CCC%11)CCCC[NH3+])CC(=O)N)Cc%11[nH]cnc%11)CCC%10)C(CC)C)C(O)C)CCC(=O)N)CC(C)C)C(CC)C)CC(=O)N)CC(=O)[O-])C(O)C)C(C)C)Cc%10ccc(O)cc%10)C(CC)C)C)Cc%10c%11c([nH]c%10)cccc%11)CCC(=O)N)CC(C)C)CCCNC(=[NH2+])N)C(O)C)CS)CO)CC(C)C)CCCNC(=[NH2+])N)Cc%10ccccc%10)C(CC)C)Cc%10ccc(O)cc%10)CO)CCC9)CCCC[NH3+])C(O)C)CO)Cc9ccc(O)cc9)CCCC[NH3+])CCC(=O)N)CC(C)C)CCCNC(=[NH2+])N)C)CCCC[NH3+])C(C)C)CCC(=O)[O-])CC(=O)[O-])Cc9ccc(O)cc9)C(O)C)CC(C)C)Cc9ccccc9)C)CCSC)Cc9ccc(O)cc9)CCC8)Cc8nc[nH]c8)C(O)C)C(C)C)C)CC(C)C)Cc8ccccc8)CC(=O)N)Cc8c9c([nH]c8)cccc9)CC(=O)N)CCCNC(=[NH2+])N)CC(C)C)C(CC)C)CO)Cc8c9c([nH]c8)cccc9)CCC7)CCC(=O)N)Cc7ccccc7)CC(C)C)CCCNC(=[NH2+])N)C(O)C)Cc7ccccc7)C(CC)C)CC(=O)[O-])Cc7ccccc7)CCC(=O)[O-])Cc7ccccc7)C(C)C)CO)C(CC)C)Cc7ccc(O)cc7)CC(=O)[O-])CC(=O)N)CS)C(O)C)CC(C)C)CC(=O)[O-])C(CC)C)C(O)C)CO)CCCC[NH3+])CC(C)C)C)CCSC)C)CCC(=O)[O-])CC(C)C)CO)CO)C(CC)C)CCC(=O)N)Cc7nc[nH]c7)C(C)C)CCC(=O)[O-])Cc7nc[nH]c7)CC(C)C)CS)CCC(=O)N)CCCNC(=[NH2+])N)Cc7ccccc7)C(C)C)CCCC[NH3+])Cc7c8c([nH]c7)cccc8)CCC6)C(C)C)C(CC)C)C(O)C)CCCC[NH3+])CC(=O)[O-])Cc6ccccc6)Cc6ccccc6)CCCC[NH3+])CCCNC(=[NH2+])N)Cc6c7c([nH]c6)cccc7)Cc6ccccc6)CCC(=O)[O-])C)C)CC(=O)[O-])C)CCCC[NH3+])C(O)C)C(CC)C)CCCNC(=[NH2+])N)Cc6ccccc6)CC(=O)N)CC(=O)[O-])CCC(=O)N)Cc6ccccc6)CCC(=O)N)CC(=O)N)CCC5)Cc5ccccc5)C(CC)C)C)CCCC[NH3+])C(CC)C)CCC(=O)[O-])C)CC(C)C)CCSC)Cc5nc[nH]c5)CO)Cc5ccccc5)C(CC)C)CC(C)C)CO)CC(C)C)CCCC[NH3+])C(O)C)CC(C)C)CC(=O)N)CCCNC(=[NH2+])N)CCCNC(=[NH2+])N)CC(=O)[O-])CCC(=O)N)CO)CCC(=O)N)CCC(=O)[O-])CCC(=O)[O-])Cc5ccc(O)cc5)CCSC)CCCNC(=[NH2+])N)CCC(=O)[O-])CCCC[NH3+])CCC(=O)[O-])CCCC[NH3+])Cc5ccccc5)CC(C)C)CCCNC(=[NH2+])N)C(CC)C)C)CCCNC(=[NH2+])N)CCCC[NH3+])CO)CCCC[NH3+])CCCC[NH3+])CCSC)CC(C)C)CO)CC(=O)[O-])C(CC)C)Cc5ccc(O)cc5)C(CC)C)CCCC[NH3+])Cc5ccccc5)Cc5ccc(O)cc5)CCC(=O)[O-])CC(=O)N)CCC(=O)[O-])CO)CC(C)C)CCC(=O)N)C)CC(C)C)CCCC[NH3+])CCC(=O)N)CC(=O)N)CC(=O)[O-])CC(=O)[O-])Cc5ccc(O)cc5)CCCC[NH3+])CO)CC(C)C)C(CC)C)CC(C)C)CCCNC(=[NH2+])N)CC(C)C)Cc5nc[nH]c5)CCC(=O)N)Cc5ccc(O)cc5)C(O)C)CC(=O)[O-])CCC4)CC(C)C)C(CC)C)CC(=O)[O-])CC(C)C)C(CC)C)Cc4ccc(O)cc4)CCC3)CCC2)CO)CC(=O)N)CCCC[NH3+])CC(C)C)CCC(=O)N)CC(C)C)CCCC[NH3+])CCC1)CC(=O)N)CCC(=O)N)CS)CC(C)C)CCCNC(=[NH2+])N)C(C)C)C(C)C)C)CC(=O)[O-])C.OCCO.[UH+3].[Zn+2].[Zn+2].O.O.O.O.O.O.O.O.O.O.O.O.O.O.O.O.O.O.O.O.O.O.O.O.O.O.O.O.O.O.O.O.O.O.O.O.O.O.O.O.O.O.O.O.O.O.O.O.O.O.O.O.O.O.O.O.O.O.O.O.O.O.O.O.O.O.O.O.O.O.O.O.O.O.O.O.O.O.O.O.O.O.O.O.O.O.O.O.O.O.O.O.O.O.O.O.O.O.O.O.O.O.O.O.O.O.O.O.O.O.O.O.O.O.O.O.O.O.O.O.O.O.O.O.O.O.O.O.O.O.O.O.O.O.O.O.O.O.O.O.O.O

>  <rseq>
1

>  <mseq>
15

>  <S>
-8.6187887

>  <rmsd_refine>
1.3487332

>  <E_conf>
-132.42252

>  <E_place>
-78.000717

>  <E_score1>
-11.544977

>  <E_refine>
-44.053963

>  <E_score2>
-8.6187887

>  <Field_2>
GF05

>  <pseq>
15

>  <%C>
100

>  <a_heavy>
31

>  <h_logP>
3.1480803

>  <Weight>
415.49298

>  <E_orig>
1.6

>  <PLIF_raw>
[[36,45,43,41,39,37],[3036,3036,3036,3036,3036,3036],[219,219,219,219,219,219],[10,10,10,10,10,10],[0.5,0.5,0.5,0.5,0.5,0.5]]

>  <FP:PLIF>
21

>  <PLIF_ligidx>
[[36,45,43,41,39,37]]

$$$$

  MOE2020           3D

 62 65  0  0  1  0  0  0  0  0999 V2000
    4.1650    3.9100   19.1970 C   0  0  0  0  0  0  0  0  0  0  0  0
    4.1310    3.5860   18.1560 H   0  0  0  0  0  0  0  0  0  0  0  0
    3.3080    3.4990   19.7280 H   0  0  0  0  0  0  0  0  0  0  0  0
    5.0790    3.5380   19.6580 H   0  0  0  0  0  0  0  0  0  0  0  0
    4.1280    5.4370   19.2810 C   0  0  1  0  0  0  0  0  0  0  0  0
    5.3960    6.0770   18.6900 C   0  0  0  0  0  0  0  0  0  0  0  0
    6.2120    5.8930   19.3900 H   0  0  0  0  0  0  0  0  0  0  0  0
    5.2560    7.1530   18.6370 H   0  0  0  0  0  0  0  0  0  0  0  0
    5.8220    5.6150   17.3090 C   0  0  0  0  0  0  0  0  0  0  0  0
    7.1240    5.1190   17.1190 C   0  0  0  0  0  0  0  0  0  0  0  0
    7.8120    5.0470   17.9500 H   0  0  0  0  0  0  0  0  0  0  0  0
    7.5370    4.7140   15.8430 C   0  0  0  0  0  0  0  0  0  0  0  0
    8.5320    4.3330   15.7120 H   0  0  0  0  0  0  0  0  0  0  0  0
    6.6610    4.7860   14.7480 C   0  0  0  0  0  0  0  0  0  0  0  0
    6.9820    4.4630   13.7690 H   0  0  0  0  0  0  0  0  0  0  0  0
    5.3610    5.2800   14.9340 C   0  0  0  0  0  0  0  0  0  0  0  0
    4.6820    5.3330   14.0980 H   0  0  0  0  0  0  0  0  0  0  0  0
    4.9470    5.7020   16.2080 C   0  0  0  0  0  0  0  0  0  0  0  0
    3.9490    6.0830   16.3350 H   0  0  0  0  0  0  0  0  0  0  0  0
    2.9300    5.9580   18.6480 O   0  0  0  0  0  0  0  0  0  0  0  0
    2.5080    7.2190   18.9760 C   0  0  0  0  0  0  0  0  0  0  0  0
    2.5710    8.2220   18.0150 C   0  0  0  0  0  0  0  0  0  0  0  0
    2.8950    8.0020   17.0340 H   0  0  0  0  0  0  0  0  0  0  0  0
    2.2200    9.5190   18.3630 C   0  0  0  0  0  0  0  0  0  0  0  0
    2.2780   10.2870   17.6350 H   0  0  0  0  0  0  0  0  0  0  0  0
    1.7970    9.8200   19.6570 C   0  0  0  0  0  0  0  0  0  0  0  0
    1.4600   11.2700   19.9740 C   0  0  0  0  0  0  0  0  0  0  0  0
    2.3380   11.8850   19.8330 H   0  0  0  0  0  0  0  0  0  0  0  0
    1.1880   11.3970   21.0120 H   0  0  0  0  0  0  0  0  0  0  0  0
    0.3920   11.7840   19.1350 N   0  0  0  0  0  0  0  0  0  0  0  0
    0.6610   12.1950   18.2290 H   0  0  0  0  0  0  0  0  0  0  0  0
   -0.8280   11.1810   19.1930 C   0  0  0  0  0  0  0  0  0  0  0  0
   -1.1970   10.5300   20.1720 O   0  0  0  0  0  0  0  0  0  0  0  0
   -1.5770   11.3300   18.0660 N   0  0  0  0  0  0  0  0  0  0  0  0
   -1.2580   11.9770   17.3300 H   0  0  0  0  0  0  0  0  0  0  0  0
   -2.8540   10.6640   17.8840 C   0  0  2  0  0  0  0  0  0  0  0  0
   -2.9940   10.0950   16.4590 C   0  0  0  0  0  0  0  0  0  0  0  0
   -2.0360   10.0290   15.9430 H   0  0  0  0  0  0  0  0  0  0  0  0
   -3.4370    9.1020   16.5300 H   0  0  0  0  0  0  0  0  0  0  0  0
   -3.9650   11.0190   15.7130 C   0  0  0  0  0  0  0  0  0  0  0  0
   -3.4050   11.6790   15.0520 H   0  0  0  0  0  0  0  0  0  0  0  0
   -4.6870   10.4350   15.1460 H   0  0  0  0  0  0  0  0  0  0  0  0
   -4.6240   11.8310   16.7970 C   0  0  0  0  0  0  0  0  0  0  0  0
   -5.7010   12.7060   16.6960 C   0  0  0  0  0  0  0  0  0  0  0  0
   -6.1800   12.8660   15.7680 H   0  0  0  0  0  0  0  0  0  0  0  0
   -6.1460   13.3780   17.8330 C   0  0  0  0  0  0  0  0  0  0  0  0
   -6.9660   14.0440   17.7650 H   0  0  0  0  0  0  0  0  0  0  0  0
   -5.5080   13.1810   19.0570 C   0  0  0  0  0  0  0  0  0  0  0  0
   -5.8430   13.6990   19.9190 H   0  0  0  0  0  0  0  0  0  0  0  0
   -4.4240   12.3100   19.1480 C   0  0  0  0  0  0  0  0  0  0  0  0
   -3.9300   12.1710   20.0740 H   0  0  0  0  0  0  0  0  0  0  0  0
   -3.9960   11.6360   18.0100 C   0  0  0  0  0  0  0  0  0  0  0  0
    1.6870    8.7880   20.6140 C   0  0  0  0  0  0  0  0  0  0  0  0
    1.2220    9.0260   21.9740 C   0  0  0  0  0  0  0  0  0  0  0  0
    2.0980    9.5580   22.8680 N   0  0  0  0  0  0  0  0  0  0  0  0
    1.8040    9.7210   23.8410 H   0  0  0  0  0  0  0  0  0  0  0  0
    3.0660    9.7740   22.5830 H   0  0  0  0  0  0  0  0  0  0  0  0
    0.1010    8.7440   22.3760 O   0  0  0  0  0  0  0  0  0  0  0  0
    2.0470    7.4840   20.2600 C   0  0  0  0  0  0  0  0  0  0  0  0
    1.9760    6.7000   20.9690 H   0  0  0  0  0  0  0  0  0  0  0  0
    4.0690    5.7110   20.3320 H   0  0  0  0  0  0  0  0  0  0  0  0
   -2.9690    9.8590   18.5960 H   0  0  0  0  0  0  0  0  0  0  0  0
  1  2  1  0  0  0  0
  1  3  1  0  0  0  0
  1  4  1  0  0  0  0
  1  5  1  0  0  0  0
  5  6  1  0  0  0  0
  5 20  1  0  0  0  0
  5 61  1  0  0  0  0
  6  7  1  0  0  0  0
  6  8  1  0  0  0  0
  6  9  1  0  0  0  0
  9 10  1  0  0  0  0
  9 18  2  0  0  0  0
 10 11  1  0  0  0  0
 10 12  2  0  0  0  0
 12 13  1  0  0  0  0
 12 14  1  0  0  0  0
 14 15  1  0  0  0  0
 14 16  2  0  0  0  0
 16 17  1  0  0  0  0
 16 18  1  0  0  0  0
 18 19  1  0  0  0  0
 20 21  1  0  0  0  0
 21 22  1  0  0  0  0
 21 59  2  0  0  0  0
 22 23  1  0  0  0  0
 22 24  2  0  0  0  0
 24 25  1  0  0  0  0
 24 26  1  0  0  0  0
 26 27  1  0  0  0  0
 26 53  2  0  0  0  0
 27 28  1  0  0  0  0
 27 29  1  0  0  0  0
 27 30  1  0  0  0  0
 30 31  1  0  0  0  0
 30 32  1  0  0  0  0
 32 33  2  0  0  0  0
 32 34  1  0  0  0  0
 34 35  1  0  0  0  0
 34 36  1  0  0  0  0
 36 37  1  0  0  0  0
 36 52  1  0  0  0  0
 36 62  1  0  0  0  0
 37 38  1  0  0  0  0
 37 39  1  0  0  0  0
 37 40  1  0  0  0  0
 40 41  1  0  0  0  0
 40 42  1  0  0  0  0
 40 43  1  0  0  0  0
 43 44  1  0  0  0  0
 43 52  2  0  0  0  0
 44 45  1  0  0  0  0
 44 46  2  0  0  0  0
 46 47  1  0  0  0  0
 46 48  1  0  0  0  0
 48 49  1  0  0  0  0
 48 50  2  0  0  0  0
 50 51  1  0  0  0  0
 50 52  1  0  0  0  0
 53 54  1  0  0  0  0
 53 59  1  0  0  0  0
 54 55  1  0  0  0  0
 54 58  2  0  0  0  0
 55 56  1  0  0  0  0
 55 57  1  0  0  0  0
 59 60  1  0  0  0  0
M  END
>  <receptor>
S(=O)(=O)([O-])[O-].S(CCC(NC(=O)C(NC(=O)C(NC(=O)CNC(=O)C(NC(=O)C1N(C(=O)C(NC(=O)C(NC(=O)C(NC(=O)C(NC(=O)C(NC(=O)C(NC(=O)C(NC(=O)C(NC(=O)C(NC(=O)C(NC(=O)C(NC(=O)C(NC(=O)C(NC(=O)C(NC(=O)C(NC(=O)C(NC(=O)C(NC(=O)C(NC(=O)C(NC(=O)CNC(=O)C(NC(=O)C(NC(=O)C(NC(=O)C(NC(=O)C(NC(=O)C(NC(=O)C(NC(=O)C(NC(=O)C(NC(=O)C(NC(=O)C(NC(=O)C(NC(=O)C(NC(=O)C)CCCC[NH3+])C(C)C)C(O)C)CCC(=O)N)CCC(=O)[O-])CCC(=O)N)Cc2ccccc2)CCC(=O)[O-])CC(C)C)Cc2ccc(O)cc2)CS)CCC(=O)[O-])CCSC)CO)C(O)C)Cc2ccccc2)CCC(=O)N)CC(C)C)C[S-])CCCC[NH3+])C(CC)C)C[S-])C)CCC(=O)[O-])CC(=O)N)CC(=O)[O-])CCCC[NH3+])CC(=O)[O-])C(C)C)CCCC[NH3+])C(CC)C)CCC(=O)[O-])CCC1)C[S-])Cc1nc[n-]c1)CC(C)C)C(=O)NC(C(=O)NC(C(=O)NC(C(=O)NC(C(=O)NC(C(=O)NC(C(=O)NC(C(=O)NC(C(=O)NC(C(=O)NC(C(=O)NC(C(=O)NC(C(=O)NCC(=O)NC(C(=O)NCC(=O)NC(C(=O)N1C(C(=O)NC(C(=O)NC(C(=O)NC(C(=O)NC(C(=O)NC(C(=O)NC(C(=O)NC(C(=O)NCC(=O)NC(C(=O)NC(C(=O)N2C(C(=O)NC(C(=O)NC(C(=O)NC(C(=O)NC(C(=O)N3C(C(=O)NC(C(=O)NC(C(=O)[O-])CC(=O)[O-])Cc4ccccc4)CCC3)CC(=O)[O-])C(C)C)C(CC)C)C(CC)C)CCC2)CCC(=O)[O-])C(O)C)CCCC[NH3+])C(CC)C)CCC(=O)[O-])CS)CCCNC(=[NH2+])N)C[S-])Cc2ccccc2)CCC1)C[S-])CCC(=O)N)CC(=O)[O-])CO)CCC(=O)[O-])CCC(=O)N)Cc1c2c([nH]c1)cccc2)C)C(O)C)CC(C)C)C[S-])CO)C(O)C)C[S-])C.S(CCC(NC(=O)C(NC(=O)C(NC(=O)C(NC(=O)C(NC(=O)C(NC(=O)C(NC(=O)C(NC(=O)C(NC(=O)C(NC(=O)C(NC(=O)C(NC(=O)C(NC(=O)C(NC(=O)C(NC(=O)C(NC(=O)C[NH3+])CCC(=O)N)C)C)C)CC(=O)[O-])CCCNC(=[NH2+])N)CCCNC(=[NH2+])N)C(O)C)C(C)C)CCC(=O)[O-])CCCC[NH3+])C(O)C)Cc1c2c([nH]c1)cccc2)C)CC(C)C)C(=O)NC(C(=O)NC(C(=O)NC(C(=O)NC(C(=O)NC(C(=O)NC(C(=O)NC(C(=O)NC(C(=O)NC(C(=O)N1C(C(=O)NC(C(=O)NC(C(=O)NC(C(=O)NC(C(=O)NC(C(=O)NC(C(=O)NC(C(=O)N2C(C(=O)N3C(C(=O)NC(C(=O)NC(C(=O)NC(C(=O)NC(C(=O)NC(C(=O)NC(C(=O)N4C(C(=O)NC(C(=O)NC(C(=O)NC(C(=O)NC(C(=O)NC(C(=O)NC(C(=O)NC(C(=O)NC(C(=O)NC(C(=O)NC(C(=O)NC(C(=O)NC(C(=O)NC(C(=O)NC(C(=O)NC(C(=O)NC(C(=O)NC(C(=O)NC(C(=O)NC(C(=O)NC(C(=O)NC(C(=O)NC(C(=O)NC(C(=O)NC(C(=O)NC(C(=O)NC(C(=O)NC(C(=O)NC(C(=O)NC(C(=O)NC(C(=O)NC(C(=O)NC(C(=O)NC(C(=O)NC(C(=O)NC(C(=O)NC(C(=O)NC(C(=O)NC(C(=O)NC(C(=O)NC(C(=O)NC(C(=O)NC(C(=O)NC(C(=O)NC(C(=O)NC(C(=O)NC(C(=O)NC(C(=O)NC(C(=O)NCC(=O)NC(C(=O)NC(C(=O)NC(C(=O)NC(C(=O)NC(C(=O)NC(C(=O)NC(C(=O)NC(C(=O)NC(C(=O)NC(C(=O)NC(C(=O)NC(C(=O)NC(C(=O)NC(C(=O)NC(C(=O)NC(C(=O)NC(C(=O)NC(C(=O)NC(C(=O)NC(C(=O)NC(C(=O)NC(C(=O)NC(C(=O)NC(C(=O)NC(C(=O)NC(C(=O)NC(C(=O)NC(C(=O)NC(C(=O)NC(C(=O)NC(C(=O)NC(C(=O)NC(C(=O)N5C(C(=O)NC(C(=O)NCC(=O)NC(C(=O)NC(C(=O)NC(C(=O)NCC(=O)NC(C(=O)NC(C(=O)NC(C(=O)NC(C(=O)NC(C(=O)NC(C(=O)NC(C(=O)NC(C(=O)NC(C(=O)NC(C(=O)NC(C(=O)NC(C(=O)NC(C(=O)NC(C(=O)NC(C(=O)NC(C(=O)NC(C(=O)NC(C(=O)NCC(=O)NC(C(=O)NC(C(=O)NC(C(=O)NC(C(=O)NC(C(=O)N6C(C(=O)NC(C(=O)NC(C(=O)NC(C(=O)NC(C(=O)NC(C(=O)NC(C(=O)NC(C(=O)NC(C(=O)NC(C(=O)NC(C(=O)NC(C(=O)NC(C(=O)NC(C(=O)NC(C(=O)NC(C(=O)NC(C(=O)NCC(=O)NC(C(=O)NC(C(=O)NC(C(=O)NC(C(=O)NC(C(=O)NC(C(=O)NC(C(=O)NC(C(=O)NC(C(=O)NC(C(=O)NC(C(=O)NC(C(=O)NC(C(=O)NC(C(=O)NC(C(=O)NC(C(=O)NC(C(=O)NC(C(=O)NC(C(=O)NC(C(=O)NC(C(=O)NC(C(=O)NC(C(=O)NC(C(=O)NC(C(=O)NC(C(=O)NC(C(=O)NC(C(=O)NC(C(=O)NC(C(=O)NC(C(=O)N7C(C(=O)NC(C(=O)NCC(=O)NC(C(=O)NC(C(=O)NC(C(=O)NC(C(=O)NC(C(=O)NC(C(=O)NC(C(=O)NC(C(=O)NC(C(=O)NC(C(=O)NC(C(=O)NC(C(=O)NC(C(=O)N8C(C(=O)NCC(=O)NC(C(=O)NC(C(=O)NC(C(=O)NC(C(=O)NC(C(=O)NC(C(=O)NC(C(=O)NC(C(=O)NC(C(=O)NC(C(=O)NC(C(=O)NC(C(=O)NC(C(=O)NC(C(=O)NC(C(=O)NC(C(=O)NC(C(=O)NC(C(=O)NC(C(=O)NC(C(=O)N9C(C(=O)NCC(=O)NC(C(=O)NC(C(=O)NC(C(=O)NC(C(=O)NC(C(=O)NC(C(=O)NC(C(=O)NC(C(=O)NC(C(=O)NC(C(=O)NC(C(=O)NCC(=O)NC(C(=O)NC(C(=O)NC(C(=O)NC(C(=O)NCC(=O)NC(C(=O)NC(C(=O)NC(C(=O)NCC(=O)NC(C(=O)NCC(=O)NC(C(=O)NC(C(=O)NC(C(=O)NC(C(=O)NC(C(=O)NC(C(=O)N%10C(C(=O)NC(C(=O)NC(C(=O)NC(C(=O)N%11C(C(=O)NC(C(=O)NC(C(=O)NC(C(=O)NC(C(=O)NC(C(=O)NC(C(=O)NC(C(=O)NCC(=O)NC(C(=O)NC(C(=O)NC(C(=O)NCC(=O)NC(C(=O)NC(C(=O)NC(C(=O)NC(C(=O)N%12C(C(=O)NC(C(=O)NCC(=O)NC(C(=O)NC(C(=O)NC(C(=O)NC(C(=O)NC)CC(=O)N)Cc%13ccc(O)cc%13)CO)CCCNC(=[NH2+])N)CC(=O)[O-])CCC%12)Cc%12ccc(O)cc%12)CC(C)C)Cc%12ccc(O)cc%12)Cc%12ccccc%12)CCC(=O)[O-])C)CO)CC(=O)[O-])C(CC)C)CC(C)C)C)CCC(=O)N)Cc%12ccccc%12)CC(C)C)CCC%11)CCCC[NH3+])CC(=O)N)Cc%11[nH]cnc%11)CCC%10)C(CC)C)C(O)C)CCC(=O)N)CC(C)C)C(CC)C)CC(=O)N)CC(=O)[O-])C(O)C)C(C)C)Cc%10ccc(O)cc%10)C(CC)C)C)Cc%10c%11c([nH]c%10)cccc%11)CCC(=O)N)CC(C)C)CCCNC(=[NH2+])N)C(O)C)CS)CO)CC(C)C)CCCNC(=[NH2+])N)Cc%10ccccc%10)C(CC)C)Cc%10ccc(O)cc%10)CO)CCC9)CCCC[NH3+])C(O)C)CO)Cc9ccc(O)cc9)CCCC[NH3+])CCC(=O)N)CC(C)C)CCCNC(=[NH2+])N)C)CCCC[NH3+])C(C)C)CCC(=O)[O-])CC(=O)[O-])Cc9ccc(O)cc9)C(O)C)CC(C)C)Cc9ccccc9)C)CCSC)Cc9ccc(O)cc9)CCC8)Cc8nc[nH]c8)C(O)C)C(C)C)C)CC(C)C)Cc8ccccc8)CC(=O)N)Cc8c9c([nH]c8)cccc9)CC(=O)N)CCCNC(=[NH2+])N)CC(C)C)C(CC)C)CO)Cc8c9c([nH]c8)cccc9)CCC7)CCC(=O)N)Cc7ccccc7)CC(C)C)CCCNC(=[NH2+])N)C(O)C)Cc7ccccc7)C(CC)C)CC(=O)[O-])Cc7ccccc7)CCC(=O)[O-])Cc7ccccc7)C(C)C)CO)C(CC)C)Cc7ccc(O)cc7)CC(=O)[O-])CC(=O)N)CS)C(O)C)CC(C)C)CC(=O)[O-])C(CC)C)C(O)C)CO)CCCC[NH3+])CC(C)C)C)CCSC)C)CCC(=O)[O-])CC(C)C)CO)CO)C(CC)C)CCC(=O)N)Cc7nc[nH]c7)C(C)C)CCC(=O)[O-])Cc7nc[nH]c7)CC(C)C)CS)CCC(=O)N)CCCNC(=[NH2+])N)Cc7ccccc7)C(C)C)CCCC[NH3+])Cc7c8c([nH]c7)cccc8)CCC6)C(C)C)C(CC)C)C(O)C)CCCC[NH3+])CC(=O)[O-])Cc6ccccc6)Cc6ccccc6)CCCC[NH3+])CCCNC(=[NH2+])N)Cc6c7c([nH]c6)cccc7)Cc6ccccc6)CCC(=O)[O-])C)C)CC(=O)[O-])C)CCCC[NH3+])C(O)C)C(CC)C)CCCNC(=[NH2+])N)Cc6ccccc6)CC(=O)N)CC(=O)[O-])CCC(=O)N)Cc6ccccc6)CCC(=O)N)CC(=O)N)CCC5)Cc5ccccc5)C(CC)C)C)CCCC[NH3+])C(CC)C)CCC(=O)[O-])C)CC(C)C)CCSC)Cc5nc[nH]c5)CO)Cc5ccccc5)C(CC)C)CC(C)C)CO)CC(C)C)CCCC[NH3+])C(O)C)CC(C)C)CC(=O)N)CCCNC(=[NH2+])N)CCCNC(=[NH2+])N)CC(=O)[O-])CCC(=O)N)CO)CCC(=O)N)CCC(=O)[O-])CCC(=O)[O-])Cc5ccc(O)cc5)CCSC)CCCNC(=[NH2+])N)CCC(=O)[O-])CCCC[NH3+])CCC(=O)[O-])CCCC[NH3+])Cc5ccccc5)CC(C)C)CCCNC(=[NH2+])N)C(CC)C)C)CCCNC(=[NH2+])N)CCCC[NH3+])CO)CCCC[NH3+])CCCC[NH3+])CCSC)CC(C)C)CO)CC(=O)[O-])C(CC)C)Cc5ccc(O)cc5)C(CC)C)CCCC[NH3+])Cc5ccccc5)Cc5ccc(O)cc5)CCC(=O)[O-])CC(=O)N)CCC(=O)[O-])CO)CC(C)C)CCC(=O)N)C)CC(C)C)CCCC[NH3+])CCC(=O)N)CC(=O)N)CC(=O)[O-])CC(=O)[O-])Cc5ccc(O)cc5)CCCC[NH3+])CO)CC(C)C)C(CC)C)CC(C)C)CCCNC(=[NH2+])N)CC(C)C)Cc5nc[nH]c5)CCC(=O)N)Cc5ccc(O)cc5)C(O)C)CC(=O)[O-])CCC4)CC(C)C)C(CC)C)CC(=O)[O-])CC(C)C)C(CC)C)Cc4ccc(O)cc4)CCC3)CCC2)CO)CC(=O)N)CCCC[NH3+])CC(C)C)CCC(=O)N)CC(C)C)CCCC[NH3+])CCC1)CC(=O)N)CCC(=O)N)CS)CC(C)C)CCCNC(=[NH2+])N)C(C)C)C(C)C)C)CC(=O)[O-])C.OCCO.[UH+3].[Zn+2].[Zn+2].O.O.O.O.O.O.O.O.O.O.O.O.O.O.O.O.O.O.O.O.O.O.O.O.O.O.O.O.O.O.O.O.O.O.O.O.O.O.O.O.O.O.O.O.O.O.O.O.O.O.O.O.O.O.O.O.O.O.O.O.O.O.O.O.O.O.O.O.O.O.O.O.O.O.O.O.O.O.O.O.O.O.O.O.O.O.O.O.O.O.O.O.O.O.O.O.O.O.O.O.O.O.O.O.O.O.O.O.O.O.O.O.O.O.O.O.O.O.O.O.O.O.O.O.O.O.O.O.O.O.O.O.O.O.O.O.O.O.O.O.O.O

>  <rseq>
1

>  <mseq>
16

>  <S>
-8.9289036

>  <rmsd_refine>
1.2813877

>  <E_conf>
-150.70381

>  <E_place>
-60.727737

>  <E_score1>
-12.509569

>  <E_refine>
-46.773766

>  <E_score2>
-8.9289036

>  <Field_2>
GF06

>  <pseq>
16

>  <%C>
100

>  <a_heavy>
33

>  <h_logP>
3.5360017

>  <Weight>
443.547

>  <E_orig>
2.5999999

>  <PLIF_raw>
[55,5184,366,1,2.4]

>  <FP:PLIF>
8 24

>  <PLIF_ligidx>
[55,55]

$$$$

  MOE2020           3D

 55 58  0  0  1  0  0  0  0  0999 V2000
    1.3810   13.3320   20.9670 C   0  0  0  0  0  0  0  0  0  0  0  0
    1.8110   14.2910   21.2570 H   0  0  0  0  0  0  0  0  0  0  0  0
    1.1530   13.3800   19.9020 H   0  0  0  0  0  0  0  0  0  0  0  0
    2.1450   12.5720   21.1300 H   0  0  0  0  0  0  0  0  0  0  0  0
    0.1240   13.0350   21.7680 C   0  0  0  0  0  0  0  0  0  0  0  0
   -0.5740   14.1150   22.3150 C   0  0  0  0  0  0  0  0  0  0  0  0
   -0.2390   15.1060   22.1460 H   0  0  0  0  0  0  0  0  0  0  0  0
   -1.7100   13.9040   23.0880 C   0  0  0  0  0  0  0  0  0  0  0  0
   -2.2430   14.7180   23.5080 H   0  0  0  0  0  0  0  0  0  0  0  0
   -2.1270   12.6000   23.3020 C   0  0  0  0  0  0  0  0  0  0  0  0
   -3.1940   12.3700   24.0700 F   0  0  0  0  0  0  0  0  0  0  0  0
   -1.4700   11.5100   22.7630 C   0  0  0  0  0  0  0  0  0  0  0  0
   -1.8230   10.5310   22.9520 H   0  0  0  0  0  0  0  0  0  0  0  0
   -0.3440   11.7150   21.9660 C   0  0  0  0  0  0  0  0  0  0  0  0
    0.3050   10.5510   21.3730 C   0  0  0  0  0  0  0  0  0  0  0  0
    0.7100    9.4770   22.1690 C   0  0  0  0  0  0  0  0  0  0  0  0
    0.4990    9.4770   23.2070 H   0  0  0  0  0  0  0  0  0  0  0  0
    1.4200    8.4230   21.6120 C   0  0  0  0  0  0  0  0  0  0  0  0
    1.7670    7.6470   22.2350 H   0  0  0  0  0  0  0  0  0  0  0  0
    1.7460    8.4130   20.2600 C   0  0  0  0  0  0  0  0  0  0  0  0
    2.7290    7.3640   19.7860 C   0  0  0  0  0  0  0  0  0  0  0  0
    3.5120    7.4010   20.5080 H   0  0  0  0  0  0  0  0  0  0  0  0
    3.2190    7.6670   18.8750 H   0  0  0  0  0  0  0  0  0  0  0  0
    2.3570    5.9540   19.7240 N   0  0  0  0  0  0  0  0  0  0  0  0
    1.5920    5.6450   20.3430 H   0  0  0  0  0  0  0  0  0  0  0  0
    3.3540    5.0300   19.4780 C   0  0  0  0  0  0  0  0  0  0  0  0
    3.2750    3.8700   19.8750 O   0  0  0  0  0  0  0  0  0  0  0  0
    4.4360    5.4790   18.7620 N   0  0  0  0  0  0  0  0  0  0  0  0
    4.4020    6.4380   18.3920 H   0  0  0  0  0  0  0  0  0  0  0  0
    5.6220    4.7000   18.4390 C   0  0  2  0  0  0  0  0  0  0  0  0
    6.9090    5.4370   18.8840 C   0  0  0  0  0  0  0  0  0  0  0  0
    6.6730    6.4740   19.1190 H   0  0  0  0  0  0  0  0  0  0  0  0
    7.3570    4.9710   19.7600 H   0  0  0  0  0  0  0  0  0  0  0  0
    7.8750    5.4240   17.6890 C   0  0  0  0  0  0  0  0  0  0  0  0
    8.6520    4.6760   17.8490 H   0  0  0  0  0  0  0  0  0  0  0  0
    8.3110    6.4110   17.5300 H   0  0  0  0  0  0  0  0  0  0  0  0
    7.0210    5.0060   16.5260 C   0  0  0  0  0  0  0  0  0  0  0  0
    7.3420    5.0200   15.1740 C   0  0  0  0  0  0  0  0  0  0  0  0
    8.2790    5.3750   14.8450 H   0  0  0  0  0  0  0  0  0  0  0  0
    6.4110    4.5680   14.2450 C   0  0  0  0  0  0  0  0  0  0  0  0
    6.6470    4.5730   13.2120 H   0  0  0  0  0  0  0  0  0  0  0  0
    5.1690    4.1080   14.6730 C   0  0  0  0  0  0  0  0  0  0  0  0
    4.4640    3.7710   13.9600 H   0  0  0  0  0  0  0  0  0  0  0  0
    4.8520    4.0990   16.0290 C   0  0  0  0  0  0  0  0  0  0  0  0
    3.9100    3.7460   16.3580 H   0  0  0  0  0  0  0  0  0  0  0  0
    5.7840    4.5670   16.9480 C   0  0  0  0  0  0  0  0  0  0  0  0
    1.3170    9.4720   19.4390 C   0  0  0  0  0  0  0  0  0  0  0  0
    1.7180    9.5910   18.0380 C   0  0  0  0  0  0  0  0  0  0  0  0
    1.9930   10.8350   17.5610 N   0  0  0  0  0  0  0  0  0  0  0  0
    2.1040   10.9830   16.5450 H   0  0  0  0  0  0  0  0  0  0  0  0
    1.8470   11.6630   18.1550 H   0  0  0  0  0  0  0  0  0  0  0  0
    1.8580    8.6510   17.2700 O   0  0  0  0  0  0  0  0  0  0  0  0
    0.5540   10.4990   20.0030 C   0  0  0  0  0  0  0  0  0  0  0  0
    0.1820   11.2770   19.3860 H   0  0  0  0  0  0  0  0  0  0  0  0
    5.5830    3.7150   18.8850 H   0  0  0  0  0  0  0  0  0  0  0  0
  1  2  1  0  0  0  0
  1  3  1  0  0  0  0
  1  4  1  0  0  0  0
  1  5  1  0  0  0  0
  5  6  1  0  0  0  0
  5 14  2  0  0  0  0
  6  7  1  0  0  0  0
  6  8  2  0  0  0  0
  8  9  1  0  0  0  0
  8 10  1  0  0  0  0
 10 11  1  0  0  0  0
 10 12  2  0  0  0  0
 12 13  1  0  0  0  0
 12 14  1  0  0  0  0
 14 15  1  0  0  0  0
 15 16  2  0  0  0  0
 15 53  1  0  0  0  0
 16 17  1  0  0  0  0
 16 18  1  0  0  0  0
 18 19  1  0  0  0  0
 18 20  2  0  0  0  0
 20 21  1  0  0  0  0
 20 47  1  0  0  0  0
 21 22  1  0  0  0  0
 21 23  1  0  0  0  0
 21 24  1  0  0  0  0
 24 25  1  0  0  0  0
 24 26  1  0  0  0  0
 26 27  2  0  0  0  0
 26 28  1  0  0  0  0
 28 29  1  0  0  0  0
 28 30  1  0  0  0  0
 30 31  1  0  0  0  0
 30 46  1  0  0  0  0
 30 55  1  0  0  0  0
 31 32  1  0  0  0  0
 31 33  1  0  0  0  0
 31 34  1  0  0  0  0
 34 35  1  0  0  0  0
 34 36  1  0  0  0  0
 34 37  1  0  0  0  0
 37 38  1  0  0  0  0
 37 46  2  0  0  0  0
 38 39  1  0  0  0  0
 38 40  2  0  0  0  0
 40 41  1  0  0  0  0
 40 42  1  0  0  0  0
 42 43  1  0  0  0  0
 42 44  2  0  0  0  0
 44 45  1  0  0  0  0
 44 46  1  0  0  0  0
 47 48  1  0  0  0  0
 47 53  2  0  0  0  0
 48 49  1  0  0  0  0
 48 52  2  0  0  0  0
 49 50  1  0  0  0  0
 49 51  1  0  0  0  0
 53 54  1  0  0  0  0
M  END
>  <receptor>
S(=O)(=O)([O-])[O-].S(CCC(NC(=O)C(NC(=O)C(NC(=O)CNC(=O)C(NC(=O)C1N(C(=O)C(NC(=O)C(NC(=O)C(NC(=O)C(NC(=O)C(NC(=O)C(NC(=O)C(NC(=O)C(NC(=O)C(NC(=O)C(NC(=O)C(NC(=O)C(NC(=O)C(NC(=O)C(NC(=O)C(NC(=O)C(NC(=O)C(NC(=O)C(NC(=O)C(NC(=O)CNC(=O)C(NC(=O)C(NC(=O)C(NC(=O)C(NC(=O)C(NC(=O)C(NC(=O)C(NC(=O)C(NC(=O)C(NC(=O)C(NC(=O)C(NC(=O)C(NC(=O)C(NC(=O)C)CCCC[NH3+])C(C)C)C(O)C)CCC(=O)N)CCC(=O)[O-])CCC(=O)N)Cc2ccccc2)CCC(=O)[O-])CC(C)C)Cc2ccc(O)cc2)CS)CCC(=O)[O-])CCSC)CO)C(O)C)Cc2ccccc2)CCC(=O)N)CC(C)C)C[S-])CCCC[NH3+])C(CC)C)C[S-])C)CCC(=O)[O-])CC(=O)N)CC(=O)[O-])CCCC[NH3+])CC(=O)[O-])C(C)C)CCCC[NH3+])C(CC)C)CCC(=O)[O-])CCC1)C[S-])Cc1nc[n-]c1)CC(C)C)C(=O)NC(C(=O)NC(C(=O)NC(C(=O)NC(C(=O)NC(C(=O)NC(C(=O)NC(C(=O)NC(C(=O)NC(C(=O)NC(C(=O)NC(C(=O)NC(C(=O)NCC(=O)NC(C(=O)NCC(=O)NC(C(=O)N1C(C(=O)NC(C(=O)NC(C(=O)NC(C(=O)NC(C(=O)NC(C(=O)NC(C(=O)NC(C(=O)NCC(=O)NC(C(=O)NC(C(=O)N2C(C(=O)NC(C(=O)NC(C(=O)NC(C(=O)NC(C(=O)N3C(C(=O)NC(C(=O)NC(C(=O)[O-])CC(=O)[O-])Cc4ccccc4)CCC3)CC(=O)[O-])C(C)C)C(CC)C)C(CC)C)CCC2)CCC(=O)[O-])C(O)C)CCCC[NH3+])C(CC)C)CCC(=O)[O-])CS)CCCNC(=[NH2+])N)C[S-])Cc2ccccc2)CCC1)C[S-])CCC(=O)N)CC(=O)[O-])CO)CCC(=O)[O-])CCC(=O)N)Cc1c2c([nH]c1)cccc2)C)C(O)C)CC(C)C)C[S-])CO)C(O)C)C[S-])C.S(CCC(NC(=O)C(NC(=O)C(NC(=O)C(NC(=O)C(NC(=O)C(NC(=O)C(NC(=O)C(NC(=O)C(NC(=O)C(NC(=O)C(NC(=O)C(NC(=O)C(NC(=O)C(NC(=O)C(NC(=O)C(NC(=O)C[NH3+])CCC(=O)N)C)C)C)CC(=O)[O-])CCCNC(=[NH2+])N)CCCNC(=[NH2+])N)C(O)C)C(C)C)CCC(=O)[O-])CCCC[NH3+])C(O)C)Cc1c2c([nH]c1)cccc2)C)CC(C)C)C(=O)NC(C(=O)NC(C(=O)NC(C(=O)NC(C(=O)NC(C(=O)NC(C(=O)NC(C(=O)NC(C(=O)NC(C(=O)N1C(C(=O)NC(C(=O)NC(C(=O)NC(C(=O)NC(C(=O)NC(C(=O)NC(C(=O)NC(C(=O)N2C(C(=O)N3C(C(=O)NC(C(=O)NC(C(=O)NC(C(=O)NC(C(=O)NC(C(=O)NC(C(=O)N4C(C(=O)NC(C(=O)NC(C(=O)NC(C(=O)NC(C(=O)NC(C(=O)NC(C(=O)NC(C(=O)NC(C(=O)NC(C(=O)NC(C(=O)NC(C(=O)NC(C(=O)NC(C(=O)NC(C(=O)NC(C(=O)NC(C(=O)NC(C(=O)NC(C(=O)NC(C(=O)NC(C(=O)NC(C(=O)NC(C(=O)NC(C(=O)NC(C(=O)NC(C(=O)NC(C(=O)NC(C(=O)NC(C(=O)NC(C(=O)NC(C(=O)NC(C(=O)NC(C(=O)NC(C(=O)NC(C(=O)NC(C(=O)NC(C(=O)NC(C(=O)NC(C(=O)NC(C(=O)NC(C(=O)NC(C(=O)NC(C(=O)NC(C(=O)NC(C(=O)NC(C(=O)NC(C(=O)NC(C(=O)NC(C(=O)NCC(=O)NC(C(=O)NC(C(=O)NC(C(=O)NC(C(=O)NC(C(=O)NC(C(=O)NC(C(=O)NC(C(=O)NC(C(=O)NC(C(=O)NC(C(=O)NC(C(=O)NC(C(=O)NC(C(=O)NC(C(=O)NC(C(=O)NC(C(=O)NC(C(=O)NC(C(=O)NC(C(=O)NC(C(=O)NC(C(=O)NC(C(=O)NC(C(=O)NC(C(=O)NC(C(=O)NC(C(=O)NC(C(=O)NC(C(=O)NC(C(=O)NC(C(=O)NC(C(=O)NC(C(=O)N5C(C(=O)NC(C(=O)NCC(=O)NC(C(=O)NC(C(=O)NC(C(=O)NCC(=O)NC(C(=O)NC(C(=O)NC(C(=O)NC(C(=O)NC(C(=O)NC(C(=O)NC(C(=O)NC(C(=O)NC(C(=O)NC(C(=O)NC(C(=O)NC(C(=O)NC(C(=O)NC(C(=O)NC(C(=O)NC(C(=O)NC(C(=O)NC(C(=O)NCC(=O)NC(C(=O)NC(C(=O)NC(C(=O)NC(C(=O)NC(C(=O)N6C(C(=O)NC(C(=O)NC(C(=O)NC(C(=O)NC(C(=O)NC(C(=O)NC(C(=O)NC(C(=O)NC(C(=O)NC(C(=O)NC(C(=O)NC(C(=O)NC(C(=O)NC(C(=O)NC(C(=O)NC(C(=O)NC(C(=O)NCC(=O)NC(C(=O)NC(C(=O)NC(C(=O)NC(C(=O)NC(C(=O)NC(C(=O)NC(C(=O)NC(C(=O)NC(C(=O)NC(C(=O)NC(C(=O)NC(C(=O)NC(C(=O)NC(C(=O)NC(C(=O)NC(C(=O)NC(C(=O)NC(C(=O)NC(C(=O)NC(C(=O)NC(C(=O)NC(C(=O)NC(C(=O)NC(C(=O)NC(C(=O)NC(C(=O)NC(C(=O)NC(C(=O)NC(C(=O)NC(C(=O)NC(C(=O)N7C(C(=O)NC(C(=O)NCC(=O)NC(C(=O)NC(C(=O)NC(C(=O)NC(C(=O)NC(C(=O)NC(C(=O)NC(C(=O)NC(C(=O)NC(C(=O)NC(C(=O)NC(C(=O)NC(C(=O)NC(C(=O)N8C(C(=O)NCC(=O)NC(C(=O)NC(C(=O)NC(C(=O)NC(C(=O)NC(C(=O)NC(C(=O)NC(C(=O)NC(C(=O)NC(C(=O)NC(C(=O)NC(C(=O)NC(C(=O)NC(C(=O)NC(C(=O)NC(C(=O)NC(C(=O)NC(C(=O)NC(C(=O)NC(C(=O)NC(C(=O)N9C(C(=O)NCC(=O)NC(C(=O)NC(C(=O)NC(C(=O)NC(C(=O)NC(C(=O)NC(C(=O)NC(C(=O)NC(C(=O)NC(C(=O)NC(C(=O)NC(C(=O)NCC(=O)NC(C(=O)NC(C(=O)NC(C(=O)NC(C(=O)NCC(=O)NC(C(=O)NC(C(=O)NC(C(=O)NCC(=O)NC(C(=O)NCC(=O)NC(C(=O)NC(C(=O)NC(C(=O)NC(C(=O)NC(C(=O)NC(C(=O)N%10C(C(=O)NC(C(=O)NC(C(=O)NC(C(=O)N%11C(C(=O)NC(C(=O)NC(C(=O)NC(C(=O)NC(C(=O)NC(C(=O)NC(C(=O)NC(C(=O)NCC(=O)NC(C(=O)NC(C(=O)NC(C(=O)NCC(=O)NC(C(=O)NC(C(=O)NC(C(=O)NC(C(=O)N%12C(C(=O)NC(C(=O)NCC(=O)NC(C(=O)NC(C(=O)NC(C(=O)NC(C(=O)NC)CC(=O)N)Cc%13ccc(O)cc%13)CO)CCCNC(=[NH2+])N)CC(=O)[O-])CCC%12)Cc%12ccc(O)cc%12)CC(C)C)Cc%12ccc(O)cc%12)Cc%12ccccc%12)CCC(=O)[O-])C)CO)CC(=O)[O-])C(CC)C)CC(C)C)C)CCC(=O)N)Cc%12ccccc%12)CC(C)C)CCC%11)CCCC[NH3+])CC(=O)N)Cc%11[nH]cnc%11)CCC%10)C(CC)C)C(O)C)CCC(=O)N)CC(C)C)C(CC)C)CC(=O)N)CC(=O)[O-])C(O)C)C(C)C)Cc%10ccc(O)cc%10)C(CC)C)C)Cc%10c%11c([nH]c%10)cccc%11)CCC(=O)N)CC(C)C)CCCNC(=[NH2+])N)C(O)C)CS)CO)CC(C)C)CCCNC(=[NH2+])N)Cc%10ccccc%10)C(CC)C)Cc%10ccc(O)cc%10)CO)CCC9)CCCC[NH3+])C(O)C)CO)Cc9ccc(O)cc9)CCCC[NH3+])CCC(=O)N)CC(C)C)CCCNC(=[NH2+])N)C)CCCC[NH3+])C(C)C)CCC(=O)[O-])CC(=O)[O-])Cc9ccc(O)cc9)C(O)C)CC(C)C)Cc9ccccc9)C)CCSC)Cc9ccc(O)cc9)CCC8)Cc8nc[nH]c8)C(O)C)C(C)C)C)CC(C)C)Cc8ccccc8)CC(=O)N)Cc8c9c([nH]c8)cccc9)CC(=O)N)CCCNC(=[NH2+])N)CC(C)C)C(CC)C)CO)Cc8c9c([nH]c8)cccc9)CCC7)CCC(=O)N)Cc7ccccc7)CC(C)C)CCCNC(=[NH2+])N)C(O)C)Cc7ccccc7)C(CC)C)CC(=O)[O-])Cc7ccccc7)CCC(=O)[O-])Cc7ccccc7)C(C)C)CO)C(CC)C)Cc7ccc(O)cc7)CC(=O)[O-])CC(=O)N)CS)C(O)C)CC(C)C)CC(=O)[O-])C(CC)C)C(O)C)CO)CCCC[NH3+])CC(C)C)C)CCSC)C)CCC(=O)[O-])CC(C)C)CO)CO)C(CC)C)CCC(=O)N)Cc7nc[nH]c7)C(C)C)CCC(=O)[O-])Cc7nc[nH]c7)CC(C)C)CS)CCC(=O)N)CCCNC(=[NH2+])N)Cc7ccccc7)C(C)C)CCCC[NH3+])Cc7c8c([nH]c7)cccc8)CCC6)C(C)C)C(CC)C)C(O)C)CCCC[NH3+])CC(=O)[O-])Cc6ccccc6)Cc6ccccc6)CCCC[NH3+])CCCNC(=[NH2+])N)Cc6c7c([nH]c6)cccc7)Cc6ccccc6)CCC(=O)[O-])C)C)CC(=O)[O-])C)CCCC[NH3+])C(O)C)C(CC)C)CCCNC(=[NH2+])N)Cc6ccccc6)CC(=O)N)CC(=O)[O-])CCC(=O)N)Cc6ccccc6)CCC(=O)N)CC(=O)N)CCC5)Cc5ccccc5)C(CC)C)C)CCCC[NH3+])C(CC)C)CCC(=O)[O-])C)CC(C)C)CCSC)Cc5nc[nH]c5)CO)Cc5ccccc5)C(CC)C)CC(C)C)CO)CC(C)C)CCCC[NH3+])C(O)C)CC(C)C)CC(=O)N)CCCNC(=[NH2+])N)CCCNC(=[NH2+])N)CC(=O)[O-])CCC(=O)N)CO)CCC(=O)N)CCC(=O)[O-])CCC(=O)[O-])Cc5ccc(O)cc5)CCSC)CCCNC(=[NH2+])N)CCC(=O)[O-])CCCC[NH3+])CCC(=O)[O-])CCCC[NH3+])Cc5ccccc5)CC(C)C)CCCNC(=[NH2+])N)C(CC)C)C)CCCNC(=[NH2+])N)CCCC[NH3+])CO)CCCC[NH3+])CCCC[NH3+])CCSC)CC(C)C)CO)CC(=O)[O-])C(CC)C)Cc5ccc(O)cc5)C(CC)C)CCCC[NH3+])Cc5ccccc5)Cc5ccc(O)cc5)CCC(=O)[O-])CC(=O)N)CCC(=O)[O-])CO)CC(C)C)CCC(=O)N)C)CC(C)C)CCCC[NH3+])CCC(=O)N)CC(=O)N)CC(=O)[O-])CC(=O)[O-])Cc5ccc(O)cc5)CCCC[NH3+])CO)CC(C)C)C(CC)C)CC(C)C)CCCNC(=[NH2+])N)CC(C)C)Cc5nc[nH]c5)CCC(=O)N)Cc5ccc(O)cc5)C(O)C)CC(=O)[O-])CCC4)CC(C)C)C(CC)C)CC(=O)[O-])CC(C)C)C(CC)C)Cc4ccc(O)cc4)CCC3)CCC2)CO)CC(=O)N)CCCC[NH3+])CC(C)C)CCC(=O)N)CC(C)C)CCCC[NH3+])CCC1)CC(=O)N)CCC(=O)N)CS)CC(C)C)CCCNC(=[NH2+])N)C(C)C)C(C)C)C)CC(=O)[O-])C.OCCO.[UH+3].[Zn+2].[Zn+2].O.O.O.O.O.O.O.O.O.O.O.O.O.O.O.O.O.O.O.O.O.O.O.O.O.O.O.O.O.O.O.O.O.O.O.O.O.O.O.O.O.O.O.O.O.O.O.O.O.O.O.O.O.O.O.O.O.O.O.O.O.O.O.O.O.O.O.O.O.O.O.O.O.O.O.O.O.O.O.O.O.O.O.O.O.O.O.O.O.O.O.O.O.O.O.O.O.O.O.O.O.O.O.O.O.O.O.O.O.O.O.O.O.O.O.O.O.O.O.O.O.O.O.O.O.O.O.O.O.O.O.O.O.O.O.O.O.O.O.O.O.O

>  <rseq>
1

>  <mseq>
17

>  <S>
-7.8446445

>  <rmsd_refine>
1.4924817

>  <E_conf>
-126.24818

>  <E_place>
-107.97428

>  <E_score1>
-12.073158

>  <E_refine>
-37.661438

>  <E_score2>
-7.8446445

>  <Field_2>
GF07

>  <pseq>
17

>  <%C>
100

>  <a_heavy>
31

>  <h_logP>
3.7946937

>  <Weight>
417.48398

>  <E_orig>
1.6

>  <PLIF_raw>
[[49,52,37,46,44,42,40,38],[3756,3751,3036,3036,3036,3036,3036,3036],[263,263,219,219,219,219,219,219],[3,4,10,10,10,10,10,10],[0.7,2.4,1.2,1.2,1.2,1.2,1.2,1.2]]

>  <FP:PLIF>
21 25 14 15 16

>  <PLIF_ligidx>
[[37,46,44,42,40,38],[37,46,44,42,40,38],49,52,52]

$$$$

  MOE2020           3D

 56 59  0  0  1  0  0  0  0  0999 V2000
   -3.8770   11.0550   16.3610 N   0  0  0  0  0  0  0  0  0  0  0  0
   -4.3570   11.9630   16.2550 H   0  0  0  0  0  0  0  0  0  0  0  0
   -3.1870   10.7780   15.6470 H   0  0  0  0  0  0  0  0  0  0  0  0
   -3.9860   10.3390   17.5160 C   0  0  0  0  0  0  0  0  0  0  0  0
   -3.3280    9.3090   17.6050 O   0  0  0  0  0  0  0  0  0  0  0  0
   -4.8970   10.7950   18.5650 C   0  0  0  0  0  0  0  0  0  0  0  0
   -5.9470    9.9500   18.9550 C   0  0  0  0  0  0  0  0  0  0  0  0
   -6.0820    9.0060   18.4990 H   0  0  0  0  0  0  0  0  0  0  0  0
   -6.7990   10.3480   19.9710 C   0  0  0  0  0  0  0  0  0  0  0  0
   -7.8010    9.5170   20.3470 F   0  0  0  0  0  0  0  0  0  0  0  0
   -6.6550   11.5640   20.6190 C   0  0  0  0  0  0  0  0  0  0  0  0
   -7.3130   11.8460   21.3950 H   0  0  0  0  0  0  0  0  0  0  0  0
   -5.6250   12.4100   20.2320 C   0  0  0  0  0  0  0  0  0  0  0  0
   -5.5160   13.3460   20.7180 H   0  0  0  0  0  0  0  0  0  0  0  0
   -4.7410   12.0390   19.2160 C   0  0  0  0  0  0  0  0  0  0  0  0
   -3.6570   13.0240   18.8250 C   0  0  0  0  0  0  0  0  0  0  0  0
   -4.1500   13.8170   18.2840 H   0  0  0  0  0  0  0  0  0  0  0  0
   -2.9610   12.6000   18.1190 H   0  0  0  0  0  0  0  0  0  0  0  0
   -2.9360   13.6190   19.9520 N   0  0  0  0  0  0  0  0  0  0  0  0
   -3.4640   14.3090   20.5040 H   0  0  0  0  0  0  0  0  0  0  0  0
   -1.5710   13.6490   20.0950 C   0  0  0  0  0  0  0  0  0  0  0  0
   -1.0480   14.4450   20.8790 O   0  0  0  0  0  0  0  0  0  0  0  0
   -0.8320   12.7370   19.3780 N   0  0  0  0  0  0  0  0  0  0  0  0
   -1.3600   12.0820   18.7840 H   0  0  0  0  0  0  0  0  0  0  0  0
    0.4230   12.2260   19.9230 C   0  0  2  0  0  0  0  0  0  0  0  0
    1.1740   11.3060   18.9320 C   0  0  0  0  0  0  0  0  0  0  0  0
    2.2450   11.4790   19.0480 H   0  0  0  0  0  0  0  0  0  0  0  0
    0.8920   11.4980   17.8970 H   0  0  0  0  0  0  0  0  0  0  0  0
    0.8470    9.8540   19.3460 C   0  0  1  0  0  0  0  0  0  0  0  0
    1.9700    8.9270   19.3400 N   0  0  0  0  0  0  0  0  0  0  0  0
    2.2220    8.5400   20.2610 H   0  0  0  0  0  0  0  0  0  0  0  0
    2.4160    8.2660   18.2330 C   0  0  0  0  0  0  0  0  0  0  0  0
    2.2150    8.7660   17.1360 O   0  0  0  0  0  0  0  0  0  0  0  0
    3.1120    6.9960   18.4250 C   0  0  0  0  0  0  0  0  0  0  0  0
    2.8130    6.1770   19.5290 C   0  0  0  0  0  0  0  0  0  0  0  0
    2.0710    6.4690   20.2280 H   0  0  0  0  0  0  0  0  0  0  0  0
    3.4730    4.9700   19.7120 C   0  0  0  0  0  0  0  0  0  0  0  0
    3.2340    4.3460   20.5310 H   0  0  0  0  0  0  0  0  0  0  0  0
    4.4470    4.5950   18.7960 C   0  0  0  0  0  0  0  0  0  0  0  0
    5.1100    3.4350   18.9860 F   0  0  0  0  0  0  0  0  0  0  0  0
    4.7580    5.3690   17.6860 C   0  0  0  0  0  0  0  0  0  0  0  0
    5.4950    5.0490   16.9960 H   0  0  0  0  0  0  0  0  0  0  0  0
    4.0790    6.5660   17.4990 C   0  0  0  0  0  0  0  0  0  0  0  0
    4.2970    7.1530   16.6470 H   0  0  0  0  0  0  0  0  0  0  0  0
    0.3340    9.9940   20.7480 C   0  0  0  0  0  0  0  0  0  0  0  0
    0.0860    8.9790   21.6650 C   0  0  0  0  0  0  0  0  0  0  0  0
    0.2390    7.9650   21.4010 H   0  0  0  0  0  0  0  0  0  0  0  0
   -0.3680    9.3170   22.9340 C   0  0  0  0  0  0  0  0  0  0  0  0
   -0.5620    8.5620   23.6420 H   0  0  0  0  0  0  0  0  0  0  0  0
   -0.5740   10.6490   23.2760 C   0  0  0  0  0  0  0  0  0  0  0  0
   -0.9320   10.8940   24.2360 H   0  0  0  0  0  0  0  0  0  0  0  0
   -0.3190   11.6580   22.3550 C   0  0  0  0  0  0  0  0  0  0  0  0
   -0.4770   12.6710   22.6190 H   0  0  0  0  0  0  0  0  0  0  0  0
    0.1310   11.3150   21.0850 C   0  0  0  0  0  0  0  0  0  0  0  0
    1.0600   13.0470   20.2240 H   0  0  0  0  0  0  0  0  0  0  0  0
    0.0500    9.4800   18.7190 H   0  0  0  0  0  0  0  0  0  0  0  0
  1  2  1  0  0  0  0
  1  3  1  0  0  0  0
  1  4  1  0  0  0  0
  4  5  2  0  0  0  0
  4  6  1  0  0  0  0
  6  7  2  0  0  0  0
  6 15  1  0  0  0  0
  7  8  1  0  0  0  0
  7  9  1  0  0  0  0
  9 10  1  0  0  0  0
  9 11  2  0  0  0  0
 11 12  1  0  0  0  0
 11 13  1  0  0  0  0
 13 14  1  0  0  0  0
 13 15  2  0  0  0  0
 15 16  1  0  0  0  0
 16 17  1  0  0  0  0
 16 18  1  0  0  0  0
 16 19  1  0  0  0  0
 19 20  1  0  0  0  0
 19 21  1  0  0  0  0
 21 22  2  0  0  0  0
 21 23  1  0  0  0  0
 23 24  1  0  0  0  0
 23 25  1  0  0  0  0
 25 26  1  0  0  0  0
 25 54  1  0  0  0  0
 25 55  1  0  0  0  0
 26 27  1  0  0  0  0
 26 28  1  0  0  0  0
 26 29  1  0  0  0  0
 29 30  1  0  0  0  0
 29 45  1  0  0  0  0
 29 56  1  0  0  0  0
 30 31  1  0  0  0  0
 30 32  1  0  0  0  0
 32 33  2  0  0  0  0
 32 34  1  0  0  0  0
 34 35  1  0  0  0  0
 34 43  2  0  0  0  0
 35 36  1  0  0  0  0
 35 37  2  0  0  0  0
 37 38  1  0  0  0  0
 37 39  1  0  0  0  0
 39 40  1  0  0  0  0
 39 41  2  0  0  0  0
 41 42  1  0  0  0  0
 41 43  1  0  0  0  0
 43 44  1  0  0  0  0
 45 46  1  0  0  0  0
 45 54  2  0  0  0  0
 46 47  1  0  0  0  0
 46 48  2  0  0  0  0
 48 49  1  0  0  0  0
 48 50  1  0  0  0  0
 50 51  1  0  0  0  0
 50 52  2  0  0  0  0
 52 53  1  0  0  0  0
 52 54  1  0  0  0  0
M  END
>  <receptor>
S(=O)(=O)([O-])[O-].S(CCC(NC(=O)C(NC(=O)C(NC(=O)CNC(=O)C(NC(=O)C1N(C(=O)C(NC(=O)C(NC(=O)C(NC(=O)C(NC(=O)C(NC(=O)C(NC(=O)C(NC(=O)C(NC(=O)C(NC(=O)C(NC(=O)C(NC(=O)C(NC(=O)C(NC(=O)C(NC(=O)C(NC(=O)C(NC(=O)C(NC(=O)C(NC(=O)C(NC(=O)CNC(=O)C(NC(=O)C(NC(=O)C(NC(=O)C(NC(=O)C(NC(=O)C(NC(=O)C(NC(=O)C(NC(=O)C(NC(=O)C(NC(=O)C(NC(=O)C(NC(=O)C(NC(=O)C)CCCC[NH3+])C(C)C)C(O)C)CCC(=O)N)CCC(=O)[O-])CCC(=O)N)Cc2ccccc2)CCC(=O)[O-])CC(C)C)Cc2ccc(O)cc2)CS)CCC(=O)[O-])CCSC)CO)C(O)C)Cc2ccccc2)CCC(=O)N)CC(C)C)C[S-])CCCC[NH3+])C(CC)C)C[S-])C)CCC(=O)[O-])CC(=O)N)CC(=O)[O-])CCCC[NH3+])CC(=O)[O-])C(C)C)CCCC[NH3+])C(CC)C)CCC(=O)[O-])CCC1)C[S-])Cc1nc[n-]c1)CC(C)C)C(=O)NC(C(=O)NC(C(=O)NC(C(=O)NC(C(=O)NC(C(=O)NC(C(=O)NC(C(=O)NC(C(=O)NC(C(=O)NC(C(=O)NC(C(=O)NC(C(=O)NCC(=O)NC(C(=O)NCC(=O)NC(C(=O)N1C(C(=O)NC(C(=O)NC(C(=O)NC(C(=O)NC(C(=O)NC(C(=O)NC(C(=O)NC(C(=O)NCC(=O)NC(C(=O)NC(C(=O)N2C(C(=O)NC(C(=O)NC(C(=O)NC(C(=O)NC(C(=O)N3C(C(=O)NC(C(=O)NC(C(=O)[O-])CC(=O)[O-])Cc4ccccc4)CCC3)CC(=O)[O-])C(C)C)C(CC)C)C(CC)C)CCC2)CCC(=O)[O-])C(O)C)CCCC[NH3+])C(CC)C)CCC(=O)[O-])CS)CCCNC(=[NH2+])N)C[S-])Cc2ccccc2)CCC1)C[S-])CCC(=O)N)CC(=O)[O-])CO)CCC(=O)[O-])CCC(=O)N)Cc1c2c([nH]c1)cccc2)C)C(O)C)CC(C)C)C[S-])CO)C(O)C)C[S-])C.S(CCC(NC(=O)C(NC(=O)C(NC(=O)C(NC(=O)C(NC(=O)C(NC(=O)C(NC(=O)C(NC(=O)C(NC(=O)C(NC(=O)C(NC(=O)C(NC(=O)C(NC(=O)C(NC(=O)C(NC(=O)C(NC(=O)C[NH3+])CCC(=O)N)C)C)C)CC(=O)[O-])CCCNC(=[NH2+])N)CCCNC(=[NH2+])N)C(O)C)C(C)C)CCC(=O)[O-])CCCC[NH3+])C(O)C)Cc1c2c([nH]c1)cccc2)C)CC(C)C)C(=O)NC(C(=O)NC(C(=O)NC(C(=O)NC(C(=O)NC(C(=O)NC(C(=O)NC(C(=O)NC(C(=O)NC(C(=O)N1C(C(=O)NC(C(=O)NC(C(=O)NC(C(=O)NC(C(=O)NC(C(=O)NC(C(=O)NC(C(=O)N2C(C(=O)N3C(C(=O)NC(C(=O)NC(C(=O)NC(C(=O)NC(C(=O)NC(C(=O)NC(C(=O)N4C(C(=O)NC(C(=O)NC(C(=O)NC(C(=O)NC(C(=O)NC(C(=O)NC(C(=O)NC(C(=O)NC(C(=O)NC(C(=O)NC(C(=O)NC(C(=O)NC(C(=O)NC(C(=O)NC(C(=O)NC(C(=O)NC(C(=O)NC(C(=O)NC(C(=O)NC(C(=O)NC(C(=O)NC(C(=O)NC(C(=O)NC(C(=O)NC(C(=O)NC(C(=O)NC(C(=O)NC(C(=O)NC(C(=O)NC(C(=O)NC(C(=O)NC(C(=O)NC(C(=O)NC(C(=O)NC(C(=O)NC(C(=O)NC(C(=O)NC(C(=O)NC(C(=O)NC(C(=O)NC(C(=O)NC(C(=O)NC(C(=O)NC(C(=O)NC(C(=O)NC(C(=O)NC(C(=O)NC(C(=O)NC(C(=O)NCC(=O)NC(C(=O)NC(C(=O)NC(C(=O)NC(C(=O)NC(C(=O)NC(C(=O)NC(C(=O)NC(C(=O)NC(C(=O)NC(C(=O)NC(C(=O)NC(C(=O)NC(C(=O)NC(C(=O)NC(C(=O)NC(C(=O)NC(C(=O)NC(C(=O)NC(C(=O)NC(C(=O)NC(C(=O)NC(C(=O)NC(C(=O)NC(C(=O)NC(C(=O)NC(C(=O)NC(C(=O)NC(C(=O)NC(C(=O)NC(C(=O)NC(C(=O)NC(C(=O)NC(C(=O)N5C(C(=O)NC(C(=O)NCC(=O)NC(C(=O)NC(C(=O)NC(C(=O)NCC(=O)NC(C(=O)NC(C(=O)NC(C(=O)NC(C(=O)NC(C(=O)NC(C(=O)NC(C(=O)NC(C(=O)NC(C(=O)NC(C(=O)NC(C(=O)NC(C(=O)NC(C(=O)NC(C(=O)NC(C(=O)NC(C(=O)NC(C(=O)NC(C(=O)NCC(=O)NC(C(=O)NC(C(=O)NC(C(=O)NC(C(=O)NC(C(=O)N6C(C(=O)NC(C(=O)NC(C(=O)NC(C(=O)NC(C(=O)NC(C(=O)NC(C(=O)NC(C(=O)NC(C(=O)NC(C(=O)NC(C(=O)NC(C(=O)NC(C(=O)NC(C(=O)NC(C(=O)NC(C(=O)NC(C(=O)NCC(=O)NC(C(=O)NC(C(=O)NC(C(=O)NC(C(=O)NC(C(=O)NC(C(=O)NC(C(=O)NC(C(=O)NC(C(=O)NC(C(=O)NC(C(=O)NC(C(=O)NC(C(=O)NC(C(=O)NC(C(=O)NC(C(=O)NC(C(=O)NC(C(=O)NC(C(=O)NC(C(=O)NC(C(=O)NC(C(=O)NC(C(=O)NC(C(=O)NC(C(=O)NC(C(=O)NC(C(=O)NC(C(=O)NC(C(=O)NC(C(=O)NC(C(=O)N7C(C(=O)NC(C(=O)NCC(=O)NC(C(=O)NC(C(=O)NC(C(=O)NC(C(=O)NC(C(=O)NC(C(=O)NC(C(=O)NC(C(=O)NC(C(=O)NC(C(=O)NC(C(=O)NC(C(=O)NC(C(=O)N8C(C(=O)NCC(=O)NC(C(=O)NC(C(=O)NC(C(=O)NC(C(=O)NC(C(=O)NC(C(=O)NC(C(=O)NC(C(=O)NC(C(=O)NC(C(=O)NC(C(=O)NC(C(=O)NC(C(=O)NC(C(=O)NC(C(=O)NC(C(=O)NC(C(=O)NC(C(=O)NC(C(=O)NC(C(=O)N9C(C(=O)NCC(=O)NC(C(=O)NC(C(=O)NC(C(=O)NC(C(=O)NC(C(=O)NC(C(=O)NC(C(=O)NC(C(=O)NC(C(=O)NC(C(=O)NC(C(=O)NCC(=O)NC(C(=O)NC(C(=O)NC(C(=O)NC(C(=O)NCC(=O)NC(C(=O)NC(C(=O)NC(C(=O)NCC(=O)NC(C(=O)NCC(=O)NC(C(=O)NC(C(=O)NC(C(=O)NC(C(=O)NC(C(=O)NC(C(=O)N%10C(C(=O)NC(C(=O)NC(C(=O)NC(C(=O)N%11C(C(=O)NC(C(=O)NC(C(=O)NC(C(=O)NC(C(=O)NC(C(=O)NC(C(=O)NC(C(=O)NCC(=O)NC(C(=O)NC(C(=O)NC(C(=O)NCC(=O)NC(C(=O)NC(C(=O)NC(C(=O)NC(C(=O)N%12C(C(=O)NC(C(=O)NCC(=O)NC(C(=O)NC(C(=O)NC(C(=O)NC(C(=O)NC)CC(=O)N)Cc%13ccc(O)cc%13)CO)CCCNC(=[NH2+])N)CC(=O)[O-])CCC%12)Cc%12ccc(O)cc%12)CC(C)C)Cc%12ccc(O)cc%12)Cc%12ccccc%12)CCC(=O)[O-])C)CO)CC(=O)[O-])C(CC)C)CC(C)C)C)CCC(=O)N)Cc%12ccccc%12)CC(C)C)CCC%11)CCCC[NH3+])CC(=O)N)Cc%11[nH]cnc%11)CCC%10)C(CC)C)C(O)C)CCC(=O)N)CC(C)C)C(CC)C)CC(=O)N)CC(=O)[O-])C(O)C)C(C)C)Cc%10ccc(O)cc%10)C(CC)C)C)Cc%10c%11c([nH]c%10)cccc%11)CCC(=O)N)CC(C)C)CCCNC(=[NH2+])N)C(O)C)CS)CO)CC(C)C)CCCNC(=[NH2+])N)Cc%10ccccc%10)C(CC)C)Cc%10ccc(O)cc%10)CO)CCC9)CCCC[NH3+])C(O)C)CO)Cc9ccc(O)cc9)CCCC[NH3+])CCC(=O)N)CC(C)C)CCCNC(=[NH2+])N)C)CCCC[NH3+])C(C)C)CCC(=O)[O-])CC(=O)[O-])Cc9ccc(O)cc9)C(O)C)CC(C)C)Cc9ccccc9)C)CCSC)Cc9ccc(O)cc9)CCC8)Cc8nc[nH]c8)C(O)C)C(C)C)C)CC(C)C)Cc8ccccc8)CC(=O)N)Cc8c9c([nH]c8)cccc9)CC(=O)N)CCCNC(=[NH2+])N)CC(C)C)C(CC)C)CO)Cc8c9c([nH]c8)cccc9)CCC7)CCC(=O)N)Cc7ccccc7)CC(C)C)CCCNC(=[NH2+])N)C(O)C)Cc7ccccc7)C(CC)C)CC(=O)[O-])Cc7ccccc7)CCC(=O)[O-])Cc7ccccc7)C(C)C)CO)C(CC)C)Cc7ccc(O)cc7)CC(=O)[O-])CC(=O)N)CS)C(O)C)CC(C)C)CC(=O)[O-])C(CC)C)C(O)C)CO)CCCC[NH3+])CC(C)C)C)CCSC)C)CCC(=O)[O-])CC(C)C)CO)CO)C(CC)C)CCC(=O)N)Cc7nc[nH]c7)C(C)C)CCC(=O)[O-])Cc7nc[nH]c7)CC(C)C)CS)CCC(=O)N)CCCNC(=[NH2+])N)Cc7ccccc7)C(C)C)CCCC[NH3+])Cc7c8c([nH]c7)cccc8)CCC6)C(C)C)C(CC)C)C(O)C)CCCC[NH3+])CC(=O)[O-])Cc6ccccc6)Cc6ccccc6)CCCC[NH3+])CCCNC(=[NH2+])N)Cc6c7c([nH]c6)cccc7)Cc6ccccc6)CCC(=O)[O-])C)C)CC(=O)[O-])C)CCCC[NH3+])C(O)C)C(CC)C)CCCNC(=[NH2+])N)Cc6ccccc6)CC(=O)N)CC(=O)[O-])CCC(=O)N)Cc6ccccc6)CCC(=O)N)CC(=O)N)CCC5)Cc5ccccc5)C(CC)C)C)CCCC[NH3+])C(CC)C)CCC(=O)[O-])C)CC(C)C)CCSC)Cc5nc[nH]c5)CO)Cc5ccccc5)C(CC)C)CC(C)C)CO)CC(C)C)CCCC[NH3+])C(O)C)CC(C)C)CC(=O)N)CCCNC(=[NH2+])N)CCCNC(=[NH2+])N)CC(=O)[O-])CCC(=O)N)CO)CCC(=O)N)CCC(=O)[O-])CCC(=O)[O-])Cc5ccc(O)cc5)CCSC)CCCNC(=[NH2+])N)CCC(=O)[O-])CCCC[NH3+])CCC(=O)[O-])CCCC[NH3+])Cc5ccccc5)CC(C)C)CCCNC(=[NH2+])N)C(CC)C)C)CCCNC(=[NH2+])N)CCCC[NH3+])CO)CCCC[NH3+])CCCC[NH3+])CCSC)CC(C)C)CO)CC(=O)[O-])C(CC)C)Cc5ccc(O)cc5)C(CC)C)CCCC[NH3+])Cc5ccccc5)Cc5ccc(O)cc5)CCC(=O)[O-])CC(=O)N)CCC(=O)[O-])CO)CC(C)C)CCC(=O)N)C)CC(C)C)CCCC[NH3+])CCC(=O)N)CC(=O)N)CC(=O)[O-])CC(=O)[O-])Cc5ccc(O)cc5)CCCC[NH3+])CO)CC(C)C)C(CC)C)CC(C)C)CCCNC(=[NH2+])N)CC(C)C)Cc5nc[nH]c5)CCC(=O)N)Cc5ccc(O)cc5)C(O)C)CC(=O)[O-])CCC4)CC(C)C)C(CC)C)CC(=O)[O-])CC(C)C)C(CC)C)Cc4ccc(O)cc4)CCC3)CCC2)CO)CC(=O)N)CCCC[NH3+])CC(C)C)CCC(=O)N)CC(C)C)CCCC[NH3+])CCC1)CC(=O)N)CCC(=O)N)CS)CC(C)C)CCCNC(=[NH2+])N)C(C)C)C(C)C)C)CC(=O)[O-])C.OCCO.[UH+3].[Zn+2].[Zn+2].O.O.O.O.O.O.O.O.O.O.O.O.O.O.O.O.O.O.O.O.O.O.O.O.O.O.O.O.O.O.O.O.O.O.O.O.O.O.O.O.O.O.O.O.O.O.O.O.O.O.O.O.O.O.O.O.O.O.O.O.O.O.O.O.O.O.O.O.O.O.O.O.O.O.O.O.O.O.O.O.O.O.O.O.O.O.O.O.O.O.O.O.O.O.O.O.O.O.O.O.O.O.O.O.O.O.O.O.O.O.O.O.O.O.O.O.O.O.O.O.O.O.O.O.O.O.O.O.O.O.O.O.O.O.O.O.O.O.O.O.O.O

>  <rseq>
1

>  <mseq>
18

>  <S>
-7.9506259

>  <rmsd_refine>
2.2260685

>  <E_conf>
-162.49887

>  <E_place>
-90.028214

>  <E_score1>
-11.714532

>  <E_refine>
-41.575493

>  <E_score2>
-7.9506259

>  <Field_2>
GF08

>  <pseq>
18

>  <%C>
100

>  <a_heavy>
34

>  <h_logP>
2.8424416

>  <Weight>
464.47198

>  <E_orig>
3.4319317

>  <PLIF_raw>
[[1,33],[3851,3751],[268,263],[1,4],[0.5,3.7]]

>  <FP:PLIF>
15 16 10

>  <PLIF_ligidx>
[33,33,1]

$$$$

  MOE2020           3D

 53 56  0  0  1  0  0  0  0  0999 V2000
   -1.0430   13.1110   19.7890 C   0  0  0  0  0  0  0  0  0  0  0  0
   -1.5110   12.3820   20.4510 H   0  0  0  0  0  0  0  0  0  0  0  0
   -0.8380   12.6270   18.8340 H   0  0  0  0  0  0  0  0  0  0  0  0
   -1.7640   13.9100   19.6120 H   0  0  0  0  0  0  0  0  0  0  0  0
    0.2360   13.6560   20.3950 C   0  0  0  0  0  0  0  0  0  0  0  0
    0.4360   14.9670   20.3100 N   0  0  0  0  0  0  0  0  0  0  0  0
    1.5550   15.4570   20.8280 C   0  0  0  0  0  0  0  0  0  0  0  0
    1.7210   16.5010   20.7590 H   0  0  0  0  0  0  0  0  0  0  0  0
    2.4880   14.6310   21.4520 C   0  0  0  0  0  0  0  0  0  0  0  0
    4.0660   15.3500   22.2020 Br  0  0  0  0  0  0  0  0  0  0  0  0
    2.3000   13.3230   21.5480 N   0  0  0  0  0  0  0  0  0  0  0  0
    1.1830   12.8150   21.0120 C   0  0  0  0  0  0  0  0  0  0  0  0
    1.0000   11.3710   21.0870 C   0  0  0  0  0  0  0  0  0  0  0  0
    0.4420   10.7770   22.2270 C   0  0  0  0  0  0  0  0  0  0  0  0
    0.1330   11.3840   23.0380 H   0  0  0  0  0  0  0  0  0  0  0  0
    0.2840    9.3950   22.3020 C   0  0  0  0  0  0  0  0  0  0  0  0
   -0.1450    8.9590   23.1670 H   0  0  0  0  0  0  0  0  0  0  0  0
    0.6810    8.5850   21.2400 C   0  0  0  0  0  0  0  0  0  0  0  0
    0.5510    7.5370   21.2900 H   0  0  0  0  0  0  0  0  0  0  0  0
    1.2330    9.1700   20.1050 C   0  0  0  0  0  0  0  0  0  0  0  0
    1.3780   10.5410   20.0260 C   0  0  0  0  0  0  0  0  0  0  0  0
    1.9480   10.9480   18.6920 C   0  0  0  0  0  0  0  0  0  0  0  0
    1.3620   11.7410   18.2260 H   0  0  0  0  0  0  0  0  0  0  0  0
    2.9830   11.2670   18.8040 H   0  0  0  0  0  0  0  0  0  0  0  0
    1.8740    9.6640   17.8590 C   0  0  0  0  0  0  0  0  0  0  0  0
    2.7390    9.5300   17.2240 H   0  0  0  0  0  0  0  0  0  0  0  0
    0.9760    9.7270   17.2470 H   0  0  0  0  0  0  0  0  0  0  0  0
    1.6910    8.4920   18.8350 C   0  0  1  0  0  0  0  0  0  0  0  0
    2.8980    7.6680   18.9850 N   0  0  0  0  0  0  0  0  0  0  0  0
    3.8110    8.1340   18.8980 H   0  0  0  0  0  0  0  0  0  0  0  0
    2.8590    6.3940   19.5070 C   0  0  0  0  0  0  0  0  0  0  0  0
    1.8060    5.8550   19.8290 O   0  0  0  0  0  0  0  0  0  0  0  0
    4.0290    5.6980   19.6710 N   0  0  0  0  0  0  0  0  0  0  0  0
    3.9330    4.7460   20.0510 H   0  0  0  0  0  0  0  0  0  0  0  0
    5.3350    6.0240   19.1080 C   0  0  0  0  0  0  0  0  0  0  0  0
    5.4210    7.0890   18.9720 H   0  0  0  0  0  0  0  0  0  0  0  0
    6.0920    5.7610   19.8330 H   0  0  0  0  0  0  0  0  0  0  0  0
    5.6660    5.3590   17.7830 C   0  0  0  0  0  0  0  0  0  0  0  0
    4.8710    4.3240   17.2840 C   0  0  0  0  0  0  0  0  0  0  0  0
    4.0580    3.9470   17.8470 H   0  0  0  0  0  0  0  0  0  0  0  0
    5.1260    3.7790   16.0340 C   0  0  0  0  0  0  0  0  0  0  0  0
    4.5090    3.0120   15.6550 H   0  0  0  0  0  0  0  0  0  0  0  0
    6.1900    4.2690   15.2920 C   0  0  0  0  0  0  0  0  0  0  0  0
    6.4180    3.7560   14.0600 F   0  0  0  0  0  0  0  0  0  0  0  0
    7.0240    5.2650   15.7730 C   0  0  0  0  0  0  0  0  0  0  0  0
    7.8360    5.6060   15.1870 H   0  0  0  0  0  0  0  0  0  0  0  0
    6.7770    5.8090   17.0400 C   0  0  0  0  0  0  0  0  0  0  0  0
    7.6760    6.8310   17.5670 C   0  0  0  0  0  0  0  0  0  0  0  0
    8.4090    6.5410   18.6770 N   0  0  0  0  0  0  0  0  0  0  0  0
    9.0900    7.2250   19.0450 H   0  0  0  0  0  0  0  0  0  0  0  0
    8.3630    5.6070   19.1130 H   0  0  0  0  0  0  0  0  0  0  0  0
    7.8090    7.9400   17.0680 O   0  0  0  0  0  0  0  0  0  0  0  0
    0.9080    7.8760   18.4340 H   0  0  0  0  0  0  0  0  0  0  0  0
  1  2  1  0  0  0  0
  1  3  1  0  0  0  0
  1  4  1  0  0  0  0
  1  5  1  0  0  0  0
  5  6  2  0  0  0  0
  5 12  1  0  0  0  0
  6  7  1  0  0  0  0
  7  8  1  0  0  0  0
  7  9  2  0  0  0  0
  9 10  1  0  0  0  0
  9 11  1  0  0  0  0
 11 12  2  0  0  0  0
 12 13  1  0  0  0  0
 13 14  1  0  0  0  0
 13 21  2  0  0  0  0
 14 15  1  0  0  0  0
 14 16  2  0  0  0  0
 16 17  1  0  0  0  0
 16 18  1  0  0  0  0
 18 19  1  0  0  0  0
 18 20  2  0  0  0  0
 20 21  1  0  0  0  0
 20 28  1  0  0  0  0
 21 22  1  0  0  0  0
 22 23  1  0  0  0  0
 22 24  1  0  0  0  0
 22 25  1  0  0  0  0
 25 26  1  0  0  0  0
 25 27  1  0  0  0  0
 25 28  1  0  0  0  0
 28 29  1  0  0  0  0
 28 53  1  0  0  0  0
 29 30  1  0  0  0  0
 29 31  1  0  0  0  0
 31 32  2  0  0  0  0
 31 33  1  0  0  0  0
 33 34  1  0  0  0  0
 33 35  1  0  0  0  0
 35 36  1  0  0  0  0
 35 37  1  0  0  0  0
 35 38  1  0  0  0  0
 38 39  1  0  0  0  0
 38 47  2  0  0  0  0
 39 40  1  0  0  0  0
 39 41  2  0  0  0  0
 41 42  1  0  0  0  0
 41 43  1  0  0  0  0
 43 44  1  0  0  0  0
 43 45  2  0  0  0  0
 45 46  1  0  0  0  0
 45 47  1  0  0  0  0
 47 48  1  0  0  0  0
 48 49  1  0  0  0  0
 48 52  2  0  0  0  0
 49 50  1  0  0  0  0
 49 51  1  0  0  0  0
M  END
>  <receptor>
S(=O)(=O)([O-])[O-].S(CCC(NC(=O)C(NC(=O)C(NC(=O)CNC(=O)C(NC(=O)C1N(C(=O)C(NC(=O)C(NC(=O)C(NC(=O)C(NC(=O)C(NC(=O)C(NC(=O)C(NC(=O)C(NC(=O)C(NC(=O)C(NC(=O)C(NC(=O)C(NC(=O)C(NC(=O)C(NC(=O)C(NC(=O)C(NC(=O)C(NC(=O)C(NC(=O)C(NC(=O)CNC(=O)C(NC(=O)C(NC(=O)C(NC(=O)C(NC(=O)C(NC(=O)C(NC(=O)C(NC(=O)C(NC(=O)C(NC(=O)C(NC(=O)C(NC(=O)C(NC(=O)C(NC(=O)C)CCCC[NH3+])C(C)C)C(O)C)CCC(=O)N)CCC(=O)[O-])CCC(=O)N)Cc2ccccc2)CCC(=O)[O-])CC(C)C)Cc2ccc(O)cc2)CS)CCC(=O)[O-])CCSC)CO)C(O)C)Cc2ccccc2)CCC(=O)N)CC(C)C)C[S-])CCCC[NH3+])C(CC)C)C[S-])C)CCC(=O)[O-])CC(=O)N)CC(=O)[O-])CCCC[NH3+])CC(=O)[O-])C(C)C)CCCC[NH3+])C(CC)C)CCC(=O)[O-])CCC1)C[S-])Cc1nc[n-]c1)CC(C)C)C(=O)NC(C(=O)NC(C(=O)NC(C(=O)NC(C(=O)NC(C(=O)NC(C(=O)NC(C(=O)NC(C(=O)NC(C(=O)NC(C(=O)NC(C(=O)NC(C(=O)NCC(=O)NC(C(=O)NCC(=O)NC(C(=O)N1C(C(=O)NC(C(=O)NC(C(=O)NC(C(=O)NC(C(=O)NC(C(=O)NC(C(=O)NC(C(=O)NCC(=O)NC(C(=O)NC(C(=O)N2C(C(=O)NC(C(=O)NC(C(=O)NC(C(=O)NC(C(=O)N3C(C(=O)NC(C(=O)NC(C(=O)[O-])CC(=O)[O-])Cc4ccccc4)CCC3)CC(=O)[O-])C(C)C)C(CC)C)C(CC)C)CCC2)CCC(=O)[O-])C(O)C)CCCC[NH3+])C(CC)C)CCC(=O)[O-])CS)CCCNC(=[NH2+])N)C[S-])Cc2ccccc2)CCC1)C[S-])CCC(=O)N)CC(=O)[O-])CO)CCC(=O)[O-])CCC(=O)N)Cc1c2c([nH]c1)cccc2)C)C(O)C)CC(C)C)C[S-])CO)C(O)C)C[S-])C.S(CCC(NC(=O)C(NC(=O)C(NC(=O)C(NC(=O)C(NC(=O)C(NC(=O)C(NC(=O)C(NC(=O)C(NC(=O)C(NC(=O)C(NC(=O)C(NC(=O)C(NC(=O)C(NC(=O)C(NC(=O)C(NC(=O)C[NH3+])CCC(=O)N)C)C)C)CC(=O)[O-])CCCNC(=[NH2+])N)CCCNC(=[NH2+])N)C(O)C)C(C)C)CCC(=O)[O-])CCCC[NH3+])C(O)C)Cc1c2c([nH]c1)cccc2)C)CC(C)C)C(=O)NC(C(=O)NC(C(=O)NC(C(=O)NC(C(=O)NC(C(=O)NC(C(=O)NC(C(=O)NC(C(=O)NC(C(=O)N1C(C(=O)NC(C(=O)NC(C(=O)NC(C(=O)NC(C(=O)NC(C(=O)NC(C(=O)NC(C(=O)N2C(C(=O)N3C(C(=O)NC(C(=O)NC(C(=O)NC(C(=O)NC(C(=O)NC(C(=O)NC(C(=O)N4C(C(=O)NC(C(=O)NC(C(=O)NC(C(=O)NC(C(=O)NC(C(=O)NC(C(=O)NC(C(=O)NC(C(=O)NC(C(=O)NC(C(=O)NC(C(=O)NC(C(=O)NC(C(=O)NC(C(=O)NC(C(=O)NC(C(=O)NC(C(=O)NC(C(=O)NC(C(=O)NC(C(=O)NC(C(=O)NC(C(=O)NC(C(=O)NC(C(=O)NC(C(=O)NC(C(=O)NC(C(=O)NC(C(=O)NC(C(=O)NC(C(=O)NC(C(=O)NC(C(=O)NC(C(=O)NC(C(=O)NC(C(=O)NC(C(=O)NC(C(=O)NC(C(=O)NC(C(=O)NC(C(=O)NC(C(=O)NC(C(=O)NC(C(=O)NC(C(=O)NC(C(=O)NC(C(=O)NC(C(=O)NC(C(=O)NCC(=O)NC(C(=O)NC(C(=O)NC(C(=O)NC(C(=O)NC(C(=O)NC(C(=O)NC(C(=O)NC(C(=O)NC(C(=O)NC(C(=O)NC(C(=O)NC(C(=O)NC(C(=O)NC(C(=O)NC(C(=O)NC(C(=O)NC(C(=O)NC(C(=O)NC(C(=O)NC(C(=O)NC(C(=O)NC(C(=O)NC(C(=O)NC(C(=O)NC(C(=O)NC(C(=O)NC(C(=O)NC(C(=O)NC(C(=O)NC(C(=O)NC(C(=O)NC(C(=O)NC(C(=O)N5C(C(=O)NC(C(=O)NCC(=O)NC(C(=O)NC(C(=O)NC(C(=O)NCC(=O)NC(C(=O)NC(C(=O)NC(C(=O)NC(C(=O)NC(C(=O)NC(C(=O)NC(C(=O)NC(C(=O)NC(C(=O)NC(C(=O)NC(C(=O)NC(C(=O)NC(C(=O)NC(C(=O)NC(C(=O)NC(C(=O)NC(C(=O)NC(C(=O)NCC(=O)NC(C(=O)NC(C(=O)NC(C(=O)NC(C(=O)NC(C(=O)N6C(C(=O)NC(C(=O)NC(C(=O)NC(C(=O)NC(C(=O)NC(C(=O)NC(C(=O)NC(C(=O)NC(C(=O)NC(C(=O)NC(C(=O)NC(C(=O)NC(C(=O)NC(C(=O)NC(C(=O)NC(C(=O)NC(C(=O)NCC(=O)NC(C(=O)NC(C(=O)NC(C(=O)NC(C(=O)NC(C(=O)NC(C(=O)NC(C(=O)NC(C(=O)NC(C(=O)NC(C(=O)NC(C(=O)NC(C(=O)NC(C(=O)NC(C(=O)NC(C(=O)NC(C(=O)NC(C(=O)NC(C(=O)NC(C(=O)NC(C(=O)NC(C(=O)NC(C(=O)NC(C(=O)NC(C(=O)NC(C(=O)NC(C(=O)NC(C(=O)NC(C(=O)NC(C(=O)NC(C(=O)NC(C(=O)N7C(C(=O)NC(C(=O)NCC(=O)NC(C(=O)NC(C(=O)NC(C(=O)NC(C(=O)NC(C(=O)NC(C(=O)NC(C(=O)NC(C(=O)NC(C(=O)NC(C(=O)NC(C(=O)NC(C(=O)NC(C(=O)N8C(C(=O)NCC(=O)NC(C(=O)NC(C(=O)NC(C(=O)NC(C(=O)NC(C(=O)NC(C(=O)NC(C(=O)NC(C(=O)NC(C(=O)NC(C(=O)NC(C(=O)NC(C(=O)NC(C(=O)NC(C(=O)NC(C(=O)NC(C(=O)NC(C(=O)NC(C(=O)NC(C(=O)NC(C(=O)N9C(C(=O)NCC(=O)NC(C(=O)NC(C(=O)NC(C(=O)NC(C(=O)NC(C(=O)NC(C(=O)NC(C(=O)NC(C(=O)NC(C(=O)NC(C(=O)NC(C(=O)NCC(=O)NC(C(=O)NC(C(=O)NC(C(=O)NC(C(=O)NCC(=O)NC(C(=O)NC(C(=O)NC(C(=O)NCC(=O)NC(C(=O)NCC(=O)NC(C(=O)NC(C(=O)NC(C(=O)NC(C(=O)NC(C(=O)NC(C(=O)N%10C(C(=O)NC(C(=O)NC(C(=O)NC(C(=O)N%11C(C(=O)NC(C(=O)NC(C(=O)NC(C(=O)NC(C(=O)NC(C(=O)NC(C(=O)NC(C(=O)NCC(=O)NC(C(=O)NC(C(=O)NC(C(=O)NCC(=O)NC(C(=O)NC(C(=O)NC(C(=O)NC(C(=O)N%12C(C(=O)NC(C(=O)NCC(=O)NC(C(=O)NC(C(=O)NC(C(=O)NC(C(=O)NC)CC(=O)N)Cc%13ccc(O)cc%13)CO)CCCNC(=[NH2+])N)CC(=O)[O-])CCC%12)Cc%12ccc(O)cc%12)CC(C)C)Cc%12ccc(O)cc%12)Cc%12ccccc%12)CCC(=O)[O-])C)CO)CC(=O)[O-])C(CC)C)CC(C)C)C)CCC(=O)N)Cc%12ccccc%12)CC(C)C)CCC%11)CCCC[NH3+])CC(=O)N)Cc%11[nH]cnc%11)CCC%10)C(CC)C)C(O)C)CCC(=O)N)CC(C)C)C(CC)C)CC(=O)N)CC(=O)[O-])C(O)C)C(C)C)Cc%10ccc(O)cc%10)C(CC)C)C)Cc%10c%11c([nH]c%10)cccc%11)CCC(=O)N)CC(C)C)CCCNC(=[NH2+])N)C(O)C)CS)CO)CC(C)C)CCCNC(=[NH2+])N)Cc%10ccccc%10)C(CC)C)Cc%10ccc(O)cc%10)CO)CCC9)CCCC[NH3+])C(O)C)CO)Cc9ccc(O)cc9)CCCC[NH3+])CCC(=O)N)CC(C)C)CCCNC(=[NH2+])N)C)CCCC[NH3+])C(C)C)CCC(=O)[O-])CC(=O)[O-])Cc9ccc(O)cc9)C(O)C)CC(C)C)Cc9ccccc9)C)CCSC)Cc9ccc(O)cc9)CCC8)Cc8nc[nH]c8)C(O)C)C(C)C)C)CC(C)C)Cc8ccccc8)CC(=O)N)Cc8c9c([nH]c8)cccc9)CC(=O)N)CCCNC(=[NH2+])N)CC(C)C)C(CC)C)CO)Cc8c9c([nH]c8)cccc9)CCC7)CCC(=O)N)Cc7ccccc7)CC(C)C)CCCNC(=[NH2+])N)C(O)C)Cc7ccccc7)C(CC)C)CC(=O)[O-])Cc7ccccc7)CCC(=O)[O-])Cc7ccccc7)C(C)C)CO)C(CC)C)Cc7ccc(O)cc7)CC(=O)[O-])CC(=O)N)CS)C(O)C)CC(C)C)CC(=O)[O-])C(CC)C)C(O)C)CO)CCCC[NH3+])CC(C)C)C)CCSC)C)CCC(=O)[O-])CC(C)C)CO)CO)C(CC)C)CCC(=O)N)Cc7nc[nH]c7)C(C)C)CCC(=O)[O-])Cc7nc[nH]c7)CC(C)C)CS)CCC(=O)N)CCCNC(=[NH2+])N)Cc7ccccc7)C(C)C)CCCC[NH3+])Cc7c8c([nH]c7)cccc8)CCC6)C(C)C)C(CC)C)C(O)C)CCCC[NH3+])CC(=O)[O-])Cc6ccccc6)Cc6ccccc6)CCCC[NH3+])CCCNC(=[NH2+])N)Cc6c7c([nH]c6)cccc7)Cc6ccccc6)CCC(=O)[O-])C)C)CC(=O)[O-])C)CCCC[NH3+])C(O)C)C(CC)C)CCCNC(=[NH2+])N)Cc6ccccc6)CC(=O)N)CC(=O)[O-])CCC(=O)N)Cc6ccccc6)CCC(=O)N)CC(=O)N)CCC5)Cc5ccccc5)C(CC)C)C)CCCC[NH3+])C(CC)C)CCC(=O)[O-])C)CC(C)C)CCSC)Cc5nc[nH]c5)CO)Cc5ccccc5)C(CC)C)CC(C)C)CO)CC(C)C)CCCC[NH3+])C(O)C)CC(C)C)CC(=O)N)CCCNC(=[NH2+])N)CCCNC(=[NH2+])N)CC(=O)[O-])CCC(=O)N)CO)CCC(=O)N)CCC(=O)[O-])CCC(=O)[O-])Cc5ccc(O)cc5)CCSC)CCCNC(=[NH2+])N)CCC(=O)[O-])CCCC[NH3+])CCC(=O)[O-])CCCC[NH3+])Cc5ccccc5)CC(C)C)CCCNC(=[NH2+])N)C(CC)C)C)CCCNC(=[NH2+])N)CCCC[NH3+])CO)CCCC[NH3+])CCCC[NH3+])CCSC)CC(C)C)CO)CC(=O)[O-])C(CC)C)Cc5ccc(O)cc5)C(CC)C)CCCC[NH3+])Cc5ccccc5)Cc5ccc(O)cc5)CCC(=O)[O-])CC(=O)N)CCC(=O)[O-])CO)CC(C)C)CCC(=O)N)C)CC(C)C)CCCC[NH3+])CCC(=O)N)CC(=O)N)CC(=O)[O-])CC(=O)[O-])Cc5ccc(O)cc5)CCCC[NH3+])CO)CC(C)C)C(CC)C)CC(C)C)CCCNC(=[NH2+])N)CC(C)C)Cc5nc[nH]c5)CCC(=O)N)Cc5ccc(O)cc5)C(O)C)CC(=O)[O-])CCC4)CC(C)C)C(CC)C)CC(=O)[O-])CC(C)C)C(CC)C)Cc4ccc(O)cc4)CCC3)CCC2)CO)CC(=O)N)CCCC[NH3+])CC(C)C)CCC(=O)N)CC(C)C)CCCC[NH3+])CCC1)CC(=O)N)CCC(=O)N)CS)CC(C)C)CCCNC(=[NH2+])N)C(C)C)C(C)C)C)CC(=O)[O-])C.OCCO.[UH+3].[Zn+2].[Zn+2].O.O.O.O.O.O.O.O.O.O.O.O.O.O.O.O.O.O.O.O.O.O.O.O.O.O.O.O.O.O.O.O.O.O.O.O.O.O.O.O.O.O.O.O.O.O.O.O.O.O.O.O.O.O.O.O.O.O.O.O.O.O.O.O.O.O.O.O.O.O.O.O.O.O.O.O.O.O.O.O.O.O.O.O.O.O.O.O.O.O.O.O.O.O.O.O.O.O.O.O.O.O.O.O.O.O.O.O.O.O.O.O.O.O.O.O.O.O.O.O.O.O.O.O.O.O.O.O.O.O.O.O.O.O.O.O.O.O.O.O.O.O

>  <rseq>
1

>  <mseq>
19

>  <S>
-7.9476881

>  <rmsd_refine>
1.7288595

>  <E_conf>
-80.37146

>  <E_place>
-73.788933

>  <E_score1>
-12.137165

>  <E_refine>
-41.404449

>  <E_score2>
-7.9476881

>  <Field_2>
GF09

>  <pseq>
19

>  <%C>
99.966217

>  <a_heavy>
32

>  <h_logP>
3.1541574

>  <Weight>
498.35599

>  <E_orig>
2

>  <PLIF_raw>
[[11,52,52],[1777,3722,6288],[141,260,220669],[2,2,6],[0.9,2,0.7]]

>  <FP:PLIF>
18 26 27 28

>  <PLIF_ligidx>
[11,52,52,52]

$$$$

  MOE2020           3D

 60 63  0  0  1  0  0  0  0  0999 V2000
    4.6450    3.9220   16.8050 C   0  0  0  0  0  0  0  0  0  0  0  0
    5.4140    3.8550   16.0340 H   0  0  0  0  0  0  0  0  0  0  0  0
    3.7120    3.5600   16.3790 H   0  0  0  0  0  0  0  0  0  0  0  0
    4.9230    3.2560   17.6200 H   0  0  0  0  0  0  0  0  0  0  0  0
    4.5010    5.3730   17.2910 C   0  0  1  0  0  0  0  0  0  0  0  0
    3.4860    5.4900   18.3440 N   0  0  0  0  0  0  0  0  0  0  0  0
    3.7110    4.9130   19.1700 H   0  0  0  0  0  0  0  0  0  0  0  0
    2.8440    6.7000   18.6710 C   0  0  0  0  0  0  0  0  0  0  0  0
    2.7590    7.7730   17.7680 C   0  0  0  0  0  0  0  0  0  0  0  0
    3.2080    7.7130   16.8160 H   0  0  0  0  0  0  0  0  0  0  0  0
    2.0720    8.9280   18.1220 C   0  0  0  0  0  0  0  0  0  0  0  0
    1.9990    9.7390   17.4430 H   0  0  0  0  0  0  0  0  0  0  0  0
    1.4780    9.0150   19.3760 C   0  0  0  0  0  0  0  0  0  0  0  0
    1.5680    7.9660   20.2690 C   0  0  0  0  0  0  0  0  0  0  0  0
    2.2490    6.8010   19.9360 C   0  0  0  0  0  0  0  0  0  0  0  0
    2.3100    5.9970   20.6240 H   0  0  0  0  0  0  0  0  0  0  0  0
    0.8440    8.2840   21.5470 C   0  0  0  0  0  0  0  0  0  0  0  0
    0.0050    7.6020   21.6740 H   0  0  0  0  0  0  0  0  0  0  0  0
    1.5290    8.2300   22.3940 H   0  0  0  0  0  0  0  0  0  0  0  0
    0.3190    9.7180   21.3670 C   0  0  0  0  0  0  0  0  0  0  0  0
   -0.7660    9.7360   21.4710 H   0  0  0  0  0  0  0  0  0  0  0  0
    0.7630   10.3690   22.1220 H   0  0  0  0  0  0  0  0  0  0  0  0
    0.7110   10.1770   19.9460 C   0  0  1  0  0  0  0  0  0  0  0  0
    1.5500   11.3600   19.9730 N   0  0  0  0  0  0  0  0  0  0  0  0
    2.4610   11.2430   20.4350 H   0  0  0  0  0  0  0  0  0  0  0  0
    1.4680   12.3240   19.0150 C   0  0  0  0  0  0  0  0  0  0  0  0
    0.4540   12.5330   18.3480 O   0  0  0  0  0  0  0  0  0  0  0  0
    2.6190   13.0430   18.8770 N   0  0  0  0  0  0  0  0  0  0  0  0
    3.4440   12.7680   19.4280 H   0  0  0  0  0  0  0  0  0  0  0  0
    2.6950   14.2600   18.0880 C   0  0  0  0  0  0  0  0  0  0  0  0
    3.1230   14.0230   17.1240 H   0  0  0  0  0  0  0  0  0  0  0  0
    1.7060   14.6380   17.8720 H   0  0  0  0  0  0  0  0  0  0  0  0
    3.5100   15.3400   18.7740 C   0  0  0  0  0  0  0  0  0  0  0  0
    4.6580   15.8030   18.1260 C   0  0  0  0  0  0  0  0  0  0  0  0
    4.9280   15.4060   17.1810 H   0  0  0  0  0  0  0  0  0  0  0  0
    5.4610   16.7750   18.7120 C   0  0  0  0  0  0  0  0  0  0  0  0
    6.3350   17.1210   18.2220 H   0  0  0  0  0  0  0  0  0  0  0  0
    5.0960   17.2800   19.9510 C   0  0  0  0  0  0  0  0  0  0  0  0
    5.8650   18.2420   20.5170 F   0  0  0  0  0  0  0  0  0  0  0  0
    3.9690   16.8400   20.6260 C   0  0  0  0  0  0  0  0  0  0  0  0
    3.7250   17.2430   21.5760 H   0  0  0  0  0  0  0  0  0  0  0  0
    3.1570   15.8590   20.0420 C   0  0  0  0  0  0  0  0  0  0  0  0
    1.9880   15.3990   20.7920 C   0  0  0  0  0  0  0  0  0  0  0  0
    0.7510   15.4840   20.2280 N   0  0  0  0  0  0  0  0  0  0  0  0
   -0.0690   15.0920   20.7150 H   0  0  0  0  0  0  0  0  0  0  0  0
    0.6340   15.7860   19.2480 H   0  0  0  0  0  0  0  0  0  0  0  0
    2.0600   14.9600   21.9360 O   0  0  0  0  0  0  0  0  0  0  0  0
    5.8340    5.9290   17.7510 C   0  0  0  0  0  0  0  0  0  0  0  0
    6.4670    6.9390   17.0280 C   0  0  0  0  0  0  0  0  0  0  0  0
    6.0140    7.3270   16.1530 H   0  0  0  0  0  0  0  0  0  0  0  0
    7.6970    7.4410   17.4500 C   0  0  0  0  0  0  0  0  0  0  0  0
    8.1650    8.2170   16.9060 H   0  0  0  0  0  0  0  0  0  0  0  0
    8.3180    6.9280   18.5850 C   0  0  0  0  0  0  0  0  0  0  0  0
    9.2510    7.3170   18.8980 H   0  0  0  0  0  0  0  0  0  0  0  0
    7.7100    5.9100   19.3100 C   0  0  0  0  0  0  0  0  0  0  0  0
    8.1750    5.5070   20.1730 H   0  0  0  0  0  0  0  0  0  0  0  0
    6.4730    5.4450   18.8920 C   0  0  0  0  0  0  0  0  0  0  0  0
    5.8730    4.4910   19.6370 F   0  0  0  0  0  0  0  0  0  0  0  0
    4.1760    5.9350   16.4280 H   0  0  0  0  0  0  0  0  0  0  0  0
   -0.1820   10.3450   19.3580 H   0  0  0  0  0  0  0  0  0  0  0  0
  1  2  1  0  0  0  0
  1  3  1  0  0  0  0
  1  4  1  0  0  0  0
  1  5  1  0  0  0  0
  5  6  1  0  0  0  0
  5 48  1  0  0  0  0
  5 59  1  0  0  0  0
  6  7  1  0  0  0  0
  6  8  1  0  0  0  0
  8  9  1  0  0  0  0
  8 15  2  0  0  0  0
  9 10  1  0  0  0  0
  9 11  2  0  0  0  0
 11 12  1  0  0  0  0
 11 13  1  0  0  0  0
 13 14  2  0  0  0  0
 13 23  1  0  0  0  0
 14 15  1  0  0  0  0
 14 17  1  0  0  0  0
 15 16  1  0  0  0  0
 17 18  1  0  0  0  0
 17 19  1  0  0  0  0
 17 20  1  0  0  0  0
 20 21  1  0  0  0  0
 20 22  1  0  0  0  0
 20 23  1  0  0  0  0
 23 24  1  0  0  0  0
 23 60  1  0  0  0  0
 24 25  1  0  0  0  0
 24 26  1  0  0  0  0
 26 27  2  0  0  0  0
 26 28  1  0  0  0  0
 28 29  1  0  0  0  0
 28 30  1  0  0  0  0
 30 31  1  0  0  0  0
 30 32  1  0  0  0  0
 30 33  1  0  0  0  0
 33 34  1  0  0  0  0
 33 42  2  0  0  0  0
 34 35  1  0  0  0  0
 34 36  2  0  0  0  0
 36 37  1  0  0  0  0
 36 38  1  0  0  0  0
 38 39  1  0  0  0  0
 38 40  2  0  0  0  0
 40 41  1  0  0  0  0
 40 42  1  0  0  0  0
 42 43  1  0  0  0  0
 43 44  1  0  0  0  0
 43 47  2  0  0  0  0
 44 45  1  0  0  0  0
 44 46  1  0  0  0  0
 48 49  1  0  0  0  0
 48 57  2  0  0  0  0
 49 50  1  0  0  0  0
 49 51  2  0  0  0  0
 51 52  1  0  0  0  0
 51 53  1  0  0  0  0
 53 54  1  0  0  0  0
 53 55  2  0  0  0  0
 55 56  1  0  0  0  0
 55 57  1  0  0  0  0
 57 58  1  0  0  0  0
M  END
>  <receptor>
S(=O)(=O)([O-])[O-].S(CCC(NC(=O)C(NC(=O)C(NC(=O)CNC(=O)C(NC(=O)C1N(C(=O)C(NC(=O)C(NC(=O)C(NC(=O)C(NC(=O)C(NC(=O)C(NC(=O)C(NC(=O)C(NC(=O)C(NC(=O)C(NC(=O)C(NC(=O)C(NC(=O)C(NC(=O)C(NC(=O)C(NC(=O)C(NC(=O)C(NC(=O)C(NC(=O)C(NC(=O)CNC(=O)C(NC(=O)C(NC(=O)C(NC(=O)C(NC(=O)C(NC(=O)C(NC(=O)C(NC(=O)C(NC(=O)C(NC(=O)C(NC(=O)C(NC(=O)C(NC(=O)C(NC(=O)C)CCCC[NH3+])C(C)C)C(O)C)CCC(=O)N)CCC(=O)[O-])CCC(=O)N)Cc2ccccc2)CCC(=O)[O-])CC(C)C)Cc2ccc(O)cc2)CS)CCC(=O)[O-])CCSC)CO)C(O)C)Cc2ccccc2)CCC(=O)N)CC(C)C)C[S-])CCCC[NH3+])C(CC)C)C[S-])C)CCC(=O)[O-])CC(=O)N)CC(=O)[O-])CCCC[NH3+])CC(=O)[O-])C(C)C)CCCC[NH3+])C(CC)C)CCC(=O)[O-])CCC1)C[S-])Cc1nc[n-]c1)CC(C)C)C(=O)NC(C(=O)NC(C(=O)NC(C(=O)NC(C(=O)NC(C(=O)NC(C(=O)NC(C(=O)NC(C(=O)NC(C(=O)NC(C(=O)NC(C(=O)NC(C(=O)NCC(=O)NC(C(=O)NCC(=O)NC(C(=O)N1C(C(=O)NC(C(=O)NC(C(=O)NC(C(=O)NC(C(=O)NC(C(=O)NC(C(=O)NC(C(=O)NCC(=O)NC(C(=O)NC(C(=O)N2C(C(=O)NC(C(=O)NC(C(=O)NC(C(=O)NC(C(=O)N3C(C(=O)NC(C(=O)NC(C(=O)[O-])CC(=O)[O-])Cc4ccccc4)CCC3)CC(=O)[O-])C(C)C)C(CC)C)C(CC)C)CCC2)CCC(=O)[O-])C(O)C)CCCC[NH3+])C(CC)C)CCC(=O)[O-])CS)CCCNC(=[NH2+])N)C[S-])Cc2ccccc2)CCC1)C[S-])CCC(=O)N)CC(=O)[O-])CO)CCC(=O)[O-])CCC(=O)N)Cc1c2c([nH]c1)cccc2)C)C(O)C)CC(C)C)C[S-])CO)C(O)C)C[S-])C.S(CCC(NC(=O)C(NC(=O)C(NC(=O)C(NC(=O)C(NC(=O)C(NC(=O)C(NC(=O)C(NC(=O)C(NC(=O)C(NC(=O)C(NC(=O)C(NC(=O)C(NC(=O)C(NC(=O)C(NC(=O)C(NC(=O)C[NH3+])CCC(=O)N)C)C)C)CC(=O)[O-])CCCNC(=[NH2+])N)CCCNC(=[NH2+])N)C(O)C)C(C)C)CCC(=O)[O-])CCCC[NH3+])C(O)C)Cc1c2c([nH]c1)cccc2)C)CC(C)C)C(=O)NC(C(=O)NC(C(=O)NC(C(=O)NC(C(=O)NC(C(=O)NC(C(=O)NC(C(=O)NC(C(=O)NC(C(=O)N1C(C(=O)NC(C(=O)NC(C(=O)NC(C(=O)NC(C(=O)NC(C(=O)NC(C(=O)NC(C(=O)N2C(C(=O)N3C(C(=O)NC(C(=O)NC(C(=O)NC(C(=O)NC(C(=O)NC(C(=O)NC(C(=O)N4C(C(=O)NC(C(=O)NC(C(=O)NC(C(=O)NC(C(=O)NC(C(=O)NC(C(=O)NC(C(=O)NC(C(=O)NC(C(=O)NC(C(=O)NC(C(=O)NC(C(=O)NC(C(=O)NC(C(=O)NC(C(=O)NC(C(=O)NC(C(=O)NC(C(=O)NC(C(=O)NC(C(=O)NC(C(=O)NC(C(=O)NC(C(=O)NC(C(=O)NC(C(=O)NC(C(=O)NC(C(=O)NC(C(=O)NC(C(=O)NC(C(=O)NC(C(=O)NC(C(=O)NC(C(=O)NC(C(=O)NC(C(=O)NC(C(=O)NC(C(=O)NC(C(=O)NC(C(=O)NC(C(=O)NC(C(=O)NC(C(=O)NC(C(=O)NC(C(=O)NC(C(=O)NC(C(=O)NC(C(=O)NC(C(=O)NCC(=O)NC(C(=O)NC(C(=O)NC(C(=O)NC(C(=O)NC(C(=O)NC(C(=O)NC(C(=O)NC(C(=O)NC(C(=O)NC(C(=O)NC(C(=O)NC(C(=O)NC(C(=O)NC(C(=O)NC(C(=O)NC(C(=O)NC(C(=O)NC(C(=O)NC(C(=O)NC(C(=O)NC(C(=O)NC(C(=O)NC(C(=O)NC(C(=O)NC(C(=O)NC(C(=O)NC(C(=O)NC(C(=O)NC(C(=O)NC(C(=O)NC(C(=O)NC(C(=O)NC(C(=O)N5C(C(=O)NC(C(=O)NCC(=O)NC(C(=O)NC(C(=O)NC(C(=O)NCC(=O)NC(C(=O)NC(C(=O)NC(C(=O)NC(C(=O)NC(C(=O)NC(C(=O)NC(C(=O)NC(C(=O)NC(C(=O)NC(C(=O)NC(C(=O)NC(C(=O)NC(C(=O)NC(C(=O)NC(C(=O)NC(C(=O)NC(C(=O)NC(C(=O)NCC(=O)NC(C(=O)NC(C(=O)NC(C(=O)NC(C(=O)NC(C(=O)N6C(C(=O)NC(C(=O)NC(C(=O)NC(C(=O)NC(C(=O)NC(C(=O)NC(C(=O)NC(C(=O)NC(C(=O)NC(C(=O)NC(C(=O)NC(C(=O)NC(C(=O)NC(C(=O)NC(C(=O)NC(C(=O)NC(C(=O)NCC(=O)NC(C(=O)NC(C(=O)NC(C(=O)NC(C(=O)NC(C(=O)NC(C(=O)NC(C(=O)NC(C(=O)NC(C(=O)NC(C(=O)NC(C(=O)NC(C(=O)NC(C(=O)NC(C(=O)NC(C(=O)NC(C(=O)NC(C(=O)NC(C(=O)NC(C(=O)NC(C(=O)NC(C(=O)NC(C(=O)NC(C(=O)NC(C(=O)NC(C(=O)NC(C(=O)NC(C(=O)NC(C(=O)NC(C(=O)NC(C(=O)NC(C(=O)N7C(C(=O)NC(C(=O)NCC(=O)NC(C(=O)NC(C(=O)NC(C(=O)NC(C(=O)NC(C(=O)NC(C(=O)NC(C(=O)NC(C(=O)NC(C(=O)NC(C(=O)NC(C(=O)NC(C(=O)NC(C(=O)N8C(C(=O)NCC(=O)NC(C(=O)NC(C(=O)NC(C(=O)NC(C(=O)NC(C(=O)NC(C(=O)NC(C(=O)NC(C(=O)NC(C(=O)NC(C(=O)NC(C(=O)NC(C(=O)NC(C(=O)NC(C(=O)NC(C(=O)NC(C(=O)NC(C(=O)NC(C(=O)NC(C(=O)NC(C(=O)N9C(C(=O)NCC(=O)NC(C(=O)NC(C(=O)NC(C(=O)NC(C(=O)NC(C(=O)NC(C(=O)NC(C(=O)NC(C(=O)NC(C(=O)NC(C(=O)NC(C(=O)NCC(=O)NC(C(=O)NC(C(=O)NC(C(=O)NC(C(=O)NCC(=O)NC(C(=O)NC(C(=O)NC(C(=O)NCC(=O)NC(C(=O)NCC(=O)NC(C(=O)NC(C(=O)NC(C(=O)NC(C(=O)NC(C(=O)NC(C(=O)N%10C(C(=O)NC(C(=O)NC(C(=O)NC(C(=O)N%11C(C(=O)NC(C(=O)NC(C(=O)NC(C(=O)NC(C(=O)NC(C(=O)NC(C(=O)NC(C(=O)NCC(=O)NC(C(=O)NC(C(=O)NC(C(=O)NCC(=O)NC(C(=O)NC(C(=O)NC(C(=O)NC(C(=O)N%12C(C(=O)NC(C(=O)NCC(=O)NC(C(=O)NC(C(=O)NC(C(=O)NC(C(=O)NC)CC(=O)N)Cc%13ccc(O)cc%13)CO)CCCNC(=[NH2+])N)CC(=O)[O-])CCC%12)Cc%12ccc(O)cc%12)CC(C)C)Cc%12ccc(O)cc%12)Cc%12ccccc%12)CCC(=O)[O-])C)CO)CC(=O)[O-])C(CC)C)CC(C)C)C)CCC(=O)N)Cc%12ccccc%12)CC(C)C)CCC%11)CCCC[NH3+])CC(=O)N)Cc%11[nH]cnc%11)CCC%10)C(CC)C)C(O)C)CCC(=O)N)CC(C)C)C(CC)C)CC(=O)N)CC(=O)[O-])C(O)C)C(C)C)Cc%10ccc(O)cc%10)C(CC)C)C)Cc%10c%11c([nH]c%10)cccc%11)CCC(=O)N)CC(C)C)CCCNC(=[NH2+])N)C(O)C)CS)CO)CC(C)C)CCCNC(=[NH2+])N)Cc%10ccccc%10)C(CC)C)Cc%10ccc(O)cc%10)CO)CCC9)CCCC[NH3+])C(O)C)CO)Cc9ccc(O)cc9)CCCC[NH3+])CCC(=O)N)CC(C)C)CCCNC(=[NH2+])N)C)CCCC[NH3+])C(C)C)CCC(=O)[O-])CC(=O)[O-])Cc9ccc(O)cc9)C(O)C)CC(C)C)Cc9ccccc9)C)CCSC)Cc9ccc(O)cc9)CCC8)Cc8nc[nH]c8)C(O)C)C(C)C)C)CC(C)C)Cc8ccccc8)CC(=O)N)Cc8c9c([nH]c8)cccc9)CC(=O)N)CCCNC(=[NH2+])N)CC(C)C)C(CC)C)CO)Cc8c9c([nH]c8)cccc9)CCC7)CCC(=O)N)Cc7ccccc7)CC(C)C)CCCNC(=[NH2+])N)C(O)C)Cc7ccccc7)C(CC)C)CC(=O)[O-])Cc7ccccc7)CCC(=O)[O-])Cc7ccccc7)C(C)C)CO)C(CC)C)Cc7ccc(O)cc7)CC(=O)[O-])CC(=O)N)CS)C(O)C)CC(C)C)CC(=O)[O-])C(CC)C)C(O)C)CO)CCCC[NH3+])CC(C)C)C)CCSC)C)CCC(=O)[O-])CC(C)C)CO)CO)C(CC)C)CCC(=O)N)Cc7nc[nH]c7)C(C)C)CCC(=O)[O-])Cc7nc[nH]c7)CC(C)C)CS)CCC(=O)N)CCCNC(=[NH2+])N)Cc7ccccc7)C(C)C)CCCC[NH3+])Cc7c8c([nH]c7)cccc8)CCC6)C(C)C)C(CC)C)C(O)C)CCCC[NH3+])CC(=O)[O-])Cc6ccccc6)Cc6ccccc6)CCCC[NH3+])CCCNC(=[NH2+])N)Cc6c7c([nH]c6)cccc7)Cc6ccccc6)CCC(=O)[O-])C)C)CC(=O)[O-])C)CCCC[NH3+])C(O)C)C(CC)C)CCCNC(=[NH2+])N)Cc6ccccc6)CC(=O)N)CC(=O)[O-])CCC(=O)N)Cc6ccccc6)CCC(=O)N)CC(=O)N)CCC5)Cc5ccccc5)C(CC)C)C)CCCC[NH3+])C(CC)C)CCC(=O)[O-])C)CC(C)C)CCSC)Cc5nc[nH]c5)CO)Cc5ccccc5)C(CC)C)CC(C)C)CO)CC(C)C)CCCC[NH3+])C(O)C)CC(C)C)CC(=O)N)CCCNC(=[NH2+])N)CCCNC(=[NH2+])N)CC(=O)[O-])CCC(=O)N)CO)CCC(=O)N)CCC(=O)[O-])CCC(=O)[O-])Cc5ccc(O)cc5)CCSC)CCCNC(=[NH2+])N)CCC(=O)[O-])CCCC[NH3+])CCC(=O)[O-])CCCC[NH3+])Cc5ccccc5)CC(C)C)CCCNC(=[NH2+])N)C(CC)C)C)CCCNC(=[NH2+])N)CCCC[NH3+])CO)CCCC[NH3+])CCCC[NH3+])CCSC)CC(C)C)CO)CC(=O)[O-])C(CC)C)Cc5ccc(O)cc5)C(CC)C)CCCC[NH3+])Cc5ccccc5)Cc5ccc(O)cc5)CCC(=O)[O-])CC(=O)N)CCC(=O)[O-])CO)CC(C)C)CCC(=O)N)C)CC(C)C)CCCC[NH3+])CCC(=O)N)CC(=O)N)CC(=O)[O-])CC(=O)[O-])Cc5ccc(O)cc5)CCCC[NH3+])CO)CC(C)C)C(CC)C)CC(C)C)CCCNC(=[NH2+])N)CC(C)C)Cc5nc[nH]c5)CCC(=O)N)Cc5ccc(O)cc5)C(O)C)CC(=O)[O-])CCC4)CC(C)C)C(CC)C)CC(=O)[O-])CC(C)C)C(CC)C)Cc4ccc(O)cc4)CCC3)CCC2)CO)CC(=O)N)CCCC[NH3+])CC(C)C)CCC(=O)N)CC(C)C)CCCC[NH3+])CCC1)CC(=O)N)CCC(=O)N)CS)CC(C)C)CCCNC(=[NH2+])N)C(C)C)C(C)C)C)CC(=O)[O-])C.OCCO.[UH+3].[Zn+2].[Zn+2].O.O.O.O.O.O.O.O.O.O.O.O.O.O.O.O.O.O.O.O.O.O.O.O.O.O.O.O.O.O.O.O.O.O.O.O.O.O.O.O.O.O.O.O.O.O.O.O.O.O.O.O.O.O.O.O.O.O.O.O.O.O.O.O.O.O.O.O.O.O.O.O.O.O.O.O.O.O.O.O.O.O.O.O.O.O.O.O.O.O.O.O.O.O.O.O.O.O.O.O.O.O.O.O.O.O.O.O.O.O.O.O.O.O.O.O.O.O.O.O.O.O.O.O.O.O.O.O.O.O.O.O.O.O.O.O.O.O.O.O.O.O

>  <rseq>
1

>  <mseq>
20

>  <S>
-8.3404741

>  <rmsd_refine>
1.9007114

>  <E_conf>
-177.66267

>  <E_place>
-39.344719

>  <E_score1>
-10.909258

>  <E_refine>
-46.101856

>  <E_score2>
-8.3404741

>  <Field_2>
GF10

>  <pseq>
20

>  <%C>
100

>  <a_heavy>
34

>  <h_logP>
3.2737873

>  <Weight>
464.51599

>  <E_orig>
1.400521

>  <PLIF_raw>
[[24,47,8,15,14,13,11,9],[5184,1774,5181,5181,5181,5181,5181,5181],[366,141,366,366,366,366,366,366],[1,2,10,10,10,10,10,10],[2.7,5.5,0.5,0.5,0.5,0.5,0.5,0.5]]

>  <FP:PLIF>
18 19 8 24 6

>  <PLIF_ligidx>
[47,47,24,24,[8,15,14,13,11,9]]

$$$$

  MOE2020           3D

 52 55  0  0  1  0  0  0  0  0999 V2000
    7.9210    4.7090   17.0850 C   0  0  0  0  0  0  0  0  0  0  0  0
    8.6460    4.0050   17.4690 H   0  0  0  0  0  0  0  0  0  0  0  0
    8.4280    5.6430   16.8990 H   0  0  0  0  0  0  0  0  0  0  0  0
    7.5790    4.3300   16.1320 H   0  0  0  0  0  0  0  0  0  0  0  0
    6.8280    4.8960   18.0100 N   0  0  0  0  0  0  0  0  0  0  0  0
    5.7030    4.1900   18.0510 C   0  0  0  0  0  0  0  0  0  0  0  0
    5.4970    3.3960   17.3800 H   0  0  0  0  0  0  0  0  0  0  0  0
    4.9940    4.7170   19.0630 C   0  0  0  0  0  0  0  0  0  0  0  0
    3.6220    4.2410   19.4760 C   0  0  0  0  0  0  0  0  0  0  0  0
    3.7650    3.3470   20.0690 H   0  0  0  0  0  0  0  0  0  0  0  0
    3.1620    3.8580   18.5780 H   0  0  0  0  0  0  0  0  0  0  0  0
    2.6820    5.1950   20.1900 N   0  3  0  0  0  0  0  0  0  0  0  0
    2.8610    5.0870   21.1780 H   0  0  0  0  0  0  0  0  0  0  0  0
    1.7420    4.8580   20.0320 H   0  0  0  0  0  0  0  0  0  0  0  0
    2.7260    6.6490   19.9070 C   0  0  2  0  0  0  0  0  0  0  0  0
    1.6330    7.3910   20.6850 C   0  0  0  0  0  0  0  0  0  0  0  0
    0.7310    6.7830   20.7230 H   0  0  0  0  0  0  0  0  0  0  0  0
    1.9590    7.5920   21.7040 H   0  0  0  0  0  0  0  0  0  0  0  0
    1.3340    8.6860   19.9140 C   0  0  1  0  0  0  0  0  0  0  0  0
    1.5980    9.9650   20.7380 C   0  0  0  0  0  0  0  0  0  0  0  0
    2.2280   10.6160   20.1530 H   0  0  0  0  0  0  0  0  0  0  0  0
    2.2060    9.7320   21.6010 H   0  0  0  0  0  0  0  0  0  0  0  0
    0.4080   10.7030   21.1670 N   0  0  0  0  0  0  0  0  0  0  0  0
   -0.5320   10.2760   22.0660 C   0  0  0  0  0  0  0  0  0  0  0  0
   -0.4870    9.3200   22.5230 H   0  0  0  0  0  0  0  0  0  0  0  0
   -1.4250   11.2790   22.2050 C   0  0  0  0  0  0  0  0  0  0  0  0
   -2.3010   11.3570   22.7990 H   0  0  0  0  0  0  0  0  0  0  0  0
   -1.0120   12.2850   21.3850 N   0  3  0  0  0  0  0  0  0  0  0  0
   -1.4930   13.1920   21.2400 H   0  0  0  0  0  0  0  0  0  0  0  0
    0.1080   11.9440   20.7530 C   0  0  0  0  0  0  0  0  0  0  0  0
    0.8760   12.7770   19.8400 C   0  0  0  0  0  0  0  0  0  0  0  0
    1.3840   14.0090   20.2730 C   0  0  0  0  0  0  0  0  0  0  0  0
    1.1650   14.3610   21.2470 H   0  0  0  0  0  0  0  0  0  0  0  0
    2.1910   14.7680   19.4330 C   0  0  0  0  0  0  0  0  0  0  0  0
    2.5810   15.6950   19.7670 H   0  0  0  0  0  0  0  0  0  0  0  0
    2.4920   14.3100   18.1540 C   0  0  0  0  0  0  0  0  0  0  0  0
    3.1140   14.8840   17.5150 H   0  0  0  0  0  0  0  0  0  0  0  0
    1.9690   13.1000   17.7070 C   0  0  0  0  0  0  0  0  0  0  0  0
    2.1880   12.7590   16.7300 H   0  0  0  0  0  0  0  0  0  0  0  0
    1.1550   12.3420   18.5380 C   0  0  0  0  0  0  0  0  0  0  0  0
    0.7540   11.4280   18.1830 H   0  0  0  0  0  0  0  0  0  0  0  0
    2.1740    8.5870   18.6290 C   0  0  0  0  0  0  0  0  0  0  0  0
    3.1050    9.1470   18.7380 H   0  0  0  0  0  0  0  0  0  0  0  0
    1.6190    8.9670   17.7700 H   0  0  0  0  0  0  0  0  0  0  0  0
    2.4950    7.1000   18.4570 C   0  0  1  0  0  0  0  0  0  0  0  0
    3.6190    6.9370   17.6190 O   0  0  0  0  0  0  0  0  0  0  0  0
    4.3910    7.3240   18.0440 H   0  0  0  0  0  0  0  0  0  0  0  0
    5.6940    5.7260   19.6220 N   0  0  0  0  0  0  0  0  0  0  0  0
    6.8230    5.8330   18.9670 N   0  0  0  0  0  0  0  0  0  0  0  0
    3.6910    7.0300   20.2230 H   0  0  0  0  0  0  0  0  0  0  0  0
    0.2830    8.7040   19.6360 H   0  0  0  0  0  0  0  0  0  0  0  0
    1.6430    6.5850   18.0250 H   0  0  0  0  0  0  0  0  0  0  0  0
  1  2  1  0  0  0  0
  1  3  1  0  0  0  0
  1  4  1  0  0  0  0
  1  5  1  0  0  0  0
  5  6  1  0  0  0  0
  5 49  1  0  0  0  0
  6  7  1  0  0  0  0
  6  8  2  0  0  0  0
  8  9  1  0  0  0  0
  8 48  1  0  0  0  0
  9 10  1  0  0  0  0
  9 11  1  0  0  0  0
  9 12  1  0  0  0  0
 12 13  1  0  0  0  0
 12 14  1  0  0  0  0
 12 15  1  0  0  0  0
 15 16  1  0  0  0  0
 15 45  1  0  0  0  0
 15 50  1  0  0  0  0
 16 17  1  0  0  0  0
 16 18  1  0  0  0  0
 16 19  1  0  0  0  0
 19 20  1  0  0  0  0
 19 42  1  0  0  0  0
 19 51  1  0  0  0  0
 20 21  1  0  0  0  0
 20 22  1  0  0  0  0
 20 23  1  0  0  0  0
 23 24  1  0  0  0  0
 23 30  1  0  0  0  0
 24 25  1  0  0  0  0
 24 26  2  0  0  0  0
 26 27  1  0  0  0  0
 26 28  1  0  0  0  0
 28 29  1  0  0  0  0
 28 30  2  0  0  0  0
 30 31  1  0  0  0  0
 31 32  1  0  0  0  0
 31 40  2  0  0  0  0
 32 33  1  0  0  0  0
 32 34  2  0  0  0  0
 34 35  1  0  0  0  0
 34 36  1  0  0  0  0
 36 37  1  0  0  0  0
 36 38  2  0  0  0  0
 38 39  1  0  0  0  0
 38 40  1  0  0  0  0
 40 41  1  0  0  0  0
 42 43  1  0  0  0  0
 42 44  1  0  0  0  0
 42 45  1  0  0  0  0
 45 46  1  0  0  0  0
 45 52  1  0  0  0  0
 46 47  1  0  0  0  0
 48 49  2  0  0  0  0
M  CHG  1  12   1
M  CHG  1  28   1
M  END
>  <receptor>
S(=O)(=O)([O-])[O-].S(CCC(NC(=O)C(NC(=O)C(NC(=O)CNC(=O)C(NC(=O)C1N(C(=O)C(NC(=O)C(NC(=O)C(NC(=O)C(NC(=O)C(NC(=O)C(NC(=O)C(NC(=O)C(NC(=O)C(NC(=O)C(NC(=O)C(NC(=O)C(NC(=O)C(NC(=O)C(NC(=O)C(NC(=O)C(NC(=O)C(NC(=O)C(NC(=O)C(NC(=O)CNC(=O)C(NC(=O)C(NC(=O)C(NC(=O)C(NC(=O)C(NC(=O)C(NC(=O)C(NC(=O)C(NC(=O)C(NC(=O)C(NC(=O)C(NC(=O)C(NC(=O)C(NC(=O)C)CCCC[NH3+])C(C)C)C(O)C)CCC(=O)N)CCC(=O)[O-])CCC(=O)N)Cc2ccccc2)CCC(=O)[O-])CC(C)C)Cc2ccc(O)cc2)CS)CCC(=O)[O-])CCSC)CO)C(O)C)Cc2ccccc2)CCC(=O)N)CC(C)C)C[S-])CCCC[NH3+])C(CC)C)C[S-])C)CCC(=O)[O-])CC(=O)N)CC(=O)[O-])CCCC[NH3+])CC(=O)[O-])C(C)C)CCCC[NH3+])C(CC)C)CCC(=O)[O-])CCC1)C[S-])Cc1nc[n-]c1)CC(C)C)C(=O)NC(C(=O)NC(C(=O)NC(C(=O)NC(C(=O)NC(C(=O)NC(C(=O)NC(C(=O)NC(C(=O)NC(C(=O)NC(C(=O)NC(C(=O)NC(C(=O)NCC(=O)NC(C(=O)NCC(=O)NC(C(=O)N1C(C(=O)NC(C(=O)NC(C(=O)NC(C(=O)NC(C(=O)NC(C(=O)NC(C(=O)NC(C(=O)NCC(=O)NC(C(=O)NC(C(=O)N2C(C(=O)NC(C(=O)NC(C(=O)NC(C(=O)NC(C(=O)N3C(C(=O)NC(C(=O)NC(C(=O)[O-])CC(=O)[O-])Cc4ccccc4)CCC3)CC(=O)[O-])C(C)C)C(CC)C)C(CC)C)CCC2)CCC(=O)[O-])C(O)C)CCCC[NH3+])C(CC)C)CCC(=O)[O-])CS)CCCNC(=[NH2+])N)C[S-])Cc2ccccc2)CCC1)C[S-])CCC(=O)N)CC(=O)[O-])CO)CCC(=O)[O-])CCC(=O)N)Cc1c2c([nH]c1)cccc2)C)C(O)C)CC(C)C)C[S-])CO)C(O)C)C[S-])C.S(CCC(NC(=O)C(NC(=O)C(NC(=O)C(NC(=O)C(NC(=O)C(NC(=O)C(NC(=O)C(NC(=O)C(NC(=O)C(NC(=O)C(NC(=O)C(NC(=O)C(NC(=O)C(NC(=O)C(NC(=O)C(NC(=O)C[NH3+])CCC(=O)N)C)C)C)CC(=O)[O-])CCCNC(=[NH2+])N)CCCNC(=[NH2+])N)C(O)C)C(C)C)CCC(=O)[O-])CCCC[NH3+])C(O)C)Cc1c2c([nH]c1)cccc2)C)CC(C)C)C(=O)NC(C(=O)NC(C(=O)NC(C(=O)NC(C(=O)NC(C(=O)NC(C(=O)NC(C(=O)NC(C(=O)NC(C(=O)N1C(C(=O)NC(C(=O)NC(C(=O)NC(C(=O)NC(C(=O)NC(C(=O)NC(C(=O)NC(C(=O)N2C(C(=O)N3C(C(=O)NC(C(=O)NC(C(=O)NC(C(=O)NC(C(=O)NC(C(=O)NC(C(=O)N4C(C(=O)NC(C(=O)NC(C(=O)NC(C(=O)NC(C(=O)NC(C(=O)NC(C(=O)NC(C(=O)NC(C(=O)NC(C(=O)NC(C(=O)NC(C(=O)NC(C(=O)NC(C(=O)NC(C(=O)NC(C(=O)NC(C(=O)NC(C(=O)NC(C(=O)NC(C(=O)NC(C(=O)NC(C(=O)NC(C(=O)NC(C(=O)NC(C(=O)NC(C(=O)NC(C(=O)NC(C(=O)NC(C(=O)NC(C(=O)NC(C(=O)NC(C(=O)NC(C(=O)NC(C(=O)NC(C(=O)NC(C(=O)NC(C(=O)NC(C(=O)NC(C(=O)NC(C(=O)NC(C(=O)NC(C(=O)NC(C(=O)NC(C(=O)NC(C(=O)NC(C(=O)NC(C(=O)NC(C(=O)NC(C(=O)NCC(=O)NC(C(=O)NC(C(=O)NC(C(=O)NC(C(=O)NC(C(=O)NC(C(=O)NC(C(=O)NC(C(=O)NC(C(=O)NC(C(=O)NC(C(=O)NC(C(=O)NC(C(=O)NC(C(=O)NC(C(=O)NC(C(=O)NC(C(=O)NC(C(=O)NC(C(=O)NC(C(=O)NC(C(=O)NC(C(=O)NC(C(=O)NC(C(=O)NC(C(=O)NC(C(=O)NC(C(=O)NC(C(=O)NC(C(=O)NC(C(=O)NC(C(=O)NC(C(=O)NC(C(=O)N5C(C(=O)NC(C(=O)NCC(=O)NC(C(=O)NC(C(=O)NC(C(=O)NCC(=O)NC(C(=O)NC(C(=O)NC(C(=O)NC(C(=O)NC(C(=O)NC(C(=O)NC(C(=O)NC(C(=O)NC(C(=O)NC(C(=O)NC(C(=O)NC(C(=O)NC(C(=O)NC(C(=O)NC(C(=O)NC(C(=O)NC(C(=O)NC(C(=O)NCC(=O)NC(C(=O)NC(C(=O)NC(C(=O)NC(C(=O)NC(C(=O)N6C(C(=O)NC(C(=O)NC(C(=O)NC(C(=O)NC(C(=O)NC(C(=O)NC(C(=O)NC(C(=O)NC(C(=O)NC(C(=O)NC(C(=O)NC(C(=O)NC(C(=O)NC(C(=O)NC(C(=O)NC(C(=O)NC(C(=O)NCC(=O)NC(C(=O)NC(C(=O)NC(C(=O)NC(C(=O)NC(C(=O)NC(C(=O)NC(C(=O)NC(C(=O)NC(C(=O)NC(C(=O)NC(C(=O)NC(C(=O)NC(C(=O)NC(C(=O)NC(C(=O)NC(C(=O)NC(C(=O)NC(C(=O)NC(C(=O)NC(C(=O)NC(C(=O)NC(C(=O)NC(C(=O)NC(C(=O)NC(C(=O)NC(C(=O)NC(C(=O)NC(C(=O)NC(C(=O)NC(C(=O)NC(C(=O)N7C(C(=O)NC(C(=O)NCC(=O)NC(C(=O)NC(C(=O)NC(C(=O)NC(C(=O)NC(C(=O)NC(C(=O)NC(C(=O)NC(C(=O)NC(C(=O)NC(C(=O)NC(C(=O)NC(C(=O)NC(C(=O)N8C(C(=O)NCC(=O)NC(C(=O)NC(C(=O)NC(C(=O)NC(C(=O)NC(C(=O)NC(C(=O)NC(C(=O)NC(C(=O)NC(C(=O)NC(C(=O)NC(C(=O)NC(C(=O)NC(C(=O)NC(C(=O)NC(C(=O)NC(C(=O)NC(C(=O)NC(C(=O)NC(C(=O)NC(C(=O)N9C(C(=O)NCC(=O)NC(C(=O)NC(C(=O)NC(C(=O)NC(C(=O)NC(C(=O)NC(C(=O)NC(C(=O)NC(C(=O)NC(C(=O)NC(C(=O)NC(C(=O)NCC(=O)NC(C(=O)NC(C(=O)NC(C(=O)NC(C(=O)NCC(=O)NC(C(=O)NC(C(=O)NC(C(=O)NCC(=O)NC(C(=O)NCC(=O)NC(C(=O)NC(C(=O)NC(C(=O)NC(C(=O)NC(C(=O)NC(C(=O)N%10C(C(=O)NC(C(=O)NC(C(=O)NC(C(=O)N%11C(C(=O)NC(C(=O)NC(C(=O)NC(C(=O)NC(C(=O)NC(C(=O)NC(C(=O)NC(C(=O)NCC(=O)NC(C(=O)NC(C(=O)NC(C(=O)NCC(=O)NC(C(=O)NC(C(=O)NC(C(=O)NC(C(=O)N%12C(C(=O)NC(C(=O)NCC(=O)NC(C(=O)NC(C(=O)NC(C(=O)NC(C(=O)NC)CC(=O)N)Cc%13ccc(O)cc%13)CO)CCCNC(=[NH2+])N)CC(=O)[O-])CCC%12)Cc%12ccc(O)cc%12)CC(C)C)Cc%12ccc(O)cc%12)Cc%12ccccc%12)CCC(=O)[O-])C)CO)CC(=O)[O-])C(CC)C)CC(C)C)C)CCC(=O)N)Cc%12ccccc%12)CC(C)C)CCC%11)CCCC[NH3+])CC(=O)N)Cc%11[nH]cnc%11)CCC%10)C(CC)C)C(O)C)CCC(=O)N)CC(C)C)C(CC)C)CC(=O)N)CC(=O)[O-])C(O)C)C(C)C)Cc%10ccc(O)cc%10)C(CC)C)C)Cc%10c%11c([nH]c%10)cccc%11)CCC(=O)N)CC(C)C)CCCNC(=[NH2+])N)C(O)C)CS)CO)CC(C)C)CCCNC(=[NH2+])N)Cc%10ccccc%10)C(CC)C)Cc%10ccc(O)cc%10)CO)CCC9)CCCC[NH3+])C(O)C)CO)Cc9ccc(O)cc9)CCCC[NH3+])CCC(=O)N)CC(C)C)CCCNC(=[NH2+])N)C)CCCC[NH3+])C(C)C)CCC(=O)[O-])CC(=O)[O-])Cc9ccc(O)cc9)C(O)C)CC(C)C)Cc9ccccc9)C)CCSC)Cc9ccc(O)cc9)CCC8)Cc8nc[nH]c8)C(O)C)C(C)C)C)CC(C)C)Cc8ccccc8)CC(=O)N)Cc8c9c([nH]c8)cccc9)CC(=O)N)CCCNC(=[NH2+])N)CC(C)C)C(CC)C)CO)Cc8c9c([nH]c8)cccc9)CCC7)CCC(=O)N)Cc7ccccc7)CC(C)C)CCCNC(=[NH2+])N)C(O)C)Cc7ccccc7)C(CC)C)CC(=O)[O-])Cc7ccccc7)CCC(=O)[O-])Cc7ccccc7)C(C)C)CO)C(CC)C)Cc7ccc(O)cc7)CC(=O)[O-])CC(=O)N)CS)C(O)C)CC(C)C)CC(=O)[O-])C(CC)C)C(O)C)CO)CCCC[NH3+])CC(C)C)C)CCSC)C)CCC(=O)[O-])CC(C)C)CO)CO)C(CC)C)CCC(=O)N)Cc7nc[nH]c7)C(C)C)CCC(=O)[O-])Cc7nc[nH]c7)CC(C)C)CS)CCC(=O)N)CCCNC(=[NH2+])N)Cc7ccccc7)C(C)C)CCCC[NH3+])Cc7c8c([nH]c7)cccc8)CCC6)C(C)C)C(CC)C)C(O)C)CCCC[NH3+])CC(=O)[O-])Cc6ccccc6)Cc6ccccc6)CCCC[NH3+])CCCNC(=[NH2+])N)Cc6c7c([nH]c6)cccc7)Cc6ccccc6)CCC(=O)[O-])C)C)CC(=O)[O-])C)CCCC[NH3+])C(O)C)C(CC)C)CCCNC(=[NH2+])N)Cc6ccccc6)CC(=O)N)CC(=O)[O-])CCC(=O)N)Cc6ccccc6)CCC(=O)N)CC(=O)N)CCC5)Cc5ccccc5)C(CC)C)C)CCCC[NH3+])C(CC)C)CCC(=O)[O-])C)CC(C)C)CCSC)Cc5nc[nH]c5)CO)Cc5ccccc5)C(CC)C)CC(C)C)CO)CC(C)C)CCCC[NH3+])C(O)C)CC(C)C)CC(=O)N)CCCNC(=[NH2+])N)CCCNC(=[NH2+])N)CC(=O)[O-])CCC(=O)N)CO)CCC(=O)N)CCC(=O)[O-])CCC(=O)[O-])Cc5ccc(O)cc5)CCSC)CCCNC(=[NH2+])N)CCC(=O)[O-])CCCC[NH3+])CCC(=O)[O-])CCCC[NH3+])Cc5ccccc5)CC(C)C)CCCNC(=[NH2+])N)C(CC)C)C)CCCNC(=[NH2+])N)CCCC[NH3+])CO)CCCC[NH3+])CCCC[NH3+])CCSC)CC(C)C)CO)CC(=O)[O-])C(CC)C)Cc5ccc(O)cc5)C(CC)C)CCCC[NH3+])Cc5ccccc5)Cc5ccc(O)cc5)CCC(=O)[O-])CC(=O)N)CCC(=O)[O-])CO)CC(C)C)CCC(=O)N)C)CC(C)C)CCCC[NH3+])CCC(=O)N)CC(=O)N)CC(=O)[O-])CC(=O)[O-])Cc5ccc(O)cc5)CCCC[NH3+])CO)CC(C)C)C(CC)C)CC(C)C)CCCNC(=[NH2+])N)CC(C)C)Cc5nc[nH]c5)CCC(=O)N)Cc5ccc(O)cc5)C(O)C)CC(=O)[O-])CCC4)CC(C)C)C(CC)C)CC(=O)[O-])CC(C)C)C(CC)C)Cc4ccc(O)cc4)CCC3)CCC2)CO)CC(=O)N)CCCC[NH3+])CC(C)C)CCC(=O)N)CC(C)C)CCCC[NH3+])CCC1)CC(=O)N)CCC(=O)N)CS)CC(C)C)CCCNC(=[NH2+])N)C(C)C)C(C)C)C)CC(=O)[O-])C.OCCO.[UH+3].[Zn+2].[Zn+2].O.O.O.O.O.O.O.O.O.O.O.O.O.O.O.O.O.O.O.O.O.O.O.O.O.O.O.O.O.O.O.O.O.O.O.O.O.O.O.O.O.O.O.O.O.O.O.O.O.O.O.O.O.O.O.O.O.O.O.O.O.O.O.O.O.O.O.O.O.O.O.O.O.O.O.O.O.O.O.O.O.O.O.O.O.O.O.O.O.O.O.O.O.O.O.O.O.O.O.O.O.O.O.O.O.O.O.O.O.O.O.O.O.O.O.O.O.O.O.O.O.O.O.O.O.O.O.O.O.O.O.O.O.O.O.O.O.O.O.O.O.O

>  <rseq>
1

>  <mseq>
21

>  <S>
-7.5527477

>  <rmsd_refine>
1.2898397

>  <E_conf>
19.508104

>  <E_place>
-102.67058

>  <E_score1>
-11.156312

>  <E_refine>
-41.890656

>  <E_score2>
-7.5527477

>  <Field_2>
LB01

>  <pseq>
21

>  <%C>
71.057823

>  <a_heavy>
26

>  <h_logP>
-3.3071904

>  <Weight>
354.45801

>  <E_orig>
0.63323057

>  <PLIF_raw>
[12,6369,220696,5,3.8]

>  <FP:PLIF>
29 30

>  <PLIF_ligidx>
[12,12]

$$$$

  MOE2020           3D

 55 58  0  0  1  0  0  0  0  0999 V2000
    8.3020    6.0150   19.2400 C   0  0  0  0  0  0  0  0  0  0  0  0
    9.1000    5.3080   19.4650 H   0  0  0  0  0  0  0  0  0  0  0  0
    7.5880    6.0140   20.0620 H   0  0  0  0  0  0  0  0  0  0  0  0
    8.7290    7.0130   19.1360 H   0  0  0  0  0  0  0  0  0  0  0  0
    7.6610    5.6630   18.0330 O   0  0  0  0  0  0  0  0  0  0  0  0
    7.1420    4.3430   18.0550 C   0  0  0  0  0  0  0  0  0  0  0  0
    6.8820    4.0510   17.0400 H   0  0  0  0  0  0  0  0  0  0  0  0
    7.9340    3.6620   18.3620 H   0  0  0  0  0  0  0  0  0  0  0  0
    5.9150    4.1640   18.9810 C   0  0  0  0  0  0  0  0  0  0  0  0
    6.2540    4.2530   20.0010 H   0  0  0  0  0  0  0  0  0  0  0  0
    5.5770    3.1420   18.8890 H   0  0  0  0  0  0  0  0  0  0  0  0
    4.7560    5.0640   18.8380 N   0  0  0  0  0  0  0  0  0  0  0  0
    3.6680    4.8880   19.5870 C   0  0  0  0  0  0  0  0  0  0  0  0
    3.3980    3.8790   20.2290 O   0  0  0  0  0  0  0  0  0  0  0  0
    2.7130    6.0520   19.4400 C   0  0  0  0  0  0  0  0  0  0  0  0
    1.6790    5.7200   19.4900 H   0  0  0  0  0  0  0  0  0  0  0  0
    2.9250    6.7970   20.2060 H   0  0  0  0  0  0  0  0  0  0  0  0
    3.0870    6.5760   18.0540 C   0  0  1  0  0  0  0  0  0  0  0  0
    2.8760    8.0790   17.8490 C   0  0  0  0  0  0  0  0  0  0  0  0
    3.0640    8.3030   16.8020 H   0  0  0  0  0  0  0  0  0  0  0  0
    3.5850    8.6270   18.4670 H   0  0  0  0  0  0  0  0  0  0  0  0
    1.5020    8.5110   18.1740 N   0  0  0  0  0  0  0  0  0  0  0  0
    1.2750    8.2530   19.1250 H   0  0  0  0  0  0  0  0  0  0  0  0
    1.3980    9.9670   18.0430 C   0  0  0  0  0  0  0  0  0  0  0  0
    1.9840   10.4410   18.8200 H   0  0  0  0  0  0  0  0  0  0  0  0
    1.8340   10.2770   17.1040 H   0  0  0  0  0  0  0  0  0  0  0  0
   -0.0290   10.4690   18.1010 C   0  0  0  0  0  0  0  0  0  0  0  0
   -0.5650   11.5130   18.7710 C   0  0  0  0  0  0  0  0  0  0  0  0
   -0.1300   12.2200   19.4300 H   0  0  0  0  0  0  0  0  0  0  0  0
   -1.8970   11.5650   18.4320 N   0  0  0  0  0  0  0  0  0  0  0  0
   -2.8700   12.4580   18.8380 C   0  0  0  0  0  0  0  0  0  0  0  0
   -2.5480   13.2050   19.5200 H   0  0  0  0  0  0  0  0  0  0  0  0
   -4.1410   12.3190   18.3340 C   0  0  0  0  0  0  0  0  0  0  0  0
   -4.9050   12.9930   18.6270 H   0  0  0  0  0  0  0  0  0  0  0  0
   -4.4530   11.2880   17.4080 C   0  0  0  0  0  0  0  0  0  0  0  0
   -5.4390   11.2080   17.0270 H   0  0  0  0  0  0  0  0  0  0  0  0
   -3.4730   10.4130   17.0120 C   0  0  0  0  0  0  0  0  0  0  0  0
   -3.6610    9.6360   16.3180 H   0  0  0  0  0  0  0  0  0  0  0  0
   -2.1820   10.5790   17.5560 C   0  0  0  0  0  0  0  0  0  0  0  0
   -1.0380    9.8990   17.3700 N   0  3  0  0  0  0  0  0  0  0  0  0
   -0.9400    9.0810   16.7470 H   0  0  0  0  0  0  0  0  0  0  0  0
    4.5490    6.1230   17.8610 C   0  0  2  0  0  0  0  0  0  0  0  0
    4.8780    5.6070   16.4790 C   0  0  0  0  0  0  0  0  0  0  0  0
    4.4950    4.3960   15.9110 C   0  0  0  0  0  0  0  0  0  0  0  0
    3.8070    3.7090   16.3310 H   0  0  0  0  0  0  0  0  0  0  0  0
    5.1310    4.1690   14.7950 N   0  0  0  0  0  0  0  0  0  0  0  0
    5.9350    5.2500   14.6380 N   0  0  0  0  0  0  0  0  0  0  0  0
    6.9510    5.3160   13.6100 C   0  0  0  0  0  0  0  0  0  0  0  0
    7.9340    5.2000   14.0390 H   0  0  0  0  0  0  0  0  0  0  0  0
    6.9630    6.2750   13.1210 H   0  0  0  0  0  0  0  0  0  0  0  0
    6.8240    4.5510   12.8560 H   0  0  0  0  0  0  0  0  0  0  0  0
    5.7740    6.1510   15.6310 C   0  0  0  0  0  0  0  0  0  0  0  0
    6.3370    7.0410   15.7020 H   0  0  0  0  0  0  0  0  0  0  0  0
    2.4860    6.0350   17.3350 H   0  0  0  0  0  0  0  0  0  0  0  0
    5.2190    6.9370   18.1040 H   0  0  0  0  0  0  0  0  0  0  0  0
  1  2  1  0  0  0  0
  1  3  1  0  0  0  0
  1  4  1  0  0  0  0
  1  5  1  0  0  0  0
  5  6  1  0  0  0  0
  6  7  1  0  0  0  0
  6  8  1  0  0  0  0
  6  9  1  0  0  0  0
  9 10  1  0  0  0  0
  9 11  1  0  0  0  0
  9 12  1  0  0  0  0
 12 13  1  0  0  0  0
 12 42  1  0  0  0  0
 13 14  2  0  0  0  0
 13 15  1  0  0  0  0
 15 16  1  0  0  0  0
 15 17  1  0  0  0  0
 15 18  1  0  0  0  0
 18 19  1  0  0  0  0
 18 42  1  0  0  0  0
 18 54  1  0  0  0  0
 19 20  1  0  0  0  0
 19 21  1  0  0  0  0
 19 22  1  0  0  0  0
 22 23  1  0  0  0  0
 22 24  1  0  0  0  0
 24 25  1  0  0  0  0
 24 26  1  0  0  0  0
 24 27  1  0  0  0  0
 27 28  2  0  0  0  0
 27 40  1  0  0  0  0
 28 29  1  0  0  0  0
 28 30  1  0  0  0  0
 30 31  1  0  0  0  0
 30 39  1  0  0  0  0
 31 32  1  0  0  0  0
 31 33  2  0  0  0  0
 33 34  1  0  0  0  0
 33 35  1  0  0  0  0
 35 36  1  0  0  0  0
 35 37  2  0  0  0  0
 37 38  1  0  0  0  0
 37 39  1  0  0  0  0
 39 40  2  0  0  0  0
 40 41  1  0  0  0  0
 42 43  1  0  0  0  0
 42 55  1  0  0  0  0
 43 44  1  0  0  0  0
 43 52  2  0  0  0  0
 44 45  1  0  0  0  0
 44 46  2  0  0  0  0
 46 47  1  0  0  0  0
 47 48  1  0  0  0  0
 47 52  1  0  0  0  0
 48 49  1  0  0  0  0
 48 50  1  0  0  0  0
 48 51  1  0  0  0  0
 52 53  1  0  0  0  0
M  CHG  1  40   1
M  END
>  <receptor>
S(=O)(=O)([O-])[O-].S(CCC(NC(=O)C(NC(=O)C(NC(=O)CNC(=O)C(NC(=O)C1N(C(=O)C(NC(=O)C(NC(=O)C(NC(=O)C(NC(=O)C(NC(=O)C(NC(=O)C(NC(=O)C(NC(=O)C(NC(=O)C(NC(=O)C(NC(=O)C(NC(=O)C(NC(=O)C(NC(=O)C(NC(=O)C(NC(=O)C(NC(=O)C(NC(=O)C(NC(=O)CNC(=O)C(NC(=O)C(NC(=O)C(NC(=O)C(NC(=O)C(NC(=O)C(NC(=O)C(NC(=O)C(NC(=O)C(NC(=O)C(NC(=O)C(NC(=O)C(NC(=O)C(NC(=O)C)CCCC[NH3+])C(C)C)C(O)C)CCC(=O)N)CCC(=O)[O-])CCC(=O)N)Cc2ccccc2)CCC(=O)[O-])CC(C)C)Cc2ccc(O)cc2)CS)CCC(=O)[O-])CCSC)CO)C(O)C)Cc2ccccc2)CCC(=O)N)CC(C)C)C[S-])CCCC[NH3+])C(CC)C)C[S-])C)CCC(=O)[O-])CC(=O)N)CC(=O)[O-])CCCC[NH3+])CC(=O)[O-])C(C)C)CCCC[NH3+])C(CC)C)CCC(=O)[O-])CCC1)C[S-])Cc1nc[n-]c1)CC(C)C)C(=O)NC(C(=O)NC(C(=O)NC(C(=O)NC(C(=O)NC(C(=O)NC(C(=O)NC(C(=O)NC(C(=O)NC(C(=O)NC(C(=O)NC(C(=O)NC(C(=O)NCC(=O)NC(C(=O)NCC(=O)NC(C(=O)N1C(C(=O)NC(C(=O)NC(C(=O)NC(C(=O)NC(C(=O)NC(C(=O)NC(C(=O)NC(C(=O)NCC(=O)NC(C(=O)NC(C(=O)N2C(C(=O)NC(C(=O)NC(C(=O)NC(C(=O)NC(C(=O)N3C(C(=O)NC(C(=O)NC(C(=O)[O-])CC(=O)[O-])Cc4ccccc4)CCC3)CC(=O)[O-])C(C)C)C(CC)C)C(CC)C)CCC2)CCC(=O)[O-])C(O)C)CCCC[NH3+])C(CC)C)CCC(=O)[O-])CS)CCCNC(=[NH2+])N)C[S-])Cc2ccccc2)CCC1)C[S-])CCC(=O)N)CC(=O)[O-])CO)CCC(=O)[O-])CCC(=O)N)Cc1c2c([nH]c1)cccc2)C)C(O)C)CC(C)C)C[S-])CO)C(O)C)C[S-])C.S(CCC(NC(=O)C(NC(=O)C(NC(=O)C(NC(=O)C(NC(=O)C(NC(=O)C(NC(=O)C(NC(=O)C(NC(=O)C(NC(=O)C(NC(=O)C(NC(=O)C(NC(=O)C(NC(=O)C(NC(=O)C(NC(=O)C[NH3+])CCC(=O)N)C)C)C)CC(=O)[O-])CCCNC(=[NH2+])N)CCCNC(=[NH2+])N)C(O)C)C(C)C)CCC(=O)[O-])CCCC[NH3+])C(O)C)Cc1c2c([nH]c1)cccc2)C)CC(C)C)C(=O)NC(C(=O)NC(C(=O)NC(C(=O)NC(C(=O)NC(C(=O)NC(C(=O)NC(C(=O)NC(C(=O)NC(C(=O)N1C(C(=O)NC(C(=O)NC(C(=O)NC(C(=O)NC(C(=O)NC(C(=O)NC(C(=O)NC(C(=O)N2C(C(=O)N3C(C(=O)NC(C(=O)NC(C(=O)NC(C(=O)NC(C(=O)NC(C(=O)NC(C(=O)N4C(C(=O)NC(C(=O)NC(C(=O)NC(C(=O)NC(C(=O)NC(C(=O)NC(C(=O)NC(C(=O)NC(C(=O)NC(C(=O)NC(C(=O)NC(C(=O)NC(C(=O)NC(C(=O)NC(C(=O)NC(C(=O)NC(C(=O)NC(C(=O)NC(C(=O)NC(C(=O)NC(C(=O)NC(C(=O)NC(C(=O)NC(C(=O)NC(C(=O)NC(C(=O)NC(C(=O)NC(C(=O)NC(C(=O)NC(C(=O)NC(C(=O)NC(C(=O)NC(C(=O)NC(C(=O)NC(C(=O)NC(C(=O)NC(C(=O)NC(C(=O)NC(C(=O)NC(C(=O)NC(C(=O)NC(C(=O)NC(C(=O)NC(C(=O)NC(C(=O)NC(C(=O)NC(C(=O)NC(C(=O)NC(C(=O)NCC(=O)NC(C(=O)NC(C(=O)NC(C(=O)NC(C(=O)NC(C(=O)NC(C(=O)NC(C(=O)NC(C(=O)NC(C(=O)NC(C(=O)NC(C(=O)NC(C(=O)NC(C(=O)NC(C(=O)NC(C(=O)NC(C(=O)NC(C(=O)NC(C(=O)NC(C(=O)NC(C(=O)NC(C(=O)NC(C(=O)NC(C(=O)NC(C(=O)NC(C(=O)NC(C(=O)NC(C(=O)NC(C(=O)NC(C(=O)NC(C(=O)NC(C(=O)NC(C(=O)NC(C(=O)N5C(C(=O)NC(C(=O)NCC(=O)NC(C(=O)NC(C(=O)NC(C(=O)NCC(=O)NC(C(=O)NC(C(=O)NC(C(=O)NC(C(=O)NC(C(=O)NC(C(=O)NC(C(=O)NC(C(=O)NC(C(=O)NC(C(=O)NC(C(=O)NC(C(=O)NC(C(=O)NC(C(=O)NC(C(=O)NC(C(=O)NC(C(=O)NC(C(=O)NCC(=O)NC(C(=O)NC(C(=O)NC(C(=O)NC(C(=O)NC(C(=O)N6C(C(=O)NC(C(=O)NC(C(=O)NC(C(=O)NC(C(=O)NC(C(=O)NC(C(=O)NC(C(=O)NC(C(=O)NC(C(=O)NC(C(=O)NC(C(=O)NC(C(=O)NC(C(=O)NC(C(=O)NC(C(=O)NC(C(=O)NCC(=O)NC(C(=O)NC(C(=O)NC(C(=O)NC(C(=O)NC(C(=O)NC(C(=O)NC(C(=O)NC(C(=O)NC(C(=O)NC(C(=O)NC(C(=O)NC(C(=O)NC(C(=O)NC(C(=O)NC(C(=O)NC(C(=O)NC(C(=O)NC(C(=O)NC(C(=O)NC(C(=O)NC(C(=O)NC(C(=O)NC(C(=O)NC(C(=O)NC(C(=O)NC(C(=O)NC(C(=O)NC(C(=O)NC(C(=O)NC(C(=O)NC(C(=O)N7C(C(=O)NC(C(=O)NCC(=O)NC(C(=O)NC(C(=O)NC(C(=O)NC(C(=O)NC(C(=O)NC(C(=O)NC(C(=O)NC(C(=O)NC(C(=O)NC(C(=O)NC(C(=O)NC(C(=O)NC(C(=O)N8C(C(=O)NCC(=O)NC(C(=O)NC(C(=O)NC(C(=O)NC(C(=O)NC(C(=O)NC(C(=O)NC(C(=O)NC(C(=O)NC(C(=O)NC(C(=O)NC(C(=O)NC(C(=O)NC(C(=O)NC(C(=O)NC(C(=O)NC(C(=O)NC(C(=O)NC(C(=O)NC(C(=O)NC(C(=O)N9C(C(=O)NCC(=O)NC(C(=O)NC(C(=O)NC(C(=O)NC(C(=O)NC(C(=O)NC(C(=O)NC(C(=O)NC(C(=O)NC(C(=O)NC(C(=O)NC(C(=O)NCC(=O)NC(C(=O)NC(C(=O)NC(C(=O)NC(C(=O)NCC(=O)NC(C(=O)NC(C(=O)NC(C(=O)NCC(=O)NC(C(=O)NCC(=O)NC(C(=O)NC(C(=O)NC(C(=O)NC(C(=O)NC(C(=O)NC(C(=O)N%10C(C(=O)NC(C(=O)NC(C(=O)NC(C(=O)N%11C(C(=O)NC(C(=O)NC(C(=O)NC(C(=O)NC(C(=O)NC(C(=O)NC(C(=O)NC(C(=O)NCC(=O)NC(C(=O)NC(C(=O)NC(C(=O)NCC(=O)NC(C(=O)NC(C(=O)NC(C(=O)NC(C(=O)N%12C(C(=O)NC(C(=O)NCC(=O)NC(C(=O)NC(C(=O)NC(C(=O)NC(C(=O)NC)CC(=O)N)Cc%13ccc(O)cc%13)CO)CCCNC(=[NH2+])N)CC(=O)[O-])CCC%12)Cc%12ccc(O)cc%12)CC(C)C)Cc%12ccc(O)cc%12)Cc%12ccccc%12)CCC(=O)[O-])C)CO)CC(=O)[O-])C(CC)C)CC(C)C)C)CCC(=O)N)Cc%12ccccc%12)CC(C)C)CCC%11)CCCC[NH3+])CC(=O)N)Cc%11[nH]cnc%11)CCC%10)C(CC)C)C(O)C)CCC(=O)N)CC(C)C)C(CC)C)CC(=O)N)CC(=O)[O-])C(O)C)C(C)C)Cc%10ccc(O)cc%10)C(CC)C)C)Cc%10c%11c([nH]c%10)cccc%11)CCC(=O)N)CC(C)C)CCCNC(=[NH2+])N)C(O)C)CS)CO)CC(C)C)CCCNC(=[NH2+])N)Cc%10ccccc%10)C(CC)C)Cc%10ccc(O)cc%10)CO)CCC9)CCCC[NH3+])C(O)C)CO)Cc9ccc(O)cc9)CCCC[NH3+])CCC(=O)N)CC(C)C)CCCNC(=[NH2+])N)C)CCCC[NH3+])C(C)C)CCC(=O)[O-])CC(=O)[O-])Cc9ccc(O)cc9)C(O)C)CC(C)C)Cc9ccccc9)C)CCSC)Cc9ccc(O)cc9)CCC8)Cc8nc[nH]c8)C(O)C)C(C)C)C)CC(C)C)Cc8ccccc8)CC(=O)N)Cc8c9c([nH]c8)cccc9)CC(=O)N)CCCNC(=[NH2+])N)CC(C)C)C(CC)C)CO)Cc8c9c([nH]c8)cccc9)CCC7)CCC(=O)N)Cc7ccccc7)CC(C)C)CCCNC(=[NH2+])N)C(O)C)Cc7ccccc7)C(CC)C)CC(=O)[O-])Cc7ccccc7)CCC(=O)[O-])Cc7ccccc7)C(C)C)CO)C(CC)C)Cc7ccc(O)cc7)CC(=O)[O-])CC(=O)N)CS)C(O)C)CC(C)C)CC(=O)[O-])C(CC)C)C(O)C)CO)CCCC[NH3+])CC(C)C)C)CCSC)C)CCC(=O)[O-])CC(C)C)CO)CO)C(CC)C)CCC(=O)N)Cc7nc[nH]c7)C(C)C)CCC(=O)[O-])Cc7nc[nH]c7)CC(C)C)CS)CCC(=O)N)CCCNC(=[NH2+])N)Cc7ccccc7)C(C)C)CCCC[NH3+])Cc7c8c([nH]c7)cccc8)CCC6)C(C)C)C(CC)C)C(O)C)CCCC[NH3+])CC(=O)[O-])Cc6ccccc6)Cc6ccccc6)CCCC[NH3+])CCCNC(=[NH2+])N)Cc6c7c([nH]c6)cccc7)Cc6ccccc6)CCC(=O)[O-])C)C)CC(=O)[O-])C)CCCC[NH3+])C(O)C)C(CC)C)CCCNC(=[NH2+])N)Cc6ccccc6)CC(=O)N)CC(=O)[O-])CCC(=O)N)Cc6ccccc6)CCC(=O)N)CC(=O)N)CCC5)Cc5ccccc5)C(CC)C)C)CCCC[NH3+])C(CC)C)CCC(=O)[O-])C)CC(C)C)CCSC)Cc5nc[nH]c5)CO)Cc5ccccc5)C(CC)C)CC(C)C)CO)CC(C)C)CCCC[NH3+])C(O)C)CC(C)C)CC(=O)N)CCCNC(=[NH2+])N)CCCNC(=[NH2+])N)CC(=O)[O-])CCC(=O)N)CO)CCC(=O)N)CCC(=O)[O-])CCC(=O)[O-])Cc5ccc(O)cc5)CCSC)CCCNC(=[NH2+])N)CCC(=O)[O-])CCCC[NH3+])CCC(=O)[O-])CCCC[NH3+])Cc5ccccc5)CC(C)C)CCCNC(=[NH2+])N)C(CC)C)C)CCCNC(=[NH2+])N)CCCC[NH3+])CO)CCCC[NH3+])CCCC[NH3+])CCSC)CC(C)C)CO)CC(=O)[O-])C(CC)C)Cc5ccc(O)cc5)C(CC)C)CCCC[NH3+])Cc5ccccc5)Cc5ccc(O)cc5)CCC(=O)[O-])CC(=O)N)CCC(=O)[O-])CO)CC(C)C)CCC(=O)N)C)CC(C)C)CCCC[NH3+])CCC(=O)N)CC(=O)N)CC(=O)[O-])CC(=O)[O-])Cc5ccc(O)cc5)CCCC[NH3+])CO)CC(C)C)C(CC)C)CC(C)C)CCCNC(=[NH2+])N)CC(C)C)Cc5nc[nH]c5)CCC(=O)N)Cc5ccc(O)cc5)C(O)C)CC(=O)[O-])CCC4)CC(C)C)C(CC)C)CC(=O)[O-])CC(C)C)C(CC)C)Cc4ccc(O)cc4)CCC3)CCC2)CO)CC(=O)N)CCCC[NH3+])CC(C)C)CCC(=O)N)CC(C)C)CCCC[NH3+])CCC1)CC(=O)N)CCC(=O)N)CS)CC(C)C)CCCNC(=[NH2+])N)C(C)C)C(C)C)C)CC(=O)[O-])C.OCCO.[UH+3].[Zn+2].[Zn+2].O.O.O.O.O.O.O.O.O.O.O.O.O.O.O.O.O.O.O.O.O.O.O.O.O.O.O.O.O.O.O.O.O.O.O.O.O.O.O.O.O.O.O.O.O.O.O.O.O.O.O.O.O.O.O.O.O.O.O.O.O.O.O.O.O.O.O.O.O.O.O.O.O.O.O.O.O.O.O.O.O.O.O.O.O.O.O.O.O.O.O.O.O.O.O.O.O.O.O.O.O.O.O.O.O.O.O.O.O.O.O.O.O.O.O.O.O.O.O.O.O.O.O.O.O.O.O.O.O.O.O.O.O.O.O.O.O.O.O.O.O.O

>  <rseq>
1

>  <mseq>
22

>  <S>
-8.2536793

>  <rmsd_refine>
1.7493382

>  <E_conf>
14.449072

>  <E_place>
-72.300331

>  <E_score1>
-10.875271

>  <E_refine>
-38.763901

>  <E_score2>
-8.2536793

>  <Field_2>
LB02

>  <pseq>
22

>  <%C>
62.766544

>  <a_heavy>
28

>  <h_logP>
0.66549313

>  <Weight>
383.47598

>  <E_orig>
1.2

>  <PLIF_raw>
[30,3850,268,7,0.7677250953]

>  <FP:PLIF>
12

>  <PLIF_ligidx>
30

$$$$

  MOE2020           3D

 48 51  0  0  1  0  0  0  0  0999 V2000
   -1.8940   11.7470   22.8380 C   0  0  0  0  0  0  0  0  0  0  0  0
   -2.2950   12.0520   21.8720 H   0  0  0  0  0  0  0  0  0  0  0  0
   -1.5140   12.6320   23.3460 H   0  0  0  0  0  0  0  0  0  0  0  0
   -2.7030   11.3320   23.4390 H   0  0  0  0  0  0  0  0  0  0  0  0
   -0.7880   10.7340   22.6640 C   0  0  0  0  0  0  0  0  0  0  0  0
   -0.2070   10.3760   21.5920 N   0  0  0  0  0  0  0  0  0  0  0  0
    0.7060    9.4850   22.0220 C   0  0  0  0  0  0  0  0  0  0  0  0
    1.6800    8.7870   21.0980 C   0  0  0  0  0  0  0  0  0  0  0  0
    1.7420    9.3210   20.1600 H   0  0  0  0  0  0  0  0  0  0  0  0
    2.6600    8.7970   21.5510 H   0  0  0  0  0  0  0  0  0  0  0  0
    1.3210    7.4100   20.8430 O   0  0  0  0  0  0  0  0  0  0  0  0
    2.2010    6.5520   20.2180 C   0  0  0  0  0  0  0  0  0  0  0  0
    2.2740    5.2450   20.6830 C   0  0  0  0  0  0  0  0  0  0  0  0
    1.6710    4.9400   21.4960 H   0  0  0  0  0  0  0  0  0  0  0  0
    3.1500    4.3470   20.0810 C   0  0  0  0  0  0  0  0  0  0  0  0
    3.2020    3.3450   20.4110 H   0  0  0  0  0  0  0  0  0  0  0  0
    3.9840    4.7620   19.0560 C   0  0  0  0  0  0  0  0  0  0  0  0
    4.6720    4.0750   18.6340 H   0  0  0  0  0  0  0  0  0  0  0  0
    3.9390    6.0860   18.6080 C   0  0  0  0  0  0  0  0  0  0  0  0
    4.9110    6.5680   17.6430 C   0  0  0  0  0  0  0  0  0  0  0  0
    5.3230    7.7170   17.6990 O   0  0  0  0  0  0  0  0  0  0  0  0
    5.4380    5.7260   16.6810 N   0  0  0  0  0  0  0  0  0  0  0  0
    4.5070    5.0950   15.7580 C   0  0  0  0  0  0  0  0  0  0  0  0
    4.1180    5.8590   15.0990 H   0  0  0  0  0  0  0  0  0  0  0  0
    3.6620    4.6960   16.2950 H   0  0  0  0  0  0  0  0  0  0  0  0
    5.1300    3.9860   14.9080 C   0  0  0  0  0  0  0  0  0  0  0  0
    4.3970    3.6620   14.1750 H   0  0  0  0  0  0  0  0  0  0  0  0
    5.3950    3.1490   15.5560 H   0  0  0  0  0  0  0  0  0  0  0  0
    6.3690    4.4680   14.1660 C   0  0  0  0  0  0  0  0  0  0  0  0
    6.0990    5.2670   13.4820 H   0  0  0  0  0  0  0  0  0  0  0  0
    6.8110    3.6450   13.6030 H   0  0  0  0  0  0  0  0  0  0  0  0
    7.3620    5.0010   15.1930 C   0  0  0  0  0  0  0  0  0  0  0  0
    7.7350    4.1710   15.7800 H   0  0  0  0  0  0  0  0  0  0  0  0
    8.2020    5.4490   14.6660 H   0  0  0  0  0  0  0  0  0  0  0  0
    6.7800    6.0340   16.1720 C   0  0  2  0  0  0  0  0  0  0  0  0
    7.7120    6.1840   17.3430 C   0  0  0  0  0  0  0  0  0  0  0  0
    8.0150    5.1970   18.2750 C   0  0  0  0  0  0  0  0  0  0  0  0
    7.6700    4.1960   18.2480 H   0  0  0  0  0  0  0  0  0  0  0  0
    8.7780    5.6600   19.2190 N   0  0  0  0  0  0  0  0  0  0  0  0
    8.9670    6.9640   18.8840 N   0  0  0  0  0  0  0  0  0  0  0  0
    9.5410    7.6060   19.4600 H   0  0  0  0  0  0  0  0  0  0  0  0
    8.3350    7.3080   17.7500 C   0  0  0  0  0  0  0  0  0  0  0  0
    8.3620    8.2870   17.3520 H   0  0  0  0  0  0  0  0  0  0  0  0
    3.0120    6.9750   19.1680 C   0  0  0  0  0  0  0  0  0  0  0  0
    2.9500    7.9700   18.8110 H   0  0  0  0  0  0  0  0  0  0  0  0
    0.6730    9.3140   23.2900 N   0  0  0  0  0  0  0  0  0  0  0  0
   -0.2870   10.1100   23.7120 O   0  0  0  0  0  0  0  0  0  0  0  0
    6.7000    6.9820   15.6690 H   0  0  0  0  0  0  0  0  0  0  0  0
  1  2  1  0  0  0  0
  1  3  1  0  0  0  0
  1  4  1  0  0  0  0
  1  5  1  0  0  0  0
  5  6  2  0  0  0  0
  5 47  1  0  0  0  0
  6  7  1  0  0  0  0
  7  8  1  0  0  0  0
  7 46  2  0  0  0  0
  8  9  1  0  0  0  0
  8 10  1  0  0  0  0
  8 11  1  0  0  0  0
 11 12  1  0  0  0  0
 12 13  1  0  0  0  0
 12 44  2  0  0  0  0
 13 14  1  0  0  0  0
 13 15  2  0  0  0  0
 15 16  1  0  0  0  0
 15 17  1  0  0  0  0
 17 18  1  0  0  0  0
 17 19  2  0  0  0  0
 19 20  1  0  0  0  0
 19 44  1  0  0  0  0
 20 21  2  0  0  0  0
 20 22  1  0  0  0  0
 22 23  1  0  0  0  0
 22 35  1  0  0  0  0
 23 24  1  0  0  0  0
 23 25  1  0  0  0  0
 23 26  1  0  0  0  0
 26 27  1  0  0  0  0
 26 28  1  0  0  0  0
 26 29  1  0  0  0  0
 29 30  1  0  0  0  0
 29 31  1  0  0  0  0
 29 32  1  0  0  0  0
 32 33  1  0  0  0  0
 32 34  1  0  0  0  0
 32 35  1  0  0  0  0
 35 36  1  0  0  0  0
 35 48  1  0  0  0  0
 36 37  1  0  0  0  0
 36 42  2  0  0  0  0
 37 38  1  0  0  0  0
 37 39  2  0  0  0  0
 39 40  1  0  0  0  0
 40 41  1  0  0  0  0
 40 42  1  0  0  0  0
 42 43  1  0  0  0  0
 44 45  1  0  0  0  0
 46 47  1  0  0  0  0
M  END
>  <receptor>
S(=O)(=O)([O-])[O-].S(CCC(NC(=O)C(NC(=O)C(NC(=O)CNC(=O)C(NC(=O)C1N(C(=O)C(NC(=O)C(NC(=O)C(NC(=O)C(NC(=O)C(NC(=O)C(NC(=O)C(NC(=O)C(NC(=O)C(NC(=O)C(NC(=O)C(NC(=O)C(NC(=O)C(NC(=O)C(NC(=O)C(NC(=O)C(NC(=O)C(NC(=O)C(NC(=O)C(NC(=O)CNC(=O)C(NC(=O)C(NC(=O)C(NC(=O)C(NC(=O)C(NC(=O)C(NC(=O)C(NC(=O)C(NC(=O)C(NC(=O)C(NC(=O)C(NC(=O)C(NC(=O)C(NC(=O)C)CCCC[NH3+])C(C)C)C(O)C)CCC(=O)N)CCC(=O)[O-])CCC(=O)N)Cc2ccccc2)CCC(=O)[O-])CC(C)C)Cc2ccc(O)cc2)CS)CCC(=O)[O-])CCSC)CO)C(O)C)Cc2ccccc2)CCC(=O)N)CC(C)C)C[S-])CCCC[NH3+])C(CC)C)C[S-])C)CCC(=O)[O-])CC(=O)N)CC(=O)[O-])CCCC[NH3+])CC(=O)[O-])C(C)C)CCCC[NH3+])C(CC)C)CCC(=O)[O-])CCC1)C[S-])Cc1nc[n-]c1)CC(C)C)C(=O)NC(C(=O)NC(C(=O)NC(C(=O)NC(C(=O)NC(C(=O)NC(C(=O)NC(C(=O)NC(C(=O)NC(C(=O)NC(C(=O)NC(C(=O)NC(C(=O)NCC(=O)NC(C(=O)NCC(=O)NC(C(=O)N1C(C(=O)NC(C(=O)NC(C(=O)NC(C(=O)NC(C(=O)NC(C(=O)NC(C(=O)NC(C(=O)NCC(=O)NC(C(=O)NC(C(=O)N2C(C(=O)NC(C(=O)NC(C(=O)NC(C(=O)NC(C(=O)N3C(C(=O)NC(C(=O)NC(C(=O)[O-])CC(=O)[O-])Cc4ccccc4)CCC3)CC(=O)[O-])C(C)C)C(CC)C)C(CC)C)CCC2)CCC(=O)[O-])C(O)C)CCCC[NH3+])C(CC)C)CCC(=O)[O-])CS)CCCNC(=[NH2+])N)C[S-])Cc2ccccc2)CCC1)C[S-])CCC(=O)N)CC(=O)[O-])CO)CCC(=O)[O-])CCC(=O)N)Cc1c2c([nH]c1)cccc2)C)C(O)C)CC(C)C)C[S-])CO)C(O)C)C[S-])C.S(CCC(NC(=O)C(NC(=O)C(NC(=O)C(NC(=O)C(NC(=O)C(NC(=O)C(NC(=O)C(NC(=O)C(NC(=O)C(NC(=O)C(NC(=O)C(NC(=O)C(NC(=O)C(NC(=O)C(NC(=O)C(NC(=O)C[NH3+])CCC(=O)N)C)C)C)CC(=O)[O-])CCCNC(=[NH2+])N)CCCNC(=[NH2+])N)C(O)C)C(C)C)CCC(=O)[O-])CCCC[NH3+])C(O)C)Cc1c2c([nH]c1)cccc2)C)CC(C)C)C(=O)NC(C(=O)NC(C(=O)NC(C(=O)NC(C(=O)NC(C(=O)NC(C(=O)NC(C(=O)NC(C(=O)NC(C(=O)N1C(C(=O)NC(C(=O)NC(C(=O)NC(C(=O)NC(C(=O)NC(C(=O)NC(C(=O)NC(C(=O)N2C(C(=O)N3C(C(=O)NC(C(=O)NC(C(=O)NC(C(=O)NC(C(=O)NC(C(=O)NC(C(=O)N4C(C(=O)NC(C(=O)NC(C(=O)NC(C(=O)NC(C(=O)NC(C(=O)NC(C(=O)NC(C(=O)NC(C(=O)NC(C(=O)NC(C(=O)NC(C(=O)NC(C(=O)NC(C(=O)NC(C(=O)NC(C(=O)NC(C(=O)NC(C(=O)NC(C(=O)NC(C(=O)NC(C(=O)NC(C(=O)NC(C(=O)NC(C(=O)NC(C(=O)NC(C(=O)NC(C(=O)NC(C(=O)NC(C(=O)NC(C(=O)NC(C(=O)NC(C(=O)NC(C(=O)NC(C(=O)NC(C(=O)NC(C(=O)NC(C(=O)NC(C(=O)NC(C(=O)NC(C(=O)NC(C(=O)NC(C(=O)NC(C(=O)NC(C(=O)NC(C(=O)NC(C(=O)NC(C(=O)NC(C(=O)NC(C(=O)NCC(=O)NC(C(=O)NC(C(=O)NC(C(=O)NC(C(=O)NC(C(=O)NC(C(=O)NC(C(=O)NC(C(=O)NC(C(=O)NC(C(=O)NC(C(=O)NC(C(=O)NC(C(=O)NC(C(=O)NC(C(=O)NC(C(=O)NC(C(=O)NC(C(=O)NC(C(=O)NC(C(=O)NC(C(=O)NC(C(=O)NC(C(=O)NC(C(=O)NC(C(=O)NC(C(=O)NC(C(=O)NC(C(=O)NC(C(=O)NC(C(=O)NC(C(=O)NC(C(=O)NC(C(=O)N5C(C(=O)NC(C(=O)NCC(=O)NC(C(=O)NC(C(=O)NC(C(=O)NCC(=O)NC(C(=O)NC(C(=O)NC(C(=O)NC(C(=O)NC(C(=O)NC(C(=O)NC(C(=O)NC(C(=O)NC(C(=O)NC(C(=O)NC(C(=O)NC(C(=O)NC(C(=O)NC(C(=O)NC(C(=O)NC(C(=O)NC(C(=O)NC(C(=O)NCC(=O)NC(C(=O)NC(C(=O)NC(C(=O)NC(C(=O)NC(C(=O)N6C(C(=O)NC(C(=O)NC(C(=O)NC(C(=O)NC(C(=O)NC(C(=O)NC(C(=O)NC(C(=O)NC(C(=O)NC(C(=O)NC(C(=O)NC(C(=O)NC(C(=O)NC(C(=O)NC(C(=O)NC(C(=O)NC(C(=O)NCC(=O)NC(C(=O)NC(C(=O)NC(C(=O)NC(C(=O)NC(C(=O)NC(C(=O)NC(C(=O)NC(C(=O)NC(C(=O)NC(C(=O)NC(C(=O)NC(C(=O)NC(C(=O)NC(C(=O)NC(C(=O)NC(C(=O)NC(C(=O)NC(C(=O)NC(C(=O)NC(C(=O)NC(C(=O)NC(C(=O)NC(C(=O)NC(C(=O)NC(C(=O)NC(C(=O)NC(C(=O)NC(C(=O)NC(C(=O)NC(C(=O)NC(C(=O)N7C(C(=O)NC(C(=O)NCC(=O)NC(C(=O)NC(C(=O)NC(C(=O)NC(C(=O)NC(C(=O)NC(C(=O)NC(C(=O)NC(C(=O)NC(C(=O)NC(C(=O)NC(C(=O)NC(C(=O)NC(C(=O)N8C(C(=O)NCC(=O)NC(C(=O)NC(C(=O)NC(C(=O)NC(C(=O)NC(C(=O)NC(C(=O)NC(C(=O)NC(C(=O)NC(C(=O)NC(C(=O)NC(C(=O)NC(C(=O)NC(C(=O)NC(C(=O)NC(C(=O)NC(C(=O)NC(C(=O)NC(C(=O)NC(C(=O)NC(C(=O)N9C(C(=O)NCC(=O)NC(C(=O)NC(C(=O)NC(C(=O)NC(C(=O)NC(C(=O)NC(C(=O)NC(C(=O)NC(C(=O)NC(C(=O)NC(C(=O)NC(C(=O)NCC(=O)NC(C(=O)NC(C(=O)NC(C(=O)NC(C(=O)NCC(=O)NC(C(=O)NC(C(=O)NC(C(=O)NCC(=O)NC(C(=O)NCC(=O)NC(C(=O)NC(C(=O)NC(C(=O)NC(C(=O)NC(C(=O)NC(C(=O)N%10C(C(=O)NC(C(=O)NC(C(=O)NC(C(=O)N%11C(C(=O)NC(C(=O)NC(C(=O)NC(C(=O)NC(C(=O)NC(C(=O)NC(C(=O)NC(C(=O)NCC(=O)NC(C(=O)NC(C(=O)NC(C(=O)NCC(=O)NC(C(=O)NC(C(=O)NC(C(=O)NC(C(=O)N%12C(C(=O)NC(C(=O)NCC(=O)NC(C(=O)NC(C(=O)NC(C(=O)NC(C(=O)NC)CC(=O)N)Cc%13ccc(O)cc%13)CO)CCCNC(=[NH2+])N)CC(=O)[O-])CCC%12)Cc%12ccc(O)cc%12)CC(C)C)Cc%12ccc(O)cc%12)Cc%12ccccc%12)CCC(=O)[O-])C)CO)CC(=O)[O-])C(CC)C)CC(C)C)C)CCC(=O)N)Cc%12ccccc%12)CC(C)C)CCC%11)CCCC[NH3+])CC(=O)N)Cc%11[nH]cnc%11)CCC%10)C(CC)C)C(O)C)CCC(=O)N)CC(C)C)C(CC)C)CC(=O)N)CC(=O)[O-])C(O)C)C(C)C)Cc%10ccc(O)cc%10)C(CC)C)C)Cc%10c%11c([nH]c%10)cccc%11)CCC(=O)N)CC(C)C)CCCNC(=[NH2+])N)C(O)C)CS)CO)CC(C)C)CCCNC(=[NH2+])N)Cc%10ccccc%10)C(CC)C)Cc%10ccc(O)cc%10)CO)CCC9)CCCC[NH3+])C(O)C)CO)Cc9ccc(O)cc9)CCCC[NH3+])CCC(=O)N)CC(C)C)CCCNC(=[NH2+])N)C)CCCC[NH3+])C(C)C)CCC(=O)[O-])CC(=O)[O-])Cc9ccc(O)cc9)C(O)C)CC(C)C)Cc9ccccc9)C)CCSC)Cc9ccc(O)cc9)CCC8)Cc8nc[nH]c8)C(O)C)C(C)C)C)CC(C)C)Cc8ccccc8)CC(=O)N)Cc8c9c([nH]c8)cccc9)CC(=O)N)CCCNC(=[NH2+])N)CC(C)C)C(CC)C)CO)Cc8c9c([nH]c8)cccc9)CCC7)CCC(=O)N)Cc7ccccc7)CC(C)C)CCCNC(=[NH2+])N)C(O)C)Cc7ccccc7)C(CC)C)CC(=O)[O-])Cc7ccccc7)CCC(=O)[O-])Cc7ccccc7)C(C)C)CO)C(CC)C)Cc7ccc(O)cc7)CC(=O)[O-])CC(=O)N)CS)C(O)C)CC(C)C)CC(=O)[O-])C(CC)C)C(O)C)CO)CCCC[NH3+])CC(C)C)C)CCSC)C)CCC(=O)[O-])CC(C)C)CO)CO)C(CC)C)CCC(=O)N)Cc7nc[nH]c7)C(C)C)CCC(=O)[O-])Cc7nc[nH]c7)CC(C)C)CS)CCC(=O)N)CCCNC(=[NH2+])N)Cc7ccccc7)C(C)C)CCCC[NH3+])Cc7c8c([nH]c7)cccc8)CCC6)C(C)C)C(CC)C)C(O)C)CCCC[NH3+])CC(=O)[O-])Cc6ccccc6)Cc6ccccc6)CCCC[NH3+])CCCNC(=[NH2+])N)Cc6c7c([nH]c6)cccc7)Cc6ccccc6)CCC(=O)[O-])C)C)CC(=O)[O-])C)CCCC[NH3+])C(O)C)C(CC)C)CCCNC(=[NH2+])N)Cc6ccccc6)CC(=O)N)CC(=O)[O-])CCC(=O)N)Cc6ccccc6)CCC(=O)N)CC(=O)N)CCC5)Cc5ccccc5)C(CC)C)C)CCCC[NH3+])C(CC)C)CCC(=O)[O-])C)CC(C)C)CCSC)Cc5nc[nH]c5)CO)Cc5ccccc5)C(CC)C)CC(C)C)CO)CC(C)C)CCCC[NH3+])C(O)C)CC(C)C)CC(=O)N)CCCNC(=[NH2+])N)CCCNC(=[NH2+])N)CC(=O)[O-])CCC(=O)N)CO)CCC(=O)N)CCC(=O)[O-])CCC(=O)[O-])Cc5ccc(O)cc5)CCSC)CCCNC(=[NH2+])N)CCC(=O)[O-])CCCC[NH3+])CCC(=O)[O-])CCCC[NH3+])Cc5ccccc5)CC(C)C)CCCNC(=[NH2+])N)C(CC)C)C)CCCNC(=[NH2+])N)CCCC[NH3+])CO)CCCC[NH3+])CCCC[NH3+])CCSC)CC(C)C)CO)CC(=O)[O-])C(CC)C)Cc5ccc(O)cc5)C(CC)C)CCCC[NH3+])Cc5ccccc5)Cc5ccc(O)cc5)CCC(=O)[O-])CC(=O)N)CCC(=O)[O-])CO)CC(C)C)CCC(=O)N)C)CC(C)C)CCCC[NH3+])CCC(=O)N)CC(=O)N)CC(=O)[O-])CC(=O)[O-])Cc5ccc(O)cc5)CCCC[NH3+])CO)CC(C)C)C(CC)C)CC(C)C)CCCNC(=[NH2+])N)CC(C)C)Cc5nc[nH]c5)CCC(=O)N)Cc5ccc(O)cc5)C(O)C)CC(=O)[O-])CCC4)CC(C)C)C(CC)C)CC(=O)[O-])CC(C)C)C(CC)C)Cc4ccc(O)cc4)CCC3)CCC2)CO)CC(=O)N)CCCC[NH3+])CC(C)C)CCC(=O)N)CC(C)C)CCCC[NH3+])CCC1)CC(=O)N)CCC(=O)N)CS)CC(C)C)CCCNC(=[NH2+])N)C(C)C)C(C)C)C)CC(=O)[O-])C.OCCO.[UH+3].[Zn+2].[Zn+2].O.O.O.O.O.O.O.O.O.O.O.O.O.O.O.O.O.O.O.O.O.O.O.O.O.O.O.O.O.O.O.O.O.O.O.O.O.O.O.O.O.O.O.O.O.O.O.O.O.O.O.O.O.O.O.O.O.O.O.O.O.O.O.O.O.O.O.O.O.O.O.O.O.O.O.O.O.O.O.O.O.O.O.O.O.O.O.O.O.O.O.O.O.O.O.O.O.O.O.O.O.O.O.O.O.O.O.O.O.O.O.O.O.O.O.O.O.O.O.O.O.O.O.O.O.O.O.O.O.O.O.O.O.O.O.O.O.O.O.O.O.O

>  <rseq>
1

>  <mseq>
23

>  <S>
-8.1639509

>  <rmsd_refine>
1.1265125

>  <E_conf>
45.13694

>  <E_place>
-73.92157

>  <E_score1>
-11.894556

>  <E_refine>
-36.179142

>  <E_score2>
-8.1639509

>  <Field_2>
LB03

>  <pseq>
23

>  <%C>
99.997032

>  <a_heavy>
27

>  <h_logP>
2.2536206

>  <Weight>
367.409

>  <E_orig>
2.2

>  <PLIF_raw>
[[40,36,42,40,39,37,36,36,36,36,36,36,42,42,42,42,42,42,40,40,40,40,40,40,39,39,39,39,39,39,37,37,37,37,37,37],[5130,5178,5178,5178,5178,5178,5143,5141,5137,5134,5135,5139,5143,5141,5137,5134,5135,5139,5143,5141,5137,5134,5135,5139,5143,5141,5137,5134,5135,5139,5143,5141,5137,5134,5135,5139],[363,366,366,366,366,366,363,363,363,363,363,363,363,363,363,363,363,363,363,363,363,363,363,363,363,363,363,363,363,363,363,363,363,363,363,363],[3,10,10,10,10,10,10,10,10,10,10,10,10,10,10,10,10,10,10,10,10,10,10,10,10,10,10,10,10,10,10,10,10,10,10,10],[0.7,0.9,0.9,0.9,0.9,0.9,1e-005,1e-005,1e-005,1e-005,1e-005,1e-005,1e-005,1e-005,1e-005,1e-005,1e-005,1e-005,1e-005,1e-005,1e-005,1e-005,1e-005,1e-005,1e-005,1e-005,1e-005,1e-005,1e-005,1e-005,1e-005,1e-005,1e-005,1e-005,1e-005,1e-005]]

>  <FP:PLIF>
31 6

>  <PLIF_ligidx>
[40,[36,42,40,39,37]]

$$$$

  MOE2020           3D

 51 54  0  0  0  0  0  0  0  0999 V2000
   -3.1830   10.2540   14.7570 C   0  0  0  0  0  0  0  0  0  0  0  0
   -2.2460   10.6660   14.3920 H   0  0  0  0  0  0  0  0  0  0  0  0
   -3.0420    9.2020   14.9910 H   0  0  0  0  0  0  0  0  0  0  0  0
   -3.9520   10.3560   13.9920 H   0  0  0  0  0  0  0  0  0  0  0  0
   -3.6070   10.9830   16.0290 C   0  0  0  0  0  0  0  0  0  0  0  0
   -4.5910   10.6250   16.3320 H   0  0  0  0  0  0  0  0  0  0  0  0
   -3.6820   12.0450   15.8350 H   0  0  0  0  0  0  0  0  0  0  0  0
   -2.6400   10.7360   17.1600 C   0  0  0  0  0  0  0  0  0  0  0  0
   -1.5570   11.4790   17.3880 N   0  0  0  0  0  0  0  0  0  0  0  0
   -1.2650   12.3090   16.8440 H   0  0  0  0  0  0  0  0  0  0  0  0
   -0.9130   10.9450   18.4250 C   0  0  0  0  0  0  0  0  0  0  0  0
    0.4000   11.4880   18.9880 C   0  0  0  0  0  0  0  0  0  0  0  0
    0.3600   12.5760   18.9110 H   0  0  0  0  0  0  0  0  0  0  0  0
    1.6580   10.9770   18.2660 C   0  0  0  0  0  0  0  0  0  0  0  0
    2.5380   11.4140   18.7370 H   0  0  0  0  0  0  0  0  0  0  0  0
    1.6700   11.3140   17.2390 H   0  0  0  0  0  0  0  0  0  0  0  0
    1.7990    9.4480   18.3070 C   0  0  0  0  0  0  0  0  0  0  0  0
    2.7580    9.1970   17.8810 H   0  0  0  0  0  0  0  0  0  0  0  0
    1.0550    9.0030   17.6610 H   0  0  0  0  0  0  0  0  0  0  0  0
    1.6710    8.8670   19.6520 N   0  0  0  0  0  0  0  0  0  0  0  0
    1.9890    7.5300   19.9090 C   0  0  0  0  0  0  0  0  0  0  0  0
    1.4830    7.0480   20.9230 O   0  0  0  0  0  0  0  0  0  0  0  0
    2.9160    6.7100   19.1230 C   0  0  0  0  0  0  0  0  0  0  0  0
    3.6330    5.7000   19.7590 C   0  0  0  0  0  0  0  0  0  0  0  0
    3.5340    5.4230   20.7710 H   0  0  0  0  0  0  0  0  0  0  0  0
    4.4920    5.1660   18.8780 C   0  0  0  0  0  0  0  0  0  0  0  0
    5.5800    4.1510   19.1270 C   0  0  0  0  0  0  0  0  0  0  0  0
    5.1590    3.1510   19.2120 H   0  0  0  0  0  0  0  0  0  0  0  0
    6.0830    4.4020   20.0550 H   0  0  0  0  0  0  0  0  0  0  0  0
    6.3480    4.1600   18.3540 H   0  0  0  0  0  0  0  0  0  0  0  0
    4.2070    5.7690   17.6890 N   0  0  0  0  0  0  0  0  0  0  0  0
    4.8120    5.3830   16.4370 C   0  0  0  0  0  0  0  0  0  0  0  0
    5.2790    6.3680   15.5670 C   0  0  0  0  0  0  0  0  0  0  0  0
    5.1440    7.3900   15.7870 H   0  0  0  0  0  0  0  0  0  0  0  0
    5.9390    5.9800   14.4080 C   0  0  0  0  0  0  0  0  0  0  0  0
    6.2930    6.7000   13.7230 H   0  0  0  0  0  0  0  0  0  0  0  0
    6.1320    4.6280   14.1540 C   0  0  0  0  0  0  0  0  0  0  0  0
    6.7870    4.2580   13.0290 F   0  0  0  0  0  0  0  0  0  0  0  0
    5.6720    3.6420   15.0130 C   0  0  0  0  0  0  0  0  0  0  0  0
    5.8660    2.6250   14.8070 H   0  0  0  0  0  0  0  0  0  0  0  0
    4.9670    4.0190   16.1490 C   0  0  0  0  0  0  0  0  0  0  0  0
    4.5770    3.2770   16.7970 H   0  0  0  0  0  0  0  0  0  0  0  0
    3.2590    6.7530   17.8400 N   0  0  0  0  0  0  0  0  0  0  0  0
    0.8260    9.5760   20.6610 C   0  0  0  0  0  0  0  0  0  0  0  0
    1.2460    9.4310   21.6480 H   0  0  0  0  0  0  0  0  0  0  0  0
   -0.1380    9.0880   20.7080 H   0  0  0  0  0  0  0  0  0  0  0  0
    0.6160   11.0900   20.4560 C   0  0  0  0  0  0  0  0  0  0  0  0
   -0.2400   11.4130   21.0500 H   0  0  0  0  0  0  0  0  0  0  0  0
    1.4960   11.6110   20.8340 H   0  0  0  0  0  0  0  0  0  0  0  0
   -1.5890    9.9200   18.8300 N   0  0  0  0  0  0  0  0  0  0  0  0
   -2.6860    9.7800   18.0230 N   0  0  0  0  0  0  0  0  0  0  0  0
  1  2  1  0  0  0  0
  1  3  1  0  0  0  0
  1  4  1  0  0  0  0
  1  5  1  0  0  0  0
  5  6  1  0  0  0  0
  5  7  1  0  0  0  0
  5  8  1  0  0  0  0
  8  9  1  0  0  0  0
  8 51  2  0  0  0  0
  9 10  1  0  0  0  0
  9 11  1  0  0  0  0
 11 12  1  0  0  0  0
 11 50  2  0  0  0  0
 12 13  1  0  0  0  0
 12 14  1  0  0  0  0
 12 47  1  0  0  0  0
 14 15  1  0  0  0  0
 14 16  1  0  0  0  0
 14 17  1  0  0  0  0
 17 18  1  0  0  0  0
 17 19  1  0  0  0  0
 17 20  1  0  0  0  0
 20 21  1  0  0  0  0
 20 44  1  0  0  0  0
 21 22  2  0  0  0  0
 21 23  1  0  0  0  0
 23 24  1  0  0  0  0
 23 43  2  0  0  0  0
 24 25  1  0  0  0  0
 24 26  2  0  0  0  0
 26 27  1  0  0  0  0
 26 31  1  0  0  0  0
 27 28  1  0  0  0  0
 27 29  1  0  0  0  0
 27 30  1  0  0  0  0
 31 32  1  0  0  0  0
 31 43  1  0  0  0  0
 32 33  1  0  0  0  0
 32 41  2  0  0  0  0
 33 34  1  0  0  0  0
 33 35  2  0  0  0  0
 35 36  1  0  0  0  0
 35 37  1  0  0  0  0
 37 38  1  0  0  0  0
 37 39  2  0  0  0  0
 39 40  1  0  0  0  0
 39 41  1  0  0  0  0
 41 42  1  0  0  0  0
 44 45  1  0  0  0  0
 44 46  1  0  0  0  0
 44 47  1  0  0  0  0
 47 48  1  0  0  0  0
 47 49  1  0  0  0  0
 50 51  1  0  0  0  0
M  END
>  <receptor>
S(=O)(=O)([O-])[O-].S(CCC(NC(=O)C(NC(=O)C(NC(=O)CNC(=O)C(NC(=O)C1N(C(=O)C(NC(=O)C(NC(=O)C(NC(=O)C(NC(=O)C(NC(=O)C(NC(=O)C(NC(=O)C(NC(=O)C(NC(=O)C(NC(=O)C(NC(=O)C(NC(=O)C(NC(=O)C(NC(=O)C(NC(=O)C(NC(=O)C(NC(=O)C(NC(=O)C(NC(=O)CNC(=O)C(NC(=O)C(NC(=O)C(NC(=O)C(NC(=O)C(NC(=O)C(NC(=O)C(NC(=O)C(NC(=O)C(NC(=O)C(NC(=O)C(NC(=O)C(NC(=O)C(NC(=O)C)CCCC[NH3+])C(C)C)C(O)C)CCC(=O)N)CCC(=O)[O-])CCC(=O)N)Cc2ccccc2)CCC(=O)[O-])CC(C)C)Cc2ccc(O)cc2)CS)CCC(=O)[O-])CCSC)CO)C(O)C)Cc2ccccc2)CCC(=O)N)CC(C)C)C[S-])CCCC[NH3+])C(CC)C)C[S-])C)CCC(=O)[O-])CC(=O)N)CC(=O)[O-])CCCC[NH3+])CC(=O)[O-])C(C)C)CCCC[NH3+])C(CC)C)CCC(=O)[O-])CCC1)C[S-])Cc1nc[n-]c1)CC(C)C)C(=O)NC(C(=O)NC(C(=O)NC(C(=O)NC(C(=O)NC(C(=O)NC(C(=O)NC(C(=O)NC(C(=O)NC(C(=O)NC(C(=O)NC(C(=O)NC(C(=O)NCC(=O)NC(C(=O)NCC(=O)NC(C(=O)N1C(C(=O)NC(C(=O)NC(C(=O)NC(C(=O)NC(C(=O)NC(C(=O)NC(C(=O)NC(C(=O)NCC(=O)NC(C(=O)NC(C(=O)N2C(C(=O)NC(C(=O)NC(C(=O)NC(C(=O)NC(C(=O)N3C(C(=O)NC(C(=O)NC(C(=O)[O-])CC(=O)[O-])Cc4ccccc4)CCC3)CC(=O)[O-])C(C)C)C(CC)C)C(CC)C)CCC2)CCC(=O)[O-])C(O)C)CCCC[NH3+])C(CC)C)CCC(=O)[O-])CS)CCCNC(=[NH2+])N)C[S-])Cc2ccccc2)CCC1)C[S-])CCC(=O)N)CC(=O)[O-])CO)CCC(=O)[O-])CCC(=O)N)Cc1c2c([nH]c1)cccc2)C)C(O)C)CC(C)C)C[S-])CO)C(O)C)C[S-])C.S(CCC(NC(=O)C(NC(=O)C(NC(=O)C(NC(=O)C(NC(=O)C(NC(=O)C(NC(=O)C(NC(=O)C(NC(=O)C(NC(=O)C(NC(=O)C(NC(=O)C(NC(=O)C(NC(=O)C(NC(=O)C(NC(=O)C[NH3+])CCC(=O)N)C)C)C)CC(=O)[O-])CCCNC(=[NH2+])N)CCCNC(=[NH2+])N)C(O)C)C(C)C)CCC(=O)[O-])CCCC[NH3+])C(O)C)Cc1c2c([nH]c1)cccc2)C)CC(C)C)C(=O)NC(C(=O)NC(C(=O)NC(C(=O)NC(C(=O)NC(C(=O)NC(C(=O)NC(C(=O)NC(C(=O)NC(C(=O)N1C(C(=O)NC(C(=O)NC(C(=O)NC(C(=O)NC(C(=O)NC(C(=O)NC(C(=O)NC(C(=O)N2C(C(=O)N3C(C(=O)NC(C(=O)NC(C(=O)NC(C(=O)NC(C(=O)NC(C(=O)NC(C(=O)N4C(C(=O)NC(C(=O)NC(C(=O)NC(C(=O)NC(C(=O)NC(C(=O)NC(C(=O)NC(C(=O)NC(C(=O)NC(C(=O)NC(C(=O)NC(C(=O)NC(C(=O)NC(C(=O)NC(C(=O)NC(C(=O)NC(C(=O)NC(C(=O)NC(C(=O)NC(C(=O)NC(C(=O)NC(C(=O)NC(C(=O)NC(C(=O)NC(C(=O)NC(C(=O)NC(C(=O)NC(C(=O)NC(C(=O)NC(C(=O)NC(C(=O)NC(C(=O)NC(C(=O)NC(C(=O)NC(C(=O)NC(C(=O)NC(C(=O)NC(C(=O)NC(C(=O)NC(C(=O)NC(C(=O)NC(C(=O)NC(C(=O)NC(C(=O)NC(C(=O)NC(C(=O)NC(C(=O)NC(C(=O)NC(C(=O)NCC(=O)NC(C(=O)NC(C(=O)NC(C(=O)NC(C(=O)NC(C(=O)NC(C(=O)NC(C(=O)NC(C(=O)NC(C(=O)NC(C(=O)NC(C(=O)NC(C(=O)NC(C(=O)NC(C(=O)NC(C(=O)NC(C(=O)NC(C(=O)NC(C(=O)NC(C(=O)NC(C(=O)NC(C(=O)NC(C(=O)NC(C(=O)NC(C(=O)NC(C(=O)NC(C(=O)NC(C(=O)NC(C(=O)NC(C(=O)NC(C(=O)NC(C(=O)NC(C(=O)NC(C(=O)N5C(C(=O)NC(C(=O)NCC(=O)NC(C(=O)NC(C(=O)NC(C(=O)NCC(=O)NC(C(=O)NC(C(=O)NC(C(=O)NC(C(=O)NC(C(=O)NC(C(=O)NC(C(=O)NC(C(=O)NC(C(=O)NC(C(=O)NC(C(=O)NC(C(=O)NC(C(=O)NC(C(=O)NC(C(=O)NC(C(=O)NC(C(=O)NC(C(=O)NCC(=O)NC(C(=O)NC(C(=O)NC(C(=O)NC(C(=O)NC(C(=O)N6C(C(=O)NC(C(=O)NC(C(=O)NC(C(=O)NC(C(=O)NC(C(=O)NC(C(=O)NC(C(=O)NC(C(=O)NC(C(=O)NC(C(=O)NC(C(=O)NC(C(=O)NC(C(=O)NC(C(=O)NC(C(=O)NC(C(=O)NCC(=O)NC(C(=O)NC(C(=O)NC(C(=O)NC(C(=O)NC(C(=O)NC(C(=O)NC(C(=O)NC(C(=O)NC(C(=O)NC(C(=O)NC(C(=O)NC(C(=O)NC(C(=O)NC(C(=O)NC(C(=O)NC(C(=O)NC(C(=O)NC(C(=O)NC(C(=O)NC(C(=O)NC(C(=O)NC(C(=O)NC(C(=O)NC(C(=O)NC(C(=O)NC(C(=O)NC(C(=O)NC(C(=O)NC(C(=O)NC(C(=O)NC(C(=O)N7C(C(=O)NC(C(=O)NCC(=O)NC(C(=O)NC(C(=O)NC(C(=O)NC(C(=O)NC(C(=O)NC(C(=O)NC(C(=O)NC(C(=O)NC(C(=O)NC(C(=O)NC(C(=O)NC(C(=O)NC(C(=O)N8C(C(=O)NCC(=O)NC(C(=O)NC(C(=O)NC(C(=O)NC(C(=O)NC(C(=O)NC(C(=O)NC(C(=O)NC(C(=O)NC(C(=O)NC(C(=O)NC(C(=O)NC(C(=O)NC(C(=O)NC(C(=O)NC(C(=O)NC(C(=O)NC(C(=O)NC(C(=O)NC(C(=O)NC(C(=O)N9C(C(=O)NCC(=O)NC(C(=O)NC(C(=O)NC(C(=O)NC(C(=O)NC(C(=O)NC(C(=O)NC(C(=O)NC(C(=O)NC(C(=O)NC(C(=O)NC(C(=O)NCC(=O)NC(C(=O)NC(C(=O)NC(C(=O)NC(C(=O)NCC(=O)NC(C(=O)NC(C(=O)NC(C(=O)NCC(=O)NC(C(=O)NCC(=O)NC(C(=O)NC(C(=O)NC(C(=O)NC(C(=O)NC(C(=O)NC(C(=O)N%10C(C(=O)NC(C(=O)NC(C(=O)NC(C(=O)N%11C(C(=O)NC(C(=O)NC(C(=O)NC(C(=O)NC(C(=O)NC(C(=O)NC(C(=O)NC(C(=O)NCC(=O)NC(C(=O)NC(C(=O)NC(C(=O)NCC(=O)NC(C(=O)NC(C(=O)NC(C(=O)NC(C(=O)N%12C(C(=O)NC(C(=O)NCC(=O)NC(C(=O)NC(C(=O)NC(C(=O)NC(C(=O)NC)CC(=O)N)Cc%13ccc(O)cc%13)CO)CCCNC(=[NH2+])N)CC(=O)[O-])CCC%12)Cc%12ccc(O)cc%12)CC(C)C)Cc%12ccc(O)cc%12)Cc%12ccccc%12)CCC(=O)[O-])C)CO)CC(=O)[O-])C(CC)C)CC(C)C)C)CCC(=O)N)Cc%12ccccc%12)CC(C)C)CCC%11)CCCC[NH3+])CC(=O)N)Cc%11[nH]cnc%11)CCC%10)C(CC)C)C(O)C)CCC(=O)N)CC(C)C)C(CC)C)CC(=O)N)CC(=O)[O-])C(O)C)C(C)C)Cc%10ccc(O)cc%10)C(CC)C)C)Cc%10c%11c([nH]c%10)cccc%11)CCC(=O)N)CC(C)C)CCCNC(=[NH2+])N)C(O)C)CS)CO)CC(C)C)CCCNC(=[NH2+])N)Cc%10ccccc%10)C(CC)C)Cc%10ccc(O)cc%10)CO)CCC9)CCCC[NH3+])C(O)C)CO)Cc9ccc(O)cc9)CCCC[NH3+])CCC(=O)N)CC(C)C)CCCNC(=[NH2+])N)C)CCCC[NH3+])C(C)C)CCC(=O)[O-])CC(=O)[O-])Cc9ccc(O)cc9)C(O)C)CC(C)C)Cc9ccccc9)C)CCSC)Cc9ccc(O)cc9)CCC8)Cc8nc[nH]c8)C(O)C)C(C)C)C)CC(C)C)Cc8ccccc8)CC(=O)N)Cc8c9c([nH]c8)cccc9)CC(=O)N)CCCNC(=[NH2+])N)CC(C)C)C(CC)C)CO)Cc8c9c([nH]c8)cccc9)CCC7)CCC(=O)N)Cc7ccccc7)CC(C)C)CCCNC(=[NH2+])N)C(O)C)Cc7ccccc7)C(CC)C)CC(=O)[O-])Cc7ccccc7)CCC(=O)[O-])Cc7ccccc7)C(C)C)CO)C(CC)C)Cc7ccc(O)cc7)CC(=O)[O-])CC(=O)N)CS)C(O)C)CC(C)C)CC(=O)[O-])C(CC)C)C(O)C)CO)CCCC[NH3+])CC(C)C)C)CCSC)C)CCC(=O)[O-])CC(C)C)CO)CO)C(CC)C)CCC(=O)N)Cc7nc[nH]c7)C(C)C)CCC(=O)[O-])Cc7nc[nH]c7)CC(C)C)CS)CCC(=O)N)CCCNC(=[NH2+])N)Cc7ccccc7)C(C)C)CCCC[NH3+])Cc7c8c([nH]c7)cccc8)CCC6)C(C)C)C(CC)C)C(O)C)CCCC[NH3+])CC(=O)[O-])Cc6ccccc6)Cc6ccccc6)CCCC[NH3+])CCCNC(=[NH2+])N)Cc6c7c([nH]c6)cccc7)Cc6ccccc6)CCC(=O)[O-])C)C)CC(=O)[O-])C)CCCC[NH3+])C(O)C)C(CC)C)CCCNC(=[NH2+])N)Cc6ccccc6)CC(=O)N)CC(=O)[O-])CCC(=O)N)Cc6ccccc6)CCC(=O)N)CC(=O)N)CCC5)Cc5ccccc5)C(CC)C)C)CCCC[NH3+])C(CC)C)CCC(=O)[O-])C)CC(C)C)CCSC)Cc5nc[nH]c5)CO)Cc5ccccc5)C(CC)C)CC(C)C)CO)CC(C)C)CCCC[NH3+])C(O)C)CC(C)C)CC(=O)N)CCCNC(=[NH2+])N)CCCNC(=[NH2+])N)CC(=O)[O-])CCC(=O)N)CO)CCC(=O)N)CCC(=O)[O-])CCC(=O)[O-])Cc5ccc(O)cc5)CCSC)CCCNC(=[NH2+])N)CCC(=O)[O-])CCCC[NH3+])CCC(=O)[O-])CCCC[NH3+])Cc5ccccc5)CC(C)C)CCCNC(=[NH2+])N)C(CC)C)C)CCCNC(=[NH2+])N)CCCC[NH3+])CO)CCCC[NH3+])CCCC[NH3+])CCSC)CC(C)C)CO)CC(=O)[O-])C(CC)C)Cc5ccc(O)cc5)C(CC)C)CCCC[NH3+])Cc5ccccc5)Cc5ccc(O)cc5)CCC(=O)[O-])CC(=O)N)CCC(=O)[O-])CO)CC(C)C)CCC(=O)N)C)CC(C)C)CCCC[NH3+])CCC(=O)N)CC(=O)N)CC(=O)[O-])CC(=O)[O-])Cc5ccc(O)cc5)CCCC[NH3+])CO)CC(C)C)C(CC)C)CC(C)C)CCCNC(=[NH2+])N)CC(C)C)Cc5nc[nH]c5)CCC(=O)N)Cc5ccc(O)cc5)C(O)C)CC(=O)[O-])CCC4)CC(C)C)C(CC)C)CC(=O)[O-])CC(C)C)C(CC)C)Cc4ccc(O)cc4)CCC3)CCC2)CO)CC(=O)N)CCCC[NH3+])CC(C)C)CCC(=O)N)CC(C)C)CCCC[NH3+])CCC1)CC(=O)N)CCC(=O)N)CS)CC(C)C)CCCNC(=[NH2+])N)C(C)C)C(C)C)C)CC(=O)[O-])C.OCCO.[UH+3].[Zn+2].[Zn+2].O.O.O.O.O.O.O.O.O.O.O.O.O.O.O.O.O.O.O.O.O.O.O.O.O.O.O.O.O.O.O.O.O.O.O.O.O.O.O.O.O.O.O.O.O.O.O.O.O.O.O.O.O.O.O.O.O.O.O.O.O.O.O.O.O.O.O.O.O.O.O.O.O.O.O.O.O.O.O.O.O.O.O.O.O.O.O.O.O.O.O.O.O.O.O.O.O.O.O.O.O.O.O.O.O.O.O.O.O.O.O.O.O.O.O.O.O.O.O.O.O.O.O.O.O.O.O.O.O.O.O.O.O.O.O.O.O.O.O.O.O.O

>  <rseq>
1

>  <mseq>
24

>  <S>
-8.1717272

>  <rmsd_refine>
1.0620149

>  <E_conf>
96.682861

>  <E_place>
-78.211624

>  <E_score1>
-11.158466

>  <E_refine>
-39.215603

>  <E_score2>
-8.1717272

>  <Field_2>
LB04

>  <pseq>
24

>  <%C>
99.036507

>  <a_heavy>
28

>  <h_logP>
2.3313105

>  <Weight>
382.44299

>  <E_orig>
1.6

>  <PLIF_raw>
[[],[],[],[],[]]

>  <PLIF_ligidx>
[]

$$$$

  MOE2020           3D

 47 51  0  0  1  0  0  0  0  0999 V2000
    6.8240    6.1660   17.0290 C   0  0  0  0  0  0  0  0  0  0  0  0
    6.4940    7.1850   16.8280 H   0  0  0  0  0  0  0  0  0  0  0  0
    6.9010    5.6320   16.0810 H   0  0  0  0  0  0  0  0  0  0  0  0
    7.8120    6.2080   17.4900 H   0  0  0  0  0  0  0  0  0  0  0  0
    5.8480    5.4680   17.9470 C   0  0  0  0  0  0  0  0  0  0  0  0
    6.0400    4.2170   18.3960 N   0  0  0  0  0  0  0  0  0  0  0  0
    6.8620    3.6330   18.1540 H   0  0  0  0  0  0  0  0  0  0  0  0
    5.0620    3.7670   19.2160 N   0  0  0  0  0  0  0  0  0  0  0  0
    4.2260    4.7780   19.2830 C   0  0  0  0  0  0  0  0  0  0  0  0
    3.0440    4.8310   20.0000 N   0  0  0  0  0  0  0  0  0  0  0  0
    2.3330    5.9130   19.9420 C   0  0  0  0  0  0  0  0  0  0  0  0
    1.4200    5.9340   20.4780 H   0  0  0  0  0  0  0  0  0  0  0  0
    2.7140    7.0720   19.1730 C   0  0  0  0  0  0  0  0  0  0  0  0
    1.8500    8.2440   19.1020 C   0  0  0  0  0  0  0  0  0  0  0  0
    1.4560    8.6440   18.0110 O   0  0  0  0  0  0  0  0  0  0  0  0
    1.4490    8.9410   20.2420 N   0  0  0  0  0  0  0  0  0  0  0  0
    1.7800    8.5990   21.6330 C   0  0  0  0  0  0  0  0  0  0  0  0
    1.9270    7.5350   21.7820 H   0  0  0  0  0  0  0  0  0  0  0  0
    2.6920    9.1150   21.9250 H   0  0  0  0  0  0  0  0  0  0  0  0
    0.6430    9.0650   22.5460 C   0  0  0  0  0  0  0  0  0  0  0  0
   -0.1320    8.3010   22.6000 H   0  0  0  0  0  0  0  0  0  0  0  0
    0.9940    9.3570   23.5360 H   0  0  0  0  0  0  0  0  0  0  0  0
    0.1140   10.2420   21.7460 C   0  0  0  0  0  0  0  0  0  0  0  0
    0.7170   11.1220   21.9760 H   0  0  0  0  0  0  0  0  0  0  0  0
   -0.9330   10.4420   21.9780 H   0  0  0  0  0  0  0  0  0  0  0  0
    0.3030    9.8590   20.2760 C   0  0  1  0  0  0  0  0  0  0  0  0
    0.3390   11.0980   19.3570 C   0  0  0  0  0  0  0  0  0  0  0  0
    0.8100   10.8720   18.4130 H   0  0  0  0  0  0  0  0  0  0  0  0
    0.9440   11.8770   19.7990 H   0  0  0  0  0  0  0  0  0  0  0  0
   -1.0100   11.5610   19.1090 N   0  0  0  0  0  0  0  0  0  0  0  0
   -1.8370   11.0140   18.2240 C   0  0  0  0  0  0  0  0  0  0  0  0
   -1.5340   10.2730   17.5310 H   0  0  0  0  0  0  0  0  0  0  0  0
   -3.0310   11.5790   18.4630 C   0  0  0  0  0  0  0  0  0  0  0  0
   -4.3010   11.2200   17.7370 C   0  0  0  0  0  0  0  0  0  0  0  0
   -4.8350   10.3770   18.1520 H   0  0  0  0  0  0  0  0  0  0  0  0
   -4.3010   11.3580   16.2410 C   0  0  0  0  0  0  0  0  0  0  0  0
   -3.4140   11.7590   15.7710 H   0  0  0  0  0  0  0  0  0  0  0  0
   -4.7800   10.5830   15.6650 H   0  0  0  0  0  0  0  0  0  0  0  0
   -5.1390   12.2770   17.0750 C   0  0  0  0  0  0  0  0  0  0  0  0
   -6.2110   12.1420   17.0730 H   0  0  0  0  0  0  0  0  0  0  0  0
   -4.8300   13.3050   17.1960 H   0  0  0  0  0  0  0  0  0  0  0  0
   -2.9180   12.4680   19.4750 N   0  0  0  0  0  0  0  0  0  0  0  0
   -1.6650   12.4480   19.8740 N   0  0  0  0  0  0  0  0  0  0  0  0
    3.8780    7.0300   18.4430 C   0  0  0  0  0  0  0  0  0  0  0  0
    4.1860    7.8520   17.8560 H   0  0  0  0  0  0  0  0  0  0  0  0
    4.6630    5.8550   18.5070 C   0  0  0  0  0  0  0  0  0  0  0  0
   -0.5550    9.2670   19.9910 H   0  0  0  0  0  0  0  0  0  0  0  0
  1  2  1  0  0  0  0
  1  3  1  0  0  0  0
  1  4  1  0  0  0  0
  1  5  1  0  0  0  0
  5  6  1  0  0  0  0
  5 46  2  0  0  0  0
  6  7  1  0  0  0  0
  6  8  1  0  0  0  0
  8  9  2  0  0  0  0
  9 10  1  0  0  0  0
  9 46  1  0  0  0  0
 10 11  2  0  0  0  0
 11 12  1  0  0  0  0
 11 13  1  0  0  0  0
 13 14  1  0  0  0  0
 13 44  2  0  0  0  0
 14 15  2  0  0  0  0
 14 16  1  0  0  0  0
 16 17  1  0  0  0  0
 16 26  1  0  0  0  0
 17 18  1  0  0  0  0
 17 19  1  0  0  0  0
 17 20  1  0  0  0  0
 20 21  1  0  0  0  0
 20 22  1  0  0  0  0
 20 23  1  0  0  0  0
 23 24  1  0  0  0  0
 23 25  1  0  0  0  0
 23 26  1  0  0  0  0
 26 27  1  0  0  0  0
 26 47  1  0  0  0  0
 27 28  1  0  0  0  0
 27 29  1  0  0  0  0
 27 30  1  0  0  0  0
 30 31  1  0  0  0  0
 30 43  1  0  0  0  0
 31 32  1  0  0  0  0
 31 33  2  0  0  0  0
 33 34  1  0  0  0  0
 33 42  1  0  0  0  0
 34 35  1  0  0  0  0
 34 36  1  0  0  0  0
 34 39  1  0  0  0  0
 36 37  1  0  0  0  0
 36 38  1  0  0  0  0
 36 39  1  0  0  0  0
 39 40  1  0  0  0  0
 39 41  1  0  0  0  0
 42 43  2  0  0  0  0
 44 45  1  0  0  0  0
 44 46  1  0  0  0  0
M  END
>  <receptor>
S(=O)(=O)([O-])[O-].S(CCC(NC(=O)C(NC(=O)C(NC(=O)CNC(=O)C(NC(=O)C1N(C(=O)C(NC(=O)C(NC(=O)C(NC(=O)C(NC(=O)C(NC(=O)C(NC(=O)C(NC(=O)C(NC(=O)C(NC(=O)C(NC(=O)C(NC(=O)C(NC(=O)C(NC(=O)C(NC(=O)C(NC(=O)C(NC(=O)C(NC(=O)C(NC(=O)C(NC(=O)CNC(=O)C(NC(=O)C(NC(=O)C(NC(=O)C(NC(=O)C(NC(=O)C(NC(=O)C(NC(=O)C(NC(=O)C(NC(=O)C(NC(=O)C(NC(=O)C(NC(=O)C(NC(=O)C)CCCC[NH3+])C(C)C)C(O)C)CCC(=O)N)CCC(=O)[O-])CCC(=O)N)Cc2ccccc2)CCC(=O)[O-])CC(C)C)Cc2ccc(O)cc2)CS)CCC(=O)[O-])CCSC)CO)C(O)C)Cc2ccccc2)CCC(=O)N)CC(C)C)C[S-])CCCC[NH3+])C(CC)C)C[S-])C)CCC(=O)[O-])CC(=O)N)CC(=O)[O-])CCCC[NH3+])CC(=O)[O-])C(C)C)CCCC[NH3+])C(CC)C)CCC(=O)[O-])CCC1)C[S-])Cc1nc[n-]c1)CC(C)C)C(=O)NC(C(=O)NC(C(=O)NC(C(=O)NC(C(=O)NC(C(=O)NC(C(=O)NC(C(=O)NC(C(=O)NC(C(=O)NC(C(=O)NC(C(=O)NC(C(=O)NCC(=O)NC(C(=O)NCC(=O)NC(C(=O)N1C(C(=O)NC(C(=O)NC(C(=O)NC(C(=O)NC(C(=O)NC(C(=O)NC(C(=O)NC(C(=O)NCC(=O)NC(C(=O)NC(C(=O)N2C(C(=O)NC(C(=O)NC(C(=O)NC(C(=O)NC(C(=O)N3C(C(=O)NC(C(=O)NC(C(=O)[O-])CC(=O)[O-])Cc4ccccc4)CCC3)CC(=O)[O-])C(C)C)C(CC)C)C(CC)C)CCC2)CCC(=O)[O-])C(O)C)CCCC[NH3+])C(CC)C)CCC(=O)[O-])CS)CCCNC(=[NH2+])N)C[S-])Cc2ccccc2)CCC1)C[S-])CCC(=O)N)CC(=O)[O-])CO)CCC(=O)[O-])CCC(=O)N)Cc1c2c([nH]c1)cccc2)C)C(O)C)CC(C)C)C[S-])CO)C(O)C)C[S-])C.S(CCC(NC(=O)C(NC(=O)C(NC(=O)C(NC(=O)C(NC(=O)C(NC(=O)C(NC(=O)C(NC(=O)C(NC(=O)C(NC(=O)C(NC(=O)C(NC(=O)C(NC(=O)C(NC(=O)C(NC(=O)C(NC(=O)C[NH3+])CCC(=O)N)C)C)C)CC(=O)[O-])CCCNC(=[NH2+])N)CCCNC(=[NH2+])N)C(O)C)C(C)C)CCC(=O)[O-])CCCC[NH3+])C(O)C)Cc1c2c([nH]c1)cccc2)C)CC(C)C)C(=O)NC(C(=O)NC(C(=O)NC(C(=O)NC(C(=O)NC(C(=O)NC(C(=O)NC(C(=O)NC(C(=O)NC(C(=O)N1C(C(=O)NC(C(=O)NC(C(=O)NC(C(=O)NC(C(=O)NC(C(=O)NC(C(=O)NC(C(=O)N2C(C(=O)N3C(C(=O)NC(C(=O)NC(C(=O)NC(C(=O)NC(C(=O)NC(C(=O)NC(C(=O)N4C(C(=O)NC(C(=O)NC(C(=O)NC(C(=O)NC(C(=O)NC(C(=O)NC(C(=O)NC(C(=O)NC(C(=O)NC(C(=O)NC(C(=O)NC(C(=O)NC(C(=O)NC(C(=O)NC(C(=O)NC(C(=O)NC(C(=O)NC(C(=O)NC(C(=O)NC(C(=O)NC(C(=O)NC(C(=O)NC(C(=O)NC(C(=O)NC(C(=O)NC(C(=O)NC(C(=O)NC(C(=O)NC(C(=O)NC(C(=O)NC(C(=O)NC(C(=O)NC(C(=O)NC(C(=O)NC(C(=O)NC(C(=O)NC(C(=O)NC(C(=O)NC(C(=O)NC(C(=O)NC(C(=O)NC(C(=O)NC(C(=O)NC(C(=O)NC(C(=O)NC(C(=O)NC(C(=O)NC(C(=O)NC(C(=O)NCC(=O)NC(C(=O)NC(C(=O)NC(C(=O)NC(C(=O)NC(C(=O)NC(C(=O)NC(C(=O)NC(C(=O)NC(C(=O)NC(C(=O)NC(C(=O)NC(C(=O)NC(C(=O)NC(C(=O)NC(C(=O)NC(C(=O)NC(C(=O)NC(C(=O)NC(C(=O)NC(C(=O)NC(C(=O)NC(C(=O)NC(C(=O)NC(C(=O)NC(C(=O)NC(C(=O)NC(C(=O)NC(C(=O)NC(C(=O)NC(C(=O)NC(C(=O)NC(C(=O)NC(C(=O)N5C(C(=O)NC(C(=O)NCC(=O)NC(C(=O)NC(C(=O)NC(C(=O)NCC(=O)NC(C(=O)NC(C(=O)NC(C(=O)NC(C(=O)NC(C(=O)NC(C(=O)NC(C(=O)NC(C(=O)NC(C(=O)NC(C(=O)NC(C(=O)NC(C(=O)NC(C(=O)NC(C(=O)NC(C(=O)NC(C(=O)NC(C(=O)NC(C(=O)NCC(=O)NC(C(=O)NC(C(=O)NC(C(=O)NC(C(=O)NC(C(=O)N6C(C(=O)NC(C(=O)NC(C(=O)NC(C(=O)NC(C(=O)NC(C(=O)NC(C(=O)NC(C(=O)NC(C(=O)NC(C(=O)NC(C(=O)NC(C(=O)NC(C(=O)NC(C(=O)NC(C(=O)NC(C(=O)NC(C(=O)NCC(=O)NC(C(=O)NC(C(=O)NC(C(=O)NC(C(=O)NC(C(=O)NC(C(=O)NC(C(=O)NC(C(=O)NC(C(=O)NC(C(=O)NC(C(=O)NC(C(=O)NC(C(=O)NC(C(=O)NC(C(=O)NC(C(=O)NC(C(=O)NC(C(=O)NC(C(=O)NC(C(=O)NC(C(=O)NC(C(=O)NC(C(=O)NC(C(=O)NC(C(=O)NC(C(=O)NC(C(=O)NC(C(=O)NC(C(=O)NC(C(=O)NC(C(=O)N7C(C(=O)NC(C(=O)NCC(=O)NC(C(=O)NC(C(=O)NC(C(=O)NC(C(=O)NC(C(=O)NC(C(=O)NC(C(=O)NC(C(=O)NC(C(=O)NC(C(=O)NC(C(=O)NC(C(=O)NC(C(=O)N8C(C(=O)NCC(=O)NC(C(=O)NC(C(=O)NC(C(=O)NC(C(=O)NC(C(=O)NC(C(=O)NC(C(=O)NC(C(=O)NC(C(=O)NC(C(=O)NC(C(=O)NC(C(=O)NC(C(=O)NC(C(=O)NC(C(=O)NC(C(=O)NC(C(=O)NC(C(=O)NC(C(=O)NC(C(=O)N9C(C(=O)NCC(=O)NC(C(=O)NC(C(=O)NC(C(=O)NC(C(=O)NC(C(=O)NC(C(=O)NC(C(=O)NC(C(=O)NC(C(=O)NC(C(=O)NC(C(=O)NCC(=O)NC(C(=O)NC(C(=O)NC(C(=O)NC(C(=O)NCC(=O)NC(C(=O)NC(C(=O)NC(C(=O)NCC(=O)NC(C(=O)NCC(=O)NC(C(=O)NC(C(=O)NC(C(=O)NC(C(=O)NC(C(=O)NC(C(=O)N%10C(C(=O)NC(C(=O)NC(C(=O)NC(C(=O)N%11C(C(=O)NC(C(=O)NC(C(=O)NC(C(=O)NC(C(=O)NC(C(=O)NC(C(=O)NC(C(=O)NCC(=O)NC(C(=O)NC(C(=O)NC(C(=O)NCC(=O)NC(C(=O)NC(C(=O)NC(C(=O)NC(C(=O)N%12C(C(=O)NC(C(=O)NCC(=O)NC(C(=O)NC(C(=O)NC(C(=O)NC(C(=O)NC)CC(=O)N)Cc%13ccc(O)cc%13)CO)CCCNC(=[NH2+])N)CC(=O)[O-])CCC%12)Cc%12ccc(O)cc%12)CC(C)C)Cc%12ccc(O)cc%12)Cc%12ccccc%12)CCC(=O)[O-])C)CO)CC(=O)[O-])C(CC)C)CC(C)C)C)CCC(=O)N)Cc%12ccccc%12)CC(C)C)CCC%11)CCCC[NH3+])CC(=O)N)Cc%11[nH]cnc%11)CCC%10)C(CC)C)C(O)C)CCC(=O)N)CC(C)C)C(CC)C)CC(=O)N)CC(=O)[O-])C(O)C)C(C)C)Cc%10ccc(O)cc%10)C(CC)C)C)Cc%10c%11c([nH]c%10)cccc%11)CCC(=O)N)CC(C)C)CCCNC(=[NH2+])N)C(O)C)CS)CO)CC(C)C)CCCNC(=[NH2+])N)Cc%10ccccc%10)C(CC)C)Cc%10ccc(O)cc%10)CO)CCC9)CCCC[NH3+])C(O)C)CO)Cc9ccc(O)cc9)CCCC[NH3+])CCC(=O)N)CC(C)C)CCCNC(=[NH2+])N)C)CCCC[NH3+])C(C)C)CCC(=O)[O-])CC(=O)[O-])Cc9ccc(O)cc9)C(O)C)CC(C)C)Cc9ccccc9)C)CCSC)Cc9ccc(O)cc9)CCC8)Cc8nc[nH]c8)C(O)C)C(C)C)C)CC(C)C)Cc8ccccc8)CC(=O)N)Cc8c9c([nH]c8)cccc9)CC(=O)N)CCCNC(=[NH2+])N)CC(C)C)C(CC)C)CO)Cc8c9c([nH]c8)cccc9)CCC7)CCC(=O)N)Cc7ccccc7)CC(C)C)CCCNC(=[NH2+])N)C(O)C)Cc7ccccc7)C(CC)C)CC(=O)[O-])Cc7ccccc7)CCC(=O)[O-])Cc7ccccc7)C(C)C)CO)C(CC)C)Cc7ccc(O)cc7)CC(=O)[O-])CC(=O)N)CS)C(O)C)CC(C)C)CC(=O)[O-])C(CC)C)C(O)C)CO)CCCC[NH3+])CC(C)C)C)CCSC)C)CCC(=O)[O-])CC(C)C)CO)CO)C(CC)C)CCC(=O)N)Cc7nc[nH]c7)C(C)C)CCC(=O)[O-])Cc7nc[nH]c7)CC(C)C)CS)CCC(=O)N)CCCNC(=[NH2+])N)Cc7ccccc7)C(C)C)CCCC[NH3+])Cc7c8c([nH]c7)cccc8)CCC6)C(C)C)C(CC)C)C(O)C)CCCC[NH3+])CC(=O)[O-])Cc6ccccc6)Cc6ccccc6)CCCC[NH3+])CCCNC(=[NH2+])N)Cc6c7c([nH]c6)cccc7)Cc6ccccc6)CCC(=O)[O-])C)C)CC(=O)[O-])C)CCCC[NH3+])C(O)C)C(CC)C)CCCNC(=[NH2+])N)Cc6ccccc6)CC(=O)N)CC(=O)[O-])CCC(=O)N)Cc6ccccc6)CCC(=O)N)CC(=O)N)CCC5)Cc5ccccc5)C(CC)C)C)CCCC[NH3+])C(CC)C)CCC(=O)[O-])C)CC(C)C)CCSC)Cc5nc[nH]c5)CO)Cc5ccccc5)C(CC)C)CC(C)C)CO)CC(C)C)CCCC[NH3+])C(O)C)CC(C)C)CC(=O)N)CCCNC(=[NH2+])N)CCCNC(=[NH2+])N)CC(=O)[O-])CCC(=O)N)CO)CCC(=O)N)CCC(=O)[O-])CCC(=O)[O-])Cc5ccc(O)cc5)CCSC)CCCNC(=[NH2+])N)CCC(=O)[O-])CCCC[NH3+])CCC(=O)[O-])CCCC[NH3+])Cc5ccccc5)CC(C)C)CCCNC(=[NH2+])N)C(CC)C)C)CCCNC(=[NH2+])N)CCCC[NH3+])CO)CCCC[NH3+])CCCC[NH3+])CCSC)CC(C)C)CO)CC(=O)[O-])C(CC)C)Cc5ccc(O)cc5)C(CC)C)CCCC[NH3+])Cc5ccccc5)Cc5ccc(O)cc5)CCC(=O)[O-])CC(=O)N)CCC(=O)[O-])CO)CC(C)C)CCC(=O)N)C)CC(C)C)CCCC[NH3+])CCC(=O)N)CC(=O)N)CC(=O)[O-])CC(=O)[O-])Cc5ccc(O)cc5)CCCC[NH3+])CO)CC(C)C)C(CC)C)CC(C)C)CCCNC(=[NH2+])N)CC(C)C)Cc5nc[nH]c5)CCC(=O)N)Cc5ccc(O)cc5)C(O)C)CC(=O)[O-])CCC4)CC(C)C)C(CC)C)CC(=O)[O-])CC(C)C)C(CC)C)Cc4ccc(O)cc4)CCC3)CCC2)CO)CC(=O)N)CCCC[NH3+])CC(C)C)CCC(=O)N)CC(C)C)CCCC[NH3+])CCC1)CC(=O)N)CCC(=O)N)CS)CC(C)C)CCCNC(=[NH2+])N)C(C)C)C(C)C)C)CC(=O)[O-])C.OCCO.[UH+3].[Zn+2].[Zn+2].O.O.O.O.O.O.O.O.O.O.O.O.O.O.O.O.O.O.O.O.O.O.O.O.O.O.O.O.O.O.O.O.O.O.O.O.O.O.O.O.O.O.O.O.O.O.O.O.O.O.O.O.O.O.O.O.O.O.O.O.O.O.O.O.O.O.O.O.O.O.O.O.O.O.O.O.O.O.O.O.O.O.O.O.O.O.O.O.O.O.O.O.O.O.O.O.O.O.O.O.O.O.O.O.O.O.O.O.O.O.O.O.O.O.O.O.O.O.O.O.O.O.O.O.O.O.O.O.O.O.O.O.O.O.O.O.O.O.O.O.O.O

>  <rseq>
1

>  <mseq>
25

>  <S>
-7.1388822

>  <rmsd_refine>
1.9014022

>  <E_conf>
162.13031

>  <E_place>
-74.544937

>  <E_score1>
-11.239367

>  <E_refine>
-35.454533

>  <E_score2>
-7.1388822

>  <Field_2>
LB05

>  <pseq>
25

>  <%C>
72.911118

>  <a_heavy>
26

>  <h_logP>
0.59861493

>  <Weight>
351.414

>  <E_orig>
0.60000002

>  <PLIF_raw>
[[30,43,42,33,31],[1823,1823,1823,1823,1823],[144,144,144,144,144],[10,10,10,10,10],[0.7,0.7,0.7,0.7,0.7]]

>  <FP:PLIF>
32

>  <PLIF_ligidx>
[[30,43,42,33,31]]

$$$$

  MOE2020           3D

 45 48  0  0  1  0  0  0  0  0999 V2000
    8.7730    8.3540   18.6230 C   0  0  0  0  0  0  0  0  0  0  0  0
    7.8000    8.8180   18.7660 H   0  0  0  0  0  0  0  0  0  0  0  0
    9.1670    8.6500   17.6540 H   0  0  0  0  0  0  0  0  0  0  0  0
    9.4500    8.7010   19.4030 H   0  0  0  0  0  0  0  0  0  0  0  0
    8.6650    6.9460   18.6880 O   0  0  0  0  0  0  0  0  0  0  0  0
    7.7640    6.4250   17.7320 C   0  0  1  0  0  0  0  0  0  0  0  0
    7.9240    4.9170   17.5960 C   0  0  0  0  0  0  0  0  0  0  0  0
    8.7310    4.6400   16.9250 H   0  0  0  0  0  0  0  0  0  0  0  0
    8.1180    4.4920   18.5820 H   0  0  0  0  0  0  0  0  0  0  0  0
    6.5750    4.4100   17.1010 C   0  0  2  0  0  0  0  0  0  0  0  0
    6.4400    4.3330   15.5930 C   0  0  0  0  0  0  0  0  0  0  0  0
    7.2980    4.5820   14.6880 N   0  0  0  0  0  0  0  0  0  0  0  0
    6.6300    4.2980   13.5560 C   0  0  0  0  0  0  0  0  0  0  0  0
    7.2540    4.3430   12.1860 C   0  0  0  0  0  0  0  0  0  0  0  0
    6.4920    4.4270   11.4150 H   0  0  0  0  0  0  0  0  0  0  0  0
    7.9470    5.1800   12.1070 H   0  0  0  0  0  0  0  0  0  0  0  0
    7.7900    3.4160   12.0080 H   0  0  0  0  0  0  0  0  0  0  0  0
    5.4280    3.9320   13.7650 N   0  0  0  0  0  0  0  0  0  0  0  0
    5.2930    3.9490   15.0710 O   0  0  0  0  0  0  0  0  0  0  0  0
    5.5970    5.3270   17.6630 N   0  0  0  0  0  0  0  0  0  0  0  0
    4.3640    4.8730   18.0730 C   0  0  0  0  0  0  0  0  0  0  0  0
    4.0310    3.7400   17.7350 O   0  0  0  0  0  0  0  0  0  0  0  0
    3.4960    5.6830   18.9170 C   0  0  0  0  0  0  0  0  0  0  0  0
    2.9530    5.0790   20.0530 C   0  0  0  0  0  0  0  0  0  0  0  0
    3.2070    4.0770   20.2850 H   0  0  0  0  0  0  0  0  0  0  0  0
    2.0750    5.7680   20.8750 C   0  0  0  0  0  0  0  0  0  0  0  0
    1.6790    5.2800   21.7240 H   0  0  0  0  0  0  0  0  0  0  0  0
    1.7250    7.0790   20.5850 C   0  0  0  0  0  0  0  0  0  0  0  0
    1.0470    7.5930   21.2150 H   0  0  0  0  0  0  0  0  0  0  0  0
    2.2730    7.6930   19.4570 C   0  0  0  0  0  0  0  0  0  0  0  0
    1.9230    9.0600   19.1770 N   0  0  0  0  0  0  0  0  0  0  0  0
    1.9840    9.6970   17.9860 C   0  0  0  0  0  0  0  0  0  0  0  0
    2.2810    9.2160   17.0930 H   0  0  0  0  0  0  0  0  0  0  0  0
    1.6010   10.9710   18.2230 C   0  0  0  0  0  0  0  0  0  0  0  0
    1.5440   11.7440   17.5010 H   0  0  0  0  0  0  0  0  0  0  0  0
    1.2900   11.1460   19.5370 N   0  0  0  0  0  0  0  0  0  0  0  0
    1.4870    9.9860   20.0840 C   0  0  0  0  0  0  0  0  0  0  0  0
    1.3580    9.7270   21.1030 H   0  0  0  0  0  0  0  0  0  0  0  0
    3.1520    7.0070   18.6140 C   0  0  0  0  0  0  0  0  0  0  0  0
    3.5510    7.4750   17.7530 H   0  0  0  0  0  0  0  0  0  0  0  0
    6.2940    6.5050   18.1720 C   0  0  0  0  0  0  0  0  0  0  0  0
    5.8480    7.4210   17.7860 H   0  0  0  0  0  0  0  0  0  0  0  0
    6.2470    6.5030   19.2620 H   0  0  0  0  0  0  0  0  0  0  0  0
    7.8950    6.8860   16.7510 H   0  0  0  0  0  0  0  0  0  0  0  0
    6.4190    3.4200   17.5010 H   0  0  0  0  0  0  0  0  0  0  0  0
  1  2  1  0  0  0  0
  1  3  1  0  0  0  0
  1  4  1  0  0  0  0
  1  5  1  0  0  0  0
  5  6  1  0  0  0  0
  6  7  1  0  0  0  0
  6 41  1  0  0  0  0
  6 44  1  0  0  0  0
  7  8  1  0  0  0  0
  7  9  1  0  0  0  0
  7 10  1  0  0  0  0
 10 11  1  0  0  0  0
 10 20  1  0  0  0  0
 10 45  1  0  0  0  0
 11 12  2  0  0  0  0
 11 19  1  0  0  0  0
 12 13  1  0  0  0  0
 13 14  1  0  0  0  0
 13 18  2  0  0  0  0
 14 15  1  0  0  0  0
 14 16  1  0  0  0  0
 14 17  1  0  0  0  0
 18 19  1  0  0  0  0
 20 21  1  0  0  0  0
 20 41  1  0  0  0  0
 21 22  2  0  0  0  0
 21 23  1  0  0  0  0
 23 24  1  0  0  0  0
 23 39  2  0  0  0  0
 24 25  1  0  0  0  0
 24 26  2  0  0  0  0
 26 27  1  0  0  0  0
 26 28  1  0  0  0  0
 28 29  1  0  0  0  0
 28 30  2  0  0  0  0
 30 31  1  0  0  0  0
 30 39  1  0  0  0  0
 31 32  1  0  0  0  0
 31 37  1  0  0  0  0
 32 33  1  0  0  0  0
 32 34  2  0  0  0  0
 34 35  1  0  0  0  0
 34 36  1  0  0  0  0
 36 37  2  0  0  0  0
 37 38  1  0  0  0  0
 39 40  1  0  0  0  0
 41 42  1  0  0  0  0
 41 43  1  0  0  0  0
M  END
>  <receptor>
S(=O)(=O)([O-])[O-].S(CCC(NC(=O)C(NC(=O)C(NC(=O)CNC(=O)C(NC(=O)C1N(C(=O)C(NC(=O)C(NC(=O)C(NC(=O)C(NC(=O)C(NC(=O)C(NC(=O)C(NC(=O)C(NC(=O)C(NC(=O)C(NC(=O)C(NC(=O)C(NC(=O)C(NC(=O)C(NC(=O)C(NC(=O)C(NC(=O)C(NC(=O)C(NC(=O)C(NC(=O)CNC(=O)C(NC(=O)C(NC(=O)C(NC(=O)C(NC(=O)C(NC(=O)C(NC(=O)C(NC(=O)C(NC(=O)C(NC(=O)C(NC(=O)C(NC(=O)C(NC(=O)C(NC(=O)C)CCCC[NH3+])C(C)C)C(O)C)CCC(=O)N)CCC(=O)[O-])CCC(=O)N)Cc2ccccc2)CCC(=O)[O-])CC(C)C)Cc2ccc(O)cc2)CS)CCC(=O)[O-])CCSC)CO)C(O)C)Cc2ccccc2)CCC(=O)N)CC(C)C)C[S-])CCCC[NH3+])C(CC)C)C[S-])C)CCC(=O)[O-])CC(=O)N)CC(=O)[O-])CCCC[NH3+])CC(=O)[O-])C(C)C)CCCC[NH3+])C(CC)C)CCC(=O)[O-])CCC1)C[S-])Cc1nc[n-]c1)CC(C)C)C(=O)NC(C(=O)NC(C(=O)NC(C(=O)NC(C(=O)NC(C(=O)NC(C(=O)NC(C(=O)NC(C(=O)NC(C(=O)NC(C(=O)NC(C(=O)NC(C(=O)NCC(=O)NC(C(=O)NCC(=O)NC(C(=O)N1C(C(=O)NC(C(=O)NC(C(=O)NC(C(=O)NC(C(=O)NC(C(=O)NC(C(=O)NC(C(=O)NCC(=O)NC(C(=O)NC(C(=O)N2C(C(=O)NC(C(=O)NC(C(=O)NC(C(=O)NC(C(=O)N3C(C(=O)NC(C(=O)NC(C(=O)[O-])CC(=O)[O-])Cc4ccccc4)CCC3)CC(=O)[O-])C(C)C)C(CC)C)C(CC)C)CCC2)CCC(=O)[O-])C(O)C)CCCC[NH3+])C(CC)C)CCC(=O)[O-])CS)CCCNC(=[NH2+])N)C[S-])Cc2ccccc2)CCC1)C[S-])CCC(=O)N)CC(=O)[O-])CO)CCC(=O)[O-])CCC(=O)N)Cc1c2c([nH]c1)cccc2)C)C(O)C)CC(C)C)C[S-])CO)C(O)C)C[S-])C.S(CCC(NC(=O)C(NC(=O)C(NC(=O)C(NC(=O)C(NC(=O)C(NC(=O)C(NC(=O)C(NC(=O)C(NC(=O)C(NC(=O)C(NC(=O)C(NC(=O)C(NC(=O)C(NC(=O)C(NC(=O)C(NC(=O)C[NH3+])CCC(=O)N)C)C)C)CC(=O)[O-])CCCNC(=[NH2+])N)CCCNC(=[NH2+])N)C(O)C)C(C)C)CCC(=O)[O-])CCCC[NH3+])C(O)C)Cc1c2c([nH]c1)cccc2)C)CC(C)C)C(=O)NC(C(=O)NC(C(=O)NC(C(=O)NC(C(=O)NC(C(=O)NC(C(=O)NC(C(=O)NC(C(=O)NC(C(=O)N1C(C(=O)NC(C(=O)NC(C(=O)NC(C(=O)NC(C(=O)NC(C(=O)NC(C(=O)NC(C(=O)N2C(C(=O)N3C(C(=O)NC(C(=O)NC(C(=O)NC(C(=O)NC(C(=O)NC(C(=O)NC(C(=O)N4C(C(=O)NC(C(=O)NC(C(=O)NC(C(=O)NC(C(=O)NC(C(=O)NC(C(=O)NC(C(=O)NC(C(=O)NC(C(=O)NC(C(=O)NC(C(=O)NC(C(=O)NC(C(=O)NC(C(=O)NC(C(=O)NC(C(=O)NC(C(=O)NC(C(=O)NC(C(=O)NC(C(=O)NC(C(=O)NC(C(=O)NC(C(=O)NC(C(=O)NC(C(=O)NC(C(=O)NC(C(=O)NC(C(=O)NC(C(=O)NC(C(=O)NC(C(=O)NC(C(=O)NC(C(=O)NC(C(=O)NC(C(=O)NC(C(=O)NC(C(=O)NC(C(=O)NC(C(=O)NC(C(=O)NC(C(=O)NC(C(=O)NC(C(=O)NC(C(=O)NC(C(=O)NC(C(=O)NC(C(=O)NC(C(=O)NCC(=O)NC(C(=O)NC(C(=O)NC(C(=O)NC(C(=O)NC(C(=O)NC(C(=O)NC(C(=O)NC(C(=O)NC(C(=O)NC(C(=O)NC(C(=O)NC(C(=O)NC(C(=O)NC(C(=O)NC(C(=O)NC(C(=O)NC(C(=O)NC(C(=O)NC(C(=O)NC(C(=O)NC(C(=O)NC(C(=O)NC(C(=O)NC(C(=O)NC(C(=O)NC(C(=O)NC(C(=O)NC(C(=O)NC(C(=O)NC(C(=O)NC(C(=O)NC(C(=O)NC(C(=O)N5C(C(=O)NC(C(=O)NCC(=O)NC(C(=O)NC(C(=O)NC(C(=O)NCC(=O)NC(C(=O)NC(C(=O)NC(C(=O)NC(C(=O)NC(C(=O)NC(C(=O)NC(C(=O)NC(C(=O)NC(C(=O)NC(C(=O)NC(C(=O)NC(C(=O)NC(C(=O)NC(C(=O)NC(C(=O)NC(C(=O)NC(C(=O)NC(C(=O)NCC(=O)NC(C(=O)NC(C(=O)NC(C(=O)NC(C(=O)NC(C(=O)N6C(C(=O)NC(C(=O)NC(C(=O)NC(C(=O)NC(C(=O)NC(C(=O)NC(C(=O)NC(C(=O)NC(C(=O)NC(C(=O)NC(C(=O)NC(C(=O)NC(C(=O)NC(C(=O)NC(C(=O)NC(C(=O)NC(C(=O)NCC(=O)NC(C(=O)NC(C(=O)NC(C(=O)NC(C(=O)NC(C(=O)NC(C(=O)NC(C(=O)NC(C(=O)NC(C(=O)NC(C(=O)NC(C(=O)NC(C(=O)NC(C(=O)NC(C(=O)NC(C(=O)NC(C(=O)NC(C(=O)NC(C(=O)NC(C(=O)NC(C(=O)NC(C(=O)NC(C(=O)NC(C(=O)NC(C(=O)NC(C(=O)NC(C(=O)NC(C(=O)NC(C(=O)NC(C(=O)NC(C(=O)NC(C(=O)N7C(C(=O)NC(C(=O)NCC(=O)NC(C(=O)NC(C(=O)NC(C(=O)NC(C(=O)NC(C(=O)NC(C(=O)NC(C(=O)NC(C(=O)NC(C(=O)NC(C(=O)NC(C(=O)NC(C(=O)NC(C(=O)N8C(C(=O)NCC(=O)NC(C(=O)NC(C(=O)NC(C(=O)NC(C(=O)NC(C(=O)NC(C(=O)NC(C(=O)NC(C(=O)NC(C(=O)NC(C(=O)NC(C(=O)NC(C(=O)NC(C(=O)NC(C(=O)NC(C(=O)NC(C(=O)NC(C(=O)NC(C(=O)NC(C(=O)NC(C(=O)N9C(C(=O)NCC(=O)NC(C(=O)NC(C(=O)NC(C(=O)NC(C(=O)NC(C(=O)NC(C(=O)NC(C(=O)NC(C(=O)NC(C(=O)NC(C(=O)NC(C(=O)NCC(=O)NC(C(=O)NC(C(=O)NC(C(=O)NC(C(=O)NCC(=O)NC(C(=O)NC(C(=O)NC(C(=O)NCC(=O)NC(C(=O)NCC(=O)NC(C(=O)NC(C(=O)NC(C(=O)NC(C(=O)NC(C(=O)NC(C(=O)N%10C(C(=O)NC(C(=O)NC(C(=O)NC(C(=O)N%11C(C(=O)NC(C(=O)NC(C(=O)NC(C(=O)NC(C(=O)NC(C(=O)NC(C(=O)NC(C(=O)NCC(=O)NC(C(=O)NC(C(=O)NC(C(=O)NCC(=O)NC(C(=O)NC(C(=O)NC(C(=O)NC(C(=O)N%12C(C(=O)NC(C(=O)NCC(=O)NC(C(=O)NC(C(=O)NC(C(=O)NC(C(=O)NC)CC(=O)N)Cc%13ccc(O)cc%13)CO)CCCNC(=[NH2+])N)CC(=O)[O-])CCC%12)Cc%12ccc(O)cc%12)CC(C)C)Cc%12ccc(O)cc%12)Cc%12ccccc%12)CCC(=O)[O-])C)CO)CC(=O)[O-])C(CC)C)CC(C)C)C)CCC(=O)N)Cc%12ccccc%12)CC(C)C)CCC%11)CCCC[NH3+])CC(=O)N)Cc%11[nH]cnc%11)CCC%10)C(CC)C)C(O)C)CCC(=O)N)CC(C)C)C(CC)C)CC(=O)N)CC(=O)[O-])C(O)C)C(C)C)Cc%10ccc(O)cc%10)C(CC)C)C)Cc%10c%11c([nH]c%10)cccc%11)CCC(=O)N)CC(C)C)CCCNC(=[NH2+])N)C(O)C)CS)CO)CC(C)C)CCCNC(=[NH2+])N)Cc%10ccccc%10)C(CC)C)Cc%10ccc(O)cc%10)CO)CCC9)CCCC[NH3+])C(O)C)CO)Cc9ccc(O)cc9)CCCC[NH3+])CCC(=O)N)CC(C)C)CCCNC(=[NH2+])N)C)CCCC[NH3+])C(C)C)CCC(=O)[O-])CC(=O)[O-])Cc9ccc(O)cc9)C(O)C)CC(C)C)Cc9ccccc9)C)CCSC)Cc9ccc(O)cc9)CCC8)Cc8nc[nH]c8)C(O)C)C(C)C)C)CC(C)C)Cc8ccccc8)CC(=O)N)Cc8c9c([nH]c8)cccc9)CC(=O)N)CCCNC(=[NH2+])N)CC(C)C)C(CC)C)CO)Cc8c9c([nH]c8)cccc9)CCC7)CCC(=O)N)Cc7ccccc7)CC(C)C)CCCNC(=[NH2+])N)C(O)C)Cc7ccccc7)C(CC)C)CC(=O)[O-])Cc7ccccc7)CCC(=O)[O-])Cc7ccccc7)C(C)C)CO)C(CC)C)Cc7ccc(O)cc7)CC(=O)[O-])CC(=O)N)CS)C(O)C)CC(C)C)CC(=O)[O-])C(CC)C)C(O)C)CO)CCCC[NH3+])CC(C)C)C)CCSC)C)CCC(=O)[O-])CC(C)C)CO)CO)C(CC)C)CCC(=O)N)Cc7nc[nH]c7)C(C)C)CCC(=O)[O-])Cc7nc[nH]c7)CC(C)C)CS)CCC(=O)N)CCCNC(=[NH2+])N)Cc7ccccc7)C(C)C)CCCC[NH3+])Cc7c8c([nH]c7)cccc8)CCC6)C(C)C)C(CC)C)C(O)C)CCCC[NH3+])CC(=O)[O-])Cc6ccccc6)Cc6ccccc6)CCCC[NH3+])CCCNC(=[NH2+])N)Cc6c7c([nH]c6)cccc7)Cc6ccccc6)CCC(=O)[O-])C)C)CC(=O)[O-])C)CCCC[NH3+])C(O)C)C(CC)C)CCCNC(=[NH2+])N)Cc6ccccc6)CC(=O)N)CC(=O)[O-])CCC(=O)N)Cc6ccccc6)CCC(=O)N)CC(=O)N)CCC5)Cc5ccccc5)C(CC)C)C)CCCC[NH3+])C(CC)C)CCC(=O)[O-])C)CC(C)C)CCSC)Cc5nc[nH]c5)CO)Cc5ccccc5)C(CC)C)CC(C)C)CO)CC(C)C)CCCC[NH3+])C(O)C)CC(C)C)CC(=O)N)CCCNC(=[NH2+])N)CCCNC(=[NH2+])N)CC(=O)[O-])CCC(=O)N)CO)CCC(=O)N)CCC(=O)[O-])CCC(=O)[O-])Cc5ccc(O)cc5)CCSC)CCCNC(=[NH2+])N)CCC(=O)[O-])CCCC[NH3+])CCC(=O)[O-])CCCC[NH3+])Cc5ccccc5)CC(C)C)CCCNC(=[NH2+])N)C(CC)C)C)CCCNC(=[NH2+])N)CCCC[NH3+])CO)CCCC[NH3+])CCCC[NH3+])CCSC)CC(C)C)CO)CC(=O)[O-])C(CC)C)Cc5ccc(O)cc5)C(CC)C)CCCC[NH3+])Cc5ccccc5)Cc5ccc(O)cc5)CCC(=O)[O-])CC(=O)N)CCC(=O)[O-])CO)CC(C)C)CCC(=O)N)C)CC(C)C)CCCC[NH3+])CCC(=O)N)CC(=O)N)CC(=O)[O-])CC(=O)[O-])Cc5ccc(O)cc5)CCCC[NH3+])CO)CC(C)C)C(CC)C)CC(C)C)CCCNC(=[NH2+])N)CC(C)C)Cc5nc[nH]c5)CCC(=O)N)Cc5ccc(O)cc5)C(O)C)CC(=O)[O-])CCC4)CC(C)C)C(CC)C)CC(=O)[O-])CC(C)C)C(CC)C)Cc4ccc(O)cc4)CCC3)CCC2)CO)CC(=O)N)CCCC[NH3+])CC(C)C)CCC(=O)N)CC(C)C)CCCC[NH3+])CCC1)CC(=O)N)CCC(=O)N)CS)CC(C)C)CCCNC(=[NH2+])N)C(C)C)C(C)C)C)CC(=O)[O-])C.OCCO.[UH+3].[Zn+2].[Zn+2].O.O.O.O.O.O.O.O.O.O.O.O.O.O.O.O.O.O.O.O.O.O.O.O.O.O.O.O.O.O.O.O.O.O.O.O.O.O.O.O.O.O.O.O.O.O.O.O.O.O.O.O.O.O.O.O.O.O.O.O.O.O.O.O.O.O.O.O.O.O.O.O.O.O.O.O.O.O.O.O.O.O.O.O.O.O.O.O.O.O.O.O.O.O.O.O.O.O.O.O.O.O.O.O.O.O.O.O.O.O.O.O.O.O.O.O.O.O.O.O.O.O.O.O.O.O.O.O.O.O.O.O.O.O.O.O.O.O.O.O.O.O

>  <rseq>
1

>  <mseq>
26

>  <S>
-8.3701611

>  <rmsd_refine>
2.004375

>  <E_conf>
60.929848

>  <E_place>
-47.2883

>  <E_score1>
-10.473236

>  <E_refine>
-33.663242

>  <E_score2>
-8.3701611

>  <Field_2>
LB06

>  <pseq>
26

>  <%C>
85.9888

>  <a_heavy>
26

>  <h_logP>
2.3599961

>  <Weight>
353.38199

>  <E_orig>
0

>  <PLIF_raw>
[22,6345,220688,6,0.7]

>  <FP:PLIF>
3

>  <PLIF_ligidx>
22

$$$$

  MOE2020           3D

 43 46  0  0  0  0  0  0  0  0999 V2000
    0.3840   10.0550   22.6010 C   0  0  0  0  0  0  0  0  0  0  0  0
    0.6420   11.1140   22.6050 H   0  0  0  0  0  0  0  0  0  0  0  0
    0.7790    9.6000   23.5090 H   0  0  0  0  0  0  0  0  0  0  0  0
   -0.7020    9.9560   22.6150 H   0  0  0  0  0  0  0  0  0  0  0  0
    0.9580    9.3710   21.3770 C   0  0  0  0  0  0  0  0  0  0  0  0
    1.6530    8.2090   21.3190 C   0  0  0  0  0  0  0  0  0  0  0  0
    1.9000    7.6220   22.1580 H   0  0  0  0  0  0  0  0  0  0  0  0
    1.9880    7.9170   19.9840 C   0  0  0  0  0  0  0  0  0  0  0  0
    2.6870    6.6910   19.5650 C   0  0  0  0  0  0  0  0  0  0  0  0
    2.7210    5.5740   20.3490 C   0  0  0  0  0  0  0  0  0  0  0  0
    2.2830    5.4430   21.3030 H   0  0  0  0  0  0  0  0  0  0  0  0
    3.5830    4.3030   19.6120 S   0  0  0  0  0  0  0  0  0  0  0  0
    3.8600    5.3280   18.2620 C   0  0  0  0  0  0  0  0  0  0  0  0
    4.6020    4.7580   17.0730 C   0  0  0  0  0  0  0  0  0  0  0  0
    4.0210    3.9190   16.6910 H   0  0  0  0  0  0  0  0  0  0  0  0
    4.6700    5.5090   16.2840 H   0  0  0  0  0  0  0  0  0  0  0  0
    6.0030    4.2220   17.4120 C   0  0  0  0  0  0  0  0  0  0  0  0
    6.3210    3.5600   16.6180 H   0  0  0  0  0  0  0  0  0  0  0  0
    5.9740    3.6030   18.2980 H   0  0  0  0  0  0  0  0  0  0  0  0
    6.9970    5.2730   17.5690 N   0  0  0  0  0  0  0  0  0  0  0  0
    7.2370    6.0090   18.7820 C   0  0  0  0  0  0  0  0  0  0  0  0
    6.3110    6.3550   19.2180 H   0  0  0  0  0  0  0  0  0  0  0  0
    7.7540    5.4090   19.5200 H   0  0  0  0  0  0  0  0  0  0  0  0
    8.0900    7.1810   18.3150 C   0  0  0  0  0  0  0  0  0  0  0  0
    9.1040    7.1030   18.7070 H   0  0  0  0  0  0  0  0  0  0  0  0
    7.6580    8.1370   18.6000 H   0  0  0  0  0  0  0  0  0  0  0  0
    8.1290    7.0860   16.8740 O   0  0  0  0  0  0  0  0  0  0  0  0
    7.5100    5.9410   16.4960 C   0  0  0  0  0  0  0  0  0  0  0  0
    7.4110    5.5770   15.3300 O   0  0  0  0  0  0  0  0  0  0  0  0
    3.3550    6.5270   18.3670 N   0  0  0  0  0  0  0  0  0  0  0  0
    1.4920    8.9510   19.2270 C   0  0  0  0  0  0  0  0  0  0  0  0
    1.5400    9.1640   17.7320 C   0  0  0  0  0  0  0  0  0  0  0  0
    2.2670    9.9360   17.4820 H   0  0  0  0  0  0  0  0  0  0  0  0
    1.8150    8.2490   17.2160 H   0  0  0  0  0  0  0  0  0  0  0  0
    0.5570    9.4670   17.3710 H   0  0  0  0  0  0  0  0  0  0  0  0
    0.8430    9.8440   20.0810 N   0  0  0  0  0  0  0  0  0  0  0  0
    0.1190   11.0350   19.7130 C   0  0  0  0  0  0  0  0  0  0  0  0
    0.5130   11.8270   18.7210 N   0  0  0  0  0  0  0  0  0  0  0  0
    1.3370   11.6960   18.1110 H   0  0  0  0  0  0  0  0  0  0  0  0
   -0.3810   12.8110   18.6550 C   0  0  0  0  0  0  0  0  0  0  0  0
   -0.3090   13.5840   17.9340 H   0  0  0  0  0  0  0  0  0  0  0  0
   -1.2810   12.6430   19.5730 N   0  0  0  0  0  0  0  0  0  0  0  0
   -0.9650   11.4890   20.2640 N   0  0  0  0  0  0  0  0  0  0  0  0
  1  2  1  0  0  0  0
  1  3  1  0  0  0  0
  1  4  1  0  0  0  0
  1  5  1  0  0  0  0
  5  6  2  0  0  0  0
  5 36  1  0  0  0  0
  6  7  1  0  0  0  0
  6  8  1  0  0  0  0
  8  9  1  0  0  0  0
  8 31  2  0  0  0  0
  9 10  2  0  0  0  0
  9 30  1  0  0  0  0
 10 11  1  0  0  0  0
 10 12  1  0  0  0  0
 12 13  1  0  0  0  0
 13 14  1  0  0  0  0
 13 30  2  0  0  0  0
 14 15  1  0  0  0  0
 14 16  1  0  0  0  0
 14 17  1  0  0  0  0
 17 18  1  0  0  0  0
 17 19  1  0  0  0  0
 17 20  1  0  0  0  0
 20 21  1  0  0  0  0
 20 28  1  0  0  0  0
 21 22  1  0  0  0  0
 21 23  1  0  0  0  0
 21 24  1  0  0  0  0
 24 25  1  0  0  0  0
 24 26  1  0  0  0  0
 24 27  1  0  0  0  0
 27 28  1  0  0  0  0
 28 29  2  0  0  0  0
 31 32  1  0  0  0  0
 31 36  1  0  0  0  0
 32 33  1  0  0  0  0
 32 34  1  0  0  0  0
 32 35  1  0  0  0  0
 36 37  1  0  0  0  0
 37 38  1  0  0  0  0
 37 43  2  0  0  0  0
 38 39  1  0  0  0  0
 38 40  1  0  0  0  0
 40 41  1  0  0  0  0
 40 42  2  0  0  0  0
 42 43  1  0  0  0  0
M  END
>  <receptor>
S(=O)(=O)([O-])[O-].S(CCC(NC(=O)C(NC(=O)C(NC(=O)CNC(=O)C(NC(=O)C1N(C(=O)C(NC(=O)C(NC(=O)C(NC(=O)C(NC(=O)C(NC(=O)C(NC(=O)C(NC(=O)C(NC(=O)C(NC(=O)C(NC(=O)C(NC(=O)C(NC(=O)C(NC(=O)C(NC(=O)C(NC(=O)C(NC(=O)C(NC(=O)C(NC(=O)C(NC(=O)CNC(=O)C(NC(=O)C(NC(=O)C(NC(=O)C(NC(=O)C(NC(=O)C(NC(=O)C(NC(=O)C(NC(=O)C(NC(=O)C(NC(=O)C(NC(=O)C(NC(=O)C(NC(=O)C)CCCC[NH3+])C(C)C)C(O)C)CCC(=O)N)CCC(=O)[O-])CCC(=O)N)Cc2ccccc2)CCC(=O)[O-])CC(C)C)Cc2ccc(O)cc2)CS)CCC(=O)[O-])CCSC)CO)C(O)C)Cc2ccccc2)CCC(=O)N)CC(C)C)C[S-])CCCC[NH3+])C(CC)C)C[S-])C)CCC(=O)[O-])CC(=O)N)CC(=O)[O-])CCCC[NH3+])CC(=O)[O-])C(C)C)CCCC[NH3+])C(CC)C)CCC(=O)[O-])CCC1)C[S-])Cc1nc[n-]c1)CC(C)C)C(=O)NC(C(=O)NC(C(=O)NC(C(=O)NC(C(=O)NC(C(=O)NC(C(=O)NC(C(=O)NC(C(=O)NC(C(=O)NC(C(=O)NC(C(=O)NC(C(=O)NCC(=O)NC(C(=O)NCC(=O)NC(C(=O)N1C(C(=O)NC(C(=O)NC(C(=O)NC(C(=O)NC(C(=O)NC(C(=O)NC(C(=O)NC(C(=O)NCC(=O)NC(C(=O)NC(C(=O)N2C(C(=O)NC(C(=O)NC(C(=O)NC(C(=O)NC(C(=O)N3C(C(=O)NC(C(=O)NC(C(=O)[O-])CC(=O)[O-])Cc4ccccc4)CCC3)CC(=O)[O-])C(C)C)C(CC)C)C(CC)C)CCC2)CCC(=O)[O-])C(O)C)CCCC[NH3+])C(CC)C)CCC(=O)[O-])CS)CCCNC(=[NH2+])N)C[S-])Cc2ccccc2)CCC1)C[S-])CCC(=O)N)CC(=O)[O-])CO)CCC(=O)[O-])CCC(=O)N)Cc1c2c([nH]c1)cccc2)C)C(O)C)CC(C)C)C[S-])CO)C(O)C)C[S-])C.S(CCC(NC(=O)C(NC(=O)C(NC(=O)C(NC(=O)C(NC(=O)C(NC(=O)C(NC(=O)C(NC(=O)C(NC(=O)C(NC(=O)C(NC(=O)C(NC(=O)C(NC(=O)C(NC(=O)C(NC(=O)C(NC(=O)C[NH3+])CCC(=O)N)C)C)C)CC(=O)[O-])CCCNC(=[NH2+])N)CCCNC(=[NH2+])N)C(O)C)C(C)C)CCC(=O)[O-])CCCC[NH3+])C(O)C)Cc1c2c([nH]c1)cccc2)C)CC(C)C)C(=O)NC(C(=O)NC(C(=O)NC(C(=O)NC(C(=O)NC(C(=O)NC(C(=O)NC(C(=O)NC(C(=O)NC(C(=O)N1C(C(=O)NC(C(=O)NC(C(=O)NC(C(=O)NC(C(=O)NC(C(=O)NC(C(=O)NC(C(=O)N2C(C(=O)N3C(C(=O)NC(C(=O)NC(C(=O)NC(C(=O)NC(C(=O)NC(C(=O)NC(C(=O)N4C(C(=O)NC(C(=O)NC(C(=O)NC(C(=O)NC(C(=O)NC(C(=O)NC(C(=O)NC(C(=O)NC(C(=O)NC(C(=O)NC(C(=O)NC(C(=O)NC(C(=O)NC(C(=O)NC(C(=O)NC(C(=O)NC(C(=O)NC(C(=O)NC(C(=O)NC(C(=O)NC(C(=O)NC(C(=O)NC(C(=O)NC(C(=O)NC(C(=O)NC(C(=O)NC(C(=O)NC(C(=O)NC(C(=O)NC(C(=O)NC(C(=O)NC(C(=O)NC(C(=O)NC(C(=O)NC(C(=O)NC(C(=O)NC(C(=O)NC(C(=O)NC(C(=O)NC(C(=O)NC(C(=O)NC(C(=O)NC(C(=O)NC(C(=O)NC(C(=O)NC(C(=O)NC(C(=O)NC(C(=O)NC(C(=O)NCC(=O)NC(C(=O)NC(C(=O)NC(C(=O)NC(C(=O)NC(C(=O)NC(C(=O)NC(C(=O)NC(C(=O)NC(C(=O)NC(C(=O)NC(C(=O)NC(C(=O)NC(C(=O)NC(C(=O)NC(C(=O)NC(C(=O)NC(C(=O)NC(C(=O)NC(C(=O)NC(C(=O)NC(C(=O)NC(C(=O)NC(C(=O)NC(C(=O)NC(C(=O)NC(C(=O)NC(C(=O)NC(C(=O)NC(C(=O)NC(C(=O)NC(C(=O)NC(C(=O)NC(C(=O)N5C(C(=O)NC(C(=O)NCC(=O)NC(C(=O)NC(C(=O)NC(C(=O)NCC(=O)NC(C(=O)NC(C(=O)NC(C(=O)NC(C(=O)NC(C(=O)NC(C(=O)NC(C(=O)NC(C(=O)NC(C(=O)NC(C(=O)NC(C(=O)NC(C(=O)NC(C(=O)NC(C(=O)NC(C(=O)NC(C(=O)NC(C(=O)NC(C(=O)NCC(=O)NC(C(=O)NC(C(=O)NC(C(=O)NC(C(=O)NC(C(=O)N6C(C(=O)NC(C(=O)NC(C(=O)NC(C(=O)NC(C(=O)NC(C(=O)NC(C(=O)NC(C(=O)NC(C(=O)NC(C(=O)NC(C(=O)NC(C(=O)NC(C(=O)NC(C(=O)NC(C(=O)NC(C(=O)NC(C(=O)NCC(=O)NC(C(=O)NC(C(=O)NC(C(=O)NC(C(=O)NC(C(=O)NC(C(=O)NC(C(=O)NC(C(=O)NC(C(=O)NC(C(=O)NC(C(=O)NC(C(=O)NC(C(=O)NC(C(=O)NC(C(=O)NC(C(=O)NC(C(=O)NC(C(=O)NC(C(=O)NC(C(=O)NC(C(=O)NC(C(=O)NC(C(=O)NC(C(=O)NC(C(=O)NC(C(=O)NC(C(=O)NC(C(=O)NC(C(=O)NC(C(=O)NC(C(=O)N7C(C(=O)NC(C(=O)NCC(=O)NC(C(=O)NC(C(=O)NC(C(=O)NC(C(=O)NC(C(=O)NC(C(=O)NC(C(=O)NC(C(=O)NC(C(=O)NC(C(=O)NC(C(=O)NC(C(=O)NC(C(=O)N8C(C(=O)NCC(=O)NC(C(=O)NC(C(=O)NC(C(=O)NC(C(=O)NC(C(=O)NC(C(=O)NC(C(=O)NC(C(=O)NC(C(=O)NC(C(=O)NC(C(=O)NC(C(=O)NC(C(=O)NC(C(=O)NC(C(=O)NC(C(=O)NC(C(=O)NC(C(=O)NC(C(=O)NC(C(=O)N9C(C(=O)NCC(=O)NC(C(=O)NC(C(=O)NC(C(=O)NC(C(=O)NC(C(=O)NC(C(=O)NC(C(=O)NC(C(=O)NC(C(=O)NC(C(=O)NC(C(=O)NCC(=O)NC(C(=O)NC(C(=O)NC(C(=O)NC(C(=O)NCC(=O)NC(C(=O)NC(C(=O)NC(C(=O)NCC(=O)NC(C(=O)NCC(=O)NC(C(=O)NC(C(=O)NC(C(=O)NC(C(=O)NC(C(=O)NC(C(=O)N%10C(C(=O)NC(C(=O)NC(C(=O)NC(C(=O)N%11C(C(=O)NC(C(=O)NC(C(=O)NC(C(=O)NC(C(=O)NC(C(=O)NC(C(=O)NC(C(=O)NCC(=O)NC(C(=O)NC(C(=O)NC(C(=O)NCC(=O)NC(C(=O)NC(C(=O)NC(C(=O)NC(C(=O)N%12C(C(=O)NC(C(=O)NCC(=O)NC(C(=O)NC(C(=O)NC(C(=O)NC(C(=O)NC)CC(=O)N)Cc%13ccc(O)cc%13)CO)CCCNC(=[NH2+])N)CC(=O)[O-])CCC%12)Cc%12ccc(O)cc%12)CC(C)C)Cc%12ccc(O)cc%12)Cc%12ccccc%12)CCC(=O)[O-])C)CO)CC(=O)[O-])C(CC)C)CC(C)C)C)CCC(=O)N)Cc%12ccccc%12)CC(C)C)CCC%11)CCCC[NH3+])CC(=O)N)Cc%11[nH]cnc%11)CCC%10)C(CC)C)C(O)C)CCC(=O)N)CC(C)C)C(CC)C)CC(=O)N)CC(=O)[O-])C(O)C)C(C)C)Cc%10ccc(O)cc%10)C(CC)C)C)Cc%10c%11c([nH]c%10)cccc%11)CCC(=O)N)CC(C)C)CCCNC(=[NH2+])N)C(O)C)CS)CO)CC(C)C)CCCNC(=[NH2+])N)Cc%10ccccc%10)C(CC)C)Cc%10ccc(O)cc%10)CO)CCC9)CCCC[NH3+])C(O)C)CO)Cc9ccc(O)cc9)CCCC[NH3+])CCC(=O)N)CC(C)C)CCCNC(=[NH2+])N)C)CCCC[NH3+])C(C)C)CCC(=O)[O-])CC(=O)[O-])Cc9ccc(O)cc9)C(O)C)CC(C)C)Cc9ccccc9)C)CCSC)Cc9ccc(O)cc9)CCC8)Cc8nc[nH]c8)C(O)C)C(C)C)C)CC(C)C)Cc8ccccc8)CC(=O)N)Cc8c9c([nH]c8)cccc9)CC(=O)N)CCCNC(=[NH2+])N)CC(C)C)C(CC)C)CO)Cc8c9c([nH]c8)cccc9)CCC7)CCC(=O)N)Cc7ccccc7)CC(C)C)CCCNC(=[NH2+])N)C(O)C)Cc7ccccc7)C(CC)C)CC(=O)[O-])Cc7ccccc7)CCC(=O)[O-])Cc7ccccc7)C(C)C)CO)C(CC)C)Cc7ccc(O)cc7)CC(=O)[O-])CC(=O)N)CS)C(O)C)CC(C)C)CC(=O)[O-])C(CC)C)C(O)C)CO)CCCC[NH3+])CC(C)C)C)CCSC)C)CCC(=O)[O-])CC(C)C)CO)CO)C(CC)C)CCC(=O)N)Cc7nc[nH]c7)C(C)C)CCC(=O)[O-])Cc7nc[nH]c7)CC(C)C)CS)CCC(=O)N)CCCNC(=[NH2+])N)Cc7ccccc7)C(C)C)CCCC[NH3+])Cc7c8c([nH]c7)cccc8)CCC6)C(C)C)C(CC)C)C(O)C)CCCC[NH3+])CC(=O)[O-])Cc6ccccc6)Cc6ccccc6)CCCC[NH3+])CCCNC(=[NH2+])N)Cc6c7c([nH]c6)cccc7)Cc6ccccc6)CCC(=O)[O-])C)C)CC(=O)[O-])C)CCCC[NH3+])C(O)C)C(CC)C)CCCNC(=[NH2+])N)Cc6ccccc6)CC(=O)N)CC(=O)[O-])CCC(=O)N)Cc6ccccc6)CCC(=O)N)CC(=O)N)CCC5)Cc5ccccc5)C(CC)C)C)CCCC[NH3+])C(CC)C)CCC(=O)[O-])C)CC(C)C)CCSC)Cc5nc[nH]c5)CO)Cc5ccccc5)C(CC)C)CC(C)C)CO)CC(C)C)CCCC[NH3+])C(O)C)CC(C)C)CC(=O)N)CCCNC(=[NH2+])N)CCCNC(=[NH2+])N)CC(=O)[O-])CCC(=O)N)CO)CCC(=O)N)CCC(=O)[O-])CCC(=O)[O-])Cc5ccc(O)cc5)CCSC)CCCNC(=[NH2+])N)CCC(=O)[O-])CCCC[NH3+])CCC(=O)[O-])CCCC[NH3+])Cc5ccccc5)CC(C)C)CCCNC(=[NH2+])N)C(CC)C)C)CCCNC(=[NH2+])N)CCCC[NH3+])CO)CCCC[NH3+])CCCC[NH3+])CCSC)CC(C)C)CO)CC(=O)[O-])C(CC)C)Cc5ccc(O)cc5)C(CC)C)CCCC[NH3+])Cc5ccccc5)Cc5ccc(O)cc5)CCC(=O)[O-])CC(=O)N)CCC(=O)[O-])CO)CC(C)C)CCC(=O)N)C)CC(C)C)CCCC[NH3+])CCC(=O)N)CC(=O)N)CC(=O)[O-])CC(=O)[O-])Cc5ccc(O)cc5)CCCC[NH3+])CO)CC(C)C)C(CC)C)CC(C)C)CCCNC(=[NH2+])N)CC(C)C)Cc5nc[nH]c5)CCC(=O)N)Cc5ccc(O)cc5)C(O)C)CC(=O)[O-])CCC4)CC(C)C)C(CC)C)CC(=O)[O-])CC(C)C)C(CC)C)Cc4ccc(O)cc4)CCC3)CCC2)CO)CC(=O)N)CCCC[NH3+])CC(C)C)CCC(=O)N)CC(C)C)CCCC[NH3+])CCC1)CC(=O)N)CCC(=O)N)CS)CC(C)C)CCCNC(=[NH2+])N)C(C)C)C(C)C)C)CC(=O)[O-])C.OCCO.[UH+3].[Zn+2].[Zn+2].O.O.O.O.O.O.O.O.O.O.O.O.O.O.O.O.O.O.O.O.O.O.O.O.O.O.O.O.O.O.O.O.O.O.O.O.O.O.O.O.O.O.O.O.O.O.O.O.O.O.O.O.O.O.O.O.O.O.O.O.O.O.O.O.O.O.O.O.O.O.O.O.O.O.O.O.O.O.O.O.O.O.O.O.O.O.O.O.O.O.O.O.O.O.O.O.O.O.O.O.O.O.O.O.O.O.O.O.O.O.O.O.O.O.O.O.O.O.O.O.O.O.O.O.O.O.O.O.O.O.O.O.O.O.O.O.O.O.O.O.O.O

>  <rseq>
1

>  <mseq>
27

>  <S>
-7.6311188

>  <rmsd_refine>
1.8252127

>  <E_conf>
51.92223

>  <E_place>
-60.629295

>  <E_score1>
-11.246325

>  <E_refine>
-40.4226

>  <E_score2>
-7.6311188

>  <Field_2>
LB07

>  <pseq>
27

>  <%C>
89.719353

>  <a_heavy>
25

>  <h_logP>
1.3308096

>  <Weight>
358.42599

>  <E_orig>
1

>  <PLIF_raw>
[[24,24,24,24,24,24],[5139,5143,5141,5137,5134,5135],[363,363,363,363,363,363],[10,10,10,10,10,10],[0.7,0.7,0.7,0.7,0.7,0.7]]

>  <FP:PLIF>
22

>  <PLIF_ligidx>
[[24,24,24,24,24,24]]

$$$$

  MOE2020           3D

 44 48  0  0  0  0  0  0  0  0999 V2000
   -3.4790   10.3850   15.0920 C   0  0  0  0  0  0  0  0  0  0  0  0
   -4.5280   10.2050   14.9120 H   0  0  0  0  0  0  0  0  0  0  0  0
   -2.9530    9.4510   14.9660 H   0  0  0  0  0  0  0  0  0  0  0  0
   -3.1290   11.0590   14.3250 H   0  0  0  0  0  0  0  0  0  0  0  0
   -3.2370   10.9680   16.4610 C   0  0  0  0  0  0  0  0  0  0  0  0
   -4.2430   11.7610   17.0950 C   0  0  0  0  0  0  0  0  0  0  0  0
   -5.1660   11.9280   16.6020 H   0  0  0  0  0  0  0  0  0  0  0  0
   -4.0020   12.3070   18.3230 C   0  0  0  0  0  0  0  0  0  0  0  0
   -4.7250   12.9030   18.8160 H   0  0  0  0  0  0  0  0  0  0  0  0
   -2.7410   12.0680   18.9290 C   0  0  0  0  0  0  0  0  0  0  0  0
   -2.1920   12.4330   20.0690 N   0  0  0  0  0  0  0  0  0  0  0  0
   -0.9390   11.8910   20.0980 N   0  0  0  0  0  0  0  0  0  0  0  0
   -0.7550   11.2180   18.9960 C   0  0  0  0  0  0  0  0  0  0  0  0
    0.4640   10.4420   18.5500 C   0  0  0  0  0  0  0  0  0  0  0  0
    1.2480   11.1350   18.2740 H   0  0  0  0  0  0  0  0  0  0  0  0
    0.2390    9.8730   17.6580 H   0  0  0  0  0  0  0  0  0  0  0  0
    0.9380    9.5500   19.6020 N   0  0  0  0  0  0  0  0  0  0  0  0
    0.2670    9.3910   20.3680 H   0  0  0  0  0  0  0  0  0  0  0  0
    1.7480    8.4630   19.2850 C   0  0  0  0  0  0  0  0  0  0  0  0
    2.4290    8.3280   18.1820 N   0  0  0  0  0  0  0  0  0  0  0  0
    3.1230    7.1380   18.2720 N   0  0  0  0  0  0  0  0  0  0  0  0
    4.0310    6.4730   17.4720 C   0  0  0  0  0  0  0  0  0  0  0  0
    4.3250    6.8510   16.5270 H   0  0  0  0  0  0  0  0  0  0  0  0
    4.4150    5.3630   18.1460 C   0  0  0  0  0  0  0  0  0  0  0  0
    5.4320    4.2970   17.7760 C   0  0  0  0  0  0  0  0  0  0  0  0
    5.1620    3.3710   18.2860 H   0  0  0  0  0  0  0  0  0  0  0  0
    6.8490    4.7390   18.1420 C   0  0  0  0  0  0  0  0  0  0  0  0
    6.8900    5.2320   19.1150 H   0  0  0  0  0  0  0  0  0  0  0  0
    7.5170    3.8770   18.1300 H   0  0  0  0  0  0  0  0  0  0  0  0
    7.2390    5.6840   17.0080 C   0  0  0  0  0  0  0  0  0  0  0  0
    6.8350    6.6790   17.1960 H   0  0  0  0  0  0  0  0  0  0  0  0
    8.3190    5.7410   16.9120 H   0  0  0  0  0  0  0  0  0  0  0  0
    6.5900    5.0800   15.7580 C   0  0  0  0  0  0  0  0  0  0  0  0
    7.3380    4.5550   15.1620 H   0  0  0  0  0  0  0  0  0  0  0  0
    6.1270    5.8630   15.1550 H   0  0  0  0  0  0  0  0  0  0  0  0
    5.5380    4.0830   16.2610 C   0  0  0  0  0  0  0  0  0  0  0  0
    5.8890    3.0690   16.0660 H   0  0  0  0  0  0  0  0  0  0  0  0
    4.5780    4.2270   15.7650 H   0  0  0  0  0  0  0  0  0  0  0  0
    3.7260    5.3500   19.3460 N   0  3  0  0  0  0  0  0  0  0  0  0
    3.7890    4.6460   20.1020 H   0  0  0  0  0  0  0  0  0  0  0  0
    2.9520    6.4520   19.3880 C   0  0  0  0  0  0  0  0  0  0  0  0
    1.8750    7.1970   20.4660 S   0  0  0  0  0  0  0  0  0  0  0  0
   -1.8550   11.3070   18.2520 N   0  0  0  0  0  0  0  0  0  0  0  0
   -2.0900   10.7350   17.0190 N   0  0  0  0  0  0  0  0  0  0  0  0
  1  2  1  0  0  0  0
  1  3  1  0  0  0  0
  1  4  1  0  0  0  0
  1  5  1  0  0  0  0
  5  6  1  0  0  0  0
  5 44  2  0  0  0  0
  6  7  1  0  0  0  0
  6  8  2  0  0  0  0
  8  9  1  0  0  0  0
  8 10  1  0  0  0  0
 10 11  2  0  0  0  0
 10 43  1  0  0  0  0
 11 12  1  0  0  0  0
 12 13  2  0  0  0  0
 13 14  1  0  0  0  0
 13 43  1  0  0  0  0
 14 15  1  0  0  0  0
 14 16  1  0  0  0  0
 14 17  1  0  0  0  0
 17 18  1  0  0  0  0
 17 19  1  0  0  0  0
 19 20  2  0  0  0  0
 19 42  1  0  0  0  0
 20 21  1  0  0  0  0
 21 22  1  0  0  0  0
 21 41  1  0  0  0  0
 22 23  1  0  0  0  0
 22 24  2  0  0  0  0
 24 25  1  0  0  0  0
 24 39  1  0  0  0  0
 25 26  1  0  0  0  0
 25 27  1  0  0  0  0
 25 36  1  0  0  0  0
 27 28  1  0  0  0  0
 27 29  1  0  0  0  0
 27 30  1  0  0  0  0
 30 31  1  0  0  0  0
 30 32  1  0  0  0  0
 30 33  1  0  0  0  0
 33 34  1  0  0  0  0
 33 35  1  0  0  0  0
 33 36  1  0  0  0  0
 36 37  1  0  0  0  0
 36 38  1  0  0  0  0
 39 40  1  0  0  0  0
 39 41  2  0  0  0  0
 41 42  1  0  0  0  0
 43 44  1  0  0  0  0
M  CHG  1  39   1
M  END
>  <receptor>
S(=O)(=O)([O-])[O-].S(CCC(NC(=O)C(NC(=O)C(NC(=O)CNC(=O)C(NC(=O)C1N(C(=O)C(NC(=O)C(NC(=O)C(NC(=O)C(NC(=O)C(NC(=O)C(NC(=O)C(NC(=O)C(NC(=O)C(NC(=O)C(NC(=O)C(NC(=O)C(NC(=O)C(NC(=O)C(NC(=O)C(NC(=O)C(NC(=O)C(NC(=O)C(NC(=O)C(NC(=O)CNC(=O)C(NC(=O)C(NC(=O)C(NC(=O)C(NC(=O)C(NC(=O)C(NC(=O)C(NC(=O)C(NC(=O)C(NC(=O)C(NC(=O)C(NC(=O)C(NC(=O)C(NC(=O)C)CCCC[NH3+])C(C)C)C(O)C)CCC(=O)N)CCC(=O)[O-])CCC(=O)N)Cc2ccccc2)CCC(=O)[O-])CC(C)C)Cc2ccc(O)cc2)CS)CCC(=O)[O-])CCSC)CO)C(O)C)Cc2ccccc2)CCC(=O)N)CC(C)C)C[S-])CCCC[NH3+])C(CC)C)C[S-])C)CCC(=O)[O-])CC(=O)N)CC(=O)[O-])CCCC[NH3+])CC(=O)[O-])C(C)C)CCCC[NH3+])C(CC)C)CCC(=O)[O-])CCC1)C[S-])Cc1nc[n-]c1)CC(C)C)C(=O)NC(C(=O)NC(C(=O)NC(C(=O)NC(C(=O)NC(C(=O)NC(C(=O)NC(C(=O)NC(C(=O)NC(C(=O)NC(C(=O)NC(C(=O)NC(C(=O)NCC(=O)NC(C(=O)NCC(=O)NC(C(=O)N1C(C(=O)NC(C(=O)NC(C(=O)NC(C(=O)NC(C(=O)NC(C(=O)NC(C(=O)NC(C(=O)NCC(=O)NC(C(=O)NC(C(=O)N2C(C(=O)NC(C(=O)NC(C(=O)NC(C(=O)NC(C(=O)N3C(C(=O)NC(C(=O)NC(C(=O)[O-])CC(=O)[O-])Cc4ccccc4)CCC3)CC(=O)[O-])C(C)C)C(CC)C)C(CC)C)CCC2)CCC(=O)[O-])C(O)C)CCCC[NH3+])C(CC)C)CCC(=O)[O-])CS)CCCNC(=[NH2+])N)C[S-])Cc2ccccc2)CCC1)C[S-])CCC(=O)N)CC(=O)[O-])CO)CCC(=O)[O-])CCC(=O)N)Cc1c2c([nH]c1)cccc2)C)C(O)C)CC(C)C)C[S-])CO)C(O)C)C[S-])C.S(CCC(NC(=O)C(NC(=O)C(NC(=O)C(NC(=O)C(NC(=O)C(NC(=O)C(NC(=O)C(NC(=O)C(NC(=O)C(NC(=O)C(NC(=O)C(NC(=O)C(NC(=O)C(NC(=O)C(NC(=O)C(NC(=O)C[NH3+])CCC(=O)N)C)C)C)CC(=O)[O-])CCCNC(=[NH2+])N)CCCNC(=[NH2+])N)C(O)C)C(C)C)CCC(=O)[O-])CCCC[NH3+])C(O)C)Cc1c2c([nH]c1)cccc2)C)CC(C)C)C(=O)NC(C(=O)NC(C(=O)NC(C(=O)NC(C(=O)NC(C(=O)NC(C(=O)NC(C(=O)NC(C(=O)NC(C(=O)N1C(C(=O)NC(C(=O)NC(C(=O)NC(C(=O)NC(C(=O)NC(C(=O)NC(C(=O)NC(C(=O)N2C(C(=O)N3C(C(=O)NC(C(=O)NC(C(=O)NC(C(=O)NC(C(=O)NC(C(=O)NC(C(=O)N4C(C(=O)NC(C(=O)NC(C(=O)NC(C(=O)NC(C(=O)NC(C(=O)NC(C(=O)NC(C(=O)NC(C(=O)NC(C(=O)NC(C(=O)NC(C(=O)NC(C(=O)NC(C(=O)NC(C(=O)NC(C(=O)NC(C(=O)NC(C(=O)NC(C(=O)NC(C(=O)NC(C(=O)NC(C(=O)NC(C(=O)NC(C(=O)NC(C(=O)NC(C(=O)NC(C(=O)NC(C(=O)NC(C(=O)NC(C(=O)NC(C(=O)NC(C(=O)NC(C(=O)NC(C(=O)NC(C(=O)NC(C(=O)NC(C(=O)NC(C(=O)NC(C(=O)NC(C(=O)NC(C(=O)NC(C(=O)NC(C(=O)NC(C(=O)NC(C(=O)NC(C(=O)NC(C(=O)NC(C(=O)NC(C(=O)NCC(=O)NC(C(=O)NC(C(=O)NC(C(=O)NC(C(=O)NC(C(=O)NC(C(=O)NC(C(=O)NC(C(=O)NC(C(=O)NC(C(=O)NC(C(=O)NC(C(=O)NC(C(=O)NC(C(=O)NC(C(=O)NC(C(=O)NC(C(=O)NC(C(=O)NC(C(=O)NC(C(=O)NC(C(=O)NC(C(=O)NC(C(=O)NC(C(=O)NC(C(=O)NC(C(=O)NC(C(=O)NC(C(=O)NC(C(=O)NC(C(=O)NC(C(=O)NC(C(=O)NC(C(=O)N5C(C(=O)NC(C(=O)NCC(=O)NC(C(=O)NC(C(=O)NC(C(=O)NCC(=O)NC(C(=O)NC(C(=O)NC(C(=O)NC(C(=O)NC(C(=O)NC(C(=O)NC(C(=O)NC(C(=O)NC(C(=O)NC(C(=O)NC(C(=O)NC(C(=O)NC(C(=O)NC(C(=O)NC(C(=O)NC(C(=O)NC(C(=O)NC(C(=O)NCC(=O)NC(C(=O)NC(C(=O)NC(C(=O)NC(C(=O)NC(C(=O)N6C(C(=O)NC(C(=O)NC(C(=O)NC(C(=O)NC(C(=O)NC(C(=O)NC(C(=O)NC(C(=O)NC(C(=O)NC(C(=O)NC(C(=O)NC(C(=O)NC(C(=O)NC(C(=O)NC(C(=O)NC(C(=O)NC(C(=O)NCC(=O)NC(C(=O)NC(C(=O)NC(C(=O)NC(C(=O)NC(C(=O)NC(C(=O)NC(C(=O)NC(C(=O)NC(C(=O)NC(C(=O)NC(C(=O)NC(C(=O)NC(C(=O)NC(C(=O)NC(C(=O)NC(C(=O)NC(C(=O)NC(C(=O)NC(C(=O)NC(C(=O)NC(C(=O)NC(C(=O)NC(C(=O)NC(C(=O)NC(C(=O)NC(C(=O)NC(C(=O)NC(C(=O)NC(C(=O)NC(C(=O)NC(C(=O)N7C(C(=O)NC(C(=O)NCC(=O)NC(C(=O)NC(C(=O)NC(C(=O)NC(C(=O)NC(C(=O)NC(C(=O)NC(C(=O)NC(C(=O)NC(C(=O)NC(C(=O)NC(C(=O)NC(C(=O)NC(C(=O)N8C(C(=O)NCC(=O)NC(C(=O)NC(C(=O)NC(C(=O)NC(C(=O)NC(C(=O)NC(C(=O)NC(C(=O)NC(C(=O)NC(C(=O)NC(C(=O)NC(C(=O)NC(C(=O)NC(C(=O)NC(C(=O)NC(C(=O)NC(C(=O)NC(C(=O)NC(C(=O)NC(C(=O)NC(C(=O)N9C(C(=O)NCC(=O)NC(C(=O)NC(C(=O)NC(C(=O)NC(C(=O)NC(C(=O)NC(C(=O)NC(C(=O)NC(C(=O)NC(C(=O)NC(C(=O)NC(C(=O)NCC(=O)NC(C(=O)NC(C(=O)NC(C(=O)NC(C(=O)NCC(=O)NC(C(=O)NC(C(=O)NC(C(=O)NCC(=O)NC(C(=O)NCC(=O)NC(C(=O)NC(C(=O)NC(C(=O)NC(C(=O)NC(C(=O)NC(C(=O)N%10C(C(=O)NC(C(=O)NC(C(=O)NC(C(=O)N%11C(C(=O)NC(C(=O)NC(C(=O)NC(C(=O)NC(C(=O)NC(C(=O)NC(C(=O)NC(C(=O)NCC(=O)NC(C(=O)NC(C(=O)NC(C(=O)NCC(=O)NC(C(=O)NC(C(=O)NC(C(=O)NC(C(=O)N%12C(C(=O)NC(C(=O)NCC(=O)NC(C(=O)NC(C(=O)NC(C(=O)NC(C(=O)NC)CC(=O)N)Cc%13ccc(O)cc%13)CO)CCCNC(=[NH2+])N)CC(=O)[O-])CCC%12)Cc%12ccc(O)cc%12)CC(C)C)Cc%12ccc(O)cc%12)Cc%12ccccc%12)CCC(=O)[O-])C)CO)CC(=O)[O-])C(CC)C)CC(C)C)C)CCC(=O)N)Cc%12ccccc%12)CC(C)C)CCC%11)CCCC[NH3+])CC(=O)N)Cc%11[nH]cnc%11)CCC%10)C(CC)C)C(O)C)CCC(=O)N)CC(C)C)C(CC)C)CC(=O)N)CC(=O)[O-])C(O)C)C(C)C)Cc%10ccc(O)cc%10)C(CC)C)C)Cc%10c%11c([nH]c%10)cccc%11)CCC(=O)N)CC(C)C)CCCNC(=[NH2+])N)C(O)C)CS)CO)CC(C)C)CCCNC(=[NH2+])N)Cc%10ccccc%10)C(CC)C)Cc%10ccc(O)cc%10)CO)CCC9)CCCC[NH3+])C(O)C)CO)Cc9ccc(O)cc9)CCCC[NH3+])CCC(=O)N)CC(C)C)CCCNC(=[NH2+])N)C)CCCC[NH3+])C(C)C)CCC(=O)[O-])CC(=O)[O-])Cc9ccc(O)cc9)C(O)C)CC(C)C)Cc9ccccc9)C)CCSC)Cc9ccc(O)cc9)CCC8)Cc8nc[nH]c8)C(O)C)C(C)C)C)CC(C)C)Cc8ccccc8)CC(=O)N)Cc8c9c([nH]c8)cccc9)CC(=O)N)CCCNC(=[NH2+])N)CC(C)C)C(CC)C)CO)Cc8c9c([nH]c8)cccc9)CCC7)CCC(=O)N)Cc7ccccc7)CC(C)C)CCCNC(=[NH2+])N)C(O)C)Cc7ccccc7)C(CC)C)CC(=O)[O-])Cc7ccccc7)CCC(=O)[O-])Cc7ccccc7)C(C)C)CO)C(CC)C)Cc7ccc(O)cc7)CC(=O)[O-])CC(=O)N)CS)C(O)C)CC(C)C)CC(=O)[O-])C(CC)C)C(O)C)CO)CCCC[NH3+])CC(C)C)C)CCSC)C)CCC(=O)[O-])CC(C)C)CO)CO)C(CC)C)CCC(=O)N)Cc7nc[nH]c7)C(C)C)CCC(=O)[O-])Cc7nc[nH]c7)CC(C)C)CS)CCC(=O)N)CCCNC(=[NH2+])N)Cc7ccccc7)C(C)C)CCCC[NH3+])Cc7c8c([nH]c7)cccc8)CCC6)C(C)C)C(CC)C)C(O)C)CCCC[NH3+])CC(=O)[O-])Cc6ccccc6)Cc6ccccc6)CCCC[NH3+])CCCNC(=[NH2+])N)Cc6c7c([nH]c6)cccc7)Cc6ccccc6)CCC(=O)[O-])C)C)CC(=O)[O-])C)CCCC[NH3+])C(O)C)C(CC)C)CCCNC(=[NH2+])N)Cc6ccccc6)CC(=O)N)CC(=O)[O-])CCC(=O)N)Cc6ccccc6)CCC(=O)N)CC(=O)N)CCC5)Cc5ccccc5)C(CC)C)C)CCCC[NH3+])C(CC)C)CCC(=O)[O-])C)CC(C)C)CCSC)Cc5nc[nH]c5)CO)Cc5ccccc5)C(CC)C)CC(C)C)CO)CC(C)C)CCCC[NH3+])C(O)C)CC(C)C)CC(=O)N)CCCNC(=[NH2+])N)CCCNC(=[NH2+])N)CC(=O)[O-])CCC(=O)N)CO)CCC(=O)N)CCC(=O)[O-])CCC(=O)[O-])Cc5ccc(O)cc5)CCSC)CCCNC(=[NH2+])N)CCC(=O)[O-])CCCC[NH3+])CCC(=O)[O-])CCCC[NH3+])Cc5ccccc5)CC(C)C)CCCNC(=[NH2+])N)C(CC)C)C)CCCNC(=[NH2+])N)CCCC[NH3+])CO)CCCC[NH3+])CCCC[NH3+])CCSC)CC(C)C)CO)CC(=O)[O-])C(CC)C)Cc5ccc(O)cc5)C(CC)C)CCCC[NH3+])Cc5ccccc5)Cc5ccc(O)cc5)CCC(=O)[O-])CC(=O)N)CCC(=O)[O-])CO)CC(C)C)CCC(=O)N)C)CC(C)C)CCCC[NH3+])CCC(=O)N)CC(=O)N)CC(=O)[O-])CC(=O)[O-])Cc5ccc(O)cc5)CCCC[NH3+])CO)CC(C)C)C(CC)C)CC(C)C)CCCNC(=[NH2+])N)CC(C)C)Cc5nc[nH]c5)CCC(=O)N)Cc5ccc(O)cc5)C(O)C)CC(=O)[O-])CCC4)CC(C)C)C(CC)C)CC(=O)[O-])CC(C)C)C(CC)C)Cc4ccc(O)cc4)CCC3)CCC2)CO)CC(=O)N)CCCC[NH3+])CC(C)C)CCC(=O)N)CC(C)C)CCCC[NH3+])CCC1)CC(=O)N)CCC(=O)N)CS)CC(C)C)CCCNC(=[NH2+])N)C(C)C)C(C)C)C)CC(=O)[O-])C.OCCO.[UH+3].[Zn+2].[Zn+2].O.O.O.O.O.O.O.O.O.O.O.O.O.O.O.O.O.O.O.O.O.O.O.O.O.O.O.O.O.O.O.O.O.O.O.O.O.O.O.O.O.O.O.O.O.O.O.O.O.O.O.O.O.O.O.O.O.O.O.O.O.O.O.O.O.O.O.O.O.O.O.O.O.O.O.O.O.O.O.O.O.O.O.O.O.O.O.O.O.O.O.O.O.O.O.O.O.O.O.O.O.O.O.O.O.O.O.O.O.O.O.O.O.O.O.O.O.O.O.O.O.O.O.O.O.O.O.O.O.O.O.O.O.O.O.O.O.O.O.O.O.O

>  <rseq>
1

>  <mseq>
28

>  <S>
-7.8580923

>  <rmsd_refine>
1.5440021

>  <E_conf>
12.602394

>  <E_place>
-72.884285

>  <E_score1>
-10.641517

>  <E_refine>
-44.842945

>  <E_score2>
-7.8580923

>  <Field_2>
LB08

>  <pseq>
28

>  <%C>
72.894791

>  <a_heavy>
25

>  <h_logP>
1.6136312

>  <Weight>
355.44998

>  <E_orig>
0

>  <PLIF_raw>
[[10,43,13,12,11],[1823,1823,1823,1823,1823],[144,144,144,144,144],[10,10,10,10,10],[0.5,0.5,0.5,0.5,0.5]]

>  <FP:PLIF>
32

>  <PLIF_ligidx>
[[10,43,13,12,11]]

$$$$

  MOE2020           3D

 51 54  0  0  1  0  0  0  0  0999 V2000
    2.8990    7.9210   17.5670 C   0  0  0  0  0  0  0  0  0  0  0  0
    3.2630    7.0060   17.1030 H   0  0  0  0  0  0  0  0  0  0  0  0
    2.1230    8.3650   16.9490 H   0  0  0  0  0  0  0  0  0  0  0  0
    3.7050    8.6310   17.6700 H   0  0  0  0  0  0  0  0  0  0  0  0
    2.3930    7.6920   18.9520 C   0  0  0  0  0  0  0  0  0  0  0  0
    1.6460    8.6270   19.4840 O   0  0  0  0  0  0  0  0  0  0  0  0
    1.3490    8.2230   20.7260 C   0  0  0  0  0  0  0  0  0  0  0  0
    0.5600    9.1090   21.5680 C   0  0  0  0  0  0  0  0  0  0  0  0
    0.4840    9.1170   22.9620 C   0  0  0  0  0  0  0  0  0  0  0  0
    0.9980    8.4560   23.5990 H   0  0  0  0  0  0  0  0  0  0  0  0
   -0.2920   10.0630   23.4060 N   0  0  0  0  0  0  0  0  0  0  0  0
   -0.7390   10.6880   22.2860 N   0  0  0  0  0  0  0  0  0  0  0  0
   -1.6410   11.8260   22.3420 C   0  0  0  0  0  0  0  0  0  0  0  0
   -2.5320   11.5990   22.9110 H   0  0  0  0  0  0  0  0  0  0  0  0
   -1.9600   12.1380   21.3570 H   0  0  0  0  0  0  0  0  0  0  0  0
   -1.1720   12.6790   22.8110 H   0  0  0  0  0  0  0  0  0  0  0  0
   -0.2360   10.1360   21.1640 C   0  0  0  0  0  0  0  0  0  0  0  0
   -0.4700   10.5010   20.1970 H   0  0  0  0  0  0  0  0  0  0  0  0
    1.8620    7.0590   20.9890 N   0  0  0  0  0  0  0  0  0  0  0  0
    2.5630    6.7060   19.8610 C   0  0  0  0  0  0  0  0  0  0  0  0
    3.3240    5.4540   19.7090 C   0  0  0  0  0  0  0  0  0  0  0  0
    2.9820    4.4280   20.2810 O   0  0  0  0  0  0  0  0  0  0  0  0
    4.4560    5.3450   18.9010 N   0  0  0  0  0  0  0  0  0  0  0  0
    5.5160    6.3350   18.8790 C   0  0  0  0  0  0  0  0  0  0  0  0
    5.3330    7.0890   18.1160 H   0  0  0  0  0  0  0  0  0  0  0  0
    5.5900    6.7790   19.8590 H   0  0  0  0  0  0  0  0  0  0  0  0
    6.8490    5.6370   18.6030 C   0  0  2  0  0  0  0  0  0  0  0  0
    7.9130    6.5040   17.9100 C   0  0  0  0  0  0  0  0  0  0  0  0
    7.4930    6.9280   16.9980 H   0  0  0  0  0  0  0  0  0  0  0  0
    8.7440    5.8520   17.6450 H   0  0  0  0  0  0  0  0  0  0  0  0
    8.4590    7.5830   18.7500 N   0  3  0  0  0  0  0  0  0  0  0  0
    7.7320    8.2400   18.9980 H   0  0  0  0  0  0  0  0  0  0  0  0
    9.1940    8.0640   18.2510 H   0  0  0  0  0  0  0  0  0  0  0  0
    8.8570    7.1950   19.5970 H   0  0  0  0  0  0  0  0  0  0  0  0
    6.4110    4.3520   17.8640 C   0  0  2  0  0  0  0  0  0  0  0  0
    6.2680    4.4560   16.3350 C   0  0  0  0  0  0  0  0  0  0  0  0
    7.4030    4.7360   15.5720 C   0  0  0  0  0  0  0  0  0  0  0  0
    8.3370    4.8590   16.0410 H   0  0  0  0  0  0  0  0  0  0  0  0
    7.3380    4.8280   14.1890 C   0  0  0  0  0  0  0  0  0  0  0  0
    8.1900    5.1120   13.6290 H   0  0  0  0  0  0  0  0  0  0  0  0
    6.1610    4.5240   13.5320 C   0  0  0  0  0  0  0  0  0  0  0  0
    6.1340    4.5130   12.4750 H   0  0  0  0  0  0  0  0  0  0  0  0
    5.0250    4.2270   14.2670 C   0  0  0  0  0  0  0  0  0  0  0  0
    4.1320    3.9980   13.7550 H   0  0  0  0  0  0  0  0  0  0  0  0
    5.0660    4.2170   15.6580 C   0  0  0  0  0  0  0  0  0  0  0  0
    4.1740    4.0020   16.1830 H   0  0  0  0  0  0  0  0  0  0  0  0
    5.1120    4.0660   18.6370 C   0  0  0  0  0  0  0  0  0  0  0  0
    5.3770    3.6080   19.5910 H   0  0  0  0  0  0  0  0  0  0  0  0
    4.4630    3.3680   18.1120 H   0  0  0  0  0  0  0  0  0  0  0  0
    7.2590    5.3210   19.5650 H   0  0  0  0  0  0  0  0  0  0  0  0
    7.1380    3.5660   18.0490 H   0  0  0  0  0  0  0  0  0  0  0  0
  1  2  1  0  0  0  0
  1  3  1  0  0  0  0
  1  4  1  0  0  0  0
  1  5  1  0  0  0  0
  5  6  1  0  0  0  0
  5 20  2  0  0  0  0
  6  7  1  0  0  0  0
  7  8  1  0  0  0  0
  7 19  2  0  0  0  0
  8  9  1  0  0  0  0
  8 17  2  0  0  0  0
  9 10  1  0  0  0  0
  9 11  2  0  0  0  0
 11 12  1  0  0  0  0
 12 13  1  0  0  0  0
 12 17  1  0  0  0  0
 13 14  1  0  0  0  0
 13 15  1  0  0  0  0
 13 16  1  0  0  0  0
 17 18  1  0  0  0  0
 19 20  1  0  0  0  0
 20 21  1  0  0  0  0
 21 22  2  0  0  0  0
 21 23  1  0  0  0  0
 23 24  1  0  0  0  0
 23 47  1  0  0  0  0
 24 25  1  0  0  0  0
 24 26  1  0  0  0  0
 24 27  1  0  0  0  0
 27 28  1  0  0  0  0
 27 35  1  0  0  0  0
 27 50  1  0  0  0  0
 28 29  1  0  0  0  0
 28 30  1  0  0  0  0
 28 31  1  0  0  0  0
 31 32  1  0  0  0  0
 31 33  1  0  0  0  0
 31 34  1  0  0  0  0
 35 36  1  0  0  0  0
 35 47  1  0  0  0  0
 35 51  1  0  0  0  0
 36 37  1  0  0  0  0
 36 45  2  0  0  0  0
 37 38  1  0  0  0  0
 37 39  2  0  0  0  0
 39 40  1  0  0  0  0
 39 41  1  0  0  0  0
 41 42  1  0  0  0  0
 41 43  2  0  0  0  0
 43 44  1  0  0  0  0
 43 45  1  0  0  0  0
 45 46  1  0  0  0  0
 47 48  1  0  0  0  0
 47 49  1  0  0  0  0
M  CHG  1  31   1
M  END
>  <receptor>
S(=O)(=O)([O-])[O-].S(CCC(NC(=O)C(NC(=O)C(NC(=O)CNC(=O)C(NC(=O)C1N(C(=O)C(NC(=O)C(NC(=O)C(NC(=O)C(NC(=O)C(NC(=O)C(NC(=O)C(NC(=O)C(NC(=O)C(NC(=O)C(NC(=O)C(NC(=O)C(NC(=O)C(NC(=O)C(NC(=O)C(NC(=O)C(NC(=O)C(NC(=O)C(NC(=O)C(NC(=O)CNC(=O)C(NC(=O)C(NC(=O)C(NC(=O)C(NC(=O)C(NC(=O)C(NC(=O)C(NC(=O)C(NC(=O)C(NC(=O)C(NC(=O)C(NC(=O)C(NC(=O)C(NC(=O)C)CCCC[NH3+])C(C)C)C(O)C)CCC(=O)N)CCC(=O)[O-])CCC(=O)N)Cc2ccccc2)CCC(=O)[O-])CC(C)C)Cc2ccc(O)cc2)CS)CCC(=O)[O-])CCSC)CO)C(O)C)Cc2ccccc2)CCC(=O)N)CC(C)C)C[S-])CCCC[NH3+])C(CC)C)C[S-])C)CCC(=O)[O-])CC(=O)N)CC(=O)[O-])CCCC[NH3+])CC(=O)[O-])C(C)C)CCCC[NH3+])C(CC)C)CCC(=O)[O-])CCC1)C[S-])Cc1nc[n-]c1)CC(C)C)C(=O)NC(C(=O)NC(C(=O)NC(C(=O)NC(C(=O)NC(C(=O)NC(C(=O)NC(C(=O)NC(C(=O)NC(C(=O)NC(C(=O)NC(C(=O)NC(C(=O)NCC(=O)NC(C(=O)NCC(=O)NC(C(=O)N1C(C(=O)NC(C(=O)NC(C(=O)NC(C(=O)NC(C(=O)NC(C(=O)NC(C(=O)NC(C(=O)NCC(=O)NC(C(=O)NC(C(=O)N2C(C(=O)NC(C(=O)NC(C(=O)NC(C(=O)NC(C(=O)N3C(C(=O)NC(C(=O)NC(C(=O)[O-])CC(=O)[O-])Cc4ccccc4)CCC3)CC(=O)[O-])C(C)C)C(CC)C)C(CC)C)CCC2)CCC(=O)[O-])C(O)C)CCCC[NH3+])C(CC)C)CCC(=O)[O-])CS)CCCNC(=[NH2+])N)C[S-])Cc2ccccc2)CCC1)C[S-])CCC(=O)N)CC(=O)[O-])CO)CCC(=O)[O-])CCC(=O)N)Cc1c2c([nH]c1)cccc2)C)C(O)C)CC(C)C)C[S-])CO)C(O)C)C[S-])C.S(CCC(NC(=O)C(NC(=O)C(NC(=O)C(NC(=O)C(NC(=O)C(NC(=O)C(NC(=O)C(NC(=O)C(NC(=O)C(NC(=O)C(NC(=O)C(NC(=O)C(NC(=O)C(NC(=O)C(NC(=O)C(NC(=O)C[NH3+])CCC(=O)N)C)C)C)CC(=O)[O-])CCCNC(=[NH2+])N)CCCNC(=[NH2+])N)C(O)C)C(C)C)CCC(=O)[O-])CCCC[NH3+])C(O)C)Cc1c2c([nH]c1)cccc2)C)CC(C)C)C(=O)NC(C(=O)NC(C(=O)NC(C(=O)NC(C(=O)NC(C(=O)NC(C(=O)NC(C(=O)NC(C(=O)NC(C(=O)N1C(C(=O)NC(C(=O)NC(C(=O)NC(C(=O)NC(C(=O)NC(C(=O)NC(C(=O)NC(C(=O)N2C(C(=O)N3C(C(=O)NC(C(=O)NC(C(=O)NC(C(=O)NC(C(=O)NC(C(=O)NC(C(=O)N4C(C(=O)NC(C(=O)NC(C(=O)NC(C(=O)NC(C(=O)NC(C(=O)NC(C(=O)NC(C(=O)NC(C(=O)NC(C(=O)NC(C(=O)NC(C(=O)NC(C(=O)NC(C(=O)NC(C(=O)NC(C(=O)NC(C(=O)NC(C(=O)NC(C(=O)NC(C(=O)NC(C(=O)NC(C(=O)NC(C(=O)NC(C(=O)NC(C(=O)NC(C(=O)NC(C(=O)NC(C(=O)NC(C(=O)NC(C(=O)NC(C(=O)NC(C(=O)NC(C(=O)NC(C(=O)NC(C(=O)NC(C(=O)NC(C(=O)NC(C(=O)NC(C(=O)NC(C(=O)NC(C(=O)NC(C(=O)NC(C(=O)NC(C(=O)NC(C(=O)NC(C(=O)NC(C(=O)NC(C(=O)NC(C(=O)NCC(=O)NC(C(=O)NC(C(=O)NC(C(=O)NC(C(=O)NC(C(=O)NC(C(=O)NC(C(=O)NC(C(=O)NC(C(=O)NC(C(=O)NC(C(=O)NC(C(=O)NC(C(=O)NC(C(=O)NC(C(=O)NC(C(=O)NC(C(=O)NC(C(=O)NC(C(=O)NC(C(=O)NC(C(=O)NC(C(=O)NC(C(=O)NC(C(=O)NC(C(=O)NC(C(=O)NC(C(=O)NC(C(=O)NC(C(=O)NC(C(=O)NC(C(=O)NC(C(=O)NC(C(=O)N5C(C(=O)NC(C(=O)NCC(=O)NC(C(=O)NC(C(=O)NC(C(=O)NCC(=O)NC(C(=O)NC(C(=O)NC(C(=O)NC(C(=O)NC(C(=O)NC(C(=O)NC(C(=O)NC(C(=O)NC(C(=O)NC(C(=O)NC(C(=O)NC(C(=O)NC(C(=O)NC(C(=O)NC(C(=O)NC(C(=O)NC(C(=O)NC(C(=O)NCC(=O)NC(C(=O)NC(C(=O)NC(C(=O)NC(C(=O)NC(C(=O)N6C(C(=O)NC(C(=O)NC(C(=O)NC(C(=O)NC(C(=O)NC(C(=O)NC(C(=O)NC(C(=O)NC(C(=O)NC(C(=O)NC(C(=O)NC(C(=O)NC(C(=O)NC(C(=O)NC(C(=O)NC(C(=O)NC(C(=O)NCC(=O)NC(C(=O)NC(C(=O)NC(C(=O)NC(C(=O)NC(C(=O)NC(C(=O)NC(C(=O)NC(C(=O)NC(C(=O)NC(C(=O)NC(C(=O)NC(C(=O)NC(C(=O)NC(C(=O)NC(C(=O)NC(C(=O)NC(C(=O)NC(C(=O)NC(C(=O)NC(C(=O)NC(C(=O)NC(C(=O)NC(C(=O)NC(C(=O)NC(C(=O)NC(C(=O)NC(C(=O)NC(C(=O)NC(C(=O)NC(C(=O)NC(C(=O)N7C(C(=O)NC(C(=O)NCC(=O)NC(C(=O)NC(C(=O)NC(C(=O)NC(C(=O)NC(C(=O)NC(C(=O)NC(C(=O)NC(C(=O)NC(C(=O)NC(C(=O)NC(C(=O)NC(C(=O)NC(C(=O)N8C(C(=O)NCC(=O)NC(C(=O)NC(C(=O)NC(C(=O)NC(C(=O)NC(C(=O)NC(C(=O)NC(C(=O)NC(C(=O)NC(C(=O)NC(C(=O)NC(C(=O)NC(C(=O)NC(C(=O)NC(C(=O)NC(C(=O)NC(C(=O)NC(C(=O)NC(C(=O)NC(C(=O)NC(C(=O)N9C(C(=O)NCC(=O)NC(C(=O)NC(C(=O)NC(C(=O)NC(C(=O)NC(C(=O)NC(C(=O)NC(C(=O)NC(C(=O)NC(C(=O)NC(C(=O)NC(C(=O)NCC(=O)NC(C(=O)NC(C(=O)NC(C(=O)NC(C(=O)NCC(=O)NC(C(=O)NC(C(=O)NC(C(=O)NCC(=O)NC(C(=O)NCC(=O)NC(C(=O)NC(C(=O)NC(C(=O)NC(C(=O)NC(C(=O)NC(C(=O)N%10C(C(=O)NC(C(=O)NC(C(=O)NC(C(=O)N%11C(C(=O)NC(C(=O)NC(C(=O)NC(C(=O)NC(C(=O)NC(C(=O)NC(C(=O)NC(C(=O)NCC(=O)NC(C(=O)NC(C(=O)NC(C(=O)NCC(=O)NC(C(=O)NC(C(=O)NC(C(=O)NC(C(=O)N%12C(C(=O)NC(C(=O)NCC(=O)NC(C(=O)NC(C(=O)NC(C(=O)NC(C(=O)NC)CC(=O)N)Cc%13ccc(O)cc%13)CO)CCCNC(=[NH2+])N)CC(=O)[O-])CCC%12)Cc%12ccc(O)cc%12)CC(C)C)Cc%12ccc(O)cc%12)Cc%12ccccc%12)CCC(=O)[O-])C)CO)CC(=O)[O-])C(CC)C)CC(C)C)C)CCC(=O)N)Cc%12ccccc%12)CC(C)C)CCC%11)CCCC[NH3+])CC(=O)N)Cc%11[nH]cnc%11)CCC%10)C(CC)C)C(O)C)CCC(=O)N)CC(C)C)C(CC)C)CC(=O)N)CC(=O)[O-])C(O)C)C(C)C)Cc%10ccc(O)cc%10)C(CC)C)C)Cc%10c%11c([nH]c%10)cccc%11)CCC(=O)N)CC(C)C)CCCNC(=[NH2+])N)C(O)C)CS)CO)CC(C)C)CCCNC(=[NH2+])N)Cc%10ccccc%10)C(CC)C)Cc%10ccc(O)cc%10)CO)CCC9)CCCC[NH3+])C(O)C)CO)Cc9ccc(O)cc9)CCCC[NH3+])CCC(=O)N)CC(C)C)CCCNC(=[NH2+])N)C)CCCC[NH3+])C(C)C)CCC(=O)[O-])CC(=O)[O-])Cc9ccc(O)cc9)C(O)C)CC(C)C)Cc9ccccc9)C)CCSC)Cc9ccc(O)cc9)CCC8)Cc8nc[nH]c8)C(O)C)C(C)C)C)CC(C)C)Cc8ccccc8)CC(=O)N)Cc8c9c([nH]c8)cccc9)CC(=O)N)CCCNC(=[NH2+])N)CC(C)C)C(CC)C)CO)Cc8c9c([nH]c8)cccc9)CCC7)CCC(=O)N)Cc7ccccc7)CC(C)C)CCCNC(=[NH2+])N)C(O)C)Cc7ccccc7)C(CC)C)CC(=O)[O-])Cc7ccccc7)CCC(=O)[O-])Cc7ccccc7)C(C)C)CO)C(CC)C)Cc7ccc(O)cc7)CC(=O)[O-])CC(=O)N)CS)C(O)C)CC(C)C)CC(=O)[O-])C(CC)C)C(O)C)CO)CCCC[NH3+])CC(C)C)C)CCSC)C)CCC(=O)[O-])CC(C)C)CO)CO)C(CC)C)CCC(=O)N)Cc7nc[nH]c7)C(C)C)CCC(=O)[O-])Cc7nc[nH]c7)CC(C)C)CS)CCC(=O)N)CCCNC(=[NH2+])N)Cc7ccccc7)C(C)C)CCCC[NH3+])Cc7c8c([nH]c7)cccc8)CCC6)C(C)C)C(CC)C)C(O)C)CCCC[NH3+])CC(=O)[O-])Cc6ccccc6)Cc6ccccc6)CCCC[NH3+])CCCNC(=[NH2+])N)Cc6c7c([nH]c6)cccc7)Cc6ccccc6)CCC(=O)[O-])C)C)CC(=O)[O-])C)CCCC[NH3+])C(O)C)C(CC)C)CCCNC(=[NH2+])N)Cc6ccccc6)CC(=O)N)CC(=O)[O-])CCC(=O)N)Cc6ccccc6)CCC(=O)N)CC(=O)N)CCC5)Cc5ccccc5)C(CC)C)C)CCCC[NH3+])C(CC)C)CCC(=O)[O-])C)CC(C)C)CCSC)Cc5nc[nH]c5)CO)Cc5ccccc5)C(CC)C)CC(C)C)CO)CC(C)C)CCCC[NH3+])C(O)C)CC(C)C)CC(=O)N)CCCNC(=[NH2+])N)CCCNC(=[NH2+])N)CC(=O)[O-])CCC(=O)N)CO)CCC(=O)N)CCC(=O)[O-])CCC(=O)[O-])Cc5ccc(O)cc5)CCSC)CCCNC(=[NH2+])N)CCC(=O)[O-])CCCC[NH3+])CCC(=O)[O-])CCCC[NH3+])Cc5ccccc5)CC(C)C)CCCNC(=[NH2+])N)C(CC)C)C)CCCNC(=[NH2+])N)CCCC[NH3+])CO)CCCC[NH3+])CCCC[NH3+])CCSC)CC(C)C)CO)CC(=O)[O-])C(CC)C)Cc5ccc(O)cc5)C(CC)C)CCCC[NH3+])Cc5ccccc5)Cc5ccc(O)cc5)CCC(=O)[O-])CC(=O)N)CCC(=O)[O-])CO)CC(C)C)CCC(=O)N)C)CC(C)C)CCCC[NH3+])CCC(=O)N)CC(=O)N)CC(=O)[O-])CC(=O)[O-])Cc5ccc(O)cc5)CCCC[NH3+])CO)CC(C)C)C(CC)C)CC(C)C)CCCNC(=[NH2+])N)CC(C)C)Cc5nc[nH]c5)CCC(=O)N)Cc5ccc(O)cc5)C(O)C)CC(=O)[O-])CCC4)CC(C)C)C(CC)C)CC(=O)[O-])CC(C)C)C(CC)C)Cc4ccc(O)cc4)CCC3)CCC2)CO)CC(=O)N)CCCC[NH3+])CC(C)C)CCC(=O)N)CC(C)C)CCCC[NH3+])CCC1)CC(=O)N)CCC(=O)N)CS)CC(C)C)CCCNC(=[NH2+])N)C(C)C)C(C)C)C)CC(=O)[O-])C.OCCO.[UH+3].[Zn+2].[Zn+2].O.O.O.O.O.O.O.O.O.O.O.O.O.O.O.O.O.O.O.O.O.O.O.O.O.O.O.O.O.O.O.O.O.O.O.O.O.O.O.O.O.O.O.O.O.O.O.O.O.O.O.O.O.O.O.O.O.O.O.O.O.O.O.O.O.O.O.O.O.O.O.O.O.O.O.O.O.O.O.O.O.O.O.O.O.O.O.O.O.O.O.O.O.O.O.O.O.O.O.O.O.O.O.O.O.O.O.O.O.O.O.O.O.O.O.O.O.O.O.O.O.O.O.O.O.O.O.O.O.O.O.O.O.O.O.O.O.O.O.O.O.O

>  <rseq>
1

>  <mseq>
29

>  <S>
-7.9406562

>  <rmsd_refine>
3.0379519

>  <E_conf>
39.118557

>  <E_place>
-53.823479

>  <E_score1>
-12.722825

>  <E_refine>
-34.098804

>  <E_score2>
-7.9406562

>  <Field_2>
LB09

>  <pseq>
29

>  <%C>
99.634804

>  <a_heavy>
27

>  <h_logP>
-2.2207055

>  <Weight>
366.44501

>  <E_orig>
1.999999

>  <PLIF_raw>
[[31,36,45,43,41,39,37],[5130,3036,3036,3036,3036,3036,3036],[363,219,219,219,219,219,219],[3,10,10,10,10,10,10],[6.3,0.6,0.6,0.6,0.6,0.6,0.6]]

>  <FP:PLIF>
21 31 33

>  <PLIF_ligidx>
[[36,45,43,41,39,37],31,31]

$$$$

  MOE2020           3D

 51 54  0  0  0  0  0  0  0  0999 V2000
   -0.4940    9.5540   23.3330 C   0  0  0  0  0  0  0  0  0  0  0  0
   -0.8620    8.6610   22.8260 H   0  0  0  0  0  0  0  0  0  0  0  0
   -1.3370   10.1720   23.6440 H   0  0  0  0  0  0  0  0  0  0  0  0
    0.0800    9.2570   24.2100 H   0  0  0  0  0  0  0  0  0  0  0  0
    0.4010   10.3480   22.3890 C   0  0  0  0  0  0  0  0  0  0  0  0
    1.2750    9.7430   22.1460 H   0  0  0  0  0  0  0  0  0  0  0  0
    0.7340   11.2510   22.8980 H   0  0  0  0  0  0  0  0  0  0  0  0
   -0.3090   10.7610   21.0910 C   0  0  0  0  0  0  0  0  0  0  0  0
   -1.1700   11.3690   21.3350 H   0  0  0  0  0  0  0  0  0  0  0  0
   -0.7520    9.8980   20.6160 H   0  0  0  0  0  0  0  0  0  0  0  0
    0.5910   11.4810   20.1630 N   0  0  0  0  0  0  0  0  0  0  0  0
    1.4640   10.7640   19.2900 C   0  0  0  0  0  0  0  0  0  0  0  0
    1.2820    9.0280   19.2770 S   0  0  0  0  0  0  0  0  0  0  0  0
    2.6540    8.3410   18.2840 C   0  0  0  0  0  0  0  0  0  0  0  0
    2.4000    8.3980   17.2360 H   0  0  0  0  0  0  0  0  0  0  0  0
    3.5210    8.9760   18.3950 H   0  0  0  0  0  0  0  0  0  0  0  0
    3.0220    6.9070   18.6400 C   0  0  0  0  0  0  0  0  0  0  0  0
    2.1700    6.2030   19.1370 O   0  0  0  0  0  0  0  0  0  0  0  0
    4.3570    6.4010   18.3850 C   0  0  0  0  0  0  0  0  0  0  0  0
    5.2790    7.1090   17.7960 N   0  0  0  0  0  0  0  0  0  0  0  0
    6.3280    6.2950   17.8160 N   0  0  0  0  0  0  0  0  0  0  0  0
    7.6160    6.7220   17.3070 C   0  0  0  0  0  0  0  0  0  0  0  0
    8.2610    5.8670   17.1560 H   0  0  0  0  0  0  0  0  0  0  0  0
    7.4750    7.1660   16.3360 H   0  0  0  0  0  0  0  0  0  0  0  0
    8.3190    7.7430   18.2090 C   0  0  0  0  0  0  0  0  0  0  0  0
    9.1520    8.2040   17.6910 H   0  0  0  0  0  0  0  0  0  0  0  0
    8.6880    7.2590   19.1120 H   0  0  0  0  0  0  0  0  0  0  0  0
    7.6340    8.5400   18.4870 H   0  0  0  0  0  0  0  0  0  0  0  0
    6.1240    5.0940   18.3700 N   0  0  0  0  0  0  0  0  0  0  0  0
    4.8890    5.1570   18.7230 C   0  0  0  0  0  0  0  0  0  0  0  0
    4.2030    3.9850   19.3840 C   0  0  0  0  0  0  0  0  0  0  0  0
    3.6500    3.4150   18.6420 H   0  0  0  0  0  0  0  0  0  0  0  0
    3.5180    4.3130   20.1640 H   0  0  0  0  0  0  0  0  0  0  0  0
    4.9430    3.3260   19.8340 H   0  0  0  0  0  0  0  0  0  0  0  0
    2.3670   11.3670   18.5590 N   0  0  0  0  0  0  0  0  0  0  0  0
    2.4580   12.7410   18.6420 C   0  0  0  0  0  0  0  0  0  0  0  0
    3.6220   13.7050   17.7930 S   0  0  0  0  0  0  0  0  0  0  0  0
    2.9330   15.1460   18.4490 C   0  0  0  0  0  0  0  0  0  0  0  0
    1.9080   14.8960   19.2800 C   0  0  0  0  0  0  0  0  0  0  0  0
    1.6310   13.5180   19.4240 C   0  0  0  0  0  0  0  0  0  0  0  0
    0.6690   12.8790   20.2620 C   0  0  0  0  0  0  0  0  0  0  0  0
   -0.0480   13.4710   21.0820 O   0  0  0  0  0  0  0  0  0  0  0  0
    1.3340   16.1770   19.8100 C   0  0  0  0  0  0  0  0  0  0  0  0
    0.3260   16.3060   19.4130 H   0  0  0  0  0  0  0  0  0  0  0  0
    1.3200   16.1660   20.9000 H   0  0  0  0  0  0  0  0  0  0  0  0
    2.2780   17.2910   19.2740 C   0  0  0  0  0  0  0  0  0  0  0  0
    2.8580   17.7020   20.1020 H   0  0  0  0  0  0  0  0  0  0  0  0
    1.7060   18.0820   18.7880 H   0  0  0  0  0  0  0  0  0  0  0  0
    3.2350   16.5980   18.2690 C   0  0  0  0  0  0  0  0  0  0  0  0
    4.2780   16.8040   18.5080 H   0  0  0  0  0  0  0  0  0  0  0  0
    3.0020   16.8930   17.2450 H   0  0  0  0  0  0  0  0  0  0  0  0
  1  2  1  0  0  0  0
  1  3  1  0  0  0  0
  1  4  1  0  0  0  0
  1  5  1  0  0  0  0
  5  6  1  0  0  0  0
  5  7  1  0  0  0  0
  5  8  1  0  0  0  0
  8  9  1  0  0  0  0
  8 10  1  0  0  0  0
  8 11  1  0  0  0  0
 11 12  1  0  0  0  0
 11 41  1  0  0  0  0
 12 13  1  0  0  0  0
 12 35  2  0  0  0  0
 13 14  1  0  0  0  0
 14 15  1  0  0  0  0
 14 16  1  0  0  0  0
 14 17  1  0  0  0  0
 17 18  2  0  0  0  0
 17 19  1  0  0  0  0
 19 20  2  0  0  0  0
 19 30  1  0  0  0  0
 20 21  1  0  0  0  0
 21 22  1  0  0  0  0
 21 29  1  0  0  0  0
 22 23  1  0  0  0  0
 22 24  1  0  0  0  0
 22 25  1  0  0  0  0
 25 26  1  0  0  0  0
 25 27  1  0  0  0  0
 25 28  1  0  0  0  0
 29 30  2  0  0  0  0
 30 31  1  0  0  0  0
 31 32  1  0  0  0  0
 31 33  1  0  0  0  0
 31 34  1  0  0  0  0
 35 36  1  0  0  0  0
 36 37  1  0  0  0  0
 36 40  2  0  0  0  0
 37 38  1  0  0  0  0
 38 39  2  0  0  0  0
 38 49  1  0  0  0  0
 39 40  1  0  0  0  0
 39 43  1  0  0  0  0
 40 41  1  0  0  0  0
 41 42  2  0  0  0  0
 43 44  1  0  0  0  0
 43 45  1  0  0  0  0
 43 46  1  0  0  0  0
 46 47  1  0  0  0  0
 46 48  1  0  0  0  0
 46 49  1  0  0  0  0
 49 50  1  0  0  0  0
 49 51  1  0  0  0  0
M  END
>  <receptor>
S(=O)(=O)([O-])[O-].S(CCC(NC(=O)C(NC(=O)C(NC(=O)CNC(=O)C(NC(=O)C1N(C(=O)C(NC(=O)C(NC(=O)C(NC(=O)C(NC(=O)C(NC(=O)C(NC(=O)C(NC(=O)C(NC(=O)C(NC(=O)C(NC(=O)C(NC(=O)C(NC(=O)C(NC(=O)C(NC(=O)C(NC(=O)C(NC(=O)C(NC(=O)C(NC(=O)C(NC(=O)CNC(=O)C(NC(=O)C(NC(=O)C(NC(=O)C(NC(=O)C(NC(=O)C(NC(=O)C(NC(=O)C(NC(=O)C(NC(=O)C(NC(=O)C(NC(=O)C(NC(=O)C(NC(=O)C)CCCC[NH3+])C(C)C)C(O)C)CCC(=O)N)CCC(=O)[O-])CCC(=O)N)Cc2ccccc2)CCC(=O)[O-])CC(C)C)Cc2ccc(O)cc2)CS)CCC(=O)[O-])CCSC)CO)C(O)C)Cc2ccccc2)CCC(=O)N)CC(C)C)C[S-])CCCC[NH3+])C(CC)C)C[S-])C)CCC(=O)[O-])CC(=O)N)CC(=O)[O-])CCCC[NH3+])CC(=O)[O-])C(C)C)CCCC[NH3+])C(CC)C)CCC(=O)[O-])CCC1)C[S-])Cc1nc[n-]c1)CC(C)C)C(=O)NC(C(=O)NC(C(=O)NC(C(=O)NC(C(=O)NC(C(=O)NC(C(=O)NC(C(=O)NC(C(=O)NC(C(=O)NC(C(=O)NC(C(=O)NC(C(=O)NCC(=O)NC(C(=O)NCC(=O)NC(C(=O)N1C(C(=O)NC(C(=O)NC(C(=O)NC(C(=O)NC(C(=O)NC(C(=O)NC(C(=O)NC(C(=O)NCC(=O)NC(C(=O)NC(C(=O)N2C(C(=O)NC(C(=O)NC(C(=O)NC(C(=O)NC(C(=O)N3C(C(=O)NC(C(=O)NC(C(=O)[O-])CC(=O)[O-])Cc4ccccc4)CCC3)CC(=O)[O-])C(C)C)C(CC)C)C(CC)C)CCC2)CCC(=O)[O-])C(O)C)CCCC[NH3+])C(CC)C)CCC(=O)[O-])CS)CCCNC(=[NH2+])N)C[S-])Cc2ccccc2)CCC1)C[S-])CCC(=O)N)CC(=O)[O-])CO)CCC(=O)[O-])CCC(=O)N)Cc1c2c([nH]c1)cccc2)C)C(O)C)CC(C)C)C[S-])CO)C(O)C)C[S-])C.S(CCC(NC(=O)C(NC(=O)C(NC(=O)C(NC(=O)C(NC(=O)C(NC(=O)C(NC(=O)C(NC(=O)C(NC(=O)C(NC(=O)C(NC(=O)C(NC(=O)C(NC(=O)C(NC(=O)C(NC(=O)C(NC(=O)C[NH3+])CCC(=O)N)C)C)C)CC(=O)[O-])CCCNC(=[NH2+])N)CCCNC(=[NH2+])N)C(O)C)C(C)C)CCC(=O)[O-])CCCC[NH3+])C(O)C)Cc1c2c([nH]c1)cccc2)C)CC(C)C)C(=O)NC(C(=O)NC(C(=O)NC(C(=O)NC(C(=O)NC(C(=O)NC(C(=O)NC(C(=O)NC(C(=O)NC(C(=O)N1C(C(=O)NC(C(=O)NC(C(=O)NC(C(=O)NC(C(=O)NC(C(=O)NC(C(=O)NC(C(=O)N2C(C(=O)N3C(C(=O)NC(C(=O)NC(C(=O)NC(C(=O)NC(C(=O)NC(C(=O)NC(C(=O)N4C(C(=O)NC(C(=O)NC(C(=O)NC(C(=O)NC(C(=O)NC(C(=O)NC(C(=O)NC(C(=O)NC(C(=O)NC(C(=O)NC(C(=O)NC(C(=O)NC(C(=O)NC(C(=O)NC(C(=O)NC(C(=O)NC(C(=O)NC(C(=O)NC(C(=O)NC(C(=O)NC(C(=O)NC(C(=O)NC(C(=O)NC(C(=O)NC(C(=O)NC(C(=O)NC(C(=O)NC(C(=O)NC(C(=O)NC(C(=O)NC(C(=O)NC(C(=O)NC(C(=O)NC(C(=O)NC(C(=O)NC(C(=O)NC(C(=O)NC(C(=O)NC(C(=O)NC(C(=O)NC(C(=O)NC(C(=O)NC(C(=O)NC(C(=O)NC(C(=O)NC(C(=O)NC(C(=O)NC(C(=O)NC(C(=O)NCC(=O)NC(C(=O)NC(C(=O)NC(C(=O)NC(C(=O)NC(C(=O)NC(C(=O)NC(C(=O)NC(C(=O)NC(C(=O)NC(C(=O)NC(C(=O)NC(C(=O)NC(C(=O)NC(C(=O)NC(C(=O)NC(C(=O)NC(C(=O)NC(C(=O)NC(C(=O)NC(C(=O)NC(C(=O)NC(C(=O)NC(C(=O)NC(C(=O)NC(C(=O)NC(C(=O)NC(C(=O)NC(C(=O)NC(C(=O)NC(C(=O)NC(C(=O)NC(C(=O)NC(C(=O)N5C(C(=O)NC(C(=O)NCC(=O)NC(C(=O)NC(C(=O)NC(C(=O)NCC(=O)NC(C(=O)NC(C(=O)NC(C(=O)NC(C(=O)NC(C(=O)NC(C(=O)NC(C(=O)NC(C(=O)NC(C(=O)NC(C(=O)NC(C(=O)NC(C(=O)NC(C(=O)NC(C(=O)NC(C(=O)NC(C(=O)NC(C(=O)NC(C(=O)NCC(=O)NC(C(=O)NC(C(=O)NC(C(=O)NC(C(=O)NC(C(=O)N6C(C(=O)NC(C(=O)NC(C(=O)NC(C(=O)NC(C(=O)NC(C(=O)NC(C(=O)NC(C(=O)NC(C(=O)NC(C(=O)NC(C(=O)NC(C(=O)NC(C(=O)NC(C(=O)NC(C(=O)NC(C(=O)NC(C(=O)NCC(=O)NC(C(=O)NC(C(=O)NC(C(=O)NC(C(=O)NC(C(=O)NC(C(=O)NC(C(=O)NC(C(=O)NC(C(=O)NC(C(=O)NC(C(=O)NC(C(=O)NC(C(=O)NC(C(=O)NC(C(=O)NC(C(=O)NC(C(=O)NC(C(=O)NC(C(=O)NC(C(=O)NC(C(=O)NC(C(=O)NC(C(=O)NC(C(=O)NC(C(=O)NC(C(=O)NC(C(=O)NC(C(=O)NC(C(=O)NC(C(=O)NC(C(=O)N7C(C(=O)NC(C(=O)NCC(=O)NC(C(=O)NC(C(=O)NC(C(=O)NC(C(=O)NC(C(=O)NC(C(=O)NC(C(=O)NC(C(=O)NC(C(=O)NC(C(=O)NC(C(=O)NC(C(=O)NC(C(=O)N8C(C(=O)NCC(=O)NC(C(=O)NC(C(=O)NC(C(=O)NC(C(=O)NC(C(=O)NC(C(=O)NC(C(=O)NC(C(=O)NC(C(=O)NC(C(=O)NC(C(=O)NC(C(=O)NC(C(=O)NC(C(=O)NC(C(=O)NC(C(=O)NC(C(=O)NC(C(=O)NC(C(=O)NC(C(=O)N9C(C(=O)NCC(=O)NC(C(=O)NC(C(=O)NC(C(=O)NC(C(=O)NC(C(=O)NC(C(=O)NC(C(=O)NC(C(=O)NC(C(=O)NC(C(=O)NC(C(=O)NCC(=O)NC(C(=O)NC(C(=O)NC(C(=O)NC(C(=O)NCC(=O)NC(C(=O)NC(C(=O)NC(C(=O)NCC(=O)NC(C(=O)NCC(=O)NC(C(=O)NC(C(=O)NC(C(=O)NC(C(=O)NC(C(=O)NC(C(=O)N%10C(C(=O)NC(C(=O)NC(C(=O)NC(C(=O)N%11C(C(=O)NC(C(=O)NC(C(=O)NC(C(=O)NC(C(=O)NC(C(=O)NC(C(=O)NC(C(=O)NCC(=O)NC(C(=O)NC(C(=O)NC(C(=O)NCC(=O)NC(C(=O)NC(C(=O)NC(C(=O)NC(C(=O)N%12C(C(=O)NC(C(=O)NCC(=O)NC(C(=O)NC(C(=O)NC(C(=O)NC(C(=O)NC)CC(=O)N)Cc%13ccc(O)cc%13)CO)CCCNC(=[NH2+])N)CC(=O)[O-])CCC%12)Cc%12ccc(O)cc%12)CC(C)C)Cc%12ccc(O)cc%12)Cc%12ccccc%12)CCC(=O)[O-])C)CO)CC(=O)[O-])C(CC)C)CC(C)C)C)CCC(=O)N)Cc%12ccccc%12)CC(C)C)CCC%11)CCCC[NH3+])CC(=O)N)Cc%11[nH]cnc%11)CCC%10)C(CC)C)C(O)C)CCC(=O)N)CC(C)C)C(CC)C)CC(=O)N)CC(=O)[O-])C(O)C)C(C)C)Cc%10ccc(O)cc%10)C(CC)C)C)Cc%10c%11c([nH]c%10)cccc%11)CCC(=O)N)CC(C)C)CCCNC(=[NH2+])N)C(O)C)CS)CO)CC(C)C)CCCNC(=[NH2+])N)Cc%10ccccc%10)C(CC)C)Cc%10ccc(O)cc%10)CO)CCC9)CCCC[NH3+])C(O)C)CO)Cc9ccc(O)cc9)CCCC[NH3+])CCC(=O)N)CC(C)C)CCCNC(=[NH2+])N)C)CCCC[NH3+])C(C)C)CCC(=O)[O-])CC(=O)[O-])Cc9ccc(O)cc9)C(O)C)CC(C)C)Cc9ccccc9)C)CCSC)Cc9ccc(O)cc9)CCC8)Cc8nc[nH]c8)C(O)C)C(C)C)C)CC(C)C)Cc8ccccc8)CC(=O)N)Cc8c9c([nH]c8)cccc9)CC(=O)N)CCCNC(=[NH2+])N)CC(C)C)C(CC)C)CO)Cc8c9c([nH]c8)cccc9)CCC7)CCC(=O)N)Cc7ccccc7)CC(C)C)CCCNC(=[NH2+])N)C(O)C)Cc7ccccc7)C(CC)C)CC(=O)[O-])Cc7ccccc7)CCC(=O)[O-])Cc7ccccc7)C(C)C)CO)C(CC)C)Cc7ccc(O)cc7)CC(=O)[O-])CC(=O)N)CS)C(O)C)CC(C)C)CC(=O)[O-])C(CC)C)C(O)C)CO)CCCC[NH3+])CC(C)C)C)CCSC)C)CCC(=O)[O-])CC(C)C)CO)CO)C(CC)C)CCC(=O)N)Cc7nc[nH]c7)C(C)C)CCC(=O)[O-])Cc7nc[nH]c7)CC(C)C)CS)CCC(=O)N)CCCNC(=[NH2+])N)Cc7ccccc7)C(C)C)CCCC[NH3+])Cc7c8c([nH]c7)cccc8)CCC6)C(C)C)C(CC)C)C(O)C)CCCC[NH3+])CC(=O)[O-])Cc6ccccc6)Cc6ccccc6)CCCC[NH3+])CCCNC(=[NH2+])N)Cc6c7c([nH]c6)cccc7)Cc6ccccc6)CCC(=O)[O-])C)C)CC(=O)[O-])C)CCCC[NH3+])C(O)C)C(CC)C)CCCNC(=[NH2+])N)Cc6ccccc6)CC(=O)N)CC(=O)[O-])CCC(=O)N)Cc6ccccc6)CCC(=O)N)CC(=O)N)CCC5)Cc5ccccc5)C(CC)C)C)CCCC[NH3+])C(CC)C)CCC(=O)[O-])C)CC(C)C)CCSC)Cc5nc[nH]c5)CO)Cc5ccccc5)C(CC)C)CC(C)C)CO)CC(C)C)CCCC[NH3+])C(O)C)CC(C)C)CC(=O)N)CCCNC(=[NH2+])N)CCCNC(=[NH2+])N)CC(=O)[O-])CCC(=O)N)CO)CCC(=O)N)CCC(=O)[O-])CCC(=O)[O-])Cc5ccc(O)cc5)CCSC)CCCNC(=[NH2+])N)CCC(=O)[O-])CCCC[NH3+])CCC(=O)[O-])CCCC[NH3+])Cc5ccccc5)CC(C)C)CCCNC(=[NH2+])N)C(CC)C)C)CCCNC(=[NH2+])N)CCCC[NH3+])CO)CCCC[NH3+])CCCC[NH3+])CCSC)CC(C)C)CO)CC(=O)[O-])C(CC)C)Cc5ccc(O)cc5)C(CC)C)CCCC[NH3+])Cc5ccccc5)Cc5ccc(O)cc5)CCC(=O)[O-])CC(=O)N)CCC(=O)[O-])CO)CC(C)C)CCC(=O)N)C)CC(C)C)CCCC[NH3+])CCC(=O)N)CC(=O)N)CC(=O)[O-])CC(=O)[O-])Cc5ccc(O)cc5)CCCC[NH3+])CO)CC(C)C)C(CC)C)CC(C)C)CCCNC(=[NH2+])N)CC(C)C)Cc5nc[nH]c5)CCC(=O)N)Cc5ccc(O)cc5)C(O)C)CC(=O)[O-])CCC4)CC(C)C)C(CC)C)CC(=O)[O-])CC(C)C)C(CC)C)Cc4ccc(O)cc4)CCC3)CCC2)CO)CC(=O)N)CCCC[NH3+])CC(C)C)CCC(=O)N)CC(C)C)CCCC[NH3+])CCC1)CC(=O)N)CCC(=O)N)CS)CC(C)C)CCCNC(=[NH2+])N)C(C)C)C(C)C)C)CC(=O)[O-])C.OCCO.[UH+3].[Zn+2].[Zn+2].O.O.O.O.O.O.O.O.O.O.O.O.O.O.O.O.O.O.O.O.O.O.O.O.O.O.O.O.O.O.O.O.O.O.O.O.O.O.O.O.O.O.O.O.O.O.O.O.O.O.O.O.O.O.O.O.O.O.O.O.O.O.O.O.O.O.O.O.O.O.O.O.O.O.O.O.O.O.O.O.O.O.O.O.O.O.O.O.O.O.O.O.O.O.O.O.O.O.O.O.O.O.O.O.O.O.O.O.O.O.O.O.O.O.O.O.O.O.O.O.O.O.O.O.O.O.O.O.O.O.O.O.O.O.O.O.O.O.O.O.O.O

>  <rseq>
1

>  <mseq>
30

>  <S>
-7.7562823

>  <rmsd_refine>
1.2800125

>  <E_conf>
5.3478575

>  <E_place>
-81.506371

>  <E_score1>
-10.308374

>  <E_refine>
-36.446804

>  <E_score2>
-7.7562823

>  <Field_2>
LB10

>  <pseq>
30

>  <%C>
99.778519

>  <a_heavy>
28

>  <h_logP>
3.453891

>  <Weight>
417.55798

>  <E_orig>
1.2

>  <PLIF_raw>
[18,6345,220688,6,0.6]

>  <FP:PLIF>
3

>  <PLIF_ligidx>
18

$$$$

  MOE2020           3D

 56 60  0  0  1  0  0  0  0  0999 V2000
   -0.1630   11.8430   18.2120 C   0  0  0  0  0  0  0  0  0  0  0  0
   -0.7670   12.4320   17.5200 H   0  0  0  0  0  0  0  0  0  0  0  0
    0.8880   12.0690   18.0340 H   0  0  0  0  0  0  0  0  0  0  0  0
   -0.4250   12.1260   19.2320 H   0  0  0  0  0  0  0  0  0  0  0  0
   -0.4150   10.3420   17.9880 C   0  0  2  0  0  0  0  0  0  0  0  0
   -1.8800    9.9350   18.2620 C   0  0  0  0  0  0  0  0  0  0  0  0
   -1.9860    9.7580   19.3230 H   0  0  0  0  0  0  0  0  0  0  0  0
   -2.0850    8.9960   17.7560 H   0  0  0  0  0  0  0  0  0  0  0  0
   -2.9970   10.8910   17.8950 C   0  0  0  0  0  0  0  0  0  0  0  0
   -3.6810   11.6180   18.7210 N   0  0  0  0  0  0  0  0  0  0  0  0
   -4.6380   12.2850   17.9970 N   0  0  0  0  0  0  0  0  0  0  0  0
   -4.4850   11.9300   16.7660 C   0  0  0  0  0  0  0  0  0  0  0  0
   -5.0390   12.2430   15.9210 H   0  0  0  0  0  0  0  0  0  0  0  0
   -3.4750   11.0710   16.6610 N   0  0  0  0  0  0  0  0  0  0  0  0
   -3.0070   10.4800   15.4140 C   0  0  0  0  0  0  0  0  0  0  0  0
   -3.8040   10.3940   14.6880 H   0  0  0  0  0  0  0  0  0  0  0  0
   -2.6040    9.4880   15.5550 H   0  0  0  0  0  0  0  0  0  0  0  0
   -2.2320   11.0810   14.9630 H   0  0  0  0  0  0  0  0  0  0  0  0
    0.5500    9.4920   18.8180 C   0  0  0  0  0  0  0  0  0  0  0  0
    0.4360    9.5420   20.1920 C   0  0  0  0  0  0  0  0  0  0  0  0
   -0.2330   10.2300   20.6340 H   0  0  0  0  0  0  0  0  0  0  0  0
    1.1880    8.6720   20.9880 C   0  0  0  0  0  0  0  0  0  0  0  0
    1.0520    8.7230   22.3700 N   0  0  0  0  0  0  0  0  0  0  0  0
   -0.2580    9.1290   22.9740 C   0  0  0  0  0  0  0  0  0  0  0  0
   -1.1080    9.1560   22.3080 H   0  0  0  0  0  0  0  0  0  0  0  0
   -0.5350    8.5380   23.8240 H   0  0  0  0  0  0  0  0  0  0  0  0
    0.3170   10.4880   23.3800 C   0  0  0  0  0  0  0  0  0  0  0  0
    0.0290   11.3090   22.7380 H   0  0  0  0  0  0  0  0  0  0  0  0
    0.1470   10.7610   24.4050 H   0  0  0  0  0  0  0  0  0  0  0  0
    1.6910    9.8760   23.0520 C   0  0  0  0  0  0  0  0  0  0  0  0
    2.2670    9.5890   23.9200 H   0  0  0  0  0  0  0  0  0  0  0  0
    2.3170   10.4970   22.4280 H   0  0  0  0  0  0  0  0  0  0  0  0
    2.0490    7.7790   20.4810 N   0  0  0  0  0  0  0  0  0  0  0  0
    2.2200    7.7270   19.1500 C   0  0  0  0  0  0  0  0  0  0  0  0
    3.1580    6.7420   18.6410 N   0  0  0  0  0  0  0  0  0  0  0  0
    3.6670    6.5890   17.2600 C   0  0  0  0  0  0  0  0  0  0  0  0
    2.9870    5.9870   16.6890 H   0  0  0  0  0  0  0  0  0  0  0  0
    3.8210    7.5270   16.7630 H   0  0  0  0  0  0  0  0  0  0  0  0
    4.9420    5.8070   17.3780 C   0  0  0  0  0  0  0  0  0  0  0  0
    5.0370    5.4020   18.6890 C   0  0  0  0  0  0  0  0  0  0  0  0
    6.1700    4.7250   19.1300 C   0  0  0  0  0  0  0  0  0  0  0  0
    6.2630    4.4490   20.1420 H   0  0  0  0  0  0  0  0  0  0  0  0
    7.1800    4.4260   18.2190 C   0  0  0  0  0  0  0  0  0  0  0  0
    8.0560    3.9260   18.5420 H   0  0  0  0  0  0  0  0  0  0  0  0
    7.0400    4.7680   16.8750 C   0  0  0  0  0  0  0  0  0  0  0  0
    7.8050    4.4960   16.1950 H   0  0  0  0  0  0  0  0  0  0  0  0
    5.9050    5.4560   16.4320 C   0  0  0  0  0  0  0  0  0  0  0  0
    5.7030    5.7670   14.9580 C   0  0  0  0  0  0  0  0  0  0  0  0
    4.7430    5.0080   14.4280 F   0  0  0  0  0  0  0  0  0  0  0  0
    5.3370    7.0410   14.7600 F   0  0  0  0  0  0  0  0  0  0  0  0
    6.7960    5.5520   14.2090 F   0  0  0  0  0  0  0  0  0  0  0  0
    3.8430    5.8020   19.4040 C   0  0  0  0  0  0  0  0  0  0  0  0
    3.3920    5.3170   20.4280 O   0  0  0  0  0  0  0  0  0  0  0  0
    1.5080    8.6100   18.3130 C   0  0  0  0  0  0  0  0  0  0  0  0
    1.7510    8.6270   17.0190 F   0  0  0  0  0  0  0  0  0  0  0  0
   -0.2340   10.0870   16.9570 H   0  0  0  0  0  0  0  0  0  0  0  0
  1  2  1  0  0  0  0
  1  3  1  0  0  0  0
  1  4  1  0  0  0  0
  1  5  1  0  0  0  0
  5  6  1  0  0  0  0
  5 19  1  0  0  0  0
  5 56  1  0  0  0  0
  6  7  1  0  0  0  0
  6  8  1  0  0  0  0
  6  9  1  0  0  0  0
  9 10  2  0  0  0  0
  9 14  1  0  0  0  0
 10 11  1  0  0  0  0
 11 12  2  0  0  0  0
 12 13  1  0  0  0  0
 12 14  1  0  0  0  0
 14 15  1  0  0  0  0
 15 16  1  0  0  0  0
 15 17  1  0  0  0  0
 15 18  1  0  0  0  0
 19 20  2  0  0  0  0
 19 54  1  0  0  0  0
 20 21  1  0  0  0  0
 20 22  1  0  0  0  0
 22 23  1  0  0  0  0
 22 33  2  0  0  0  0
 23 24  1  0  0  0  0
 23 30  1  0  0  0  0
 24 25  1  0  0  0  0
 24 26  1  0  0  0  0
 24 27  1  0  0  0  0
 27 28  1  0  0  0  0
 27 29  1  0  0  0  0
 27 30  1  0  0  0  0
 30 31  1  0  0  0  0
 30 32  1  0  0  0  0
 33 34  1  0  0  0  0
 34 35  1  0  0  0  0
 34 54  2  0  0  0  0
 35 36  1  0  0  0  0
 35 52  1  0  0  0  0
 36 37  1  0  0  0  0
 36 38  1  0  0  0  0
 36 39  1  0  0  0  0
 39 40  1  0  0  0  0
 39 47  2  0  0  0  0
 40 41  2  0  0  0  0
 40 52  1  0  0  0  0
 41 42  1  0  0  0  0
 41 43  1  0  0  0  0
 43 44  1  0  0  0  0
 43 45  2  0  0  0  0
 45 46  1  0  0  0  0
 45 47  1  0  0  0  0
 47 48  1  0  0  0  0
 48 49  1  0  0  0  0
 48 50  1  0  0  0  0
 48 51  1  0  0  0  0
 52 53  2  0  0  0  0
 54 55  1  0  0  0  0
M  END
>  <receptor>
S(=O)(=O)([O-])[O-].S(CCC(NC(=O)C(NC(=O)C(NC(=O)CNC(=O)C(NC(=O)C1N(C(=O)C(NC(=O)C(NC(=O)C(NC(=O)C(NC(=O)C(NC(=O)C(NC(=O)C(NC(=O)C(NC(=O)C(NC(=O)C(NC(=O)C(NC(=O)C(NC(=O)C(NC(=O)C(NC(=O)C(NC(=O)C(NC(=O)C(NC(=O)C(NC(=O)C(NC(=O)CNC(=O)C(NC(=O)C(NC(=O)C(NC(=O)C(NC(=O)C(NC(=O)C(NC(=O)C(NC(=O)C(NC(=O)C(NC(=O)C(NC(=O)C(NC(=O)C(NC(=O)C(NC(=O)C)CCCC[NH3+])C(C)C)C(O)C)CCC(=O)N)CCC(=O)[O-])CCC(=O)N)Cc2ccccc2)CCC(=O)[O-])CC(C)C)Cc2ccc(O)cc2)CS)CCC(=O)[O-])CCSC)CO)C(O)C)Cc2ccccc2)CCC(=O)N)CC(C)C)C[S-])CCCC[NH3+])C(CC)C)C[S-])C)CCC(=O)[O-])CC(=O)N)CC(=O)[O-])CCCC[NH3+])CC(=O)[O-])C(C)C)CCCC[NH3+])C(CC)C)CCC(=O)[O-])CCC1)C[S-])Cc1nc[n-]c1)CC(C)C)C(=O)NC(C(=O)NC(C(=O)NC(C(=O)NC(C(=O)NC(C(=O)NC(C(=O)NC(C(=O)NC(C(=O)NC(C(=O)NC(C(=O)NC(C(=O)NC(C(=O)NCC(=O)NC(C(=O)NCC(=O)NC(C(=O)N1C(C(=O)NC(C(=O)NC(C(=O)NC(C(=O)NC(C(=O)NC(C(=O)NC(C(=O)NC(C(=O)NCC(=O)NC(C(=O)NC(C(=O)N2C(C(=O)NC(C(=O)NC(C(=O)NC(C(=O)NC(C(=O)N3C(C(=O)NC(C(=O)NC(C(=O)[O-])CC(=O)[O-])Cc4ccccc4)CCC3)CC(=O)[O-])C(C)C)C(CC)C)C(CC)C)CCC2)CCC(=O)[O-])C(O)C)CCCC[NH3+])C(CC)C)CCC(=O)[O-])CS)CCCNC(=[NH2+])N)C[S-])Cc2ccccc2)CCC1)C[S-])CCC(=O)N)CC(=O)[O-])CO)CCC(=O)[O-])CCC(=O)N)Cc1c2c([nH]c1)cccc2)C)C(O)C)CC(C)C)C[S-])CO)C(O)C)C[S-])C.S(CCC(NC(=O)C(NC(=O)C(NC(=O)C(NC(=O)C(NC(=O)C(NC(=O)C(NC(=O)C(NC(=O)C(NC(=O)C(NC(=O)C(NC(=O)C(NC(=O)C(NC(=O)C(NC(=O)C(NC(=O)C(NC(=O)C[NH3+])CCC(=O)N)C)C)C)CC(=O)[O-])CCCNC(=[NH2+])N)CCCNC(=[NH2+])N)C(O)C)C(C)C)CCC(=O)[O-])CCCC[NH3+])C(O)C)Cc1c2c([nH]c1)cccc2)C)CC(C)C)C(=O)NC(C(=O)NC(C(=O)NC(C(=O)NC(C(=O)NC(C(=O)NC(C(=O)NC(C(=O)NC(C(=O)NC(C(=O)N1C(C(=O)NC(C(=O)NC(C(=O)NC(C(=O)NC(C(=O)NC(C(=O)NC(C(=O)NC(C(=O)N2C(C(=O)N3C(C(=O)NC(C(=O)NC(C(=O)NC(C(=O)NC(C(=O)NC(C(=O)NC(C(=O)N4C(C(=O)NC(C(=O)NC(C(=O)NC(C(=O)NC(C(=O)NC(C(=O)NC(C(=O)NC(C(=O)NC(C(=O)NC(C(=O)NC(C(=O)NC(C(=O)NC(C(=O)NC(C(=O)NC(C(=O)NC(C(=O)NC(C(=O)NC(C(=O)NC(C(=O)NC(C(=O)NC(C(=O)NC(C(=O)NC(C(=O)NC(C(=O)NC(C(=O)NC(C(=O)NC(C(=O)NC(C(=O)NC(C(=O)NC(C(=O)NC(C(=O)NC(C(=O)NC(C(=O)NC(C(=O)NC(C(=O)NC(C(=O)NC(C(=O)NC(C(=O)NC(C(=O)NC(C(=O)NC(C(=O)NC(C(=O)NC(C(=O)NC(C(=O)NC(C(=O)NC(C(=O)NC(C(=O)NC(C(=O)NC(C(=O)NCC(=O)NC(C(=O)NC(C(=O)NC(C(=O)NC(C(=O)NC(C(=O)NC(C(=O)NC(C(=O)NC(C(=O)NC(C(=O)NC(C(=O)NC(C(=O)NC(C(=O)NC(C(=O)NC(C(=O)NC(C(=O)NC(C(=O)NC(C(=O)NC(C(=O)NC(C(=O)NC(C(=O)NC(C(=O)NC(C(=O)NC(C(=O)NC(C(=O)NC(C(=O)NC(C(=O)NC(C(=O)NC(C(=O)NC(C(=O)NC(C(=O)NC(C(=O)NC(C(=O)NC(C(=O)N5C(C(=O)NC(C(=O)NCC(=O)NC(C(=O)NC(C(=O)NC(C(=O)NCC(=O)NC(C(=O)NC(C(=O)NC(C(=O)NC(C(=O)NC(C(=O)NC(C(=O)NC(C(=O)NC(C(=O)NC(C(=O)NC(C(=O)NC(C(=O)NC(C(=O)NC(C(=O)NC(C(=O)NC(C(=O)NC(C(=O)NC(C(=O)NC(C(=O)NCC(=O)NC(C(=O)NC(C(=O)NC(C(=O)NC(C(=O)NC(C(=O)N6C(C(=O)NC(C(=O)NC(C(=O)NC(C(=O)NC(C(=O)NC(C(=O)NC(C(=O)NC(C(=O)NC(C(=O)NC(C(=O)NC(C(=O)NC(C(=O)NC(C(=O)NC(C(=O)NC(C(=O)NC(C(=O)NC(C(=O)NCC(=O)NC(C(=O)NC(C(=O)NC(C(=O)NC(C(=O)NC(C(=O)NC(C(=O)NC(C(=O)NC(C(=O)NC(C(=O)NC(C(=O)NC(C(=O)NC(C(=O)NC(C(=O)NC(C(=O)NC(C(=O)NC(C(=O)NC(C(=O)NC(C(=O)NC(C(=O)NC(C(=O)NC(C(=O)NC(C(=O)NC(C(=O)NC(C(=O)NC(C(=O)NC(C(=O)NC(C(=O)NC(C(=O)NC(C(=O)NC(C(=O)NC(C(=O)N7C(C(=O)NC(C(=O)NCC(=O)NC(C(=O)NC(C(=O)NC(C(=O)NC(C(=O)NC(C(=O)NC(C(=O)NC(C(=O)NC(C(=O)NC(C(=O)NC(C(=O)NC(C(=O)NC(C(=O)NC(C(=O)N8C(C(=O)NCC(=O)NC(C(=O)NC(C(=O)NC(C(=O)NC(C(=O)NC(C(=O)NC(C(=O)NC(C(=O)NC(C(=O)NC(C(=O)NC(C(=O)NC(C(=O)NC(C(=O)NC(C(=O)NC(C(=O)NC(C(=O)NC(C(=O)NC(C(=O)NC(C(=O)NC(C(=O)NC(C(=O)N9C(C(=O)NCC(=O)NC(C(=O)NC(C(=O)NC(C(=O)NC(C(=O)NC(C(=O)NC(C(=O)NC(C(=O)NC(C(=O)NC(C(=O)NC(C(=O)NC(C(=O)NCC(=O)NC(C(=O)NC(C(=O)NC(C(=O)NC(C(=O)NCC(=O)NC(C(=O)NC(C(=O)NC(C(=O)NCC(=O)NC(C(=O)NCC(=O)NC(C(=O)NC(C(=O)NC(C(=O)NC(C(=O)NC(C(=O)NC(C(=O)N%10C(C(=O)NC(C(=O)NC(C(=O)NC(C(=O)N%11C(C(=O)NC(C(=O)NC(C(=O)NC(C(=O)NC(C(=O)NC(C(=O)NC(C(=O)NC(C(=O)NCC(=O)NC(C(=O)NC(C(=O)NC(C(=O)NCC(=O)NC(C(=O)NC(C(=O)NC(C(=O)NC(C(=O)N%12C(C(=O)NC(C(=O)NCC(=O)NC(C(=O)NC(C(=O)NC(C(=O)NC(C(=O)NC)CC(=O)N)Cc%13ccc(O)cc%13)CO)CCCNC(=[NH2+])N)CC(=O)[O-])CCC%12)Cc%12ccc(O)cc%12)CC(C)C)Cc%12ccc(O)cc%12)Cc%12ccccc%12)CCC(=O)[O-])C)CO)CC(=O)[O-])C(CC)C)CC(C)C)C)CCC(=O)N)Cc%12ccccc%12)CC(C)C)CCC%11)CCCC[NH3+])CC(=O)N)Cc%11[nH]cnc%11)CCC%10)C(CC)C)C(O)C)CCC(=O)N)CC(C)C)C(CC)C)CC(=O)N)CC(=O)[O-])C(O)C)C(C)C)Cc%10ccc(O)cc%10)C(CC)C)C)Cc%10c%11c([nH]c%10)cccc%11)CCC(=O)N)CC(C)C)CCCNC(=[NH2+])N)C(O)C)CS)CO)CC(C)C)CCCNC(=[NH2+])N)Cc%10ccccc%10)C(CC)C)Cc%10ccc(O)cc%10)CO)CCC9)CCCC[NH3+])C(O)C)CO)Cc9ccc(O)cc9)CCCC[NH3+])CCC(=O)N)CC(C)C)CCCNC(=[NH2+])N)C)CCCC[NH3+])C(C)C)CCC(=O)[O-])CC(=O)[O-])Cc9ccc(O)cc9)C(O)C)CC(C)C)Cc9ccccc9)C)CCSC)Cc9ccc(O)cc9)CCC8)Cc8nc[nH]c8)C(O)C)C(C)C)C)CC(C)C)Cc8ccccc8)CC(=O)N)Cc8c9c([nH]c8)cccc9)CC(=O)N)CCCNC(=[NH2+])N)CC(C)C)C(CC)C)CO)Cc8c9c([nH]c8)cccc9)CCC7)CCC(=O)N)Cc7ccccc7)CC(C)C)CCCNC(=[NH2+])N)C(O)C)Cc7ccccc7)C(CC)C)CC(=O)[O-])Cc7ccccc7)CCC(=O)[O-])Cc7ccccc7)C(C)C)CO)C(CC)C)Cc7ccc(O)cc7)CC(=O)[O-])CC(=O)N)CS)C(O)C)CC(C)C)CC(=O)[O-])C(CC)C)C(O)C)CO)CCCC[NH3+])CC(C)C)C)CCSC)C)CCC(=O)[O-])CC(C)C)CO)CO)C(CC)C)CCC(=O)N)Cc7nc[nH]c7)C(C)C)CCC(=O)[O-])Cc7nc[nH]c7)CC(C)C)CS)CCC(=O)N)CCCNC(=[NH2+])N)Cc7ccccc7)C(C)C)CCCC[NH3+])Cc7c8c([nH]c7)cccc8)CCC6)C(C)C)C(CC)C)C(O)C)CCCC[NH3+])CC(=O)[O-])Cc6ccccc6)Cc6ccccc6)CCCC[NH3+])CCCNC(=[NH2+])N)Cc6c7c([nH]c6)cccc7)Cc6ccccc6)CCC(=O)[O-])C)C)CC(=O)[O-])C)CCCC[NH3+])C(O)C)C(CC)C)CCCNC(=[NH2+])N)Cc6ccccc6)CC(=O)N)CC(=O)[O-])CCC(=O)N)Cc6ccccc6)CCC(=O)N)CC(=O)N)CCC5)Cc5ccccc5)C(CC)C)C)CCCC[NH3+])C(CC)C)CCC(=O)[O-])C)CC(C)C)CCSC)Cc5nc[nH]c5)CO)Cc5ccccc5)C(CC)C)CC(C)C)CO)CC(C)C)CCCC[NH3+])C(O)C)CC(C)C)CC(=O)N)CCCNC(=[NH2+])N)CCCNC(=[NH2+])N)CC(=O)[O-])CCC(=O)N)CO)CCC(=O)N)CCC(=O)[O-])CCC(=O)[O-])Cc5ccc(O)cc5)CCSC)CCCNC(=[NH2+])N)CCC(=O)[O-])CCCC[NH3+])CCC(=O)[O-])CCCC[NH3+])Cc5ccccc5)CC(C)C)CCCNC(=[NH2+])N)C(CC)C)C)CCCNC(=[NH2+])N)CCCC[NH3+])CO)CCCC[NH3+])CCCC[NH3+])CCSC)CC(C)C)CO)CC(=O)[O-])C(CC)C)Cc5ccc(O)cc5)C(CC)C)CCCC[NH3+])Cc5ccccc5)Cc5ccc(O)cc5)CCC(=O)[O-])CC(=O)N)CCC(=O)[O-])CO)CC(C)C)CCC(=O)N)C)CC(C)C)CCCC[NH3+])CCC(=O)N)CC(=O)N)CC(=O)[O-])CC(=O)[O-])Cc5ccc(O)cc5)CCCC[NH3+])CO)CC(C)C)C(CC)C)CC(C)C)CCCNC(=[NH2+])N)CC(C)C)Cc5nc[nH]c5)CCC(=O)N)Cc5ccc(O)cc5)C(O)C)CC(=O)[O-])CCC4)CC(C)C)C(CC)C)CC(=O)[O-])CC(C)C)C(CC)C)Cc4ccc(O)cc4)CCC3)CCC2)CO)CC(=O)N)CCCC[NH3+])CC(C)C)CCC(=O)N)CC(C)C)CCCC[NH3+])CCC1)CC(=O)N)CCC(=O)N)CS)CC(C)C)CCCNC(=[NH2+])N)C(C)C)C(C)C)C)CC(=O)[O-])C.OCCO.[UH+3].[Zn+2].[Zn+2].O.O.O.O.O.O.O.O.O.O.O.O.O.O.O.O.O.O.O.O.O.O.O.O.O.O.O.O.O.O.O.O.O.O.O.O.O.O.O.O.O.O.O.O.O.O.O.O.O.O.O.O.O.O.O.O.O.O.O.O.O.O.O.O.O.O.O.O.O.O.O.O.O.O.O.O.O.O.O.O.O.O.O.O.O.O.O.O.O.O.O.O.O.O.O.O.O.O.O.O.O.O.O.O.O.O.O.O.O.O.O.O.O.O.O.O.O.O.O.O.O.O.O.O.O.O.O.O.O.O.O.O.O.O.O.O.O.O.O.O.O.O

>  <rseq>
1

>  <mseq>
31

>  <S>
-8.213872

>  <rmsd_refine>
0.92528892

>  <E_conf>
34.335602

>  <E_place>
-104.43235

>  <E_score1>
-10.864043

>  <E_refine>
-35.360451

>  <E_score2>
-8.213872

>  <Field_2>
KH01

>  <pseq>
31

>  <%C>
99.947372

>  <a_heavy>
34

>  <h_logP>
3.7955127

>  <Weight>
474.46198

>  <E_orig>
0.80000001

>  <PLIF_raw>
[53,5191,367,4,0.8]

>  <FP:PLIF>
34

>  <PLIF_ligidx>
53

$$$$

  MOE2020           3D

 58 60  0  0  1  0  0  0  0  0999 V2000
   -0.8850   13.8830   18.7080 C   0  0  0  0  0  0  0  0  0  0  0  0
    0.1270   13.9720   19.1050 H   0  0  0  0  0  0  0  0  0  0  0  0
   -1.6050   14.1810   19.4700 H   0  0  0  0  0  0  0  0  0  0  0  0
   -0.9640   14.5490   17.8510 H   0  0  0  0  0  0  0  0  0  0  0  0
   -1.1400   12.4390   18.2540 C   0  0  2  0  0  0  0  0  0  0  0  0
   -2.6150   12.1280   17.9380 C   0  0  0  0  0  0  0  0  0  0  0  0
   -3.1390   13.0370   17.6900 H   0  0  0  0  0  0  0  0  0  0  0  0
   -3.1070   11.7280   18.8240 H   0  0  0  0  0  0  0  0  0  0  0  0
   -2.7900   11.2050   16.7470 C   0  0  0  0  0  0  0  0  0  0  0  0
   -2.6360   11.4880   15.4940 N   0  0  0  0  0  0  0  0  0  0  0  0
   -2.8920   10.3550   14.7640 N   0  0  0  0  0  0  0  0  0  0  0  0
   -3.1960    9.4420   15.6200 C   0  0  0  0  0  0  0  0  0  0  0  0
   -3.4640    8.4370   15.4540 H   0  0  0  0  0  0  0  0  0  0  0  0
   -3.1450    9.9310   16.8470 N   0  0  0  0  0  0  0  0  0  0  0  0
   -3.4650    9.1980   18.0440 C   0  0  0  0  0  0  0  0  0  0  0  0
   -4.2790    9.6750   18.5690 H   0  0  0  0  0  0  0  0  0  0  0  0
   -3.7820    8.1900   17.8300 H   0  0  0  0  0  0  0  0  0  0  0  0
   -2.6150    9.1460   18.7080 H   0  0  0  0  0  0  0  0  0  0  0  0
   -0.5780   11.4570   19.2620 C   0  0  0  0  0  0  0  0  0  0  0  0
    0.2730   10.4460   18.8400 C   0  0  0  0  0  0  0  0  0  0  0  0
    0.5050   10.3390   17.8110 H   0  0  0  0  0  0  0  0  0  0  0  0
    0.8360    9.5830   19.7750 C   0  0  0  0  0  0  0  0  0  0  0  0
    1.7310    8.6290   19.2550 N   0  0  0  0  0  0  0  0  0  0  0  0
    2.1390    8.8570   18.3350 H   0  0  0  0  0  0  0  0  0  0  0  0
    2.1130    7.4030   19.7680 C   0  0  0  0  0  0  0  0  0  0  0  0
    1.6160    6.9840   20.8070 O   0  0  0  0  0  0  0  0  0  0  0  0
    3.1000    6.6640   18.9820 C   0  0  0  0  0  0  0  0  0  0  0  0
    3.6470    5.4630   19.4400 C   0  0  0  0  0  0  0  0  0  0  0  0
    3.3280    5.0480   20.3610 H   0  0  0  0  0  0  0  0  0  0  0  0
    4.6140    4.8160   18.6880 C   0  0  0  0  0  0  0  0  0  0  0  0
    5.0270    3.9050   19.0360 H   0  0  0  0  0  0  0  0  0  0  0  0
    5.0220    5.3810   17.4790 C   0  0  0  0  0  0  0  0  0  0  0  0
    6.0900    4.6960   16.6180 C   0  0  0  0  0  0  0  0  0  0  0  0
    6.6060    5.5860   15.4720 C   0  0  0  0  0  0  0  0  0  0  0  0
    7.4060    5.0810   14.9300 H   0  0  0  0  0  0  0  0  0  0  0  0
    5.8090    5.8040   14.7600 H   0  0  0  0  0  0  0  0  0  0  0  0
    6.9950    6.5140   15.8890 H   0  0  0  0  0  0  0  0  0  0  0  0
    5.4540    3.4500   15.9900 C   0  0  0  0  0  0  0  0  0  0  0  0
    6.1570    2.9460   15.3320 H   0  0  0  0  0  0  0  0  0  0  0  0
    4.5870    3.7430   15.3990 H   0  0  0  0  0  0  0  0  0  0  0  0
    5.1220    2.7630   16.7660 H   0  0  0  0  0  0  0  0  0  0  0  0
    7.3230    4.3710   17.4820 C   0  0  0  0  0  0  0  0  0  0  0  0
    7.6710    5.2730   17.9890 H   0  0  0  0  0  0  0  0  0  0  0  0
    7.0730    3.6260   18.2280 H   0  0  0  0  0  0  0  0  0  0  0  0
    8.1360    3.9850   16.8700 H   0  0  0  0  0  0  0  0  0  0  0  0
    4.4050    6.5640   17.0690 C   0  0  0  0  0  0  0  0  0  0  0  0
    4.6530    7.0170   16.1460 H   0  0  0  0  0  0  0  0  0  0  0  0
    3.4870    7.1750   17.7980 N   0  0  0  0  0  0  0  0  0  0  0  0
    0.5590    9.7180   21.1380 C   0  0  0  0  0  0  0  0  0  0  0  0
    1.0210    9.0790   21.8430 H   0  0  0  0  0  0  0  0  0  0  0  0
   -0.3040   10.7280   21.5630 C   0  0  0  0  0  0  0  0  0  0  0  0
   -0.5980   10.9690   23.0310 C   0  0  0  0  0  0  0  0  0  0  0  0
   -1.8960   10.8810   23.3150 F   0  0  0  0  0  0  0  0  0  0  0  0
    0.0360   10.1170   23.8570 F   0  0  0  0  0  0  0  0  0  0  0  0
   -0.2270   12.1990   23.3980 F   0  0  0  0  0  0  0  0  0  0  0  0
   -0.8790   11.5800   20.6190 C   0  0  0  0  0  0  0  0  0  0  0  0
   -1.5380   12.3460   20.9410 H   0  0  0  0  0  0  0  0  0  0  0  0
   -0.5670   12.3190   17.3380 H   0  0  0  0  0  0  0  0  0  0  0  0
  1  2  1  0  0  0  0
  1  3  1  0  0  0  0
  1  4  1  0  0  0  0
  1  5  1  0  0  0  0
  5  6  1  0  0  0  0
  5 19  1  0  0  0  0
  5 58  1  0  0  0  0
  6  7  1  0  0  0  0
  6  8  1  0  0  0  0
  6  9  1  0  0  0  0
  9 10  2  0  0  0  0
  9 14  1  0  0  0  0
 10 11  1  0  0  0  0
 11 12  2  0  0  0  0
 12 13  1  0  0  0  0
 12 14  1  0  0  0  0
 14 15  1  0  0  0  0
 15 16  1  0  0  0  0
 15 17  1  0  0  0  0
 15 18  1  0  0  0  0
 19 20  1  0  0  0  0
 19 56  2  0  0  0  0
 20 21  1  0  0  0  0
 20 22  2  0  0  0  0
 22 23  1  0  0  0  0
 22 49  1  0  0  0  0
 23 24  1  0  0  0  0
 23 25  1  0  0  0  0
 25 26  2  0  0  0  0
 25 27  1  0  0  0  0
 27 28  1  0  0  0  0
 27 48  2  0  0  0  0
 28 29  1  0  0  0  0
 28 30  2  0  0  0  0
 30 31  1  0  0  0  0
 30 32  1  0  0  0  0
 32 33  1  0  0  0  0
 32 46  2  0  0  0  0
 33 34  1  0  0  0  0
 33 38  1  0  0  0  0
 33 42  1  0  0  0  0
 34 35  1  0  0  0  0
 34 36  1  0  0  0  0
 34 37  1  0  0  0  0
 38 39  1  0  0  0  0
 38 40  1  0  0  0  0
 38 41  1  0  0  0  0
 42 43  1  0  0  0  0
 42 44  1  0  0  0  0
 42 45  1  0  0  0  0
 46 47  1  0  0  0  0
 46 48  1  0  0  0  0
 49 50  1  0  0  0  0
 49 51  2  0  0  0  0
 51 52  1  0  0  0  0
 51 56  1  0  0  0  0
 52 53  1  0  0  0  0
 52 54  1  0  0  0  0
 52 55  1  0  0  0  0
 56 57  1  0  0  0  0
M  END
>  <receptor>
S(=O)(=O)([O-])[O-].S(CCC(NC(=O)C(NC(=O)C(NC(=O)CNC(=O)C(NC(=O)C1N(C(=O)C(NC(=O)C(NC(=O)C(NC(=O)C(NC(=O)C(NC(=O)C(NC(=O)C(NC(=O)C(NC(=O)C(NC(=O)C(NC(=O)C(NC(=O)C(NC(=O)C(NC(=O)C(NC(=O)C(NC(=O)C(NC(=O)C(NC(=O)C(NC(=O)C(NC(=O)CNC(=O)C(NC(=O)C(NC(=O)C(NC(=O)C(NC(=O)C(NC(=O)C(NC(=O)C(NC(=O)C(NC(=O)C(NC(=O)C(NC(=O)C(NC(=O)C(NC(=O)C(NC(=O)C)CCCC[NH3+])C(C)C)C(O)C)CCC(=O)N)CCC(=O)[O-])CCC(=O)N)Cc2ccccc2)CCC(=O)[O-])CC(C)C)Cc2ccc(O)cc2)CS)CCC(=O)[O-])CCSC)CO)C(O)C)Cc2ccccc2)CCC(=O)N)CC(C)C)C[S-])CCCC[NH3+])C(CC)C)C[S-])C)CCC(=O)[O-])CC(=O)N)CC(=O)[O-])CCCC[NH3+])CC(=O)[O-])C(C)C)CCCC[NH3+])C(CC)C)CCC(=O)[O-])CCC1)C[S-])Cc1nc[n-]c1)CC(C)C)C(=O)NC(C(=O)NC(C(=O)NC(C(=O)NC(C(=O)NC(C(=O)NC(C(=O)NC(C(=O)NC(C(=O)NC(C(=O)NC(C(=O)NC(C(=O)NC(C(=O)NCC(=O)NC(C(=O)NCC(=O)NC(C(=O)N1C(C(=O)NC(C(=O)NC(C(=O)NC(C(=O)NC(C(=O)NC(C(=O)NC(C(=O)NC(C(=O)NCC(=O)NC(C(=O)NC(C(=O)N2C(C(=O)NC(C(=O)NC(C(=O)NC(C(=O)NC(C(=O)N3C(C(=O)NC(C(=O)NC(C(=O)[O-])CC(=O)[O-])Cc4ccccc4)CCC3)CC(=O)[O-])C(C)C)C(CC)C)C(CC)C)CCC2)CCC(=O)[O-])C(O)C)CCCC[NH3+])C(CC)C)CCC(=O)[O-])CS)CCCNC(=[NH2+])N)C[S-])Cc2ccccc2)CCC1)C[S-])CCC(=O)N)CC(=O)[O-])CO)CCC(=O)[O-])CCC(=O)N)Cc1c2c([nH]c1)cccc2)C)C(O)C)CC(C)C)C[S-])CO)C(O)C)C[S-])C.S(CCC(NC(=O)C(NC(=O)C(NC(=O)C(NC(=O)C(NC(=O)C(NC(=O)C(NC(=O)C(NC(=O)C(NC(=O)C(NC(=O)C(NC(=O)C(NC(=O)C(NC(=O)C(NC(=O)C(NC(=O)C(NC(=O)C[NH3+])CCC(=O)N)C)C)C)CC(=O)[O-])CCCNC(=[NH2+])N)CCCNC(=[NH2+])N)C(O)C)C(C)C)CCC(=O)[O-])CCCC[NH3+])C(O)C)Cc1c2c([nH]c1)cccc2)C)CC(C)C)C(=O)NC(C(=O)NC(C(=O)NC(C(=O)NC(C(=O)NC(C(=O)NC(C(=O)NC(C(=O)NC(C(=O)NC(C(=O)N1C(C(=O)NC(C(=O)NC(C(=O)NC(C(=O)NC(C(=O)NC(C(=O)NC(C(=O)NC(C(=O)N2C(C(=O)N3C(C(=O)NC(C(=O)NC(C(=O)NC(C(=O)NC(C(=O)NC(C(=O)NC(C(=O)N4C(C(=O)NC(C(=O)NC(C(=O)NC(C(=O)NC(C(=O)NC(C(=O)NC(C(=O)NC(C(=O)NC(C(=O)NC(C(=O)NC(C(=O)NC(C(=O)NC(C(=O)NC(C(=O)NC(C(=O)NC(C(=O)NC(C(=O)NC(C(=O)NC(C(=O)NC(C(=O)NC(C(=O)NC(C(=O)NC(C(=O)NC(C(=O)NC(C(=O)NC(C(=O)NC(C(=O)NC(C(=O)NC(C(=O)NC(C(=O)NC(C(=O)NC(C(=O)NC(C(=O)NC(C(=O)NC(C(=O)NC(C(=O)NC(C(=O)NC(C(=O)NC(C(=O)NC(C(=O)NC(C(=O)NC(C(=O)NC(C(=O)NC(C(=O)NC(C(=O)NC(C(=O)NC(C(=O)NC(C(=O)NC(C(=O)NCC(=O)NC(C(=O)NC(C(=O)NC(C(=O)NC(C(=O)NC(C(=O)NC(C(=O)NC(C(=O)NC(C(=O)NC(C(=O)NC(C(=O)NC(C(=O)NC(C(=O)NC(C(=O)NC(C(=O)NC(C(=O)NC(C(=O)NC(C(=O)NC(C(=O)NC(C(=O)NC(C(=O)NC(C(=O)NC(C(=O)NC(C(=O)NC(C(=O)NC(C(=O)NC(C(=O)NC(C(=O)NC(C(=O)NC(C(=O)NC(C(=O)NC(C(=O)NC(C(=O)NC(C(=O)N5C(C(=O)NC(C(=O)NCC(=O)NC(C(=O)NC(C(=O)NC(C(=O)NCC(=O)NC(C(=O)NC(C(=O)NC(C(=O)NC(C(=O)NC(C(=O)NC(C(=O)NC(C(=O)NC(C(=O)NC(C(=O)NC(C(=O)NC(C(=O)NC(C(=O)NC(C(=O)NC(C(=O)NC(C(=O)NC(C(=O)NC(C(=O)NC(C(=O)NCC(=O)NC(C(=O)NC(C(=O)NC(C(=O)NC(C(=O)NC(C(=O)N6C(C(=O)NC(C(=O)NC(C(=O)NC(C(=O)NC(C(=O)NC(C(=O)NC(C(=O)NC(C(=O)NC(C(=O)NC(C(=O)NC(C(=O)NC(C(=O)NC(C(=O)NC(C(=O)NC(C(=O)NC(C(=O)NC(C(=O)NCC(=O)NC(C(=O)NC(C(=O)NC(C(=O)NC(C(=O)NC(C(=O)NC(C(=O)NC(C(=O)NC(C(=O)NC(C(=O)NC(C(=O)NC(C(=O)NC(C(=O)NC(C(=O)NC(C(=O)NC(C(=O)NC(C(=O)NC(C(=O)NC(C(=O)NC(C(=O)NC(C(=O)NC(C(=O)NC(C(=O)NC(C(=O)NC(C(=O)NC(C(=O)NC(C(=O)NC(C(=O)NC(C(=O)NC(C(=O)NC(C(=O)NC(C(=O)N7C(C(=O)NC(C(=O)NCC(=O)NC(C(=O)NC(C(=O)NC(C(=O)NC(C(=O)NC(C(=O)NC(C(=O)NC(C(=O)NC(C(=O)NC(C(=O)NC(C(=O)NC(C(=O)NC(C(=O)NC(C(=O)N8C(C(=O)NCC(=O)NC(C(=O)NC(C(=O)NC(C(=O)NC(C(=O)NC(C(=O)NC(C(=O)NC(C(=O)NC(C(=O)NC(C(=O)NC(C(=O)NC(C(=O)NC(C(=O)NC(C(=O)NC(C(=O)NC(C(=O)NC(C(=O)NC(C(=O)NC(C(=O)NC(C(=O)NC(C(=O)N9C(C(=O)NCC(=O)NC(C(=O)NC(C(=O)NC(C(=O)NC(C(=O)NC(C(=O)NC(C(=O)NC(C(=O)NC(C(=O)NC(C(=O)NC(C(=O)NC(C(=O)NCC(=O)NC(C(=O)NC(C(=O)NC(C(=O)NC(C(=O)NCC(=O)NC(C(=O)NC(C(=O)NC(C(=O)NCC(=O)NC(C(=O)NCC(=O)NC(C(=O)NC(C(=O)NC(C(=O)NC(C(=O)NC(C(=O)NC(C(=O)N%10C(C(=O)NC(C(=O)NC(C(=O)NC(C(=O)N%11C(C(=O)NC(C(=O)NC(C(=O)NC(C(=O)NC(C(=O)NC(C(=O)NC(C(=O)NC(C(=O)NCC(=O)NC(C(=O)NC(C(=O)NC(C(=O)NCC(=O)NC(C(=O)NC(C(=O)NC(C(=O)NC(C(=O)N%12C(C(=O)NC(C(=O)NCC(=O)NC(C(=O)NC(C(=O)NC(C(=O)NC(C(=O)NC)CC(=O)N)Cc%13ccc(O)cc%13)CO)CCCNC(=[NH2+])N)CC(=O)[O-])CCC%12)Cc%12ccc(O)cc%12)CC(C)C)Cc%12ccc(O)cc%12)Cc%12ccccc%12)CCC(=O)[O-])C)CO)CC(=O)[O-])C(CC)C)CC(C)C)C)CCC(=O)N)Cc%12ccccc%12)CC(C)C)CCC%11)CCCC[NH3+])CC(=O)N)Cc%11[nH]cnc%11)CCC%10)C(CC)C)C(O)C)CCC(=O)N)CC(C)C)C(CC)C)CC(=O)N)CC(=O)[O-])C(O)C)C(C)C)Cc%10ccc(O)cc%10)C(CC)C)C)Cc%10c%11c([nH]c%10)cccc%11)CCC(=O)N)CC(C)C)CCCNC(=[NH2+])N)C(O)C)CS)CO)CC(C)C)CCCNC(=[NH2+])N)Cc%10ccccc%10)C(CC)C)Cc%10ccc(O)cc%10)CO)CCC9)CCCC[NH3+])C(O)C)CO)Cc9ccc(O)cc9)CCCC[NH3+])CCC(=O)N)CC(C)C)CCCNC(=[NH2+])N)C)CCCC[NH3+])C(C)C)CCC(=O)[O-])CC(=O)[O-])Cc9ccc(O)cc9)C(O)C)CC(C)C)Cc9ccccc9)C)CCSC)Cc9ccc(O)cc9)CCC8)Cc8nc[nH]c8)C(O)C)C(C)C)C)CC(C)C)Cc8ccccc8)CC(=O)N)Cc8c9c([nH]c8)cccc9)CC(=O)N)CCCNC(=[NH2+])N)CC(C)C)C(CC)C)CO)Cc8c9c([nH]c8)cccc9)CCC7)CCC(=O)N)Cc7ccccc7)CC(C)C)CCCNC(=[NH2+])N)C(O)C)Cc7ccccc7)C(CC)C)CC(=O)[O-])Cc7ccccc7)CCC(=O)[O-])Cc7ccccc7)C(C)C)CO)C(CC)C)Cc7ccc(O)cc7)CC(=O)[O-])CC(=O)N)CS)C(O)C)CC(C)C)CC(=O)[O-])C(CC)C)C(O)C)CO)CCCC[NH3+])CC(C)C)C)CCSC)C)CCC(=O)[O-])CC(C)C)CO)CO)C(CC)C)CCC(=O)N)Cc7nc[nH]c7)C(C)C)CCC(=O)[O-])Cc7nc[nH]c7)CC(C)C)CS)CCC(=O)N)CCCNC(=[NH2+])N)Cc7ccccc7)C(C)C)CCCC[NH3+])Cc7c8c([nH]c7)cccc8)CCC6)C(C)C)C(CC)C)C(O)C)CCCC[NH3+])CC(=O)[O-])Cc6ccccc6)Cc6ccccc6)CCCC[NH3+])CCCNC(=[NH2+])N)Cc6c7c([nH]c6)cccc7)Cc6ccccc6)CCC(=O)[O-])C)C)CC(=O)[O-])C)CCCC[NH3+])C(O)C)C(CC)C)CCCNC(=[NH2+])N)Cc6ccccc6)CC(=O)N)CC(=O)[O-])CCC(=O)N)Cc6ccccc6)CCC(=O)N)CC(=O)N)CCC5)Cc5ccccc5)C(CC)C)C)CCCC[NH3+])C(CC)C)CCC(=O)[O-])C)CC(C)C)CCSC)Cc5nc[nH]c5)CO)Cc5ccccc5)C(CC)C)CC(C)C)CO)CC(C)C)CCCC[NH3+])C(O)C)CC(C)C)CC(=O)N)CCCNC(=[NH2+])N)CCCNC(=[NH2+])N)CC(=O)[O-])CCC(=O)N)CO)CCC(=O)N)CCC(=O)[O-])CCC(=O)[O-])Cc5ccc(O)cc5)CCSC)CCCNC(=[NH2+])N)CCC(=O)[O-])CCCC[NH3+])CCC(=O)[O-])CCCC[NH3+])Cc5ccccc5)CC(C)C)CCCNC(=[NH2+])N)C(CC)C)C)CCCNC(=[NH2+])N)CCCC[NH3+])CO)CCCC[NH3+])CCCC[NH3+])CCSC)CC(C)C)CO)CC(=O)[O-])C(CC)C)Cc5ccc(O)cc5)C(CC)C)CCCC[NH3+])Cc5ccccc5)Cc5ccc(O)cc5)CCC(=O)[O-])CC(=O)N)CCC(=O)[O-])CO)CC(C)C)CCC(=O)N)C)CC(C)C)CCCC[NH3+])CCC(=O)N)CC(=O)N)CC(=O)[O-])CC(=O)[O-])Cc5ccc(O)cc5)CCCC[NH3+])CO)CC(C)C)C(CC)C)CC(C)C)CCCNC(=[NH2+])N)CC(C)C)Cc5nc[nH]c5)CCC(=O)N)Cc5ccc(O)cc5)C(O)C)CC(=O)[O-])CCC4)CC(C)C)C(CC)C)CC(=O)[O-])CC(C)C)C(CC)C)Cc4ccc(O)cc4)CCC3)CCC2)CO)CC(=O)N)CCCC[NH3+])CC(C)C)CCC(=O)N)CC(C)C)CCCC[NH3+])CCC1)CC(=O)N)CCC(=O)N)CS)CC(C)C)CCCNC(=[NH2+])N)C(C)C)C(C)C)C)CC(=O)[O-])C.OCCO.[UH+3].[Zn+2].[Zn+2].O.O.O.O.O.O.O.O.O.O.O.O.O.O.O.O.O.O.O.O.O.O.O.O.O.O.O.O.O.O.O.O.O.O.O.O.O.O.O.O.O.O.O.O.O.O.O.O.O.O.O.O.O.O.O.O.O.O.O.O.O.O.O.O.O.O.O.O.O.O.O.O.O.O.O.O.O.O.O.O.O.O.O.O.O.O.O.O.O.O.O.O.O.O.O.O.O.O.O.O.O.O.O.O.O.O.O.O.O.O.O.O.O.O.O.O.O.O.O.O.O.O.O.O.O.O.O.O.O.O.O.O.O.O.O.O.O.O.O.O.O.O

>  <rseq>
1

>  <mseq>
32

>  <S>
-8.6137943

>  <rmsd_refine>
2.1780336

>  <E_conf>
21.668325

>  <E_place>
-89.059151

>  <E_score1>
-10.839342

>  <E_refine>
-38.120277

>  <E_score2>
-8.6137943

>  <Field_2>
KH02

>  <pseq>
32

>  <%C>
99.96389

>  <a_heavy>
32

>  <h_logP>
5.3301697

>  <Weight>
445.48898

>  <E_orig>
1.4737179

>  <PLIF_raw>
[[6,12,9,10,11,12,14,27,48,46,32,30,28],[3850,4205,3800,3800,3800,3800,3800,6345,6345,6345,6345,6345,6345],[268,289,265,265,265,265,265,220688,220688,220688,220688,220688,220688],[1,1,10,10,10,10,10,10,10,10,10,10,10],[0.5,0.6,0.6,0.6,0.6,0.6,0.6,0.6,0.6,0.6,0.6,0.6,0.6]]

>  <FP:PLIF>
35 10 36 37

>  <PLIF_ligidx>
[[9,10,11,12,14],6,12,[27,48,46,32,30,28]]

$$$$

  MOE2020           3D

 70 75  0  0  1  0  0  0  0  0999 V2000
   -0.4820    8.6840   22.9310 C   0  0  0  0  0  0  0  0  0  0  0  0
   -0.3810    8.5340   23.9990 H   0  0  0  0  0  0  0  0  0  0  0  0
   -0.8350    7.7850   22.4320 H   0  0  0  0  0  0  0  0  0  0  0  0
   -1.2100    9.4710   22.8000 H   0  0  0  0  0  0  0  0  0  0  0  0
    0.8950    9.0670   22.4060 C   0  0  2  0  0  0  0  0  0  0  0  0
    1.3970   10.3420   23.0950 C   0  0  0  0  0  0  0  0  0  0  0  0
    2.4830   10.2520   23.1190 H   0  0  0  0  0  0  0  0  0  0  0  0
    1.0500   10.3500   24.1280 H   0  0  0  0  0  0  0  0  0  0  0  0
    1.0840   11.6890   22.4410 C   0  0  0  0  0  0  0  0  0  0  0  0
    1.8970   12.3620   21.6890 N   0  0  0  0  0  0  0  0  0  0  0  0
    1.2660   13.5170   21.3030 N   0  0  0  0  0  0  0  0  0  0  0  0
    0.0940   13.4960   21.8410 C   0  0  0  0  0  0  0  0  0  0  0  0
   -0.6810   14.2150   21.7630 H   0  0  0  0  0  0  0  0  0  0  0  0
   -0.0550   12.3880   22.5610 N   0  0  0  0  0  0  0  0  0  0  0  0
   -1.2770   12.0730   23.2830 C   0  0  0  0  0  0  0  0  0  0  0  0
   -2.0590   11.7310   22.6200 H   0  0  0  0  0  0  0  0  0  0  0  0
   -1.1240   11.3020   24.0220 H   0  0  0  0  0  0  0  0  0  0  0  0
   -1.6690   12.9410   23.7940 H   0  0  0  0  0  0  0  0  0  0  0  0
    0.9950    9.1700   20.9010 C   0  0  0  0  0  0  0  0  0  0  0  0
    2.0280    8.5610   20.2020 C   0  0  0  0  0  0  0  0  0  0  0  0
    2.7080    7.9170   20.6940 H   0  0  0  0  0  0  0  0  0  0  0  0
    2.1770    8.8330   18.8360 C   0  0  0  0  0  0  0  0  0  0  0  0
    3.2080    8.2460   18.1020 N   0  0  0  0  0  0  0  0  0  0  0  0
    3.8990    8.8820   17.6810 H   0  0  0  0  0  0  0  0  0  0  0  0
    3.3180    6.8940   17.8290 C   0  0  0  0  0  0  0  0  0  0  0  0
    2.4380    6.1370   18.2180 O   0  0  0  0  0  0  0  0  0  0  0  0
    4.5240    6.4620   17.1250 C   0  0  0  0  0  0  0  0  0  0  0  0
    5.7480    6.9560   17.5690 C   0  0  0  0  0  0  0  0  0  0  0  0
    5.7770    7.5920   18.4060 H   0  0  0  0  0  0  0  0  0  0  0  0
    6.9200    6.5970   16.9400 C   0  0  0  0  0  0  0  0  0  0  0  0
    8.2640    7.0680   17.4050 C   0  0  0  0  0  0  0  0  0  0  0  0
    9.0080    7.0270   16.6360 H   0  0  0  0  0  0  0  0  0  0  0  0
    8.6220    6.7180   18.8180 C   0  0  0  0  0  0  0  0  0  0  0  0
    7.8520    6.2870   19.4430 H   0  0  0  0  0  0  0  0  0  0  0  0
    9.5950    6.3100   19.0130 H   0  0  0  0  0  0  0  0  0  0  0  0
    8.5070    8.1520   18.4130 C   0  0  0  0  0  0  0  0  0  0  0  0
    9.4230    8.7190   18.3480 H   0  0  0  0  0  0  0  0  0  0  0  0
    7.6670    8.7420   18.7300 H   0  0  0  0  0  0  0  0  0  0  0  0
    6.8440    5.7190   15.8790 C   0  0  0  0  0  0  0  0  0  0  0  0
    7.7350    5.4030   15.3970 H   0  0  0  0  0  0  0  0  0  0  0  0
    5.6110    5.2380   15.4550 C   0  0  0  0  0  0  0  0  0  0  0  0
    5.6200    4.2370   14.3080 C   0  0  0  0  0  0  0  0  0  0  0  0
    5.9470    3.0280   14.7470 F   0  0  0  0  0  0  0  0  0  0  0  0
    6.5250    4.5410   13.3620 F   0  0  0  0  0  0  0  0  0  0  0  0
    4.4630    4.1180   13.6760 F   0  0  0  0  0  0  0  0  0  0  0  0
    4.4750    5.6090   16.0750 N   0  0  0  0  0  0  0  0  0  0  0  0
    1.3790    9.6510   18.1490 N   0  0  0  0  0  0  0  0  0  0  0  0
    0.3210   10.1550   18.8000 C   0  0  0  0  0  0  0  0  0  0  0  0
   -0.6720   10.7930   18.0470 N   0  0  0  0  0  0  0  0  0  0  0  0
   -1.5690   11.9450   18.3860 C   0  0  0  0  0  0  0  0  0  0  0  0
   -1.8300   12.0190   19.4280 H   0  0  0  0  0  0  0  0  0  0  0  0
   -1.0960   12.8790   18.1130 H   0  0  0  0  0  0  0  0  0  0  0  0
   -2.8010   11.7150   17.5420 C   0  0  0  0  0  0  0  0  0  0  0  0
   -2.4800   10.6950   16.6740 C   0  0  0  0  0  0  0  0  0  0  0  0
   -3.2930   10.3110   15.6300 C   0  0  0  0  0  0  0  0  0  0  0  0
   -2.9890    9.5630   14.9440 H   0  0  0  0  0  0  0  0  0  0  0  0
   -4.5190   10.9170   15.5270 C   0  0  0  0  0  0  0  0  0  0  0  0
   -5.1290   10.6290   14.7170 H   0  0  0  0  0  0  0  0  0  0  0  0
   -4.9350   11.8570   16.4810 C   0  0  0  0  0  0  0  0  0  0  0  0
   -5.9070   12.2740   16.4090 H   0  0  0  0  0  0  0  0  0  0  0  0
   -4.0880   12.2560   17.5240 C   0  0  0  0  0  0  0  0  0  0  0  0
   -4.6330   13.1830   18.6100 C   0  0  0  0  0  0  0  0  0  0  0  0
   -5.4940   12.5260   19.4060 F   0  0  0  0  0  0  0  0  0  0  0  0
   -5.3170   14.2270   18.1120 F   0  0  0  0  0  0  0  0  0  0  0  0
   -3.6990   13.6890   19.4310 F   0  0  0  0  0  0  0  0  0  0  0  0
   -1.2850   10.0490   17.0740 C   0  0  0  0  0  0  0  0  0  0  0  0
   -0.9530    8.9260   16.7590 O   0  0  0  0  0  0  0  0  0  0  0  0
    0.1100    9.9240   20.1530 C   0  0  0  0  0  0  0  0  0  0  0  0
   -0.9950   10.3940   20.7120 F   0  0  0  0  0  0  0  0  0  0  0  0
    1.5680    8.2600   22.6940 H   0  0  0  0  0  0  0  0  0  0  0  0
  1  2  1  0  0  0  0
  1  3  1  0  0  0  0
  1  4  1  0  0  0  0
  1  5  1  0  0  0  0
  5  6  1  0  0  0  0
  5 19  1  0  0  0  0
  5 70  1  0  0  0  0
  6  7  1  0  0  0  0
  6  8  1  0  0  0  0
  6  9  1  0  0  0  0
  9 10  2  0  0  0  0
  9 14  1  0  0  0  0
 10 11  1  0  0  0  0
 11 12  2  0  0  0  0
 12 13  1  0  0  0  0
 12 14  1  0  0  0  0
 14 15  1  0  0  0  0
 15 16  1  0  0  0  0
 15 17  1  0  0  0  0
 15 18  1  0  0  0  0
 19 20  2  0  0  0  0
 19 68  1  0  0  0  0
 20 21  1  0  0  0  0
 20 22  1  0  0  0  0
 22 23  1  0  0  0  0
 22 47  2  0  0  0  0
 23 24  1  0  0  0  0
 23 25  1  0  0  0  0
 25 26  2  0  0  0  0
 25 27  1  0  0  0  0
 27 28  1  0  0  0  0
 27 46  2  0  0  0  0
 28 29  1  0  0  0  0
 28 30  2  0  0  0  0
 30 31  1  0  0  0  0
 30 39  1  0  0  0  0
 31 32  1  0  0  0  0
 31 33  1  0  0  0  0
 31 36  1  0  0  0  0
 33 34  1  0  0  0  0
 33 35  1  0  0  0  0
 33 36  1  0  0  0  0
 36 37  1  0  0  0  0
 36 38  1  0  0  0  0
 39 40  1  0  0  0  0
 39 41  2  0  0  0  0
 41 42  1  0  0  0  0
 41 46  1  0  0  0  0
 42 43  1  0  0  0  0
 42 44  1  0  0  0  0
 42 45  1  0  0  0  0
 47 48  1  0  0  0  0
 48 49  1  0  0  0  0
 48 68  2  0  0  0  0
 49 50  1  0  0  0  0
 49 66  1  0  0  0  0
 50 51  1  0  0  0  0
 50 52  1  0  0  0  0
 50 53  1  0  0  0  0
 53 54  1  0  0  0  0
 53 61  2  0  0  0  0
 54 55  2  0  0  0  0
 54 66  1  0  0  0  0
 55 56  1  0  0  0  0
 55 57  1  0  0  0  0
 57 58  1  0  0  0  0
 57 59  2  0  0  0  0
 59 60  1  0  0  0  0
 59 61  1  0  0  0  0
 61 62  1  0  0  0  0
 62 63  1  0  0  0  0
 62 64  1  0  0  0  0
 62 65  1  0  0  0  0
 66 67  2  0  0  0  0
 68 69  1  0  0  0  0
M  END
>  <receptor>
S(=O)(=O)([O-])[O-].S(CCC(NC(=O)C(NC(=O)C(NC(=O)CNC(=O)C(NC(=O)C1N(C(=O)C(NC(=O)C(NC(=O)C(NC(=O)C(NC(=O)C(NC(=O)C(NC(=O)C(NC(=O)C(NC(=O)C(NC(=O)C(NC(=O)C(NC(=O)C(NC(=O)C(NC(=O)C(NC(=O)C(NC(=O)C(NC(=O)C(NC(=O)C(NC(=O)C(NC(=O)CNC(=O)C(NC(=O)C(NC(=O)C(NC(=O)C(NC(=O)C(NC(=O)C(NC(=O)C(NC(=O)C(NC(=O)C(NC(=O)C(NC(=O)C(NC(=O)C(NC(=O)C(NC(=O)C)CCCC[NH3+])C(C)C)C(O)C)CCC(=O)N)CCC(=O)[O-])CCC(=O)N)Cc2ccccc2)CCC(=O)[O-])CC(C)C)Cc2ccc(O)cc2)CS)CCC(=O)[O-])CCSC)CO)C(O)C)Cc2ccccc2)CCC(=O)N)CC(C)C)C[S-])CCCC[NH3+])C(CC)C)C[S-])C)CCC(=O)[O-])CC(=O)N)CC(=O)[O-])CCCC[NH3+])CC(=O)[O-])C(C)C)CCCC[NH3+])C(CC)C)CCC(=O)[O-])CCC1)C[S-])Cc1nc[n-]c1)CC(C)C)C(=O)NC(C(=O)NC(C(=O)NC(C(=O)NC(C(=O)NC(C(=O)NC(C(=O)NC(C(=O)NC(C(=O)NC(C(=O)NC(C(=O)NC(C(=O)NC(C(=O)NCC(=O)NC(C(=O)NCC(=O)NC(C(=O)N1C(C(=O)NC(C(=O)NC(C(=O)NC(C(=O)NC(C(=O)NC(C(=O)NC(C(=O)NC(C(=O)NCC(=O)NC(C(=O)NC(C(=O)N2C(C(=O)NC(C(=O)NC(C(=O)NC(C(=O)NC(C(=O)N3C(C(=O)NC(C(=O)NC(C(=O)[O-])CC(=O)[O-])Cc4ccccc4)CCC3)CC(=O)[O-])C(C)C)C(CC)C)C(CC)C)CCC2)CCC(=O)[O-])C(O)C)CCCC[NH3+])C(CC)C)CCC(=O)[O-])CS)CCCNC(=[NH2+])N)C[S-])Cc2ccccc2)CCC1)C[S-])CCC(=O)N)CC(=O)[O-])CO)CCC(=O)[O-])CCC(=O)N)Cc1c2c([nH]c1)cccc2)C)C(O)C)CC(C)C)C[S-])CO)C(O)C)C[S-])C.S(CCC(NC(=O)C(NC(=O)C(NC(=O)C(NC(=O)C(NC(=O)C(NC(=O)C(NC(=O)C(NC(=O)C(NC(=O)C(NC(=O)C(NC(=O)C(NC(=O)C(NC(=O)C(NC(=O)C(NC(=O)C(NC(=O)C[NH3+])CCC(=O)N)C)C)C)CC(=O)[O-])CCCNC(=[NH2+])N)CCCNC(=[NH2+])N)C(O)C)C(C)C)CCC(=O)[O-])CCCC[NH3+])C(O)C)Cc1c2c([nH]c1)cccc2)C)CC(C)C)C(=O)NC(C(=O)NC(C(=O)NC(C(=O)NC(C(=O)NC(C(=O)NC(C(=O)NC(C(=O)NC(C(=O)NC(C(=O)N1C(C(=O)NC(C(=O)NC(C(=O)NC(C(=O)NC(C(=O)NC(C(=O)NC(C(=O)NC(C(=O)N2C(C(=O)N3C(C(=O)NC(C(=O)NC(C(=O)NC(C(=O)NC(C(=O)NC(C(=O)NC(C(=O)N4C(C(=O)NC(C(=O)NC(C(=O)NC(C(=O)NC(C(=O)NC(C(=O)NC(C(=O)NC(C(=O)NC(C(=O)NC(C(=O)NC(C(=O)NC(C(=O)NC(C(=O)NC(C(=O)NC(C(=O)NC(C(=O)NC(C(=O)NC(C(=O)NC(C(=O)NC(C(=O)NC(C(=O)NC(C(=O)NC(C(=O)NC(C(=O)NC(C(=O)NC(C(=O)NC(C(=O)NC(C(=O)NC(C(=O)NC(C(=O)NC(C(=O)NC(C(=O)NC(C(=O)NC(C(=O)NC(C(=O)NC(C(=O)NC(C(=O)NC(C(=O)NC(C(=O)NC(C(=O)NC(C(=O)NC(C(=O)NC(C(=O)NC(C(=O)NC(C(=O)NC(C(=O)NC(C(=O)NC(C(=O)NC(C(=O)NCC(=O)NC(C(=O)NC(C(=O)NC(C(=O)NC(C(=O)NC(C(=O)NC(C(=O)NC(C(=O)NC(C(=O)NC(C(=O)NC(C(=O)NC(C(=O)NC(C(=O)NC(C(=O)NC(C(=O)NC(C(=O)NC(C(=O)NC(C(=O)NC(C(=O)NC(C(=O)NC(C(=O)NC(C(=O)NC(C(=O)NC(C(=O)NC(C(=O)NC(C(=O)NC(C(=O)NC(C(=O)NC(C(=O)NC(C(=O)NC(C(=O)NC(C(=O)NC(C(=O)NC(C(=O)N5C(C(=O)NC(C(=O)NCC(=O)NC(C(=O)NC(C(=O)NC(C(=O)NCC(=O)NC(C(=O)NC(C(=O)NC(C(=O)NC(C(=O)NC(C(=O)NC(C(=O)NC(C(=O)NC(C(=O)NC(C(=O)NC(C(=O)NC(C(=O)NC(C(=O)NC(C(=O)NC(C(=O)NC(C(=O)NC(C(=O)NC(C(=O)NC(C(=O)NCC(=O)NC(C(=O)NC(C(=O)NC(C(=O)NC(C(=O)NC(C(=O)N6C(C(=O)NC(C(=O)NC(C(=O)NC(C(=O)NC(C(=O)NC(C(=O)NC(C(=O)NC(C(=O)NC(C(=O)NC(C(=O)NC(C(=O)NC(C(=O)NC(C(=O)NC(C(=O)NC(C(=O)NC(C(=O)NC(C(=O)NCC(=O)NC(C(=O)NC(C(=O)NC(C(=O)NC(C(=O)NC(C(=O)NC(C(=O)NC(C(=O)NC(C(=O)NC(C(=O)NC(C(=O)NC(C(=O)NC(C(=O)NC(C(=O)NC(C(=O)NC(C(=O)NC(C(=O)NC(C(=O)NC(C(=O)NC(C(=O)NC(C(=O)NC(C(=O)NC(C(=O)NC(C(=O)NC(C(=O)NC(C(=O)NC(C(=O)NC(C(=O)NC(C(=O)NC(C(=O)NC(C(=O)NC(C(=O)N7C(C(=O)NC(C(=O)NCC(=O)NC(C(=O)NC(C(=O)NC(C(=O)NC(C(=O)NC(C(=O)NC(C(=O)NC(C(=O)NC(C(=O)NC(C(=O)NC(C(=O)NC(C(=O)NC(C(=O)NC(C(=O)N8C(C(=O)NCC(=O)NC(C(=O)NC(C(=O)NC(C(=O)NC(C(=O)NC(C(=O)NC(C(=O)NC(C(=O)NC(C(=O)NC(C(=O)NC(C(=O)NC(C(=O)NC(C(=O)NC(C(=O)NC(C(=O)NC(C(=O)NC(C(=O)NC(C(=O)NC(C(=O)NC(C(=O)NC(C(=O)N9C(C(=O)NCC(=O)NC(C(=O)NC(C(=O)NC(C(=O)NC(C(=O)NC(C(=O)NC(C(=O)NC(C(=O)NC(C(=O)NC(C(=O)NC(C(=O)NC(C(=O)NCC(=O)NC(C(=O)NC(C(=O)NC(C(=O)NC(C(=O)NCC(=O)NC(C(=O)NC(C(=O)NC(C(=O)NCC(=O)NC(C(=O)NCC(=O)NC(C(=O)NC(C(=O)NC(C(=O)NC(C(=O)NC(C(=O)NC(C(=O)N%10C(C(=O)NC(C(=O)NC(C(=O)NC(C(=O)N%11C(C(=O)NC(C(=O)NC(C(=O)NC(C(=O)NC(C(=O)NC(C(=O)NC(C(=O)NC(C(=O)NCC(=O)NC(C(=O)NC(C(=O)NC(C(=O)NCC(=O)NC(C(=O)NC(C(=O)NC(C(=O)NC(C(=O)N%12C(C(=O)NC(C(=O)NCC(=O)NC(C(=O)NC(C(=O)NC(C(=O)NC(C(=O)NC)CC(=O)N)Cc%13ccc(O)cc%13)CO)CCCNC(=[NH2+])N)CC(=O)[O-])CCC%12)Cc%12ccc(O)cc%12)CC(C)C)Cc%12ccc(O)cc%12)Cc%12ccccc%12)CCC(=O)[O-])C)CO)CC(=O)[O-])C(CC)C)CC(C)C)C)CCC(=O)N)Cc%12ccccc%12)CC(C)C)CCC%11)CCCC[NH3+])CC(=O)N)Cc%11[nH]cnc%11)CCC%10)C(CC)C)C(O)C)CCC(=O)N)CC(C)C)C(CC)C)CC(=O)N)CC(=O)[O-])C(O)C)C(C)C)Cc%10ccc(O)cc%10)C(CC)C)C)Cc%10c%11c([nH]c%10)cccc%11)CCC(=O)N)CC(C)C)CCCNC(=[NH2+])N)C(O)C)CS)CO)CC(C)C)CCCNC(=[NH2+])N)Cc%10ccccc%10)C(CC)C)Cc%10ccc(O)cc%10)CO)CCC9)CCCC[NH3+])C(O)C)CO)Cc9ccc(O)cc9)CCCC[NH3+])CCC(=O)N)CC(C)C)CCCNC(=[NH2+])N)C)CCCC[NH3+])C(C)C)CCC(=O)[O-])CC(=O)[O-])Cc9ccc(O)cc9)C(O)C)CC(C)C)Cc9ccccc9)C)CCSC)Cc9ccc(O)cc9)CCC8)Cc8nc[nH]c8)C(O)C)C(C)C)C)CC(C)C)Cc8ccccc8)CC(=O)N)Cc8c9c([nH]c8)cccc9)CC(=O)N)CCCNC(=[NH2+])N)CC(C)C)C(CC)C)CO)Cc8c9c([nH]c8)cccc9)CCC7)CCC(=O)N)Cc7ccccc7)CC(C)C)CCCNC(=[NH2+])N)C(O)C)Cc7ccccc7)C(CC)C)CC(=O)[O-])Cc7ccccc7)CCC(=O)[O-])Cc7ccccc7)C(C)C)CO)C(CC)C)Cc7ccc(O)cc7)CC(=O)[O-])CC(=O)N)CS)C(O)C)CC(C)C)CC(=O)[O-])C(CC)C)C(O)C)CO)CCCC[NH3+])CC(C)C)C)CCSC)C)CCC(=O)[O-])CC(C)C)CO)CO)C(CC)C)CCC(=O)N)Cc7nc[nH]c7)C(C)C)CCC(=O)[O-])Cc7nc[nH]c7)CC(C)C)CS)CCC(=O)N)CCCNC(=[NH2+])N)Cc7ccccc7)C(C)C)CCCC[NH3+])Cc7c8c([nH]c7)cccc8)CCC6)C(C)C)C(CC)C)C(O)C)CCCC[NH3+])CC(=O)[O-])Cc6ccccc6)Cc6ccccc6)CCCC[NH3+])CCCNC(=[NH2+])N)Cc6c7c([nH]c6)cccc7)Cc6ccccc6)CCC(=O)[O-])C)C)CC(=O)[O-])C)CCCC[NH3+])C(O)C)C(CC)C)CCCNC(=[NH2+])N)Cc6ccccc6)CC(=O)N)CC(=O)[O-])CCC(=O)N)Cc6ccccc6)CCC(=O)N)CC(=O)N)CCC5)Cc5ccccc5)C(CC)C)C)CCCC[NH3+])C(CC)C)CCC(=O)[O-])C)CC(C)C)CCSC)Cc5nc[nH]c5)CO)Cc5ccccc5)C(CC)C)CC(C)C)CO)CC(C)C)CCCC[NH3+])C(O)C)CC(C)C)CC(=O)N)CCCNC(=[NH2+])N)CCCNC(=[NH2+])N)CC(=O)[O-])CCC(=O)N)CO)CCC(=O)N)CCC(=O)[O-])CCC(=O)[O-])Cc5ccc(O)cc5)CCSC)CCCNC(=[NH2+])N)CCC(=O)[O-])CCCC[NH3+])CCC(=O)[O-])CCCC[NH3+])Cc5ccccc5)CC(C)C)CCCNC(=[NH2+])N)C(CC)C)C)CCCNC(=[NH2+])N)CCCC[NH3+])CO)CCCC[NH3+])CCCC[NH3+])CCSC)CC(C)C)CO)CC(=O)[O-])C(CC)C)Cc5ccc(O)cc5)C(CC)C)CCCC[NH3+])Cc5ccccc5)Cc5ccc(O)cc5)CCC(=O)[O-])CC(=O)N)CCC(=O)[O-])CO)CC(C)C)CCC(=O)N)C)CC(C)C)CCCC[NH3+])CCC(=O)N)CC(=O)N)CC(=O)[O-])CC(=O)[O-])Cc5ccc(O)cc5)CCCC[NH3+])CO)CC(C)C)C(CC)C)CC(C)C)CCCNC(=[NH2+])N)CC(C)C)Cc5nc[nH]c5)CCC(=O)N)Cc5ccc(O)cc5)C(O)C)CC(=O)[O-])CCC4)CC(C)C)C(CC)C)CC(=O)[O-])CC(C)C)C(CC)C)Cc4ccc(O)cc4)CCC3)CCC2)CO)CC(=O)N)CCCC[NH3+])CC(C)C)CCC(=O)N)CC(C)C)CCCC[NH3+])CCC1)CC(=O)N)CCC(=O)N)CS)CC(C)C)CCCNC(=[NH2+])N)C(C)C)C(C)C)C)CC(=O)[O-])C.OCCO.[UH+3].[Zn+2].[Zn+2].O.O.O.O.O.O.O.O.O.O.O.O.O.O.O.O.O.O.O.O.O.O.O.O.O.O.O.O.O.O.O.O.O.O.O.O.O.O.O.O.O.O.O.O.O.O.O.O.O.O.O.O.O.O.O.O.O.O.O.O.O.O.O.O.O.O.O.O.O.O.O.O.O.O.O.O.O.O.O.O.O.O.O.O.O.O.O.O.O.O.O.O.O.O.O.O.O.O.O.O.O.O.O.O.O.O.O.O.O.O.O.O.O.O.O.O.O.O.O.O.O.O.O.O.O.O.O.O.O.O.O.O.O.O.O.O.O.O.O.O.O.O

>  <rseq>
1

>  <mseq>
33

>  <S>
-9.1183357

>  <rmsd_refine>
1.637747

>  <E_conf>
232.73213

>  <E_place>
-79.118576

>  <E_score1>
-10.575452

>  <E_refine>
-34.116173

>  <E_score2>
-9.1183357

>  <Field_2>
KH03

>  <pseq>
33

>  <%C>
99.976875

>  <a_heavy>
46

>  <h_logP>
6.8154345

>  <Weight>
647.55499

>  <E_orig>
1.9988106

>  <PLIF_raw>
[[10,26],[5184,6345],[366,220688],[1,6],[0.7,2]]

>  <FP:PLIF>
8 3 5

>  <PLIF_ligidx>
[10,26,26]

$$$$

  MOE2020           3D

 47 50  0  0  1  0  0  0  0  0999 V2000
   -2.3330    9.4740   18.3170 C   0  0  0  0  0  0  0  0  0  0  0  0
   -3.3570    9.7680   18.1000 H   0  0  0  0  0  0  0  0  0  0  0  0
   -2.4310    8.5810   18.9180 H   0  0  0  0  0  0  0  0  0  0  0  0
   -1.8390    9.2220   17.3810 H   0  0  0  0  0  0  0  0  0  0  0  0
   -1.5630   10.5750   19.0750 C   0  0  2  0  0  0  0  0  0  0  0  0
   -1.3460   12.0500   18.0420 S   0  0  0  0  0  0  0  0  0  0  0  0
   -3.0630   12.3350   17.8530 C   0  0  0  0  0  0  0  0  0  0  0  0
   -3.8940   12.8430   18.7250 N   0  0  0  0  0  0  0  0  0  0  0  0
   -5.1480   12.8170   18.1470 N   0  0  0  0  0  0  0  0  0  0  0  0
   -5.0190   12.2890   16.9780 C   0  0  0  0  0  0  0  0  0  0  0  0
   -5.7690   12.1160   16.2530 H   0  0  0  0  0  0  0  0  0  0  0  0
   -3.7430   11.9550   16.7610 N   0  0  0  0  0  0  0  0  0  0  0  0
   -3.2370   11.2600   15.5800 C   0  0  0  0  0  0  0  0  0  0  0  0
   -3.2900   11.8840   14.7040 H   0  0  0  0  0  0  0  0  0  0  0  0
   -3.8110   10.3690   15.3710 H   0  0  0  0  0  0  0  0  0  0  0  0
   -2.2060   10.9570   15.6830 H   0  0  0  0  0  0  0  0  0  0  0  0
   -0.3310   10.0470   19.8100 C   0  0  0  0  0  0  0  0  0  0  0  0
   -0.3310   10.1240   21.2030 C   0  0  0  0  0  0  0  0  0  0  0  0
   -1.1040   10.6470   21.7050 H   0  0  0  0  0  0  0  0  0  0  0  0
    0.6620    9.4940   21.9510 C   0  0  0  0  0  0  0  0  0  0  0  0
    0.6910    9.5810   23.3760 C   0  0  0  0  0  0  0  0  0  0  0  0
    0.7450    9.6300   24.5120 N   0  0  0  0  0  0  0  0  0  0  0  0
    1.6220    8.7210   21.3140 C   0  0  0  0  0  0  0  0  0  0  0  0
    2.3360    8.2020   21.8920 H   0  0  0  0  0  0  0  0  0  0  0  0
    1.6190    8.5980   19.9310 C   0  0  0  0  0  0  0  0  0  0  0  0
    2.4480    7.5660   19.3540 N   0  0  0  0  0  0  0  0  0  0  0  0
    3.3630    7.6150   18.1810 C   0  0  0  0  0  0  0  0  0  0  0  0
    4.0400    8.4510   18.2520 H   0  0  0  0  0  0  0  0  0  0  0  0
    2.8140    7.7110   17.2570 H   0  0  0  0  0  0  0  0  0  0  0  0
    4.0950    6.2890   18.2010 C   0  0  0  0  0  0  0  0  0  0  0  0
    3.5560    5.5470   19.2340 C   0  0  0  0  0  0  0  0  0  0  0  0
    4.0080    4.2610   19.5130 C   0  0  0  0  0  0  0  0  0  0  0  0
    3.5710    3.6940   20.2920 H   0  0  0  0  0  0  0  0  0  0  0  0
    5.0480    3.7420   18.7580 C   0  0  0  0  0  0  0  0  0  0  0  0
    5.4280    2.7820   18.9770 H   0  0  0  0  0  0  0  0  0  0  0  0
    5.6010    4.4810   17.7150 C   0  0  0  0  0  0  0  0  0  0  0  0
    6.3930    4.0510   17.1570 H   0  0  0  0  0  0  0  0  0  0  0  0
    5.1240    5.7630   17.4110 C   0  0  0  0  0  0  0  0  0  0  0  0
    5.7410    6.5430   16.2610 C   0  0  0  0  0  0  0  0  0  0  0  0
    6.5620    5.8050   15.4960 F   0  0  0  0  0  0  0  0  0  0  0  0
    6.4710    7.5770   16.7030 F   0  0  0  0  0  0  0  0  0  0  0  0
    4.8170    7.0400   15.4310 F   0  0  0  0  0  0  0  0  0  0  0  0
    2.5340    6.2970   19.9150 C   0  0  0  0  0  0  0  0  0  0  0  0
    1.8260    5.9060   20.8340 O   0  0  0  0  0  0  0  0  0  0  0  0
    0.7370    9.3930   19.1750 C   0  0  0  0  0  0  0  0  0  0  0  0
    0.9840    9.5730   17.4920 Cl  0  0  0  0  0  0  0  0  0  0  0  0
   -2.2300   10.9200   19.8460 H   0  0  0  0  0  0  0  0  0  0  0  0
  1  2  1  0  0  0  0
  1  3  1  0  0  0  0
  1  4  1  0  0  0  0
  1  5  1  0  0  0  0
  5  6  1  0  0  0  0
  5 17  1  0  0  0  0
  5 47  1  0  0  0  0
  6  7  1  0  0  0  0
  7  8  2  0  0  0  0
  7 12  1  0  0  0  0
  8  9  1  0  0  0  0
  9 10  2  0  0  0  0
 10 11  1  0  0  0  0
 10 12  1  0  0  0  0
 12 13  1  0  0  0  0
 13 14  1  0  0  0  0
 13 15  1  0  0  0  0
 13 16  1  0  0  0  0
 17 18  1  0  0  0  0
 17 45  2  0  0  0  0
 18 19  1  0  0  0  0
 18 20  2  0  0  0  0
 20 21  1  0  0  0  0
 20 23  1  0  0  0  0
 21 22  3  0  0  0  0
 23 24  1  0  0  0  0
 23 25  2  0  0  0  0
 25 26  1  0  0  0  0
 25 45  1  0  0  0  0
 26 27  1  0  0  0  0
 26 43  1  0  0  0  0
 27 28  1  0  0  0  0
 27 29  1  0  0  0  0
 27 30  1  0  0  0  0
 30 31  1  0  0  0  0
 30 38  2  0  0  0  0
 31 32  2  0  0  0  0
 31 43  1  0  0  0  0
 32 33  1  0  0  0  0
 32 34  1  0  0  0  0
 34 35  1  0  0  0  0
 34 36  2  0  0  0  0
 36 37  1  0  0  0  0
 36 38  1  0  0  0  0
 38 39  1  0  0  0  0
 39 40  1  0  0  0  0
 39 41  1  0  0  0  0
 39 42  1  0  0  0  0
 43 44  2  0  0  0  0
 45 46  1  0  0  0  0
M  END
>  <receptor>
S(=O)(=O)([O-])[O-].S(CCC(NC(=O)C(NC(=O)C(NC(=O)CNC(=O)C(NC(=O)C1N(C(=O)C(NC(=O)C(NC(=O)C(NC(=O)C(NC(=O)C(NC(=O)C(NC(=O)C(NC(=O)C(NC(=O)C(NC(=O)C(NC(=O)C(NC(=O)C(NC(=O)C(NC(=O)C(NC(=O)C(NC(=O)C(NC(=O)C(NC(=O)C(NC(=O)C(NC(=O)CNC(=O)C(NC(=O)C(NC(=O)C(NC(=O)C(NC(=O)C(NC(=O)C(NC(=O)C(NC(=O)C(NC(=O)C(NC(=O)C(NC(=O)C(NC(=O)C(NC(=O)C(NC(=O)C)CCCC[NH3+])C(C)C)C(O)C)CCC(=O)N)CCC(=O)[O-])CCC(=O)N)Cc2ccccc2)CCC(=O)[O-])CC(C)C)Cc2ccc(O)cc2)CS)CCC(=O)[O-])CCSC)CO)C(O)C)Cc2ccccc2)CCC(=O)N)CC(C)C)C[S-])CCCC[NH3+])C(CC)C)C[S-])C)CCC(=O)[O-])CC(=O)N)CC(=O)[O-])CCCC[NH3+])CC(=O)[O-])C(C)C)CCCC[NH3+])C(CC)C)CCC(=O)[O-])CCC1)C[S-])Cc1nc[n-]c1)CC(C)C)C(=O)NC(C(=O)NC(C(=O)NC(C(=O)NC(C(=O)NC(C(=O)NC(C(=O)NC(C(=O)NC(C(=O)NC(C(=O)NC(C(=O)NC(C(=O)NC(C(=O)NCC(=O)NC(C(=O)NCC(=O)NC(C(=O)N1C(C(=O)NC(C(=O)NC(C(=O)NC(C(=O)NC(C(=O)NC(C(=O)NC(C(=O)NC(C(=O)NCC(=O)NC(C(=O)NC(C(=O)N2C(C(=O)NC(C(=O)NC(C(=O)NC(C(=O)NC(C(=O)N3C(C(=O)NC(C(=O)NC(C(=O)[O-])CC(=O)[O-])Cc4ccccc4)CCC3)CC(=O)[O-])C(C)C)C(CC)C)C(CC)C)CCC2)CCC(=O)[O-])C(O)C)CCCC[NH3+])C(CC)C)CCC(=O)[O-])CS)CCCNC(=[NH2+])N)C[S-])Cc2ccccc2)CCC1)C[S-])CCC(=O)N)CC(=O)[O-])CO)CCC(=O)[O-])CCC(=O)N)Cc1c2c([nH]c1)cccc2)C)C(O)C)CC(C)C)C[S-])CO)C(O)C)C[S-])C.S(CCC(NC(=O)C(NC(=O)C(NC(=O)C(NC(=O)C(NC(=O)C(NC(=O)C(NC(=O)C(NC(=O)C(NC(=O)C(NC(=O)C(NC(=O)C(NC(=O)C(NC(=O)C(NC(=O)C(NC(=O)C(NC(=O)C[NH3+])CCC(=O)N)C)C)C)CC(=O)[O-])CCCNC(=[NH2+])N)CCCNC(=[NH2+])N)C(O)C)C(C)C)CCC(=O)[O-])CCCC[NH3+])C(O)C)Cc1c2c([nH]c1)cccc2)C)CC(C)C)C(=O)NC(C(=O)NC(C(=O)NC(C(=O)NC(C(=O)NC(C(=O)NC(C(=O)NC(C(=O)NC(C(=O)NC(C(=O)N1C(C(=O)NC(C(=O)NC(C(=O)NC(C(=O)NC(C(=O)NC(C(=O)NC(C(=O)NC(C(=O)N2C(C(=O)N3C(C(=O)NC(C(=O)NC(C(=O)NC(C(=O)NC(C(=O)NC(C(=O)NC(C(=O)N4C(C(=O)NC(C(=O)NC(C(=O)NC(C(=O)NC(C(=O)NC(C(=O)NC(C(=O)NC(C(=O)NC(C(=O)NC(C(=O)NC(C(=O)NC(C(=O)NC(C(=O)NC(C(=O)NC(C(=O)NC(C(=O)NC(C(=O)NC(C(=O)NC(C(=O)NC(C(=O)NC(C(=O)NC(C(=O)NC(C(=O)NC(C(=O)NC(C(=O)NC(C(=O)NC(C(=O)NC(C(=O)NC(C(=O)NC(C(=O)NC(C(=O)NC(C(=O)NC(C(=O)NC(C(=O)NC(C(=O)NC(C(=O)NC(C(=O)NC(C(=O)NC(C(=O)NC(C(=O)NC(C(=O)NC(C(=O)NC(C(=O)NC(C(=O)NC(C(=O)NC(C(=O)NC(C(=O)NC(C(=O)NC(C(=O)NCC(=O)NC(C(=O)NC(C(=O)NC(C(=O)NC(C(=O)NC(C(=O)NC(C(=O)NC(C(=O)NC(C(=O)NC(C(=O)NC(C(=O)NC(C(=O)NC(C(=O)NC(C(=O)NC(C(=O)NC(C(=O)NC(C(=O)NC(C(=O)NC(C(=O)NC(C(=O)NC(C(=O)NC(C(=O)NC(C(=O)NC(C(=O)NC(C(=O)NC(C(=O)NC(C(=O)NC(C(=O)NC(C(=O)NC(C(=O)NC(C(=O)NC(C(=O)NC(C(=O)NC(C(=O)N5C(C(=O)NC(C(=O)NCC(=O)NC(C(=O)NC(C(=O)NC(C(=O)NCC(=O)NC(C(=O)NC(C(=O)NC(C(=O)NC(C(=O)NC(C(=O)NC(C(=O)NC(C(=O)NC(C(=O)NC(C(=O)NC(C(=O)NC(C(=O)NC(C(=O)NC(C(=O)NC(C(=O)NC(C(=O)NC(C(=O)NC(C(=O)NC(C(=O)NCC(=O)NC(C(=O)NC(C(=O)NC(C(=O)NC(C(=O)NC(C(=O)N6C(C(=O)NC(C(=O)NC(C(=O)NC(C(=O)NC(C(=O)NC(C(=O)NC(C(=O)NC(C(=O)NC(C(=O)NC(C(=O)NC(C(=O)NC(C(=O)NC(C(=O)NC(C(=O)NC(C(=O)NC(C(=O)NC(C(=O)NCC(=O)NC(C(=O)NC(C(=O)NC(C(=O)NC(C(=O)NC(C(=O)NC(C(=O)NC(C(=O)NC(C(=O)NC(C(=O)NC(C(=O)NC(C(=O)NC(C(=O)NC(C(=O)NC(C(=O)NC(C(=O)NC(C(=O)NC(C(=O)NC(C(=O)NC(C(=O)NC(C(=O)NC(C(=O)NC(C(=O)NC(C(=O)NC(C(=O)NC(C(=O)NC(C(=O)NC(C(=O)NC(C(=O)NC(C(=O)NC(C(=O)NC(C(=O)N7C(C(=O)NC(C(=O)NCC(=O)NC(C(=O)NC(C(=O)NC(C(=O)NC(C(=O)NC(C(=O)NC(C(=O)NC(C(=O)NC(C(=O)NC(C(=O)NC(C(=O)NC(C(=O)NC(C(=O)NC(C(=O)N8C(C(=O)NCC(=O)NC(C(=O)NC(C(=O)NC(C(=O)NC(C(=O)NC(C(=O)NC(C(=O)NC(C(=O)NC(C(=O)NC(C(=O)NC(C(=O)NC(C(=O)NC(C(=O)NC(C(=O)NC(C(=O)NC(C(=O)NC(C(=O)NC(C(=O)NC(C(=O)NC(C(=O)NC(C(=O)N9C(C(=O)NCC(=O)NC(C(=O)NC(C(=O)NC(C(=O)NC(C(=O)NC(C(=O)NC(C(=O)NC(C(=O)NC(C(=O)NC(C(=O)NC(C(=O)NC(C(=O)NCC(=O)NC(C(=O)NC(C(=O)NC(C(=O)NC(C(=O)NCC(=O)NC(C(=O)NC(C(=O)NC(C(=O)NCC(=O)NC(C(=O)NCC(=O)NC(C(=O)NC(C(=O)NC(C(=O)NC(C(=O)NC(C(=O)NC(C(=O)N%10C(C(=O)NC(C(=O)NC(C(=O)NC(C(=O)N%11C(C(=O)NC(C(=O)NC(C(=O)NC(C(=O)NC(C(=O)NC(C(=O)NC(C(=O)NC(C(=O)NCC(=O)NC(C(=O)NC(C(=O)NC(C(=O)NCC(=O)NC(C(=O)NC(C(=O)NC(C(=O)NC(C(=O)N%12C(C(=O)NC(C(=O)NCC(=O)NC(C(=O)NC(C(=O)NC(C(=O)NC(C(=O)NC)CC(=O)N)Cc%13ccc(O)cc%13)CO)CCCNC(=[NH2+])N)CC(=O)[O-])CCC%12)Cc%12ccc(O)cc%12)CC(C)C)Cc%12ccc(O)cc%12)Cc%12ccccc%12)CCC(=O)[O-])C)CO)CC(=O)[O-])C(CC)C)CC(C)C)C)CCC(=O)N)Cc%12ccccc%12)CC(C)C)CCC%11)CCCC[NH3+])CC(=O)N)Cc%11[nH]cnc%11)CCC%10)C(CC)C)C(O)C)CCC(=O)N)CC(C)C)C(CC)C)CC(=O)N)CC(=O)[O-])C(O)C)C(C)C)Cc%10ccc(O)cc%10)C(CC)C)C)Cc%10c%11c([nH]c%10)cccc%11)CCC(=O)N)CC(C)C)CCCNC(=[NH2+])N)C(O)C)CS)CO)CC(C)C)CCCNC(=[NH2+])N)Cc%10ccccc%10)C(CC)C)Cc%10ccc(O)cc%10)CO)CCC9)CCCC[NH3+])C(O)C)CO)Cc9ccc(O)cc9)CCCC[NH3+])CCC(=O)N)CC(C)C)CCCNC(=[NH2+])N)C)CCCC[NH3+])C(C)C)CCC(=O)[O-])CC(=O)[O-])Cc9ccc(O)cc9)C(O)C)CC(C)C)Cc9ccccc9)C)CCSC)Cc9ccc(O)cc9)CCC8)Cc8nc[nH]c8)C(O)C)C(C)C)C)CC(C)C)Cc8ccccc8)CC(=O)N)Cc8c9c([nH]c8)cccc9)CC(=O)N)CCCNC(=[NH2+])N)CC(C)C)C(CC)C)CO)Cc8c9c([nH]c8)cccc9)CCC7)CCC(=O)N)Cc7ccccc7)CC(C)C)CCCNC(=[NH2+])N)C(O)C)Cc7ccccc7)C(CC)C)CC(=O)[O-])Cc7ccccc7)CCC(=O)[O-])Cc7ccccc7)C(C)C)CO)C(CC)C)Cc7ccc(O)cc7)CC(=O)[O-])CC(=O)N)CS)C(O)C)CC(C)C)CC(=O)[O-])C(CC)C)C(O)C)CO)CCCC[NH3+])CC(C)C)C)CCSC)C)CCC(=O)[O-])CC(C)C)CO)CO)C(CC)C)CCC(=O)N)Cc7nc[nH]c7)C(C)C)CCC(=O)[O-])Cc7nc[nH]c7)CC(C)C)CS)CCC(=O)N)CCCNC(=[NH2+])N)Cc7ccccc7)C(C)C)CCCC[NH3+])Cc7c8c([nH]c7)cccc8)CCC6)C(C)C)C(CC)C)C(O)C)CCCC[NH3+])CC(=O)[O-])Cc6ccccc6)Cc6ccccc6)CCCC[NH3+])CCCNC(=[NH2+])N)Cc6c7c([nH]c6)cccc7)Cc6ccccc6)CCC(=O)[O-])C)C)CC(=O)[O-])C)CCCC[NH3+])C(O)C)C(CC)C)CCCNC(=[NH2+])N)Cc6ccccc6)CC(=O)N)CC(=O)[O-])CCC(=O)N)Cc6ccccc6)CCC(=O)N)CC(=O)N)CCC5)Cc5ccccc5)C(CC)C)C)CCCC[NH3+])C(CC)C)CCC(=O)[O-])C)CC(C)C)CCSC)Cc5nc[nH]c5)CO)Cc5ccccc5)C(CC)C)CC(C)C)CO)CC(C)C)CCCC[NH3+])C(O)C)CC(C)C)CC(=O)N)CCCNC(=[NH2+])N)CCCNC(=[NH2+])N)CC(=O)[O-])CCC(=O)N)CO)CCC(=O)N)CCC(=O)[O-])CCC(=O)[O-])Cc5ccc(O)cc5)CCSC)CCCNC(=[NH2+])N)CCC(=O)[O-])CCCC[NH3+])CCC(=O)[O-])CCCC[NH3+])Cc5ccccc5)CC(C)C)CCCNC(=[NH2+])N)C(CC)C)C)CCCNC(=[NH2+])N)CCCC[NH3+])CO)CCCC[NH3+])CCCC[NH3+])CCSC)CC(C)C)CO)CC(=O)[O-])C(CC)C)Cc5ccc(O)cc5)C(CC)C)CCCC[NH3+])Cc5ccccc5)Cc5ccc(O)cc5)CCC(=O)[O-])CC(=O)N)CCC(=O)[O-])CO)CC(C)C)CCC(=O)N)C)CC(C)C)CCCC[NH3+])CCC(=O)N)CC(=O)N)CC(=O)[O-])CC(=O)[O-])Cc5ccc(O)cc5)CCCC[NH3+])CO)CC(C)C)C(CC)C)CC(C)C)CCCNC(=[NH2+])N)CC(C)C)Cc5nc[nH]c5)CCC(=O)N)Cc5ccc(O)cc5)C(O)C)CC(=O)[O-])CCC4)CC(C)C)C(CC)C)CC(=O)[O-])CC(C)C)C(CC)C)Cc4ccc(O)cc4)CCC3)CCC2)CO)CC(=O)N)CCCC[NH3+])CC(C)C)CCC(=O)N)CC(C)C)CCCC[NH3+])CCC1)CC(=O)N)CCC(=O)N)CS)CC(C)C)CCCNC(=[NH2+])N)C(C)C)C(C)C)C)CC(=O)[O-])C.OCCO.[UH+3].[Zn+2].[Zn+2].O.O.O.O.O.O.O.O.O.O.O.O.O.O.O.O.O.O.O.O.O.O.O.O.O.O.O.O.O.O.O.O.O.O.O.O.O.O.O.O.O.O.O.O.O.O.O.O.O.O.O.O.O.O.O.O.O.O.O.O.O.O.O.O.O.O.O.O.O.O.O.O.O.O.O.O.O.O.O.O.O.O.O.O.O.O.O.O.O.O.O.O.O.O.O.O.O.O.O.O.O.O.O.O.O.O.O.O.O.O.O.O.O.O.O.O.O.O.O.O.O.O.O.O.O.O.O.O.O.O.O.O.O.O.O.O.O.O.O.O.O.O

>  <rseq>
1

>  <mseq>
34

>  <S>
-7.8198524

>  <rmsd_refine>
2.1934896

>  <E_conf>
70.505272

>  <E_place>
-59.881512

>  <E_score1>
-11.73489

>  <E_refine>
-32.382267

>  <E_score2>
-7.8198524

>  <Field_2>
KH04

>  <pseq>
34

>  <%C>
99.878006

>  <a_heavy>
32

>  <h_logP>
5.1340055

>  <Weight>
477.89798

>  <E_orig>
3.0658646

>  <PLIF_raw>
[[6,6,23],[3850,3851,5177],[268,268,366],[1,1,3],[1.4,0.5,0.5]]

>  <FP:PLIF>
10 17

>  <PLIF_ligidx>
[[6,6],23]

$$$$

  MOE2020           3D

 58 61  0  0  1  0  0  0  0  0999 V2000
   -0.2910   13.5680   19.2570 C   0  0  0  0  0  0  0  0  0  0  0  0
   -0.5500   14.2890   18.4800 H   0  0  0  0  0  0  0  0  0  0  0  0
    0.7800   13.6310   19.4470 H   0  0  0  0  0  0  0  0  0  0  0  0
   -0.8380   13.8170   20.1670 H   0  0  0  0  0  0  0  0  0  0  0  0
   -0.6480   12.1500   18.7830 C   0  0  2  0  0  0  0  0  0  0  0  0
   -2.1680   12.0020   18.5590 C   0  0  0  0  0  0  0  0  0  0  0  0
   -2.5780   12.9900   18.3740 H   0  0  0  0  0  0  0  0  0  0  0  0
   -2.6510   11.6240   19.4580 H   0  0  0  0  0  0  0  0  0  0  0  0
   -2.5600   11.1240   17.3810 C   0  0  0  0  0  0  0  0  0  0  0  0
   -1.8710   10.1910   16.8030 N   0  0  0  0  0  0  0  0  0  0  0  0
   -2.6230    9.7040   15.7610 N   0  0  0  0  0  0  0  0  0  0  0  0
   -3.7360   10.3550   15.7670 C   0  0  0  0  0  0  0  0  0  0  0  0
   -4.5640   10.2570   15.1150 H   0  0  0  0  0  0  0  0  0  0  0  0
   -3.7430   11.2300   16.7660 N   0  0  0  0  0  0  0  0  0  0  0  0
   -4.8820   12.0740   17.1150 C   0  0  0  0  0  0  0  0  0  0  0  0
   -5.5150   11.5960   17.8500 H   0  0  0  0  0  0  0  0  0  0  0  0
   -5.5000   12.2890   16.2560 H   0  0  0  0  0  0  0  0  0  0  0  0
   -4.5850   13.0280   17.5230 H   0  0  0  0  0  0  0  0  0  0  0  0
   -0.1080   11.1020   19.7470 C   0  0  0  0  0  0  0  0  0  0  0  0
   -0.4790   11.1210   21.0960 C   0  0  0  0  0  0  0  0  0  0  0  0
   -1.1540   11.8570   21.4510 H   0  0  0  0  0  0  0  0  0  0  0  0
    0.0330   10.1810   21.9870 C   0  0  0  0  0  0  0  0  0  0  0  0
   -0.2530   10.2100   23.0070 H   0  0  0  0  0  0  0  0  0  0  0  0
    0.9160    9.2070   21.5410 C   0  0  0  0  0  0  0  0  0  0  0  0
    1.3180    8.5050   22.2230 H   0  0  0  0  0  0  0  0  0  0  0  0
    1.2680    9.1700   20.1870 C   0  0  0  0  0  0  0  0  0  0  0  0
    2.1510    8.1800   19.6880 N   0  0  0  0  0  0  0  0  0  0  0  0
    2.8330    8.4670   18.9700 H   0  0  0  0  0  0  0  0  0  0  0  0
    2.1200    6.8420   20.0520 C   0  0  0  0  0  0  0  0  0  0  0  0
    1.1960    6.4580   20.7600 O   0  0  0  0  0  0  0  0  0  0  0  0
    3.1590    5.9280   19.5740 C   0  0  0  0  0  0  0  0  0  0  0  0
    4.1960    6.3200   18.7180 C   0  0  0  0  0  0  0  0  0  0  0  0
    4.2520    7.3140   18.3570 H   0  0  0  0  0  0  0  0  0  0  0  0
    5.1650    5.3970   18.3310 C   0  0  0  0  0  0  0  0  0  0  0  0
    6.2560    5.7680   17.4420 C   0  0  0  0  0  0  0  0  0  0  0  0
    6.8970    6.8070   17.5930 O   0  0  0  0  0  0  0  0  0  0  0  0
    6.5550    4.9260   16.3870 N   0  0  0  0  0  0  0  0  0  0  0  0
    5.5530    4.0820   15.7420 C   0  0  0  0  0  0  0  0  0  0  0  0
    5.5670    3.0740   16.1580 H   0  0  0  0  0  0  0  0  0  0  0  0
    4.5610    4.5130   15.8750 H   0  0  0  0  0  0  0  0  0  0  0  0
    5.8700    4.0250   14.2450 C   0  0  0  0  0  0  0  0  0  0  0  0
    4.9650    4.1260   13.6480 H   0  0  0  0  0  0  0  0  0  0  0  0
    6.3950    3.0980   14.0130 H   0  0  0  0  0  0  0  0  0  0  0  0
    6.8050    5.2160   14.0430 C   0  0  2  0  0  0  0  0  0  0  0  0
    7.6540    5.0590   12.9280 O   0  0  0  0  0  0  0  0  0  0  0  0
    7.1130    5.0340   12.1350 H   0  0  0  0  0  0  0  0  0  0  0  0
    7.5400    5.2330   15.3770 C   0  0  0  0  0  0  0  0  0  0  0  0
    8.0220    6.1900   15.5460 H   0  0  0  0  0  0  0  0  0  0  0  0
    8.2990    4.4540   15.3840 H   0  0  0  0  0  0  0  0  0  0  0  0
    5.0530    4.0950   18.8150 C   0  0  0  0  0  0  0  0  0  0  0  0
    5.7710    3.3610   18.5570 H   0  0  0  0  0  0  0  0  0  0  0  0
    3.9900    3.7610   19.6340 C   0  0  0  0  0  0  0  0  0  0  0  0
    3.8810    2.7730   19.9960 H   0  0  0  0  0  0  0  0  0  0  0  0
    3.0860    4.6550   19.9960 N   0  0  0  0  0  0  0  0  0  0  0  0
    0.7690   10.1180   19.2930 C   0  0  0  0  0  0  0  0  0  0  0  0
    1.0520   10.0850   18.2720 H   0  0  0  0  0  0  0  0  0  0  0  0
   -0.1420   12.0150   17.8270 H   0  0  0  0  0  0  0  0  0  0  0  0
    6.2170    6.1280   13.9550 H   0  0  0  0  0  0  0  0  0  0  0  0
  1  2  1  0  0  0  0
  1  3  1  0  0  0  0
  1  4  1  0  0  0  0
  1  5  1  0  0  0  0
  5  6  1  0  0  0  0
  5 19  1  0  0  0  0
  5 57  1  0  0  0  0
  6  7  1  0  0  0  0
  6  8  1  0  0  0  0
  6  9  1  0  0  0  0
  9 10  2  0  0  0  0
  9 14  1  0  0  0  0
 10 11  1  0  0  0  0
 11 12  2  0  0  0  0
 12 13  1  0  0  0  0
 12 14  1  0  0  0  0
 14 15  1  0  0  0  0
 15 16  1  0  0  0  0
 15 17  1  0  0  0  0
 15 18  1  0  0  0  0
 19 20  1  0  0  0  0
 19 55  2  0  0  0  0
 20 21  1  0  0  0  0
 20 22  2  0  0  0  0
 22 23  1  0  0  0  0
 22 24  1  0  0  0  0
 24 25  1  0  0  0  0
 24 26  2  0  0  0  0
 26 27  1  0  0  0  0
 26 55  1  0  0  0  0
 27 28  1  0  0  0  0
 27 29  1  0  0  0  0
 29 30  2  0  0  0  0
 29 31  1  0  0  0  0
 31 32  1  0  0  0  0
 31 54  2  0  0  0  0
 32 33  1  0  0  0  0
 32 34  2  0  0  0  0
 34 35  1  0  0  0  0
 34 50  1  0  0  0  0
 35 36  2  0  0  0  0
 35 37  1  0  0  0  0
 37 38  1  0  0  0  0
 37 47  1  0  0  0  0
 38 39  1  0  0  0  0
 38 40  1  0  0  0  0
 38 41  1  0  0  0  0
 41 42  1  0  0  0  0
 41 43  1  0  0  0  0
 41 44  1  0  0  0  0
 44 45  1  0  0  0  0
 44 47  1  0  0  0  0
 44 58  1  0  0  0  0
 45 46  1  0  0  0  0
 47 48  1  0  0  0  0
 47 49  1  0  0  0  0
 50 51  1  0  0  0  0
 50 52  2  0  0  0  0
 52 53  1  0  0  0  0
 52 54  1  0  0  0  0
 55 56  1  0  0  0  0
M  END
>  <receptor>
S(=O)(=O)([O-])[O-].S(CCC(NC(=O)C(NC(=O)C(NC(=O)CNC(=O)C(NC(=O)C1N(C(=O)C(NC(=O)C(NC(=O)C(NC(=O)C(NC(=O)C(NC(=O)C(NC(=O)C(NC(=O)C(NC(=O)C(NC(=O)C(NC(=O)C(NC(=O)C(NC(=O)C(NC(=O)C(NC(=O)C(NC(=O)C(NC(=O)C(NC(=O)C(NC(=O)C(NC(=O)CNC(=O)C(NC(=O)C(NC(=O)C(NC(=O)C(NC(=O)C(NC(=O)C(NC(=O)C(NC(=O)C(NC(=O)C(NC(=O)C(NC(=O)C(NC(=O)C(NC(=O)C(NC(=O)C)CCCC[NH3+])C(C)C)C(O)C)CCC(=O)N)CCC(=O)[O-])CCC(=O)N)Cc2ccccc2)CCC(=O)[O-])CC(C)C)Cc2ccc(O)cc2)CS)CCC(=O)[O-])CCSC)CO)C(O)C)Cc2ccccc2)CCC(=O)N)CC(C)C)C[S-])CCCC[NH3+])C(CC)C)C[S-])C)CCC(=O)[O-])CC(=O)N)CC(=O)[O-])CCCC[NH3+])CC(=O)[O-])C(C)C)CCCC[NH3+])C(CC)C)CCC(=O)[O-])CCC1)C[S-])Cc1nc[n-]c1)CC(C)C)C(=O)NC(C(=O)NC(C(=O)NC(C(=O)NC(C(=O)NC(C(=O)NC(C(=O)NC(C(=O)NC(C(=O)NC(C(=O)NC(C(=O)NC(C(=O)NC(C(=O)NCC(=O)NC(C(=O)NCC(=O)NC(C(=O)N1C(C(=O)NC(C(=O)NC(C(=O)NC(C(=O)NC(C(=O)NC(C(=O)NC(C(=O)NC(C(=O)NCC(=O)NC(C(=O)NC(C(=O)N2C(C(=O)NC(C(=O)NC(C(=O)NC(C(=O)NC(C(=O)N3C(C(=O)NC(C(=O)NC(C(=O)[O-])CC(=O)[O-])Cc4ccccc4)CCC3)CC(=O)[O-])C(C)C)C(CC)C)C(CC)C)CCC2)CCC(=O)[O-])C(O)C)CCCC[NH3+])C(CC)C)CCC(=O)[O-])CS)CCCNC(=[NH2+])N)C[S-])Cc2ccccc2)CCC1)C[S-])CCC(=O)N)CC(=O)[O-])CO)CCC(=O)[O-])CCC(=O)N)Cc1c2c([nH]c1)cccc2)C)C(O)C)CC(C)C)C[S-])CO)C(O)C)C[S-])C.S(CCC(NC(=O)C(NC(=O)C(NC(=O)C(NC(=O)C(NC(=O)C(NC(=O)C(NC(=O)C(NC(=O)C(NC(=O)C(NC(=O)C(NC(=O)C(NC(=O)C(NC(=O)C(NC(=O)C(NC(=O)C(NC(=O)C[NH3+])CCC(=O)N)C)C)C)CC(=O)[O-])CCCNC(=[NH2+])N)CCCNC(=[NH2+])N)C(O)C)C(C)C)CCC(=O)[O-])CCCC[NH3+])C(O)C)Cc1c2c([nH]c1)cccc2)C)CC(C)C)C(=O)NC(C(=O)NC(C(=O)NC(C(=O)NC(C(=O)NC(C(=O)NC(C(=O)NC(C(=O)NC(C(=O)NC(C(=O)N1C(C(=O)NC(C(=O)NC(C(=O)NC(C(=O)NC(C(=O)NC(C(=O)NC(C(=O)NC(C(=O)N2C(C(=O)N3C(C(=O)NC(C(=O)NC(C(=O)NC(C(=O)NC(C(=O)NC(C(=O)NC(C(=O)N4C(C(=O)NC(C(=O)NC(C(=O)NC(C(=O)NC(C(=O)NC(C(=O)NC(C(=O)NC(C(=O)NC(C(=O)NC(C(=O)NC(C(=O)NC(C(=O)NC(C(=O)NC(C(=O)NC(C(=O)NC(C(=O)NC(C(=O)NC(C(=O)NC(C(=O)NC(C(=O)NC(C(=O)NC(C(=O)NC(C(=O)NC(C(=O)NC(C(=O)NC(C(=O)NC(C(=O)NC(C(=O)NC(C(=O)NC(C(=O)NC(C(=O)NC(C(=O)NC(C(=O)NC(C(=O)NC(C(=O)NC(C(=O)NC(C(=O)NC(C(=O)NC(C(=O)NC(C(=O)NC(C(=O)NC(C(=O)NC(C(=O)NC(C(=O)NC(C(=O)NC(C(=O)NC(C(=O)NC(C(=O)NC(C(=O)NCC(=O)NC(C(=O)NC(C(=O)NC(C(=O)NC(C(=O)NC(C(=O)NC(C(=O)NC(C(=O)NC(C(=O)NC(C(=O)NC(C(=O)NC(C(=O)NC(C(=O)NC(C(=O)NC(C(=O)NC(C(=O)NC(C(=O)NC(C(=O)NC(C(=O)NC(C(=O)NC(C(=O)NC(C(=O)NC(C(=O)NC(C(=O)NC(C(=O)NC(C(=O)NC(C(=O)NC(C(=O)NC(C(=O)NC(C(=O)NC(C(=O)NC(C(=O)NC(C(=O)NC(C(=O)N5C(C(=O)NC(C(=O)NCC(=O)NC(C(=O)NC(C(=O)NC(C(=O)NCC(=O)NC(C(=O)NC(C(=O)NC(C(=O)NC(C(=O)NC(C(=O)NC(C(=O)NC(C(=O)NC(C(=O)NC(C(=O)NC(C(=O)NC(C(=O)NC(C(=O)NC(C(=O)NC(C(=O)NC(C(=O)NC(C(=O)NC(C(=O)NC(C(=O)NCC(=O)NC(C(=O)NC(C(=O)NC(C(=O)NC(C(=O)NC(C(=O)N6C(C(=O)NC(C(=O)NC(C(=O)NC(C(=O)NC(C(=O)NC(C(=O)NC(C(=O)NC(C(=O)NC(C(=O)NC(C(=O)NC(C(=O)NC(C(=O)NC(C(=O)NC(C(=O)NC(C(=O)NC(C(=O)NC(C(=O)NCC(=O)NC(C(=O)NC(C(=O)NC(C(=O)NC(C(=O)NC(C(=O)NC(C(=O)NC(C(=O)NC(C(=O)NC(C(=O)NC(C(=O)NC(C(=O)NC(C(=O)NC(C(=O)NC(C(=O)NC(C(=O)NC(C(=O)NC(C(=O)NC(C(=O)NC(C(=O)NC(C(=O)NC(C(=O)NC(C(=O)NC(C(=O)NC(C(=O)NC(C(=O)NC(C(=O)NC(C(=O)NC(C(=O)NC(C(=O)NC(C(=O)NC(C(=O)N7C(C(=O)NC(C(=O)NCC(=O)NC(C(=O)NC(C(=O)NC(C(=O)NC(C(=O)NC(C(=O)NC(C(=O)NC(C(=O)NC(C(=O)NC(C(=O)NC(C(=O)NC(C(=O)NC(C(=O)NC(C(=O)N8C(C(=O)NCC(=O)NC(C(=O)NC(C(=O)NC(C(=O)NC(C(=O)NC(C(=O)NC(C(=O)NC(C(=O)NC(C(=O)NC(C(=O)NC(C(=O)NC(C(=O)NC(C(=O)NC(C(=O)NC(C(=O)NC(C(=O)NC(C(=O)NC(C(=O)NC(C(=O)NC(C(=O)NC(C(=O)N9C(C(=O)NCC(=O)NC(C(=O)NC(C(=O)NC(C(=O)NC(C(=O)NC(C(=O)NC(C(=O)NC(C(=O)NC(C(=O)NC(C(=O)NC(C(=O)NC(C(=O)NCC(=O)NC(C(=O)NC(C(=O)NC(C(=O)NC(C(=O)NCC(=O)NC(C(=O)NC(C(=O)NC(C(=O)NCC(=O)NC(C(=O)NCC(=O)NC(C(=O)NC(C(=O)NC(C(=O)NC(C(=O)NC(C(=O)NC(C(=O)N%10C(C(=O)NC(C(=O)NC(C(=O)NC(C(=O)N%11C(C(=O)NC(C(=O)NC(C(=O)NC(C(=O)NC(C(=O)NC(C(=O)NC(C(=O)NC(C(=O)NCC(=O)NC(C(=O)NC(C(=O)NC(C(=O)NCC(=O)NC(C(=O)NC(C(=O)NC(C(=O)NC(C(=O)N%12C(C(=O)NC(C(=O)NCC(=O)NC(C(=O)NC(C(=O)NC(C(=O)NC(C(=O)NC)CC(=O)N)Cc%13ccc(O)cc%13)CO)CCCNC(=[NH2+])N)CC(=O)[O-])CCC%12)Cc%12ccc(O)cc%12)CC(C)C)Cc%12ccc(O)cc%12)Cc%12ccccc%12)CCC(=O)[O-])C)CO)CC(=O)[O-])C(CC)C)CC(C)C)C)CCC(=O)N)Cc%12ccccc%12)CC(C)C)CCC%11)CCCC[NH3+])CC(=O)N)Cc%11[nH]cnc%11)CCC%10)C(CC)C)C(O)C)CCC(=O)N)CC(C)C)C(CC)C)CC(=O)N)CC(=O)[O-])C(O)C)C(C)C)Cc%10ccc(O)cc%10)C(CC)C)C)Cc%10c%11c([nH]c%10)cccc%11)CCC(=O)N)CC(C)C)CCCNC(=[NH2+])N)C(O)C)CS)CO)CC(C)C)CCCNC(=[NH2+])N)Cc%10ccccc%10)C(CC)C)Cc%10ccc(O)cc%10)CO)CCC9)CCCC[NH3+])C(O)C)CO)Cc9ccc(O)cc9)CCCC[NH3+])CCC(=O)N)CC(C)C)CCCNC(=[NH2+])N)C)CCCC[NH3+])C(C)C)CCC(=O)[O-])CC(=O)[O-])Cc9ccc(O)cc9)C(O)C)CC(C)C)Cc9ccccc9)C)CCSC)Cc9ccc(O)cc9)CCC8)Cc8nc[nH]c8)C(O)C)C(C)C)C)CC(C)C)Cc8ccccc8)CC(=O)N)Cc8c9c([nH]c8)cccc9)CC(=O)N)CCCNC(=[NH2+])N)CC(C)C)C(CC)C)CO)Cc8c9c([nH]c8)cccc9)CCC7)CCC(=O)N)Cc7ccccc7)CC(C)C)CCCNC(=[NH2+])N)C(O)C)Cc7ccccc7)C(CC)C)CC(=O)[O-])Cc7ccccc7)CCC(=O)[O-])Cc7ccccc7)C(C)C)CO)C(CC)C)Cc7ccc(O)cc7)CC(=O)[O-])CC(=O)N)CS)C(O)C)CC(C)C)CC(=O)[O-])C(CC)C)C(O)C)CO)CCCC[NH3+])CC(C)C)C)CCSC)C)CCC(=O)[O-])CC(C)C)CO)CO)C(CC)C)CCC(=O)N)Cc7nc[nH]c7)C(C)C)CCC(=O)[O-])Cc7nc[nH]c7)CC(C)C)CS)CCC(=O)N)CCCNC(=[NH2+])N)Cc7ccccc7)C(C)C)CCCC[NH3+])Cc7c8c([nH]c7)cccc8)CCC6)C(C)C)C(CC)C)C(O)C)CCCC[NH3+])CC(=O)[O-])Cc6ccccc6)Cc6ccccc6)CCCC[NH3+])CCCNC(=[NH2+])N)Cc6c7c([nH]c6)cccc7)Cc6ccccc6)CCC(=O)[O-])C)C)CC(=O)[O-])C)CCCC[NH3+])C(O)C)C(CC)C)CCCNC(=[NH2+])N)Cc6ccccc6)CC(=O)N)CC(=O)[O-])CCC(=O)N)Cc6ccccc6)CCC(=O)N)CC(=O)N)CCC5)Cc5ccccc5)C(CC)C)C)CCCC[NH3+])C(CC)C)CCC(=O)[O-])C)CC(C)C)CCSC)Cc5nc[nH]c5)CO)Cc5ccccc5)C(CC)C)CC(C)C)CO)CC(C)C)CCCC[NH3+])C(O)C)CC(C)C)CC(=O)N)CCCNC(=[NH2+])N)CCCNC(=[NH2+])N)CC(=O)[O-])CCC(=O)N)CO)CCC(=O)N)CCC(=O)[O-])CCC(=O)[O-])Cc5ccc(O)cc5)CCSC)CCCNC(=[NH2+])N)CCC(=O)[O-])CCCC[NH3+])CCC(=O)[O-])CCCC[NH3+])Cc5ccccc5)CC(C)C)CCCNC(=[NH2+])N)C(CC)C)C)CCCNC(=[NH2+])N)CCCC[NH3+])CO)CCCC[NH3+])CCCC[NH3+])CCSC)CC(C)C)CO)CC(=O)[O-])C(CC)C)Cc5ccc(O)cc5)C(CC)C)CCCC[NH3+])Cc5ccccc5)Cc5ccc(O)cc5)CCC(=O)[O-])CC(=O)N)CCC(=O)[O-])CO)CC(C)C)CCC(=O)N)C)CC(C)C)CCCC[NH3+])CCC(=O)N)CC(=O)N)CC(=O)[O-])CC(=O)[O-])Cc5ccc(O)cc5)CCCC[NH3+])CO)CC(C)C)C(CC)C)CC(C)C)CCCNC(=[NH2+])N)CC(C)C)Cc5nc[nH]c5)CCC(=O)N)Cc5ccc(O)cc5)C(O)C)CC(=O)[O-])CCC4)CC(C)C)C(CC)C)CC(=O)[O-])CC(C)C)C(CC)C)Cc4ccc(O)cc4)CCC3)CCC2)CO)CC(=O)N)CCCC[NH3+])CC(C)C)CCC(=O)N)CC(C)C)CCCC[NH3+])CCC1)CC(=O)N)CCC(=O)N)CS)CC(C)C)CCCNC(=[NH2+])N)C(C)C)C(C)C)C)CC(=O)[O-])C.OCCO.[UH+3].[Zn+2].[Zn+2].O.O.O.O.O.O.O.O.O.O.O.O.O.O.O.O.O.O.O.O.O.O.O.O.O.O.O.O.O.O.O.O.O.O.O.O.O.O.O.O.O.O.O.O.O.O.O.O.O.O.O.O.O.O.O.O.O.O.O.O.O.O.O.O.O.O.O.O.O.O.O.O.O.O.O.O.O.O.O.O.O.O.O.O.O.O.O.O.O.O.O.O.O.O.O.O.O.O.O.O.O.O.O.O.O.O.O.O.O.O.O.O.O.O.O.O.O.O.O.O.O.O.O.O.O.O.O.O.O.O.O.O.O.O.O.O.O.O.O.O.O.O

>  <rseq>
1

>  <mseq>
35

>  <S>
-8.8551311

>  <rmsd_refine>
2.0148275

>  <E_conf>
8.4207106

>  <E_place>
-74.473938

>  <E_score1>
-11.850389

>  <E_refine>
-44.560131

>  <E_score2>
-8.8551311

>  <Field_2>
KH05

>  <pseq>
35

>  <%C>
99.971939

>  <a_heavy>
32

>  <h_logP>
2.5370553

>  <Weight>
434.5

>  <E_orig>
3

>  <PLIF_raw>
[11,4205,289,1,2.1]

>  <FP:PLIF>
36 38

>  <PLIF_ligidx>
[11,11]

$$$$

  MOE2020           3D

 49 52  0  0  1  0  0  0  0  0999 V2000
    4.9930    6.6860   15.1610 C   0  0  0  0  0  0  0  0  0  0  0  0
    4.5300    5.7900   14.7530 H   0  0  0  0  0  0  0  0  0  0  0  0
    4.1940    7.3390   15.4990 H   0  0  0  0  0  0  0  0  0  0  0  0
    5.5450    7.1950   14.3770 H   0  0  0  0  0  0  0  0  0  0  0  0
    5.9310    6.3190   16.3260 C   0  0  2  0  0  0  0  0  0  0  0  0
    7.1610    5.4930   15.8750 C   0  0  0  0  0  0  0  0  0  0  0  0
    7.9750    6.1840   15.6950 H   0  0  0  0  0  0  0  0  0  0  0  0
    7.5120    4.8450   16.6760 H   0  0  0  0  0  0  0  0  0  0  0  0
    6.9200    4.6690   14.6240 C   0  0  0  0  0  0  0  0  0  0  0  0
    6.1370    3.6450   14.5310 N   0  0  0  0  0  0  0  0  0  0  0  0
    6.1650    3.2280   13.2280 N   0  0  0  0  0  0  0  0  0  0  0  0
    6.9590    4.0080   12.5890 C   0  0  0  0  0  0  0  0  0  0  0  0
    7.2270    3.9830   11.5640 H   0  0  0  0  0  0  0  0  0  0  0  0
    7.4540    4.9140   13.4180 N   0  0  0  0  0  0  0  0  0  0  0  0
    8.4450    5.8840   12.9860 C   0  0  0  0  0  0  0  0  0  0  0  0
    9.2360    5.3940   12.4420 H   0  0  0  0  0  0  0  0  0  0  0  0
    8.9370    6.3820   13.8010 H   0  0  0  0  0  0  0  0  0  0  0  0
    8.0240    6.6430   12.3430 H   0  0  0  0  0  0  0  0  0  0  0  0
    5.1200    5.7400   17.4790 C   0  0  0  0  0  0  0  0  0  0  0  0
    5.1850    4.4080   17.9030 C   0  0  0  0  0  0  0  0  0  0  0  0
    5.8140    3.7110   17.4140 H   0  0  0  0  0  0  0  0  0  0  0  0
    4.4220    3.9770   18.9870 C   0  0  0  0  0  0  0  0  0  0  0  0
    4.5050    2.9800   19.3250 H   0  0  0  0  0  0  0  0  0  0  0  0
    3.5520    4.8470   19.6290 C   0  0  0  0  0  0  0  0  0  0  0  0
    2.9700    4.5160   20.4490 H   0  0  0  0  0  0  0  0  0  0  0  0
    3.4540    6.1600   19.1790 C   0  0  0  0  0  0  0  0  0  0  0  0
    2.5460    7.0230   19.8330 N   0  0  0  0  0  0  0  0  0  0  0  0
    2.3740    6.8420   20.8330 H   0  0  0  0  0  0  0  0  0  0  0  0
    1.8640    8.0880   19.2660 C   0  0  0  0  0  0  0  0  0  0  0  0
    1.8830    8.2630   18.0490 O   0  0  0  0  0  0  0  0  0  0  0  0
    1.1210    8.9470   20.1670 C   0  0  0  0  0  0  0  0  0  0  0  0
    1.0620    8.8360   21.5260 C   0  0  0  0  0  0  0  0  0  0  0  0
    1.5470    8.1170   22.1330 H   0  0  0  0  0  0  0  0  0  0  0  0
    0.2210    9.8980   22.0270 C   0  0  0  0  0  0  0  0  0  0  0  0
   -0.1770   10.1220   23.7210 Cl  0  0  0  0  0  0  0  0  0  0  0  0
   -0.2090   10.6590   20.9560 C   0  0  0  0  0  0  0  0  0  0  0  0
   -0.9820   11.8030   20.5780 C   0  0  0  0  0  0  0  0  0  0  0  0
   -1.6860   12.7560   21.5250 C   0  0  0  0  0  0  0  0  0  0  0  0
   -0.8060   13.4920   22.2280 F   0  0  0  0  0  0  0  0  0  0  0  0
   -2.4930   13.6220   20.8950 F   0  0  0  0  0  0  0  0  0  0  0  0
   -2.4420   12.1110   22.4250 F   0  0  0  0  0  0  0  0  0  0  0  0
   -0.9310   11.8980   19.2100 C   0  0  0  0  0  0  0  0  0  0  0  0
   -1.3990   12.6420   18.6150 H   0  0  0  0  0  0  0  0  0  0  0  0
   -0.1260   10.8320   18.7060 C   0  0  0  0  0  0  0  0  0  0  0  0
    0.1020   10.6410   17.6890 H   0  0  0  0  0  0  0  0  0  0  0  0
    0.3080   10.1020   19.7770 C   0  0  0  0  0  0  0  0  0  0  0  0
    4.2560    6.6130   18.1330 C   0  0  0  0  0  0  0  0  0  0  0  0
    4.2170    7.6280   17.8410 H   0  0  0  0  0  0  0  0  0  0  0  0
    6.3290    7.2550   16.7220 H   0  0  0  0  0  0  0  0  0  0  0  0
  1  2  1  0  0  0  0
  1  3  1  0  0  0  0
  1  4  1  0  0  0  0
  1  5  1  0  0  0  0
  5  6  1  0  0  0  0
  5 19  1  0  0  0  0
  5 49  1  0  0  0  0
  6  7  1  0  0  0  0
  6  8  1  0  0  0  0
  6  9  1  0  0  0  0
  9 10  2  0  0  0  0
  9 14  1  0  0  0  0
 10 11  1  0  0  0  0
 11 12  2  0  0  0  0
 12 13  1  0  0  0  0
 12 14  1  0  0  0  0
 14 15  1  0  0  0  0
 15 16  1  0  0  0  0
 15 17  1  0  0  0  0
 15 18  1  0  0  0  0
 19 20  1  0  0  0  0
 19 47  2  0  0  0  0
 20 21  1  0  0  0  0
 20 22  2  0  0  0  0
 22 23  1  0  0  0  0
 22 24  1  0  0  0  0
 24 25  1  0  0  0  0
 24 26  2  0  0  0  0
 26 27  1  0  0  0  0
 26 47  1  0  0  0  0
 27 28  1  0  0  0  0
 27 29  1  0  0  0  0
 29 30  2  0  0  0  0
 29 31  1  0  0  0  0
 31 32  1  0  0  0  0
 31 46  2  0  0  0  0
 32 33  1  0  0  0  0
 32 34  2  0  0  0  0
 34 35  1  0  0  0  0
 34 36  1  0  0  0  0
 36 37  2  0  0  0  0
 36 46  1  0  0  0  0
 37 38  1  0  0  0  0
 37 42  1  0  0  0  0
 38 39  1  0  0  0  0
 38 40  1  0  0  0  0
 38 41  1  0  0  0  0
 42 43  1  0  0  0  0
 42 44  2  0  0  0  0
 44 45  1  0  0  0  0
 44 46  1  0  0  0  0
 47 48  1  0  0  0  0
M  END
>  <receptor>
S(=O)(=O)([O-])[O-].S(CCC(NC(=O)C(NC(=O)C(NC(=O)CNC(=O)C(NC(=O)C1N(C(=O)C(NC(=O)C(NC(=O)C(NC(=O)C(NC(=O)C(NC(=O)C(NC(=O)C(NC(=O)C(NC(=O)C(NC(=O)C(NC(=O)C(NC(=O)C(NC(=O)C(NC(=O)C(NC(=O)C(NC(=O)C(NC(=O)C(NC(=O)C(NC(=O)C(NC(=O)CNC(=O)C(NC(=O)C(NC(=O)C(NC(=O)C(NC(=O)C(NC(=O)C(NC(=O)C(NC(=O)C(NC(=O)C(NC(=O)C(NC(=O)C(NC(=O)C(NC(=O)C(NC(=O)C)CCCC[NH3+])C(C)C)C(O)C)CCC(=O)N)CCC(=O)[O-])CCC(=O)N)Cc2ccccc2)CCC(=O)[O-])CC(C)C)Cc2ccc(O)cc2)CS)CCC(=O)[O-])CCSC)CO)C(O)C)Cc2ccccc2)CCC(=O)N)CC(C)C)C[S-])CCCC[NH3+])C(CC)C)C[S-])C)CCC(=O)[O-])CC(=O)N)CC(=O)[O-])CCCC[NH3+])CC(=O)[O-])C(C)C)CCCC[NH3+])C(CC)C)CCC(=O)[O-])CCC1)C[S-])Cc1nc[n-]c1)CC(C)C)C(=O)NC(C(=O)NC(C(=O)NC(C(=O)NC(C(=O)NC(C(=O)NC(C(=O)NC(C(=O)NC(C(=O)NC(C(=O)NC(C(=O)NC(C(=O)NC(C(=O)NCC(=O)NC(C(=O)NCC(=O)NC(C(=O)N1C(C(=O)NC(C(=O)NC(C(=O)NC(C(=O)NC(C(=O)NC(C(=O)NC(C(=O)NC(C(=O)NCC(=O)NC(C(=O)NC(C(=O)N2C(C(=O)NC(C(=O)NC(C(=O)NC(C(=O)NC(C(=O)N3C(C(=O)NC(C(=O)NC(C(=O)[O-])CC(=O)[O-])Cc4ccccc4)CCC3)CC(=O)[O-])C(C)C)C(CC)C)C(CC)C)CCC2)CCC(=O)[O-])C(O)C)CCCC[NH3+])C(CC)C)CCC(=O)[O-])CS)CCCNC(=[NH2+])N)C[S-])Cc2ccccc2)CCC1)C[S-])CCC(=O)N)CC(=O)[O-])CO)CCC(=O)[O-])CCC(=O)N)Cc1c2c([nH]c1)cccc2)C)C(O)C)CC(C)C)C[S-])CO)C(O)C)C[S-])C.S(CCC(NC(=O)C(NC(=O)C(NC(=O)C(NC(=O)C(NC(=O)C(NC(=O)C(NC(=O)C(NC(=O)C(NC(=O)C(NC(=O)C(NC(=O)C(NC(=O)C(NC(=O)C(NC(=O)C(NC(=O)C(NC(=O)C[NH3+])CCC(=O)N)C)C)C)CC(=O)[O-])CCCNC(=[NH2+])N)CCCNC(=[NH2+])N)C(O)C)C(C)C)CCC(=O)[O-])CCCC[NH3+])C(O)C)Cc1c2c([nH]c1)cccc2)C)CC(C)C)C(=O)NC(C(=O)NC(C(=O)NC(C(=O)NC(C(=O)NC(C(=O)NC(C(=O)NC(C(=O)NC(C(=O)NC(C(=O)N1C(C(=O)NC(C(=O)NC(C(=O)NC(C(=O)NC(C(=O)NC(C(=O)NC(C(=O)NC(C(=O)N2C(C(=O)N3C(C(=O)NC(C(=O)NC(C(=O)NC(C(=O)NC(C(=O)NC(C(=O)NC(C(=O)N4C(C(=O)NC(C(=O)NC(C(=O)NC(C(=O)NC(C(=O)NC(C(=O)NC(C(=O)NC(C(=O)NC(C(=O)NC(C(=O)NC(C(=O)NC(C(=O)NC(C(=O)NC(C(=O)NC(C(=O)NC(C(=O)NC(C(=O)NC(C(=O)NC(C(=O)NC(C(=O)NC(C(=O)NC(C(=O)NC(C(=O)NC(C(=O)NC(C(=O)NC(C(=O)NC(C(=O)NC(C(=O)NC(C(=O)NC(C(=O)NC(C(=O)NC(C(=O)NC(C(=O)NC(C(=O)NC(C(=O)NC(C(=O)NC(C(=O)NC(C(=O)NC(C(=O)NC(C(=O)NC(C(=O)NC(C(=O)NC(C(=O)NC(C(=O)NC(C(=O)NC(C(=O)NC(C(=O)NC(C(=O)NC(C(=O)NCC(=O)NC(C(=O)NC(C(=O)NC(C(=O)NC(C(=O)NC(C(=O)NC(C(=O)NC(C(=O)NC(C(=O)NC(C(=O)NC(C(=O)NC(C(=O)NC(C(=O)NC(C(=O)NC(C(=O)NC(C(=O)NC(C(=O)NC(C(=O)NC(C(=O)NC(C(=O)NC(C(=O)NC(C(=O)NC(C(=O)NC(C(=O)NC(C(=O)NC(C(=O)NC(C(=O)NC(C(=O)NC(C(=O)NC(C(=O)NC(C(=O)NC(C(=O)NC(C(=O)NC(C(=O)N5C(C(=O)NC(C(=O)NCC(=O)NC(C(=O)NC(C(=O)NC(C(=O)NCC(=O)NC(C(=O)NC(C(=O)NC(C(=O)NC(C(=O)NC(C(=O)NC(C(=O)NC(C(=O)NC(C(=O)NC(C(=O)NC(C(=O)NC(C(=O)NC(C(=O)NC(C(=O)NC(C(=O)NC(C(=O)NC(C(=O)NC(C(=O)NC(C(=O)NCC(=O)NC(C(=O)NC(C(=O)NC(C(=O)NC(C(=O)NC(C(=O)N6C(C(=O)NC(C(=O)NC(C(=O)NC(C(=O)NC(C(=O)NC(C(=O)NC(C(=O)NC(C(=O)NC(C(=O)NC(C(=O)NC(C(=O)NC(C(=O)NC(C(=O)NC(C(=O)NC(C(=O)NC(C(=O)NC(C(=O)NCC(=O)NC(C(=O)NC(C(=O)NC(C(=O)NC(C(=O)NC(C(=O)NC(C(=O)NC(C(=O)NC(C(=O)NC(C(=O)NC(C(=O)NC(C(=O)NC(C(=O)NC(C(=O)NC(C(=O)NC(C(=O)NC(C(=O)NC(C(=O)NC(C(=O)NC(C(=O)NC(C(=O)NC(C(=O)NC(C(=O)NC(C(=O)NC(C(=O)NC(C(=O)NC(C(=O)NC(C(=O)NC(C(=O)NC(C(=O)NC(C(=O)NC(C(=O)N7C(C(=O)NC(C(=O)NCC(=O)NC(C(=O)NC(C(=O)NC(C(=O)NC(C(=O)NC(C(=O)NC(C(=O)NC(C(=O)NC(C(=O)NC(C(=O)NC(C(=O)NC(C(=O)NC(C(=O)NC(C(=O)N8C(C(=O)NCC(=O)NC(C(=O)NC(C(=O)NC(C(=O)NC(C(=O)NC(C(=O)NC(C(=O)NC(C(=O)NC(C(=O)NC(C(=O)NC(C(=O)NC(C(=O)NC(C(=O)NC(C(=O)NC(C(=O)NC(C(=O)NC(C(=O)NC(C(=O)NC(C(=O)NC(C(=O)NC(C(=O)N9C(C(=O)NCC(=O)NC(C(=O)NC(C(=O)NC(C(=O)NC(C(=O)NC(C(=O)NC(C(=O)NC(C(=O)NC(C(=O)NC(C(=O)NC(C(=O)NC(C(=O)NCC(=O)NC(C(=O)NC(C(=O)NC(C(=O)NC(C(=O)NCC(=O)NC(C(=O)NC(C(=O)NC(C(=O)NCC(=O)NC(C(=O)NCC(=O)NC(C(=O)NC(C(=O)NC(C(=O)NC(C(=O)NC(C(=O)NC(C(=O)N%10C(C(=O)NC(C(=O)NC(C(=O)NC(C(=O)N%11C(C(=O)NC(C(=O)NC(C(=O)NC(C(=O)NC(C(=O)NC(C(=O)NC(C(=O)NC(C(=O)NCC(=O)NC(C(=O)NC(C(=O)NC(C(=O)NCC(=O)NC(C(=O)NC(C(=O)NC(C(=O)NC(C(=O)N%12C(C(=O)NC(C(=O)NCC(=O)NC(C(=O)NC(C(=O)NC(C(=O)NC(C(=O)NC)CC(=O)N)Cc%13ccc(O)cc%13)CO)CCCNC(=[NH2+])N)CC(=O)[O-])CCC%12)Cc%12ccc(O)cc%12)CC(C)C)Cc%12ccc(O)cc%12)Cc%12ccccc%12)CCC(=O)[O-])C)CO)CC(=O)[O-])C(CC)C)CC(C)C)C)CCC(=O)N)Cc%12ccccc%12)CC(C)C)CCC%11)CCCC[NH3+])CC(=O)N)Cc%11[nH]cnc%11)CCC%10)C(CC)C)C(O)C)CCC(=O)N)CC(C)C)C(CC)C)CC(=O)N)CC(=O)[O-])C(O)C)C(C)C)Cc%10ccc(O)cc%10)C(CC)C)C)Cc%10c%11c([nH]c%10)cccc%11)CCC(=O)N)CC(C)C)CCCNC(=[NH2+])N)C(O)C)CS)CO)CC(C)C)CCCNC(=[NH2+])N)Cc%10ccccc%10)C(CC)C)Cc%10ccc(O)cc%10)CO)CCC9)CCCC[NH3+])C(O)C)CO)Cc9ccc(O)cc9)CCCC[NH3+])CCC(=O)N)CC(C)C)CCCNC(=[NH2+])N)C)CCCC[NH3+])C(C)C)CCC(=O)[O-])CC(=O)[O-])Cc9ccc(O)cc9)C(O)C)CC(C)C)Cc9ccccc9)C)CCSC)Cc9ccc(O)cc9)CCC8)Cc8nc[nH]c8)C(O)C)C(C)C)C)CC(C)C)Cc8ccccc8)CC(=O)N)Cc8c9c([nH]c8)cccc9)CC(=O)N)CCCNC(=[NH2+])N)CC(C)C)C(CC)C)CO)Cc8c9c([nH]c8)cccc9)CCC7)CCC(=O)N)Cc7ccccc7)CC(C)C)CCCNC(=[NH2+])N)C(O)C)Cc7ccccc7)C(CC)C)CC(=O)[O-])Cc7ccccc7)CCC(=O)[O-])Cc7ccccc7)C(C)C)CO)C(CC)C)Cc7ccc(O)cc7)CC(=O)[O-])CC(=O)N)CS)C(O)C)CC(C)C)CC(=O)[O-])C(CC)C)C(O)C)CO)CCCC[NH3+])CC(C)C)C)CCSC)C)CCC(=O)[O-])CC(C)C)CO)CO)C(CC)C)CCC(=O)N)Cc7nc[nH]c7)C(C)C)CCC(=O)[O-])Cc7nc[nH]c7)CC(C)C)CS)CCC(=O)N)CCCNC(=[NH2+])N)Cc7ccccc7)C(C)C)CCCC[NH3+])Cc7c8c([nH]c7)cccc8)CCC6)C(C)C)C(CC)C)C(O)C)CCCC[NH3+])CC(=O)[O-])Cc6ccccc6)Cc6ccccc6)CCCC[NH3+])CCCNC(=[NH2+])N)Cc6c7c([nH]c6)cccc7)Cc6ccccc6)CCC(=O)[O-])C)C)CC(=O)[O-])C)CCCC[NH3+])C(O)C)C(CC)C)CCCNC(=[NH2+])N)Cc6ccccc6)CC(=O)N)CC(=O)[O-])CCC(=O)N)Cc6ccccc6)CCC(=O)N)CC(=O)N)CCC5)Cc5ccccc5)C(CC)C)C)CCCC[NH3+])C(CC)C)CCC(=O)[O-])C)CC(C)C)CCSC)Cc5nc[nH]c5)CO)Cc5ccccc5)C(CC)C)CC(C)C)CO)CC(C)C)CCCC[NH3+])C(O)C)CC(C)C)CC(=O)N)CCCNC(=[NH2+])N)CCCNC(=[NH2+])N)CC(=O)[O-])CCC(=O)N)CO)CCC(=O)N)CCC(=O)[O-])CCC(=O)[O-])Cc5ccc(O)cc5)CCSC)CCCNC(=[NH2+])N)CCC(=O)[O-])CCCC[NH3+])CCC(=O)[O-])CCCC[NH3+])Cc5ccccc5)CC(C)C)CCCNC(=[NH2+])N)C(CC)C)C)CCCNC(=[NH2+])N)CCCC[NH3+])CO)CCCC[NH3+])CCCC[NH3+])CCSC)CC(C)C)CO)CC(=O)[O-])C(CC)C)Cc5ccc(O)cc5)C(CC)C)CCCC[NH3+])Cc5ccccc5)Cc5ccc(O)cc5)CCC(=O)[O-])CC(=O)N)CCC(=O)[O-])CO)CC(C)C)CCC(=O)N)C)CC(C)C)CCCC[NH3+])CCC(=O)N)CC(=O)N)CC(=O)[O-])CC(=O)[O-])Cc5ccc(O)cc5)CCCC[NH3+])CO)CC(C)C)C(CC)C)CC(C)C)CCCNC(=[NH2+])N)CC(C)C)Cc5nc[nH]c5)CCC(=O)N)Cc5ccc(O)cc5)C(O)C)CC(=O)[O-])CCC4)CC(C)C)C(CC)C)CC(=O)[O-])CC(C)C)C(CC)C)Cc4ccc(O)cc4)CCC3)CCC2)CO)CC(=O)N)CCCC[NH3+])CC(C)C)CCC(=O)N)CC(C)C)CCCC[NH3+])CCC1)CC(=O)N)CCC(=O)N)CS)CC(C)C)CCCNC(=[NH2+])N)C(C)C)C(C)C)C)CC(=O)[O-])C.OCCO.[UH+3].[Zn+2].[Zn+2].O.O.O.O.O.O.O.O.O.O.O.O.O.O.O.O.O.O.O.O.O.O.O.O.O.O.O.O.O.O.O.O.O.O.O.O.O.O.O.O.O.O.O.O.O.O.O.O.O.O.O.O.O.O.O.O.O.O.O.O.O.O.O.O.O.O.O.O.O.O.O.O.O.O.O.O.O.O.O.O.O.O.O.O.O.O.O.O.O.O.O.O.O.O.O.O.O.O.O.O.O.O.O.O.O.O.O.O.O.O.O.O.O.O.O.O.O.O.O.O.O.O.O.O.O.O.O.O.O.O.O.O.O.O.O.O.O.O.O.O.O.O

>  <rseq>
1

>  <mseq>
36

>  <S>
-8.4129944

>  <rmsd_refine>
2.9474514

>  <E_conf>
80.082703

>  <E_place>
-93.234772

>  <E_score1>
-12.80158

>  <E_refine>
-40.614799

>  <E_score2>
-8.4129944

>  <Field_2>
KH06

>  <pseq>
36

>  <%C>
99.974442

>  <a_heavy>
31

>  <h_logP>
5.6609931

>  <Weight>
446.85999

>  <E_orig>
3

>  <PLIF_raw>
[[],[],[],[],[]]

>  <PLIF_ligidx>
[]

$$$$

  MOE2020           3D

 56 60  0  0  1  0  0  0  0  0999 V2000
    0.0860   11.7540   18.1810 C   0  0  0  0  0  0  0  0  0  0  0  0
   -0.5780   12.3890   17.5940 H   0  0  0  0  0  0  0  0  0  0  0  0
    1.1150   11.9540   17.8780 H   0  0  0  0  0  0  0  0  0  0  0  0
   -0.0300   12.0060   19.2360 H   0  0  0  0  0  0  0  0  0  0  0  0
   -0.2450   10.2690   17.9470 C   0  0  2  0  0  0  0  0  0  0  0  0
   -1.6850    9.9350   18.4020 C   0  0  0  0  0  0  0  0  0  0  0  0
   -1.6970    9.8350   19.4820 H   0  0  0  0  0  0  0  0  0  0  0  0
   -1.9790    8.9820   17.9730 H   0  0  0  0  0  0  0  0  0  0  0  0
   -2.7980   10.9050   18.0540 C   0  0  0  0  0  0  0  0  0  0  0  0
   -3.4250   11.6800   18.8820 N   0  0  0  0  0  0  0  0  0  0  0  0
   -4.4020   12.3400   18.1790 N   0  0  0  0  0  0  0  0  0  0  0  0
   -4.3170   11.9350   16.9560 C   0  0  0  0  0  0  0  0  0  0  0  0
   -4.9050   12.2270   16.1260 H   0  0  0  0  0  0  0  0  0  0  0  0
   -3.3310   11.0510   16.8370 N   0  0  0  0  0  0  0  0  0  0  0  0
   -2.9390   10.4120   15.5880 C   0  0  0  0  0  0  0  0  0  0  0  0
   -3.7870   10.2650   14.9330 H   0  0  0  0  0  0  0  0  0  0  0  0
   -2.4920    9.4410   15.7450 H   0  0  0  0  0  0  0  0  0  0  0  0
   -2.2220   11.0130   15.0490 H   0  0  0  0  0  0  0  0  0  0  0  0
    0.8190    9.3850   18.6000 C   0  0  0  0  0  0  0  0  0  0  0  0
    0.8500    9.3370   19.9750 C   0  0  0  0  0  0  0  0  0  0  0  0
    0.1860    9.9430   20.5270 H   0  0  0  0  0  0  0  0  0  0  0  0
    1.7520    8.4940   20.6220 C   0  0  0  0  0  0  0  0  0  0  0  0
    1.7850    8.4540   22.0060 N   0  0  0  0  0  0  0  0  0  0  0  0
    2.3170    7.6520   22.3810 H   0  0  0  0  0  0  0  0  0  0  0  0
    0.5880    8.8250   22.7520 C   0  0  0  0  0  0  0  0  0  0  0  0
   -0.2690    8.1910   22.5650 H   0  0  0  0  0  0  0  0  0  0  0  0
    0.2770   10.2640   23.0610 C   0  0  0  0  0  0  0  0  0  0  0  0
    0.9540   11.0180   22.6840 H   0  0  0  0  0  0  0  0  0  0  0  0
   -0.7620   10.5660   23.0710 H   0  0  0  0  0  0  0  0  0  0  0  0
    0.7520    9.3520   24.1420 C   0  0  0  0  0  0  0  0  0  0  0  0
    0.0530    8.9540   24.8540 H   0  0  0  0  0  0  0  0  0  0  0  0
    1.7520    9.4960   24.5190 H   0  0  0  0  0  0  0  0  0  0  0  0
    2.6220    7.7200   19.9610 N   0  0  0  0  0  0  0  0  0  0  0  0
    2.6760    7.8100   18.6240 C   0  0  0  0  0  0  0  0  0  0  0  0
    3.7270    7.0280   17.9920 N   0  0  0  0  0  0  0  0  0  0  0  0
    4.8280    6.3240   18.7220 C   0  0  0  0  0  0  0  0  0  0  0  0
    5.3980    6.9810   19.3490 H   0  0  0  0  0  0  0  0  0  0  0  0
    4.4360    5.5310   19.3450 H   0  0  0  0  0  0  0  0  0  0  0  0
    5.7400    5.7710   17.6480 C   0  0  0  0  0  0  0  0  0  0  0  0
    5.1160    5.9910   16.4440 C   0  0  0  0  0  0  0  0  0  0  0  0
    5.6300    5.4870   15.2520 C   0  0  0  0  0  0  0  0  0  0  0  0
    5.1080    5.6190   14.3400 H   0  0  0  0  0  0  0  0  0  0  0  0
    6.8500    4.8280   15.2810 C   0  0  0  0  0  0  0  0  0  0  0  0
    7.2570    4.4360   14.3860 H   0  0  0  0  0  0  0  0  0  0  0  0
    7.5530    4.7190   16.4820 C   0  0  0  0  0  0  0  0  0  0  0  0
    8.5110    4.2680   16.4770 H   0  0  0  0  0  0  0  0  0  0  0  0
    7.0190    5.2140   17.6780 C   0  0  0  0  0  0  0  0  0  0  0  0
    7.8740    5.2580   18.9310 C   0  0  0  0  0  0  0  0  0  0  0  0
    7.1760    5.0880   20.0450 F   0  0  0  0  0  0  0  0  0  0  0  0
    8.8500    4.3450   18.9390 F   0  0  0  0  0  0  0  0  0  0  0  0
    8.4760    6.4470   19.0410 F   0  0  0  0  0  0  0  0  0  0  0  0
    3.9920    6.8640   16.6330 C   0  0  0  0  0  0  0  0  0  0  0  0
    3.4760    7.5020   15.7470 O   0  0  0  0  0  0  0  0  0  0  0  0
    1.7750    8.6310   17.9110 C   0  0  0  0  0  0  0  0  0  0  0  0
    1.8180    8.6950   16.8640 H   0  0  0  0  0  0  0  0  0  0  0  0
   -0.2160   10.0290   16.8970 H   0  0  0  0  0  0  0  0  0  0  0  0
  1  2  1  0  0  0  0
  1  3  1  0  0  0  0
  1  4  1  0  0  0  0
  1  5  1  0  0  0  0
  5  6  1  0  0  0  0
  5 19  1  0  0  0  0
  5 56  1  0  0  0  0
  6  7  1  0  0  0  0
  6  8  1  0  0  0  0
  6  9  1  0  0  0  0
  9 10  2  0  0  0  0
  9 14  1  0  0  0  0
 10 11  1  0  0  0  0
 11 12  2  0  0  0  0
 12 13  1  0  0  0  0
 12 14  1  0  0  0  0
 14 15  1  0  0  0  0
 15 16  1  0  0  0  0
 15 17  1  0  0  0  0
 15 18  1  0  0  0  0
 19 20  2  0  0  0  0
 19 54  1  0  0  0  0
 20 21  1  0  0  0  0
 20 22  1  0  0  0  0
 22 23  1  0  0  0  0
 22 33  2  0  0  0  0
 23 24  1  0  0  0  0
 23 25  1  0  0  0  0
 25 26  1  0  0  0  0
 25 27  1  0  0  0  0
 25 30  1  0  0  0  0
 27 28  1  0  0  0  0
 27 29  1  0  0  0  0
 27 30  1  0  0  0  0
 30 31  1  0  0  0  0
 30 32  1  0  0  0  0
 33 34  1  0  0  0  0
 34 35  1  0  0  0  0
 34 54  2  0  0  0  0
 35 36  1  0  0  0  0
 35 52  1  0  0  0  0
 36 37  1  0  0  0  0
 36 38  1  0  0  0  0
 36 39  1  0  0  0  0
 39 40  1  0  0  0  0
 39 47  2  0  0  0  0
 40 41  2  0  0  0  0
 40 52  1  0  0  0  0
 41 42  1  0  0  0  0
 41 43  1  0  0  0  0
 43 44  1  0  0  0  0
 43 45  2  0  0  0  0
 45 46  1  0  0  0  0
 45 47  1  0  0  0  0
 47 48  1  0  0  0  0
 48 49  1  0  0  0  0
 48 50  1  0  0  0  0
 48 51  1  0  0  0  0
 52 53  2  0  0  0  0
 54 55  1  0  0  0  0
M  END
>  <receptor>
S(=O)(=O)([O-])[O-].S(CCC(NC(=O)C(NC(=O)C(NC(=O)CNC(=O)C(NC(=O)C1N(C(=O)C(NC(=O)C(NC(=O)C(NC(=O)C(NC(=O)C(NC(=O)C(NC(=O)C(NC(=O)C(NC(=O)C(NC(=O)C(NC(=O)C(NC(=O)C(NC(=O)C(NC(=O)C(NC(=O)C(NC(=O)C(NC(=O)C(NC(=O)C(NC(=O)C(NC(=O)CNC(=O)C(NC(=O)C(NC(=O)C(NC(=O)C(NC(=O)C(NC(=O)C(NC(=O)C(NC(=O)C(NC(=O)C(NC(=O)C(NC(=O)C(NC(=O)C(NC(=O)C(NC(=O)C)CCCC[NH3+])C(C)C)C(O)C)CCC(=O)N)CCC(=O)[O-])CCC(=O)N)Cc2ccccc2)CCC(=O)[O-])CC(C)C)Cc2ccc(O)cc2)CS)CCC(=O)[O-])CCSC)CO)C(O)C)Cc2ccccc2)CCC(=O)N)CC(C)C)C[S-])CCCC[NH3+])C(CC)C)C[S-])C)CCC(=O)[O-])CC(=O)N)CC(=O)[O-])CCCC[NH3+])CC(=O)[O-])C(C)C)CCCC[NH3+])C(CC)C)CCC(=O)[O-])CCC1)C[S-])Cc1nc[n-]c1)CC(C)C)C(=O)NC(C(=O)NC(C(=O)NC(C(=O)NC(C(=O)NC(C(=O)NC(C(=O)NC(C(=O)NC(C(=O)NC(C(=O)NC(C(=O)NC(C(=O)NC(C(=O)NCC(=O)NC(C(=O)NCC(=O)NC(C(=O)N1C(C(=O)NC(C(=O)NC(C(=O)NC(C(=O)NC(C(=O)NC(C(=O)NC(C(=O)NC(C(=O)NCC(=O)NC(C(=O)NC(C(=O)N2C(C(=O)NC(C(=O)NC(C(=O)NC(C(=O)NC(C(=O)N3C(C(=O)NC(C(=O)NC(C(=O)[O-])CC(=O)[O-])Cc4ccccc4)CCC3)CC(=O)[O-])C(C)C)C(CC)C)C(CC)C)CCC2)CCC(=O)[O-])C(O)C)CCCC[NH3+])C(CC)C)CCC(=O)[O-])CS)CCCNC(=[NH2+])N)C[S-])Cc2ccccc2)CCC1)C[S-])CCC(=O)N)CC(=O)[O-])CO)CCC(=O)[O-])CCC(=O)N)Cc1c2c([nH]c1)cccc2)C)C(O)C)CC(C)C)C[S-])CO)C(O)C)C[S-])C.S(CCC(NC(=O)C(NC(=O)C(NC(=O)C(NC(=O)C(NC(=O)C(NC(=O)C(NC(=O)C(NC(=O)C(NC(=O)C(NC(=O)C(NC(=O)C(NC(=O)C(NC(=O)C(NC(=O)C(NC(=O)C(NC(=O)C[NH3+])CCC(=O)N)C)C)C)CC(=O)[O-])CCCNC(=[NH2+])N)CCCNC(=[NH2+])N)C(O)C)C(C)C)CCC(=O)[O-])CCCC[NH3+])C(O)C)Cc1c2c([nH]c1)cccc2)C)CC(C)C)C(=O)NC(C(=O)NC(C(=O)NC(C(=O)NC(C(=O)NC(C(=O)NC(C(=O)NC(C(=O)NC(C(=O)NC(C(=O)N1C(C(=O)NC(C(=O)NC(C(=O)NC(C(=O)NC(C(=O)NC(C(=O)NC(C(=O)NC(C(=O)N2C(C(=O)N3C(C(=O)NC(C(=O)NC(C(=O)NC(C(=O)NC(C(=O)NC(C(=O)NC(C(=O)N4C(C(=O)NC(C(=O)NC(C(=O)NC(C(=O)NC(C(=O)NC(C(=O)NC(C(=O)NC(C(=O)NC(C(=O)NC(C(=O)NC(C(=O)NC(C(=O)NC(C(=O)NC(C(=O)NC(C(=O)NC(C(=O)NC(C(=O)NC(C(=O)NC(C(=O)NC(C(=O)NC(C(=O)NC(C(=O)NC(C(=O)NC(C(=O)NC(C(=O)NC(C(=O)NC(C(=O)NC(C(=O)NC(C(=O)NC(C(=O)NC(C(=O)NC(C(=O)NC(C(=O)NC(C(=O)NC(C(=O)NC(C(=O)NC(C(=O)NC(C(=O)NC(C(=O)NC(C(=O)NC(C(=O)NC(C(=O)NC(C(=O)NC(C(=O)NC(C(=O)NC(C(=O)NC(C(=O)NC(C(=O)NC(C(=O)NCC(=O)NC(C(=O)NC(C(=O)NC(C(=O)NC(C(=O)NC(C(=O)NC(C(=O)NC(C(=O)NC(C(=O)NC(C(=O)NC(C(=O)NC(C(=O)NC(C(=O)NC(C(=O)NC(C(=O)NC(C(=O)NC(C(=O)NC(C(=O)NC(C(=O)NC(C(=O)NC(C(=O)NC(C(=O)NC(C(=O)NC(C(=O)NC(C(=O)NC(C(=O)NC(C(=O)NC(C(=O)NC(C(=O)NC(C(=O)NC(C(=O)NC(C(=O)NC(C(=O)NC(C(=O)N5C(C(=O)NC(C(=O)NCC(=O)NC(C(=O)NC(C(=O)NC(C(=O)NCC(=O)NC(C(=O)NC(C(=O)NC(C(=O)NC(C(=O)NC(C(=O)NC(C(=O)NC(C(=O)NC(C(=O)NC(C(=O)NC(C(=O)NC(C(=O)NC(C(=O)NC(C(=O)NC(C(=O)NC(C(=O)NC(C(=O)NC(C(=O)NC(C(=O)NCC(=O)NC(C(=O)NC(C(=O)NC(C(=O)NC(C(=O)NC(C(=O)N6C(C(=O)NC(C(=O)NC(C(=O)NC(C(=O)NC(C(=O)NC(C(=O)NC(C(=O)NC(C(=O)NC(C(=O)NC(C(=O)NC(C(=O)NC(C(=O)NC(C(=O)NC(C(=O)NC(C(=O)NC(C(=O)NC(C(=O)NCC(=O)NC(C(=O)NC(C(=O)NC(C(=O)NC(C(=O)NC(C(=O)NC(C(=O)NC(C(=O)NC(C(=O)NC(C(=O)NC(C(=O)NC(C(=O)NC(C(=O)NC(C(=O)NC(C(=O)NC(C(=O)NC(C(=O)NC(C(=O)NC(C(=O)NC(C(=O)NC(C(=O)NC(C(=O)NC(C(=O)NC(C(=O)NC(C(=O)NC(C(=O)NC(C(=O)NC(C(=O)NC(C(=O)NC(C(=O)NC(C(=O)NC(C(=O)N7C(C(=O)NC(C(=O)NCC(=O)NC(C(=O)NC(C(=O)NC(C(=O)NC(C(=O)NC(C(=O)NC(C(=O)NC(C(=O)NC(C(=O)NC(C(=O)NC(C(=O)NC(C(=O)NC(C(=O)NC(C(=O)N8C(C(=O)NCC(=O)NC(C(=O)NC(C(=O)NC(C(=O)NC(C(=O)NC(C(=O)NC(C(=O)NC(C(=O)NC(C(=O)NC(C(=O)NC(C(=O)NC(C(=O)NC(C(=O)NC(C(=O)NC(C(=O)NC(C(=O)NC(C(=O)NC(C(=O)NC(C(=O)NC(C(=O)NC(C(=O)N9C(C(=O)NCC(=O)NC(C(=O)NC(C(=O)NC(C(=O)NC(C(=O)NC(C(=O)NC(C(=O)NC(C(=O)NC(C(=O)NC(C(=O)NC(C(=O)NC(C(=O)NCC(=O)NC(C(=O)NC(C(=O)NC(C(=O)NC(C(=O)NCC(=O)NC(C(=O)NC(C(=O)NC(C(=O)NCC(=O)NC(C(=O)NCC(=O)NC(C(=O)NC(C(=O)NC(C(=O)NC(C(=O)NC(C(=O)NC(C(=O)N%10C(C(=O)NC(C(=O)NC(C(=O)NC(C(=O)N%11C(C(=O)NC(C(=O)NC(C(=O)NC(C(=O)NC(C(=O)NC(C(=O)NC(C(=O)NC(C(=O)NCC(=O)NC(C(=O)NC(C(=O)NC(C(=O)NCC(=O)NC(C(=O)NC(C(=O)NC(C(=O)NC(C(=O)N%12C(C(=O)NC(C(=O)NCC(=O)NC(C(=O)NC(C(=O)NC(C(=O)NC(C(=O)NC)CC(=O)N)Cc%13ccc(O)cc%13)CO)CCCNC(=[NH2+])N)CC(=O)[O-])CCC%12)Cc%12ccc(O)cc%12)CC(C)C)Cc%12ccc(O)cc%12)Cc%12ccccc%12)CCC(=O)[O-])C)CO)CC(=O)[O-])C(CC)C)CC(C)C)C)CCC(=O)N)Cc%12ccccc%12)CC(C)C)CCC%11)CCCC[NH3+])CC(=O)N)Cc%11[nH]cnc%11)CCC%10)C(CC)C)C(O)C)CCC(=O)N)CC(C)C)C(CC)C)CC(=O)N)CC(=O)[O-])C(O)C)C(C)C)Cc%10ccc(O)cc%10)C(CC)C)C)Cc%10c%11c([nH]c%10)cccc%11)CCC(=O)N)CC(C)C)CCCNC(=[NH2+])N)C(O)C)CS)CO)CC(C)C)CCCNC(=[NH2+])N)Cc%10ccccc%10)C(CC)C)Cc%10ccc(O)cc%10)CO)CCC9)CCCC[NH3+])C(O)C)CO)Cc9ccc(O)cc9)CCCC[NH3+])CCC(=O)N)CC(C)C)CCCNC(=[NH2+])N)C)CCCC[NH3+])C(C)C)CCC(=O)[O-])CC(=O)[O-])Cc9ccc(O)cc9)C(O)C)CC(C)C)Cc9ccccc9)C)CCSC)Cc9ccc(O)cc9)CCC8)Cc8nc[nH]c8)C(O)C)C(C)C)C)CC(C)C)Cc8ccccc8)CC(=O)N)Cc8c9c([nH]c8)cccc9)CC(=O)N)CCCNC(=[NH2+])N)CC(C)C)C(CC)C)CO)Cc8c9c([nH]c8)cccc9)CCC7)CCC(=O)N)Cc7ccccc7)CC(C)C)CCCNC(=[NH2+])N)C(O)C)Cc7ccccc7)C(CC)C)CC(=O)[O-])Cc7ccccc7)CCC(=O)[O-])Cc7ccccc7)C(C)C)CO)C(CC)C)Cc7ccc(O)cc7)CC(=O)[O-])CC(=O)N)CS)C(O)C)CC(C)C)CC(=O)[O-])C(CC)C)C(O)C)CO)CCCC[NH3+])CC(C)C)C)CCSC)C)CCC(=O)[O-])CC(C)C)CO)CO)C(CC)C)CCC(=O)N)Cc7nc[nH]c7)C(C)C)CCC(=O)[O-])Cc7nc[nH]c7)CC(C)C)CS)CCC(=O)N)CCCNC(=[NH2+])N)Cc7ccccc7)C(C)C)CCCC[NH3+])Cc7c8c([nH]c7)cccc8)CCC6)C(C)C)C(CC)C)C(O)C)CCCC[NH3+])CC(=O)[O-])Cc6ccccc6)Cc6ccccc6)CCCC[NH3+])CCCNC(=[NH2+])N)Cc6c7c([nH]c6)cccc7)Cc6ccccc6)CCC(=O)[O-])C)C)CC(=O)[O-])C)CCCC[NH3+])C(O)C)C(CC)C)CCCNC(=[NH2+])N)Cc6ccccc6)CC(=O)N)CC(=O)[O-])CCC(=O)N)Cc6ccccc6)CCC(=O)N)CC(=O)N)CCC5)Cc5ccccc5)C(CC)C)C)CCCC[NH3+])C(CC)C)CCC(=O)[O-])C)CC(C)C)CCSC)Cc5nc[nH]c5)CO)Cc5ccccc5)C(CC)C)CC(C)C)CO)CC(C)C)CCCC[NH3+])C(O)C)CC(C)C)CC(=O)N)CCCNC(=[NH2+])N)CCCNC(=[NH2+])N)CC(=O)[O-])CCC(=O)N)CO)CCC(=O)N)CCC(=O)[O-])CCC(=O)[O-])Cc5ccc(O)cc5)CCSC)CCCNC(=[NH2+])N)CCC(=O)[O-])CCCC[NH3+])CCC(=O)[O-])CCCC[NH3+])Cc5ccccc5)CC(C)C)CCCNC(=[NH2+])N)C(CC)C)C)CCCNC(=[NH2+])N)CCCC[NH3+])CO)CCCC[NH3+])CCCC[NH3+])CCSC)CC(C)C)CO)CC(=O)[O-])C(CC)C)Cc5ccc(O)cc5)C(CC)C)CCCC[NH3+])Cc5ccccc5)Cc5ccc(O)cc5)CCC(=O)[O-])CC(=O)N)CCC(=O)[O-])CO)CC(C)C)CCC(=O)N)C)CC(C)C)CCCC[NH3+])CCC(=O)N)CC(=O)N)CC(=O)[O-])CC(=O)[O-])Cc5ccc(O)cc5)CCCC[NH3+])CO)CC(C)C)C(CC)C)CC(C)C)CCCNC(=[NH2+])N)CC(C)C)Cc5nc[nH]c5)CCC(=O)N)Cc5ccc(O)cc5)C(O)C)CC(=O)[O-])CCC4)CC(C)C)C(CC)C)CC(=O)[O-])CC(C)C)C(CC)C)Cc4ccc(O)cc4)CCC3)CCC2)CO)CC(=O)N)CCCC[NH3+])CC(C)C)CCC(=O)N)CC(C)C)CCCC[NH3+])CCC1)CC(=O)N)CCC(=O)N)CS)CC(C)C)CCCNC(=[NH2+])N)C(C)C)C(C)C)C)CC(=O)[O-])C.OCCO.[UH+3].[Zn+2].[Zn+2].O.O.O.O.O.O.O.O.O.O.O.O.O.O.O.O.O.O.O.O.O.O.O.O.O.O.O.O.O.O.O.O.O.O.O.O.O.O.O.O.O.O.O.O.O.O.O.O.O.O.O.O.O.O.O.O.O.O.O.O.O.O.O.O.O.O.O.O.O.O.O.O.O.O.O.O.O.O.O.O.O.O.O.O.O.O.O.O.O.O.O.O.O.O.O.O.O.O.O.O.O.O.O.O.O.O.O.O.O.O.O.O.O.O.O.O.O.O.O.O.O.O.O.O.O.O.O.O.O.O.O.O.O.O.O.O.O.O.O.O.O.O

>  <rseq>
1

>  <mseq>
37

>  <S>
-7.9291496

>  <rmsd_refine>
1.0576025

>  <E_conf>
81.113777

>  <E_place>
-89.66906

>  <E_score1>
-10.628866

>  <E_refine>
-31.936701

>  <E_score2>
-7.9291496

>  <Field_2>
KH07

>  <pseq>
37

>  <%C>
98.17791

>  <a_heavy>
33

>  <h_logP>
3.4617069

>  <Weight>
456.47198

>  <E_orig>
1

>  <PLIF_raw>
[[23,53],[5177,3751],[366,263],[3,4],[2,0.9]]

>  <FP:PLIF>
15 17 23

>  <PLIF_ligidx>
[53,23,23]

$$$$

  MOE2020           3D

 58 61  0  0  1  0  0  0  0  0999 V2000
    5.2560    3.8560   15.0990 C   0  0  0  0  0  0  0  0  0  0  0  0
    6.0460    3.5950   14.3950 H   0  0  0  0  0  0  0  0  0  0  0  0
    4.3740    4.1080   14.5210 H   0  0  0  0  0  0  0  0  0  0  0  0
    5.0480    2.9880   15.7230 H   0  0  0  0  0  0  0  0  0  0  0  0
    5.6860    5.0330   15.9720 C   0  0  2  0  0  0  0  0  0  0  0  0
    7.3300    4.6900   16.6570 S   0  0  0  0  0  0  0  0  0  0  0  0
    7.7080    6.2510   17.3260 C   0  0  0  0  0  0  0  0  0  0  0  0
    7.4320    7.4310   16.8470 N   0  0  0  0  0  0  0  0  0  0  0  0
    7.9900    8.3470   17.7070 N   0  0  0  0  0  0  0  0  0  0  0  0
    8.5540    7.6860   18.6580 C   0  0  0  0  0  0  0  0  0  0  0  0
    9.0790    8.0730   19.4900 H   0  0  0  0  0  0  0  0  0  0  0  0
    8.3760    6.3720   18.4730 N   0  0  0  0  0  0  0  0  0  0  0  0
    8.7210    5.2860   19.3850 C   0  0  0  0  0  0  0  0  0  0  0  0
    8.0150    5.2190   20.2010 H   0  0  0  0  0  0  0  0  0  0  0  0
    9.7000    5.4070   19.8160 H   0  0  0  0  0  0  0  0  0  0  0  0
    8.7380    4.3250   18.8950 H   0  0  0  0  0  0  0  0  0  0  0  0
    4.7060    5.3460   17.0960 C   0  0  0  0  0  0  0  0  0  0  0  0
    4.5840    4.4810   18.1880 C   0  0  0  0  0  0  0  0  0  0  0  0
    5.1560    3.5900   18.2290 H   0  0  0  0  0  0  0  0  0  0  0  0
    3.7140    4.7820   19.2320 C   0  0  0  0  0  0  0  0  0  0  0  0
    3.6240    4.1140   20.0500 H   0  0  0  0  0  0  0  0  0  0  0  0
    2.9560    5.9460   19.2040 C   0  0  0  0  0  0  0  0  0  0  0  0
    2.2850    6.1430   19.9980 H   0  0  0  0  0  0  0  0  0  0  0  0
    3.0780    6.8200   18.1170 C   0  0  0  0  0  0  0  0  0  0  0  0
    2.3210    8.0290   18.0120 N   0  0  0  0  0  0  0  0  0  0  0  0
    2.1800    8.4030   17.0620 H   0  0  0  0  0  0  0  0  0  0  0  0
    1.8270    8.8150   19.0480 C   0  0  0  0  0  0  0  0  0  0  0  0
    2.0420    8.5050   20.2150 O   0  0  0  0  0  0  0  0  0  0  0  0
    1.0660   10.0100   18.6930 C   0  0  0  0  0  0  0  0  0  0  0  0
   -0.1260    9.9230   17.9710 C   0  0  0  0  0  0  0  0  0  0  0  0
   -0.4520    8.9890   17.5970 H   0  0  0  0  0  0  0  0  0  0  0  0
   -0.8940   11.0600   17.7360 C   0  0  0  0  0  0  0  0  0  0  0  0
   -2.1650   10.9510   17.0150 C   0  0  0  0  0  0  0  0  0  0  0  0
   -2.2710   10.2520   16.0080 O   0  0  0  0  0  0  0  0  0  0  0  0
   -3.2930   11.6040   17.4780 N   0  0  0  0  0  0  0  0  0  0  0  0
   -3.4520   12.2340   18.7800 C   0  0  0  0  0  0  0  0  0  0  0  0
   -3.1370   11.5410   19.5550 H   0  0  0  0  0  0  0  0  0  0  0  0
   -2.8670   13.1480   18.8590 H   0  0  0  0  0  0  0  0  0  0  0  0
   -4.9330   12.5720   18.9660 C   0  0  0  0  0  0  0  0  0  0  0  0
   -5.2550   12.4280   19.9980 H   0  0  0  0  0  0  0  0  0  0  0  0
   -5.1110   13.5990   18.6450 H   0  0  0  0  0  0  0  0  0  0  0  0
   -5.6360   11.6060   18.0070 C   0  0  0  0  0  0  0  0  0  0  0  0
   -6.5860   12.0050   17.6480 H   0  0  0  0  0  0  0  0  0  0  0  0
   -5.7770   10.6390   18.4920 H   0  0  0  0  0  0  0  0  0  0  0  0
   -4.6120   11.4730   16.8820 C   0  0  0  0  0  0  0  0  0  0  0  0
   -4.7620   12.2840   16.1710 H   0  0  0  0  0  0  0  0  0  0  0  0
   -4.7370   10.5210   16.3690 H   0  0  0  0  0  0  0  0  0  0  0  0
   -0.3690   12.2820   18.1600 C   0  0  0  0  0  0  0  0  0  0  0  0
   -0.8950   13.1790   17.9490 H   0  0  0  0  0  0  0  0  0  0  0  0
    0.8520   12.3280   18.8340 C   0  0  0  0  0  0  0  0  0  0  0  0
    1.4440   13.6530   19.3110 C   0  0  0  0  0  0  0  0  0  0  0  0
    2.7840   13.6950   19.2020 F   0  0  0  0  0  0  0  0  0  0  0  0
    0.9850   14.7170   18.6300 F   0  0  0  0  0  0  0  0  0  0  0  0
    1.1630   13.8860   20.6070 F   0  0  0  0  0  0  0  0  0  0  0  0
    1.5260   11.2040   19.1030 N   0  0  0  0  0  0  0  0  0  0  0  0
    3.9450    6.5120   17.0620 C   0  0  0  0  0  0  0  0  0  0  0  0
    4.0220    7.1660   16.2340 H   0  0  0  0  0  0  0  0  0  0  0  0
    5.7760    5.8980   15.3300 H   0  0  0  0  0  0  0  0  0  0  0  0
  1  2  1  0  0  0  0
  1  3  1  0  0  0  0
  1  4  1  0  0  0  0
  1  5  1  0  0  0  0
  5  6  1  0  0  0  0
  5 17  1  0  0  0  0
  5 58  1  0  0  0  0
  6  7  1  0  0  0  0
  7  8  2  0  0  0  0
  7 12  1  0  0  0  0
  8  9  1  0  0  0  0
  9 10  2  0  0  0  0
 10 11  1  0  0  0  0
 10 12  1  0  0  0  0
 12 13  1  0  0  0  0
 13 14  1  0  0  0  0
 13 15  1  0  0  0  0
 13 16  1  0  0  0  0
 17 18  1  0  0  0  0
 17 56  2  0  0  0  0
 18 19  1  0  0  0  0
 18 20  2  0  0  0  0
 20 21  1  0  0  0  0
 20 22  1  0  0  0  0
 22 23  1  0  0  0  0
 22 24  2  0  0  0  0
 24 25  1  0  0  0  0
 24 56  1  0  0  0  0
 25 26  1  0  0  0  0
 25 27  1  0  0  0  0
 27 28  2  0  0  0  0
 27 29  1  0  0  0  0
 29 30  1  0  0  0  0
 29 55  2  0  0  0  0
 30 31  1  0  0  0  0
 30 32  2  0  0  0  0
 32 33  1  0  0  0  0
 32 48  1  0  0  0  0
 33 34  2  0  0  0  0
 33 35  1  0  0  0  0
 35 36  1  0  0  0  0
 35 45  1  0  0  0  0
 36 37  1  0  0  0  0
 36 38  1  0  0  0  0
 36 39  1  0  0  0  0
 39 40  1  0  0  0  0
 39 41  1  0  0  0  0
 39 42  1  0  0  0  0
 42 43  1  0  0  0  0
 42 44  1  0  0  0  0
 42 45  1  0  0  0  0
 45 46  1  0  0  0  0
 45 47  1  0  0  0  0
 48 49  1  0  0  0  0
 48 50  2  0  0  0  0
 50 51  1  0  0  0  0
 50 55  1  0  0  0  0
 51 52  1  0  0  0  0
 51 53  1  0  0  0  0
 51 54  1  0  0  0  0
 56 57  1  0  0  0  0
M  END
>  <receptor>
S(=O)(=O)([O-])[O-].S(CCC(NC(=O)C(NC(=O)C(NC(=O)CNC(=O)C(NC(=O)C1N(C(=O)C(NC(=O)C(NC(=O)C(NC(=O)C(NC(=O)C(NC(=O)C(NC(=O)C(NC(=O)C(NC(=O)C(NC(=O)C(NC(=O)C(NC(=O)C(NC(=O)C(NC(=O)C(NC(=O)C(NC(=O)C(NC(=O)C(NC(=O)C(NC(=O)C(NC(=O)CNC(=O)C(NC(=O)C(NC(=O)C(NC(=O)C(NC(=O)C(NC(=O)C(NC(=O)C(NC(=O)C(NC(=O)C(NC(=O)C(NC(=O)C(NC(=O)C(NC(=O)C(NC(=O)C)CCCC[NH3+])C(C)C)C(O)C)CCC(=O)N)CCC(=O)[O-])CCC(=O)N)Cc2ccccc2)CCC(=O)[O-])CC(C)C)Cc2ccc(O)cc2)CS)CCC(=O)[O-])CCSC)CO)C(O)C)Cc2ccccc2)CCC(=O)N)CC(C)C)C[S-])CCCC[NH3+])C(CC)C)C[S-])C)CCC(=O)[O-])CC(=O)N)CC(=O)[O-])CCCC[NH3+])CC(=O)[O-])C(C)C)CCCC[NH3+])C(CC)C)CCC(=O)[O-])CCC1)C[S-])Cc1nc[n-]c1)CC(C)C)C(=O)NC(C(=O)NC(C(=O)NC(C(=O)NC(C(=O)NC(C(=O)NC(C(=O)NC(C(=O)NC(C(=O)NC(C(=O)NC(C(=O)NC(C(=O)NC(C(=O)NCC(=O)NC(C(=O)NCC(=O)NC(C(=O)N1C(C(=O)NC(C(=O)NC(C(=O)NC(C(=O)NC(C(=O)NC(C(=O)NC(C(=O)NC(C(=O)NCC(=O)NC(C(=O)NC(C(=O)N2C(C(=O)NC(C(=O)NC(C(=O)NC(C(=O)NC(C(=O)N3C(C(=O)NC(C(=O)NC(C(=O)[O-])CC(=O)[O-])Cc4ccccc4)CCC3)CC(=O)[O-])C(C)C)C(CC)C)C(CC)C)CCC2)CCC(=O)[O-])C(O)C)CCCC[NH3+])C(CC)C)CCC(=O)[O-])CS)CCCNC(=[NH2+])N)C[S-])Cc2ccccc2)CCC1)C[S-])CCC(=O)N)CC(=O)[O-])CO)CCC(=O)[O-])CCC(=O)N)Cc1c2c([nH]c1)cccc2)C)C(O)C)CC(C)C)C[S-])CO)C(O)C)C[S-])C.S(CCC(NC(=O)C(NC(=O)C(NC(=O)C(NC(=O)C(NC(=O)C(NC(=O)C(NC(=O)C(NC(=O)C(NC(=O)C(NC(=O)C(NC(=O)C(NC(=O)C(NC(=O)C(NC(=O)C(NC(=O)C(NC(=O)C[NH3+])CCC(=O)N)C)C)C)CC(=O)[O-])CCCNC(=[NH2+])N)CCCNC(=[NH2+])N)C(O)C)C(C)C)CCC(=O)[O-])CCCC[NH3+])C(O)C)Cc1c2c([nH]c1)cccc2)C)CC(C)C)C(=O)NC(C(=O)NC(C(=O)NC(C(=O)NC(C(=O)NC(C(=O)NC(C(=O)NC(C(=O)NC(C(=O)NC(C(=O)N1C(C(=O)NC(C(=O)NC(C(=O)NC(C(=O)NC(C(=O)NC(C(=O)NC(C(=O)NC(C(=O)N2C(C(=O)N3C(C(=O)NC(C(=O)NC(C(=O)NC(C(=O)NC(C(=O)NC(C(=O)NC(C(=O)N4C(C(=O)NC(C(=O)NC(C(=O)NC(C(=O)NC(C(=O)NC(C(=O)NC(C(=O)NC(C(=O)NC(C(=O)NC(C(=O)NC(C(=O)NC(C(=O)NC(C(=O)NC(C(=O)NC(C(=O)NC(C(=O)NC(C(=O)NC(C(=O)NC(C(=O)NC(C(=O)NC(C(=O)NC(C(=O)NC(C(=O)NC(C(=O)NC(C(=O)NC(C(=O)NC(C(=O)NC(C(=O)NC(C(=O)NC(C(=O)NC(C(=O)NC(C(=O)NC(C(=O)NC(C(=O)NC(C(=O)NC(C(=O)NC(C(=O)NC(C(=O)NC(C(=O)NC(C(=O)NC(C(=O)NC(C(=O)NC(C(=O)NC(C(=O)NC(C(=O)NC(C(=O)NC(C(=O)NC(C(=O)NC(C(=O)NCC(=O)NC(C(=O)NC(C(=O)NC(C(=O)NC(C(=O)NC(C(=O)NC(C(=O)NC(C(=O)NC(C(=O)NC(C(=O)NC(C(=O)NC(C(=O)NC(C(=O)NC(C(=O)NC(C(=O)NC(C(=O)NC(C(=O)NC(C(=O)NC(C(=O)NC(C(=O)NC(C(=O)NC(C(=O)NC(C(=O)NC(C(=O)NC(C(=O)NC(C(=O)NC(C(=O)NC(C(=O)NC(C(=O)NC(C(=O)NC(C(=O)NC(C(=O)NC(C(=O)NC(C(=O)N5C(C(=O)NC(C(=O)NCC(=O)NC(C(=O)NC(C(=O)NC(C(=O)NCC(=O)NC(C(=O)NC(C(=O)NC(C(=O)NC(C(=O)NC(C(=O)NC(C(=O)NC(C(=O)NC(C(=O)NC(C(=O)NC(C(=O)NC(C(=O)NC(C(=O)NC(C(=O)NC(C(=O)NC(C(=O)NC(C(=O)NC(C(=O)NC(C(=O)NCC(=O)NC(C(=O)NC(C(=O)NC(C(=O)NC(C(=O)NC(C(=O)N6C(C(=O)NC(C(=O)NC(C(=O)NC(C(=O)NC(C(=O)NC(C(=O)NC(C(=O)NC(C(=O)NC(C(=O)NC(C(=O)NC(C(=O)NC(C(=O)NC(C(=O)NC(C(=O)NC(C(=O)NC(C(=O)NC(C(=O)NCC(=O)NC(C(=O)NC(C(=O)NC(C(=O)NC(C(=O)NC(C(=O)NC(C(=O)NC(C(=O)NC(C(=O)NC(C(=O)NC(C(=O)NC(C(=O)NC(C(=O)NC(C(=O)NC(C(=O)NC(C(=O)NC(C(=O)NC(C(=O)NC(C(=O)NC(C(=O)NC(C(=O)NC(C(=O)NC(C(=O)NC(C(=O)NC(C(=O)NC(C(=O)NC(C(=O)NC(C(=O)NC(C(=O)NC(C(=O)NC(C(=O)NC(C(=O)N7C(C(=O)NC(C(=O)NCC(=O)NC(C(=O)NC(C(=O)NC(C(=O)NC(C(=O)NC(C(=O)NC(C(=O)NC(C(=O)NC(C(=O)NC(C(=O)NC(C(=O)NC(C(=O)NC(C(=O)NC(C(=O)N8C(C(=O)NCC(=O)NC(C(=O)NC(C(=O)NC(C(=O)NC(C(=O)NC(C(=O)NC(C(=O)NC(C(=O)NC(C(=O)NC(C(=O)NC(C(=O)NC(C(=O)NC(C(=O)NC(C(=O)NC(C(=O)NC(C(=O)NC(C(=O)NC(C(=O)NC(C(=O)NC(C(=O)NC(C(=O)N9C(C(=O)NCC(=O)NC(C(=O)NC(C(=O)NC(C(=O)NC(C(=O)NC(C(=O)NC(C(=O)NC(C(=O)NC(C(=O)NC(C(=O)NC(C(=O)NC(C(=O)NCC(=O)NC(C(=O)NC(C(=O)NC(C(=O)NC(C(=O)NCC(=O)NC(C(=O)NC(C(=O)NC(C(=O)NCC(=O)NC(C(=O)NCC(=O)NC(C(=O)NC(C(=O)NC(C(=O)NC(C(=O)NC(C(=O)NC(C(=O)N%10C(C(=O)NC(C(=O)NC(C(=O)NC(C(=O)N%11C(C(=O)NC(C(=O)NC(C(=O)NC(C(=O)NC(C(=O)NC(C(=O)NC(C(=O)NC(C(=O)NCC(=O)NC(C(=O)NC(C(=O)NC(C(=O)NCC(=O)NC(C(=O)NC(C(=O)NC(C(=O)NC(C(=O)N%12C(C(=O)NC(C(=O)NCC(=O)NC(C(=O)NC(C(=O)NC(C(=O)NC(C(=O)NC)CC(=O)N)Cc%13ccc(O)cc%13)CO)CCCNC(=[NH2+])N)CC(=O)[O-])CCC%12)Cc%12ccc(O)cc%12)CC(C)C)Cc%12ccc(O)cc%12)Cc%12ccccc%12)CCC(=O)[O-])C)CO)CC(=O)[O-])C(CC)C)CC(C)C)C)CCC(=O)N)Cc%12ccccc%12)CC(C)C)CCC%11)CCCC[NH3+])CC(=O)N)Cc%11[nH]cnc%11)CCC%10)C(CC)C)C(O)C)CCC(=O)N)CC(C)C)C(CC)C)CC(=O)N)CC(=O)[O-])C(O)C)C(C)C)Cc%10ccc(O)cc%10)C(CC)C)C)Cc%10c%11c([nH]c%10)cccc%11)CCC(=O)N)CC(C)C)CCCNC(=[NH2+])N)C(O)C)CS)CO)CC(C)C)CCCNC(=[NH2+])N)Cc%10ccccc%10)C(CC)C)Cc%10ccc(O)cc%10)CO)CCC9)CCCC[NH3+])C(O)C)CO)Cc9ccc(O)cc9)CCCC[NH3+])CCC(=O)N)CC(C)C)CCCNC(=[NH2+])N)C)CCCC[NH3+])C(C)C)CCC(=O)[O-])CC(=O)[O-])Cc9ccc(O)cc9)C(O)C)CC(C)C)Cc9ccccc9)C)CCSC)Cc9ccc(O)cc9)CCC8)Cc8nc[nH]c8)C(O)C)C(C)C)C)CC(C)C)Cc8ccccc8)CC(=O)N)Cc8c9c([nH]c8)cccc9)CC(=O)N)CCCNC(=[NH2+])N)CC(C)C)C(CC)C)CO)Cc8c9c([nH]c8)cccc9)CCC7)CCC(=O)N)Cc7ccccc7)CC(C)C)CCCNC(=[NH2+])N)C(O)C)Cc7ccccc7)C(CC)C)CC(=O)[O-])Cc7ccccc7)CCC(=O)[O-])Cc7ccccc7)C(C)C)CO)C(CC)C)Cc7ccc(O)cc7)CC(=O)[O-])CC(=O)N)CS)C(O)C)CC(C)C)CC(=O)[O-])C(CC)C)C(O)C)CO)CCCC[NH3+])CC(C)C)C)CCSC)C)CCC(=O)[O-])CC(C)C)CO)CO)C(CC)C)CCC(=O)N)Cc7nc[nH]c7)C(C)C)CCC(=O)[O-])Cc7nc[nH]c7)CC(C)C)CS)CCC(=O)N)CCCNC(=[NH2+])N)Cc7ccccc7)C(C)C)CCCC[NH3+])Cc7c8c([nH]c7)cccc8)CCC6)C(C)C)C(CC)C)C(O)C)CCCC[NH3+])CC(=O)[O-])Cc6ccccc6)Cc6ccccc6)CCCC[NH3+])CCCNC(=[NH2+])N)Cc6c7c([nH]c6)cccc7)Cc6ccccc6)CCC(=O)[O-])C)C)CC(=O)[O-])C)CCCC[NH3+])C(O)C)C(CC)C)CCCNC(=[NH2+])N)Cc6ccccc6)CC(=O)N)CC(=O)[O-])CCC(=O)N)Cc6ccccc6)CCC(=O)N)CC(=O)N)CCC5)Cc5ccccc5)C(CC)C)C)CCCC[NH3+])C(CC)C)CCC(=O)[O-])C)CC(C)C)CCSC)Cc5nc[nH]c5)CO)Cc5ccccc5)C(CC)C)CC(C)C)CO)CC(C)C)CCCC[NH3+])C(O)C)CC(C)C)CC(=O)N)CCCNC(=[NH2+])N)CCCNC(=[NH2+])N)CC(=O)[O-])CCC(=O)N)CO)CCC(=O)N)CCC(=O)[O-])CCC(=O)[O-])Cc5ccc(O)cc5)CCSC)CCCNC(=[NH2+])N)CCC(=O)[O-])CCCC[NH3+])CCC(=O)[O-])CCCC[NH3+])Cc5ccccc5)CC(C)C)CCCNC(=[NH2+])N)C(CC)C)C)CCCNC(=[NH2+])N)CCCC[NH3+])CO)CCCC[NH3+])CCCC[NH3+])CCSC)CC(C)C)CO)CC(=O)[O-])C(CC)C)Cc5ccc(O)cc5)C(CC)C)CCCC[NH3+])Cc5ccccc5)Cc5ccc(O)cc5)CCC(=O)[O-])CC(=O)N)CCC(=O)[O-])CO)CC(C)C)CCC(=O)N)C)CC(C)C)CCCC[NH3+])CCC(=O)N)CC(=O)N)CC(=O)[O-])CC(=O)[O-])Cc5ccc(O)cc5)CCCC[NH3+])CO)CC(C)C)C(CC)C)CC(C)C)CCCNC(=[NH2+])N)CC(C)C)Cc5nc[nH]c5)CCC(=O)N)Cc5ccc(O)cc5)C(O)C)CC(=O)[O-])CCC4)CC(C)C)C(CC)C)CC(=O)[O-])CC(C)C)C(CC)C)Cc4ccc(O)cc4)CCC3)CCC2)CO)CC(=O)N)CCCC[NH3+])CC(C)C)CCC(=O)N)CC(C)C)CCCC[NH3+])CCC1)CC(=O)N)CCC(=O)N)CS)CC(C)C)CCCNC(=[NH2+])N)C(C)C)C(C)C)C)CC(=O)[O-])C.OCCO.[UH+3].[Zn+2].[Zn+2].O.O.O.O.O.O.O.O.O.O.O.O.O.O.O.O.O.O.O.O.O.O.O.O.O.O.O.O.O.O.O.O.O.O.O.O.O.O.O.O.O.O.O.O.O.O.O.O.O.O.O.O.O.O.O.O.O.O.O.O.O.O.O.O.O.O.O.O.O.O.O.O.O.O.O.O.O.O.O.O.O.O.O.O.O.O.O.O.O.O.O.O.O.O.O.O.O.O.O.O.O.O.O.O.O.O.O.O.O.O.O.O.O.O.O.O.O.O.O.O.O.O.O.O.O.O.O.O.O.O.O.O.O.O.O.O.O.O.O.O.O.O

>  <rseq>
1

>  <mseq>
38

>  <S>
-9.3087626

>  <rmsd_refine>
4.4747505

>  <E_conf>
77.56028

>  <E_place>
-70.024536

>  <E_score1>
-11.527957

>  <E_refine>
-52.622906

>  <E_score2>
-9.3087626

>  <Field_2>
KH08

>  <pseq>
38

>  <%C>
99.867546

>  <a_heavy>
35

>  <h_logP>
4.0308056

>  <Weight>
504.53699

>  <E_orig>
3.2

>  <PLIF_raw>
[[34,9,7,7,7,7,7,7,8,8,8,8,8,8,9,9,9,9,9,9,10,10,10,10,10,10,12,12,12,12,12,12],[4205,6288,5139,5143,5141,5137,5134,5135,5139,5143,5141,5137,5134,5135,5139,5143,5141,5137,5134,5135,5139,5143,5141,5137,5134,5135,5139,5143,5141,5137,5134,5135],[289,220669,363,363,363,363,363,363,363,363,363,363,363,363,363,363,363,363,363,363,363,363,363,363,363,363,363,363,363,363,363,363],[1,6,10,10,10,10,10,10,10,10,10,10,10,10,10,10,10,10,10,10,10,10,10,10,10,10,10,10,10,10,10,10],[0.5,2.8,1e-005,1e-005,1e-005,1e-005,1e-005,1e-005,1e-005,1e-005,1e-005,1e-005,1e-005,1e-005,1e-005,1e-005,1e-005,1e-005,1e-005,1e-005,1e-005,1e-005,1e-005,1e-005,1e-005,1e-005,1e-005,1e-005,1e-005,1e-005,1e-005,1e-005]]

>  <FP:PLIF>
36 28 39

>  <PLIF_ligidx>
[34,9,9]

$$$$

  MOE2020           3D

 54 58  0  0  1  0  0  0  0  0999 V2000
    5.4470    3.9890   14.9330 C   0  0  0  0  0  0  0  0  0  0  0  0
    5.9440    4.1040   13.9690 H   0  0  0  0  0  0  0  0  0  0  0  0
    4.3800    3.8870   14.7630 H   0  0  0  0  0  0  0  0  0  0  0  0
    5.8160    3.0850   15.4170 H   0  0  0  0  0  0  0  0  0  0  0  0
    5.7140    5.2190   15.8090 C   0  0  2  0  0  0  0  0  0  0  0  0
    7.2250    5.3260   16.0580 C   0  0  0  0  0  0  0  0  0  0  0  0
    7.7250    5.4650   15.0990 H   0  0  0  0  0  0  0  0  0  0  0  0
    7.5930    4.3940   16.4840 H   0  0  0  0  0  0  0  0  0  0  0  0
    7.5970    6.4950   16.9470 C   0  0  0  0  0  0  0  0  0  0  0  0
    7.4220    7.7470   16.6810 N   0  0  0  0  0  0  0  0  0  0  0  0
    7.9460    8.4730   17.7130 N   0  0  0  0  0  0  0  0  0  0  0  0
    8.4080    7.6260   18.5640 C   0  0  0  0  0  0  0  0  0  0  0  0
    8.8980    7.8230   19.4790 H   0  0  0  0  0  0  0  0  0  0  0  0
    8.1820    6.3880   18.1430 N   0  0  0  0  0  0  0  0  0  0  0  0
    8.4680    5.1890   18.9200 C   0  0  0  0  0  0  0  0  0  0  0  0
    9.2400    5.3600   19.6560 H   0  0  0  0  0  0  0  0  0  0  0  0
    8.8030    4.3650   18.3060 H   0  0  0  0  0  0  0  0  0  0  0  0
    7.5910    4.8600   19.4580 H   0  0  0  0  0  0  0  0  0  0  0  0
    4.9540    5.1750   17.1340 C   0  0  0  0  0  0  0  0  0  0  0  0
    5.2000    4.1270   18.0180 C   0  0  0  0  0  0  0  0  0  0  0  0
    5.8700    3.3530   17.7550 H   0  0  0  0  0  0  0  0  0  0  0  0
    4.5870    4.0940   19.2640 C   0  0  0  0  0  0  0  0  0  0  0  0
    4.7920    3.2940   19.9240 H   0  0  0  0  0  0  0  0  0  0  0  0
    3.7210    5.1060   19.6570 C   0  0  0  0  0  0  0  0  0  0  0  0
    3.3090    5.0570   20.6260 H   0  0  0  0  0  0  0  0  0  0  0  0
    3.4240    6.1620   18.7860 C   0  0  0  0  0  0  0  0  0  0  0  0
    2.5030    7.2080   19.2070 N   0  0  0  0  0  0  0  0  0  0  0  0
    2.3980    8.5870   18.6380 C   0  0  0  0  0  0  0  0  0  0  0  0
    3.3650    9.0660   18.5740 H   0  0  0  0  0  0  0  0  0  0  0  0
    1.9730    8.5640   17.6440 H   0  0  0  0  0  0  0  0  0  0  0  0
    1.4760    9.3280   19.5780 C   0  0  0  0  0  0  0  0  0  0  0  0
    1.0480    8.4330   20.5290 C   0  0  0  0  0  0  0  0  0  0  0  0
    0.1840    8.8600   21.5300 C   0  0  0  0  0  0  0  0  0  0  0  0
   -0.1710    8.1900   22.2680 H   0  0  0  0  0  0  0  0  0  0  0  0
   -0.2060   10.1920   21.5370 C   0  0  0  0  0  0  0  0  0  0  0  0
   -0.8580   10.5550   22.2910 H   0  0  0  0  0  0  0  0  0  0  0  0
    0.2130   11.0500   20.6010 N   0  0  0  0  0  0  0  0  0  0  0  0
    1.0290   10.6480   19.6130 C   0  0  0  0  0  0  0  0  0  0  0  0
    1.4430   11.6550   18.5530 C   0  0  0  0  0  0  0  0  0  0  0  0
    1.6430   11.1350   17.6260 H   0  0  0  0  0  0  0  0  0  0  0  0
    0.5350   12.9020   18.3080 C   0  0  0  0  0  0  0  0  0  0  0  0
   -0.0630   12.8730   17.4110 H   0  0  0  0  0  0  0  0  0  0  0  0
   -0.1230   13.1620   19.1260 H   0  0  0  0  0  0  0  0  0  0  0  0
    1.8050   13.7900   18.2620 C   0  0  0  0  0  0  0  0  0  0  0  0
    2.1410   14.0300   17.2640 H   0  0  0  0  0  0  0  0  0  0  0  0
    1.7610   14.7010   18.8420 H   0  0  0  0  0  0  0  0  0  0  0  0
    2.6040   12.6280   18.8970 C   0  0  0  0  0  0  0  0  0  0  0  0
    2.7690   12.7550   19.9590 H   0  0  0  0  0  0  0  0  0  0  0  0
    3.5470   12.4070   18.4190 H   0  0  0  0  0  0  0  0  0  0  0  0
    1.6060    7.1290   20.2770 C   0  0  0  0  0  0  0  0  0  0  0  0
    1.2860    6.0980   20.8460 O   0  0  0  0  0  0  0  0  0  0  0  0
    4.0520    6.1700   17.5270 C   0  0  0  0  0  0  0  0  0  0  0  0
    3.7850    7.1520   16.6580 F   0  0  0  0  0  0  0  0  0  0  0  0
    5.4020    6.0990   15.2470 H   0  0  0  0  0  0  0  0  0  0  0  0
  1  2  1  0  0  0  0
  1  3  1  0  0  0  0
  1  4  1  0  0  0  0
  1  5  1  0  0  0  0
  5  6  1  0  0  0  0
  5 19  1  0  0  0  0
  5 54  1  0  0  0  0
  6  7  1  0  0  0  0
  6  8  1  0  0  0  0
  6  9  1  0  0  0  0
  9 10  2  0  0  0  0
  9 14  1  0  0  0  0
 10 11  1  0  0  0  0
 11 12  2  0  0  0  0
 12 13  1  0  0  0  0
 12 14  1  0  0  0  0
 14 15  1  0  0  0  0
 15 16  1  0  0  0  0
 15 17  1  0  0  0  0
 15 18  1  0  0  0  0
 19 20  1  0  0  0  0
 19 52  2  0  0  0  0
 20 21  1  0  0  0  0
 20 22  2  0  0  0  0
 22 23  1  0  0  0  0
 22 24  1  0  0  0  0
 24 25  1  0  0  0  0
 24 26  2  0  0  0  0
 26 27  1  0  0  0  0
 26 52  1  0  0  0  0
 27 28  1  0  0  0  0
 27 50  1  0  0  0  0
 28 29  1  0  0  0  0
 28 30  1  0  0  0  0
 28 31  1  0  0  0  0
 31 32  1  0  0  0  0
 31 38  2  0  0  0  0
 32 33  2  0  0  0  0
 32 50  1  0  0  0  0
 33 34  1  0  0  0  0
 33 35  1  0  0  0  0
 35 36  1  0  0  0  0
 35 37  2  0  0  0  0
 37 38  1  0  0  0  0
 38 39  1  0  0  0  0
 39 40  1  0  0  0  0
 39 41  1  0  0  0  0
 39 47  1  0  0  0  0
 41 42  1  0  0  0  0
 41 43  1  0  0  0  0
 41 44  1  0  0  0  0
 44 45  1  0  0  0  0
 44 46  1  0  0  0  0
 44 47  1  0  0  0  0
 47 48  1  0  0  0  0
 47 49  1  0  0  0  0
 50 51  2  0  0  0  0
 52 53  1  0  0  0  0
M  END
>  <receptor>
S(=O)(=O)([O-])[O-].S(CCC(NC(=O)C(NC(=O)C(NC(=O)CNC(=O)C(NC(=O)C1N(C(=O)C(NC(=O)C(NC(=O)C(NC(=O)C(NC(=O)C(NC(=O)C(NC(=O)C(NC(=O)C(NC(=O)C(NC(=O)C(NC(=O)C(NC(=O)C(NC(=O)C(NC(=O)C(NC(=O)C(NC(=O)C(NC(=O)C(NC(=O)C(NC(=O)C(NC(=O)CNC(=O)C(NC(=O)C(NC(=O)C(NC(=O)C(NC(=O)C(NC(=O)C(NC(=O)C(NC(=O)C(NC(=O)C(NC(=O)C(NC(=O)C(NC(=O)C(NC(=O)C(NC(=O)C)CCCC[NH3+])C(C)C)C(O)C)CCC(=O)N)CCC(=O)[O-])CCC(=O)N)Cc2ccccc2)CCC(=O)[O-])CC(C)C)Cc2ccc(O)cc2)CS)CCC(=O)[O-])CCSC)CO)C(O)C)Cc2ccccc2)CCC(=O)N)CC(C)C)C[S-])CCCC[NH3+])C(CC)C)C[S-])C)CCC(=O)[O-])CC(=O)N)CC(=O)[O-])CCCC[NH3+])CC(=O)[O-])C(C)C)CCCC[NH3+])C(CC)C)CCC(=O)[O-])CCC1)C[S-])Cc1nc[n-]c1)CC(C)C)C(=O)NC(C(=O)NC(C(=O)NC(C(=O)NC(C(=O)NC(C(=O)NC(C(=O)NC(C(=O)NC(C(=O)NC(C(=O)NC(C(=O)NC(C(=O)NC(C(=O)NCC(=O)NC(C(=O)NCC(=O)NC(C(=O)N1C(C(=O)NC(C(=O)NC(C(=O)NC(C(=O)NC(C(=O)NC(C(=O)NC(C(=O)NC(C(=O)NCC(=O)NC(C(=O)NC(C(=O)N2C(C(=O)NC(C(=O)NC(C(=O)NC(C(=O)NC(C(=O)N3C(C(=O)NC(C(=O)NC(C(=O)[O-])CC(=O)[O-])Cc4ccccc4)CCC3)CC(=O)[O-])C(C)C)C(CC)C)C(CC)C)CCC2)CCC(=O)[O-])C(O)C)CCCC[NH3+])C(CC)C)CCC(=O)[O-])CS)CCCNC(=[NH2+])N)C[S-])Cc2ccccc2)CCC1)C[S-])CCC(=O)N)CC(=O)[O-])CO)CCC(=O)[O-])CCC(=O)N)Cc1c2c([nH]c1)cccc2)C)C(O)C)CC(C)C)C[S-])CO)C(O)C)C[S-])C.S(CCC(NC(=O)C(NC(=O)C(NC(=O)C(NC(=O)C(NC(=O)C(NC(=O)C(NC(=O)C(NC(=O)C(NC(=O)C(NC(=O)C(NC(=O)C(NC(=O)C(NC(=O)C(NC(=O)C(NC(=O)C(NC(=O)C[NH3+])CCC(=O)N)C)C)C)CC(=O)[O-])CCCNC(=[NH2+])N)CCCNC(=[NH2+])N)C(O)C)C(C)C)CCC(=O)[O-])CCCC[NH3+])C(O)C)Cc1c2c([nH]c1)cccc2)C)CC(C)C)C(=O)NC(C(=O)NC(C(=O)NC(C(=O)NC(C(=O)NC(C(=O)NC(C(=O)NC(C(=O)NC(C(=O)NC(C(=O)N1C(C(=O)NC(C(=O)NC(C(=O)NC(C(=O)NC(C(=O)NC(C(=O)NC(C(=O)NC(C(=O)N2C(C(=O)N3C(C(=O)NC(C(=O)NC(C(=O)NC(C(=O)NC(C(=O)NC(C(=O)NC(C(=O)N4C(C(=O)NC(C(=O)NC(C(=O)NC(C(=O)NC(C(=O)NC(C(=O)NC(C(=O)NC(C(=O)NC(C(=O)NC(C(=O)NC(C(=O)NC(C(=O)NC(C(=O)NC(C(=O)NC(C(=O)NC(C(=O)NC(C(=O)NC(C(=O)NC(C(=O)NC(C(=O)NC(C(=O)NC(C(=O)NC(C(=O)NC(C(=O)NC(C(=O)NC(C(=O)NC(C(=O)NC(C(=O)NC(C(=O)NC(C(=O)NC(C(=O)NC(C(=O)NC(C(=O)NC(C(=O)NC(C(=O)NC(C(=O)NC(C(=O)NC(C(=O)NC(C(=O)NC(C(=O)NC(C(=O)NC(C(=O)NC(C(=O)NC(C(=O)NC(C(=O)NC(C(=O)NC(C(=O)NC(C(=O)NC(C(=O)NCC(=O)NC(C(=O)NC(C(=O)NC(C(=O)NC(C(=O)NC(C(=O)NC(C(=O)NC(C(=O)NC(C(=O)NC(C(=O)NC(C(=O)NC(C(=O)NC(C(=O)NC(C(=O)NC(C(=O)NC(C(=O)NC(C(=O)NC(C(=O)NC(C(=O)NC(C(=O)NC(C(=O)NC(C(=O)NC(C(=O)NC(C(=O)NC(C(=O)NC(C(=O)NC(C(=O)NC(C(=O)NC(C(=O)NC(C(=O)NC(C(=O)NC(C(=O)NC(C(=O)NC(C(=O)N5C(C(=O)NC(C(=O)NCC(=O)NC(C(=O)NC(C(=O)NC(C(=O)NCC(=O)NC(C(=O)NC(C(=O)NC(C(=O)NC(C(=O)NC(C(=O)NC(C(=O)NC(C(=O)NC(C(=O)NC(C(=O)NC(C(=O)NC(C(=O)NC(C(=O)NC(C(=O)NC(C(=O)NC(C(=O)NC(C(=O)NC(C(=O)NC(C(=O)NCC(=O)NC(C(=O)NC(C(=O)NC(C(=O)NC(C(=O)NC(C(=O)N6C(C(=O)NC(C(=O)NC(C(=O)NC(C(=O)NC(C(=O)NC(C(=O)NC(C(=O)NC(C(=O)NC(C(=O)NC(C(=O)NC(C(=O)NC(C(=O)NC(C(=O)NC(C(=O)NC(C(=O)NC(C(=O)NC(C(=O)NCC(=O)NC(C(=O)NC(C(=O)NC(C(=O)NC(C(=O)NC(C(=O)NC(C(=O)NC(C(=O)NC(C(=O)NC(C(=O)NC(C(=O)NC(C(=O)NC(C(=O)NC(C(=O)NC(C(=O)NC(C(=O)NC(C(=O)NC(C(=O)NC(C(=O)NC(C(=O)NC(C(=O)NC(C(=O)NC(C(=O)NC(C(=O)NC(C(=O)NC(C(=O)NC(C(=O)NC(C(=O)NC(C(=O)NC(C(=O)NC(C(=O)NC(C(=O)N7C(C(=O)NC(C(=O)NCC(=O)NC(C(=O)NC(C(=O)NC(C(=O)NC(C(=O)NC(C(=O)NC(C(=O)NC(C(=O)NC(C(=O)NC(C(=O)NC(C(=O)NC(C(=O)NC(C(=O)NC(C(=O)N8C(C(=O)NCC(=O)NC(C(=O)NC(C(=O)NC(C(=O)NC(C(=O)NC(C(=O)NC(C(=O)NC(C(=O)NC(C(=O)NC(C(=O)NC(C(=O)NC(C(=O)NC(C(=O)NC(C(=O)NC(C(=O)NC(C(=O)NC(C(=O)NC(C(=O)NC(C(=O)NC(C(=O)NC(C(=O)N9C(C(=O)NCC(=O)NC(C(=O)NC(C(=O)NC(C(=O)NC(C(=O)NC(C(=O)NC(C(=O)NC(C(=O)NC(C(=O)NC(C(=O)NC(C(=O)NC(C(=O)NCC(=O)NC(C(=O)NC(C(=O)NC(C(=O)NC(C(=O)NCC(=O)NC(C(=O)NC(C(=O)NC(C(=O)NCC(=O)NC(C(=O)NCC(=O)NC(C(=O)NC(C(=O)NC(C(=O)NC(C(=O)NC(C(=O)NC(C(=O)N%10C(C(=O)NC(C(=O)NC(C(=O)NC(C(=O)N%11C(C(=O)NC(C(=O)NC(C(=O)NC(C(=O)NC(C(=O)NC(C(=O)NC(C(=O)NC(C(=O)NCC(=O)NC(C(=O)NC(C(=O)NC(C(=O)NCC(=O)NC(C(=O)NC(C(=O)NC(C(=O)NC(C(=O)N%12C(C(=O)NC(C(=O)NCC(=O)NC(C(=O)NC(C(=O)NC(C(=O)NC(C(=O)NC)CC(=O)N)Cc%13ccc(O)cc%13)CO)CCCNC(=[NH2+])N)CC(=O)[O-])CCC%12)Cc%12ccc(O)cc%12)CC(C)C)Cc%12ccc(O)cc%12)Cc%12ccccc%12)CCC(=O)[O-])C)CO)CC(=O)[O-])C(CC)C)CC(C)C)C)CCC(=O)N)Cc%12ccccc%12)CC(C)C)CCC%11)CCCC[NH3+])CC(=O)N)Cc%11[nH]cnc%11)CCC%10)C(CC)C)C(O)C)CCC(=O)N)CC(C)C)C(CC)C)CC(=O)N)CC(=O)[O-])C(O)C)C(C)C)Cc%10ccc(O)cc%10)C(CC)C)C)Cc%10c%11c([nH]c%10)cccc%11)CCC(=O)N)CC(C)C)CCCNC(=[NH2+])N)C(O)C)CS)CO)CC(C)C)CCCNC(=[NH2+])N)Cc%10ccccc%10)C(CC)C)Cc%10ccc(O)cc%10)CO)CCC9)CCCC[NH3+])C(O)C)CO)Cc9ccc(O)cc9)CCCC[NH3+])CCC(=O)N)CC(C)C)CCCNC(=[NH2+])N)C)CCCC[NH3+])C(C)C)CCC(=O)[O-])CC(=O)[O-])Cc9ccc(O)cc9)C(O)C)CC(C)C)Cc9ccccc9)C)CCSC)Cc9ccc(O)cc9)CCC8)Cc8nc[nH]c8)C(O)C)C(C)C)C)CC(C)C)Cc8ccccc8)CC(=O)N)Cc8c9c([nH]c8)cccc9)CC(=O)N)CCCNC(=[NH2+])N)CC(C)C)C(CC)C)CO)Cc8c9c([nH]c8)cccc9)CCC7)CCC(=O)N)Cc7ccccc7)CC(C)C)CCCNC(=[NH2+])N)C(O)C)Cc7ccccc7)C(CC)C)CC(=O)[O-])Cc7ccccc7)CCC(=O)[O-])Cc7ccccc7)C(C)C)CO)C(CC)C)Cc7ccc(O)cc7)CC(=O)[O-])CC(=O)N)CS)C(O)C)CC(C)C)CC(=O)[O-])C(CC)C)C(O)C)CO)CCCC[NH3+])CC(C)C)C)CCSC)C)CCC(=O)[O-])CC(C)C)CO)CO)C(CC)C)CCC(=O)N)Cc7nc[nH]c7)C(C)C)CCC(=O)[O-])Cc7nc[nH]c7)CC(C)C)CS)CCC(=O)N)CCCNC(=[NH2+])N)Cc7ccccc7)C(C)C)CCCC[NH3+])Cc7c8c([nH]c7)cccc8)CCC6)C(C)C)C(CC)C)C(O)C)CCCC[NH3+])CC(=O)[O-])Cc6ccccc6)Cc6ccccc6)CCCC[NH3+])CCCNC(=[NH2+])N)Cc6c7c([nH]c6)cccc7)Cc6ccccc6)CCC(=O)[O-])C)C)CC(=O)[O-])C)CCCC[NH3+])C(O)C)C(CC)C)CCCNC(=[NH2+])N)Cc6ccccc6)CC(=O)N)CC(=O)[O-])CCC(=O)N)Cc6ccccc6)CCC(=O)N)CC(=O)N)CCC5)Cc5ccccc5)C(CC)C)C)CCCC[NH3+])C(CC)C)CCC(=O)[O-])C)CC(C)C)CCSC)Cc5nc[nH]c5)CO)Cc5ccccc5)C(CC)C)CC(C)C)CO)CC(C)C)CCCC[NH3+])C(O)C)CC(C)C)CC(=O)N)CCCNC(=[NH2+])N)CCCNC(=[NH2+])N)CC(=O)[O-])CCC(=O)N)CO)CCC(=O)N)CCC(=O)[O-])CCC(=O)[O-])Cc5ccc(O)cc5)CCSC)CCCNC(=[NH2+])N)CCC(=O)[O-])CCCC[NH3+])CCC(=O)[O-])CCCC[NH3+])Cc5ccccc5)CC(C)C)CCCNC(=[NH2+])N)C(CC)C)C)CCCNC(=[NH2+])N)CCCC[NH3+])CO)CCCC[NH3+])CCCC[NH3+])CCSC)CC(C)C)CO)CC(=O)[O-])C(CC)C)Cc5ccc(O)cc5)C(CC)C)CCCC[NH3+])Cc5ccccc5)Cc5ccc(O)cc5)CCC(=O)[O-])CC(=O)N)CCC(=O)[O-])CO)CC(C)C)CCC(=O)N)C)CC(C)C)CCCC[NH3+])CCC(=O)N)CC(=O)N)CC(=O)[O-])CC(=O)[O-])Cc5ccc(O)cc5)CCCC[NH3+])CO)CC(C)C)C(CC)C)CC(C)C)CCCNC(=[NH2+])N)CC(C)C)Cc5nc[nH]c5)CCC(=O)N)Cc5ccc(O)cc5)C(O)C)CC(=O)[O-])CCC4)CC(C)C)C(CC)C)CC(=O)[O-])CC(C)C)C(CC)C)Cc4ccc(O)cc4)CCC3)CCC2)CO)CC(=O)N)CCCC[NH3+])CC(C)C)CCC(=O)N)CC(C)C)CCCC[NH3+])CCC1)CC(=O)N)CCC(=O)N)CS)CC(C)C)CCCNC(=[NH2+])N)C(C)C)C(C)C)C)CC(=O)[O-])C.OCCO.[UH+3].[Zn+2].[Zn+2].O.O.O.O.O.O.O.O.O.O.O.O.O.O.O.O.O.O.O.O.O.O.O.O.O.O.O.O.O.O.O.O.O.O.O.O.O.O.O.O.O.O.O.O.O.O.O.O.O.O.O.O.O.O.O.O.O.O.O.O.O.O.O.O.O.O.O.O.O.O.O.O.O.O.O.O.O.O.O.O.O.O.O.O.O.O.O.O.O.O.O.O.O.O.O.O.O.O.O.O.O.O.O.O.O.O.O.O.O.O.O.O.O.O.O.O.O.O.O.O.O.O.O.O.O.O.O.O.O.O.O.O.O.O.O.O.O.O.O.O.O.O

>  <rseq>
1

>  <mseq>
39

>  <S>
-9.1311884

>  <rmsd_refine>
1.5910828

>  <E_conf>
29.057423

>  <E_place>
-80.709328

>  <E_score1>
-12.002842

>  <E_refine>
-51.095833

>  <E_score2>
-9.1311884

>  <Field_2>
KH09

>  <pseq>
39

>  <%C>
97.935158

>  <a_heavy>
30

>  <h_logP>
3.7556057

>  <Weight>
405.47699

>  <E_orig>
1.4684814

>  <PLIF_raw>
[[12,10,11,9,9,9,9,9,9,10,10,10,10,10,10,11,11,11,11,11,11,12,12,12,12,12,12,14,14,14,14,14,14],[5130,3722,6288,5143,5141,5137,5134,5135,5139,5143,5141,5137,5134,5135,5139,5143,5141,5137,5134,5135,5139,5143,5141,5137,5134,5135,5139,5143,5141,5137,5134,5135,5139],[363,260,220669,363,363,363,363,363,363,363,363,363,363,363,363,363,363,363,363,363,363,363,363,363,363,363,363,363,363,363,363,363,363],[3,2,6,10,10,10,10,10,10,10,10,10,10,10,10,10,10,10,10,10,10,10,10,10,10,10,10,10,10,10,10,10,10],[0.6,0.6,2.5,1e-005,1e-005,1e-005,1e-005,1e-005,1e-005,1e-005,1e-005,1e-005,1e-005,1e-005,1e-005,1e-005,1e-005,1e-005,1e-005,1e-005,1e-005,1e-005,1e-005,1e-005,1e-005,1e-005,1e-005,1e-005,1e-005,1e-005,1e-005,1e-005,1e-005]]

>  <FP:PLIF>
26 31 28 39

>  <PLIF_ligidx>
[10,12,11,11]

$$$$

  MOE2020           3D

 54 57  0  0  1  0  0  0  0  0999 V2000
    5.2630    3.7010   15.6250 C   0  0  0  0  0  0  0  0  0  0  0  0
    5.5010    3.6300   14.5630 H   0  0  0  0  0  0  0  0  0  0  0  0
    4.3520    3.1370   15.8210 H   0  0  0  0  0  0  0  0  0  0  0  0
    6.0780    3.2680   16.1980 H   0  0  0  0  0  0  0  0  0  0  0  0
    5.0310    5.1690   16.0080 C   0  0  2  0  0  0  0  0  0  0  0  0
    6.2610    6.0480   15.7130 C   0  0  0  0  0  0  0  0  0  0  0  0
    6.9400    5.5210   15.0420 H   0  0  0  0  0  0  0  0  0  0  0  0
    5.8900    6.9160   15.1660 H   0  0  0  0  0  0  0  0  0  0  0  0
    7.0650    6.5900   16.8800 C   0  0  0  0  0  0  0  0  0  0  0  0
    7.1900    7.8380   17.2020 N   0  0  0  0  0  0  0  0  0  0  0  0
    8.0360    7.9100   18.2790 N   0  0  0  0  0  0  0  0  0  0  0  0
    8.3790    6.6990   18.5620 C   0  0  0  0  0  0  0  0  0  0  0  0
    9.0220    6.3540   19.3290 H   0  0  0  0  0  0  0  0  0  0  0  0
    7.8080    5.8560   17.7130 N   0  0  0  0  0  0  0  0  0  0  0  0
    8.0250    4.4210   17.7170 C   0  0  0  0  0  0  0  0  0  0  0  0
    8.8460    4.1390   18.3610 H   0  0  0  0  0  0  0  0  0  0  0  0
    7.1580    3.8880   18.0720 H   0  0  0  0  0  0  0  0  0  0  0  0
    8.2620    4.0560   16.7300 H   0  0  0  0  0  0  0  0  0  0  0  0
    4.3900    5.3670   17.3810 C   0  0  0  0  0  0  0  0  0  0  0  0
    4.4210    4.3750   18.3650 C   0  0  0  0  0  0  0  0  0  0  0  0
    4.9450    3.4690   18.2090 H   0  0  0  0  0  0  0  0  0  0  0  0
    3.7340    4.5480   19.5610 C   0  0  0  0  0  0  0  0  0  0  0  0
    3.7420    3.7720   20.2810 H   0  0  0  0  0  0  0  0  0  0  0  0
    3.0240    5.7150   19.8030 C   0  0  0  0  0  0  0  0  0  0  0  0
    2.4960    5.8340   20.7140 H   0  0  0  0  0  0  0  0  0  0  0  0
    2.9950    6.7200   18.8340 C   0  0  0  0  0  0  0  0  0  0  0  0
    2.1890    7.8580   19.1500 N   0  0  0  0  0  0  0  0  0  0  0  0
    1.7430    7.8310   20.0790 H   0  0  0  0  0  0  0  0  0  0  0  0
    1.7790    8.9050   18.3320 C   0  0  0  0  0  0  0  0  0  0  0  0
    2.3230    9.0990   17.2580 O   0  0  0  0  0  0  0  0  0  0  0  0
    0.6630    9.7250   18.7930 C   0  0  0  0  0  0  0  0  0  0  0  0
    0.6440   10.2840   20.0760 C   0  0  0  0  0  0  0  0  0  0  0  0
    1.4590   10.1240   20.7340 H   0  0  0  0  0  0  0  0  0  0  0  0
   -0.4400   11.0470   20.4840 C   0  0  0  0  0  0  0  0  0  0  0  0
   -0.4820   11.6490   21.8800 C   0  0  1  0  0  0  0  0  0  0  0  0
   -1.1760   13.0290   22.0740 C   0  0  0  0  0  0  0  0  0  0  0  0
   -0.6080   13.7240   22.6760 H   0  0  0  0  0  0  0  0  0  0  0  0
   -1.4880   13.5400   21.1740 H   0  0  0  0  0  0  0  0  0  0  0  0
   -2.2970   12.2930   22.8460 C   0  0  0  0  0  0  0  0  0  0  0  0
   -2.4720   12.6300   23.8570 H   0  0  0  0  0  0  0  0  0  0  0  0
   -3.2420   12.2170   22.3270 H   0  0  0  0  0  0  0  0  0  0  0  0
   -1.5030   11.0720   22.7570 O   0  0  0  0  0  0  0  0  0  0  0  0
   -1.4870   11.2130   19.5830 C   0  0  0  0  0  0  0  0  0  0  0  0
   -2.3390   11.7780   19.8600 H   0  0  0  0  0  0  0  0  0  0  0  0
   -1.4330   10.6260   18.3180 C   0  0  0  0  0  0  0  0  0  0  0  0
   -2.6200   10.7440   17.3600 C   0  0  0  0  0  0  0  0  0  0  0  0
   -3.2330   11.9310   17.4420 F   0  0  0  0  0  0  0  0  0  0  0  0
   -2.2940   10.5670   16.0670 F   0  0  0  0  0  0  0  0  0  0  0  0
   -3.5570    9.8210   17.6380 F   0  0  0  0  0  0  0  0  0  0  0  0
   -0.3700    9.9070   17.9520 N   0  0  0  0  0  0  0  0  0  0  0  0
    3.6950    6.5490   17.6300 C   0  0  0  0  0  0  0  0  0  0  0  0
    3.6920    7.2940   16.8850 H   0  0  0  0  0  0  0  0  0  0  0  0
    4.2670    5.5100   15.3110 H   0  0  0  0  0  0  0  0  0  0  0  0
    0.4950   11.6040   22.3430 H   0  0  0  0  0  0  0  0  0  0  0  0
  1  2  1  0  0  0  0
  1  3  1  0  0  0  0
  1  4  1  0  0  0  0
  1  5  1  0  0  0  0
  5  6  1  0  0  0  0
  5 19  1  0  0  0  0
  5 53  1  0  0  0  0
  6  7  1  0  0  0  0
  6  8  1  0  0  0  0
  6  9  1  0  0  0  0
  9 10  2  0  0  0  0
  9 14  1  0  0  0  0
 10 11  1  0  0  0  0
 11 12  2  0  0  0  0
 12 13  1  0  0  0  0
 12 14  1  0  0  0  0
 14 15  1  0  0  0  0
 15 16  1  0  0  0  0
 15 17  1  0  0  0  0
 15 18  1  0  0  0  0
 19 20  1  0  0  0  0
 19 51  2  0  0  0  0
 20 21  1  0  0  0  0
 20 22  2  0  0  0  0
 22 23  1  0  0  0  0
 22 24  1  0  0  0  0
 24 25  1  0  0  0  0
 24 26  2  0  0  0  0
 26 27  1  0  0  0  0
 26 51  1  0  0  0  0
 27 28  1  0  0  0  0
 27 29  1  0  0  0  0
 29 30  2  0  0  0  0
 29 31  1  0  0  0  0
 31 32  1  0  0  0  0
 31 50  2  0  0  0  0
 32 33  1  0  0  0  0
 32 34  2  0  0  0  0
 34 35  1  0  0  0  0
 34 43  1  0  0  0  0
 35 36  1  0  0  0  0
 35 42  1  0  0  0  0
 35 54  1  0  0  0  0
 36 37  1  0  0  0  0
 36 38  1  0  0  0  0
 36 39  1  0  0  0  0
 39 40  1  0  0  0  0
 39 41  1  0  0  0  0
 39 42  1  0  0  0  0
 43 44  1  0  0  0  0
 43 45  2  0  0  0  0
 45 46  1  0  0  0  0
 45 50  1  0  0  0  0
 46 47  1  0  0  0  0
 46 48  1  0  0  0  0
 46 49  1  0  0  0  0
 51 52  1  0  0  0  0
M  END
>  <receptor>
S(=O)(=O)([O-])[O-].S(CCC(NC(=O)C(NC(=O)C(NC(=O)CNC(=O)C(NC(=O)C1N(C(=O)C(NC(=O)C(NC(=O)C(NC(=O)C(NC(=O)C(NC(=O)C(NC(=O)C(NC(=O)C(NC(=O)C(NC(=O)C(NC(=O)C(NC(=O)C(NC(=O)C(NC(=O)C(NC(=O)C(NC(=O)C(NC(=O)C(NC(=O)C(NC(=O)C(NC(=O)CNC(=O)C(NC(=O)C(NC(=O)C(NC(=O)C(NC(=O)C(NC(=O)C(NC(=O)C(NC(=O)C(NC(=O)C(NC(=O)C(NC(=O)C(NC(=O)C(NC(=O)C(NC(=O)C)CCCC[NH3+])C(C)C)C(O)C)CCC(=O)N)CCC(=O)[O-])CCC(=O)N)Cc2ccccc2)CCC(=O)[O-])CC(C)C)Cc2ccc(O)cc2)CS)CCC(=O)[O-])CCSC)CO)C(O)C)Cc2ccccc2)CCC(=O)N)CC(C)C)C[S-])CCCC[NH3+])C(CC)C)C[S-])C)CCC(=O)[O-])CC(=O)N)CC(=O)[O-])CCCC[NH3+])CC(=O)[O-])C(C)C)CCCC[NH3+])C(CC)C)CCC(=O)[O-])CCC1)C[S-])Cc1nc[n-]c1)CC(C)C)C(=O)NC(C(=O)NC(C(=O)NC(C(=O)NC(C(=O)NC(C(=O)NC(C(=O)NC(C(=O)NC(C(=O)NC(C(=O)NC(C(=O)NC(C(=O)NC(C(=O)NCC(=O)NC(C(=O)NCC(=O)NC(C(=O)N1C(C(=O)NC(C(=O)NC(C(=O)NC(C(=O)NC(C(=O)NC(C(=O)NC(C(=O)NC(C(=O)NCC(=O)NC(C(=O)NC(C(=O)N2C(C(=O)NC(C(=O)NC(C(=O)NC(C(=O)NC(C(=O)N3C(C(=O)NC(C(=O)NC(C(=O)[O-])CC(=O)[O-])Cc4ccccc4)CCC3)CC(=O)[O-])C(C)C)C(CC)C)C(CC)C)CCC2)CCC(=O)[O-])C(O)C)CCCC[NH3+])C(CC)C)CCC(=O)[O-])CS)CCCNC(=[NH2+])N)C[S-])Cc2ccccc2)CCC1)C[S-])CCC(=O)N)CC(=O)[O-])CO)CCC(=O)[O-])CCC(=O)N)Cc1c2c([nH]c1)cccc2)C)C(O)C)CC(C)C)C[S-])CO)C(O)C)C[S-])C.S(CCC(NC(=O)C(NC(=O)C(NC(=O)C(NC(=O)C(NC(=O)C(NC(=O)C(NC(=O)C(NC(=O)C(NC(=O)C(NC(=O)C(NC(=O)C(NC(=O)C(NC(=O)C(NC(=O)C(NC(=O)C(NC(=O)C[NH3+])CCC(=O)N)C)C)C)CC(=O)[O-])CCCNC(=[NH2+])N)CCCNC(=[NH2+])N)C(O)C)C(C)C)CCC(=O)[O-])CCCC[NH3+])C(O)C)Cc1c2c([nH]c1)cccc2)C)CC(C)C)C(=O)NC(C(=O)NC(C(=O)NC(C(=O)NC(C(=O)NC(C(=O)NC(C(=O)NC(C(=O)NC(C(=O)NC(C(=O)N1C(C(=O)NC(C(=O)NC(C(=O)NC(C(=O)NC(C(=O)NC(C(=O)NC(C(=O)NC(C(=O)N2C(C(=O)N3C(C(=O)NC(C(=O)NC(C(=O)NC(C(=O)NC(C(=O)NC(C(=O)NC(C(=O)N4C(C(=O)NC(C(=O)NC(C(=O)NC(C(=O)NC(C(=O)NC(C(=O)NC(C(=O)NC(C(=O)NC(C(=O)NC(C(=O)NC(C(=O)NC(C(=O)NC(C(=O)NC(C(=O)NC(C(=O)NC(C(=O)NC(C(=O)NC(C(=O)NC(C(=O)NC(C(=O)NC(C(=O)NC(C(=O)NC(C(=O)NC(C(=O)NC(C(=O)NC(C(=O)NC(C(=O)NC(C(=O)NC(C(=O)NC(C(=O)NC(C(=O)NC(C(=O)NC(C(=O)NC(C(=O)NC(C(=O)NC(C(=O)NC(C(=O)NC(C(=O)NC(C(=O)NC(C(=O)NC(C(=O)NC(C(=O)NC(C(=O)NC(C(=O)NC(C(=O)NC(C(=O)NC(C(=O)NC(C(=O)NC(C(=O)NCC(=O)NC(C(=O)NC(C(=O)NC(C(=O)NC(C(=O)NC(C(=O)NC(C(=O)NC(C(=O)NC(C(=O)NC(C(=O)NC(C(=O)NC(C(=O)NC(C(=O)NC(C(=O)NC(C(=O)NC(C(=O)NC(C(=O)NC(C(=O)NC(C(=O)NC(C(=O)NC(C(=O)NC(C(=O)NC(C(=O)NC(C(=O)NC(C(=O)NC(C(=O)NC(C(=O)NC(C(=O)NC(C(=O)NC(C(=O)NC(C(=O)NC(C(=O)NC(C(=O)NC(C(=O)N5C(C(=O)NC(C(=O)NCC(=O)NC(C(=O)NC(C(=O)NC(C(=O)NCC(=O)NC(C(=O)NC(C(=O)NC(C(=O)NC(C(=O)NC(C(=O)NC(C(=O)NC(C(=O)NC(C(=O)NC(C(=O)NC(C(=O)NC(C(=O)NC(C(=O)NC(C(=O)NC(C(=O)NC(C(=O)NC(C(=O)NC(C(=O)NC(C(=O)NCC(=O)NC(C(=O)NC(C(=O)NC(C(=O)NC(C(=O)NC(C(=O)N6C(C(=O)NC(C(=O)NC(C(=O)NC(C(=O)NC(C(=O)NC(C(=O)NC(C(=O)NC(C(=O)NC(C(=O)NC(C(=O)NC(C(=O)NC(C(=O)NC(C(=O)NC(C(=O)NC(C(=O)NC(C(=O)NC(C(=O)NCC(=O)NC(C(=O)NC(C(=O)NC(C(=O)NC(C(=O)NC(C(=O)NC(C(=O)NC(C(=O)NC(C(=O)NC(C(=O)NC(C(=O)NC(C(=O)NC(C(=O)NC(C(=O)NC(C(=O)NC(C(=O)NC(C(=O)NC(C(=O)NC(C(=O)NC(C(=O)NC(C(=O)NC(C(=O)NC(C(=O)NC(C(=O)NC(C(=O)NC(C(=O)NC(C(=O)NC(C(=O)NC(C(=O)NC(C(=O)NC(C(=O)NC(C(=O)N7C(C(=O)NC(C(=O)NCC(=O)NC(C(=O)NC(C(=O)NC(C(=O)NC(C(=O)NC(C(=O)NC(C(=O)NC(C(=O)NC(C(=O)NC(C(=O)NC(C(=O)NC(C(=O)NC(C(=O)NC(C(=O)N8C(C(=O)NCC(=O)NC(C(=O)NC(C(=O)NC(C(=O)NC(C(=O)NC(C(=O)NC(C(=O)NC(C(=O)NC(C(=O)NC(C(=O)NC(C(=O)NC(C(=O)NC(C(=O)NC(C(=O)NC(C(=O)NC(C(=O)NC(C(=O)NC(C(=O)NC(C(=O)NC(C(=O)NC(C(=O)N9C(C(=O)NCC(=O)NC(C(=O)NC(C(=O)NC(C(=O)NC(C(=O)NC(C(=O)NC(C(=O)NC(C(=O)NC(C(=O)NC(C(=O)NC(C(=O)NC(C(=O)NCC(=O)NC(C(=O)NC(C(=O)NC(C(=O)NC(C(=O)NCC(=O)NC(C(=O)NC(C(=O)NC(C(=O)NCC(=O)NC(C(=O)NCC(=O)NC(C(=O)NC(C(=O)NC(C(=O)NC(C(=O)NC(C(=O)NC(C(=O)N%10C(C(=O)NC(C(=O)NC(C(=O)NC(C(=O)N%11C(C(=O)NC(C(=O)NC(C(=O)NC(C(=O)NC(C(=O)NC(C(=O)NC(C(=O)NC(C(=O)NCC(=O)NC(C(=O)NC(C(=O)NC(C(=O)NCC(=O)NC(C(=O)NC(C(=O)NC(C(=O)NC(C(=O)N%12C(C(=O)NC(C(=O)NCC(=O)NC(C(=O)NC(C(=O)NC(C(=O)NC(C(=O)NC)CC(=O)N)Cc%13ccc(O)cc%13)CO)CCCNC(=[NH2+])N)CC(=O)[O-])CCC%12)Cc%12ccc(O)cc%12)CC(C)C)Cc%12ccc(O)cc%12)Cc%12ccccc%12)CCC(=O)[O-])C)CO)CC(=O)[O-])C(CC)C)CC(C)C)C)CCC(=O)N)Cc%12ccccc%12)CC(C)C)CCC%11)CCCC[NH3+])CC(=O)N)Cc%11[nH]cnc%11)CCC%10)C(CC)C)C(O)C)CCC(=O)N)CC(C)C)C(CC)C)CC(=O)N)CC(=O)[O-])C(O)C)C(C)C)Cc%10ccc(O)cc%10)C(CC)C)C)Cc%10c%11c([nH]c%10)cccc%11)CCC(=O)N)CC(C)C)CCCNC(=[NH2+])N)C(O)C)CS)CO)CC(C)C)CCCNC(=[NH2+])N)Cc%10ccccc%10)C(CC)C)Cc%10ccc(O)cc%10)CO)CCC9)CCCC[NH3+])C(O)C)CO)Cc9ccc(O)cc9)CCCC[NH3+])CCC(=O)N)CC(C)C)CCCNC(=[NH2+])N)C)CCCC[NH3+])C(C)C)CCC(=O)[O-])CC(=O)[O-])Cc9ccc(O)cc9)C(O)C)CC(C)C)Cc9ccccc9)C)CCSC)Cc9ccc(O)cc9)CCC8)Cc8nc[nH]c8)C(O)C)C(C)C)C)CC(C)C)Cc8ccccc8)CC(=O)N)Cc8c9c([nH]c8)cccc9)CC(=O)N)CCCNC(=[NH2+])N)CC(C)C)C(CC)C)CO)Cc8c9c([nH]c8)cccc9)CCC7)CCC(=O)N)Cc7ccccc7)CC(C)C)CCCNC(=[NH2+])N)C(O)C)Cc7ccccc7)C(CC)C)CC(=O)[O-])Cc7ccccc7)CCC(=O)[O-])Cc7ccccc7)C(C)C)CO)C(CC)C)Cc7ccc(O)cc7)CC(=O)[O-])CC(=O)N)CS)C(O)C)CC(C)C)CC(=O)[O-])C(CC)C)C(O)C)CO)CCCC[NH3+])CC(C)C)C)CCSC)C)CCC(=O)[O-])CC(C)C)CO)CO)C(CC)C)CCC(=O)N)Cc7nc[nH]c7)C(C)C)CCC(=O)[O-])Cc7nc[nH]c7)CC(C)C)CS)CCC(=O)N)CCCNC(=[NH2+])N)Cc7ccccc7)C(C)C)CCCC[NH3+])Cc7c8c([nH]c7)cccc8)CCC6)C(C)C)C(CC)C)C(O)C)CCCC[NH3+])CC(=O)[O-])Cc6ccccc6)Cc6ccccc6)CCCC[NH3+])CCCNC(=[NH2+])N)Cc6c7c([nH]c6)cccc7)Cc6ccccc6)CCC(=O)[O-])C)C)CC(=O)[O-])C)CCCC[NH3+])C(O)C)C(CC)C)CCCNC(=[NH2+])N)Cc6ccccc6)CC(=O)N)CC(=O)[O-])CCC(=O)N)Cc6ccccc6)CCC(=O)N)CC(=O)N)CCC5)Cc5ccccc5)C(CC)C)C)CCCC[NH3+])C(CC)C)CCC(=O)[O-])C)CC(C)C)CCSC)Cc5nc[nH]c5)CO)Cc5ccccc5)C(CC)C)CC(C)C)CO)CC(C)C)CCCC[NH3+])C(O)C)CC(C)C)CC(=O)N)CCCNC(=[NH2+])N)CCCNC(=[NH2+])N)CC(=O)[O-])CCC(=O)N)CO)CCC(=O)N)CCC(=O)[O-])CCC(=O)[O-])Cc5ccc(O)cc5)CCSC)CCCNC(=[NH2+])N)CCC(=O)[O-])CCCC[NH3+])CCC(=O)[O-])CCCC[NH3+])Cc5ccccc5)CC(C)C)CCCNC(=[NH2+])N)C(CC)C)C)CCCNC(=[NH2+])N)CCCC[NH3+])CO)CCCC[NH3+])CCCC[NH3+])CCSC)CC(C)C)CO)CC(=O)[O-])C(CC)C)Cc5ccc(O)cc5)C(CC)C)CCCC[NH3+])Cc5ccccc5)Cc5ccc(O)cc5)CCC(=O)[O-])CC(=O)N)CCC(=O)[O-])CO)CC(C)C)CCC(=O)N)C)CC(C)C)CCCC[NH3+])CCC(=O)N)CC(=O)N)CC(=O)[O-])CC(=O)[O-])Cc5ccc(O)cc5)CCCC[NH3+])CO)CC(C)C)C(CC)C)CC(C)C)CCCNC(=[NH2+])N)CC(C)C)Cc5nc[nH]c5)CCC(=O)N)Cc5ccc(O)cc5)C(O)C)CC(=O)[O-])CCC4)CC(C)C)C(CC)C)CC(=O)[O-])CC(C)C)C(CC)C)Cc4ccc(O)cc4)CCC3)CCC2)CO)CC(=O)N)CCCC[NH3+])CC(C)C)CCC(=O)N)CC(C)C)CCCC[NH3+])CCC1)CC(=O)N)CCC(=O)N)CS)CC(C)C)CCCNC(=[NH2+])N)C(C)C)C(C)C)C)CC(=O)[O-])C.OCCO.[UH+3].[Zn+2].[Zn+2].O.O.O.O.O.O.O.O.O.O.O.O.O.O.O.O.O.O.O.O.O.O.O.O.O.O.O.O.O.O.O.O.O.O.O.O.O.O.O.O.O.O.O.O.O.O.O.O.O.O.O.O.O.O.O.O.O.O.O.O.O.O.O.O.O.O.O.O.O.O.O.O.O.O.O.O.O.O.O.O.O.O.O.O.O.O.O.O.O.O.O.O.O.O.O.O.O.O.O.O.O.O.O.O.O.O.O.O.O.O.O.O.O.O.O.O.O.O.O.O.O.O.O.O.O.O.O.O.O.O.O.O.O.O.O.O.O.O.O.O.O.O

>  <rseq>
1

>  <mseq>
40

>  <S>
-9.4310379

>  <rmsd_refine>
0.98144054

>  <E_conf>
111.28239

>  <E_place>
-70.693939

>  <E_score1>
-13.065021

>  <E_refine>
-54.482441

>  <E_score2>
-9.4310379

>  <Field_2>
KH10

>  <pseq>
40

>  <%C>
99.974457

>  <a_heavy>
32

>  <h_logP>
3.5949957

>  <Weight>
445.44498

>  <E_orig>
2.4674768

>  <PLIF_raw>
[[32,11,30,9,9,9,9,9,9,10,10,10,10,10,10,11,11,11,11,11,11,12,12,12,12,12,12,14,14,14,14,14,14],[5184,6288,3751,5141,5143,5139,5135,5134,5137,5141,5143,5139,5135,5134,5137,5141,5143,5139,5135,5134,5137,5141,5143,5139,5135,5134,5137,5141,5143,5139,5135,5134,5137],[366,220669,263,363,363,363,363,363,363,363,363,363,363,363,363,363,363,363,363,363,363,363,363,363,363,363,363,363,363,363,363,363,363],[1,6,4,10,10,10,10,10,10,10,10,10,10,10,10,10,10,10,10,10,10,10,10,10,10,10,10,10,10,10,10,10,10],[0.7,1.7,4.6,1e-005,1e-005,1e-005,1e-005,1e-005,1e-005,1e-005,1e-005,1e-005,1e-005,1e-005,1e-005,1e-005,1e-005,1e-005,1e-005,1e-005,1e-005,1e-005,1e-005,1e-005,1e-005,1e-005,1e-005,1e-005,1e-005,1e-005,1e-005,1e-005,1e-005]]

>  <FP:PLIF>
15 16 8 28 39

>  <PLIF_ligidx>
[30,30,32,11,11]

$$$$

  MOE2020           3D

 69 73  0  0  1  0  0  0  0  0999 V2000
   -1.7300   12.0840   22.0690 C   0  0  0  0  0  0  0  0  0  0  0  0
   -1.8050   12.7360   22.9400 H   0  0  0  0  0  0  0  0  0  0  0  0
   -2.5290   12.3350   21.3700 H   0  0  0  0  0  0  0  0  0  0  0  0
   -1.8450   11.0530   22.4020 H   0  0  0  0  0  0  0  0  0  0  0  0
   -0.3590   12.2550   21.4020 C   0  0  2  0  0  0  0  0  0  0  0  0
   -0.1290   13.7200   20.9920 C   0  0  0  0  0  0  0  0  0  0  0  0
   -0.7170   13.9640   20.1070 H   0  0  0  0  0  0  0  0  0  0  0  0
   -0.4740   14.3670   21.7990 H   0  0  0  0  0  0  0  0  0  0  0  0
    1.3350   14.0430   20.7640 C   0  0  0  0  0  0  0  0  0  0  0  0
    2.1870   14.4140   21.6680 N   0  0  0  0  0  0  0  0  0  0  0  0
    3.3960   14.6030   21.0460 N   0  0  0  0  0  0  0  0  0  0  0  0
    3.2180   14.3340   19.7940 C   0  0  0  0  0  0  0  0  0  0  0  0
    3.9250   14.3650   19.0040 H   0  0  0  0  0  0  0  0  0  0  0  0
    1.9560   13.9770   19.5820 N   0  0  0  0  0  0  0  0  0  0  0  0
    1.4250   13.5720   18.2850 C   0  0  0  0  0  0  0  0  0  0  0  0
    1.3970   12.4970   18.1820 H   0  0  0  0  0  0  0  0  0  0  0  0
    2.0360   13.9400   17.4720 H   0  0  0  0  0  0  0  0  0  0  0  0
    0.4230   13.9420   18.1170 H   0  0  0  0  0  0  0  0  0  0  0  0
   -0.1770   11.3000   20.2290 C   0  0  0  0  0  0  0  0  0  0  0  0
   -1.0080   11.3440   19.1130 C   0  0  0  0  0  0  0  0  0  0  0  0
   -1.7810   12.0640   19.0520 H   0  0  0  0  0  0  0  0  0  0  0  0
   -0.7940   10.4390   18.0610 C   0  0  0  0  0  0  0  0  0  0  0  0
   -1.6180   10.3670   16.9230 N   0  0  0  0  0  0  0  0  0  0  0  0
   -1.1430   10.0860   16.0530 H   0  0  0  0  0  0  0  0  0  0  0  0
   -2.9830   10.5460   16.8070 C   0  0  0  0  0  0  0  0  0  0  0  0
   -3.5130   10.4480   15.7010 O   0  0  0  0  0  0  0  0  0  0  0  0
   -3.6970   10.8020   17.9480 N   0  0  0  0  0  0  0  0  0  0  0  0
   -3.1730   10.8910   18.8290 H   0  0  0  0  0  0  0  0  0  0  0  0
   -5.0560   11.3290   17.9470 C   0  0  0  0  0  0  0  0  0  0  0  0
   -5.6770   10.6670   17.3480 H   0  0  0  0  0  0  0  0  0  0  0  0
   -5.1260   12.7350   17.3330 C   0  0  0  0  0  0  0  0  0  0  0  0
   -4.8160   12.6860   16.2900 H   0  0  0  0  0  0  0  0  0  0  0  0
   -4.4440   13.3880   17.8760 H   0  0  0  0  0  0  0  0  0  0  0  0
   -6.5370   13.3320   17.3870 C   0  0  0  0  0  0  0  0  0  0  0  0
   -6.5130   14.3490   16.9930 H   0  0  0  0  0  0  0  0  0  0  0  0
   -7.2080   12.7360   16.7670 H   0  0  0  0  0  0  0  0  0  0  0  0
   -7.0570   13.3520   18.8270 C   0  0  0  0  0  0  0  0  0  0  0  0
   -8.0850   13.7180   18.8370 H   0  0  0  0  0  0  0  0  0  0  0  0
   -6.4420   14.0270   19.4250 H   0  0  0  0  0  0  0  0  0  0  0  0
   -7.0070   11.9450   19.4360 C   0  0  0  0  0  0  0  0  0  0  0  0
   -7.6830   11.2910   18.8830 H   0  0  0  0  0  0  0  0  0  0  0  0
   -7.3200   11.9920   20.4790 H   0  0  0  0  0  0  0  0  0  0  0  0
   -5.6040   11.3470   19.3780 C   0  0  0  0  0  0  0  0  0  0  0  0
   -4.9390   11.9310   20.0170 H   0  0  0  0  0  0  0  0  0  0  0  0
   -5.6550   10.3290   19.7560 H   0  0  0  0  0  0  0  0  0  0  0  0
    0.2150    9.5650   18.0530 N   0  0  0  0  0  0  0  0  0  0  0  0
    0.9920    9.5040   19.1350 C   0  0  0  0  0  0  0  0  0  0  0  0
    0.8380   10.3500   20.2390 C   0  0  0  0  0  0  0  0  0  0  0  0
    1.4880   10.2610   21.0700 H   0  0  0  0  0  0  0  0  0  0  0  0
    1.9580    8.4820   19.1560 N   0  0  0  0  0  0  0  0  0  0  0  0
    2.8920    8.1410   18.0690 C   0  0  0  0  0  0  0  0  0  0  0  0
    3.6980    8.8570   18.0600 H   0  0  0  0  0  0  0  0  0  0  0  0
    2.4000    8.1550   17.1060 H   0  0  0  0  0  0  0  0  0  0  0  0
    3.4070    6.7610   18.4190 C   0  0  0  0  0  0  0  0  0  0  0  0
    2.8050    6.4010   19.6110 C   0  0  0  0  0  0  0  0  0  0  0  0
    3.0530    5.1630   20.1960 C   0  0  0  0  0  0  0  0  0  0  0  0
    2.5830    4.9000   21.1080 H   0  0  0  0  0  0  0  0  0  0  0  0
    3.9300    4.2870   19.5690 C   0  0  0  0  0  0  0  0  0  0  0  0
    4.1250    3.3390   19.9970 H   0  0  0  0  0  0  0  0  0  0  0  0
    4.5650    4.6560   18.3840 C   0  0  0  0  0  0  0  0  0  0  0  0
    5.2480    3.9750   17.9430 H   0  0  0  0  0  0  0  0  0  0  0  0
    4.3150    5.9000   17.7870 C   0  0  0  0  0  0  0  0  0  0  0  0
    5.0620    6.2800   16.5100 C   0  0  0  0  0  0  0  0  0  0  0  0
    4.2970    6.9310   15.6300 F   0  0  0  0  0  0  0  0  0  0  0  0
    5.5560    5.2210   15.8470 F   0  0  0  0  0  0  0  0  0  0  0  0
    6.1070    7.0790   16.7700 F   0  0  0  0  0  0  0  0  0  0  0  0
    1.9410    7.4580   20.0820 C   0  0  0  0  0  0  0  0  0  0  0  0
    1.2560    7.4870   21.0960 O   0  0  0  0  0  0  0  0  0  0  0  0
    0.3910   11.9990   22.1530 H   0  0  0  0  0  0  0  0  0  0  0  0
  1  2  1  0  0  0  0
  1  3  1  0  0  0  0
  1  4  1  0  0  0  0
  1  5  1  0  0  0  0
  5  6  1  0  0  0  0
  5 19  1  0  0  0  0
  5 69  1  0  0  0  0
  6  7  1  0  0  0  0
  6  8  1  0  0  0  0
  6  9  1  0  0  0  0
  9 10  2  0  0  0  0
  9 14  1  0  0  0  0
 10 11  1  0  0  0  0
 11 12  2  0  0  0  0
 12 13  1  0  0  0  0
 12 14  1  0  0  0  0
 14 15  1  0  0  0  0
 15 16  1  0  0  0  0
 15 17  1  0  0  0  0
 15 18  1  0  0  0  0
 19 20  2  0  0  0  0
 19 48  1  0  0  0  0
 20 21  1  0  0  0  0
 20 22  1  0  0  0  0
 22 23  1  0  0  0  0
 22 46  2  0  0  0  0
 23 24  1  0  0  0  0
 23 25  1  0  0  0  0
 25 26  2  0  0  0  0
 25 27  1  0  0  0  0
 27 28  1  0  0  0  0
 27 29  1  0  0  0  0
 29 30  1  0  0  0  0
 29 31  1  0  0  0  0
 29 43  1  0  0  0  0
 31 32  1  0  0  0  0
 31 33  1  0  0  0  0
 31 34  1  0  0  0  0
 34 35  1  0  0  0  0
 34 36  1  0  0  0  0
 34 37  1  0  0  0  0
 37 38  1  0  0  0  0
 37 39  1  0  0  0  0
 37 40  1  0  0  0  0
 40 41  1  0  0  0  0
 40 42  1  0  0  0  0
 40 43  1  0  0  0  0
 43 44  1  0  0  0  0
 43 45  1  0  0  0  0
 46 47  1  0  0  0  0
 47 48  2  0  0  0  0
 47 50  1  0  0  0  0
 48 49  1  0  0  0  0
 50 51  1  0  0  0  0
 50 67  1  0  0  0  0
 51 52  1  0  0  0  0
 51 53  1  0  0  0  0
 51 54  1  0  0  0  0
 54 55  1  0  0  0  0
 54 62  2  0  0  0  0
 55 56  2  0  0  0  0
 55 67  1  0  0  0  0
 56 57  1  0  0  0  0
 56 58  1  0  0  0  0
 58 59  1  0  0  0  0
 58 60  2  0  0  0  0
 60 61  1  0  0  0  0
 60 62  1  0  0  0  0
 62 63  1  0  0  0  0
 63 64  1  0  0  0  0
 63 65  1  0  0  0  0
 63 66  1  0  0  0  0
 67 68  2  0  0  0  0
M  END
>  <receptor>
S(=O)(=O)([O-])[O-].S(CCC(NC(=O)C(NC(=O)C(NC(=O)CNC(=O)C(NC(=O)C1N(C(=O)C(NC(=O)C(NC(=O)C(NC(=O)C(NC(=O)C(NC(=O)C(NC(=O)C(NC(=O)C(NC(=O)C(NC(=O)C(NC(=O)C(NC(=O)C(NC(=O)C(NC(=O)C(NC(=O)C(NC(=O)C(NC(=O)C(NC(=O)C(NC(=O)C(NC(=O)CNC(=O)C(NC(=O)C(NC(=O)C(NC(=O)C(NC(=O)C(NC(=O)C(NC(=O)C(NC(=O)C(NC(=O)C(NC(=O)C(NC(=O)C(NC(=O)C(NC(=O)C(NC(=O)C)CCCC[NH3+])C(C)C)C(O)C)CCC(=O)N)CCC(=O)[O-])CCC(=O)N)Cc2ccccc2)CCC(=O)[O-])CC(C)C)Cc2ccc(O)cc2)CS)CCC(=O)[O-])CCSC)CO)C(O)C)Cc2ccccc2)CCC(=O)N)CC(C)C)C[S-])CCCC[NH3+])C(CC)C)C[S-])C)CCC(=O)[O-])CC(=O)N)CC(=O)[O-])CCCC[NH3+])CC(=O)[O-])C(C)C)CCCC[NH3+])C(CC)C)CCC(=O)[O-])CCC1)C[S-])Cc1nc[n-]c1)CC(C)C)C(=O)NC(C(=O)NC(C(=O)NC(C(=O)NC(C(=O)NC(C(=O)NC(C(=O)NC(C(=O)NC(C(=O)NC(C(=O)NC(C(=O)NC(C(=O)NC(C(=O)NCC(=O)NC(C(=O)NCC(=O)NC(C(=O)N1C(C(=O)NC(C(=O)NC(C(=O)NC(C(=O)NC(C(=O)NC(C(=O)NC(C(=O)NC(C(=O)NCC(=O)NC(C(=O)NC(C(=O)N2C(C(=O)NC(C(=O)NC(C(=O)NC(C(=O)NC(C(=O)N3C(C(=O)NC(C(=O)NC(C(=O)[O-])CC(=O)[O-])Cc4ccccc4)CCC3)CC(=O)[O-])C(C)C)C(CC)C)C(CC)C)CCC2)CCC(=O)[O-])C(O)C)CCCC[NH3+])C(CC)C)CCC(=O)[O-])CS)CCCNC(=[NH2+])N)C[S-])Cc2ccccc2)CCC1)C[S-])CCC(=O)N)CC(=O)[O-])CO)CCC(=O)[O-])CCC(=O)N)Cc1c2c([nH]c1)cccc2)C)C(O)C)CC(C)C)C[S-])CO)C(O)C)C[S-])C.S(CCC(NC(=O)C(NC(=O)C(NC(=O)C(NC(=O)C(NC(=O)C(NC(=O)C(NC(=O)C(NC(=O)C(NC(=O)C(NC(=O)C(NC(=O)C(NC(=O)C(NC(=O)C(NC(=O)C(NC(=O)C(NC(=O)C[NH3+])CCC(=O)N)C)C)C)CC(=O)[O-])CCCNC(=[NH2+])N)CCCNC(=[NH2+])N)C(O)C)C(C)C)CCC(=O)[O-])CCCC[NH3+])C(O)C)Cc1c2c([nH]c1)cccc2)C)CC(C)C)C(=O)NC(C(=O)NC(C(=O)NC(C(=O)NC(C(=O)NC(C(=O)NC(C(=O)NC(C(=O)NC(C(=O)NC(C(=O)N1C(C(=O)NC(C(=O)NC(C(=O)NC(C(=O)NC(C(=O)NC(C(=O)NC(C(=O)NC(C(=O)N2C(C(=O)N3C(C(=O)NC(C(=O)NC(C(=O)NC(C(=O)NC(C(=O)NC(C(=O)NC(C(=O)N4C(C(=O)NC(C(=O)NC(C(=O)NC(C(=O)NC(C(=O)NC(C(=O)NC(C(=O)NC(C(=O)NC(C(=O)NC(C(=O)NC(C(=O)NC(C(=O)NC(C(=O)NC(C(=O)NC(C(=O)NC(C(=O)NC(C(=O)NC(C(=O)NC(C(=O)NC(C(=O)NC(C(=O)NC(C(=O)NC(C(=O)NC(C(=O)NC(C(=O)NC(C(=O)NC(C(=O)NC(C(=O)NC(C(=O)NC(C(=O)NC(C(=O)NC(C(=O)NC(C(=O)NC(C(=O)NC(C(=O)NC(C(=O)NC(C(=O)NC(C(=O)NC(C(=O)NC(C(=O)NC(C(=O)NC(C(=O)NC(C(=O)NC(C(=O)NC(C(=O)NC(C(=O)NC(C(=O)NC(C(=O)NC(C(=O)NCC(=O)NC(C(=O)NC(C(=O)NC(C(=O)NC(C(=O)NC(C(=O)NC(C(=O)NC(C(=O)NC(C(=O)NC(C(=O)NC(C(=O)NC(C(=O)NC(C(=O)NC(C(=O)NC(C(=O)NC(C(=O)NC(C(=O)NC(C(=O)NC(C(=O)NC(C(=O)NC(C(=O)NC(C(=O)NC(C(=O)NC(C(=O)NC(C(=O)NC(C(=O)NC(C(=O)NC(C(=O)NC(C(=O)NC(C(=O)NC(C(=O)NC(C(=O)NC(C(=O)NC(C(=O)N5C(C(=O)NC(C(=O)NCC(=O)NC(C(=O)NC(C(=O)NC(C(=O)NCC(=O)NC(C(=O)NC(C(=O)NC(C(=O)NC(C(=O)NC(C(=O)NC(C(=O)NC(C(=O)NC(C(=O)NC(C(=O)NC(C(=O)NC(C(=O)NC(C(=O)NC(C(=O)NC(C(=O)NC(C(=O)NC(C(=O)NC(C(=O)NC(C(=O)NCC(=O)NC(C(=O)NC(C(=O)NC(C(=O)NC(C(=O)NC(C(=O)N6C(C(=O)NC(C(=O)NC(C(=O)NC(C(=O)NC(C(=O)NC(C(=O)NC(C(=O)NC(C(=O)NC(C(=O)NC(C(=O)NC(C(=O)NC(C(=O)NC(C(=O)NC(C(=O)NC(C(=O)NC(C(=O)NC(C(=O)NCC(=O)NC(C(=O)NC(C(=O)NC(C(=O)NC(C(=O)NC(C(=O)NC(C(=O)NC(C(=O)NC(C(=O)NC(C(=O)NC(C(=O)NC(C(=O)NC(C(=O)NC(C(=O)NC(C(=O)NC(C(=O)NC(C(=O)NC(C(=O)NC(C(=O)NC(C(=O)NC(C(=O)NC(C(=O)NC(C(=O)NC(C(=O)NC(C(=O)NC(C(=O)NC(C(=O)NC(C(=O)NC(C(=O)NC(C(=O)NC(C(=O)NC(C(=O)N7C(C(=O)NC(C(=O)NCC(=O)NC(C(=O)NC(C(=O)NC(C(=O)NC(C(=O)NC(C(=O)NC(C(=O)NC(C(=O)NC(C(=O)NC(C(=O)NC(C(=O)NC(C(=O)NC(C(=O)NC(C(=O)N8C(C(=O)NCC(=O)NC(C(=O)NC(C(=O)NC(C(=O)NC(C(=O)NC(C(=O)NC(C(=O)NC(C(=O)NC(C(=O)NC(C(=O)NC(C(=O)NC(C(=O)NC(C(=O)NC(C(=O)NC(C(=O)NC(C(=O)NC(C(=O)NC(C(=O)NC(C(=O)NC(C(=O)NC(C(=O)N9C(C(=O)NCC(=O)NC(C(=O)NC(C(=O)NC(C(=O)NC(C(=O)NC(C(=O)NC(C(=O)NC(C(=O)NC(C(=O)NC(C(=O)NC(C(=O)NC(C(=O)NCC(=O)NC(C(=O)NC(C(=O)NC(C(=O)NC(C(=O)NCC(=O)NC(C(=O)NC(C(=O)NC(C(=O)NCC(=O)NC(C(=O)NCC(=O)NC(C(=O)NC(C(=O)NC(C(=O)NC(C(=O)NC(C(=O)NC(C(=O)N%10C(C(=O)NC(C(=O)NC(C(=O)NC(C(=O)N%11C(C(=O)NC(C(=O)NC(C(=O)NC(C(=O)NC(C(=O)NC(C(=O)NC(C(=O)NC(C(=O)NCC(=O)NC(C(=O)NC(C(=O)NC(C(=O)NCC(=O)NC(C(=O)NC(C(=O)NC(C(=O)NC(C(=O)N%12C(C(=O)NC(C(=O)NCC(=O)NC(C(=O)NC(C(=O)NC(C(=O)NC(C(=O)NC)CC(=O)N)Cc%13ccc(O)cc%13)CO)CCCNC(=[NH2+])N)CC(=O)[O-])CCC%12)Cc%12ccc(O)cc%12)CC(C)C)Cc%12ccc(O)cc%12)Cc%12ccccc%12)CCC(=O)[O-])C)CO)CC(=O)[O-])C(CC)C)CC(C)C)C)CCC(=O)N)Cc%12ccccc%12)CC(C)C)CCC%11)CCCC[NH3+])CC(=O)N)Cc%11[nH]cnc%11)CCC%10)C(CC)C)C(O)C)CCC(=O)N)CC(C)C)C(CC)C)CC(=O)N)CC(=O)[O-])C(O)C)C(C)C)Cc%10ccc(O)cc%10)C(CC)C)C)Cc%10c%11c([nH]c%10)cccc%11)CCC(=O)N)CC(C)C)CCCNC(=[NH2+])N)C(O)C)CS)CO)CC(C)C)CCCNC(=[NH2+])N)Cc%10ccccc%10)C(CC)C)Cc%10ccc(O)cc%10)CO)CCC9)CCCC[NH3+])C(O)C)CO)Cc9ccc(O)cc9)CCCC[NH3+])CCC(=O)N)CC(C)C)CCCNC(=[NH2+])N)C)CCCC[NH3+])C(C)C)CCC(=O)[O-])CC(=O)[O-])Cc9ccc(O)cc9)C(O)C)CC(C)C)Cc9ccccc9)C)CCSC)Cc9ccc(O)cc9)CCC8)Cc8nc[nH]c8)C(O)C)C(C)C)C)CC(C)C)Cc8ccccc8)CC(=O)N)Cc8c9c([nH]c8)cccc9)CC(=O)N)CCCNC(=[NH2+])N)CC(C)C)C(CC)C)CO)Cc8c9c([nH]c8)cccc9)CCC7)CCC(=O)N)Cc7ccccc7)CC(C)C)CCCNC(=[NH2+])N)C(O)C)Cc7ccccc7)C(CC)C)CC(=O)[O-])Cc7ccccc7)CCC(=O)[O-])Cc7ccccc7)C(C)C)CO)C(CC)C)Cc7ccc(O)cc7)CC(=O)[O-])CC(=O)N)CS)C(O)C)CC(C)C)CC(=O)[O-])C(CC)C)C(O)C)CO)CCCC[NH3+])CC(C)C)C)CCSC)C)CCC(=O)[O-])CC(C)C)CO)CO)C(CC)C)CCC(=O)N)Cc7nc[nH]c7)C(C)C)CCC(=O)[O-])Cc7nc[nH]c7)CC(C)C)CS)CCC(=O)N)CCCNC(=[NH2+])N)Cc7ccccc7)C(C)C)CCCC[NH3+])Cc7c8c([nH]c7)cccc8)CCC6)C(C)C)C(CC)C)C(O)C)CCCC[NH3+])CC(=O)[O-])Cc6ccccc6)Cc6ccccc6)CCCC[NH3+])CCCNC(=[NH2+])N)Cc6c7c([nH]c6)cccc7)Cc6ccccc6)CCC(=O)[O-])C)C)CC(=O)[O-])C)CCCC[NH3+])C(O)C)C(CC)C)CCCNC(=[NH2+])N)Cc6ccccc6)CC(=O)N)CC(=O)[O-])CCC(=O)N)Cc6ccccc6)CCC(=O)N)CC(=O)N)CCC5)Cc5ccccc5)C(CC)C)C)CCCC[NH3+])C(CC)C)CCC(=O)[O-])C)CC(C)C)CCSC)Cc5nc[nH]c5)CO)Cc5ccccc5)C(CC)C)CC(C)C)CO)CC(C)C)CCCC[NH3+])C(O)C)CC(C)C)CC(=O)N)CCCNC(=[NH2+])N)CCCNC(=[NH2+])N)CC(=O)[O-])CCC(=O)N)CO)CCC(=O)N)CCC(=O)[O-])CCC(=O)[O-])Cc5ccc(O)cc5)CCSC)CCCNC(=[NH2+])N)CCC(=O)[O-])CCCC[NH3+])CCC(=O)[O-])CCCC[NH3+])Cc5ccccc5)CC(C)C)CCCNC(=[NH2+])N)C(CC)C)C)CCCNC(=[NH2+])N)CCCC[NH3+])CO)CCCC[NH3+])CCCC[NH3+])CCSC)CC(C)C)CO)CC(=O)[O-])C(CC)C)Cc5ccc(O)cc5)C(CC)C)CCCC[NH3+])Cc5ccccc5)Cc5ccc(O)cc5)CCC(=O)[O-])CC(=O)N)CCC(=O)[O-])CO)CC(C)C)CCC(=O)N)C)CC(C)C)CCCC[NH3+])CCC(=O)N)CC(=O)N)CC(=O)[O-])CC(=O)[O-])Cc5ccc(O)cc5)CCCC[NH3+])CO)CC(C)C)C(CC)C)CC(C)C)CCCNC(=[NH2+])N)CC(C)C)Cc5nc[nH]c5)CCC(=O)N)Cc5ccc(O)cc5)C(O)C)CC(=O)[O-])CCC4)CC(C)C)C(CC)C)CC(=O)[O-])CC(C)C)C(CC)C)Cc4ccc(O)cc4)CCC3)CCC2)CO)CC(=O)N)CCCC[NH3+])CC(C)C)CCC(=O)N)CC(C)C)CCCC[NH3+])CCC1)CC(=O)N)CCC(=O)N)CS)CC(C)C)CCCNC(=[NH2+])N)C(C)C)C(C)C)C)CC(=O)[O-])C.OCCO.[UH+3].[Zn+2].[Zn+2].O.O.O.O.O.O.O.O.O.O.O.O.O.O.O.O.O.O.O.O.O.O.O.O.O.O.O.O.O.O.O.O.O.O.O.O.O.O.O.O.O.O.O.O.O.O.O.O.O.O.O.O.O.O.O.O.O.O.O.O.O.O.O.O.O.O.O.O.O.O.O.O.O.O.O.O.O.O.O.O.O.O.O.O.O.O.O.O.O.O.O.O.O.O.O.O.O.O.O.O.O.O.O.O.O.O.O.O.O.O.O.O.O.O.O.O.O.O.O.O.O.O.O.O.O.O.O.O.O.O.O.O.O.O.O.O.O.O.O.O.O.O

>  <rseq>
1

>  <mseq>
41

>  <S>
-8.8273821

>  <rmsd_refine>
2.0615313

>  <E_conf>
-141.73914

>  <E_place>
-73.146797

>  <E_score1>
-10.227257

>  <E_refine>
-50.176849

>  <E_score2>
-8.8273821

>  <Field_2>
MR01

>  <pseq>
41

>  <%C>
99.908028

>  <a_heavy>
39

>  <h_logP>
4.2666097

>  <Weight>
541.578

>  <E_orig>
2

>  <PLIF_raw>
[10,1774,141,2,4]

>  <FP:PLIF>
18 19

>  <PLIF_ligidx>
[10,10]

$$$$

  MOE2020           3D

 64 68  0  0  1  0  0  0  0  0999 V2000
    5.2880    4.1110   15.6520 C   0  0  0  0  0  0  0  0  0  0  0  0
    5.7700    4.1790   14.6760 H   0  0  0  0  0  0  0  0  0  0  0  0
    4.3120    3.6470   15.5330 H   0  0  0  0  0  0  0  0  0  0  0  0
    5.8820    3.4750   16.2990 H   0  0  0  0  0  0  0  0  0  0  0  0
    5.1170    5.5160   16.2520 C   0  0  2  0  0  0  0  0  0  0  0  0
    6.4550    6.2550   16.4530 C   0  0  0  0  0  0  0  0  0  0  0  0
    7.1530    5.9750   15.6660 H   0  0  0  0  0  0  0  0  0  0  0  0
    6.2610    7.3230   16.3560 H   0  0  0  0  0  0  0  0  0  0  0  0
    7.0850    6.0520   17.8200 C   0  0  0  0  0  0  0  0  0  0  0  0
    6.8190    6.7030   18.9010 N   0  0  0  0  0  0  0  0  0  0  0  0
    7.5750    6.1560   19.9080 N   0  0  0  0  0  0  0  0  0  0  0  0
    8.2750    5.2170   19.3920 C   0  0  0  0  0  0  0  0  0  0  0  0
    8.9750    4.5760   19.8630 H   0  0  0  0  0  0  0  0  0  0  0  0
    7.9860    5.1200   18.1080 N   0  0  0  0  0  0  0  0  0  0  0  0
    8.4720    4.0870   17.2640 C   0  0  0  0  0  0  0  0  0  0  0  0
    9.3600    3.6250   17.6650 H   0  0  0  0  0  0  0  0  0  0  0  0
    8.6690    4.4200   16.2580 H   0  0  0  0  0  0  0  0  0  0  0  0
    7.7250    3.3220   17.2120 H   0  0  0  0  0  0  0  0  0  0  0  0
    4.2850    5.5450   17.5300 C   0  0  0  0  0  0  0  0  0  0  0  0
    4.2580    4.4750   18.4290 C   0  0  0  0  0  0  0  0  0  0  0  0
    4.8030    3.5890   18.2360 H   0  0  0  0  0  0  0  0  0  0  0  0
    3.5200    4.5670   19.6040 C   0  0  0  0  0  0  0  0  0  0  0  0
    3.5020    3.7460   20.2720 H   0  0  0  0  0  0  0  0  0  0  0  0
    2.8120    5.7220   19.9050 C   0  0  0  0  0  0  0  0  0  0  0  0
    2.2570    5.7660   20.8040 H   0  0  0  0  0  0  0  0  0  0  0  0
    2.8380    6.8030   19.0150 C   0  0  0  0  0  0  0  0  0  0  0  0
    3.5860    6.7090   17.8360 C   0  0  0  0  0  0  0  0  0  0  0  0
    3.6450    7.5250   17.1730 H   0  0  0  0  0  0  0  0  0  0  0  0
    2.0920    7.9920   19.3220 N   0  0  0  0  0  0  0  0  0  0  0  0
    1.6410    8.3540   20.6820 C   0  0  0  0  0  0  0  0  0  0  0  0
    2.4750    8.6340   21.3090 H   0  0  0  0  0  0  0  0  0  0  0  0
    1.1280    7.5320   21.1590 H   0  0  0  0  0  0  0  0  0  0  0  0
    0.6750    9.4930   20.4780 C   0  0  0  0  0  0  0  0  0  0  0  0
    0.5880    9.7370   19.1250 C   0  0  0  0  0  0  0  0  0  0  0  0
   -0.3630   10.6240   18.6190 C   0  0  0  0  0  0  0  0  0  0  0  0
   -0.4460   10.7630   17.5730 H   0  0  0  0  0  0  0  0  0  0  0  0
   -1.2380   11.2740   19.4930 C   0  0  0  0  0  0  0  0  0  0  0  0
   -1.0580   11.0970   20.8760 C   0  0  0  0  0  0  0  0  0  0  0  0
   -1.6750   11.6160   21.5600 H   0  0  0  0  0  0  0  0  0  0  0  0
   -0.1080   10.2010   21.3820 C   0  0  0  0  0  0  0  0  0  0  0  0
    0.0030    9.9400   22.8740 C   0  0  0  0  0  0  0  0  0  0  0  0
    1.2690    9.7820   23.2930 F   0  0  0  0  0  0  0  0  0  0  0  0
   -0.5130   10.9210   23.6260 F   0  0  0  0  0  0  0  0  0  0  0  0
   -0.6390    8.8300   23.2080 F   0  0  0  0  0  0  0  0  0  0  0  0
   -2.4130   12.0770   18.8990 C   0  0  0  0  0  0  0  0  0  0  0  0
   -1.9760   12.8000   18.2090 H   0  0  0  0  0  0  0  0  0  0  0  0
   -3.3120   11.1250   18.0720 C   0  0  0  0  0  0  0  0  0  0  0  0
   -2.7560   10.7660   17.2050 H   0  0  0  0  0  0  0  0  0  0  0  0
   -3.5680   10.2590   18.6780 H   0  0  0  0  0  0  0  0  0  0  0  0
   -4.6160   11.7530   17.5660 C   0  0  0  0  0  0  0  0  0  0  0  0
   -5.2240   10.9850   17.0890 H   0  0  0  0  0  0  0  0  0  0  0  0
   -4.3870   12.5130   16.8220 H   0  0  0  0  0  0  0  0  0  0  0  0
   -5.4120   12.3910   18.7070 C   0  0  0  0  0  0  0  0  0  0  0  0
   -5.6970   11.6230   19.4280 H   0  0  0  0  0  0  0  0  0  0  0  0
   -6.3160   12.8500   18.3050 H   0  0  0  0  0  0  0  0  0  0  0  0
   -4.5620   13.4600   19.4000 C   0  0  0  0  0  0  0  0  0  0  0  0
   -4.3490   14.2590   18.6960 H   0  0  0  0  0  0  0  0  0  0  0  0
   -5.1290   13.8850   20.2300 H   0  0  0  0  0  0  0  0  0  0  0  0
   -3.2510   12.8670   19.9390 C   0  0  0  0  0  0  0  0  0  0  0  0
   -3.5430   12.2160   20.7580 H   0  0  0  0  0  0  0  0  0  0  0  0
   -2.6410   13.6730   20.3480 H   0  0  0  0  0  0  0  0  0  0  0  0
    1.5220    8.8920   18.4170 C   0  0  0  0  0  0  0  0  0  0  0  0
    1.7810    8.9300   17.2250 O   0  0  0  0  0  0  0  0  0  0  0  0
    4.5510    6.0840   15.5110 H   0  0  0  0  0  0  0  0  0  0  0  0
  1  2  1  0  0  0  0
  1  3  1  0  0  0  0
  1  4  1  0  0  0  0
  1  5  1  0  0  0  0
  5  6  1  0  0  0  0
  5 19  1  0  0  0  0
  5 64  1  0  0  0  0
  6  7  1  0  0  0  0
  6  8  1  0  0  0  0
  6  9  1  0  0  0  0
  9 10  2  0  0  0  0
  9 14  1  0  0  0  0
 10 11  1  0  0  0  0
 11 12  2  0  0  0  0
 12 13  1  0  0  0  0
 12 14  1  0  0  0  0
 14 15  1  0  0  0  0
 15 16  1  0  0  0  0
 15 17  1  0  0  0  0
 15 18  1  0  0  0  0
 19 20  1  0  0  0  0
 19 27  2  0  0  0  0
 20 21  1  0  0  0  0
 20 22  2  0  0  0  0
 22 23  1  0  0  0  0
 22 24  1  0  0  0  0
 24 25  1  0  0  0  0
 24 26  2  0  0  0  0
 26 27  1  0  0  0  0
 26 29  1  0  0  0  0
 27 28  1  0  0  0  0
 29 30  1  0  0  0  0
 29 62  1  0  0  0  0
 30 31  1  0  0  0  0
 30 32  1  0  0  0  0
 30 33  1  0  0  0  0
 33 34  1  0  0  0  0
 33 40  2  0  0  0  0
 34 35  2  0  0  0  0
 34 62  1  0  0  0  0
 35 36  1  0  0  0  0
 35 37  1  0  0  0  0
 37 38  2  0  0  0  0
 37 45  1  0  0  0  0
 38 39  1  0  0  0  0
 38 40  1  0  0  0  0
 40 41  1  0  0  0  0
 41 42  1  0  0  0  0
 41 43  1  0  0  0  0
 41 44  1  0  0  0  0
 45 46  1  0  0  0  0
 45 47  1  0  0  0  0
 45 59  1  0  0  0  0
 47 48  1  0  0  0  0
 47 49  1  0  0  0  0
 47 50  1  0  0  0  0
 50 51  1  0  0  0  0
 50 52  1  0  0  0  0
 50 53  1  0  0  0  0
 53 54  1  0  0  0  0
 53 55  1  0  0  0  0
 53 56  1  0  0  0  0
 56 57  1  0  0  0  0
 56 58  1  0  0  0  0
 56 59  1  0  0  0  0
 59 60  1  0  0  0  0
 59 61  1  0  0  0  0
 62 63  2  0  0  0  0
M  END
>  <receptor>
S(=O)(=O)([O-])[O-].S(CCC(NC(=O)C(NC(=O)C(NC(=O)CNC(=O)C(NC(=O)C1N(C(=O)C(NC(=O)C(NC(=O)C(NC(=O)C(NC(=O)C(NC(=O)C(NC(=O)C(NC(=O)C(NC(=O)C(NC(=O)C(NC(=O)C(NC(=O)C(NC(=O)C(NC(=O)C(NC(=O)C(NC(=O)C(NC(=O)C(NC(=O)C(NC(=O)C(NC(=O)CNC(=O)C(NC(=O)C(NC(=O)C(NC(=O)C(NC(=O)C(NC(=O)C(NC(=O)C(NC(=O)C(NC(=O)C(NC(=O)C(NC(=O)C(NC(=O)C(NC(=O)C(NC(=O)C)CCCC[NH3+])C(C)C)C(O)C)CCC(=O)N)CCC(=O)[O-])CCC(=O)N)Cc2ccccc2)CCC(=O)[O-])CC(C)C)Cc2ccc(O)cc2)CS)CCC(=O)[O-])CCSC)CO)C(O)C)Cc2ccccc2)CCC(=O)N)CC(C)C)C[S-])CCCC[NH3+])C(CC)C)C[S-])C)CCC(=O)[O-])CC(=O)N)CC(=O)[O-])CCCC[NH3+])CC(=O)[O-])C(C)C)CCCC[NH3+])C(CC)C)CCC(=O)[O-])CCC1)C[S-])Cc1nc[n-]c1)CC(C)C)C(=O)NC(C(=O)NC(C(=O)NC(C(=O)NC(C(=O)NC(C(=O)NC(C(=O)NC(C(=O)NC(C(=O)NC(C(=O)NC(C(=O)NC(C(=O)NC(C(=O)NCC(=O)NC(C(=O)NCC(=O)NC(C(=O)N1C(C(=O)NC(C(=O)NC(C(=O)NC(C(=O)NC(C(=O)NC(C(=O)NC(C(=O)NC(C(=O)NCC(=O)NC(C(=O)NC(C(=O)N2C(C(=O)NC(C(=O)NC(C(=O)NC(C(=O)NC(C(=O)N3C(C(=O)NC(C(=O)NC(C(=O)[O-])CC(=O)[O-])Cc4ccccc4)CCC3)CC(=O)[O-])C(C)C)C(CC)C)C(CC)C)CCC2)CCC(=O)[O-])C(O)C)CCCC[NH3+])C(CC)C)CCC(=O)[O-])CS)CCCNC(=[NH2+])N)C[S-])Cc2ccccc2)CCC1)C[S-])CCC(=O)N)CC(=O)[O-])CO)CCC(=O)[O-])CCC(=O)N)Cc1c2c([nH]c1)cccc2)C)C(O)C)CC(C)C)C[S-])CO)C(O)C)C[S-])C.S(CCC(NC(=O)C(NC(=O)C(NC(=O)C(NC(=O)C(NC(=O)C(NC(=O)C(NC(=O)C(NC(=O)C(NC(=O)C(NC(=O)C(NC(=O)C(NC(=O)C(NC(=O)C(NC(=O)C(NC(=O)C(NC(=O)C[NH3+])CCC(=O)N)C)C)C)CC(=O)[O-])CCCNC(=[NH2+])N)CCCNC(=[NH2+])N)C(O)C)C(C)C)CCC(=O)[O-])CCCC[NH3+])C(O)C)Cc1c2c([nH]c1)cccc2)C)CC(C)C)C(=O)NC(C(=O)NC(C(=O)NC(C(=O)NC(C(=O)NC(C(=O)NC(C(=O)NC(C(=O)NC(C(=O)NC(C(=O)N1C(C(=O)NC(C(=O)NC(C(=O)NC(C(=O)NC(C(=O)NC(C(=O)NC(C(=O)NC(C(=O)N2C(C(=O)N3C(C(=O)NC(C(=O)NC(C(=O)NC(C(=O)NC(C(=O)NC(C(=O)NC(C(=O)N4C(C(=O)NC(C(=O)NC(C(=O)NC(C(=O)NC(C(=O)NC(C(=O)NC(C(=O)NC(C(=O)NC(C(=O)NC(C(=O)NC(C(=O)NC(C(=O)NC(C(=O)NC(C(=O)NC(C(=O)NC(C(=O)NC(C(=O)NC(C(=O)NC(C(=O)NC(C(=O)NC(C(=O)NC(C(=O)NC(C(=O)NC(C(=O)NC(C(=O)NC(C(=O)NC(C(=O)NC(C(=O)NC(C(=O)NC(C(=O)NC(C(=O)NC(C(=O)NC(C(=O)NC(C(=O)NC(C(=O)NC(C(=O)NC(C(=O)NC(C(=O)NC(C(=O)NC(C(=O)NC(C(=O)NC(C(=O)NC(C(=O)NC(C(=O)NC(C(=O)NC(C(=O)NC(C(=O)NC(C(=O)NC(C(=O)NCC(=O)NC(C(=O)NC(C(=O)NC(C(=O)NC(C(=O)NC(C(=O)NC(C(=O)NC(C(=O)NC(C(=O)NC(C(=O)NC(C(=O)NC(C(=O)NC(C(=O)NC(C(=O)NC(C(=O)NC(C(=O)NC(C(=O)NC(C(=O)NC(C(=O)NC(C(=O)NC(C(=O)NC(C(=O)NC(C(=O)NC(C(=O)NC(C(=O)NC(C(=O)NC(C(=O)NC(C(=O)NC(C(=O)NC(C(=O)NC(C(=O)NC(C(=O)NC(C(=O)NC(C(=O)N5C(C(=O)NC(C(=O)NCC(=O)NC(C(=O)NC(C(=O)NC(C(=O)NCC(=O)NC(C(=O)NC(C(=O)NC(C(=O)NC(C(=O)NC(C(=O)NC(C(=O)NC(C(=O)NC(C(=O)NC(C(=O)NC(C(=O)NC(C(=O)NC(C(=O)NC(C(=O)NC(C(=O)NC(C(=O)NC(C(=O)NC(C(=O)NC(C(=O)NCC(=O)NC(C(=O)NC(C(=O)NC(C(=O)NC(C(=O)NC(C(=O)N6C(C(=O)NC(C(=O)NC(C(=O)NC(C(=O)NC(C(=O)NC(C(=O)NC(C(=O)NC(C(=O)NC(C(=O)NC(C(=O)NC(C(=O)NC(C(=O)NC(C(=O)NC(C(=O)NC(C(=O)NC(C(=O)NC(C(=O)NCC(=O)NC(C(=O)NC(C(=O)NC(C(=O)NC(C(=O)NC(C(=O)NC(C(=O)NC(C(=O)NC(C(=O)NC(C(=O)NC(C(=O)NC(C(=O)NC(C(=O)NC(C(=O)NC(C(=O)NC(C(=O)NC(C(=O)NC(C(=O)NC(C(=O)NC(C(=O)NC(C(=O)NC(C(=O)NC(C(=O)NC(C(=O)NC(C(=O)NC(C(=O)NC(C(=O)NC(C(=O)NC(C(=O)NC(C(=O)NC(C(=O)NC(C(=O)N7C(C(=O)NC(C(=O)NCC(=O)NC(C(=O)NC(C(=O)NC(C(=O)NC(C(=O)NC(C(=O)NC(C(=O)NC(C(=O)NC(C(=O)NC(C(=O)NC(C(=O)NC(C(=O)NC(C(=O)NC(C(=O)N8C(C(=O)NCC(=O)NC(C(=O)NC(C(=O)NC(C(=O)NC(C(=O)NC(C(=O)NC(C(=O)NC(C(=O)NC(C(=O)NC(C(=O)NC(C(=O)NC(C(=O)NC(C(=O)NC(C(=O)NC(C(=O)NC(C(=O)NC(C(=O)NC(C(=O)NC(C(=O)NC(C(=O)NC(C(=O)N9C(C(=O)NCC(=O)NC(C(=O)NC(C(=O)NC(C(=O)NC(C(=O)NC(C(=O)NC(C(=O)NC(C(=O)NC(C(=O)NC(C(=O)NC(C(=O)NC(C(=O)NCC(=O)NC(C(=O)NC(C(=O)NC(C(=O)NC(C(=O)NCC(=O)NC(C(=O)NC(C(=O)NC(C(=O)NCC(=O)NC(C(=O)NCC(=O)NC(C(=O)NC(C(=O)NC(C(=O)NC(C(=O)NC(C(=O)NC(C(=O)N%10C(C(=O)NC(C(=O)NC(C(=O)NC(C(=O)N%11C(C(=O)NC(C(=O)NC(C(=O)NC(C(=O)NC(C(=O)NC(C(=O)NC(C(=O)NC(C(=O)NCC(=O)NC(C(=O)NC(C(=O)NC(C(=O)NCC(=O)NC(C(=O)NC(C(=O)NC(C(=O)NC(C(=O)N%12C(C(=O)NC(C(=O)NCC(=O)NC(C(=O)NC(C(=O)NC(C(=O)NC(C(=O)NC)CC(=O)N)Cc%13ccc(O)cc%13)CO)CCCNC(=[NH2+])N)CC(=O)[O-])CCC%12)Cc%12ccc(O)cc%12)CC(C)C)Cc%12ccc(O)cc%12)Cc%12ccccc%12)CCC(=O)[O-])C)CO)CC(=O)[O-])C(CC)C)CC(C)C)C)CCC(=O)N)Cc%12ccccc%12)CC(C)C)CCC%11)CCCC[NH3+])CC(=O)N)Cc%11[nH]cnc%11)CCC%10)C(CC)C)C(O)C)CCC(=O)N)CC(C)C)C(CC)C)CC(=O)N)CC(=O)[O-])C(O)C)C(C)C)Cc%10ccc(O)cc%10)C(CC)C)C)Cc%10c%11c([nH]c%10)cccc%11)CCC(=O)N)CC(C)C)CCCNC(=[NH2+])N)C(O)C)CS)CO)CC(C)C)CCCNC(=[NH2+])N)Cc%10ccccc%10)C(CC)C)Cc%10ccc(O)cc%10)CO)CCC9)CCCC[NH3+])C(O)C)CO)Cc9ccc(O)cc9)CCCC[NH3+])CCC(=O)N)CC(C)C)CCCNC(=[NH2+])N)C)CCCC[NH3+])C(C)C)CCC(=O)[O-])CC(=O)[O-])Cc9ccc(O)cc9)C(O)C)CC(C)C)Cc9ccccc9)C)CCSC)Cc9ccc(O)cc9)CCC8)Cc8nc[nH]c8)C(O)C)C(C)C)C)CC(C)C)Cc8ccccc8)CC(=O)N)Cc8c9c([nH]c8)cccc9)CC(=O)N)CCCNC(=[NH2+])N)CC(C)C)C(CC)C)CO)Cc8c9c([nH]c8)cccc9)CCC7)CCC(=O)N)Cc7ccccc7)CC(C)C)CCCNC(=[NH2+])N)C(O)C)Cc7ccccc7)C(CC)C)CC(=O)[O-])Cc7ccccc7)CCC(=O)[O-])Cc7ccccc7)C(C)C)CO)C(CC)C)Cc7ccc(O)cc7)CC(=O)[O-])CC(=O)N)CS)C(O)C)CC(C)C)CC(=O)[O-])C(CC)C)C(O)C)CO)CCCC[NH3+])CC(C)C)C)CCSC)C)CCC(=O)[O-])CC(C)C)CO)CO)C(CC)C)CCC(=O)N)Cc7nc[nH]c7)C(C)C)CCC(=O)[O-])Cc7nc[nH]c7)CC(C)C)CS)CCC(=O)N)CCCNC(=[NH2+])N)Cc7ccccc7)C(C)C)CCCC[NH3+])Cc7c8c([nH]c7)cccc8)CCC6)C(C)C)C(CC)C)C(O)C)CCCC[NH3+])CC(=O)[O-])Cc6ccccc6)Cc6ccccc6)CCCC[NH3+])CCCNC(=[NH2+])N)Cc6c7c([nH]c6)cccc7)Cc6ccccc6)CCC(=O)[O-])C)C)CC(=O)[O-])C)CCCC[NH3+])C(O)C)C(CC)C)CCCNC(=[NH2+])N)Cc6ccccc6)CC(=O)N)CC(=O)[O-])CCC(=O)N)Cc6ccccc6)CCC(=O)N)CC(=O)N)CCC5)Cc5ccccc5)C(CC)C)C)CCCC[NH3+])C(CC)C)CCC(=O)[O-])C)CC(C)C)CCSC)Cc5nc[nH]c5)CO)Cc5ccccc5)C(CC)C)CC(C)C)CO)CC(C)C)CCCC[NH3+])C(O)C)CC(C)C)CC(=O)N)CCCNC(=[NH2+])N)CCCNC(=[NH2+])N)CC(=O)[O-])CCC(=O)N)CO)CCC(=O)N)CCC(=O)[O-])CCC(=O)[O-])Cc5ccc(O)cc5)CCSC)CCCNC(=[NH2+])N)CCC(=O)[O-])CCCC[NH3+])CCC(=O)[O-])CCCC[NH3+])Cc5ccccc5)CC(C)C)CCCNC(=[NH2+])N)C(CC)C)C)CCCNC(=[NH2+])N)CCCC[NH3+])CO)CCCC[NH3+])CCCC[NH3+])CCSC)CC(C)C)CO)CC(=O)[O-])C(CC)C)Cc5ccc(O)cc5)C(CC)C)CCCC[NH3+])Cc5ccccc5)Cc5ccc(O)cc5)CCC(=O)[O-])CC(=O)N)CCC(=O)[O-])CO)CC(C)C)CCC(=O)N)C)CC(C)C)CCCC[NH3+])CCC(=O)N)CC(=O)N)CC(=O)[O-])CC(=O)[O-])Cc5ccc(O)cc5)CCCC[NH3+])CO)CC(C)C)C(CC)C)CC(C)C)CCCNC(=[NH2+])N)CC(C)C)Cc5nc[nH]c5)CCC(=O)N)Cc5ccc(O)cc5)C(O)C)CC(=O)[O-])CCC4)CC(C)C)C(CC)C)CC(=O)[O-])CC(C)C)C(CC)C)Cc4ccc(O)cc4)CCC3)CCC2)CO)CC(=O)N)CCCC[NH3+])CC(C)C)CCC(=O)N)CC(C)C)CCCC[NH3+])CCC1)CC(=O)N)CCC(=O)N)CS)CC(C)C)CCCNC(=[NH2+])N)C(C)C)C(C)C)C)CC(=O)[O-])C.OCCO.[UH+3].[Zn+2].[Zn+2].O.O.O.O.O.O.O.O.O.O.O.O.O.O.O.O.O.O.O.O.O.O.O.O.O.O.O.O.O.O.O.O.O.O.O.O.O.O.O.O.O.O.O.O.O.O.O.O.O.O.O.O.O.O.O.O.O.O.O.O.O.O.O.O.O.O.O.O.O.O.O.O.O.O.O.O.O.O.O.O.O.O.O.O.O.O.O.O.O.O.O.O.O.O.O.O.O.O.O.O.O.O.O.O.O.O.O.O.O.O.O.O.O.O.O.O.O.O.O.O.O.O.O.O.O.O.O.O.O.O.O.O.O.O.O.O.O.O.O.O.O.O

>  <rseq>
1

>  <mseq>
42

>  <S>
-8.9910345

>  <rmsd_refine>
2.3803983

>  <E_conf>
49.421749

>  <E_place>
-73.865784

>  <E_score1>
-11.034281

>  <E_refine>
-43.10186

>  <E_score2>
-8.9910345

>  <Field_2>
MR02

>  <pseq>
42

>  <%C>
99.974442

>  <a_heavy>
35

>  <h_logP>
6.9849467

>  <Weight>
482.54999

>  <E_orig>
2.8685255

>  <PLIF_raw>
[63,3751,263,4,2.6]

>  <FP:PLIF>
15 16

>  <PLIF_ligidx>
[63,63]

$$$$

  MOE2020           3D

 46 48  0  0  1  0  0  0  0  0999 V2000
    0.2590   12.9950   19.4290 C   0  0  0  0  0  0  0  0  0  0  0  0
    0.0080   13.7960   18.7330 H   0  0  0  0  0  0  0  0  0  0  0  0
    1.3430   12.8830   19.4480 H   0  0  0  0  0  0  0  0  0  0  0  0
   -0.0810   13.2820   20.4240 H   0  0  0  0  0  0  0  0  0  0  0  0
   -0.4050   11.6860   18.9860 C   0  0  1  0  0  0  0  0  0  0  0  0
   -0.0150   10.5270   19.8860 C   0  0  0  0  0  0  0  0  0  0  0  0
   -0.5660   10.3580   21.1550 C   0  0  0  0  0  0  0  0  0  0  0  0
   -1.2860   11.0430   21.5210 H   0  0  0  0  0  0  0  0  0  0  0  0
   -0.1660    9.2840   21.9460 C   0  0  0  0  0  0  0  0  0  0  0  0
   -0.5880    9.1540   22.9100 H   0  0  0  0  0  0  0  0  0  0  0  0
    0.7410    8.3990   21.5370 N   0  0  0  0  0  0  0  0  0  0  0  0
    1.2780    8.5480   20.3220 C   0  0  0  0  0  0  0  0  0  0  0  0
    0.9340    9.6080   19.4710 C   0  0  0  0  0  0  0  0  0  0  0  0
    1.3960    9.7230   18.5260 H   0  0  0  0  0  0  0  0  0  0  0  0
    2.2410    7.5780   19.9840 N   0  0  0  0  0  0  0  0  0  0  0  0
    2.7280    7.1340   20.7780 H   0  0  0  0  0  0  0  0  0  0  0  0
    2.6550    7.2180   18.7080 C   0  0  0  0  0  0  0  0  0  0  0  0
    3.9040    6.4760   18.6020 C   0  0  0  0  0  0  0  0  0  0  0  0
    4.1100    5.2920   19.3340 C   0  0  0  0  0  0  0  0  0  0  0  0
    3.3300    4.8930   19.9310 H   0  0  0  0  0  0  0  0  0  0  0  0
    5.3400    4.6510   19.2830 C   0  0  0  0  0  0  0  0  0  0  0  0
    5.5180    3.7580   19.8240 H   0  0  0  0  0  0  0  0  0  0  0  0
    6.3220    5.2440   18.5030 C   0  0  0  0  0  0  0  0  0  0  0  0
    6.0590    6.3980   17.7660 C   0  0  0  0  0  0  0  0  0  0  0  0
    4.8710    6.9930   17.8100 N   0  0  0  0  0  0  0  0  0  0  0  0
    7.0180    6.9760   16.9970 O   0  0  0  0  0  0  0  0  0  0  0  0
    7.8940    7.9130   17.6490 C   0  0  0  0  0  0  0  0  0  0  0  0
    8.7210    8.1610   16.9910 H   0  0  0  0  0  0  0  0  0  0  0  0
    7.3500    8.8250   17.8870 H   0  0  0  0  0  0  0  0  0  0  0  0
    8.3030    7.4940   18.5690 H   0  0  0  0  0  0  0  0  0  0  0  0
    7.6400    4.7030   18.4710 N   0  3  0  0  0  0  0  0  0  0  0  0
    8.0110    4.0570   17.5070 O   0  5  0  0  0  0  0  0  0  0  0  0
    8.4050    4.9350   19.3910 O   0  0  0  0  0  0  0  0  0  0  0  0
    1.9890    7.5390   17.7320 O   0  0  0  0  0  0  0  0  0  0  0  0
   -2.2170   11.8890   18.8730 S   0  0  0  0  0  0  0  0  0  0  0  0
   -2.6320   11.0340   17.4040 C   0  0  0  0  0  0  0  0  0  0  0  0
   -1.9270   10.1670   16.7280 N   0  0  0  0  0  0  0  0  0  0  0  0
   -2.6860    9.7990   15.6340 N   0  0  0  0  0  0  0  0  0  0  0  0
   -3.7980   10.4440   15.7050 C   0  0  0  0  0  0  0  0  0  0  0  0
   -4.6210   10.4070   15.0410 H   0  0  0  0  0  0  0  0  0  0  0  0
   -3.8100   11.2200   16.7940 N   0  0  0  0  0  0  0  0  0  0  0  0
   -4.9130   12.0670   17.2310 C   0  0  0  0  0  0  0  0  0  0  0  0
   -4.5620   12.9990   17.6510 H   0  0  0  0  0  0  0  0  0  0  0  0
   -5.5710   12.3200   16.4120 H   0  0  0  0  0  0  0  0  0  0  0  0
   -5.5100   11.5780   17.9880 H   0  0  0  0  0  0  0  0  0  0  0  0
   -0.0420   11.4780   17.9890 H   0  0  0  0  0  0  0  0  0  0  0  0
  1  2  1  0  0  0  0
  1  3  1  0  0  0  0
  1  4  1  0  0  0  0
  1  5  1  0  0  0  0
  5  6  1  0  0  0  0
  5 35  1  0  0  0  0
  5 46  1  0  0  0  0
  6  7  2  0  0  0  0
  6 13  1  0  0  0  0
  7  8  1  0  0  0  0
  7  9  1  0  0  0  0
  9 10  1  0  0  0  0
  9 11  2  0  0  0  0
 11 12  1  0  0  0  0
 12 13  2  0  0  0  0
 12 15  1  0  0  0  0
 13 14  1  0  0  0  0
 15 16  1  0  0  0  0
 15 17  1  0  0  0  0
 17 18  1  0  0  0  0
 17 34  2  0  0  0  0
 18 19  1  0  0  0  0
 18 25  2  0  0  0  0
 19 20  1  0  0  0  0
 19 21  2  0  0  0  0
 21 22  1  0  0  0  0
 21 23  1  0  0  0  0
 23 24  2  0  0  0  0
 23 31  1  0  0  0  0
 24 25  1  0  0  0  0
 24 26  1  0  0  0  0
 26 27  1  0  0  0  0
 27 28  1  0  0  0  0
 27 29  1  0  0  0  0
 27 30  1  0  0  0  0
 31 32  1  0  0  0  0
 31 33  2  0  0  0  0
 35 36  1  0  0  0  0
 36 37  2  0  0  0  0
 36 41  1  0  0  0  0
 37 38  1  0  0  0  0
 38 39  2  0  0  0  0
 39 40  1  0  0  0  0
 39 41  1  0  0  0  0
 41 42  1  0  0  0  0
 42 43  1  0  0  0  0
 42 44  1  0  0  0  0
 42 45  1  0  0  0  0
M  CHG  1  31   1
M  CHG  1  32  -1
M  END
>  <receptor>
S(=O)(=O)([O-])[O-].S(CCC(NC(=O)C(NC(=O)C(NC(=O)CNC(=O)C(NC(=O)C1N(C(=O)C(NC(=O)C(NC(=O)C(NC(=O)C(NC(=O)C(NC(=O)C(NC(=O)C(NC(=O)C(NC(=O)C(NC(=O)C(NC(=O)C(NC(=O)C(NC(=O)C(NC(=O)C(NC(=O)C(NC(=O)C(NC(=O)C(NC(=O)C(NC(=O)C(NC(=O)CNC(=O)C(NC(=O)C(NC(=O)C(NC(=O)C(NC(=O)C(NC(=O)C(NC(=O)C(NC(=O)C(NC(=O)C(NC(=O)C(NC(=O)C(NC(=O)C(NC(=O)C(NC(=O)C)CCCC[NH3+])C(C)C)C(O)C)CCC(=O)N)CCC(=O)[O-])CCC(=O)N)Cc2ccccc2)CCC(=O)[O-])CC(C)C)Cc2ccc(O)cc2)CS)CCC(=O)[O-])CCSC)CO)C(O)C)Cc2ccccc2)CCC(=O)N)CC(C)C)C[S-])CCCC[NH3+])C(CC)C)C[S-])C)CCC(=O)[O-])CC(=O)N)CC(=O)[O-])CCCC[NH3+])CC(=O)[O-])C(C)C)CCCC[NH3+])C(CC)C)CCC(=O)[O-])CCC1)C[S-])Cc1nc[n-]c1)CC(C)C)C(=O)NC(C(=O)NC(C(=O)NC(C(=O)NC(C(=O)NC(C(=O)NC(C(=O)NC(C(=O)NC(C(=O)NC(C(=O)NC(C(=O)NC(C(=O)NC(C(=O)NCC(=O)NC(C(=O)NCC(=O)NC(C(=O)N1C(C(=O)NC(C(=O)NC(C(=O)NC(C(=O)NC(C(=O)NC(C(=O)NC(C(=O)NC(C(=O)NCC(=O)NC(C(=O)NC(C(=O)N2C(C(=O)NC(C(=O)NC(C(=O)NC(C(=O)NC(C(=O)N3C(C(=O)NC(C(=O)NC(C(=O)[O-])CC(=O)[O-])Cc4ccccc4)CCC3)CC(=O)[O-])C(C)C)C(CC)C)C(CC)C)CCC2)CCC(=O)[O-])C(O)C)CCCC[NH3+])C(CC)C)CCC(=O)[O-])CS)CCCNC(=[NH2+])N)C[S-])Cc2ccccc2)CCC1)C[S-])CCC(=O)N)CC(=O)[O-])CO)CCC(=O)[O-])CCC(=O)N)Cc1c2c([nH]c1)cccc2)C)C(O)C)CC(C)C)C[S-])CO)C(O)C)C[S-])C.S(CCC(NC(=O)C(NC(=O)C(NC(=O)C(NC(=O)C(NC(=O)C(NC(=O)C(NC(=O)C(NC(=O)C(NC(=O)C(NC(=O)C(NC(=O)C(NC(=O)C(NC(=O)C(NC(=O)C(NC(=O)C(NC(=O)C[NH3+])CCC(=O)N)C)C)C)CC(=O)[O-])CCCNC(=[NH2+])N)CCCNC(=[NH2+])N)C(O)C)C(C)C)CCC(=O)[O-])CCCC[NH3+])C(O)C)Cc1c2c([nH]c1)cccc2)C)CC(C)C)C(=O)NC(C(=O)NC(C(=O)NC(C(=O)NC(C(=O)NC(C(=O)NC(C(=O)NC(C(=O)NC(C(=O)NC(C(=O)N1C(C(=O)NC(C(=O)NC(C(=O)NC(C(=O)NC(C(=O)NC(C(=O)NC(C(=O)NC(C(=O)N2C(C(=O)N3C(C(=O)NC(C(=O)NC(C(=O)NC(C(=O)NC(C(=O)NC(C(=O)NC(C(=O)N4C(C(=O)NC(C(=O)NC(C(=O)NC(C(=O)NC(C(=O)NC(C(=O)NC(C(=O)NC(C(=O)NC(C(=O)NC(C(=O)NC(C(=O)NC(C(=O)NC(C(=O)NC(C(=O)NC(C(=O)NC(C(=O)NC(C(=O)NC(C(=O)NC(C(=O)NC(C(=O)NC(C(=O)NC(C(=O)NC(C(=O)NC(C(=O)NC(C(=O)NC(C(=O)NC(C(=O)NC(C(=O)NC(C(=O)NC(C(=O)NC(C(=O)NC(C(=O)NC(C(=O)NC(C(=O)NC(C(=O)NC(C(=O)NC(C(=O)NC(C(=O)NC(C(=O)NC(C(=O)NC(C(=O)NC(C(=O)NC(C(=O)NC(C(=O)NC(C(=O)NC(C(=O)NC(C(=O)NC(C(=O)NC(C(=O)NCC(=O)NC(C(=O)NC(C(=O)NC(C(=O)NC(C(=O)NC(C(=O)NC(C(=O)NC(C(=O)NC(C(=O)NC(C(=O)NC(C(=O)NC(C(=O)NC(C(=O)NC(C(=O)NC(C(=O)NC(C(=O)NC(C(=O)NC(C(=O)NC(C(=O)NC(C(=O)NC(C(=O)NC(C(=O)NC(C(=O)NC(C(=O)NC(C(=O)NC(C(=O)NC(C(=O)NC(C(=O)NC(C(=O)NC(C(=O)NC(C(=O)NC(C(=O)NC(C(=O)NC(C(=O)N5C(C(=O)NC(C(=O)NCC(=O)NC(C(=O)NC(C(=O)NC(C(=O)NCC(=O)NC(C(=O)NC(C(=O)NC(C(=O)NC(C(=O)NC(C(=O)NC(C(=O)NC(C(=O)NC(C(=O)NC(C(=O)NC(C(=O)NC(C(=O)NC(C(=O)NC(C(=O)NC(C(=O)NC(C(=O)NC(C(=O)NC(C(=O)NC(C(=O)NCC(=O)NC(C(=O)NC(C(=O)NC(C(=O)NC(C(=O)NC(C(=O)N6C(C(=O)NC(C(=O)NC(C(=O)NC(C(=O)NC(C(=O)NC(C(=O)NC(C(=O)NC(C(=O)NC(C(=O)NC(C(=O)NC(C(=O)NC(C(=O)NC(C(=O)NC(C(=O)NC(C(=O)NC(C(=O)NC(C(=O)NCC(=O)NC(C(=O)NC(C(=O)NC(C(=O)NC(C(=O)NC(C(=O)NC(C(=O)NC(C(=O)NC(C(=O)NC(C(=O)NC(C(=O)NC(C(=O)NC(C(=O)NC(C(=O)NC(C(=O)NC(C(=O)NC(C(=O)NC(C(=O)NC(C(=O)NC(C(=O)NC(C(=O)NC(C(=O)NC(C(=O)NC(C(=O)NC(C(=O)NC(C(=O)NC(C(=O)NC(C(=O)NC(C(=O)NC(C(=O)NC(C(=O)NC(C(=O)N7C(C(=O)NC(C(=O)NCC(=O)NC(C(=O)NC(C(=O)NC(C(=O)NC(C(=O)NC(C(=O)NC(C(=O)NC(C(=O)NC(C(=O)NC(C(=O)NC(C(=O)NC(C(=O)NC(C(=O)NC(C(=O)N8C(C(=O)NCC(=O)NC(C(=O)NC(C(=O)NC(C(=O)NC(C(=O)NC(C(=O)NC(C(=O)NC(C(=O)NC(C(=O)NC(C(=O)NC(C(=O)NC(C(=O)NC(C(=O)NC(C(=O)NC(C(=O)NC(C(=O)NC(C(=O)NC(C(=O)NC(C(=O)NC(C(=O)NC(C(=O)N9C(C(=O)NCC(=O)NC(C(=O)NC(C(=O)NC(C(=O)NC(C(=O)NC(C(=O)NC(C(=O)NC(C(=O)NC(C(=O)NC(C(=O)NC(C(=O)NC(C(=O)NCC(=O)NC(C(=O)NC(C(=O)NC(C(=O)NC(C(=O)NCC(=O)NC(C(=O)NC(C(=O)NC(C(=O)NCC(=O)NC(C(=O)NCC(=O)NC(C(=O)NC(C(=O)NC(C(=O)NC(C(=O)NC(C(=O)NC(C(=O)N%10C(C(=O)NC(C(=O)NC(C(=O)NC(C(=O)N%11C(C(=O)NC(C(=O)NC(C(=O)NC(C(=O)NC(C(=O)NC(C(=O)NC(C(=O)NC(C(=O)NCC(=O)NC(C(=O)NC(C(=O)NC(C(=O)NCC(=O)NC(C(=O)NC(C(=O)NC(C(=O)NC(C(=O)N%12C(C(=O)NC(C(=O)NCC(=O)NC(C(=O)NC(C(=O)NC(C(=O)NC(C(=O)NC)CC(=O)N)Cc%13ccc(O)cc%13)CO)CCCNC(=[NH2+])N)CC(=O)[O-])CCC%12)Cc%12ccc(O)cc%12)CC(C)C)Cc%12ccc(O)cc%12)Cc%12ccccc%12)CCC(=O)[O-])C)CO)CC(=O)[O-])C(CC)C)CC(C)C)C)CCC(=O)N)Cc%12ccccc%12)CC(C)C)CCC%11)CCCC[NH3+])CC(=O)N)Cc%11[nH]cnc%11)CCC%10)C(CC)C)C(O)C)CCC(=O)N)CC(C)C)C(CC)C)CC(=O)N)CC(=O)[O-])C(O)C)C(C)C)Cc%10ccc(O)cc%10)C(CC)C)C)Cc%10c%11c([nH]c%10)cccc%11)CCC(=O)N)CC(C)C)CCCNC(=[NH2+])N)C(O)C)CS)CO)CC(C)C)CCCNC(=[NH2+])N)Cc%10ccccc%10)C(CC)C)Cc%10ccc(O)cc%10)CO)CCC9)CCCC[NH3+])C(O)C)CO)Cc9ccc(O)cc9)CCCC[NH3+])CCC(=O)N)CC(C)C)CCCNC(=[NH2+])N)C)CCCC[NH3+])C(C)C)CCC(=O)[O-])CC(=O)[O-])Cc9ccc(O)cc9)C(O)C)CC(C)C)Cc9ccccc9)C)CCSC)Cc9ccc(O)cc9)CCC8)Cc8nc[nH]c8)C(O)C)C(C)C)C)CC(C)C)Cc8ccccc8)CC(=O)N)Cc8c9c([nH]c8)cccc9)CC(=O)N)CCCNC(=[NH2+])N)CC(C)C)C(CC)C)CO)Cc8c9c([nH]c8)cccc9)CCC7)CCC(=O)N)Cc7ccccc7)CC(C)C)CCCNC(=[NH2+])N)C(O)C)Cc7ccccc7)C(CC)C)CC(=O)[O-])Cc7ccccc7)CCC(=O)[O-])Cc7ccccc7)C(C)C)CO)C(CC)C)Cc7ccc(O)cc7)CC(=O)[O-])CC(=O)N)CS)C(O)C)CC(C)C)CC(=O)[O-])C(CC)C)C(O)C)CO)CCCC[NH3+])CC(C)C)C)CCSC)C)CCC(=O)[O-])CC(C)C)CO)CO)C(CC)C)CCC(=O)N)Cc7nc[nH]c7)C(C)C)CCC(=O)[O-])Cc7nc[nH]c7)CC(C)C)CS)CCC(=O)N)CCCNC(=[NH2+])N)Cc7ccccc7)C(C)C)CCCC[NH3+])Cc7c8c([nH]c7)cccc8)CCC6)C(C)C)C(CC)C)C(O)C)CCCC[NH3+])CC(=O)[O-])Cc6ccccc6)Cc6ccccc6)CCCC[NH3+])CCCNC(=[NH2+])N)Cc6c7c([nH]c6)cccc7)Cc6ccccc6)CCC(=O)[O-])C)C)CC(=O)[O-])C)CCCC[NH3+])C(O)C)C(CC)C)CCCNC(=[NH2+])N)Cc6ccccc6)CC(=O)N)CC(=O)[O-])CCC(=O)N)Cc6ccccc6)CCC(=O)N)CC(=O)N)CCC5)Cc5ccccc5)C(CC)C)C)CCCC[NH3+])C(CC)C)CCC(=O)[O-])C)CC(C)C)CCSC)Cc5nc[nH]c5)CO)Cc5ccccc5)C(CC)C)CC(C)C)CO)CC(C)C)CCCC[NH3+])C(O)C)CC(C)C)CC(=O)N)CCCNC(=[NH2+])N)CCCNC(=[NH2+])N)CC(=O)[O-])CCC(=O)N)CO)CCC(=O)N)CCC(=O)[O-])CCC(=O)[O-])Cc5ccc(O)cc5)CCSC)CCCNC(=[NH2+])N)CCC(=O)[O-])CCCC[NH3+])CCC(=O)[O-])CCCC[NH3+])Cc5ccccc5)CC(C)C)CCCNC(=[NH2+])N)C(CC)C)C)CCCNC(=[NH2+])N)CCCC[NH3+])CO)CCCC[NH3+])CCCC[NH3+])CCSC)CC(C)C)CO)CC(=O)[O-])C(CC)C)Cc5ccc(O)cc5)C(CC)C)CCCC[NH3+])Cc5ccccc5)Cc5ccc(O)cc5)CCC(=O)[O-])CC(=O)N)CCC(=O)[O-])CO)CC(C)C)CCC(=O)N)C)CC(C)C)CCCC[NH3+])CCC(=O)N)CC(=O)N)CC(=O)[O-])CC(=O)[O-])Cc5ccc(O)cc5)CCCC[NH3+])CO)CC(C)C)C(CC)C)CC(C)C)CCCNC(=[NH2+])N)CC(C)C)Cc5nc[nH]c5)CCC(=O)N)Cc5ccc(O)cc5)C(O)C)CC(=O)[O-])CCC4)CC(C)C)C(CC)C)CC(=O)[O-])CC(C)C)C(CC)C)Cc4ccc(O)cc4)CCC3)CCC2)CO)CC(=O)N)CCCC[NH3+])CC(C)C)CCC(=O)N)CC(C)C)CCCC[NH3+])CCC1)CC(=O)N)CCC(=O)N)CS)CC(C)C)CCCNC(=[NH2+])N)C(C)C)C(C)C)C)CC(=O)[O-])C.OCCO.[UH+3].[Zn+2].[Zn+2].O.O.O.O.O.O.O.O.O.O.O.O.O.O.O.O.O.O.O.O.O.O.O.O.O.O.O.O.O.O.O.O.O.O.O.O.O.O.O.O.O.O.O.O.O.O.O.O.O.O.O.O.O.O.O.O.O.O.O.O.O.O.O.O.O.O.O.O.O.O.O.O.O.O.O.O.O.O.O.O.O.O.O.O.O.O.O.O.O.O.O.O.O.O.O.O.O.O.O.O.O.O.O.O.O.O.O.O.O.O.O.O.O.O.O.O.O.O.O.O.O.O.O.O.O.O.O.O.O.O.O.O.O.O.O.O.O.O.O.O.O.O

>  <rseq>
1

>  <mseq>
43

>  <S>
-8.5315609

>  <rmsd_refine>
1.7049099

>  <E_conf>
-16.573345

>  <E_place>
-62.541153

>  <E_score1>
-10.97731

>  <E_refine>
-50.276958

>  <E_score2>
-8.5315609

>  <Field_2>
MR03

>  <pseq>
43

>  <%C>
99.652252

>  <a_heavy>
29

>  <h_logP>
2.278482

>  <Weight>
415.43399

>  <E_orig>
1.4

>  <PLIF_raw>
[[15,38],[5177,4205],[366,289],[3,1],[1.2,1.5]]

>  <FP:PLIF>
36 38 17

>  <PLIF_ligidx>
[38,38,15]

$$$$

  MOE2020           3D

 53 56  0  0  1  0  0  0  0  0999 V2000
   -1.0910   12.7140   19.0020 C   0  0  0  0  0  0  0  0  0  0  0  0
   -1.5130   13.2170   18.1320 H   0  0  0  0  0  0  0  0  0  0  0  0
   -0.1080   13.1380   19.2070 H   0  0  0  0  0  0  0  0  0  0  0  0
   -1.7440   12.8760   19.8590 H   0  0  0  0  0  0  0  0  0  0  0  0
   -0.9530   11.2170   18.6950 C   0  0  2  0  0  0  0  0  0  0  0  0
   -2.3120   10.5440   18.4370 C   0  0  0  0  0  0  0  0  0  0  0  0
   -3.0830   11.0240   19.0360 H   0  0  0  0  0  0  0  0  0  0  0  0
   -2.2530    9.5010   18.7450 H   0  0  0  0  0  0  0  0  0  0  0  0
   -2.7040   10.5170   16.9770 C   0  0  0  0  0  0  0  0  0  0  0  0
   -2.1330    9.8390   16.0340 N   0  0  0  0  0  0  0  0  0  0  0  0
   -2.8060   10.0990   14.8680 N   0  0  0  0  0  0  0  0  0  0  0  0
   -3.7550   10.9170   15.1680 C   0  0  0  0  0  0  0  0  0  0  0  0
   -4.4830   11.3380   14.5360 H   0  0  0  0  0  0  0  0  0  0  0  0
   -3.7270   11.1990   16.4630 N   0  0  0  0  0  0  0  0  0  0  0  0
   -4.6770   12.0610   17.1530 C   0  0  0  0  0  0  0  0  0  0  0  0
   -5.2690   12.6420   16.4590 H   0  0  0  0  0  0  0  0  0  0  0  0
   -4.1790   12.7650   17.8050 H   0  0  0  0  0  0  0  0  0  0  0  0
   -5.3660   11.4890   17.7580 H   0  0  0  0  0  0  0  0  0  0  0  0
   -0.1800   10.4470   19.7560 C   0  0  0  0  0  0  0  0  0  0  0  0
   -0.4320   10.5920   21.1230 C   0  0  0  0  0  0  0  0  0  0  0  0
   -1.1590   11.2830   21.4610 H   0  0  0  0  0  0  0  0  0  0  0  0
    0.2630    9.8180   22.0510 C   0  0  0  0  0  0  0  0  0  0  0  0
    0.0660    9.9360   23.0850 H   0  0  0  0  0  0  0  0  0  0  0  0
    1.2040    8.8890   21.6240 C   0  0  0  0  0  0  0  0  0  0  0  0
    1.7280    8.3010   22.3300 H   0  0  0  0  0  0  0  0  0  0  0  0
    1.4510    8.7310   20.2580 C   0  0  0  0  0  0  0  0  0  0  0  0
    0.7690    9.5230   19.3290 C   0  0  0  0  0  0  0  0  0  0  0  0
    0.9410    9.4250   18.2920 H   0  0  0  0  0  0  0  0  0  0  0  0
    2.3980    7.7280   19.8990 N   0  0  0  0  0  0  0  0  0  0  0  0
    2.8330    7.2350   20.6910 H   0  0  0  0  0  0  0  0  0  0  0  0
    2.8230    7.3070   18.6380 C   0  0  0  0  0  0  0  0  0  0  0  0
    3.7180    6.2170   18.6180 N   0  0  0  0  0  0  0  0  0  0  0  0
    3.9560    5.3860   19.8050 C   0  0  0  0  0  0  0  0  0  0  0  0
    4.9490    5.5990   20.1730 H   0  0  0  0  0  0  0  0  0  0  0  0
    3.2720    5.5930   20.6130 H   0  0  0  0  0  0  0  0  0  0  0  0
    3.8530    3.8960   19.4910 C   0  0  0  0  0  0  0  0  0  0  0  0
    2.8190    3.6520   19.2730 H   0  0  0  0  0  0  0  0  0  0  0  0
    4.1740    3.2960   20.3370 H   0  0  0  0  0  0  0  0  0  0  0  0
    4.6500    3.5400   18.3560 O   0  0  0  0  0  0  0  0  0  0  0  0
    4.8290    4.4420   17.3370 C   0  0  0  0  0  0  0  0  0  0  0  0
    5.4390    3.9940   16.1830 C   0  0  0  0  0  0  0  0  0  0  0  0
    5.7280    2.9780   16.0900 H   0  0  0  0  0  0  0  0  0  0  0  0
    5.6440    4.9080   15.1550 C   0  0  0  0  0  0  0  0  0  0  0  0
    5.2510    6.2340   15.3430 C   0  0  0  0  0  0  0  0  0  0  0  0
    5.4070    6.9500   14.5770 H   0  0  0  0  0  0  0  0  0  0  0  0
    4.6580    6.6560   16.4610 N   0  0  0  0  0  0  0  0  0  0  0  0
    4.4100    5.7830   17.4430 C   0  0  0  0  0  0  0  0  0  0  0  0
    6.2230    4.4690   13.8300 C   0  0  0  0  0  0  0  0  0  0  0  0
    7.0860    5.3530   13.3160 F   0  0  0  0  0  0  0  0  0  0  0  0
    5.2630    4.2800   12.9410 F   0  0  0  0  0  0  0  0  0  0  0  0
    6.8690    3.3220   13.8950 F   0  0  0  0  0  0  0  0  0  0  0  0
    2.4360    7.8420   17.6030 O   0  0  0  0  0  0  0  0  0  0  0  0
   -0.3620   11.1460   17.7820 H   0  0  0  0  0  0  0  0  0  0  0  0
  1  2  1  0  0  0  0
  1  3  1  0  0  0  0
  1  4  1  0  0  0  0
  1  5  1  0  0  0  0
  5  6  1  0  0  0  0
  5 19  1  0  0  0  0
  5 53  1  0  0  0  0
  6  7  1  0  0  0  0
  6  8  1  0  0  0  0
  6  9  1  0  0  0  0
  9 10  2  0  0  0  0
  9 14  1  0  0  0  0
 10 11  1  0  0  0  0
 11 12  2  0  0  0  0
 12 13  1  0  0  0  0
 12 14  1  0  0  0  0
 14 15  1  0  0  0  0
 15 16  1  0  0  0  0
 15 17  1  0  0  0  0
 15 18  1  0  0  0  0
 19 20  1  0  0  0  0
 19 27  2  0  0  0  0
 20 21  1  0  0  0  0
 20 22  2  0  0  0  0
 22 23  1  0  0  0  0
 22 24  1  0  0  0  0
 24 25  1  0  0  0  0
 24 26  2  0  0  0  0
 26 27  1  0  0  0  0
 26 29  1  0  0  0  0
 27 28  1  0  0  0  0
 29 30  1  0  0  0  0
 29 31  1  0  0  0  0
 31 32  1  0  0  0  0
 31 52  2  0  0  0  0
 32 33  1  0  0  0  0
 32 47  1  0  0  0  0
 33 34  1  0  0  0  0
 33 35  1  0  0  0  0
 33 36  1  0  0  0  0
 36 37  1  0  0  0  0
 36 38  1  0  0  0  0
 36 39  1  0  0  0  0
 39 40  1  0  0  0  0
 40 41  1  0  0  0  0
 40 47  2  0  0  0  0
 41 42  1  0  0  0  0
 41 43  2  0  0  0  0
 43 44  1  0  0  0  0
 43 48  1  0  0  0  0
 44 45  1  0  0  0  0
 44 46  2  0  0  0  0
 46 47  1  0  0  0  0
 48 49  1  0  0  0  0
 48 50  1  0  0  0  0
 48 51  1  0  0  0  0
M  END
>  <receptor>
S(=O)(=O)([O-])[O-].S(CCC(NC(=O)C(NC(=O)C(NC(=O)CNC(=O)C(NC(=O)C1N(C(=O)C(NC(=O)C(NC(=O)C(NC(=O)C(NC(=O)C(NC(=O)C(NC(=O)C(NC(=O)C(NC(=O)C(NC(=O)C(NC(=O)C(NC(=O)C(NC(=O)C(NC(=O)C(NC(=O)C(NC(=O)C(NC(=O)C(NC(=O)C(NC(=O)C(NC(=O)CNC(=O)C(NC(=O)C(NC(=O)C(NC(=O)C(NC(=O)C(NC(=O)C(NC(=O)C(NC(=O)C(NC(=O)C(NC(=O)C(NC(=O)C(NC(=O)C(NC(=O)C(NC(=O)C)CCCC[NH3+])C(C)C)C(O)C)CCC(=O)N)CCC(=O)[O-])CCC(=O)N)Cc2ccccc2)CCC(=O)[O-])CC(C)C)Cc2ccc(O)cc2)CS)CCC(=O)[O-])CCSC)CO)C(O)C)Cc2ccccc2)CCC(=O)N)CC(C)C)C[S-])CCCC[NH3+])C(CC)C)C[S-])C)CCC(=O)[O-])CC(=O)N)CC(=O)[O-])CCCC[NH3+])CC(=O)[O-])C(C)C)CCCC[NH3+])C(CC)C)CCC(=O)[O-])CCC1)C[S-])Cc1nc[n-]c1)CC(C)C)C(=O)NC(C(=O)NC(C(=O)NC(C(=O)NC(C(=O)NC(C(=O)NC(C(=O)NC(C(=O)NC(C(=O)NC(C(=O)NC(C(=O)NC(C(=O)NC(C(=O)NCC(=O)NC(C(=O)NCC(=O)NC(C(=O)N1C(C(=O)NC(C(=O)NC(C(=O)NC(C(=O)NC(C(=O)NC(C(=O)NC(C(=O)NC(C(=O)NCC(=O)NC(C(=O)NC(C(=O)N2C(C(=O)NC(C(=O)NC(C(=O)NC(C(=O)NC(C(=O)N3C(C(=O)NC(C(=O)NC(C(=O)[O-])CC(=O)[O-])Cc4ccccc4)CCC3)CC(=O)[O-])C(C)C)C(CC)C)C(CC)C)CCC2)CCC(=O)[O-])C(O)C)CCCC[NH3+])C(CC)C)CCC(=O)[O-])CS)CCCNC(=[NH2+])N)C[S-])Cc2ccccc2)CCC1)C[S-])CCC(=O)N)CC(=O)[O-])CO)CCC(=O)[O-])CCC(=O)N)Cc1c2c([nH]c1)cccc2)C)C(O)C)CC(C)C)C[S-])CO)C(O)C)C[S-])C.S(CCC(NC(=O)C(NC(=O)C(NC(=O)C(NC(=O)C(NC(=O)C(NC(=O)C(NC(=O)C(NC(=O)C(NC(=O)C(NC(=O)C(NC(=O)C(NC(=O)C(NC(=O)C(NC(=O)C(NC(=O)C(NC(=O)C[NH3+])CCC(=O)N)C)C)C)CC(=O)[O-])CCCNC(=[NH2+])N)CCCNC(=[NH2+])N)C(O)C)C(C)C)CCC(=O)[O-])CCCC[NH3+])C(O)C)Cc1c2c([nH]c1)cccc2)C)CC(C)C)C(=O)NC(C(=O)NC(C(=O)NC(C(=O)NC(C(=O)NC(C(=O)NC(C(=O)NC(C(=O)NC(C(=O)NC(C(=O)N1C(C(=O)NC(C(=O)NC(C(=O)NC(C(=O)NC(C(=O)NC(C(=O)NC(C(=O)NC(C(=O)N2C(C(=O)N3C(C(=O)NC(C(=O)NC(C(=O)NC(C(=O)NC(C(=O)NC(C(=O)NC(C(=O)N4C(C(=O)NC(C(=O)NC(C(=O)NC(C(=O)NC(C(=O)NC(C(=O)NC(C(=O)NC(C(=O)NC(C(=O)NC(C(=O)NC(C(=O)NC(C(=O)NC(C(=O)NC(C(=O)NC(C(=O)NC(C(=O)NC(C(=O)NC(C(=O)NC(C(=O)NC(C(=O)NC(C(=O)NC(C(=O)NC(C(=O)NC(C(=O)NC(C(=O)NC(C(=O)NC(C(=O)NC(C(=O)NC(C(=O)NC(C(=O)NC(C(=O)NC(C(=O)NC(C(=O)NC(C(=O)NC(C(=O)NC(C(=O)NC(C(=O)NC(C(=O)NC(C(=O)NC(C(=O)NC(C(=O)NC(C(=O)NC(C(=O)NC(C(=O)NC(C(=O)NC(C(=O)NC(C(=O)NC(C(=O)NC(C(=O)NCC(=O)NC(C(=O)NC(C(=O)NC(C(=O)NC(C(=O)NC(C(=O)NC(C(=O)NC(C(=O)NC(C(=O)NC(C(=O)NC(C(=O)NC(C(=O)NC(C(=O)NC(C(=O)NC(C(=O)NC(C(=O)NC(C(=O)NC(C(=O)NC(C(=O)NC(C(=O)NC(C(=O)NC(C(=O)NC(C(=O)NC(C(=O)NC(C(=O)NC(C(=O)NC(C(=O)NC(C(=O)NC(C(=O)NC(C(=O)NC(C(=O)NC(C(=O)NC(C(=O)NC(C(=O)N5C(C(=O)NC(C(=O)NCC(=O)NC(C(=O)NC(C(=O)NC(C(=O)NCC(=O)NC(C(=O)NC(C(=O)NC(C(=O)NC(C(=O)NC(C(=O)NC(C(=O)NC(C(=O)NC(C(=O)NC(C(=O)NC(C(=O)NC(C(=O)NC(C(=O)NC(C(=O)NC(C(=O)NC(C(=O)NC(C(=O)NC(C(=O)NC(C(=O)NCC(=O)NC(C(=O)NC(C(=O)NC(C(=O)NC(C(=O)NC(C(=O)N6C(C(=O)NC(C(=O)NC(C(=O)NC(C(=O)NC(C(=O)NC(C(=O)NC(C(=O)NC(C(=O)NC(C(=O)NC(C(=O)NC(C(=O)NC(C(=O)NC(C(=O)NC(C(=O)NC(C(=O)NC(C(=O)NC(C(=O)NCC(=O)NC(C(=O)NC(C(=O)NC(C(=O)NC(C(=O)NC(C(=O)NC(C(=O)NC(C(=O)NC(C(=O)NC(C(=O)NC(C(=O)NC(C(=O)NC(C(=O)NC(C(=O)NC(C(=O)NC(C(=O)NC(C(=O)NC(C(=O)NC(C(=O)NC(C(=O)NC(C(=O)NC(C(=O)NC(C(=O)NC(C(=O)NC(C(=O)NC(C(=O)NC(C(=O)NC(C(=O)NC(C(=O)NC(C(=O)NC(C(=O)NC(C(=O)N7C(C(=O)NC(C(=O)NCC(=O)NC(C(=O)NC(C(=O)NC(C(=O)NC(C(=O)NC(C(=O)NC(C(=O)NC(C(=O)NC(C(=O)NC(C(=O)NC(C(=O)NC(C(=O)NC(C(=O)NC(C(=O)N8C(C(=O)NCC(=O)NC(C(=O)NC(C(=O)NC(C(=O)NC(C(=O)NC(C(=O)NC(C(=O)NC(C(=O)NC(C(=O)NC(C(=O)NC(C(=O)NC(C(=O)NC(C(=O)NC(C(=O)NC(C(=O)NC(C(=O)NC(C(=O)NC(C(=O)NC(C(=O)NC(C(=O)NC(C(=O)N9C(C(=O)NCC(=O)NC(C(=O)NC(C(=O)NC(C(=O)NC(C(=O)NC(C(=O)NC(C(=O)NC(C(=O)NC(C(=O)NC(C(=O)NC(C(=O)NC(C(=O)NCC(=O)NC(C(=O)NC(C(=O)NC(C(=O)NC(C(=O)NCC(=O)NC(C(=O)NC(C(=O)NC(C(=O)NCC(=O)NC(C(=O)NCC(=O)NC(C(=O)NC(C(=O)NC(C(=O)NC(C(=O)NC(C(=O)NC(C(=O)N%10C(C(=O)NC(C(=O)NC(C(=O)NC(C(=O)N%11C(C(=O)NC(C(=O)NC(C(=O)NC(C(=O)NC(C(=O)NC(C(=O)NC(C(=O)NC(C(=O)NCC(=O)NC(C(=O)NC(C(=O)NC(C(=O)NCC(=O)NC(C(=O)NC(C(=O)NC(C(=O)NC(C(=O)N%12C(C(=O)NC(C(=O)NCC(=O)NC(C(=O)NC(C(=O)NC(C(=O)NC(C(=O)NC)CC(=O)N)Cc%13ccc(O)cc%13)CO)CCCNC(=[NH2+])N)CC(=O)[O-])CCC%12)Cc%12ccc(O)cc%12)CC(C)C)Cc%12ccc(O)cc%12)Cc%12ccccc%12)CCC(=O)[O-])C)CO)CC(=O)[O-])C(CC)C)CC(C)C)C)CCC(=O)N)Cc%12ccccc%12)CC(C)C)CCC%11)CCCC[NH3+])CC(=O)N)Cc%11[nH]cnc%11)CCC%10)C(CC)C)C(O)C)CCC(=O)N)CC(C)C)C(CC)C)CC(=O)N)CC(=O)[O-])C(O)C)C(C)C)Cc%10ccc(O)cc%10)C(CC)C)C)Cc%10c%11c([nH]c%10)cccc%11)CCC(=O)N)CC(C)C)CCCNC(=[NH2+])N)C(O)C)CS)CO)CC(C)C)CCCNC(=[NH2+])N)Cc%10ccccc%10)C(CC)C)Cc%10ccc(O)cc%10)CO)CCC9)CCCC[NH3+])C(O)C)CO)Cc9ccc(O)cc9)CCCC[NH3+])CCC(=O)N)CC(C)C)CCCNC(=[NH2+])N)C)CCCC[NH3+])C(C)C)CCC(=O)[O-])CC(=O)[O-])Cc9ccc(O)cc9)C(O)C)CC(C)C)Cc9ccccc9)C)CCSC)Cc9ccc(O)cc9)CCC8)Cc8nc[nH]c8)C(O)C)C(C)C)C)CC(C)C)Cc8ccccc8)CC(=O)N)Cc8c9c([nH]c8)cccc9)CC(=O)N)CCCNC(=[NH2+])N)CC(C)C)C(CC)C)CO)Cc8c9c([nH]c8)cccc9)CCC7)CCC(=O)N)Cc7ccccc7)CC(C)C)CCCNC(=[NH2+])N)C(O)C)Cc7ccccc7)C(CC)C)CC(=O)[O-])Cc7ccccc7)CCC(=O)[O-])Cc7ccccc7)C(C)C)CO)C(CC)C)Cc7ccc(O)cc7)CC(=O)[O-])CC(=O)N)CS)C(O)C)CC(C)C)CC(=O)[O-])C(CC)C)C(O)C)CO)CCCC[NH3+])CC(C)C)C)CCSC)C)CCC(=O)[O-])CC(C)C)CO)CO)C(CC)C)CCC(=O)N)Cc7nc[nH]c7)C(C)C)CCC(=O)[O-])Cc7nc[nH]c7)CC(C)C)CS)CCC(=O)N)CCCNC(=[NH2+])N)Cc7ccccc7)C(C)C)CCCC[NH3+])Cc7c8c([nH]c7)cccc8)CCC6)C(C)C)C(CC)C)C(O)C)CCCC[NH3+])CC(=O)[O-])Cc6ccccc6)Cc6ccccc6)CCCC[NH3+])CCCNC(=[NH2+])N)Cc6c7c([nH]c6)cccc7)Cc6ccccc6)CCC(=O)[O-])C)C)CC(=O)[O-])C)CCCC[NH3+])C(O)C)C(CC)C)CCCNC(=[NH2+])N)Cc6ccccc6)CC(=O)N)CC(=O)[O-])CCC(=O)N)Cc6ccccc6)CCC(=O)N)CC(=O)N)CCC5)Cc5ccccc5)C(CC)C)C)CCCC[NH3+])C(CC)C)CCC(=O)[O-])C)CC(C)C)CCSC)Cc5nc[nH]c5)CO)Cc5ccccc5)C(CC)C)CC(C)C)CO)CC(C)C)CCCC[NH3+])C(O)C)CC(C)C)CC(=O)N)CCCNC(=[NH2+])N)CCCNC(=[NH2+])N)CC(=O)[O-])CCC(=O)N)CO)CCC(=O)N)CCC(=O)[O-])CCC(=O)[O-])Cc5ccc(O)cc5)CCSC)CCCNC(=[NH2+])N)CCC(=O)[O-])CCCC[NH3+])CCC(=O)[O-])CCCC[NH3+])Cc5ccccc5)CC(C)C)CCCNC(=[NH2+])N)C(CC)C)C)CCCNC(=[NH2+])N)CCCC[NH3+])CO)CCCC[NH3+])CCCC[NH3+])CCSC)CC(C)C)CO)CC(=O)[O-])C(CC)C)Cc5ccc(O)cc5)C(CC)C)CCCC[NH3+])Cc5ccccc5)Cc5ccc(O)cc5)CCC(=O)[O-])CC(=O)N)CCC(=O)[O-])CO)CC(C)C)CCC(=O)N)C)CC(C)C)CCCC[NH3+])CCC(=O)N)CC(=O)N)CC(=O)[O-])CC(=O)[O-])Cc5ccc(O)cc5)CCCC[NH3+])CO)CC(C)C)C(CC)C)CC(C)C)CCCNC(=[NH2+])N)CC(C)C)Cc5nc[nH]c5)CCC(=O)N)Cc5ccc(O)cc5)C(O)C)CC(=O)[O-])CCC4)CC(C)C)C(CC)C)CC(=O)[O-])CC(C)C)C(CC)C)Cc4ccc(O)cc4)CCC3)CCC2)CO)CC(=O)N)CCCC[NH3+])CC(C)C)CCC(=O)N)CC(C)C)CCCC[NH3+])CCC1)CC(=O)N)CCC(=O)N)CS)CC(C)C)CCCNC(=[NH2+])N)C(C)C)C(C)C)C)CC(=O)[O-])C.OCCO.[UH+3].[Zn+2].[Zn+2].O.O.O.O.O.O.O.O.O.O.O.O.O.O.O.O.O.O.O.O.O.O.O.O.O.O.O.O.O.O.O.O.O.O.O.O.O.O.O.O.O.O.O.O.O.O.O.O.O.O.O.O.O.O.O.O.O.O.O.O.O.O.O.O.O.O.O.O.O.O.O.O.O.O.O.O.O.O.O.O.O.O.O.O.O.O.O.O.O.O.O.O.O.O.O.O.O.O.O.O.O.O.O.O.O.O.O.O.O.O.O.O.O.O.O.O.O.O.O.O.O.O.O.O.O.O.O.O.O.O.O.O.O.O.O.O.O.O.O.O.O.O

>  <rseq>
1

>  <mseq>
44

>  <S>
-8.9114628

>  <rmsd_refine>
0.51085097

>  <E_conf>
-53.951763

>  <E_place>
-118.30127

>  <E_score1>
-14.203295

>  <E_refine>
-44.704102

>  <E_score2>
-8.9114628

>  <Field_2>
MR04

>  <pseq>
44

>  <%C>
99.973068

>  <a_heavy>
32

>  <h_logP>
3.5046966

>  <Weight>
446.43298

>  <E_orig>
0.40000001

>  <PLIF_raw>
[29,5177,366,3,1]

>  <FP:PLIF>
17

>  <PLIF_ligidx>
29

$$$$

  MOE2020           3D

 40 42  0  0  1  0  0  0  0  0999 V2000
    5.5140    3.8840   14.8190 C   0  0  0  0  0  0  0  0  0  0  0  0
    5.6170    2.9150   15.3040 H   0  0  0  0  0  0  0  0  0  0  0  0
    6.1900    3.9100   13.9650 H   0  0  0  0  0  0  0  0  0  0  0  0
    4.5000    3.9920   14.4470 H   0  0  0  0  0  0  0  0  0  0  0  0
    5.8600    5.0020   15.8030 C   0  0  1  0  0  0  0  0  0  0  0  0
    4.9550    5.0640   17.0210 C   0  0  0  0  0  0  0  0  0  0  0  0
    4.8920    4.0020   17.9210 C   0  0  0  0  0  0  0  0  0  0  0  0
    5.4370    3.1150   17.7380 H   0  0  0  0  0  0  0  0  0  0  0  0
    4.1280    4.1140   19.0760 C   0  0  0  0  0  0  0  0  0  0  0  0
    4.0840    3.3090   19.7640 H   0  0  0  0  0  0  0  0  0  0  0  0
    3.4380    5.2150   19.3590 N   0  0  0  0  0  0  0  0  0  0  0  0
    3.4780    6.2450   18.5040 C   0  0  0  0  0  0  0  0  0  0  0  0
    4.2240    6.2020   17.3220 C   0  0  0  0  0  0  0  0  0  0  0  0
    4.2400    7.0370   16.6720 H   0  0  0  0  0  0  0  0  0  0  0  0
    2.7620    7.4290   18.7860 N   0  0  0  0  0  0  0  0  0  0  0  0
    2.9000    8.2120   18.1300 H   0  0  0  0  0  0  0  0  0  0  0  0
    1.9150    7.7030   19.8560 C   0  0  0  0  0  0  0  0  0  0  0  0
    1.3600    9.0440   19.9300 C   0  0  0  0  0  0  0  0  0  0  0  0
    0.4820    9.4380   20.9030 C   0  0  0  0  0  0  0  0  0  0  0  0
    0.0870    8.8540   21.6940 H   0  0  0  0  0  0  0  0  0  0  0  0
    0.0520   11.0740   20.7120 S   0  0  0  0  0  0  0  0  0  0  0  0
    1.0800   11.1560   19.3250 C   0  0  0  0  0  0  0  0  0  0  0  0
    1.2210   12.4720   18.5760 C   0  0  0  0  0  0  0  0  0  0  0  0
    2.1200   12.4150   17.5800 F   0  0  0  0  0  0  0  0  0  0  0  0
    1.6220   13.4620   19.3920 F   0  0  0  0  0  0  0  0  0  0  0  0
    0.0620   12.8690   18.0400 F   0  0  0  0  0  0  0  0  0  0  0  0
    1.6840   10.0380   19.0310 N   0  0  0  0  0  0  0  0  0  0  0  0
    1.6520    6.8300   20.6780 O   0  0  0  0  0  0  0  0  0  0  0  0
    7.5680    4.7920   16.3730 S   0  0  0  0  0  0  0  0  0  0  0  0
    7.8040    6.3110   17.1870 C   0  0  0  0  0  0  0  0  0  0  0  0
    7.4880    7.5050   16.7750 N   0  0  0  0  0  0  0  0  0  0  0  0
    7.9560    8.3880   17.7180 N   0  0  0  0  0  0  0  0  0  0  0  0
    8.5060    7.6940   18.6520 C   0  0  0  0  0  0  0  0  0  0  0  0
    8.9730    8.0490   19.5310 H   0  0  0  0  0  0  0  0  0  0  0  0
    8.3960    6.3890   18.3810 N   0  0  0  0  0  0  0  0  0  0  0  0
    8.7180    5.2750   19.2670 C   0  0  0  0  0  0  0  0  0  0  0  0
    9.6620    5.4090   19.7670 H   0  0  0  0  0  0  0  0  0  0  0  0
    7.9650    5.1580   20.0340 H   0  0  0  0  0  0  0  0  0  0  0  0
    8.7880    4.3330   18.7420 H   0  0  0  0  0  0  0  0  0  0  0  0
    5.7980    5.9410   15.2690 H   0  0  0  0  0  0  0  0  0  0  0  0
  1  2  1  0  0  0  0
  1  3  1  0  0  0  0
  1  4  1  0  0  0  0
  1  5  1  0  0  0  0
  5  6  1  0  0  0  0
  5 29  1  0  0  0  0
  5 40  1  0  0  0  0
  6  7  2  0  0  0  0
  6 13  1  0  0  0  0
  7  8  1  0  0  0  0
  7  9  1  0  0  0  0
  9 10  1  0  0  0  0
  9 11  2  0  0  0  0
 11 12  1  0  0  0  0
 12 13  2  0  0  0  0
 12 15  1  0  0  0  0
 13 14  1  0  0  0  0
 15 16  1  0  0  0  0
 15 17  1  0  0  0  0
 17 18  1  0  0  0  0
 17 28  2  0  0  0  0
 18 19  2  0  0  0  0
 18 27  1  0  0  0  0
 19 20  1  0  0  0  0
 19 21  1  0  0  0  0
 21 22  1  0  0  0  0
 22 23  1  0  0  0  0
 22 27  2  0  0  0  0
 23 24  1  0  0  0  0
 23 25  1  0  0  0  0
 23 26  1  0  0  0  0
 29 30  1  0  0  0  0
 30 31  2  0  0  0  0
 30 35  1  0  0  0  0
 31 32  1  0  0  0  0
 32 33  2  0  0  0  0
 33 34  1  0  0  0  0
 33 35  1  0  0  0  0
 35 36  1  0  0  0  0
 36 37  1  0  0  0  0
 36 38  1  0  0  0  0
 36 39  1  0  0  0  0
M  END
>  <receptor>
S(=O)(=O)([O-])[O-].S(CCC(NC(=O)C(NC(=O)C(NC(=O)CNC(=O)C(NC(=O)C1N(C(=O)C(NC(=O)C(NC(=O)C(NC(=O)C(NC(=O)C(NC(=O)C(NC(=O)C(NC(=O)C(NC(=O)C(NC(=O)C(NC(=O)C(NC(=O)C(NC(=O)C(NC(=O)C(NC(=O)C(NC(=O)C(NC(=O)C(NC(=O)C(NC(=O)C(NC(=O)CNC(=O)C(NC(=O)C(NC(=O)C(NC(=O)C(NC(=O)C(NC(=O)C(NC(=O)C(NC(=O)C(NC(=O)C(NC(=O)C(NC(=O)C(NC(=O)C(NC(=O)C(NC(=O)C)CCCC[NH3+])C(C)C)C(O)C)CCC(=O)N)CCC(=O)[O-])CCC(=O)N)Cc2ccccc2)CCC(=O)[O-])CC(C)C)Cc2ccc(O)cc2)CS)CCC(=O)[O-])CCSC)CO)C(O)C)Cc2ccccc2)CCC(=O)N)CC(C)C)C[S-])CCCC[NH3+])C(CC)C)C[S-])C)CCC(=O)[O-])CC(=O)N)CC(=O)[O-])CCCC[NH3+])CC(=O)[O-])C(C)C)CCCC[NH3+])C(CC)C)CCC(=O)[O-])CCC1)C[S-])Cc1nc[n-]c1)CC(C)C)C(=O)NC(C(=O)NC(C(=O)NC(C(=O)NC(C(=O)NC(C(=O)NC(C(=O)NC(C(=O)NC(C(=O)NC(C(=O)NC(C(=O)NC(C(=O)NC(C(=O)NCC(=O)NC(C(=O)NCC(=O)NC(C(=O)N1C(C(=O)NC(C(=O)NC(C(=O)NC(C(=O)NC(C(=O)NC(C(=O)NC(C(=O)NC(C(=O)NCC(=O)NC(C(=O)NC(C(=O)N2C(C(=O)NC(C(=O)NC(C(=O)NC(C(=O)NC(C(=O)N3C(C(=O)NC(C(=O)NC(C(=O)[O-])CC(=O)[O-])Cc4ccccc4)CCC3)CC(=O)[O-])C(C)C)C(CC)C)C(CC)C)CCC2)CCC(=O)[O-])C(O)C)CCCC[NH3+])C(CC)C)CCC(=O)[O-])CS)CCCNC(=[NH2+])N)C[S-])Cc2ccccc2)CCC1)C[S-])CCC(=O)N)CC(=O)[O-])CO)CCC(=O)[O-])CCC(=O)N)Cc1c2c([nH]c1)cccc2)C)C(O)C)CC(C)C)C[S-])CO)C(O)C)C[S-])C.S(CCC(NC(=O)C(NC(=O)C(NC(=O)C(NC(=O)C(NC(=O)C(NC(=O)C(NC(=O)C(NC(=O)C(NC(=O)C(NC(=O)C(NC(=O)C(NC(=O)C(NC(=O)C(NC(=O)C(NC(=O)C(NC(=O)C[NH3+])CCC(=O)N)C)C)C)CC(=O)[O-])CCCNC(=[NH2+])N)CCCNC(=[NH2+])N)C(O)C)C(C)C)CCC(=O)[O-])CCCC[NH3+])C(O)C)Cc1c2c([nH]c1)cccc2)C)CC(C)C)C(=O)NC(C(=O)NC(C(=O)NC(C(=O)NC(C(=O)NC(C(=O)NC(C(=O)NC(C(=O)NC(C(=O)NC(C(=O)N1C(C(=O)NC(C(=O)NC(C(=O)NC(C(=O)NC(C(=O)NC(C(=O)NC(C(=O)NC(C(=O)N2C(C(=O)N3C(C(=O)NC(C(=O)NC(C(=O)NC(C(=O)NC(C(=O)NC(C(=O)NC(C(=O)N4C(C(=O)NC(C(=O)NC(C(=O)NC(C(=O)NC(C(=O)NC(C(=O)NC(C(=O)NC(C(=O)NC(C(=O)NC(C(=O)NC(C(=O)NC(C(=O)NC(C(=O)NC(C(=O)NC(C(=O)NC(C(=O)NC(C(=O)NC(C(=O)NC(C(=O)NC(C(=O)NC(C(=O)NC(C(=O)NC(C(=O)NC(C(=O)NC(C(=O)NC(C(=O)NC(C(=O)NC(C(=O)NC(C(=O)NC(C(=O)NC(C(=O)NC(C(=O)NC(C(=O)NC(C(=O)NC(C(=O)NC(C(=O)NC(C(=O)NC(C(=O)NC(C(=O)NC(C(=O)NC(C(=O)NC(C(=O)NC(C(=O)NC(C(=O)NC(C(=O)NC(C(=O)NC(C(=O)NC(C(=O)NC(C(=O)NCC(=O)NC(C(=O)NC(C(=O)NC(C(=O)NC(C(=O)NC(C(=O)NC(C(=O)NC(C(=O)NC(C(=O)NC(C(=O)NC(C(=O)NC(C(=O)NC(C(=O)NC(C(=O)NC(C(=O)NC(C(=O)NC(C(=O)NC(C(=O)NC(C(=O)NC(C(=O)NC(C(=O)NC(C(=O)NC(C(=O)NC(C(=O)NC(C(=O)NC(C(=O)NC(C(=O)NC(C(=O)NC(C(=O)NC(C(=O)NC(C(=O)NC(C(=O)NC(C(=O)NC(C(=O)N5C(C(=O)NC(C(=O)NCC(=O)NC(C(=O)NC(C(=O)NC(C(=O)NCC(=O)NC(C(=O)NC(C(=O)NC(C(=O)NC(C(=O)NC(C(=O)NC(C(=O)NC(C(=O)NC(C(=O)NC(C(=O)NC(C(=O)NC(C(=O)NC(C(=O)NC(C(=O)NC(C(=O)NC(C(=O)NC(C(=O)NC(C(=O)NC(C(=O)NCC(=O)NC(C(=O)NC(C(=O)NC(C(=O)NC(C(=O)NC(C(=O)N6C(C(=O)NC(C(=O)NC(C(=O)NC(C(=O)NC(C(=O)NC(C(=O)NC(C(=O)NC(C(=O)NC(C(=O)NC(C(=O)NC(C(=O)NC(C(=O)NC(C(=O)NC(C(=O)NC(C(=O)NC(C(=O)NC(C(=O)NCC(=O)NC(C(=O)NC(C(=O)NC(C(=O)NC(C(=O)NC(C(=O)NC(C(=O)NC(C(=O)NC(C(=O)NC(C(=O)NC(C(=O)NC(C(=O)NC(C(=O)NC(C(=O)NC(C(=O)NC(C(=O)NC(C(=O)NC(C(=O)NC(C(=O)NC(C(=O)NC(C(=O)NC(C(=O)NC(C(=O)NC(C(=O)NC(C(=O)NC(C(=O)NC(C(=O)NC(C(=O)NC(C(=O)NC(C(=O)NC(C(=O)NC(C(=O)N7C(C(=O)NC(C(=O)NCC(=O)NC(C(=O)NC(C(=O)NC(C(=O)NC(C(=O)NC(C(=O)NC(C(=O)NC(C(=O)NC(C(=O)NC(C(=O)NC(C(=O)NC(C(=O)NC(C(=O)NC(C(=O)N8C(C(=O)NCC(=O)NC(C(=O)NC(C(=O)NC(C(=O)NC(C(=O)NC(C(=O)NC(C(=O)NC(C(=O)NC(C(=O)NC(C(=O)NC(C(=O)NC(C(=O)NC(C(=O)NC(C(=O)NC(C(=O)NC(C(=O)NC(C(=O)NC(C(=O)NC(C(=O)NC(C(=O)NC(C(=O)N9C(C(=O)NCC(=O)NC(C(=O)NC(C(=O)NC(C(=O)NC(C(=O)NC(C(=O)NC(C(=O)NC(C(=O)NC(C(=O)NC(C(=O)NC(C(=O)NC(C(=O)NCC(=O)NC(C(=O)NC(C(=O)NC(C(=O)NC(C(=O)NCC(=O)NC(C(=O)NC(C(=O)NC(C(=O)NCC(=O)NC(C(=O)NCC(=O)NC(C(=O)NC(C(=O)NC(C(=O)NC(C(=O)NC(C(=O)NC(C(=O)N%10C(C(=O)NC(C(=O)NC(C(=O)NC(C(=O)N%11C(C(=O)NC(C(=O)NC(C(=O)NC(C(=O)NC(C(=O)NC(C(=O)NC(C(=O)NC(C(=O)NCC(=O)NC(C(=O)NC(C(=O)NC(C(=O)NCC(=O)NC(C(=O)NC(C(=O)NC(C(=O)NC(C(=O)N%12C(C(=O)NC(C(=O)NCC(=O)NC(C(=O)NC(C(=O)NC(C(=O)NC(C(=O)NC)CC(=O)N)Cc%13ccc(O)cc%13)CO)CCCNC(=[NH2+])N)CC(=O)[O-])CCC%12)Cc%12ccc(O)cc%12)CC(C)C)Cc%12ccc(O)cc%12)Cc%12ccccc%12)CCC(=O)[O-])C)CO)CC(=O)[O-])C(CC)C)CC(C)C)C)CCC(=O)N)Cc%12ccccc%12)CC(C)C)CCC%11)CCCC[NH3+])CC(=O)N)Cc%11[nH]cnc%11)CCC%10)C(CC)C)C(O)C)CCC(=O)N)CC(C)C)C(CC)C)CC(=O)N)CC(=O)[O-])C(O)C)C(C)C)Cc%10ccc(O)cc%10)C(CC)C)C)Cc%10c%11c([nH]c%10)cccc%11)CCC(=O)N)CC(C)C)CCCNC(=[NH2+])N)C(O)C)CS)CO)CC(C)C)CCCNC(=[NH2+])N)Cc%10ccccc%10)C(CC)C)Cc%10ccc(O)cc%10)CO)CCC9)CCCC[NH3+])C(O)C)CO)Cc9ccc(O)cc9)CCCC[NH3+])CCC(=O)N)CC(C)C)CCCNC(=[NH2+])N)C)CCCC[NH3+])C(C)C)CCC(=O)[O-])CC(=O)[O-])Cc9ccc(O)cc9)C(O)C)CC(C)C)Cc9ccccc9)C)CCSC)Cc9ccc(O)cc9)CCC8)Cc8nc[nH]c8)C(O)C)C(C)C)C)CC(C)C)Cc8ccccc8)CC(=O)N)Cc8c9c([nH]c8)cccc9)CC(=O)N)CCCNC(=[NH2+])N)CC(C)C)C(CC)C)CO)Cc8c9c([nH]c8)cccc9)CCC7)CCC(=O)N)Cc7ccccc7)CC(C)C)CCCNC(=[NH2+])N)C(O)C)Cc7ccccc7)C(CC)C)CC(=O)[O-])Cc7ccccc7)CCC(=O)[O-])Cc7ccccc7)C(C)C)CO)C(CC)C)Cc7ccc(O)cc7)CC(=O)[O-])CC(=O)N)CS)C(O)C)CC(C)C)CC(=O)[O-])C(CC)C)C(O)C)CO)CCCC[NH3+])CC(C)C)C)CCSC)C)CCC(=O)[O-])CC(C)C)CO)CO)C(CC)C)CCC(=O)N)Cc7nc[nH]c7)C(C)C)CCC(=O)[O-])Cc7nc[nH]c7)CC(C)C)CS)CCC(=O)N)CCCNC(=[NH2+])N)Cc7ccccc7)C(C)C)CCCC[NH3+])Cc7c8c([nH]c7)cccc8)CCC6)C(C)C)C(CC)C)C(O)C)CCCC[NH3+])CC(=O)[O-])Cc6ccccc6)Cc6ccccc6)CCCC[NH3+])CCCNC(=[NH2+])N)Cc6c7c([nH]c6)cccc7)Cc6ccccc6)CCC(=O)[O-])C)C)CC(=O)[O-])C)CCCC[NH3+])C(O)C)C(CC)C)CCCNC(=[NH2+])N)Cc6ccccc6)CC(=O)N)CC(=O)[O-])CCC(=O)N)Cc6ccccc6)CCC(=O)N)CC(=O)N)CCC5)Cc5ccccc5)C(CC)C)C)CCCC[NH3+])C(CC)C)CCC(=O)[O-])C)CC(C)C)CCSC)Cc5nc[nH]c5)CO)Cc5ccccc5)C(CC)C)CC(C)C)CO)CC(C)C)CCCC[NH3+])C(O)C)CC(C)C)CC(=O)N)CCCNC(=[NH2+])N)CCCNC(=[NH2+])N)CC(=O)[O-])CCC(=O)N)CO)CCC(=O)N)CCC(=O)[O-])CCC(=O)[O-])Cc5ccc(O)cc5)CCSC)CCCNC(=[NH2+])N)CCC(=O)[O-])CCCC[NH3+])CCC(=O)[O-])CCCC[NH3+])Cc5ccccc5)CC(C)C)CCCNC(=[NH2+])N)C(CC)C)C)CCCNC(=[NH2+])N)CCCC[NH3+])CO)CCCC[NH3+])CCCC[NH3+])CCSC)CC(C)C)CO)CC(=O)[O-])C(CC)C)Cc5ccc(O)cc5)C(CC)C)CCCC[NH3+])Cc5ccccc5)Cc5ccc(O)cc5)CCC(=O)[O-])CC(=O)N)CCC(=O)[O-])CO)CC(C)C)CCC(=O)N)C)CC(C)C)CCCC[NH3+])CCC(=O)N)CC(=O)N)CC(=O)[O-])CC(=O)[O-])Cc5ccc(O)cc5)CCCC[NH3+])CO)CC(C)C)C(CC)C)CC(C)C)CCCNC(=[NH2+])N)CC(C)C)Cc5nc[nH]c5)CCC(=O)N)Cc5ccc(O)cc5)C(O)C)CC(=O)[O-])CCC4)CC(C)C)C(CC)C)CC(=O)[O-])CC(C)C)C(CC)C)Cc4ccc(O)cc4)CCC3)CCC2)CO)CC(=O)N)CCCC[NH3+])CC(C)C)CCC(=O)N)CC(C)C)CCCC[NH3+])CCC1)CC(=O)N)CCC(=O)N)CS)CC(C)C)CCCNC(=[NH2+])N)C(C)C)C(C)C)C)CC(=O)[O-])C.OCCO.[UH+3].[Zn+2].[Zn+2].O.O.O.O.O.O.O.O.O.O.O.O.O.O.O.O.O.O.O.O.O.O.O.O.O.O.O.O.O.O.O.O.O.O.O.O.O.O.O.O.O.O.O.O.O.O.O.O.O.O.O.O.O.O.O.O.O.O.O.O.O.O.O.O.O.O.O.O.O.O.O.O.O.O.O.O.O.O.O.O.O.O.O.O.O.O.O.O.O.O.O.O.O.O.O.O.O.O.O.O.O.O.O.O.O.O.O.O.O.O.O.O.O.O.O.O.O.O.O.O.O.O.O.O.O.O.O.O.O.O.O.O.O.O.O.O.O.O.O.O.O.O

>  <rseq>
1

>  <mseq>
45

>  <S>
-8.2673206

>  <rmsd_refine>
2.0108643

>  <E_conf>
33.391235

>  <E_place>
-74.776703

>  <E_score1>
-11.580775

>  <E_refine>
-47.477818

>  <E_score2>
-8.2673206

>  <Field_2>
MR05

>  <pseq>
45

>  <%C>
99.578995

>  <a_heavy>
27

>  <h_logP>
2.921541

>  <Weight>
414.436

>  <E_orig>
0.80000001

>  <PLIF_raw>
[[29,31,32,30,30,30,30,30,30,31,31,31,31,31,31,32,32,32,32,32,32,33,33,33,33,33,33,35,35,35,35,35,35],[3042,3722,6288,5139,5143,5141,5137,5134,5135,5139,5143,5141,5137,5134,5135,5139,5143,5141,5137,5134,5135,5139,5143,5141,5137,5134,5135,5139,5143,5141,5137,5134,5135],[219,260,220669,363,363,363,363,363,363,363,363,363,363,363,363,363,363,363,363,363,363,363,363,363,363,363,363,363,363,363,363,363,363],[1,2,6,10,10,10,10,10,10,10,10,10,10,10,10,10,10,10,10,10,10,10,10,10,10,10,10,10,10,10,10,10,10],[0.6,0.5,2.5,1e-005,1e-005,1e-005,1e-005,1e-005,1e-005,1e-005,1e-005,1e-005,1e-005,1e-005,1e-005,1e-005,1e-005,1e-005,1e-005,1e-005,1e-005,1e-005,1e-005,1e-005,1e-005,1e-005,1e-005,1e-005,1e-005,1e-005,1e-005,1e-005,1e-005]]

>  <FP:PLIF>
40 26 28 39

>  <PLIF_ligidx>
[29,31,32,32]

$$$$

  MOE2020           3D

 59 63  0  0  1  0  0  0  0  0999 V2000
    1.6650   13.8440   20.0590 C   0  0  0  0  0  0  0  0  0  0  0  0
    1.6180   14.9150   20.2560 H   0  0  0  0  0  0  0  0  0  0  0  0
    2.4820   13.6560   19.3610 H   0  0  0  0  0  0  0  0  0  0  0  0
    1.8660   13.3230   20.9940 H   0  0  0  0  0  0  0  0  0  0  0  0
    0.3380   13.3740   19.4370 C   0  0  2  0  0  0  0  0  0  0  0  0
   -0.8750   13.6900   20.3360 C   0  0  0  0  0  0  0  0  0  0  0  0
   -1.7640   13.6480   19.7080 H   0  0  0  0  0  0  0  0  0  0  0  0
   -0.7950   14.7130   20.7030 H   0  0  0  0  0  0  0  0  0  0  0  0
   -1.0770   12.7680   21.5320 C   0  0  0  0  0  0  0  0  0  0  0  0
   -0.1840   12.1560   22.2480 N   0  0  0  0  0  0  0  0  0  0  0  0
   -0.8450   11.4530   23.2280 N   0  0  0  0  0  0  0  0  0  0  0  0
   -2.1050   11.6810   23.0630 C   0  0  0  0  0  0  0  0  0  0  0  0
   -2.9250   11.3180   23.6270 H   0  0  0  0  0  0  0  0  0  0  0  0
   -2.2870   12.4890   22.0250 N   0  0  0  0  0  0  0  0  0  0  0  0
   -3.5850   12.9580   21.5510 C   0  0  0  0  0  0  0  0  0  0  0  0
   -4.4000   12.5430   22.1290 H   0  0  0  0  0  0  0  0  0  0  0  0
   -3.7600   12.6780   20.5210 H   0  0  0  0  0  0  0  0  0  0  0  0
   -3.6680   14.0340   21.6110 H   0  0  0  0  0  0  0  0  0  0  0  0
    0.3340   11.9210   18.9690 C   0  0  0  0  0  0  0  0  0  0  0  0
   -0.6740   11.4910   18.1140 C   0  0  0  0  0  0  0  0  0  0  0  0
   -1.4260   12.1650   17.7980 H   0  0  0  0  0  0  0  0  0  0  0  0
   -0.6730   10.1640   17.6590 C   0  0  0  0  0  0  0  0  0  0  0  0
   -1.6300    9.6170   16.8170 N   0  0  0  0  0  0  0  0  0  0  0  0
   -1.4850    8.6100   16.6650 H   0  0  0  0  0  0  0  0  0  0  0  0
   -3.0300   10.0030   16.6940 C   0  0  0  0  0  0  0  0  0  0  0  0
   -3.5590    9.1730   16.2490 H   0  0  0  0  0  0  0  0  0  0  0  0
   -3.8050   10.5510   17.9260 C   0  0  0  0  0  0  0  0  0  0  0  0
   -4.5830    9.8990   18.2970 H   0  0  0  0  0  0  0  0  0  0  0  0
   -3.1930   10.8500   18.7640 H   0  0  0  0  0  0  0  0  0  0  0  0
   -4.3080   11.7360   17.0640 C   0  0  0  0  0  0  0  0  0  0  0  0
   -5.3530   11.6730   16.7970 H   0  0  0  0  0  0  0  0  0  0  0  0
   -4.1230   12.7110   17.4900 H   0  0  0  0  0  0  0  0  0  0  0  0
   -3.3390   11.3080   15.9270 C   0  0  0  0  0  0  0  0  0  0  0  0
   -2.4810   11.9510   15.8000 H   0  0  0  0  0  0  0  0  0  0  0  0
   -3.7840   11.1460   14.9580 H   0  0  0  0  0  0  0  0  0  0  0  0
    0.2820    9.3000   17.9850 N   0  0  0  0  0  0  0  0  0  0  0  0
    1.2300    9.6960   18.8230 C   0  0  0  0  0  0  0  0  0  0  0  0
    1.2980   10.9870   19.3500 C   0  0  0  0  0  0  0  0  0  0  0  0
    2.0730   11.2400   20.0200 H   0  0  0  0  0  0  0  0  0  0  0  0
    2.1800    8.7150   19.1390 N   0  0  0  0  0  0  0  0  0  0  0  0
    3.1700    8.2590   18.1550 C   0  0  0  0  0  0  0  0  0  0  0  0
    2.7650    8.2880   17.1520 H   0  0  0  0  0  0  0  0  0  0  0  0
    4.0400    8.8930   18.1960 H   0  0  0  0  0  0  0  0  0  0  0  0
    3.5090    6.8480   18.5650 C   0  0  0  0  0  0  0  0  0  0  0  0
    2.7470    6.5560   19.6810 C   0  0  0  0  0  0  0  0  0  0  0  0
    2.8210    5.3030   20.2810 C   0  0  0  0  0  0  0  0  0  0  0  0
    2.2400    5.0880   21.1400 H   0  0  0  0  0  0  0  0  0  0  0  0
    3.6710    4.3460   19.7370 C   0  0  0  0  0  0  0  0  0  0  0  0
    3.7270    3.3810   20.1710 H   0  0  0  0  0  0  0  0  0  0  0  0
    4.4630    4.6500   18.6300 C   0  0  0  0  0  0  0  0  0  0  0  0
    5.1190    3.9060   18.2550 H   0  0  0  0  0  0  0  0  0  0  0  0
    4.4000    5.9140   18.0290 C   0  0  0  0  0  0  0  0  0  0  0  0
    5.2990    6.2560   16.8430 C   0  0  0  0  0  0  0  0  0  0  0  0
    6.1900    7.2110   17.1550 F   0  0  0  0  0  0  0  0  0  0  0  0
    4.6070    6.7100   15.7920 F   0  0  0  0  0  0  0  0  0  0  0  0
    6.0150    5.2130   16.3900 F   0  0  0  0  0  0  0  0  0  0  0  0
    1.9360    7.6980   20.0460 C   0  0  0  0  0  0  0  0  0  0  0  0
    1.1300    7.7960   20.9650 O   0  0  0  0  0  0  0  0  0  0  0  0
    0.2110   13.9640   18.5270 H   0  0  0  0  0  0  0  0  0  0  0  0
  1  2  1  0  0  0  0
  1  3  1  0  0  0  0
  1  4  1  0  0  0  0
  1  5  1  0  0  0  0
  5  6  1  0  0  0  0
  5 19  1  0  0  0  0
  5 59  1  0  0  0  0
  6  7  1  0  0  0  0
  6  8  1  0  0  0  0
  6  9  1  0  0  0  0
  9 10  2  0  0  0  0
  9 14  1  0  0  0  0
 10 11  1  0  0  0  0
 11 12  2  0  0  0  0
 12 13  1  0  0  0  0
 12 14  1  0  0  0  0
 14 15  1  0  0  0  0
 15 16  1  0  0  0  0
 15 17  1  0  0  0  0
 15 18  1  0  0  0  0
 19 20  2  0  0  0  0
 19 38  1  0  0  0  0
 20 21  1  0  0  0  0
 20 22  1  0  0  0  0
 22 23  1  0  0  0  0
 22 36  2  0  0  0  0
 23 24  1  0  0  0  0
 23 25  1  0  0  0  0
 25 26  1  0  0  0  0
 25 27  1  0  0  0  0
 25 33  1  0  0  0  0
 27 28  1  0  0  0  0
 27 29  1  0  0  0  0
 27 30  1  0  0  0  0
 30 31  1  0  0  0  0
 30 32  1  0  0  0  0
 30 33  1  0  0  0  0
 33 34  1  0  0  0  0
 33 35  1  0  0  0  0
 36 37  1  0  0  0  0
 37 38  2  0  0  0  0
 37 40  1  0  0  0  0
 38 39  1  0  0  0  0
 40 41  1  0  0  0  0
 40 57  1  0  0  0  0
 41 42  1  0  0  0  0
 41 43  1  0  0  0  0
 41 44  1  0  0  0  0
 44 45  1  0  0  0  0
 44 52  2  0  0  0  0
 45 46  2  0  0  0  0
 45 57  1  0  0  0  0
 46 47  1  0  0  0  0
 46 48  1  0  0  0  0
 48 49  1  0  0  0  0
 48 50  2  0  0  0  0
 50 51  1  0  0  0  0
 50 52  1  0  0  0  0
 52 53  1  0  0  0  0
 53 54  1  0  0  0  0
 53 55  1  0  0  0  0
 53 56  1  0  0  0  0
 57 58  2  0  0  0  0
M  END
>  <receptor>
S(=O)(=O)([O-])[O-].S(CCC(NC(=O)C(NC(=O)C(NC(=O)CNC(=O)C(NC(=O)C1N(C(=O)C(NC(=O)C(NC(=O)C(NC(=O)C(NC(=O)C(NC(=O)C(NC(=O)C(NC(=O)C(NC(=O)C(NC(=O)C(NC(=O)C(NC(=O)C(NC(=O)C(NC(=O)C(NC(=O)C(NC(=O)C(NC(=O)C(NC(=O)C(NC(=O)C(NC(=O)CNC(=O)C(NC(=O)C(NC(=O)C(NC(=O)C(NC(=O)C(NC(=O)C(NC(=O)C(NC(=O)C(NC(=O)C(NC(=O)C(NC(=O)C(NC(=O)C(NC(=O)C(NC(=O)C)CCCC[NH3+])C(C)C)C(O)C)CCC(=O)N)CCC(=O)[O-])CCC(=O)N)Cc2ccccc2)CCC(=O)[O-])CC(C)C)Cc2ccc(O)cc2)CS)CCC(=O)[O-])CCSC)CO)C(O)C)Cc2ccccc2)CCC(=O)N)CC(C)C)C[S-])CCCC[NH3+])C(CC)C)C[S-])C)CCC(=O)[O-])CC(=O)N)CC(=O)[O-])CCCC[NH3+])CC(=O)[O-])C(C)C)CCCC[NH3+])C(CC)C)CCC(=O)[O-])CCC1)C[S-])Cc1nc[n-]c1)CC(C)C)C(=O)NC(C(=O)NC(C(=O)NC(C(=O)NC(C(=O)NC(C(=O)NC(C(=O)NC(C(=O)NC(C(=O)NC(C(=O)NC(C(=O)NC(C(=O)NC(C(=O)NCC(=O)NC(C(=O)NCC(=O)NC(C(=O)N1C(C(=O)NC(C(=O)NC(C(=O)NC(C(=O)NC(C(=O)NC(C(=O)NC(C(=O)NC(C(=O)NCC(=O)NC(C(=O)NC(C(=O)N2C(C(=O)NC(C(=O)NC(C(=O)NC(C(=O)NC(C(=O)N3C(C(=O)NC(C(=O)NC(C(=O)[O-])CC(=O)[O-])Cc4ccccc4)CCC3)CC(=O)[O-])C(C)C)C(CC)C)C(CC)C)CCC2)CCC(=O)[O-])C(O)C)CCCC[NH3+])C(CC)C)CCC(=O)[O-])CS)CCCNC(=[NH2+])N)C[S-])Cc2ccccc2)CCC1)C[S-])CCC(=O)N)CC(=O)[O-])CO)CCC(=O)[O-])CCC(=O)N)Cc1c2c([nH]c1)cccc2)C)C(O)C)CC(C)C)C[S-])CO)C(O)C)C[S-])C.S(CCC(NC(=O)C(NC(=O)C(NC(=O)C(NC(=O)C(NC(=O)C(NC(=O)C(NC(=O)C(NC(=O)C(NC(=O)C(NC(=O)C(NC(=O)C(NC(=O)C(NC(=O)C(NC(=O)C(NC(=O)C(NC(=O)C[NH3+])CCC(=O)N)C)C)C)CC(=O)[O-])CCCNC(=[NH2+])N)CCCNC(=[NH2+])N)C(O)C)C(C)C)CCC(=O)[O-])CCCC[NH3+])C(O)C)Cc1c2c([nH]c1)cccc2)C)CC(C)C)C(=O)NC(C(=O)NC(C(=O)NC(C(=O)NC(C(=O)NC(C(=O)NC(C(=O)NC(C(=O)NC(C(=O)NC(C(=O)N1C(C(=O)NC(C(=O)NC(C(=O)NC(C(=O)NC(C(=O)NC(C(=O)NC(C(=O)NC(C(=O)N2C(C(=O)N3C(C(=O)NC(C(=O)NC(C(=O)NC(C(=O)NC(C(=O)NC(C(=O)NC(C(=O)N4C(C(=O)NC(C(=O)NC(C(=O)NC(C(=O)NC(C(=O)NC(C(=O)NC(C(=O)NC(C(=O)NC(C(=O)NC(C(=O)NC(C(=O)NC(C(=O)NC(C(=O)NC(C(=O)NC(C(=O)NC(C(=O)NC(C(=O)NC(C(=O)NC(C(=O)NC(C(=O)NC(C(=O)NC(C(=O)NC(C(=O)NC(C(=O)NC(C(=O)NC(C(=O)NC(C(=O)NC(C(=O)NC(C(=O)NC(C(=O)NC(C(=O)NC(C(=O)NC(C(=O)NC(C(=O)NC(C(=O)NC(C(=O)NC(C(=O)NC(C(=O)NC(C(=O)NC(C(=O)NC(C(=O)NC(C(=O)NC(C(=O)NC(C(=O)NC(C(=O)NC(C(=O)NC(C(=O)NC(C(=O)NC(C(=O)NCC(=O)NC(C(=O)NC(C(=O)NC(C(=O)NC(C(=O)NC(C(=O)NC(C(=O)NC(C(=O)NC(C(=O)NC(C(=O)NC(C(=O)NC(C(=O)NC(C(=O)NC(C(=O)NC(C(=O)NC(C(=O)NC(C(=O)NC(C(=O)NC(C(=O)NC(C(=O)NC(C(=O)NC(C(=O)NC(C(=O)NC(C(=O)NC(C(=O)NC(C(=O)NC(C(=O)NC(C(=O)NC(C(=O)NC(C(=O)NC(C(=O)NC(C(=O)NC(C(=O)NC(C(=O)N5C(C(=O)NC(C(=O)NCC(=O)NC(C(=O)NC(C(=O)NC(C(=O)NCC(=O)NC(C(=O)NC(C(=O)NC(C(=O)NC(C(=O)NC(C(=O)NC(C(=O)NC(C(=O)NC(C(=O)NC(C(=O)NC(C(=O)NC(C(=O)NC(C(=O)NC(C(=O)NC(C(=O)NC(C(=O)NC(C(=O)NC(C(=O)NC(C(=O)NCC(=O)NC(C(=O)NC(C(=O)NC(C(=O)NC(C(=O)NC(C(=O)N6C(C(=O)NC(C(=O)NC(C(=O)NC(C(=O)NC(C(=O)NC(C(=O)NC(C(=O)NC(C(=O)NC(C(=O)NC(C(=O)NC(C(=O)NC(C(=O)NC(C(=O)NC(C(=O)NC(C(=O)NC(C(=O)NC(C(=O)NCC(=O)NC(C(=O)NC(C(=O)NC(C(=O)NC(C(=O)NC(C(=O)NC(C(=O)NC(C(=O)NC(C(=O)NC(C(=O)NC(C(=O)NC(C(=O)NC(C(=O)NC(C(=O)NC(C(=O)NC(C(=O)NC(C(=O)NC(C(=O)NC(C(=O)NC(C(=O)NC(C(=O)NC(C(=O)NC(C(=O)NC(C(=O)NC(C(=O)NC(C(=O)NC(C(=O)NC(C(=O)NC(C(=O)NC(C(=O)NC(C(=O)NC(C(=O)N7C(C(=O)NC(C(=O)NCC(=O)NC(C(=O)NC(C(=O)NC(C(=O)NC(C(=O)NC(C(=O)NC(C(=O)NC(C(=O)NC(C(=O)NC(C(=O)NC(C(=O)NC(C(=O)NC(C(=O)NC(C(=O)N8C(C(=O)NCC(=O)NC(C(=O)NC(C(=O)NC(C(=O)NC(C(=O)NC(C(=O)NC(C(=O)NC(C(=O)NC(C(=O)NC(C(=O)NC(C(=O)NC(C(=O)NC(C(=O)NC(C(=O)NC(C(=O)NC(C(=O)NC(C(=O)NC(C(=O)NC(C(=O)NC(C(=O)NC(C(=O)N9C(C(=O)NCC(=O)NC(C(=O)NC(C(=O)NC(C(=O)NC(C(=O)NC(C(=O)NC(C(=O)NC(C(=O)NC(C(=O)NC(C(=O)NC(C(=O)NC(C(=O)NCC(=O)NC(C(=O)NC(C(=O)NC(C(=O)NC(C(=O)NCC(=O)NC(C(=O)NC(C(=O)NC(C(=O)NCC(=O)NC(C(=O)NCC(=O)NC(C(=O)NC(C(=O)NC(C(=O)NC(C(=O)NC(C(=O)NC(C(=O)N%10C(C(=O)NC(C(=O)NC(C(=O)NC(C(=O)N%11C(C(=O)NC(C(=O)NC(C(=O)NC(C(=O)NC(C(=O)NC(C(=O)NC(C(=O)NC(C(=O)NCC(=O)NC(C(=O)NC(C(=O)NC(C(=O)NCC(=O)NC(C(=O)NC(C(=O)NC(C(=O)NC(C(=O)N%12C(C(=O)NC(C(=O)NCC(=O)NC(C(=O)NC(C(=O)NC(C(=O)NC(C(=O)NC)CC(=O)N)Cc%13ccc(O)cc%13)CO)CCCNC(=[NH2+])N)CC(=O)[O-])CCC%12)Cc%12ccc(O)cc%12)CC(C)C)Cc%12ccc(O)cc%12)Cc%12ccccc%12)CCC(=O)[O-])C)CO)CC(=O)[O-])C(CC)C)CC(C)C)C)CCC(=O)N)Cc%12ccccc%12)CC(C)C)CCC%11)CCCC[NH3+])CC(=O)N)Cc%11[nH]cnc%11)CCC%10)C(CC)C)C(O)C)CCC(=O)N)CC(C)C)C(CC)C)CC(=O)N)CC(=O)[O-])C(O)C)C(C)C)Cc%10ccc(O)cc%10)C(CC)C)C)Cc%10c%11c([nH]c%10)cccc%11)CCC(=O)N)CC(C)C)CCCNC(=[NH2+])N)C(O)C)CS)CO)CC(C)C)CCCNC(=[NH2+])N)Cc%10ccccc%10)C(CC)C)Cc%10ccc(O)cc%10)CO)CCC9)CCCC[NH3+])C(O)C)CO)Cc9ccc(O)cc9)CCCC[NH3+])CCC(=O)N)CC(C)C)CCCNC(=[NH2+])N)C)CCCC[NH3+])C(C)C)CCC(=O)[O-])CC(=O)[O-])Cc9ccc(O)cc9)C(O)C)CC(C)C)Cc9ccccc9)C)CCSC)Cc9ccc(O)cc9)CCC8)Cc8nc[nH]c8)C(O)C)C(C)C)C)CC(C)C)Cc8ccccc8)CC(=O)N)Cc8c9c([nH]c8)cccc9)CC(=O)N)CCCNC(=[NH2+])N)CC(C)C)C(CC)C)CO)Cc8c9c([nH]c8)cccc9)CCC7)CCC(=O)N)Cc7ccccc7)CC(C)C)CCCNC(=[NH2+])N)C(O)C)Cc7ccccc7)C(CC)C)CC(=O)[O-])Cc7ccccc7)CCC(=O)[O-])Cc7ccccc7)C(C)C)CO)C(CC)C)Cc7ccc(O)cc7)CC(=O)[O-])CC(=O)N)CS)C(O)C)CC(C)C)CC(=O)[O-])C(CC)C)C(O)C)CO)CCCC[NH3+])CC(C)C)C)CCSC)C)CCC(=O)[O-])CC(C)C)CO)CO)C(CC)C)CCC(=O)N)Cc7nc[nH]c7)C(C)C)CCC(=O)[O-])Cc7nc[nH]c7)CC(C)C)CS)CCC(=O)N)CCCNC(=[NH2+])N)Cc7ccccc7)C(C)C)CCCC[NH3+])Cc7c8c([nH]c7)cccc8)CCC6)C(C)C)C(CC)C)C(O)C)CCCC[NH3+])CC(=O)[O-])Cc6ccccc6)Cc6ccccc6)CCCC[NH3+])CCCNC(=[NH2+])N)Cc6c7c([nH]c6)cccc7)Cc6ccccc6)CCC(=O)[O-])C)C)CC(=O)[O-])C)CCCC[NH3+])C(O)C)C(CC)C)CCCNC(=[NH2+])N)Cc6ccccc6)CC(=O)N)CC(=O)[O-])CCC(=O)N)Cc6ccccc6)CCC(=O)N)CC(=O)N)CCC5)Cc5ccccc5)C(CC)C)C)CCCC[NH3+])C(CC)C)CCC(=O)[O-])C)CC(C)C)CCSC)Cc5nc[nH]c5)CO)Cc5ccccc5)C(CC)C)CC(C)C)CO)CC(C)C)CCCC[NH3+])C(O)C)CC(C)C)CC(=O)N)CCCNC(=[NH2+])N)CCCNC(=[NH2+])N)CC(=O)[O-])CCC(=O)N)CO)CCC(=O)N)CCC(=O)[O-])CCC(=O)[O-])Cc5ccc(O)cc5)CCSC)CCCNC(=[NH2+])N)CCC(=O)[O-])CCCC[NH3+])CCC(=O)[O-])CCCC[NH3+])Cc5ccccc5)CC(C)C)CCCNC(=[NH2+])N)C(CC)C)C)CCCNC(=[NH2+])N)CCCC[NH3+])CO)CCCC[NH3+])CCCC[NH3+])CCSC)CC(C)C)CO)CC(=O)[O-])C(CC)C)Cc5ccc(O)cc5)C(CC)C)CCCC[NH3+])Cc5ccccc5)Cc5ccc(O)cc5)CCC(=O)[O-])CC(=O)N)CCC(=O)[O-])CO)CC(C)C)CCC(=O)N)C)CC(C)C)CCCC[NH3+])CCC(=O)N)CC(=O)N)CC(=O)[O-])CC(=O)[O-])Cc5ccc(O)cc5)CCCC[NH3+])CO)CC(C)C)C(CC)C)CC(C)C)CCCNC(=[NH2+])N)CC(C)C)Cc5nc[nH]c5)CCC(=O)N)Cc5ccc(O)cc5)C(O)C)CC(=O)[O-])CCC4)CC(C)C)C(CC)C)CC(=O)[O-])CC(C)C)C(CC)C)Cc4ccc(O)cc4)CCC3)CCC2)CO)CC(=O)N)CCCC[NH3+])CC(C)C)CCC(=O)N)CC(C)C)CCCC[NH3+])CCC1)CC(=O)N)CCC(=O)N)CS)CC(C)C)CCCNC(=[NH2+])N)C(C)C)C(C)C)C)CC(=O)[O-])C.OCCO.[UH+3].[Zn+2].[Zn+2].O.O.O.O.O.O.O.O.O.O.O.O.O.O.O.O.O.O.O.O.O.O.O.O.O.O.O.O.O.O.O.O.O.O.O.O.O.O.O.O.O.O.O.O.O.O.O.O.O.O.O.O.O.O.O.O.O.O.O.O.O.O.O.O.O.O.O.O.O.O.O.O.O.O.O.O.O.O.O.O.O.O.O.O.O.O.O.O.O.O.O.O.O.O.O.O.O.O.O.O.O.O.O.O.O.O.O.O.O.O.O.O.O.O.O.O.O.O.O.O.O.O.O.O.O.O.O.O.O.O.O.O.O.O.O.O.O.O.O.O.O.O

>  <rseq>
1

>  <mseq>
46

>  <S>
-8.2341661

>  <rmsd_refine>
3.1846766

>  <E_conf>
-26.651491

>  <E_place>
-61.043152

>  <E_score1>
-11.339961

>  <E_refine>
-41.022484

>  <E_score2>
-8.2341661

>  <Field_2>
MR06

>  <pseq>
46

>  <%C>
98.123268

>  <a_heavy>
34

>  <h_logP>
3.7124028

>  <Weight>
470.49899

>  <E_orig>
2.2192242

>  <PLIF_raw>
[[9,10,11,12,14],[1823,1823,1823,1823,1823],[144,144,144,144,144],[10,10,10,10,10],[0.6,0.6,0.6,0.6,0.6]]

>  <FP:PLIF>
32

>  <PLIF_ligidx>
[[9,10,11,12,14]]

$$$$

  MOE2020           3D

 47 50  0  0  1  0  0  0  0  0999 V2000
    7.5220    7.2720   17.7570 C   0  0  0  0  0  0  0  0  0  0  0  0
    6.9680    8.1890   17.9460 H   0  0  0  0  0  0  0  0  0  0  0  0
    8.3200    7.5010   17.0530 H   0  0  0  0  0  0  0  0  0  0  0  0
    7.9760    6.9330   18.6880 H   0  0  0  0  0  0  0  0  0  0  0  0
    6.6020    6.1890   17.1820 C   0  0  1  0  0  0  0  0  0  0  0  0
    5.5260    5.7510   18.1510 C   0  0  0  0  0  0  0  0  0  0  0  0
    5.5380    4.4520   18.6570 C   0  0  0  0  0  0  0  0  0  0  0  0
    6.3170    3.7850   18.3930 H   0  0  0  0  0  0  0  0  0  0  0  0
    4.5170    4.0160   19.4940 C   0  0  0  0  0  0  0  0  0  0  0  0
    4.5230    3.0250   19.8610 H   0  0  0  0  0  0  0  0  0  0  0  0
    3.4980    4.8810   19.8640 C   0  0  0  0  0  0  0  0  0  0  0  0
    2.7410    4.5590   20.5270 H   0  0  0  0  0  0  0  0  0  0  0  0
    3.4940    6.1860   19.3780 C   0  0  0  0  0  0  0  0  0  0  0  0
    4.4980    6.6210   18.5080 C   0  0  0  0  0  0  0  0  0  0  0  0
    4.4940    7.6090   18.1320 H   0  0  0  0  0  0  0  0  0  0  0  0
    2.4730    7.0340   19.8710 N   0  0  0  0  0  0  0  0  0  0  0  0
    2.0860    6.7810   20.7940 H   0  0  0  0  0  0  0  0  0  0  0  0
    1.9650    8.2020   19.3240 C   0  0  0  0  0  0  0  0  0  0  0  0
    1.0940    9.0080   20.1840 C   0  0  0  0  0  0  0  0  0  0  0  0
    0.5010   10.1680   19.7220 C   0  0  0  0  0  0  0  0  0  0  0  0
    0.6650   10.4970   18.7270 H   0  0  0  0  0  0  0  0  0  0  0  0
   -0.3350   10.9330   20.5670 C   0  0  0  0  0  0  0  0  0  0  0  0
   -0.9760   12.1230   20.1450 C   0  0  0  0  0  0  0  0  0  0  0  0
   -0.8350   12.4700   19.1520 H   0  0  0  0  0  0  0  0  0  0  0  0
   -1.7810   12.8240   21.0130 C   0  0  0  0  0  0  0  0  0  0  0  0
   -2.2630   13.7120   20.6930 H   0  0  0  0  0  0  0  0  0  0  0  0
   -1.9750   12.3650   22.3320 C   0  0  0  0  0  0  0  0  0  0  0  0
   -2.6030   12.9130   22.9870 H   0  0  0  0  0  0  0  0  0  0  0  0
   -1.3610   11.2100   22.7610 C   0  0  0  0  0  0  0  0  0  0  0  0
   -1.5140   10.8620   23.7480 H   0  0  0  0  0  0  0  0  0  0  0  0
   -0.5320   10.4710   21.8830 C   0  0  0  0  0  0  0  0  0  0  0  0
    0.1050    9.2680   22.2840 C   0  0  0  0  0  0  0  0  0  0  0  0
   -0.0430    8.9120   23.2710 H   0  0  0  0  0  0  0  0  0  0  0  0
    0.8680    8.5830   21.4860 N   0  0  0  0  0  0  0  0  0  0  0  0
    2.2390    8.4970   18.1620 O   0  0  0  0  0  0  0  0  0  0  0  0
    5.8280    6.7360   15.6270 S   0  0  0  0  0  0  0  0  0  0  0  0
    6.3040    5.4700   14.5250 C   0  0  0  0  0  0  0  0  0  0  0  0
    7.1090    5.5540   13.5040 N   0  0  0  0  0  0  0  0  0  0  0  0
    7.1350    4.3180   12.9020 N   0  0  0  0  0  0  0  0  0  0  0  0
    6.3710    3.5510   13.5940 C   0  0  0  0  0  0  0  0  0  0  0  0
    6.1580    2.5340   13.4290 H   0  0  0  0  0  0  0  0  0  0  0  0
    5.8360    4.2220   14.6160 N   0  0  0  0  0  0  0  0  0  0  0  0
    4.9290    3.6770   15.6120 C   0  0  0  0  0  0  0  0  0  0  0  0
    4.1350    3.1170   15.1550 H   0  0  0  0  0  0  0  0  0  0  0  0
    5.4380    3.0150   16.2960 H   0  0  0  0  0  0  0  0  0  0  0  0
    4.4310    4.4420   16.1850 H   0  0  0  0  0  0  0  0  0  0  0  0
    7.2240    5.3340   16.9520 H   0  0  0  0  0  0  0  0  0  0  0  0
  1  2  1  0  0  0  0
  1  3  1  0  0  0  0
  1  4  1  0  0  0  0
  1  5  1  0  0  0  0
  5  6  1  0  0  0  0
  5 36  1  0  0  0  0
  5 47  1  0  0  0  0
  6  7  1  0  0  0  0
  6 14  2  0  0  0  0
  7  8  1  0  0  0  0
  7  9  2  0  0  0  0
  9 10  1  0  0  0  0
  9 11  1  0  0  0  0
 11 12  1  0  0  0  0
 11 13  2  0  0  0  0
 13 14  1  0  0  0  0
 13 16  1  0  0  0  0
 14 15  1  0  0  0  0
 16 17  1  0  0  0  0
 16 18  1  0  0  0  0
 18 19  1  0  0  0  0
 18 35  2  0  0  0  0
 19 20  1  0  0  0  0
 19 34  2  0  0  0  0
 20 21  1  0  0  0  0
 20 22  2  0  0  0  0
 22 23  1  0  0  0  0
 22 31  1  0  0  0  0
 23 24  1  0  0  0  0
 23 25  2  0  0  0  0
 25 26  1  0  0  0  0
 25 27  1  0  0  0  0
 27 28  1  0  0  0  0
 27 29  2  0  0  0  0
 29 30  1  0  0  0  0
 29 31  1  0  0  0  0
 31 32  2  0  0  0  0
 32 33  1  0  0  0  0
 32 34  1  0  0  0  0
 36 37  1  0  0  0  0
 37 38  2  0  0  0  0
 37 42  1  0  0  0  0
 38 39  1  0  0  0  0
 39 40  2  0  0  0  0
 40 41  1  0  0  0  0
 40 42  1  0  0  0  0
 42 43  1  0  0  0  0
 43 44  1  0  0  0  0
 43 45  1  0  0  0  0
 43 46  1  0  0  0  0
M  END
>  <receptor>
S(=O)(=O)([O-])[O-].S(CCC(NC(=O)C(NC(=O)C(NC(=O)CNC(=O)C(NC(=O)C1N(C(=O)C(NC(=O)C(NC(=O)C(NC(=O)C(NC(=O)C(NC(=O)C(NC(=O)C(NC(=O)C(NC(=O)C(NC(=O)C(NC(=O)C(NC(=O)C(NC(=O)C(NC(=O)C(NC(=O)C(NC(=O)C(NC(=O)C(NC(=O)C(NC(=O)C(NC(=O)CNC(=O)C(NC(=O)C(NC(=O)C(NC(=O)C(NC(=O)C(NC(=O)C(NC(=O)C(NC(=O)C(NC(=O)C(NC(=O)C(NC(=O)C(NC(=O)C(NC(=O)C(NC(=O)C)CCCC[NH3+])C(C)C)C(O)C)CCC(=O)N)CCC(=O)[O-])CCC(=O)N)Cc2ccccc2)CCC(=O)[O-])CC(C)C)Cc2ccc(O)cc2)CS)CCC(=O)[O-])CCSC)CO)C(O)C)Cc2ccccc2)CCC(=O)N)CC(C)C)C[S-])CCCC[NH3+])C(CC)C)C[S-])C)CCC(=O)[O-])CC(=O)N)CC(=O)[O-])CCCC[NH3+])CC(=O)[O-])C(C)C)CCCC[NH3+])C(CC)C)CCC(=O)[O-])CCC1)C[S-])Cc1nc[n-]c1)CC(C)C)C(=O)NC(C(=O)NC(C(=O)NC(C(=O)NC(C(=O)NC(C(=O)NC(C(=O)NC(C(=O)NC(C(=O)NC(C(=O)NC(C(=O)NC(C(=O)NC(C(=O)NCC(=O)NC(C(=O)NCC(=O)NC(C(=O)N1C(C(=O)NC(C(=O)NC(C(=O)NC(C(=O)NC(C(=O)NC(C(=O)NC(C(=O)NC(C(=O)NCC(=O)NC(C(=O)NC(C(=O)N2C(C(=O)NC(C(=O)NC(C(=O)NC(C(=O)NC(C(=O)N3C(C(=O)NC(C(=O)NC(C(=O)[O-])CC(=O)[O-])Cc4ccccc4)CCC3)CC(=O)[O-])C(C)C)C(CC)C)C(CC)C)CCC2)CCC(=O)[O-])C(O)C)CCCC[NH3+])C(CC)C)CCC(=O)[O-])CS)CCCNC(=[NH2+])N)C[S-])Cc2ccccc2)CCC1)C[S-])CCC(=O)N)CC(=O)[O-])CO)CCC(=O)[O-])CCC(=O)N)Cc1c2c([nH]c1)cccc2)C)C(O)C)CC(C)C)C[S-])CO)C(O)C)C[S-])C.S(CCC(NC(=O)C(NC(=O)C(NC(=O)C(NC(=O)C(NC(=O)C(NC(=O)C(NC(=O)C(NC(=O)C(NC(=O)C(NC(=O)C(NC(=O)C(NC(=O)C(NC(=O)C(NC(=O)C(NC(=O)C(NC(=O)C[NH3+])CCC(=O)N)C)C)C)CC(=O)[O-])CCCNC(=[NH2+])N)CCCNC(=[NH2+])N)C(O)C)C(C)C)CCC(=O)[O-])CCCC[NH3+])C(O)C)Cc1c2c([nH]c1)cccc2)C)CC(C)C)C(=O)NC(C(=O)NC(C(=O)NC(C(=O)NC(C(=O)NC(C(=O)NC(C(=O)NC(C(=O)NC(C(=O)NC(C(=O)N1C(C(=O)NC(C(=O)NC(C(=O)NC(C(=O)NC(C(=O)NC(C(=O)NC(C(=O)NC(C(=O)N2C(C(=O)N3C(C(=O)NC(C(=O)NC(C(=O)NC(C(=O)NC(C(=O)NC(C(=O)NC(C(=O)N4C(C(=O)NC(C(=O)NC(C(=O)NC(C(=O)NC(C(=O)NC(C(=O)NC(C(=O)NC(C(=O)NC(C(=O)NC(C(=O)NC(C(=O)NC(C(=O)NC(C(=O)NC(C(=O)NC(C(=O)NC(C(=O)NC(C(=O)NC(C(=O)NC(C(=O)NC(C(=O)NC(C(=O)NC(C(=O)NC(C(=O)NC(C(=O)NC(C(=O)NC(C(=O)NC(C(=O)NC(C(=O)NC(C(=O)NC(C(=O)NC(C(=O)NC(C(=O)NC(C(=O)NC(C(=O)NC(C(=O)NC(C(=O)NC(C(=O)NC(C(=O)NC(C(=O)NC(C(=O)NC(C(=O)NC(C(=O)NC(C(=O)NC(C(=O)NC(C(=O)NC(C(=O)NC(C(=O)NC(C(=O)NC(C(=O)NCC(=O)NC(C(=O)NC(C(=O)NC(C(=O)NC(C(=O)NC(C(=O)NC(C(=O)NC(C(=O)NC(C(=O)NC(C(=O)NC(C(=O)NC(C(=O)NC(C(=O)NC(C(=O)NC(C(=O)NC(C(=O)NC(C(=O)NC(C(=O)NC(C(=O)NC(C(=O)NC(C(=O)NC(C(=O)NC(C(=O)NC(C(=O)NC(C(=O)NC(C(=O)NC(C(=O)NC(C(=O)NC(C(=O)NC(C(=O)NC(C(=O)NC(C(=O)NC(C(=O)NC(C(=O)N5C(C(=O)NC(C(=O)NCC(=O)NC(C(=O)NC(C(=O)NC(C(=O)NCC(=O)NC(C(=O)NC(C(=O)NC(C(=O)NC(C(=O)NC(C(=O)NC(C(=O)NC(C(=O)NC(C(=O)NC(C(=O)NC(C(=O)NC(C(=O)NC(C(=O)NC(C(=O)NC(C(=O)NC(C(=O)NC(C(=O)NC(C(=O)NC(C(=O)NCC(=O)NC(C(=O)NC(C(=O)NC(C(=O)NC(C(=O)NC(C(=O)N6C(C(=O)NC(C(=O)NC(C(=O)NC(C(=O)NC(C(=O)NC(C(=O)NC(C(=O)NC(C(=O)NC(C(=O)NC(C(=O)NC(C(=O)NC(C(=O)NC(C(=O)NC(C(=O)NC(C(=O)NC(C(=O)NC(C(=O)NCC(=O)NC(C(=O)NC(C(=O)NC(C(=O)NC(C(=O)NC(C(=O)NC(C(=O)NC(C(=O)NC(C(=O)NC(C(=O)NC(C(=O)NC(C(=O)NC(C(=O)NC(C(=O)NC(C(=O)NC(C(=O)NC(C(=O)NC(C(=O)NC(C(=O)NC(C(=O)NC(C(=O)NC(C(=O)NC(C(=O)NC(C(=O)NC(C(=O)NC(C(=O)NC(C(=O)NC(C(=O)NC(C(=O)NC(C(=O)NC(C(=O)NC(C(=O)N7C(C(=O)NC(C(=O)NCC(=O)NC(C(=O)NC(C(=O)NC(C(=O)NC(C(=O)NC(C(=O)NC(C(=O)NC(C(=O)NC(C(=O)NC(C(=O)NC(C(=O)NC(C(=O)NC(C(=O)NC(C(=O)N8C(C(=O)NCC(=O)NC(C(=O)NC(C(=O)NC(C(=O)NC(C(=O)NC(C(=O)NC(C(=O)NC(C(=O)NC(C(=O)NC(C(=O)NC(C(=O)NC(C(=O)NC(C(=O)NC(C(=O)NC(C(=O)NC(C(=O)NC(C(=O)NC(C(=O)NC(C(=O)NC(C(=O)NC(C(=O)N9C(C(=O)NCC(=O)NC(C(=O)NC(C(=O)NC(C(=O)NC(C(=O)NC(C(=O)NC(C(=O)NC(C(=O)NC(C(=O)NC(C(=O)NC(C(=O)NC(C(=O)NCC(=O)NC(C(=O)NC(C(=O)NC(C(=O)NC(C(=O)NCC(=O)NC(C(=O)NC(C(=O)NC(C(=O)NCC(=O)NC(C(=O)NCC(=O)NC(C(=O)NC(C(=O)NC(C(=O)NC(C(=O)NC(C(=O)NC(C(=O)N%10C(C(=O)NC(C(=O)NC(C(=O)NC(C(=O)N%11C(C(=O)NC(C(=O)NC(C(=O)NC(C(=O)NC(C(=O)NC(C(=O)NC(C(=O)NC(C(=O)NCC(=O)NC(C(=O)NC(C(=O)NC(C(=O)NCC(=O)NC(C(=O)NC(C(=O)NC(C(=O)NC(C(=O)N%12C(C(=O)NC(C(=O)NCC(=O)NC(C(=O)NC(C(=O)NC(C(=O)NC(C(=O)NC)CC(=O)N)Cc%13ccc(O)cc%13)CO)CCCNC(=[NH2+])N)CC(=O)[O-])CCC%12)Cc%12ccc(O)cc%12)CC(C)C)Cc%12ccc(O)cc%12)Cc%12ccccc%12)CCC(=O)[O-])C)CO)CC(=O)[O-])C(CC)C)CC(C)C)C)CCC(=O)N)Cc%12ccccc%12)CC(C)C)CCC%11)CCCC[NH3+])CC(=O)N)Cc%11[nH]cnc%11)CCC%10)C(CC)C)C(O)C)CCC(=O)N)CC(C)C)C(CC)C)CC(=O)N)CC(=O)[O-])C(O)C)C(C)C)Cc%10ccc(O)cc%10)C(CC)C)C)Cc%10c%11c([nH]c%10)cccc%11)CCC(=O)N)CC(C)C)CCCNC(=[NH2+])N)C(O)C)CS)CO)CC(C)C)CCCNC(=[NH2+])N)Cc%10ccccc%10)C(CC)C)Cc%10ccc(O)cc%10)CO)CCC9)CCCC[NH3+])C(O)C)CO)Cc9ccc(O)cc9)CCCC[NH3+])CCC(=O)N)CC(C)C)CCCNC(=[NH2+])N)C)CCCC[NH3+])C(C)C)CCC(=O)[O-])CC(=O)[O-])Cc9ccc(O)cc9)C(O)C)CC(C)C)Cc9ccccc9)C)CCSC)Cc9ccc(O)cc9)CCC8)Cc8nc[nH]c8)C(O)C)C(C)C)C)CC(C)C)Cc8ccccc8)CC(=O)N)Cc8c9c([nH]c8)cccc9)CC(=O)N)CCCNC(=[NH2+])N)CC(C)C)C(CC)C)CO)Cc8c9c([nH]c8)cccc9)CCC7)CCC(=O)N)Cc7ccccc7)CC(C)C)CCCNC(=[NH2+])N)C(O)C)Cc7ccccc7)C(CC)C)CC(=O)[O-])Cc7ccccc7)CCC(=O)[O-])Cc7ccccc7)C(C)C)CO)C(CC)C)Cc7ccc(O)cc7)CC(=O)[O-])CC(=O)N)CS)C(O)C)CC(C)C)CC(=O)[O-])C(CC)C)C(O)C)CO)CCCC[NH3+])CC(C)C)C)CCSC)C)CCC(=O)[O-])CC(C)C)CO)CO)C(CC)C)CCC(=O)N)Cc7nc[nH]c7)C(C)C)CCC(=O)[O-])Cc7nc[nH]c7)CC(C)C)CS)CCC(=O)N)CCCNC(=[NH2+])N)Cc7ccccc7)C(C)C)CCCC[NH3+])Cc7c8c([nH]c7)cccc8)CCC6)C(C)C)C(CC)C)C(O)C)CCCC[NH3+])CC(=O)[O-])Cc6ccccc6)Cc6ccccc6)CCCC[NH3+])CCCNC(=[NH2+])N)Cc6c7c([nH]c6)cccc7)Cc6ccccc6)CCC(=O)[O-])C)C)CC(=O)[O-])C)CCCC[NH3+])C(O)C)C(CC)C)CCCNC(=[NH2+])N)Cc6ccccc6)CC(=O)N)CC(=O)[O-])CCC(=O)N)Cc6ccccc6)CCC(=O)N)CC(=O)N)CCC5)Cc5ccccc5)C(CC)C)C)CCCC[NH3+])C(CC)C)CCC(=O)[O-])C)CC(C)C)CCSC)Cc5nc[nH]c5)CO)Cc5ccccc5)C(CC)C)CC(C)C)CO)CC(C)C)CCCC[NH3+])C(O)C)CC(C)C)CC(=O)N)CCCNC(=[NH2+])N)CCCNC(=[NH2+])N)CC(=O)[O-])CCC(=O)N)CO)CCC(=O)N)CCC(=O)[O-])CCC(=O)[O-])Cc5ccc(O)cc5)CCSC)CCCNC(=[NH2+])N)CCC(=O)[O-])CCCC[NH3+])CCC(=O)[O-])CCCC[NH3+])Cc5ccccc5)CC(C)C)CCCNC(=[NH2+])N)C(CC)C)C)CCCNC(=[NH2+])N)CCCC[NH3+])CO)CCCC[NH3+])CCCC[NH3+])CCSC)CC(C)C)CO)CC(=O)[O-])C(CC)C)Cc5ccc(O)cc5)C(CC)C)CCCC[NH3+])Cc5ccccc5)Cc5ccc(O)cc5)CCC(=O)[O-])CC(=O)N)CCC(=O)[O-])CO)CC(C)C)CCC(=O)N)C)CC(C)C)CCCC[NH3+])CCC(=O)N)CC(=O)N)CC(=O)[O-])CC(=O)[O-])Cc5ccc(O)cc5)CCCC[NH3+])CO)CC(C)C)C(CC)C)CC(C)C)CCCNC(=[NH2+])N)CC(C)C)Cc5nc[nH]c5)CCC(=O)N)Cc5ccc(O)cc5)C(O)C)CC(=O)[O-])CCC4)CC(C)C)C(CC)C)CC(=O)[O-])CC(C)C)C(CC)C)Cc4ccc(O)cc4)CCC3)CCC2)CO)CC(=O)N)CCCC[NH3+])CC(C)C)CCC(=O)N)CC(C)C)CCCC[NH3+])CCC1)CC(=O)N)CCC(=O)N)CS)CC(C)C)CCCNC(=[NH2+])N)C(C)C)C(C)C)C)CC(=O)[O-])C.OCCO.[UH+3].[Zn+2].[Zn+2].O.O.O.O.O.O.O.O.O.O.O.O.O.O.O.O.O.O.O.O.O.O.O.O.O.O.O.O.O.O.O.O.O.O.O.O.O.O.O.O.O.O.O.O.O.O.O.O.O.O.O.O.O.O.O.O.O.O.O.O.O.O.O.O.O.O.O.O.O.O.O.O.O.O.O.O.O.O.O.O.O.O.O.O.O.O.O.O.O.O.O.O.O.O.O.O.O.O.O.O.O.O.O.O.O.O.O.O.O.O.O.O.O.O.O.O.O.O.O.O.O.O.O.O.O.O.O.O.O.O.O.O.O.O.O.O.O.O.O.O.O.O

>  <rseq>
1

>  <mseq>
47

>  <S>
-7.9267259

>  <rmsd_refine>
1.4550714

>  <E_conf>
22.012215

>  <E_place>
-70.601112

>  <E_score1>
-10.527494

>  <E_refine>
-38.839771

>  <E_score2>
-7.9267259

>  <Field_2>
MR07

>  <pseq>
47

>  <%C>
99.85508

>  <a_heavy>
28

>  <h_logP>
3.7084138

>  <Weight>
389.483

>  <E_orig>
1.8043444

>  <PLIF_raw>
[[],[],[],[],[]]

>  <PLIF_ligidx>
[]

$$$$

  MOE2020           3D

 69 74  0  0  0  0  0  0  0  0999 V2000
    4.4620    3.0190   16.4680 C   0  0  0  0  0  0  0  0  0  0  0  0
    3.4500    2.8510   16.1320 H   0  0  0  0  0  0  0  0  0  0  0  0
    4.9280    2.0540   16.5610 H   0  0  0  0  0  0  0  0  0  0  0  0
    4.4030    3.4240   17.4670 H   0  0  0  0  0  0  0  0  0  0  0  0
    5.1980    3.8870   15.5560 N   0  0  0  0  0  0  0  0  0  0  0  0
    6.0380    3.5050   14.6060 C   0  0  0  0  0  0  0  0  0  0  0  0
    6.2350    2.4850   14.4310 H   0  0  0  0  0  0  0  0  0  0  0  0
    6.5210    4.5360   13.9990 N   0  0  0  0  0  0  0  0  0  0  0  0
    5.9500    5.6380   14.5840 N   0  0  0  0  0  0  0  0  0  0  0  0
    5.1530    5.2130   15.5070 C   0  0  0  0  0  0  0  0  0  0  0  0
    4.2650    6.0120   16.4220 C   0  0  0  0  0  0  0  0  0  0  0  0
    3.9370    6.8930   15.8890 H   0  0  0  0  0  0  0  0  0  0  0  0
    3.3710    5.4460   16.6200 H   0  0  0  0  0  0  0  0  0  0  0  0
    4.8810    6.4510   17.7540 C   0  0  0  0  0  0  0  0  0  0  0  0
    6.0030    5.5530   18.4060 C   0  0  0  0  0  0  0  0  0  0  0  0
    5.8660    5.2640   19.4380 H   0  0  0  0  0  0  0  0  0  0  0  0
    6.3100    4.6800   17.8510 H   0  0  0  0  0  0  0  0  0  0  0  0
    6.9420    6.6400   18.2740 O   0  0  0  0  0  0  0  0  0  0  0  0
    6.0370    7.4740   17.5270 C   0  0  0  0  0  0  0  0  0  0  0  0
    5.8940    8.4540   17.9270 H   0  0  0  0  0  0  0  0  0  0  0  0
    6.3550    7.5900   16.5000 H   0  0  0  0  0  0  0  0  0  0  0  0
    3.7320    6.8290   18.7000 C   0  0  0  0  0  0  0  0  0  0  0  0
    3.3140    5.9140   19.6730 C   0  0  0  0  0  0  0  0  0  0  0  0
    3.7910    4.9740   19.7710 H   0  0  0  0  0  0  0  0  0  0  0  0
    2.2600    6.2130   20.5300 C   0  0  0  0  0  0  0  0  0  0  0  0
    1.9750    5.5110   21.2690 H   0  0  0  0  0  0  0  0  0  0  0  0
    1.5900    7.4220   20.4250 C   0  0  0  0  0  0  0  0  0  0  0  0
    0.7910    7.6490   21.0810 H   0  0  0  0  0  0  0  0  0  0  0  0
    1.9570    8.3160   19.4200 C   0  0  0  0  0  0  0  0  0  0  0  0
    3.0270    8.0310   18.5630 C   0  0  0  0  0  0  0  0  0  0  0  0
    3.2860    8.7280   17.8150 H   0  0  0  0  0  0  0  0  0  0  0  0
    1.1790    9.4890   19.2320 N   0  0  0  0  0  0  0  0  0  0  0  0
    0.3580    9.6970   18.0280 C   0  0  0  0  0  0  0  0  0  0  0  0
   -0.0360    8.7660   17.6510 H   0  0  0  0  0  0  0  0  0  0  0  0
    0.9640   10.1290   17.2460 H   0  0  0  0  0  0  0  0  0  0  0  0
   -0.7290   10.6570   18.4620 C   0  0  0  0  0  0  0  0  0  0  0  0
   -0.4060   11.0810   19.7400 C   0  0  0  0  0  0  0  0  0  0  0  0
   -1.1760   12.0450   20.3940 C   0  0  0  0  0  0  0  0  0  0  0  0
   -0.9050   12.3730   21.3650 H   0  0  0  0  0  0  0  0  0  0  0  0
   -2.3030   12.5600   19.7560 C   0  0  0  0  0  0  0  0  0  0  0  0
   -3.1620   13.6100   20.4240 C   0  0  0  0  0  0  0  0  0  0  0  0
   -3.0350   14.5440   19.8930 H   0  0  0  0  0  0  0  0  0  0  0  0
   -2.7320   13.8150   21.3960 H   0  0  0  0  0  0  0  0  0  0  0  0
   -4.6180   13.2480   20.5520 N   0  3  0  0  0  0  0  0  0  0  0  0
   -4.6600   12.2440   20.4410 H   0  0  0  0  0  0  0  0  0  0  0  0
   -5.1680   13.5560   21.9140 C   0  0  0  0  0  0  0  0  0  0  0  0
   -6.0720   12.9890   22.0970 H   0  0  0  0  0  0  0  0  0  0  0  0
   -4.4910   13.2270   22.6900 H   0  0  0  0  0  0  0  0  0  0  0  0
   -5.4990   15.0380   22.1480 C   0  0  0  0  0  0  0  0  0  0  0  0
   -5.9750   15.1470   23.1220 H   0  0  0  0  0  0  0  0  0  0  0  0
   -4.5700   15.6100   22.1550 H   0  0  0  0  0  0  0  0  0  0  0  0
   -6.4280   15.5930   21.0600 C   0  0  0  0  0  0  0  0  0  0  0  0
   -7.3980   15.0960   21.1290 H   0  0  0  0  0  0  0  0  0  0  0  0
   -6.5710   16.6640   21.2080 H   0  0  0  0  0  0  0  0  0  0  0  0
   -5.8220   15.3340   19.6730 C   0  0  0  0  0  0  0  0  0  0  0  0
   -4.9130   15.9270   19.5630 H   0  0  0  0  0  0  0  0  0  0  0  0
   -6.5280   15.6440   18.9020 H   0  0  0  0  0  0  0  0  0  0  0  0
   -5.4730   13.8530   19.4630 C   0  0  0  0  0  0  0  0  0  0  0  0
   -6.4050   13.3110   19.3730 H   0  0  0  0  0  0  0  0  0  0  0  0
   -5.0160   13.7470   18.4880 H   0  0  0  0  0  0  0  0  0  0  0  0
   -2.6550   12.0850   18.4910 C   0  0  0  0  0  0  0  0  0  0  0  0
   -3.5210   12.4650   18.0140 H   0  0  0  0  0  0  0  0  0  0  0  0
   -1.8980   11.1110   17.8390 C   0  0  0  0  0  0  0  0  0  0  0  0
   -2.4460   10.5800   16.5200 C   0  0  0  0  0  0  0  0  0  0  0  0
   -1.7360    9.5940   16.0060 F   0  0  0  0  0  0  0  0  0  0  0  0
   -3.6820   10.0860   16.6770 F   0  0  0  0  0  0  0  0  0  0  0  0
   -2.5380   11.5130   15.5770 F   0  0  0  0  0  0  0  0  0  0  0  0
    0.7430   10.3500   20.2320 C   0  0  0  0  0  0  0  0  0  0  0  0
    1.2460   10.4060   21.3500 O   0  0  0  0  0  0  0  0  0  0  0  0
  1  2  1  0  0  0  0
  1  3  1  0  0  0  0
  1  4  1  0  0  0  0
  1  5  1  0  0  0  0
  5  6  1  0  0  0  0
  5 10  1  0  0  0  0
  6  7  1  0  0  0  0
  6  8  2  0  0  0  0
  8  9  1  0  0  0  0
  9 10  2  0  0  0  0
 10 11  1  0  0  0  0
 11 12  1  0  0  0  0
 11 13  1  0  0  0  0
 11 14  1  0  0  0  0
 14 15  1  0  0  0  0
 14 19  1  0  0  0  0
 14 22  1  0  0  0  0
 15 16  1  0  0  0  0
 15 17  1  0  0  0  0
 15 18  1  0  0  0  0
 18 19  1  0  0  0  0
 19 20  1  0  0  0  0
 19 21  1  0  0  0  0
 22 23  1  0  0  0  0
 22 30  2  0  0  0  0
 23 24  1  0  0  0  0
 23 25  2  0  0  0  0
 25 26  1  0  0  0  0
 25 27  1  0  0  0  0
 27 28  1  0  0  0  0
 27 29  2  0  0  0  0
 29 30  1  0  0  0  0
 29 32  1  0  0  0  0
 30 31  1  0  0  0  0
 32 33  1  0  0  0  0
 32 68  1  0  0  0  0
 33 34  1  0  0  0  0
 33 35  1  0  0  0  0
 33 36  1  0  0  0  0
 36 37  1  0  0  0  0
 36 63  2  0  0  0  0
 37 38  2  0  0  0  0
 37 68  1  0  0  0  0
 38 39  1  0  0  0  0
 38 40  1  0  0  0  0
 40 41  1  0  0  0  0
 40 61  2  0  0  0  0
 41 42  1  0  0  0  0
 41 43  1  0  0  0  0
 41 44  1  0  0  0  0
 44 45  1  0  0  0  0
 44 46  1  0  0  0  0
 44 58  1  0  0  0  0
 46 47  1  0  0  0  0
 46 48  1  0  0  0  0
 46 49  1  0  0  0  0
 49 50  1  0  0  0  0
 49 51  1  0  0  0  0
 49 52  1  0  0  0  0
 52 53  1  0  0  0  0
 52 54  1  0  0  0  0
 52 55  1  0  0  0  0
 55 56  1  0  0  0  0
 55 57  1  0  0  0  0
 55 58  1  0  0  0  0
 58 59  1  0  0  0  0
 58 60  1  0  0  0  0
 61 62  1  0  0  0  0
 61 63  1  0  0  0  0
 63 64  1  0  0  0  0
 64 65  1  0  0  0  0
 64 66  1  0  0  0  0
 64 67  1  0  0  0  0
 68 69  2  0  0  0  0
M  CHG  1  44   1
M  END
>  <receptor>
S(=O)(=O)([O-])[O-].S(CCC(NC(=O)C(NC(=O)C(NC(=O)CNC(=O)C(NC(=O)C1N(C(=O)C(NC(=O)C(NC(=O)C(NC(=O)C(NC(=O)C(NC(=O)C(NC(=O)C(NC(=O)C(NC(=O)C(NC(=O)C(NC(=O)C(NC(=O)C(NC(=O)C(NC(=O)C(NC(=O)C(NC(=O)C(NC(=O)C(NC(=O)C(NC(=O)C(NC(=O)CNC(=O)C(NC(=O)C(NC(=O)C(NC(=O)C(NC(=O)C(NC(=O)C(NC(=O)C(NC(=O)C(NC(=O)C(NC(=O)C(NC(=O)C(NC(=O)C(NC(=O)C(NC(=O)C)CCCC[NH3+])C(C)C)C(O)C)CCC(=O)N)CCC(=O)[O-])CCC(=O)N)Cc2ccccc2)CCC(=O)[O-])CC(C)C)Cc2ccc(O)cc2)CS)CCC(=O)[O-])CCSC)CO)C(O)C)Cc2ccccc2)CCC(=O)N)CC(C)C)C[S-])CCCC[NH3+])C(CC)C)C[S-])C)CCC(=O)[O-])CC(=O)N)CC(=O)[O-])CCCC[NH3+])CC(=O)[O-])C(C)C)CCCC[NH3+])C(CC)C)CCC(=O)[O-])CCC1)C[S-])Cc1nc[n-]c1)CC(C)C)C(=O)NC(C(=O)NC(C(=O)NC(C(=O)NC(C(=O)NC(C(=O)NC(C(=O)NC(C(=O)NC(C(=O)NC(C(=O)NC(C(=O)NC(C(=O)NC(C(=O)NCC(=O)NC(C(=O)NCC(=O)NC(C(=O)N1C(C(=O)NC(C(=O)NC(C(=O)NC(C(=O)NC(C(=O)NC(C(=O)NC(C(=O)NC(C(=O)NCC(=O)NC(C(=O)NC(C(=O)N2C(C(=O)NC(C(=O)NC(C(=O)NC(C(=O)NC(C(=O)N3C(C(=O)NC(C(=O)NC(C(=O)[O-])CC(=O)[O-])Cc4ccccc4)CCC3)CC(=O)[O-])C(C)C)C(CC)C)C(CC)C)CCC2)CCC(=O)[O-])C(O)C)CCCC[NH3+])C(CC)C)CCC(=O)[O-])CS)CCCNC(=[NH2+])N)C[S-])Cc2ccccc2)CCC1)C[S-])CCC(=O)N)CC(=O)[O-])CO)CCC(=O)[O-])CCC(=O)N)Cc1c2c([nH]c1)cccc2)C)C(O)C)CC(C)C)C[S-])CO)C(O)C)C[S-])C.S(CCC(NC(=O)C(NC(=O)C(NC(=O)C(NC(=O)C(NC(=O)C(NC(=O)C(NC(=O)C(NC(=O)C(NC(=O)C(NC(=O)C(NC(=O)C(NC(=O)C(NC(=O)C(NC(=O)C(NC(=O)C(NC(=O)C[NH3+])CCC(=O)N)C)C)C)CC(=O)[O-])CCCNC(=[NH2+])N)CCCNC(=[NH2+])N)C(O)C)C(C)C)CCC(=O)[O-])CCCC[NH3+])C(O)C)Cc1c2c([nH]c1)cccc2)C)CC(C)C)C(=O)NC(C(=O)NC(C(=O)NC(C(=O)NC(C(=O)NC(C(=O)NC(C(=O)NC(C(=O)NC(C(=O)NC(C(=O)N1C(C(=O)NC(C(=O)NC(C(=O)NC(C(=O)NC(C(=O)NC(C(=O)NC(C(=O)NC(C(=O)N2C(C(=O)N3C(C(=O)NC(C(=O)NC(C(=O)NC(C(=O)NC(C(=O)NC(C(=O)NC(C(=O)N4C(C(=O)NC(C(=O)NC(C(=O)NC(C(=O)NC(C(=O)NC(C(=O)NC(C(=O)NC(C(=O)NC(C(=O)NC(C(=O)NC(C(=O)NC(C(=O)NC(C(=O)NC(C(=O)NC(C(=O)NC(C(=O)NC(C(=O)NC(C(=O)NC(C(=O)NC(C(=O)NC(C(=O)NC(C(=O)NC(C(=O)NC(C(=O)NC(C(=O)NC(C(=O)NC(C(=O)NC(C(=O)NC(C(=O)NC(C(=O)NC(C(=O)NC(C(=O)NC(C(=O)NC(C(=O)NC(C(=O)NC(C(=O)NC(C(=O)NC(C(=O)NC(C(=O)NC(C(=O)NC(C(=O)NC(C(=O)NC(C(=O)NC(C(=O)NC(C(=O)NC(C(=O)NC(C(=O)NC(C(=O)NC(C(=O)NCC(=O)NC(C(=O)NC(C(=O)NC(C(=O)NC(C(=O)NC(C(=O)NC(C(=O)NC(C(=O)NC(C(=O)NC(C(=O)NC(C(=O)NC(C(=O)NC(C(=O)NC(C(=O)NC(C(=O)NC(C(=O)NC(C(=O)NC(C(=O)NC(C(=O)NC(C(=O)NC(C(=O)NC(C(=O)NC(C(=O)NC(C(=O)NC(C(=O)NC(C(=O)NC(C(=O)NC(C(=O)NC(C(=O)NC(C(=O)NC(C(=O)NC(C(=O)NC(C(=O)NC(C(=O)N5C(C(=O)NC(C(=O)NCC(=O)NC(C(=O)NC(C(=O)NC(C(=O)NCC(=O)NC(C(=O)NC(C(=O)NC(C(=O)NC(C(=O)NC(C(=O)NC(C(=O)NC(C(=O)NC(C(=O)NC(C(=O)NC(C(=O)NC(C(=O)NC(C(=O)NC(C(=O)NC(C(=O)NC(C(=O)NC(C(=O)NC(C(=O)NC(C(=O)NCC(=O)NC(C(=O)NC(C(=O)NC(C(=O)NC(C(=O)NC(C(=O)N6C(C(=O)NC(C(=O)NC(C(=O)NC(C(=O)NC(C(=O)NC(C(=O)NC(C(=O)NC(C(=O)NC(C(=O)NC(C(=O)NC(C(=O)NC(C(=O)NC(C(=O)NC(C(=O)NC(C(=O)NC(C(=O)NC(C(=O)NCC(=O)NC(C(=O)NC(C(=O)NC(C(=O)NC(C(=O)NC(C(=O)NC(C(=O)NC(C(=O)NC(C(=O)NC(C(=O)NC(C(=O)NC(C(=O)NC(C(=O)NC(C(=O)NC(C(=O)NC(C(=O)NC(C(=O)NC(C(=O)NC(C(=O)NC(C(=O)NC(C(=O)NC(C(=O)NC(C(=O)NC(C(=O)NC(C(=O)NC(C(=O)NC(C(=O)NC(C(=O)NC(C(=O)NC(C(=O)NC(C(=O)NC(C(=O)N7C(C(=O)NC(C(=O)NCC(=O)NC(C(=O)NC(C(=O)NC(C(=O)NC(C(=O)NC(C(=O)NC(C(=O)NC(C(=O)NC(C(=O)NC(C(=O)NC(C(=O)NC(C(=O)NC(C(=O)NC(C(=O)N8C(C(=O)NCC(=O)NC(C(=O)NC(C(=O)NC(C(=O)NC(C(=O)NC(C(=O)NC(C(=O)NC(C(=O)NC(C(=O)NC(C(=O)NC(C(=O)NC(C(=O)NC(C(=O)NC(C(=O)NC(C(=O)NC(C(=O)NC(C(=O)NC(C(=O)NC(C(=O)NC(C(=O)NC(C(=O)N9C(C(=O)NCC(=O)NC(C(=O)NC(C(=O)NC(C(=O)NC(C(=O)NC(C(=O)NC(C(=O)NC(C(=O)NC(C(=O)NC(C(=O)NC(C(=O)NC(C(=O)NCC(=O)NC(C(=O)NC(C(=O)NC(C(=O)NC(C(=O)NCC(=O)NC(C(=O)NC(C(=O)NC(C(=O)NCC(=O)NC(C(=O)NCC(=O)NC(C(=O)NC(C(=O)NC(C(=O)NC(C(=O)NC(C(=O)NC(C(=O)N%10C(C(=O)NC(C(=O)NC(C(=O)NC(C(=O)N%11C(C(=O)NC(C(=O)NC(C(=O)NC(C(=O)NC(C(=O)NC(C(=O)NC(C(=O)NC(C(=O)NCC(=O)NC(C(=O)NC(C(=O)NC(C(=O)NCC(=O)NC(C(=O)NC(C(=O)NC(C(=O)NC(C(=O)N%12C(C(=O)NC(C(=O)NCC(=O)NC(C(=O)NC(C(=O)NC(C(=O)NC(C(=O)NC)CC(=O)N)Cc%13ccc(O)cc%13)CO)CCCNC(=[NH2+])N)CC(=O)[O-])CCC%12)Cc%12ccc(O)cc%12)CC(C)C)Cc%12ccc(O)cc%12)Cc%12ccccc%12)CCC(=O)[O-])C)CO)CC(=O)[O-])C(CC)C)CC(C)C)C)CCC(=O)N)Cc%12ccccc%12)CC(C)C)CCC%11)CCCC[NH3+])CC(=O)N)Cc%11[nH]cnc%11)CCC%10)C(CC)C)C(O)C)CCC(=O)N)CC(C)C)C(CC)C)CC(=O)N)CC(=O)[O-])C(O)C)C(C)C)Cc%10ccc(O)cc%10)C(CC)C)C)Cc%10c%11c([nH]c%10)cccc%11)CCC(=O)N)CC(C)C)CCCNC(=[NH2+])N)C(O)C)CS)CO)CC(C)C)CCCNC(=[NH2+])N)Cc%10ccccc%10)C(CC)C)Cc%10ccc(O)cc%10)CO)CCC9)CCCC[NH3+])C(O)C)CO)Cc9ccc(O)cc9)CCCC[NH3+])CCC(=O)N)CC(C)C)CCCNC(=[NH2+])N)C)CCCC[NH3+])C(C)C)CCC(=O)[O-])CC(=O)[O-])Cc9ccc(O)cc9)C(O)C)CC(C)C)Cc9ccccc9)C)CCSC)Cc9ccc(O)cc9)CCC8)Cc8nc[nH]c8)C(O)C)C(C)C)C)CC(C)C)Cc8ccccc8)CC(=O)N)Cc8c9c([nH]c8)cccc9)CC(=O)N)CCCNC(=[NH2+])N)CC(C)C)C(CC)C)CO)Cc8c9c([nH]c8)cccc9)CCC7)CCC(=O)N)Cc7ccccc7)CC(C)C)CCCNC(=[NH2+])N)C(O)C)Cc7ccccc7)C(CC)C)CC(=O)[O-])Cc7ccccc7)CCC(=O)[O-])Cc7ccccc7)C(C)C)CO)C(CC)C)Cc7ccc(O)cc7)CC(=O)[O-])CC(=O)N)CS)C(O)C)CC(C)C)CC(=O)[O-])C(CC)C)C(O)C)CO)CCCC[NH3+])CC(C)C)C)CCSC)C)CCC(=O)[O-])CC(C)C)CO)CO)C(CC)C)CCC(=O)N)Cc7nc[nH]c7)C(C)C)CCC(=O)[O-])Cc7nc[nH]c7)CC(C)C)CS)CCC(=O)N)CCCNC(=[NH2+])N)Cc7ccccc7)C(C)C)CCCC[NH3+])Cc7c8c([nH]c7)cccc8)CCC6)C(C)C)C(CC)C)C(O)C)CCCC[NH3+])CC(=O)[O-])Cc6ccccc6)Cc6ccccc6)CCCC[NH3+])CCCNC(=[NH2+])N)Cc6c7c([nH]c6)cccc7)Cc6ccccc6)CCC(=O)[O-])C)C)CC(=O)[O-])C)CCCC[NH3+])C(O)C)C(CC)C)CCCNC(=[NH2+])N)Cc6ccccc6)CC(=O)N)CC(=O)[O-])CCC(=O)N)Cc6ccccc6)CCC(=O)N)CC(=O)N)CCC5)Cc5ccccc5)C(CC)C)C)CCCC[NH3+])C(CC)C)CCC(=O)[O-])C)CC(C)C)CCSC)Cc5nc[nH]c5)CO)Cc5ccccc5)C(CC)C)CC(C)C)CO)CC(C)C)CCCC[NH3+])C(O)C)CC(C)C)CC(=O)N)CCCNC(=[NH2+])N)CCCNC(=[NH2+])N)CC(=O)[O-])CCC(=O)N)CO)CCC(=O)N)CCC(=O)[O-])CCC(=O)[O-])Cc5ccc(O)cc5)CCSC)CCCNC(=[NH2+])N)CCC(=O)[O-])CCCC[NH3+])CCC(=O)[O-])CCCC[NH3+])Cc5ccccc5)CC(C)C)CCCNC(=[NH2+])N)C(CC)C)C)CCCNC(=[NH2+])N)CCCC[NH3+])CO)CCCC[NH3+])CCCC[NH3+])CCSC)CC(C)C)CO)CC(=O)[O-])C(CC)C)Cc5ccc(O)cc5)C(CC)C)CCCC[NH3+])Cc5ccccc5)Cc5ccc(O)cc5)CCC(=O)[O-])CC(=O)N)CCC(=O)[O-])CO)CC(C)C)CCC(=O)N)C)CC(C)C)CCCC[NH3+])CCC(=O)N)CC(=O)N)CC(=O)[O-])CC(=O)[O-])Cc5ccc(O)cc5)CCCC[NH3+])CO)CC(C)C)C(CC)C)CC(C)C)CCCNC(=[NH2+])N)CC(C)C)Cc5nc[nH]c5)CCC(=O)N)Cc5ccc(O)cc5)C(O)C)CC(=O)[O-])CCC4)CC(C)C)C(CC)C)CC(=O)[O-])CC(C)C)C(CC)C)Cc4ccc(O)cc4)CCC3)CCC2)CO)CC(=O)N)CCCC[NH3+])CC(C)C)CCC(=O)N)CC(C)C)CCCC[NH3+])CCC1)CC(=O)N)CCC(=O)N)CS)CC(C)C)CCCNC(=[NH2+])N)C(C)C)C(C)C)C)CC(=O)[O-])C.OCCO.[UH+3].[Zn+2].[Zn+2].O.O.O.O.O.O.O.O.O.O.O.O.O.O.O.O.O.O.O.O.O.O.O.O.O.O.O.O.O.O.O.O.O.O.O.O.O.O.O.O.O.O.O.O.O.O.O.O.O.O.O.O.O.O.O.O.O.O.O.O.O.O.O.O.O.O.O.O.O.O.O.O.O.O.O.O.O.O.O.O.O.O.O.O.O.O.O.O.O.O.O.O.O.O.O.O.O.O.O.O.O.O.O.O.O.O.O.O.O.O.O.O.O.O.O.O.O.O.O.O.O.O.O.O.O.O.O.O.O.O.O.O.O.O.O.O.O.O.O.O.O.O

>  <rseq>
1

>  <mseq>
48

>  <S>
-8.5900831

>  <rmsd_refine>
1.7266271

>  <E_conf>
55.15802

>  <E_place>
-71.065086

>  <E_score1>
-13.32686

>  <E_refine>
-41.99786

>  <E_score2>
-8.5900831

>  <Field_2>
MR08

>  <pseq>
48

>  <%C>
98.432831

>  <a_heavy>
38

>  <h_logP>
1.0798655

>  <Weight>
526.58301

>  <E_orig>
1

>  <PLIF_raw>
[[1,6,41,44,36,63,61,40,38,37,22,30,29,27,25,23],[3028,3039,3850,3850,1823,1823,1823,1823,1823,1823,6345,6345,6345,6345,6345,6345],[218,219,268,268,144,144,144,144,144,144,220688,220688,220688,220688,220688,220688],[3,3,1,7,10,10,10,10,10,10,10,10,10,10,10,10],[0.5,0.6,0.9,0.6573093394,0.6,0.6,0.6,0.6,0.6,0.6,0.7,0.7,0.7,0.7,0.7,0.7]]

>  <FP:PLIF>
32 2 41 10 12 37

>  <PLIF_ligidx>
[[36,63,61,40,38,37],1,6,41,44,[22,30,29,27,25,23]]

$$$$

  MOE2020           3D

 85 90  0  0  1  0  0  0  0  0999 V2000
   -0.0230   14.4140   21.5130 C   0  0  0  0  0  0  0  0  0  0  0  0
    0.7850   13.8790   22.0130 H   0  0  0  0  0  0  0  0  0  0  0  0
   -0.2510   15.3230   22.0690 H   0  0  0  0  0  0  0  0  0  0  0  0
    0.3030   14.6940   20.5100 H   0  0  0  0  0  0  0  0  0  0  0  0
   -1.2720   13.5250   21.4140 C   0  0  2  0  0  0  0  0  0  0  0  0
   -1.7660   13.0600   22.7940 C   0  0  0  0  0  0  0  0  0  0  0  0
   -2.6280   12.4050   22.6620 H   0  0  0  0  0  0  0  0  0  0  0  0
   -0.9790   12.4820   23.2790 H   0  0  0  0  0  0  0  0  0  0  0  0
   -2.1570   14.1980   23.7170 C   0  0  0  0  0  0  0  0  0  0  0  0
   -1.4810   14.6700   24.7160 N   0  0  0  0  0  0  0  0  0  0  0  0
   -2.2130   15.6900   25.2710 N   0  0  0  0  0  0  0  0  0  0  0  0
   -3.2960   15.7890   24.5750 C   0  0  0  0  0  0  0  0  0  0  0  0
   -4.1070   16.4570   24.6960 H   0  0  0  0  0  0  0  0  0  0  0  0
   -3.2930   14.8890   23.6010 N   0  0  0  0  0  0  0  0  0  0  0  0
   -4.3440   14.7470   22.6030 C   0  0  0  0  0  0  0  0  0  0  0  0
   -4.0770   15.2220   21.6700 H   0  0  0  0  0  0  0  0  0  0  0  0
   -4.5550   13.7090   22.3900 H   0  0  0  0  0  0  0  0  0  0  0  0
   -5.2740   15.1910   22.9340 H   0  0  0  0  0  0  0  0  0  0  0  0
   -1.0220   12.3420   20.4950 C   0  0  0  0  0  0  0  0  0  0  0  0
   -1.7540   12.1900   19.3210 C   0  0  0  0  0  0  0  0  0  0  0  0
   -2.4920   12.9000   19.0500 H   0  0  0  0  0  0  0  0  0  0  0  0
   -1.4830   11.1020   18.4810 C   0  0  0  0  0  0  0  0  0  0  0  0
   -2.1710   10.8990   17.2760 N   0  0  0  0  0  0  0  0  0  0  0  0
   -1.6060   10.6070   16.4640 H   0  0  0  0  0  0  0  0  0  0  0  0
   -3.5370   10.9390   17.0830 C   0  0  0  0  0  0  0  0  0  0  0  0
   -4.0000   10.7220   15.9630 O   0  0  0  0  0  0  0  0  0  0  0  0
   -4.3250   11.1850   18.1800 N   0  0  0  0  0  0  0  0  0  0  0  0
   -3.8630   11.4370   19.0640 H   0  0  0  0  0  0  0  0  0  0  0  0
   -5.7690   11.3660   18.1070 C   0  0  0  0  0  0  0  0  0  0  0  0
   -6.1420   10.6200   17.4150 H   0  0  0  0  0  0  0  0  0  0  0  0
   -6.1540   12.7570   17.5730 C   0  0  0  0  0  0  0  0  0  0  0  0
   -5.6110   12.9610   16.6500 H   0  0  0  0  0  0  0  0  0  0  0  0
   -7.2200   12.7590   17.3410 H   0  0  0  0  0  0  0  0  0  0  0  0
   -5.8660   13.8690   18.5920 C   0  0  0  0  0  0  0  0  0  0  0  0
   -6.2180   14.8230   18.1960 H   0  0  0  0  0  0  0  0  0  0  0  0
   -4.7910   13.9410   18.7580 H   0  0  0  0  0  0  0  0  0  0  0  0
   -6.5660   13.5790   19.9270 C   0  0  0  0  0  0  0  0  0  0  0  0
   -7.6460   13.5950   19.7740 H   0  0  0  0  0  0  0  0  0  0  0  0
   -6.3150   14.3590   20.6440 H   0  0  0  0  0  0  0  0  0  0  0  0
   -6.1470   12.2100   20.4810 C   0  0  0  0  0  0  0  0  0  0  0  0
   -6.6910   12.0070   21.4030 H   0  0  0  0  0  0  0  0  0  0  0  0
   -5.0800   12.2210   20.7080 H   0  0  0  0  0  0  0  0  0  0  0  0
   -6.4340   11.0960   19.4630 C   0  0  0  0  0  0  0  0  0  0  0  0
   -7.5080   11.0200   19.3070 H   0  0  0  0  0  0  0  0  0  0  0  0
   -6.0900   10.1410   19.8590 H   0  0  0  0  0  0  0  0  0  0  0  0
   -0.5320   10.2060   18.7400 N   0  0  0  0  0  0  0  0  0  0  0  0
    0.1890   10.3710   19.8510 C   0  0  0  0  0  0  0  0  0  0  0  0
   -0.0350   11.4000   20.7690 C   0  0  0  0  0  0  0  0  0  0  0  0
    0.5670   11.4750   21.6370 H   0  0  0  0  0  0  0  0  0  0  0  0
    1.2870    9.5160   20.0020 N   0  0  0  0  0  0  0  0  0  0  0  0
    1.2750    8.1200   20.5030 C   0  0  0  0  0  0  0  0  0  0  0  0
    1.4980    8.1000   21.5610 H   0  0  0  0  0  0  0  0  0  0  0  0
    0.3140    7.6600   20.3760 H   0  0  0  0  0  0  0  0  0  0  0  0
    2.3740    7.4260   19.7200 C   0  0  0  0  0  0  0  0  0  0  0  0
    3.0070    8.4020   18.9950 C   0  0  0  0  0  0  0  0  0  0  0  0
    4.1500    8.1140   18.2750 C   0  0  0  0  0  0  0  0  0  0  0  0
    4.7380    8.9100   17.9540 H   0  0  0  0  0  0  0  0  0  0  0  0
    4.5850    6.8150   18.0960 C   0  0  0  0  0  0  0  0  0  0  0  0
    3.9210    5.8120   18.7980 C   0  0  0  0  0  0  0  0  0  0  0  0
    4.2560    4.8170   18.7050 H   0  0  0  0  0  0  0  0  0  0  0  0
    2.8310    6.1110   19.6330 C   0  0  0  0  0  0  0  0  0  0  0  0
    2.1550    5.0050   20.3920 C   0  0  0  0  0  0  0  0  0  0  0  0
    2.6640    3.8080   20.0790 F   0  0  0  0  0  0  0  0  0  0  0  0
    0.8530    4.9800   20.1170 F   0  0  0  0  0  0  0  0  0  0  0  0
    2.2650    5.1280   21.7100 F   0  0  0  0  0  0  0  0  0  0  0  0
    5.7670    6.5910   17.1530 C   0  0  0  0  0  0  0  0  0  0  0  0
    5.6740    7.3890   16.4180 H   0  0  0  0  0  0  0  0  0  0  0  0
    7.1330    6.8110   17.8270 C   0  0  0  0  0  0  0  0  0  0  0  0
    7.8570    7.0920   17.0610 H   0  0  0  0  0  0  0  0  0  0  0  0
    7.0710    7.6340   18.5350 H   0  0  0  0  0  0  0  0  0  0  0  0
    7.6530    5.5590   18.5350 C   0  0  0  0  0  0  0  0  0  0  0  0
    6.9830    5.2860   19.3520 H   0  0  0  0  0  0  0  0  0  0  0  0
    8.6420    5.7590   18.9470 H   0  0  0  0  0  0  0  0  0  0  0  0
    7.7380    4.4110   17.5230 C   0  0  0  0  0  0  0  0  0  0  0  0
    8.1700    3.5430   18.0090 H   0  0  0  0  0  0  0  0  0  0  0  0
    8.3870    4.6930   16.6960 H   0  0  0  0  0  0  0  0  0  0  0  0
    6.3470    4.0730   16.9740 C   0  0  0  0  0  0  0  0  0  0  0  0
    5.7350    3.6850   17.7840 H   0  0  0  0  0  0  0  0  0  0  0  0
    6.4190    3.2910   16.2220 H   0  0  0  0  0  0  0  0  0  0  0  0
    5.6920    5.2960   16.3210 C   0  0  0  0  0  0  0  0  0  0  0  0
    6.2150    5.4790   15.3800 H   0  0  0  0  0  0  0  0  0  0  0  0
    4.6540    5.0700   16.0770 H   0  0  0  0  0  0  0  0  0  0  0  0
    2.3570    9.6740   19.1470 C   0  0  0  0  0  0  0  0  0  0  0  0
    2.6360   10.7340   18.5980 O   0  0  0  0  0  0  0  0  0  0  0  0
   -2.0610   14.1220   20.9540 H   0  0  0  0  0  0  0  0  0  0  0  0
  1  2  1  0  0  0  0
  1  3  1  0  0  0  0
  1  4  1  0  0  0  0
  1  5  1  0  0  0  0
  5  6  1  0  0  0  0
  5 19  1  0  0  0  0
  5 85  1  0  0  0  0
  6  7  1  0  0  0  0
  6  8  1  0  0  0  0
  6  9  1  0  0  0  0
  9 10  2  0  0  0  0
  9 14  1  0  0  0  0
 10 11  1  0  0  0  0
 11 12  2  0  0  0  0
 12 13  1  0  0  0  0
 12 14  1  0  0  0  0
 14 15  1  0  0  0  0
 15 16  1  0  0  0  0
 15 17  1  0  0  0  0
 15 18  1  0  0  0  0
 19 20  2  0  0  0  0
 19 48  1  0  0  0  0
 20 21  1  0  0  0  0
 20 22  1  0  0  0  0
 22 23  1  0  0  0  0
 22 46  2  0  0  0  0
 23 24  1  0  0  0  0
 23 25  1  0  0  0  0
 25 26  2  0  0  0  0
 25 27  1  0  0  0  0
 27 28  1  0  0  0  0
 27 29  1  0  0  0  0
 29 30  1  0  0  0  0
 29 31  1  0  0  0  0
 29 43  1  0  0  0  0
 31 32  1  0  0  0  0
 31 33  1  0  0  0  0
 31 34  1  0  0  0  0
 34 35  1  0  0  0  0
 34 36  1  0  0  0  0
 34 37  1  0  0  0  0
 37 38  1  0  0  0  0
 37 39  1  0  0  0  0
 37 40  1  0  0  0  0
 40 41  1  0  0  0  0
 40 42  1  0  0  0  0
 40 43  1  0  0  0  0
 43 44  1  0  0  0  0
 43 45  1  0  0  0  0
 46 47  1  0  0  0  0
 47 48  2  0  0  0  0
 47 50  1  0  0  0  0
 48 49  1  0  0  0  0
 50 51  1  0  0  0  0
 50 83  1  0  0  0  0
 51 52  1  0  0  0  0
 51 53  1  0  0  0  0
 51 54  1  0  0  0  0
 54 55  1  0  0  0  0
 54 61  2  0  0  0  0
 55 56  2  0  0  0  0
 55 83  1  0  0  0  0
 56 57  1  0  0  0  0
 56 58  1  0  0  0  0
 58 59  2  0  0  0  0
 58 66  1  0  0  0  0
 59 60  1  0  0  0  0
 59 61  1  0  0  0  0
 61 62  1  0  0  0  0
 62 63  1  0  0  0  0
 62 64  1  0  0  0  0
 62 65  1  0  0  0  0
 66 67  1  0  0  0  0
 66 68  1  0  0  0  0
 66 80  1  0  0  0  0
 68 69  1  0  0  0  0
 68 70  1  0  0  0  0
 68 71  1  0  0  0  0
 71 72  1  0  0  0  0
 71 73  1  0  0  0  0
 71 74  1  0  0  0  0
 74 75  1  0  0  0  0
 74 76  1  0  0  0  0
 74 77  1  0  0  0  0
 77 78  1  0  0  0  0
 77 79  1  0  0  0  0
 77 80  1  0  0  0  0
 80 81  1  0  0  0  0
 80 82  1  0  0  0  0
 83 84  2  0  0  0  0
M  END
>  <receptor>
S(=O)(=O)([O-])[O-].S(CCC(NC(=O)C(NC(=O)C(NC(=O)CNC(=O)C(NC(=O)C1N(C(=O)C(NC(=O)C(NC(=O)C(NC(=O)C(NC(=O)C(NC(=O)C(NC(=O)C(NC(=O)C(NC(=O)C(NC(=O)C(NC(=O)C(NC(=O)C(NC(=O)C(NC(=O)C(NC(=O)C(NC(=O)C(NC(=O)C(NC(=O)C(NC(=O)C(NC(=O)CNC(=O)C(NC(=O)C(NC(=O)C(NC(=O)C(NC(=O)C(NC(=O)C(NC(=O)C(NC(=O)C(NC(=O)C(NC(=O)C(NC(=O)C(NC(=O)C(NC(=O)C(NC(=O)C)CCCC[NH3+])C(C)C)C(O)C)CCC(=O)N)CCC(=O)[O-])CCC(=O)N)Cc2ccccc2)CCC(=O)[O-])CC(C)C)Cc2ccc(O)cc2)CS)CCC(=O)[O-])CCSC)CO)C(O)C)Cc2ccccc2)CCC(=O)N)CC(C)C)C[S-])CCCC[NH3+])C(CC)C)C[S-])C)CCC(=O)[O-])CC(=O)N)CC(=O)[O-])CCCC[NH3+])CC(=O)[O-])C(C)C)CCCC[NH3+])C(CC)C)CCC(=O)[O-])CCC1)C[S-])Cc1nc[n-]c1)CC(C)C)C(=O)NC(C(=O)NC(C(=O)NC(C(=O)NC(C(=O)NC(C(=O)NC(C(=O)NC(C(=O)NC(C(=O)NC(C(=O)NC(C(=O)NC(C(=O)NC(C(=O)NCC(=O)NC(C(=O)NCC(=O)NC(C(=O)N1C(C(=O)NC(C(=O)NC(C(=O)NC(C(=O)NC(C(=O)NC(C(=O)NC(C(=O)NC(C(=O)NCC(=O)NC(C(=O)NC(C(=O)N2C(C(=O)NC(C(=O)NC(C(=O)NC(C(=O)NC(C(=O)N3C(C(=O)NC(C(=O)NC(C(=O)[O-])CC(=O)[O-])Cc4ccccc4)CCC3)CC(=O)[O-])C(C)C)C(CC)C)C(CC)C)CCC2)CCC(=O)[O-])C(O)C)CCCC[NH3+])C(CC)C)CCC(=O)[O-])CS)CCCNC(=[NH2+])N)C[S-])Cc2ccccc2)CCC1)C[S-])CCC(=O)N)CC(=O)[O-])CO)CCC(=O)[O-])CCC(=O)N)Cc1c2c([nH]c1)cccc2)C)C(O)C)CC(C)C)C[S-])CO)C(O)C)C[S-])C.S(CCC(NC(=O)C(NC(=O)C(NC(=O)C(NC(=O)C(NC(=O)C(NC(=O)C(NC(=O)C(NC(=O)C(NC(=O)C(NC(=O)C(NC(=O)C(NC(=O)C(NC(=O)C(NC(=O)C(NC(=O)C(NC(=O)C[NH3+])CCC(=O)N)C)C)C)CC(=O)[O-])CCCNC(=[NH2+])N)CCCNC(=[NH2+])N)C(O)C)C(C)C)CCC(=O)[O-])CCCC[NH3+])C(O)C)Cc1c2c([nH]c1)cccc2)C)CC(C)C)C(=O)NC(C(=O)NC(C(=O)NC(C(=O)NC(C(=O)NC(C(=O)NC(C(=O)NC(C(=O)NC(C(=O)NC(C(=O)N1C(C(=O)NC(C(=O)NC(C(=O)NC(C(=O)NC(C(=O)NC(C(=O)NC(C(=O)NC(C(=O)N2C(C(=O)N3C(C(=O)NC(C(=O)NC(C(=O)NC(C(=O)NC(C(=O)NC(C(=O)NC(C(=O)N4C(C(=O)NC(C(=O)NC(C(=O)NC(C(=O)NC(C(=O)NC(C(=O)NC(C(=O)NC(C(=O)NC(C(=O)NC(C(=O)NC(C(=O)NC(C(=O)NC(C(=O)NC(C(=O)NC(C(=O)NC(C(=O)NC(C(=O)NC(C(=O)NC(C(=O)NC(C(=O)NC(C(=O)NC(C(=O)NC(C(=O)NC(C(=O)NC(C(=O)NC(C(=O)NC(C(=O)NC(C(=O)NC(C(=O)NC(C(=O)NC(C(=O)NC(C(=O)NC(C(=O)NC(C(=O)NC(C(=O)NC(C(=O)NC(C(=O)NC(C(=O)NC(C(=O)NC(C(=O)NC(C(=O)NC(C(=O)NC(C(=O)NC(C(=O)NC(C(=O)NC(C(=O)NC(C(=O)NC(C(=O)NC(C(=O)NCC(=O)NC(C(=O)NC(C(=O)NC(C(=O)NC(C(=O)NC(C(=O)NC(C(=O)NC(C(=O)NC(C(=O)NC(C(=O)NC(C(=O)NC(C(=O)NC(C(=O)NC(C(=O)NC(C(=O)NC(C(=O)NC(C(=O)NC(C(=O)NC(C(=O)NC(C(=O)NC(C(=O)NC(C(=O)NC(C(=O)NC(C(=O)NC(C(=O)NC(C(=O)NC(C(=O)NC(C(=O)NC(C(=O)NC(C(=O)NC(C(=O)NC(C(=O)NC(C(=O)NC(C(=O)N5C(C(=O)NC(C(=O)NCC(=O)NC(C(=O)NC(C(=O)NC(C(=O)NCC(=O)NC(C(=O)NC(C(=O)NC(C(=O)NC(C(=O)NC(C(=O)NC(C(=O)NC(C(=O)NC(C(=O)NC(C(=O)NC(C(=O)NC(C(=O)NC(C(=O)NC(C(=O)NC(C(=O)NC(C(=O)NC(C(=O)NC(C(=O)NC(C(=O)NCC(=O)NC(C(=O)NC(C(=O)NC(C(=O)NC(C(=O)NC(C(=O)N6C(C(=O)NC(C(=O)NC(C(=O)NC(C(=O)NC(C(=O)NC(C(=O)NC(C(=O)NC(C(=O)NC(C(=O)NC(C(=O)NC(C(=O)NC(C(=O)NC(C(=O)NC(C(=O)NC(C(=O)NC(C(=O)NC(C(=O)NCC(=O)NC(C(=O)NC(C(=O)NC(C(=O)NC(C(=O)NC(C(=O)NC(C(=O)NC(C(=O)NC(C(=O)NC(C(=O)NC(C(=O)NC(C(=O)NC(C(=O)NC(C(=O)NC(C(=O)NC(C(=O)NC(C(=O)NC(C(=O)NC(C(=O)NC(C(=O)NC(C(=O)NC(C(=O)NC(C(=O)NC(C(=O)NC(C(=O)NC(C(=O)NC(C(=O)NC(C(=O)NC(C(=O)NC(C(=O)NC(C(=O)NC(C(=O)N7C(C(=O)NC(C(=O)NCC(=O)NC(C(=O)NC(C(=O)NC(C(=O)NC(C(=O)NC(C(=O)NC(C(=O)NC(C(=O)NC(C(=O)NC(C(=O)NC(C(=O)NC(C(=O)NC(C(=O)NC(C(=O)N8C(C(=O)NCC(=O)NC(C(=O)NC(C(=O)NC(C(=O)NC(C(=O)NC(C(=O)NC(C(=O)NC(C(=O)NC(C(=O)NC(C(=O)NC(C(=O)NC(C(=O)NC(C(=O)NC(C(=O)NC(C(=O)NC(C(=O)NC(C(=O)NC(C(=O)NC(C(=O)NC(C(=O)NC(C(=O)N9C(C(=O)NCC(=O)NC(C(=O)NC(C(=O)NC(C(=O)NC(C(=O)NC(C(=O)NC(C(=O)NC(C(=O)NC(C(=O)NC(C(=O)NC(C(=O)NC(C(=O)NCC(=O)NC(C(=O)NC(C(=O)NC(C(=O)NC(C(=O)NCC(=O)NC(C(=O)NC(C(=O)NC(C(=O)NCC(=O)NC(C(=O)NCC(=O)NC(C(=O)NC(C(=O)NC(C(=O)NC(C(=O)NC(C(=O)NC(C(=O)N%10C(C(=O)NC(C(=O)NC(C(=O)NC(C(=O)N%11C(C(=O)NC(C(=O)NC(C(=O)NC(C(=O)NC(C(=O)NC(C(=O)NC(C(=O)NC(C(=O)NCC(=O)NC(C(=O)NC(C(=O)NC(C(=O)NCC(=O)NC(C(=O)NC(C(=O)NC(C(=O)NC(C(=O)N%12C(C(=O)NC(C(=O)NCC(=O)NC(C(=O)NC(C(=O)NC(C(=O)NC(C(=O)NC)CC(=O)N)Cc%13ccc(O)cc%13)CO)CCCNC(=[NH2+])N)CC(=O)[O-])CCC%12)Cc%12ccc(O)cc%12)CC(C)C)Cc%12ccc(O)cc%12)Cc%12ccccc%12)CCC(=O)[O-])C)CO)CC(=O)[O-])C(CC)C)CC(C)C)C)CCC(=O)N)Cc%12ccccc%12)CC(C)C)CCC%11)CCCC[NH3+])CC(=O)N)Cc%11[nH]cnc%11)CCC%10)C(CC)C)C(O)C)CCC(=O)N)CC(C)C)C(CC)C)CC(=O)N)CC(=O)[O-])C(O)C)C(C)C)Cc%10ccc(O)cc%10)C(CC)C)C)Cc%10c%11c([nH]c%10)cccc%11)CCC(=O)N)CC(C)C)CCCNC(=[NH2+])N)C(O)C)CS)CO)CC(C)C)CCCNC(=[NH2+])N)Cc%10ccccc%10)C(CC)C)Cc%10ccc(O)cc%10)CO)CCC9)CCCC[NH3+])C(O)C)CO)Cc9ccc(O)cc9)CCCC[NH3+])CCC(=O)N)CC(C)C)CCCNC(=[NH2+])N)C)CCCC[NH3+])C(C)C)CCC(=O)[O-])CC(=O)[O-])Cc9ccc(O)cc9)C(O)C)CC(C)C)Cc9ccccc9)C)CCSC)Cc9ccc(O)cc9)CCC8)Cc8nc[nH]c8)C(O)C)C(C)C)C)CC(C)C)Cc8ccccc8)CC(=O)N)Cc8c9c([nH]c8)cccc9)CC(=O)N)CCCNC(=[NH2+])N)CC(C)C)C(CC)C)CO)Cc8c9c([nH]c8)cccc9)CCC7)CCC(=O)N)Cc7ccccc7)CC(C)C)CCCNC(=[NH2+])N)C(O)C)Cc7ccccc7)C(CC)C)CC(=O)[O-])Cc7ccccc7)CCC(=O)[O-])Cc7ccccc7)C(C)C)CO)C(CC)C)Cc7ccc(O)cc7)CC(=O)[O-])CC(=O)N)CS)C(O)C)CC(C)C)CC(=O)[O-])C(CC)C)C(O)C)CO)CCCC[NH3+])CC(C)C)C)CCSC)C)CCC(=O)[O-])CC(C)C)CO)CO)C(CC)C)CCC(=O)N)Cc7nc[nH]c7)C(C)C)CCC(=O)[O-])Cc7nc[nH]c7)CC(C)C)CS)CCC(=O)N)CCCNC(=[NH2+])N)Cc7ccccc7)C(C)C)CCCC[NH3+])Cc7c8c([nH]c7)cccc8)CCC6)C(C)C)C(CC)C)C(O)C)CCCC[NH3+])CC(=O)[O-])Cc6ccccc6)Cc6ccccc6)CCCC[NH3+])CCCNC(=[NH2+])N)Cc6c7c([nH]c6)cccc7)Cc6ccccc6)CCC(=O)[O-])C)C)CC(=O)[O-])C)CCCC[NH3+])C(O)C)C(CC)C)CCCNC(=[NH2+])N)Cc6ccccc6)CC(=O)N)CC(=O)[O-])CCC(=O)N)Cc6ccccc6)CCC(=O)N)CC(=O)N)CCC5)Cc5ccccc5)C(CC)C)C)CCCC[NH3+])C(CC)C)CCC(=O)[O-])C)CC(C)C)CCSC)Cc5nc[nH]c5)CO)Cc5ccccc5)C(CC)C)CC(C)C)CO)CC(C)C)CCCC[NH3+])C(O)C)CC(C)C)CC(=O)N)CCCNC(=[NH2+])N)CCCNC(=[NH2+])N)CC(=O)[O-])CCC(=O)N)CO)CCC(=O)N)CCC(=O)[O-])CCC(=O)[O-])Cc5ccc(O)cc5)CCSC)CCCNC(=[NH2+])N)CCC(=O)[O-])CCCC[NH3+])CCC(=O)[O-])CCCC[NH3+])Cc5ccccc5)CC(C)C)CCCNC(=[NH2+])N)C(CC)C)C)CCCNC(=[NH2+])N)CCCC[NH3+])CO)CCCC[NH3+])CCCC[NH3+])CCSC)CC(C)C)CO)CC(=O)[O-])C(CC)C)Cc5ccc(O)cc5)C(CC)C)CCCC[NH3+])Cc5ccccc5)Cc5ccc(O)cc5)CCC(=O)[O-])CC(=O)N)CCC(=O)[O-])CO)CC(C)C)CCC(=O)N)C)CC(C)C)CCCC[NH3+])CCC(=O)N)CC(=O)N)CC(=O)[O-])CC(=O)[O-])Cc5ccc(O)cc5)CCCC[NH3+])CO)CC(C)C)C(CC)C)CC(C)C)CCCNC(=[NH2+])N)CC(C)C)Cc5nc[nH]c5)CCC(=O)N)Cc5ccc(O)cc5)C(O)C)CC(=O)[O-])CCC4)CC(C)C)C(CC)C)CC(=O)[O-])CC(C)C)C(CC)C)Cc4ccc(O)cc4)CCC3)CCC2)CO)CC(=O)N)CCCC[NH3+])CC(C)C)CCC(=O)N)CC(C)C)CCCC[NH3+])CCC1)CC(=O)N)CCC(=O)N)CS)CC(C)C)CCCNC(=[NH2+])N)C(C)C)C(C)C)C)CC(=O)[O-])C.OCCO.[UH+3].[Zn+2].[Zn+2].O.O.O.O.O.O.O.O.O.O.O.O.O.O.O.O.O.O.O.O.O.O.O.O.O.O.O.O.O.O.O.O.O.O.O.O.O.O.O.O.O.O.O.O.O.O.O.O.O.O.O.O.O.O.O.O.O.O.O.O.O.O.O.O.O.O.O.O.O.O.O.O.O.O.O.O.O.O.O.O.O.O.O.O.O.O.O.O.O.O.O.O.O.O.O.O.O.O.O.O.O.O.O.O.O.O.O.O.O.O.O.O.O.O.O.O.O.O.O.O.O.O.O.O.O.O.O.O.O.O.O.O.O.O.O.O.O.O.O.O.O.O

>  <rseq>
1

>  <mseq>
49

>  <S>
-9.2555666

>  <rmsd_refine>
1.9369977

>  <E_conf>
-123.23438

>  <E_place>
-88.335449

>  <E_score1>
-10.971822

>  <E_refine>
-45.899242

>  <E_score2>
-9.2555666

>  <Field_2>
MR09

>  <pseq>
49

>  <%C>
99.908043

>  <a_heavy>
45

>  <h_logP>
6.788198

>  <Weight>
623.724

>  <E_orig>
3.0027776

>  <PLIF_raw>
[10,1774,141,2,1.7]

>  <FP:PLIF>
18 19

>  <PLIF_ligidx>
[10,10]

$$$$

  MOE2020           3D

 58 62  0  0  1  0  0  0  0  0999 V2000
   -2.3720   12.9200   20.2450 C   0  0  0  0  0  0  0  0  0  0  0  0
   -2.8650   13.6500   19.6030 H   0  0  0  0  0  0  0  0  0  0  0  0
   -3.1200   12.4520   20.8850 H   0  0  0  0  0  0  0  0  0  0  0  0
   -1.6470   13.4530   20.8610 H   0  0  0  0  0  0  0  0  0  0  0  0
   -1.6510   11.8680   19.3820 C   0  0  2  0  0  0  0  0  0  0  0  0
   -2.5630   10.9840   18.4970 C   0  0  0  0  0  0  0  0  0  0  0  0
   -1.9630   10.6290   17.6610 H   0  0  0  0  0  0  0  0  0  0  0  0
   -2.8390   10.0870   19.0360 H   0  0  0  0  0  0  0  0  0  0  0  0
   -3.8540   11.5930   17.9900 C   0  0  0  0  0  0  0  0  0  0  0  0
   -4.8690   12.0030   18.6840 N   0  0  0  0  0  0  0  0  0  0  0  0
   -5.8110   12.4760   17.8050 N   0  0  0  0  0  0  0  0  0  0  0  0
   -5.3240   12.3170   16.6210 C   0  0  0  0  0  0  0  0  0  0  0  0
   -5.7660   12.5690   15.6940 H   0  0  0  0  0  0  0  0  0  0  0  0
   -4.1220   11.7510   16.6950 N   0  0  0  0  0  0  0  0  0  0  0  0
   -3.2920   11.3340   15.5690 C   0  0  0  0  0  0  0  0  0  0  0  0
   -3.5970   11.7920   14.6450 H   0  0  0  0  0  0  0  0  0  0  0  0
   -3.3250   10.2640   15.4220 H   0  0  0  0  0  0  0  0  0  0  0  0
   -2.2580   11.6160   15.7090 H   0  0  0  0  0  0  0  0  0  0  0  0
   -0.7380   10.9430   20.1860 C   0  0  0  0  0  0  0  0  0  0  0  0
   -0.8250   10.7930   21.5740 C   0  0  0  0  0  0  0  0  0  0  0  0
   -1.5150   11.3630   22.1410 H   0  0  0  0  0  0  0  0  0  0  0  0
   -0.0160    9.8740   22.2320 C   0  0  0  0  0  0  0  0  0  0  0  0
   -0.0870    9.7680   23.2840 H   0  0  0  0  0  0  0  0  0  0  0  0
    0.8770    9.0900   21.5140 C   0  0  0  0  0  0  0  0  0  0  0  0
    1.4890    8.3970   22.0310 H   0  0  0  0  0  0  0  0  0  0  0  0
    0.9740    9.2140   20.1210 C   0  0  0  0  0  0  0  0  0  0  0  0
    0.1730   10.1670   19.4800 C   0  0  0  0  0  0  0  0  0  0  0  0
    0.2390   10.2820   18.4290 H   0  0  0  0  0  0  0  0  0  0  0  0
    1.8670    8.3730   19.3500 C   0  0  0  0  0  0  0  0  0  0  0  0
    2.4050    7.1430   19.5510 C   0  0  0  0  0  0  0  0  0  0  0  0
    3.2870    6.8350   18.5210 C   0  0  0  0  0  0  0  0  0  0  0  0
    4.0480    5.6240   18.5820 C   0  0  0  0  0  0  0  0  0  0  0  0
    3.7660    4.7380   19.6440 C   0  0  0  0  0  0  0  0  0  0  0  0
    4.2930    3.8270   19.7470 H   0  0  0  0  0  0  0  0  0  0  0  0
    2.8180    5.0630   20.6030 C   0  0  0  0  0  0  0  0  0  0  0  0
    2.5700    4.4520   21.4300 H   0  0  0  0  0  0  0  0  0  0  0  0
    2.1530    6.2260   20.5620 N   0  0  0  0  0  0  0  0  0  0  0  0
    1.4580    6.4350   21.3000 H   0  0  0  0  0  0  0  0  0  0  0  0
    5.0370    5.3240   17.6810 N   0  0  0  0  0  0  0  0  0  0  0  0
    5.5070    3.9470   17.4020 C   0  0  0  0  0  0  0  0  0  0  0  0
    4.9920    3.2000   17.9810 H   0  0  0  0  0  0  0  0  0  0  0  0
    6.5490    3.8590   17.6830 H   0  0  0  0  0  0  0  0  0  0  0  0
    5.3460    3.5680   15.9220 C   0  0  0  0  0  0  0  0  0  0  0  0
    5.8430    2.6210   15.7320 H   0  0  0  0  0  0  0  0  0  0  0  0
    4.2820    3.4550   15.7210 H   0  0  0  0  0  0  0  0  0  0  0  0
    5.9210    4.6330   14.9800 C   0  0  0  0  0  0  0  0  0  0  0  0
    7.0020    4.5890   14.9900 H   0  0  0  0  0  0  0  0  0  0  0  0
    5.4530    6.0460   15.3520 C   0  0  0  0  0  0  0  0  0  0  0  0
    4.3820    6.1300   15.1780 H   0  0  0  0  0  0  0  0  0  0  0  0
    5.9580    6.7780   14.7310 H   0  0  0  0  0  0  0  0  0  0  0  0
    5.7380    6.3020   16.8360 C   0  0  0  0  0  0  0  0  0  0  0  0
    5.5350    7.3230   17.1110 H   0  0  0  0  0  0  0  0  0  0  0  0
    6.8040    6.2110   17.0020 H   0  0  0  0  0  0  0  0  0  0  0  0
    5.5540    4.3490   13.7060 F   0  0  0  0  0  0  0  0  0  0  0  0
    3.2350    7.8170   17.6200 N   0  0  0  0  0  0  0  0  0  0  0  0
    2.3940    8.7220   18.1440 N   0  3  0  0  0  0  0  0  0  0  0  0
    2.1830    9.6150   17.6630 H   0  0  0  0  0  0  0  0  0  0  0  0
   -1.0000   12.4310   18.7100 H   0  0  0  0  0  0  0  0  0  0  0  0
  1  2  1  0  0  0  0
  1  3  1  0  0  0  0
  1  4  1  0  0  0  0
  1  5  1  0  0  0  0
  5  6  1  0  0  0  0
  5 19  1  0  0  0  0
  5 58  1  0  0  0  0
  6  7  1  0  0  0  0
  6  8  1  0  0  0  0
  6  9  1  0  0  0  0
  9 10  2  0  0  0  0
  9 14  1  0  0  0  0
 10 11  1  0  0  0  0
 11 12  2  0  0  0  0
 12 13  1  0  0  0  0
 12 14  1  0  0  0  0
 14 15  1  0  0  0  0
 15 16  1  0  0  0  0
 15 17  1  0  0  0  0
 15 18  1  0  0  0  0
 19 20  1  0  0  0  0
 19 27  2  0  0  0  0
 20 21  1  0  0  0  0
 20 22  2  0  0  0  0
 22 23  1  0  0  0  0
 22 24  1  0  0  0  0
 24 25  1  0  0  0  0
 24 26  2  0  0  0  0
 26 27  1  0  0  0  0
 26 29  1  0  0  0  0
 27 28  1  0  0  0  0
 29 30  2  0  0  0  0
 29 56  1  0  0  0  0
 30 31  1  0  0  0  0
 30 37  1  0  0  0  0
 31 32  2  0  0  0  0
 31 55  1  0  0  0  0
 32 33  1  0  0  0  0
 32 39  1  0  0  0  0
 33 34  1  0  0  0  0
 33 35  2  0  0  0  0
 35 36  1  0  0  0  0
 35 37  1  0  0  0  0
 37 38  1  0  0  0  0
 39 40  1  0  0  0  0
 39 51  1  0  0  0  0
 40 41  1  0  0  0  0
 40 42  1  0  0  0  0
 40 43  1  0  0  0  0
 43 44  1  0  0  0  0
 43 45  1  0  0  0  0
 43 46  1  0  0  0  0
 46 47  1  0  0  0  0
 46 48  1  0  0  0  0
 46 54  1  0  0  0  0
 48 49  1  0  0  0  0
 48 50  1  0  0  0  0
 48 51  1  0  0  0  0
 51 52  1  0  0  0  0
 51 53  1  0  0  0  0
 55 56  2  0  0  0  0
 56 57  1  0  0  0  0
M  CHG  1  56   1
M  END
>  <receptor>
S(=O)(=O)([O-])[O-].S(CCC(NC(=O)C(NC(=O)C(NC(=O)CNC(=O)C(NC(=O)C1N(C(=O)C(NC(=O)C(NC(=O)C(NC(=O)C(NC(=O)C(NC(=O)C(NC(=O)C(NC(=O)C(NC(=O)C(NC(=O)C(NC(=O)C(NC(=O)C(NC(=O)C(NC(=O)C(NC(=O)C(NC(=O)C(NC(=O)C(NC(=O)C(NC(=O)C(NC(=O)CNC(=O)C(NC(=O)C(NC(=O)C(NC(=O)C(NC(=O)C(NC(=O)C(NC(=O)C(NC(=O)C(NC(=O)C(NC(=O)C(NC(=O)C(NC(=O)C(NC(=O)C(NC(=O)C)CCCC[NH3+])C(C)C)C(O)C)CCC(=O)N)CCC(=O)[O-])CCC(=O)N)Cc2ccccc2)CCC(=O)[O-])CC(C)C)Cc2ccc(O)cc2)CS)CCC(=O)[O-])CCSC)CO)C(O)C)Cc2ccccc2)CCC(=O)N)CC(C)C)C[S-])CCCC[NH3+])C(CC)C)C[S-])C)CCC(=O)[O-])CC(=O)N)CC(=O)[O-])CCCC[NH3+])CC(=O)[O-])C(C)C)CCCC[NH3+])C(CC)C)CCC(=O)[O-])CCC1)C[S-])Cc1nc[n-]c1)CC(C)C)C(=O)NC(C(=O)NC(C(=O)NC(C(=O)NC(C(=O)NC(C(=O)NC(C(=O)NC(C(=O)NC(C(=O)NC(C(=O)NC(C(=O)NC(C(=O)NC(C(=O)NCC(=O)NC(C(=O)NCC(=O)NC(C(=O)N1C(C(=O)NC(C(=O)NC(C(=O)NC(C(=O)NC(C(=O)NC(C(=O)NC(C(=O)NC(C(=O)NCC(=O)NC(C(=O)NC(C(=O)N2C(C(=O)NC(C(=O)NC(C(=O)NC(C(=O)NC(C(=O)N3C(C(=O)NC(C(=O)NC(C(=O)[O-])CC(=O)[O-])Cc4ccccc4)CCC3)CC(=O)[O-])C(C)C)C(CC)C)C(CC)C)CCC2)CCC(=O)[O-])C(O)C)CCCC[NH3+])C(CC)C)CCC(=O)[O-])CS)CCCNC(=[NH2+])N)C[S-])Cc2ccccc2)CCC1)C[S-])CCC(=O)N)CC(=O)[O-])CO)CCC(=O)[O-])CCC(=O)N)Cc1c2c([nH]c1)cccc2)C)C(O)C)CC(C)C)C[S-])CO)C(O)C)C[S-])C.S(CCC(NC(=O)C(NC(=O)C(NC(=O)C(NC(=O)C(NC(=O)C(NC(=O)C(NC(=O)C(NC(=O)C(NC(=O)C(NC(=O)C(NC(=O)C(NC(=O)C(NC(=O)C(NC(=O)C(NC(=O)C(NC(=O)C[NH3+])CCC(=O)N)C)C)C)CC(=O)[O-])CCCNC(=[NH2+])N)CCCNC(=[NH2+])N)C(O)C)C(C)C)CCC(=O)[O-])CCCC[NH3+])C(O)C)Cc1c2c([nH]c1)cccc2)C)CC(C)C)C(=O)NC(C(=O)NC(C(=O)NC(C(=O)NC(C(=O)NC(C(=O)NC(C(=O)NC(C(=O)NC(C(=O)NC(C(=O)N1C(C(=O)NC(C(=O)NC(C(=O)NC(C(=O)NC(C(=O)NC(C(=O)NC(C(=O)NC(C(=O)N2C(C(=O)N3C(C(=O)NC(C(=O)NC(C(=O)NC(C(=O)NC(C(=O)NC(C(=O)NC(C(=O)N4C(C(=O)NC(C(=O)NC(C(=O)NC(C(=O)NC(C(=O)NC(C(=O)NC(C(=O)NC(C(=O)NC(C(=O)NC(C(=O)NC(C(=O)NC(C(=O)NC(C(=O)NC(C(=O)NC(C(=O)NC(C(=O)NC(C(=O)NC(C(=O)NC(C(=O)NC(C(=O)NC(C(=O)NC(C(=O)NC(C(=O)NC(C(=O)NC(C(=O)NC(C(=O)NC(C(=O)NC(C(=O)NC(C(=O)NC(C(=O)NC(C(=O)NC(C(=O)NC(C(=O)NC(C(=O)NC(C(=O)NC(C(=O)NC(C(=O)NC(C(=O)NC(C(=O)NC(C(=O)NC(C(=O)NC(C(=O)NC(C(=O)NC(C(=O)NC(C(=O)NC(C(=O)NC(C(=O)NC(C(=O)NC(C(=O)NCC(=O)NC(C(=O)NC(C(=O)NC(C(=O)NC(C(=O)NC(C(=O)NC(C(=O)NC(C(=O)NC(C(=O)NC(C(=O)NC(C(=O)NC(C(=O)NC(C(=O)NC(C(=O)NC(C(=O)NC(C(=O)NC(C(=O)NC(C(=O)NC(C(=O)NC(C(=O)NC(C(=O)NC(C(=O)NC(C(=O)NC(C(=O)NC(C(=O)NC(C(=O)NC(C(=O)NC(C(=O)NC(C(=O)NC(C(=O)NC(C(=O)NC(C(=O)NC(C(=O)NC(C(=O)N5C(C(=O)NC(C(=O)NCC(=O)NC(C(=O)NC(C(=O)NC(C(=O)NCC(=O)NC(C(=O)NC(C(=O)NC(C(=O)NC(C(=O)NC(C(=O)NC(C(=O)NC(C(=O)NC(C(=O)NC(C(=O)NC(C(=O)NC(C(=O)NC(C(=O)NC(C(=O)NC(C(=O)NC(C(=O)NC(C(=O)NC(C(=O)NC(C(=O)NCC(=O)NC(C(=O)NC(C(=O)NC(C(=O)NC(C(=O)NC(C(=O)N6C(C(=O)NC(C(=O)NC(C(=O)NC(C(=O)NC(C(=O)NC(C(=O)NC(C(=O)NC(C(=O)NC(C(=O)NC(C(=O)NC(C(=O)NC(C(=O)NC(C(=O)NC(C(=O)NC(C(=O)NC(C(=O)NC(C(=O)NCC(=O)NC(C(=O)NC(C(=O)NC(C(=O)NC(C(=O)NC(C(=O)NC(C(=O)NC(C(=O)NC(C(=O)NC(C(=O)NC(C(=O)NC(C(=O)NC(C(=O)NC(C(=O)NC(C(=O)NC(C(=O)NC(C(=O)NC(C(=O)NC(C(=O)NC(C(=O)NC(C(=O)NC(C(=O)NC(C(=O)NC(C(=O)NC(C(=O)NC(C(=O)NC(C(=O)NC(C(=O)NC(C(=O)NC(C(=O)NC(C(=O)NC(C(=O)N7C(C(=O)NC(C(=O)NCC(=O)NC(C(=O)NC(C(=O)NC(C(=O)NC(C(=O)NC(C(=O)NC(C(=O)NC(C(=O)NC(C(=O)NC(C(=O)NC(C(=O)NC(C(=O)NC(C(=O)NC(C(=O)N8C(C(=O)NCC(=O)NC(C(=O)NC(C(=O)NC(C(=O)NC(C(=O)NC(C(=O)NC(C(=O)NC(C(=O)NC(C(=O)NC(C(=O)NC(C(=O)NC(C(=O)NC(C(=O)NC(C(=O)NC(C(=O)NC(C(=O)NC(C(=O)NC(C(=O)NC(C(=O)NC(C(=O)NC(C(=O)N9C(C(=O)NCC(=O)NC(C(=O)NC(C(=O)NC(C(=O)NC(C(=O)NC(C(=O)NC(C(=O)NC(C(=O)NC(C(=O)NC(C(=O)NC(C(=O)NC(C(=O)NCC(=O)NC(C(=O)NC(C(=O)NC(C(=O)NC(C(=O)NCC(=O)NC(C(=O)NC(C(=O)NC(C(=O)NCC(=O)NC(C(=O)NCC(=O)NC(C(=O)NC(C(=O)NC(C(=O)NC(C(=O)NC(C(=O)NC(C(=O)N%10C(C(=O)NC(C(=O)NC(C(=O)NC(C(=O)N%11C(C(=O)NC(C(=O)NC(C(=O)NC(C(=O)NC(C(=O)NC(C(=O)NC(C(=O)NC(C(=O)NCC(=O)NC(C(=O)NC(C(=O)NC(C(=O)NCC(=O)NC(C(=O)NC(C(=O)NC(C(=O)NC(C(=O)N%12C(C(=O)NC(C(=O)NCC(=O)NC(C(=O)NC(C(=O)NC(C(=O)NC(C(=O)NC)CC(=O)N)Cc%13ccc(O)cc%13)CO)CCCNC(=[NH2+])N)CC(=O)[O-])CCC%12)Cc%12ccc(O)cc%12)CC(C)C)Cc%12ccc(O)cc%12)Cc%12ccccc%12)CCC(=O)[O-])C)CO)CC(=O)[O-])C(CC)C)CC(C)C)C)CCC(=O)N)Cc%12ccccc%12)CC(C)C)CCC%11)CCCC[NH3+])CC(=O)N)Cc%11[nH]cnc%11)CCC%10)C(CC)C)C(O)C)CCC(=O)N)CC(C)C)C(CC)C)CC(=O)N)CC(=O)[O-])C(O)C)C(C)C)Cc%10ccc(O)cc%10)C(CC)C)C)Cc%10c%11c([nH]c%10)cccc%11)CCC(=O)N)CC(C)C)CCCNC(=[NH2+])N)C(O)C)CS)CO)CC(C)C)CCCNC(=[NH2+])N)Cc%10ccccc%10)C(CC)C)Cc%10ccc(O)cc%10)CO)CCC9)CCCC[NH3+])C(O)C)CO)Cc9ccc(O)cc9)CCCC[NH3+])CCC(=O)N)CC(C)C)CCCNC(=[NH2+])N)C)CCCC[NH3+])C(C)C)CCC(=O)[O-])CC(=O)[O-])Cc9ccc(O)cc9)C(O)C)CC(C)C)Cc9ccccc9)C)CCSC)Cc9ccc(O)cc9)CCC8)Cc8nc[nH]c8)C(O)C)C(C)C)C)CC(C)C)Cc8ccccc8)CC(=O)N)Cc8c9c([nH]c8)cccc9)CC(=O)N)CCCNC(=[NH2+])N)CC(C)C)C(CC)C)CO)Cc8c9c([nH]c8)cccc9)CCC7)CCC(=O)N)Cc7ccccc7)CC(C)C)CCCNC(=[NH2+])N)C(O)C)Cc7ccccc7)C(CC)C)CC(=O)[O-])Cc7ccccc7)CCC(=O)[O-])Cc7ccccc7)C(C)C)CO)C(CC)C)Cc7ccc(O)cc7)CC(=O)[O-])CC(=O)N)CS)C(O)C)CC(C)C)CC(=O)[O-])C(CC)C)C(O)C)CO)CCCC[NH3+])CC(C)C)C)CCSC)C)CCC(=O)[O-])CC(C)C)CO)CO)C(CC)C)CCC(=O)N)Cc7nc[nH]c7)C(C)C)CCC(=O)[O-])Cc7nc[nH]c7)CC(C)C)CS)CCC(=O)N)CCCNC(=[NH2+])N)Cc7ccccc7)C(C)C)CCCC[NH3+])Cc7c8c([nH]c7)cccc8)CCC6)C(C)C)C(CC)C)C(O)C)CCCC[NH3+])CC(=O)[O-])Cc6ccccc6)Cc6ccccc6)CCCC[NH3+])CCCNC(=[NH2+])N)Cc6c7c([nH]c6)cccc7)Cc6ccccc6)CCC(=O)[O-])C)C)CC(=O)[O-])C)CCCC[NH3+])C(O)C)C(CC)C)CCCNC(=[NH2+])N)Cc6ccccc6)CC(=O)N)CC(=O)[O-])CCC(=O)N)Cc6ccccc6)CCC(=O)N)CC(=O)N)CCC5)Cc5ccccc5)C(CC)C)C)CCCC[NH3+])C(CC)C)CCC(=O)[O-])C)CC(C)C)CCSC)Cc5nc[nH]c5)CO)Cc5ccccc5)C(CC)C)CC(C)C)CO)CC(C)C)CCCC[NH3+])C(O)C)CC(C)C)CC(=O)N)CCCNC(=[NH2+])N)CCCNC(=[NH2+])N)CC(=O)[O-])CCC(=O)N)CO)CCC(=O)N)CCC(=O)[O-])CCC(=O)[O-])Cc5ccc(O)cc5)CCSC)CCCNC(=[NH2+])N)CCC(=O)[O-])CCCC[NH3+])CCC(=O)[O-])CCCC[NH3+])Cc5ccccc5)CC(C)C)CCCNC(=[NH2+])N)C(CC)C)C)CCCNC(=[NH2+])N)CCCC[NH3+])CO)CCCC[NH3+])CCCC[NH3+])CCSC)CC(C)C)CO)CC(=O)[O-])C(CC)C)Cc5ccc(O)cc5)C(CC)C)CCCC[NH3+])Cc5ccccc5)Cc5ccc(O)cc5)CCC(=O)[O-])CC(=O)N)CCC(=O)[O-])CO)CC(C)C)CCC(=O)N)C)CC(C)C)CCCC[NH3+])CCC(=O)N)CC(=O)N)CC(=O)[O-])CC(=O)[O-])Cc5ccc(O)cc5)CCCC[NH3+])CO)CC(C)C)C(CC)C)CC(C)C)CCCNC(=[NH2+])N)CC(C)C)Cc5nc[nH]c5)CCC(=O)N)Cc5ccc(O)cc5)C(O)C)CC(=O)[O-])CCC4)CC(C)C)C(CC)C)CC(=O)[O-])CC(C)C)C(CC)C)Cc4ccc(O)cc4)CCC3)CCC2)CO)CC(=O)N)CCCC[NH3+])CC(C)C)CCC(=O)N)CC(C)C)CCCC[NH3+])CCC1)CC(=O)N)CCC(=O)N)CS)CC(C)C)CCCNC(=[NH2+])N)C(C)C)C(C)C)C)CC(=O)[O-])C.OCCO.[UH+3].[Zn+2].[Zn+2].O.O.O.O.O.O.O.O.O.O.O.O.O.O.O.O.O.O.O.O.O.O.O.O.O.O.O.O.O.O.O.O.O.O.O.O.O.O.O.O.O.O.O.O.O.O.O.O.O.O.O.O.O.O.O.O.O.O.O.O.O.O.O.O.O.O.O.O.O.O.O.O.O.O.O.O.O.O.O.O.O.O.O.O.O.O.O.O.O.O.O.O.O.O.O.O.O.O.O.O.O.O.O.O.O.O.O.O.O.O.O.O.O.O.O.O.O.O.O.O.O.O.O.O.O.O.O.O.O.O.O.O.O.O.O.O.O.O.O.O.O.O

>  <rseq>
1

>  <mseq>
50

>  <S>
-8.0305042

>  <rmsd_refine>
1.6909742

>  <E_conf>
-54.617096

>  <E_place>
-73.033157

>  <E_score1>
-11.849107

>  <E_refine>
-38.941475

>  <E_score2>
-8.0305042

>  <Field_2>
MR10

>  <pseq>
50

>  <%C>
79.710274

>  <a_heavy>
31

>  <h_logP>
1.6889936

>  <Weight>
420.51599

>  <E_orig>
0

>  <PLIF_raw>
[[],[],[],[],[]]

>  <PLIF_ligidx>
[]

$$$$

  MOE2020           3D

 43 46  0  0  0  0  0  0  0  0999 V2000
    6.6210    4.2350   16.3760 C   0  0  0  0  0  0  0  0  0  0  0  0
    6.1980    3.3720   15.8810 H   0  0  0  0  0  0  0  0  0  0  0  0
    7.0150    4.8900   15.6120 H   0  0  0  0  0  0  0  0  0  0  0  0
    7.4550    3.9040   16.9810 H   0  0  0  0  0  0  0  0  0  0  0  0
    5.5850    4.9250   17.2250 C   0  0  0  0  0  0  0  0  0  0  0  0
    5.1620    6.2120   17.0570 C   0  0  0  0  0  0  0  0  0  0  0  0
    5.5600    6.8120   16.2790 H   0  0  0  0  0  0  0  0  0  0  0  0
    4.1890    6.7610   17.9230 C   0  0  0  0  0  0  0  0  0  0  0  0
    3.8900    7.7620   17.7580 H   0  0  0  0  0  0  0  0  0  0  0  0
    3.6490    6.0170   18.9520 C   0  0  0  0  0  0  0  0  0  0  0  0
    2.6680    6.5940   19.8690 C   0  0  0  0  0  0  0  0  0  0  0  0
    2.0290    5.9600   20.7010 O   0  0  0  0  0  0  0  0  0  0  0  0
    2.4360    7.9560   19.7770 N   0  0  0  0  0  0  0  0  0  0  0  0
    2.9080    8.4590   19.0140 H   0  0  0  0  0  0  0  0  0  0  0  0
    1.4660    8.6790   20.4680 C   0  0  0  0  0  0  0  0  0  0  0  0
    1.3400    8.6590   21.8580 C   0  0  0  0  0  0  0  0  0  0  0  0
    2.0020    8.0870   22.4480 H   0  0  0  0  0  0  0  0  0  0  0  0
    0.3320    9.4090   22.4390 C   0  0  0  0  0  0  0  0  0  0  0  0
    0.2020    9.4240   23.4910 H   0  0  0  0  0  0  0  0  0  0  0  0
   -0.5170   10.1290   21.6080 C   0  0  0  0  0  0  0  0  0  0  0  0
   -1.3110   10.6870   22.0320 H   0  0  0  0  0  0  0  0  0  0  0  0
   -0.3420   10.0860   20.2150 C   0  0  0  0  0  0  0  0  0  0  0  0
   -1.2900   10.6960   19.2850 C   0  0  0  0  0  0  0  0  0  0  0  0
   -2.0830   11.8080   19.6380 C   0  0  0  0  0  0  0  0  0  0  0  0
   -1.9310   12.2970   20.5640 H   0  0  0  0  0  0  0  0  0  0  0  0
   -3.0900   12.2630   18.7900 C   0  0  0  0  0  0  0  0  0  0  0  0
   -3.7010   13.0860   19.0580 H   0  0  0  0  0  0  0  0  0  0  0  0
   -3.2780   11.6120   17.5770 C   0  0  0  0  0  0  0  0  0  0  0  0
   -2.4670   10.5710   17.1830 C   0  0  0  0  0  0  0  0  0  0  0  0
   -1.4680   10.1130   18.0160 C   0  0  0  0  0  0  0  0  0  0  0  0
   -0.8610    9.3090   17.6930 H   0  0  0  0  0  0  0  0  0  0  0  0
   -2.8550   10.0800   15.8340 C   0  0  0  0  0  0  0  0  0  0  0  0
   -3.2660    9.0750   15.9000 H   0  0  0  0  0  0  0  0  0  0  0  0
   -2.0250   10.1380   15.1330 H   0  0  0  0  0  0  0  0  0  0  0  0
   -3.9440   11.0760   15.4680 C   0  0  0  0  0  0  0  0  0  0  0  0
   -3.5700   11.7300   14.6820 H   0  0  0  0  0  0  0  0  0  0  0  0
   -4.8370   10.5500   15.1390 H   0  0  0  0  0  0  0  0  0  0  0  0
   -4.2410   11.8970   16.6520 O   0  0  0  0  0  0  0  0  0  0  0  0
    0.6730    9.3900   19.6840 N   0  0  0  0  0  0  0  0  0  0  0  0
    4.0740    4.6380   19.0980 C   0  0  0  0  0  0  0  0  0  0  0  0
    3.6480    3.8140   19.9110 O   0  0  0  0  0  0  0  0  0  0  0  0
    5.0450    4.1650   18.2330 N   0  0  0  0  0  0  0  0  0  0  0  0
    5.3670    3.1900   18.3590 H   0  0  0  0  0  0  0  0  0  0  0  0
  1  2  1  0  0  0  0
  1  3  1  0  0  0  0
  1  4  1  0  0  0  0
  1  5  1  0  0  0  0
  5  6  2  0  0  0  0
  5 42  1  0  0  0  0
  6  7  1  0  0  0  0
  6  8  1  0  0  0  0
  8  9  1  0  0  0  0
  8 10  2  0  0  0  0
 10 11  1  0  0  0  0
 10 40  1  0  0  0  0
 11 12  2  0  0  0  0
 11 13  1  0  0  0  0
 13 14  1  0  0  0  0
 13 15  1  0  0  0  0
 15 16  1  0  0  0  0
 15 39  2  0  0  0  0
 16 17  1  0  0  0  0
 16 18  2  0  0  0  0
 18 19  1  0  0  0  0
 18 20  1  0  0  0  0
 20 21  1  0  0  0  0
 20 22  2  0  0  0  0
 22 23  1  0  0  0  0
 22 39  1  0  0  0  0
 23 24  1  0  0  0  0
 23 30  2  0  0  0  0
 24 25  1  0  0  0  0
 24 26  2  0  0  0  0
 26 27  1  0  0  0  0
 26 28  1  0  0  0  0
 28 29  2  0  0  0  0
 28 38  1  0  0  0  0
 29 30  1  0  0  0  0
 29 32  1  0  0  0  0
 30 31  1  0  0  0  0
 32 33  1  0  0  0  0
 32 34  1  0  0  0  0
 32 35  1  0  0  0  0
 35 36  1  0  0  0  0
 35 37  1  0  0  0  0
 35 38  1  0  0  0  0
 40 41  2  0  0  0  0
 40 42  1  0  0  0  0
 42 43  1  0  0  0  0
M  END
>  <receptor>
S(=O)(=O)([O-])[O-].S(CCC(NC(=O)C(NC(=O)C(NC(=O)CNC(=O)C(NC(=O)C1N(C(=O)C(NC(=O)C(NC(=O)C(NC(=O)C(NC(=O)C(NC(=O)C(NC(=O)C(NC(=O)C(NC(=O)C(NC(=O)C(NC(=O)C(NC(=O)C(NC(=O)C(NC(=O)C(NC(=O)C(NC(=O)C(NC(=O)C(NC(=O)C(NC(=O)C(NC(=O)CNC(=O)C(NC(=O)C(NC(=O)C(NC(=O)C(NC(=O)C(NC(=O)C(NC(=O)C(NC(=O)C(NC(=O)C(NC(=O)C(NC(=O)C(NC(=O)C(NC(=O)C(NC(=O)C)CCCC[NH3+])C(C)C)C(O)C)CCC(=O)N)CCC(=O)[O-])CCC(=O)N)Cc2ccccc2)CCC(=O)[O-])CC(C)C)Cc2ccc(O)cc2)CS)CCC(=O)[O-])CCSC)CO)C(O)C)Cc2ccccc2)CCC(=O)N)CC(C)C)C[S-])CCCC[NH3+])C(CC)C)C[S-])C)CCC(=O)[O-])CC(=O)N)CC(=O)[O-])CCCC[NH3+])CC(=O)[O-])C(C)C)CCCC[NH3+])C(CC)C)CCC(=O)[O-])CCC1)C[S-])Cc1nc[n-]c1)CC(C)C)C(=O)NC(C(=O)NC(C(=O)NC(C(=O)NC(C(=O)NC(C(=O)NC(C(=O)NC(C(=O)NC(C(=O)NC(C(=O)NC(C(=O)NC(C(=O)NC(C(=O)NCC(=O)NC(C(=O)NCC(=O)NC(C(=O)N1C(C(=O)NC(C(=O)NC(C(=O)NC(C(=O)NC(C(=O)NC(C(=O)NC(C(=O)NC(C(=O)NCC(=O)NC(C(=O)NC(C(=O)N2C(C(=O)NC(C(=O)NC(C(=O)NC(C(=O)NC(C(=O)N3C(C(=O)NC(C(=O)NC(C(=O)[O-])CC(=O)[O-])Cc4ccccc4)CCC3)CC(=O)[O-])C(C)C)C(CC)C)C(CC)C)CCC2)CCC(=O)[O-])C(O)C)CCCC[NH3+])C(CC)C)CCC(=O)[O-])CS)CCCNC(=[NH2+])N)C[S-])Cc2ccccc2)CCC1)C[S-])CCC(=O)N)CC(=O)[O-])CO)CCC(=O)[O-])CCC(=O)N)Cc1c2c([nH]c1)cccc2)C)C(O)C)CC(C)C)C[S-])CO)C(O)C)C[S-])C.S(CCC(NC(=O)C(NC(=O)C(NC(=O)C(NC(=O)C(NC(=O)C(NC(=O)C(NC(=O)C(NC(=O)C(NC(=O)C(NC(=O)C(NC(=O)C(NC(=O)C(NC(=O)C(NC(=O)C(NC(=O)C(NC(=O)C[NH3+])CCC(=O)N)C)C)C)CC(=O)[O-])CCCNC(=[NH2+])N)CCCNC(=[NH2+])N)C(O)C)C(C)C)CCC(=O)[O-])CCCC[NH3+])C(O)C)Cc1c2c([nH]c1)cccc2)C)CC(C)C)C(=O)NC(C(=O)NC(C(=O)NC(C(=O)NC(C(=O)NC(C(=O)NC(C(=O)NC(C(=O)NC(C(=O)NC(C(=O)N1C(C(=O)NC(C(=O)NC(C(=O)NC(C(=O)NC(C(=O)NC(C(=O)NC(C(=O)NC(C(=O)N2C(C(=O)N3C(C(=O)NC(C(=O)NC(C(=O)NC(C(=O)NC(C(=O)NC(C(=O)NC(C(=O)N4C(C(=O)NC(C(=O)NC(C(=O)NC(C(=O)NC(C(=O)NC(C(=O)NC(C(=O)NC(C(=O)NC(C(=O)NC(C(=O)NC(C(=O)NC(C(=O)NC(C(=O)NC(C(=O)NC(C(=O)NC(C(=O)NC(C(=O)NC(C(=O)NC(C(=O)NC(C(=O)NC(C(=O)NC(C(=O)NC(C(=O)NC(C(=O)NC(C(=O)NC(C(=O)NC(C(=O)NC(C(=O)NC(C(=O)NC(C(=O)NC(C(=O)NC(C(=O)NC(C(=O)NC(C(=O)NC(C(=O)NC(C(=O)NC(C(=O)NC(C(=O)NC(C(=O)NC(C(=O)NC(C(=O)NC(C(=O)NC(C(=O)NC(C(=O)NC(C(=O)NC(C(=O)NC(C(=O)NC(C(=O)NC(C(=O)NCC(=O)NC(C(=O)NC(C(=O)NC(C(=O)NC(C(=O)NC(C(=O)NC(C(=O)NC(C(=O)NC(C(=O)NC(C(=O)NC(C(=O)NC(C(=O)NC(C(=O)NC(C(=O)NC(C(=O)NC(C(=O)NC(C(=O)NC(C(=O)NC(C(=O)NC(C(=O)NC(C(=O)NC(C(=O)NC(C(=O)NC(C(=O)NC(C(=O)NC(C(=O)NC(C(=O)NC(C(=O)NC(C(=O)NC(C(=O)NC(C(=O)NC(C(=O)NC(C(=O)NC(C(=O)N5C(C(=O)NC(C(=O)NCC(=O)NC(C(=O)NC(C(=O)NC(C(=O)NCC(=O)NC(C(=O)NC(C(=O)NC(C(=O)NC(C(=O)NC(C(=O)NC(C(=O)NC(C(=O)NC(C(=O)NC(C(=O)NC(C(=O)NC(C(=O)NC(C(=O)NC(C(=O)NC(C(=O)NC(C(=O)NC(C(=O)NC(C(=O)NC(C(=O)NCC(=O)NC(C(=O)NC(C(=O)NC(C(=O)NC(C(=O)NC(C(=O)N6C(C(=O)NC(C(=O)NC(C(=O)NC(C(=O)NC(C(=O)NC(C(=O)NC(C(=O)NC(C(=O)NC(C(=O)NC(C(=O)NC(C(=O)NC(C(=O)NC(C(=O)NC(C(=O)NC(C(=O)NC(C(=O)NC(C(=O)NCC(=O)NC(C(=O)NC(C(=O)NC(C(=O)NC(C(=O)NC(C(=O)NC(C(=O)NC(C(=O)NC(C(=O)NC(C(=O)NC(C(=O)NC(C(=O)NC(C(=O)NC(C(=O)NC(C(=O)NC(C(=O)NC(C(=O)NC(C(=O)NC(C(=O)NC(C(=O)NC(C(=O)NC(C(=O)NC(C(=O)NC(C(=O)NC(C(=O)NC(C(=O)NC(C(=O)NC(C(=O)NC(C(=O)NC(C(=O)NC(C(=O)NC(C(=O)N7C(C(=O)NC(C(=O)NCC(=O)NC(C(=O)NC(C(=O)NC(C(=O)NC(C(=O)NC(C(=O)NC(C(=O)NC(C(=O)NC(C(=O)NC(C(=O)NC(C(=O)NC(C(=O)NC(C(=O)NC(C(=O)N8C(C(=O)NCC(=O)NC(C(=O)NC(C(=O)NC(C(=O)NC(C(=O)NC(C(=O)NC(C(=O)NC(C(=O)NC(C(=O)NC(C(=O)NC(C(=O)NC(C(=O)NC(C(=O)NC(C(=O)NC(C(=O)NC(C(=O)NC(C(=O)NC(C(=O)NC(C(=O)NC(C(=O)NC(C(=O)N9C(C(=O)NCC(=O)NC(C(=O)NC(C(=O)NC(C(=O)NC(C(=O)NC(C(=O)NC(C(=O)NC(C(=O)NC(C(=O)NC(C(=O)NC(C(=O)NC(C(=O)NCC(=O)NC(C(=O)NC(C(=O)NC(C(=O)NC(C(=O)NCC(=O)NC(C(=O)NC(C(=O)NC(C(=O)NCC(=O)NC(C(=O)NCC(=O)NC(C(=O)NC(C(=O)NC(C(=O)NC(C(=O)NC(C(=O)NC(C(=O)N%10C(C(=O)NC(C(=O)NC(C(=O)NC(C(=O)N%11C(C(=O)NC(C(=O)NC(C(=O)NC(C(=O)NC(C(=O)NC(C(=O)NC(C(=O)NC(C(=O)NCC(=O)NC(C(=O)NC(C(=O)NC(C(=O)NCC(=O)NC(C(=O)NC(C(=O)NC(C(=O)NC(C(=O)N%12C(C(=O)NC(C(=O)NCC(=O)NC(C(=O)NC(C(=O)NC(C(=O)NC(C(=O)NC)CC(=O)N)Cc%13ccc(O)cc%13)CO)CCCNC(=[NH2+])N)CC(=O)[O-])CCC%12)Cc%12ccc(O)cc%12)CC(C)C)Cc%12ccc(O)cc%12)Cc%12ccccc%12)CCC(=O)[O-])C)CO)CC(=O)[O-])C(CC)C)CC(C)C)C)CCC(=O)N)Cc%12ccccc%12)CC(C)C)CCC%11)CCCC[NH3+])CC(=O)N)Cc%11[nH]cnc%11)CCC%10)C(CC)C)C(O)C)CCC(=O)N)CC(C)C)C(CC)C)CC(=O)N)CC(=O)[O-])C(O)C)C(C)C)Cc%10ccc(O)cc%10)C(CC)C)C)Cc%10c%11c([nH]c%10)cccc%11)CCC(=O)N)CC(C)C)CCCNC(=[NH2+])N)C(O)C)CS)CO)CC(C)C)CCCNC(=[NH2+])N)Cc%10ccccc%10)C(CC)C)Cc%10ccc(O)cc%10)CO)CCC9)CCCC[NH3+])C(O)C)CO)Cc9ccc(O)cc9)CCCC[NH3+])CCC(=O)N)CC(C)C)CCCNC(=[NH2+])N)C)CCCC[NH3+])C(C)C)CCC(=O)[O-])CC(=O)[O-])Cc9ccc(O)cc9)C(O)C)CC(C)C)Cc9ccccc9)C)CCSC)Cc9ccc(O)cc9)CCC8)Cc8nc[nH]c8)C(O)C)C(C)C)C)CC(C)C)Cc8ccccc8)CC(=O)N)Cc8c9c([nH]c8)cccc9)CC(=O)N)CCCNC(=[NH2+])N)CC(C)C)C(CC)C)CO)Cc8c9c([nH]c8)cccc9)CCC7)CCC(=O)N)Cc7ccccc7)CC(C)C)CCCNC(=[NH2+])N)C(O)C)Cc7ccccc7)C(CC)C)CC(=O)[O-])Cc7ccccc7)CCC(=O)[O-])Cc7ccccc7)C(C)C)CO)C(CC)C)Cc7ccc(O)cc7)CC(=O)[O-])CC(=O)N)CS)C(O)C)CC(C)C)CC(=O)[O-])C(CC)C)C(O)C)CO)CCCC[NH3+])CC(C)C)C)CCSC)C)CCC(=O)[O-])CC(C)C)CO)CO)C(CC)C)CCC(=O)N)Cc7nc[nH]c7)C(C)C)CCC(=O)[O-])Cc7nc[nH]c7)CC(C)C)CS)CCC(=O)N)CCCNC(=[NH2+])N)Cc7ccccc7)C(C)C)CCCC[NH3+])Cc7c8c([nH]c7)cccc8)CCC6)C(C)C)C(CC)C)C(O)C)CCCC[NH3+])CC(=O)[O-])Cc6ccccc6)Cc6ccccc6)CCCC[NH3+])CCCNC(=[NH2+])N)Cc6c7c([nH]c6)cccc7)Cc6ccccc6)CCC(=O)[O-])C)C)CC(=O)[O-])C)CCCC[NH3+])C(O)C)C(CC)C)CCCNC(=[NH2+])N)Cc6ccccc6)CC(=O)N)CC(=O)[O-])CCC(=O)N)Cc6ccccc6)CCC(=O)N)CC(=O)N)CCC5)Cc5ccccc5)C(CC)C)C)CCCC[NH3+])C(CC)C)CCC(=O)[O-])C)CC(C)C)CCSC)Cc5nc[nH]c5)CO)Cc5ccccc5)C(CC)C)CC(C)C)CO)CC(C)C)CCCC[NH3+])C(O)C)CC(C)C)CC(=O)N)CCCNC(=[NH2+])N)CCCNC(=[NH2+])N)CC(=O)[O-])CCC(=O)N)CO)CCC(=O)N)CCC(=O)[O-])CCC(=O)[O-])Cc5ccc(O)cc5)CCSC)CCCNC(=[NH2+])N)CCC(=O)[O-])CCCC[NH3+])CCC(=O)[O-])CCCC[NH3+])Cc5ccccc5)CC(C)C)CCCNC(=[NH2+])N)C(CC)C)C)CCCNC(=[NH2+])N)CCCC[NH3+])CO)CCCC[NH3+])CCCC[NH3+])CCSC)CC(C)C)CO)CC(=O)[O-])C(CC)C)Cc5ccc(O)cc5)C(CC)C)CCCC[NH3+])Cc5ccccc5)Cc5ccc(O)cc5)CCC(=O)[O-])CC(=O)N)CCC(=O)[O-])CO)CC(C)C)CCC(=O)N)C)CC(C)C)CCCC[NH3+])CCC(=O)N)CC(=O)N)CC(=O)[O-])CC(=O)[O-])Cc5ccc(O)cc5)CCCC[NH3+])CO)CC(C)C)C(CC)C)CC(C)C)CCCNC(=[NH2+])N)CC(C)C)Cc5nc[nH]c5)CCC(=O)N)Cc5ccc(O)cc5)C(O)C)CC(=O)[O-])CCC4)CC(C)C)C(CC)C)CC(=O)[O-])CC(C)C)C(CC)C)Cc4ccc(O)cc4)CCC3)CCC2)CO)CC(=O)N)CCCC[NH3+])CC(C)C)CCC(=O)N)CC(C)C)CCCC[NH3+])CCC1)CC(=O)N)CCC(=O)N)CS)CC(C)C)CCCNC(=[NH2+])N)C(C)C)C(C)C)C)CC(=O)[O-])C.OCCO.[UH+3].[Zn+2].[Zn+2].O.O.O.O.O.O.O.O.O.O.O.O.O.O.O.O.O.O.O.O.O.O.O.O.O.O.O.O.O.O.O.O.O.O.O.O.O.O.O.O.O.O.O.O.O.O.O.O.O.O.O.O.O.O.O.O.O.O.O.O.O.O.O.O.O.O.O.O.O.O.O.O.O.O.O.O.O.O.O.O.O.O.O.O.O.O.O.O.O.O.O.O.O.O.O.O.O.O.O.O.O.O.O.O.O.O.O.O.O.O.O.O.O.O.O.O.O.O.O.O.O.O.O.O.O.O.O.O.O.O.O.O.O.O.O.O.O.O.O.O.O.O

>  <rseq>
1

>  <mseq>
51

>  <S>
-7.1302829

>  <rmsd_refine>
1.2580062

>  <E_conf>
-82.254845

>  <E_place>
-89.073929

>  <E_score1>
-12.668925

>  <E_refine>
-33.672138

>  <E_score2>
-7.1302829

>  <Field_2>
JZ01

>  <pseq>
51

>  <%C>
97.637505

>  <a_heavy>
26

>  <h_logP>
2.7365203

>  <Weight>
347.37399

>  <E_orig>
1.6

>  <PLIF_raw>
[[],[],[],[],[]]

>  <PLIF_ligidx>
[]

$$$$

  MOE2020           3D

 54 57  0  0  1  0  0  0  0  0999 V2000
    7.6370    7.5350   17.1670 C   0  0  0  0  0  0  0  0  0  0  0  0
    8.5750    7.6090   16.6230 H   0  0  0  0  0  0  0  0  0  0  0  0
    6.9210    8.2170   16.7140 H   0  0  0  0  0  0  0  0  0  0  0  0
    7.8110    7.8210   18.2050 H   0  0  0  0  0  0  0  0  0  0  0  0
    7.1220    6.0920   17.1070 C   0  0  0  0  0  0  0  0  0  0  0  0
    7.9230    5.4550   17.4900 H   0  0  0  0  0  0  0  0  0  0  0  0
    6.8110    5.6370   15.6770 C   0  0  0  0  0  0  0  0  0  0  0  0
    6.0320    6.2660   15.2440 H   0  0  0  0  0  0  0  0  0  0  0  0
    6.4630    4.6030   15.6890 H   0  0  0  0  0  0  0  0  0  0  0  0
    7.7100    5.6870   15.0640 H   0  0  0  0  0  0  0  0  0  0  0  0
    5.9160    5.8560   18.0000 C   0  0  0  0  0  0  0  0  0  0  0  0
    5.8040    4.6190   18.6280 C   0  0  0  0  0  0  0  0  0  0  0  0
    6.5460    3.8790   18.4770 H   0  0  0  0  0  0  0  0  0  0  0  0
    4.7240    4.3470   19.4480 C   0  0  0  0  0  0  0  0  0  0  0  0
    4.6420    3.4070   19.9280 H   0  0  0  0  0  0  0  0  0  0  0  0
    3.7470    5.3170   19.6360 C   0  0  0  0  0  0  0  0  0  0  0  0
    3.7990    6.5580   18.9860 C   0  0  0  0  0  0  0  0  0  0  0  0
    4.9070    6.8120   18.1750 C   0  0  0  0  0  0  0  0  0  0  0  0
    4.9810    7.7390   17.6830 H   0  0  0  0  0  0  0  0  0  0  0  0
    2.6340    7.5530   19.1430 C   0  0  2  0  0  0  0  0  0  0  0  0
    1.6960    7.2060   20.3090 C   0  0  0  0  0  0  0  0  0  0  0  0
    2.1290    7.5690   21.2300 H   0  0  0  0  0  0  0  0  0  0  0  0
    0.7410    7.7010   20.2230 H   0  0  0  0  0  0  0  0  0  0  0  0
    1.4930    5.7000   20.4160 C   0  0  0  0  0  0  0  0  0  0  0  0
    0.9020    5.4500   21.2890 H   0  0  0  0  0  0  0  0  0  0  0  0
    0.9750    5.3210   19.5410 H   0  0  0  0  0  0  0  0  0  0  0  0
    2.7310    5.0000   20.4950 O   0  0  0  0  0  0  0  0  0  0  0  0
    2.0630    8.0150   17.8290 C   0  0  0  0  0  0  0  0  0  0  0  0
    2.6180    7.8430   16.9240 H   0  0  0  0  0  0  0  0  0  0  0  0
    0.9940    8.0290   17.6920 H   0  0  0  0  0  0  0  0  0  0  0  0
    2.6620    9.0260   18.7430 C   0  0  1  0  0  0  0  0  0  0  0  0
    1.7050   10.0580   19.3230 C   0  0  0  0  0  0  0  0  0  0  0  0
    1.6010   10.2720   20.5200 O   0  0  0  0  0  0  0  0  0  0  0  0
    0.9090   10.7160   18.4300 N   0  0  0  0  0  0  0  0  0  0  0  0
    1.0460   10.5540   17.4430 H   0  0  0  0  0  0  0  0  0  0  0  0
   -0.2090   11.5950   18.7900 C   0  0  0  0  0  0  0  0  0  0  0  0
    0.0760   12.6170   18.5790 H   0  0  0  0  0  0  0  0  0  0  0  0
   -0.3840   11.5670   19.8570 H   0  0  0  0  0  0  0  0  0  0  0  0
   -1.5210   11.3010   18.0730 C   0  0  0  0  0  0  0  0  0  0  0  0
   -1.6460   10.2870   17.1200 C   0  0  0  0  0  0  0  0  0  0  0  0
   -0.8260    9.6620   16.8870 H   0  0  0  0  0  0  0  0  0  0  0  0
   -2.8480   10.0960   16.4490 C   0  0  0  0  0  0  0  0  0  0  0  0
   -2.9270    9.3420   15.7100 H   0  0  0  0  0  0  0  0  0  0  0  0
   -3.9430   10.8970   16.7360 C   0  0  0  0  0  0  0  0  0  0  0  0
   -4.8440   10.7420   16.2060 H   0  0  0  0  0  0  0  0  0  0  0  0
   -3.8580   11.8970   17.7150 C   0  0  0  0  0  0  0  0  0  0  0  0
   -5.0160   12.7280   18.0640 C   0  0  0  0  0  0  0  0  0  0  0  0
   -6.1650   12.6390   17.3330 N   0  0  0  0  0  0  0  0  0  0  0  0
   -6.2260   12.0160   16.5130 H   0  0  0  0  0  0  0  0  0  0  0  0
   -6.9660   13.2440   17.5630 H   0  0  0  0  0  0  0  0  0  0  0  0
   -5.0320   13.5110   19.0070 O   0  0  0  0  0  0  0  0  0  0  0  0
   -2.6310   12.0910   18.3670 C   0  0  0  0  0  0  0  0  0  0  0  0
   -2.5430   12.8610   19.0900 H   0  0  0  0  0  0  0  0  0  0  0  0
    3.6080    9.4390   18.4330 H   0  0  0  0  0  0  0  0  0  0  0  0
  1  2  1  0  0  0  0
  1  3  1  0  0  0  0
  1  4  1  0  0  0  0
  1  5  1  0  0  0  0
  5  6  1  0  0  0  0
  5  7  1  0  0  0  0
  5 11  1  0  0  0  0
  7  8  1  0  0  0  0
  7  9  1  0  0  0  0
  7 10  1  0  0  0  0
 11 12  2  0  0  0  0
 11 18  1  0  0  0  0
 12 13  1  0  0  0  0
 12 14  1  0  0  0  0
 14 15  1  0  0  0  0
 14 16  2  0  0  0  0
 16 17  1  0  0  0  0
 16 27  1  0  0  0  0
 17 18  2  0  0  0  0
 17 20  1  0  0  0  0
 18 19  1  0  0  0  0
 20 21  1  0  0  0  0
 20 28  1  0  0  0  0
 20 31  1  0  0  0  0
 21 22  1  0  0  0  0
 21 23  1  0  0  0  0
 21 24  1  0  0  0  0
 24 25  1  0  0  0  0
 24 26  1  0  0  0  0
 24 27  1  0  0  0  0
 28 29  1  0  0  0  0
 28 30  1  0  0  0  0
 28 31  1  0  0  0  0
 31 32  1  0  0  0  0
 31 54  1  0  0  0  0
 32 33  2  0  0  0  0
 32 34  1  0  0  0  0
 34 35  1  0  0  0  0
 34 36  1  0  0  0  0
 36 37  1  0  0  0  0
 36 38  1  0  0  0  0
 36 39  1  0  0  0  0
 39 40  1  0  0  0  0
 39 52  2  0  0  0  0
 40 41  1  0  0  0  0
 40 42  2  0  0  0  0
 42 43  1  0  0  0  0
 42 44  1  0  0  0  0
 44 45  1  0  0  0  0
 44 46  2  0  0  0  0
 46 47  1  0  0  0  0
 46 52  1  0  0  0  0
 47 48  1  0  0  0  0
 47 51  2  0  0  0  0
 48 49  1  0  0  0  0
 48 50  1  0  0  0  0
 52 53  1  0  0  0  0
M  END
>  <receptor>
S(=O)(=O)([O-])[O-].S(CCC(NC(=O)C(NC(=O)C(NC(=O)CNC(=O)C(NC(=O)C1N(C(=O)C(NC(=O)C(NC(=O)C(NC(=O)C(NC(=O)C(NC(=O)C(NC(=O)C(NC(=O)C(NC(=O)C(NC(=O)C(NC(=O)C(NC(=O)C(NC(=O)C(NC(=O)C(NC(=O)C(NC(=O)C(NC(=O)C(NC(=O)C(NC(=O)C(NC(=O)CNC(=O)C(NC(=O)C(NC(=O)C(NC(=O)C(NC(=O)C(NC(=O)C(NC(=O)C(NC(=O)C(NC(=O)C(NC(=O)C(NC(=O)C(NC(=O)C(NC(=O)C(NC(=O)C)CCCC[NH3+])C(C)C)C(O)C)CCC(=O)N)CCC(=O)[O-])CCC(=O)N)Cc2ccccc2)CCC(=O)[O-])CC(C)C)Cc2ccc(O)cc2)CS)CCC(=O)[O-])CCSC)CO)C(O)C)Cc2ccccc2)CCC(=O)N)CC(C)C)C[S-])CCCC[NH3+])C(CC)C)C[S-])C)CCC(=O)[O-])CC(=O)N)CC(=O)[O-])CCCC[NH3+])CC(=O)[O-])C(C)C)CCCC[NH3+])C(CC)C)CCC(=O)[O-])CCC1)C[S-])Cc1nc[n-]c1)CC(C)C)C(=O)NC(C(=O)NC(C(=O)NC(C(=O)NC(C(=O)NC(C(=O)NC(C(=O)NC(C(=O)NC(C(=O)NC(C(=O)NC(C(=O)NC(C(=O)NC(C(=O)NCC(=O)NC(C(=O)NCC(=O)NC(C(=O)N1C(C(=O)NC(C(=O)NC(C(=O)NC(C(=O)NC(C(=O)NC(C(=O)NC(C(=O)NC(C(=O)NCC(=O)NC(C(=O)NC(C(=O)N2C(C(=O)NC(C(=O)NC(C(=O)NC(C(=O)NC(C(=O)N3C(C(=O)NC(C(=O)NC(C(=O)[O-])CC(=O)[O-])Cc4ccccc4)CCC3)CC(=O)[O-])C(C)C)C(CC)C)C(CC)C)CCC2)CCC(=O)[O-])C(O)C)CCCC[NH3+])C(CC)C)CCC(=O)[O-])CS)CCCNC(=[NH2+])N)C[S-])Cc2ccccc2)CCC1)C[S-])CCC(=O)N)CC(=O)[O-])CO)CCC(=O)[O-])CCC(=O)N)Cc1c2c([nH]c1)cccc2)C)C(O)C)CC(C)C)C[S-])CO)C(O)C)C[S-])C.S(CCC(NC(=O)C(NC(=O)C(NC(=O)C(NC(=O)C(NC(=O)C(NC(=O)C(NC(=O)C(NC(=O)C(NC(=O)C(NC(=O)C(NC(=O)C(NC(=O)C(NC(=O)C(NC(=O)C(NC(=O)C(NC(=O)C[NH3+])CCC(=O)N)C)C)C)CC(=O)[O-])CCCNC(=[NH2+])N)CCCNC(=[NH2+])N)C(O)C)C(C)C)CCC(=O)[O-])CCCC[NH3+])C(O)C)Cc1c2c([nH]c1)cccc2)C)CC(C)C)C(=O)NC(C(=O)NC(C(=O)NC(C(=O)NC(C(=O)NC(C(=O)NC(C(=O)NC(C(=O)NC(C(=O)NC(C(=O)N1C(C(=O)NC(C(=O)NC(C(=O)NC(C(=O)NC(C(=O)NC(C(=O)NC(C(=O)NC(C(=O)N2C(C(=O)N3C(C(=O)NC(C(=O)NC(C(=O)NC(C(=O)NC(C(=O)NC(C(=O)NC(C(=O)N4C(C(=O)NC(C(=O)NC(C(=O)NC(C(=O)NC(C(=O)NC(C(=O)NC(C(=O)NC(C(=O)NC(C(=O)NC(C(=O)NC(C(=O)NC(C(=O)NC(C(=O)NC(C(=O)NC(C(=O)NC(C(=O)NC(C(=O)NC(C(=O)NC(C(=O)NC(C(=O)NC(C(=O)NC(C(=O)NC(C(=O)NC(C(=O)NC(C(=O)NC(C(=O)NC(C(=O)NC(C(=O)NC(C(=O)NC(C(=O)NC(C(=O)NC(C(=O)NC(C(=O)NC(C(=O)NC(C(=O)NC(C(=O)NC(C(=O)NC(C(=O)NC(C(=O)NC(C(=O)NC(C(=O)NC(C(=O)NC(C(=O)NC(C(=O)NC(C(=O)NC(C(=O)NC(C(=O)NC(C(=O)NC(C(=O)NCC(=O)NC(C(=O)NC(C(=O)NC(C(=O)NC(C(=O)NC(C(=O)NC(C(=O)NC(C(=O)NC(C(=O)NC(C(=O)NC(C(=O)NC(C(=O)NC(C(=O)NC(C(=O)NC(C(=O)NC(C(=O)NC(C(=O)NC(C(=O)NC(C(=O)NC(C(=O)NC(C(=O)NC(C(=O)NC(C(=O)NC(C(=O)NC(C(=O)NC(C(=O)NC(C(=O)NC(C(=O)NC(C(=O)NC(C(=O)NC(C(=O)NC(C(=O)NC(C(=O)NC(C(=O)N5C(C(=O)NC(C(=O)NCC(=O)NC(C(=O)NC(C(=O)NC(C(=O)NCC(=O)NC(C(=O)NC(C(=O)NC(C(=O)NC(C(=O)NC(C(=O)NC(C(=O)NC(C(=O)NC(C(=O)NC(C(=O)NC(C(=O)NC(C(=O)NC(C(=O)NC(C(=O)NC(C(=O)NC(C(=O)NC(C(=O)NC(C(=O)NC(C(=O)NCC(=O)NC(C(=O)NC(C(=O)NC(C(=O)NC(C(=O)NC(C(=O)N6C(C(=O)NC(C(=O)NC(C(=O)NC(C(=O)NC(C(=O)NC(C(=O)NC(C(=O)NC(C(=O)NC(C(=O)NC(C(=O)NC(C(=O)NC(C(=O)NC(C(=O)NC(C(=O)NC(C(=O)NC(C(=O)NC(C(=O)NCC(=O)NC(C(=O)NC(C(=O)NC(C(=O)NC(C(=O)NC(C(=O)NC(C(=O)NC(C(=O)NC(C(=O)NC(C(=O)NC(C(=O)NC(C(=O)NC(C(=O)NC(C(=O)NC(C(=O)NC(C(=O)NC(C(=O)NC(C(=O)NC(C(=O)NC(C(=O)NC(C(=O)NC(C(=O)NC(C(=O)NC(C(=O)NC(C(=O)NC(C(=O)NC(C(=O)NC(C(=O)NC(C(=O)NC(C(=O)NC(C(=O)NC(C(=O)N7C(C(=O)NC(C(=O)NCC(=O)NC(C(=O)NC(C(=O)NC(C(=O)NC(C(=O)NC(C(=O)NC(C(=O)NC(C(=O)NC(C(=O)NC(C(=O)NC(C(=O)NC(C(=O)NC(C(=O)NC(C(=O)N8C(C(=O)NCC(=O)NC(C(=O)NC(C(=O)NC(C(=O)NC(C(=O)NC(C(=O)NC(C(=O)NC(C(=O)NC(C(=O)NC(C(=O)NC(C(=O)NC(C(=O)NC(C(=O)NC(C(=O)NC(C(=O)NC(C(=O)NC(C(=O)NC(C(=O)NC(C(=O)NC(C(=O)NC(C(=O)N9C(C(=O)NCC(=O)NC(C(=O)NC(C(=O)NC(C(=O)NC(C(=O)NC(C(=O)NC(C(=O)NC(C(=O)NC(C(=O)NC(C(=O)NC(C(=O)NC(C(=O)NCC(=O)NC(C(=O)NC(C(=O)NC(C(=O)NC(C(=O)NCC(=O)NC(C(=O)NC(C(=O)NC(C(=O)NCC(=O)NC(C(=O)NCC(=O)NC(C(=O)NC(C(=O)NC(C(=O)NC(C(=O)NC(C(=O)NC(C(=O)N%10C(C(=O)NC(C(=O)NC(C(=O)NC(C(=O)N%11C(C(=O)NC(C(=O)NC(C(=O)NC(C(=O)NC(C(=O)NC(C(=O)NC(C(=O)NC(C(=O)NCC(=O)NC(C(=O)NC(C(=O)NC(C(=O)NCC(=O)NC(C(=O)NC(C(=O)NC(C(=O)NC(C(=O)N%12C(C(=O)NC(C(=O)NCC(=O)NC(C(=O)NC(C(=O)NC(C(=O)NC(C(=O)NC)CC(=O)N)Cc%13ccc(O)cc%13)CO)CCCNC(=[NH2+])N)CC(=O)[O-])CCC%12)Cc%12ccc(O)cc%12)CC(C)C)Cc%12ccc(O)cc%12)Cc%12ccccc%12)CCC(=O)[O-])C)CO)CC(=O)[O-])C(CC)C)CC(C)C)C)CCC(=O)N)Cc%12ccccc%12)CC(C)C)CCC%11)CCCC[NH3+])CC(=O)N)Cc%11[nH]cnc%11)CCC%10)C(CC)C)C(O)C)CCC(=O)N)CC(C)C)C(CC)C)CC(=O)N)CC(=O)[O-])C(O)C)C(C)C)Cc%10ccc(O)cc%10)C(CC)C)C)Cc%10c%11c([nH]c%10)cccc%11)CCC(=O)N)CC(C)C)CCCNC(=[NH2+])N)C(O)C)CS)CO)CC(C)C)CCCNC(=[NH2+])N)Cc%10ccccc%10)C(CC)C)Cc%10ccc(O)cc%10)CO)CCC9)CCCC[NH3+])C(O)C)CO)Cc9ccc(O)cc9)CCCC[NH3+])CCC(=O)N)CC(C)C)CCCNC(=[NH2+])N)C)CCCC[NH3+])C(C)C)CCC(=O)[O-])CC(=O)[O-])Cc9ccc(O)cc9)C(O)C)CC(C)C)Cc9ccccc9)C)CCSC)Cc9ccc(O)cc9)CCC8)Cc8nc[nH]c8)C(O)C)C(C)C)C)CC(C)C)Cc8ccccc8)CC(=O)N)Cc8c9c([nH]c8)cccc9)CC(=O)N)CCCNC(=[NH2+])N)CC(C)C)C(CC)C)CO)Cc8c9c([nH]c8)cccc9)CCC7)CCC(=O)N)Cc7ccccc7)CC(C)C)CCCNC(=[NH2+])N)C(O)C)Cc7ccccc7)C(CC)C)CC(=O)[O-])Cc7ccccc7)CCC(=O)[O-])Cc7ccccc7)C(C)C)CO)C(CC)C)Cc7ccc(O)cc7)CC(=O)[O-])CC(=O)N)CS)C(O)C)CC(C)C)CC(=O)[O-])C(CC)C)C(O)C)CO)CCCC[NH3+])CC(C)C)C)CCSC)C)CCC(=O)[O-])CC(C)C)CO)CO)C(CC)C)CCC(=O)N)Cc7nc[nH]c7)C(C)C)CCC(=O)[O-])Cc7nc[nH]c7)CC(C)C)CS)CCC(=O)N)CCCNC(=[NH2+])N)Cc7ccccc7)C(C)C)CCCC[NH3+])Cc7c8c([nH]c7)cccc8)CCC6)C(C)C)C(CC)C)C(O)C)CCCC[NH3+])CC(=O)[O-])Cc6ccccc6)Cc6ccccc6)CCCC[NH3+])CCCNC(=[NH2+])N)Cc6c7c([nH]c6)cccc7)Cc6ccccc6)CCC(=O)[O-])C)C)CC(=O)[O-])C)CCCC[NH3+])C(O)C)C(CC)C)CCCNC(=[NH2+])N)Cc6ccccc6)CC(=O)N)CC(=O)[O-])CCC(=O)N)Cc6ccccc6)CCC(=O)N)CC(=O)N)CCC5)Cc5ccccc5)C(CC)C)C)CCCC[NH3+])C(CC)C)CCC(=O)[O-])C)CC(C)C)CCSC)Cc5nc[nH]c5)CO)Cc5ccccc5)C(CC)C)CC(C)C)CO)CC(C)C)CCCC[NH3+])C(O)C)CC(C)C)CC(=O)N)CCCNC(=[NH2+])N)CCCNC(=[NH2+])N)CC(=O)[O-])CCC(=O)N)CO)CCC(=O)N)CCC(=O)[O-])CCC(=O)[O-])Cc5ccc(O)cc5)CCSC)CCCNC(=[NH2+])N)CCC(=O)[O-])CCCC[NH3+])CCC(=O)[O-])CCCC[NH3+])Cc5ccccc5)CC(C)C)CCCNC(=[NH2+])N)C(CC)C)C)CCCNC(=[NH2+])N)CCCC[NH3+])CO)CCCC[NH3+])CCCC[NH3+])CCSC)CC(C)C)CO)CC(=O)[O-])C(CC)C)Cc5ccc(O)cc5)C(CC)C)CCCC[NH3+])Cc5ccccc5)Cc5ccc(O)cc5)CCC(=O)[O-])CC(=O)N)CCC(=O)[O-])CO)CC(C)C)CCC(=O)N)C)CC(C)C)CCCC[NH3+])CCC(=O)N)CC(=O)N)CC(=O)[O-])CC(=O)[O-])Cc5ccc(O)cc5)CCCC[NH3+])CO)CC(C)C)C(CC)C)CC(C)C)CCCNC(=[NH2+])N)CC(C)C)Cc5nc[nH]c5)CCC(=O)N)Cc5ccc(O)cc5)C(O)C)CC(=O)[O-])CCC4)CC(C)C)C(CC)C)CC(=O)[O-])CC(C)C)C(CC)C)Cc4ccc(O)cc4)CCC3)CCC2)CO)CC(=O)N)CCCC[NH3+])CC(C)C)CCC(=O)N)CC(C)C)CCCC[NH3+])CCC1)CC(=O)N)CCC(=O)N)CS)CC(C)C)CCCNC(=[NH2+])N)C(C)C)C(C)C)C)CC(=O)[O-])C.OCCO.[UH+3].[Zn+2].[Zn+2].O.O.O.O.O.O.O.O.O.O.O.O.O.O.O.O.O.O.O.O.O.O.O.O.O.O.O.O.O.O.O.O.O.O.O.O.O.O.O.O.O.O.O.O.O.O.O.O.O.O.O.O.O.O.O.O.O.O.O.O.O.O.O.O.O.O.O.O.O.O.O.O.O.O.O.O.O.O.O.O.O.O.O.O.O.O.O.O.O.O.O.O.O.O.O.O.O.O.O.O.O.O.O.O.O.O.O.O.O.O.O.O.O.O.O.O.O.O.O.O.O.O.O.O.O.O.O.O.O.O.O.O.O.O.O.O.O.O.O.O.O.O

>  <rseq>
1

>  <mseq>
52

>  <S>
-7.8669338

>  <rmsd_refine>
1.6962402

>  <E_conf>
64.409401

>  <E_place>
-53.029205

>  <E_score1>
-11.267446

>  <E_refine>
-37.302769

>  <E_score2>
-7.8669338

>  <Field_2>
JZ02

>  <pseq>
52

>  <%C>
100

>  <a_heavy>
28

>  <h_logP>
3.5902832

>  <Weight>
378.47198

>  <E_orig>
0.80000001

>  <PLIF_raw>
[[34,48],[3756,549],[263,71],[3,3],[1.1,1.5]]

>  <FP:PLIF>
42 43 14

>  <PLIF_ligidx>
[48,48,34]

$$$$

  MOE2020           3D

 62 67  0  0  0  0  0  0  0  0999 V2000
    1.1770    8.7460   21.6320 O   0  0  0  0  0  0  0  0  0  0  0  0
    1.0110    9.1990   20.5020 C   0  0  0  0  0  0  0  0  0  0  0  0
    1.4910    8.5240   19.3940 N   0  0  0  0  0  0  0  0  0  0  0  0
    1.3890    9.0090   18.4900 H   0  0  0  0  0  0  0  0  0  0  0  0
    2.3300    7.3900   19.4270 C   0  0  0  0  0  0  0  0  0  0  0  0
    2.0610    6.3010   20.2550 C   0  0  0  0  0  0  0  0  0  0  0  0
    1.1780    6.2700   20.8350 H   0  0  0  0  0  0  0  0  0  0  0  0
    2.9760    5.2600   20.3150 C   0  0  0  0  0  0  0  0  0  0  0  0
    2.7930    4.4390   20.9550 H   0  0  0  0  0  0  0  0  0  0  0  0
    4.1440    5.3010   19.5630 C   0  0  0  0  0  0  0  0  0  0  0  0
    4.8520    4.5170   19.6550 H   0  0  0  0  0  0  0  0  0  0  0  0
    4.3960    6.3730   18.6940 C   0  0  0  0  0  0  0  0  0  0  0  0
    5.6090    6.4540   17.8970 C   0  0  0  0  0  0  0  0  0  0  0  0
    6.4280    7.4660   17.7960 N   0  0  0  0  0  0  0  0  0  0  0  0
    7.3460    7.1660   16.8360 N   0  0  0  0  0  0  0  0  0  0  0  0
    7.0610    5.9850   16.3920 C   0  0  0  0  0  0  0  0  0  0  0  0
    6.0240    5.4940   17.0610 N   0  0  0  0  0  0  0  0  0  0  0  0
    5.4300    4.1860   16.8130 C   0  0  0  0  0  0  0  0  0  0  0  0
    6.1740    3.4120   16.9250 H   0  0  0  0  0  0  0  0  0  0  0  0
    4.6790    3.9470   17.5470 H   0  0  0  0  0  0  0  0  0  0  0  0
    4.7820    4.0880   15.4370 C   0  0  0  0  0  0  0  0  0  0  0  0
    4.2340    5.0110   15.2490 H   0  0  0  0  0  0  0  0  0  0  0  0
    4.0750    3.2630   15.4760 H   0  0  0  0  0  0  0  0  0  0  0  0
    5.7670    3.8410   14.2930 C   0  0  0  0  0  0  0  0  0  0  0  0
    5.1930    3.7230   13.3760 H   0  0  0  0  0  0  0  0  0  0  0  0
    6.3080    2.9150   14.4760 H   0  0  0  0  0  0  0  0  0  0  0  0
    6.7630    4.9800   14.0740 C   0  0  0  0  0  0  0  0  0  0  0  0
    7.3580    4.7440   13.1910 H   0  0  0  0  0  0  0  0  0  0  0  0
    6.2110    5.8950   13.8690 H   0  0  0  0  0  0  0  0  0  0  0  0
    7.7100    5.2470   15.2470 C   0  0  0  0  0  0  0  0  0  0  0  0
    8.1540    4.3270   15.6150 H   0  0  0  0  0  0  0  0  0  0  0  0
    8.4930    5.8850   14.8570 H   0  0  0  0  0  0  0  0  0  0  0  0
    3.4580    7.4060   18.6140 C   0  0  0  0  0  0  0  0  0  0  0  0
    3.6270    8.2270   17.9690 H   0  0  0  0  0  0  0  0  0  0  0  0
    0.3800   10.4820   20.2330 C   0  0  0  0  0  0  0  0  0  0  0  0
    0.7270   11.6100   20.9850 C   0  0  0  0  0  0  0  0  0  0  0  0
    1.4100   11.5170   21.7890 H   0  0  0  0  0  0  0  0  0  0  0  0
    0.1990   12.8540   20.6660 C   0  0  0  0  0  0  0  0  0  0  0  0
    0.4740   13.7080   21.2280 H   0  0  0  0  0  0  0  0  0  0  0  0
   -0.6920   12.9810   19.6050 C   0  0  0  0  0  0  0  0  0  0  0  0
   -1.0870   13.9340   19.3600 H   0  0  0  0  0  0  0  0  0  0  0  0
   -1.0830   11.8590   18.8750 C   0  0  0  0  0  0  0  0  0  0  0  0
   -2.0700   11.9820   17.7320 C   0  0  0  0  0  0  0  0  0  0  0  0
   -1.9670   11.1200   17.0860 H   0  0  0  0  0  0  0  0  0  0  0  0
   -1.7640   12.8120   17.1100 H   0  0  0  0  0  0  0  0  0  0  0  0
   -3.4930   12.1540   18.0790 N   0  0  0  0  0  0  0  0  0  0  0  0
   -4.0610   12.7050   19.2390 C   0  0  0  0  0  0  0  0  0  0  0  0
   -3.4910   12.8140   20.3160 O   0  0  0  0  0  0  0  0  0  0  0  0
   -5.4120   13.0930   18.9150 C   0  0  0  0  0  0  0  0  0  0  0  0
   -6.3850   13.7340   19.6810 C   0  0  0  0  0  0  0  0  0  0  0  0
   -6.1950   13.9860   20.6930 H   0  0  0  0  0  0  0  0  0  0  0  0
   -7.6060   14.0460   19.0880 C   0  0  0  0  0  0  0  0  0  0  0  0
   -8.3570   14.5360   19.6540 H   0  0  0  0  0  0  0  0  0  0  0  0
   -7.8460   13.7220   17.7470 C   0  0  0  0  0  0  0  0  0  0  0  0
   -8.7740   13.9740   17.3020 H   0  0  0  0  0  0  0  0  0  0  0  0
   -6.8690   13.0750   16.9930 C   0  0  0  0  0  0  0  0  0  0  0  0
   -7.0410   12.8470   15.9740 H   0  0  0  0  0  0  0  0  0  0  0  0
   -5.6550   12.7480   17.5990 C   0  0  0  0  0  0  0  0  0  0  0  0
   -4.4730   12.0950   17.0870 C   0  0  0  0  0  0  0  0  0  0  0  0
   -4.2960   11.5560   16.0010 O   0  0  0  0  0  0  0  0  0  0  0  0
   -0.5440   10.6170   19.1890 C   0  0  0  0  0  0  0  0  0  0  0  0
   -0.8290    9.7690   18.6240 H   0  0  0  0  0  0  0  0  0  0  0  0
  1  2  2  0  0  0  0
  2  3  1  0  0  0  0
  2 35  1  0  0  0  0
  3  4  1  0  0  0  0
  3  5  1  0  0  0  0
  5  6  1  0  0  0  0
  5 33  2  0  0  0  0
  6  7  1  0  0  0  0
  6  8  2  0  0  0  0
  8  9  1  0  0  0  0
  8 10  1  0  0  0  0
 10 11  1  0  0  0  0
 10 12  2  0  0  0  0
 12 13  1  0  0  0  0
 12 33  1  0  0  0  0
 13 14  2  0  0  0  0
 13 17  1  0  0  0  0
 14 15  1  0  0  0  0
 15 16  2  0  0  0  0
 16 17  1  0  0  0  0
 16 30  1  0  0  0  0
 17 18  1  0  0  0  0
 18 19  1  0  0  0  0
 18 20  1  0  0  0  0
 18 21  1  0  0  0  0
 21 22  1  0  0  0  0
 21 23  1  0  0  0  0
 21 24  1  0  0  0  0
 24 25  1  0  0  0  0
 24 26  1  0  0  0  0
 24 27  1  0  0  0  0
 27 28  1  0  0  0  0
 27 29  1  0  0  0  0
 27 30  1  0  0  0  0
 30 31  1  0  0  0  0
 30 32  1  0  0  0  0
 33 34  1  0  0  0  0
 35 36  1  0  0  0  0
 35 61  2  0  0  0  0
 36 37  1  0  0  0  0
 36 38  2  0  0  0  0
 38 39  1  0  0  0  0
 38 40  1  0  0  0  0
 40 41  1  0  0  0  0
 40 42  2  0  0  0  0
 42 43  1  0  0  0  0
 42 61  1  0  0  0  0
 43 44  1  0  0  0  0
 43 45  1  0  0  0  0
 43 46  1  0  0  0  0
 46 47  1  0  0  0  0
 46 59  1  0  0  0  0
 47 48  2  0  0  0  0
 47 49  1  0  0  0  0
 49 50  1  0  0  0  0
 49 58  2  0  0  0  0
 50 51  1  0  0  0  0
 50 52  2  0  0  0  0
 52 53  1  0  0  0  0
 52 54  1  0  0  0  0
 54 55  1  0  0  0  0
 54 56  2  0  0  0  0
 56 57  1  0  0  0  0
 56 58  1  0  0  0  0
 58 59  1  0  0  0  0
 59 60  2  0  0  0  0
 61 62  1  0  0  0  0
M  END
>  <receptor>
S(=O)(=O)([O-])[O-].S(CCC(NC(=O)C(NC(=O)C(NC(=O)CNC(=O)C(NC(=O)C1N(C(=O)C(NC(=O)C(NC(=O)C(NC(=O)C(NC(=O)C(NC(=O)C(NC(=O)C(NC(=O)C(NC(=O)C(NC(=O)C(NC(=O)C(NC(=O)C(NC(=O)C(NC(=O)C(NC(=O)C(NC(=O)C(NC(=O)C(NC(=O)C(NC(=O)C(NC(=O)CNC(=O)C(NC(=O)C(NC(=O)C(NC(=O)C(NC(=O)C(NC(=O)C(NC(=O)C(NC(=O)C(NC(=O)C(NC(=O)C(NC(=O)C(NC(=O)C(NC(=O)C(NC(=O)C)CCCC[NH3+])C(C)C)C(O)C)CCC(=O)N)CCC(=O)[O-])CCC(=O)N)Cc2ccccc2)CCC(=O)[O-])CC(C)C)Cc2ccc(O)cc2)CS)CCC(=O)[O-])CCSC)CO)C(O)C)Cc2ccccc2)CCC(=O)N)CC(C)C)C[S-])CCCC[NH3+])C(CC)C)C[S-])C)CCC(=O)[O-])CC(=O)N)CC(=O)[O-])CCCC[NH3+])CC(=O)[O-])C(C)C)CCCC[NH3+])C(CC)C)CCC(=O)[O-])CCC1)C[S-])Cc1nc[n-]c1)CC(C)C)C(=O)NC(C(=O)NC(C(=O)NC(C(=O)NC(C(=O)NC(C(=O)NC(C(=O)NC(C(=O)NC(C(=O)NC(C(=O)NC(C(=O)NC(C(=O)NC(C(=O)NCC(=O)NC(C(=O)NCC(=O)NC(C(=O)N1C(C(=O)NC(C(=O)NC(C(=O)NC(C(=O)NC(C(=O)NC(C(=O)NC(C(=O)NC(C(=O)NCC(=O)NC(C(=O)NC(C(=O)N2C(C(=O)NC(C(=O)NC(C(=O)NC(C(=O)NC(C(=O)N3C(C(=O)NC(C(=O)NC(C(=O)[O-])CC(=O)[O-])Cc4ccccc4)CCC3)CC(=O)[O-])C(C)C)C(CC)C)C(CC)C)CCC2)CCC(=O)[O-])C(O)C)CCCC[NH3+])C(CC)C)CCC(=O)[O-])CS)CCCNC(=[NH2+])N)C[S-])Cc2ccccc2)CCC1)C[S-])CCC(=O)N)CC(=O)[O-])CO)CCC(=O)[O-])CCC(=O)N)Cc1c2c([nH]c1)cccc2)C)C(O)C)CC(C)C)C[S-])CO)C(O)C)C[S-])C.S(CCC(NC(=O)C(NC(=O)C(NC(=O)C(NC(=O)C(NC(=O)C(NC(=O)C(NC(=O)C(NC(=O)C(NC(=O)C(NC(=O)C(NC(=O)C(NC(=O)C(NC(=O)C(NC(=O)C(NC(=O)C(NC(=O)C[NH3+])CCC(=O)N)C)C)C)CC(=O)[O-])CCCNC(=[NH2+])N)CCCNC(=[NH2+])N)C(O)C)C(C)C)CCC(=O)[O-])CCCC[NH3+])C(O)C)Cc1c2c([nH]c1)cccc2)C)CC(C)C)C(=O)NC(C(=O)NC(C(=O)NC(C(=O)NC(C(=O)NC(C(=O)NC(C(=O)NC(C(=O)NC(C(=O)NC(C(=O)N1C(C(=O)NC(C(=O)NC(C(=O)NC(C(=O)NC(C(=O)NC(C(=O)NC(C(=O)NC(C(=O)N2C(C(=O)N3C(C(=O)NC(C(=O)NC(C(=O)NC(C(=O)NC(C(=O)NC(C(=O)NC(C(=O)N4C(C(=O)NC(C(=O)NC(C(=O)NC(C(=O)NC(C(=O)NC(C(=O)NC(C(=O)NC(C(=O)NC(C(=O)NC(C(=O)NC(C(=O)NC(C(=O)NC(C(=O)NC(C(=O)NC(C(=O)NC(C(=O)NC(C(=O)NC(C(=O)NC(C(=O)NC(C(=O)NC(C(=O)NC(C(=O)NC(C(=O)NC(C(=O)NC(C(=O)NC(C(=O)NC(C(=O)NC(C(=O)NC(C(=O)NC(C(=O)NC(C(=O)NC(C(=O)NC(C(=O)NC(C(=O)NC(C(=O)NC(C(=O)NC(C(=O)NC(C(=O)NC(C(=O)NC(C(=O)NC(C(=O)NC(C(=O)NC(C(=O)NC(C(=O)NC(C(=O)NC(C(=O)NC(C(=O)NC(C(=O)NC(C(=O)NCC(=O)NC(C(=O)NC(C(=O)NC(C(=O)NC(C(=O)NC(C(=O)NC(C(=O)NC(C(=O)NC(C(=O)NC(C(=O)NC(C(=O)NC(C(=O)NC(C(=O)NC(C(=O)NC(C(=O)NC(C(=O)NC(C(=O)NC(C(=O)NC(C(=O)NC(C(=O)NC(C(=O)NC(C(=O)NC(C(=O)NC(C(=O)NC(C(=O)NC(C(=O)NC(C(=O)NC(C(=O)NC(C(=O)NC(C(=O)NC(C(=O)NC(C(=O)NC(C(=O)NC(C(=O)N5C(C(=O)NC(C(=O)NCC(=O)NC(C(=O)NC(C(=O)NC(C(=O)NCC(=O)NC(C(=O)NC(C(=O)NC(C(=O)NC(C(=O)NC(C(=O)NC(C(=O)NC(C(=O)NC(C(=O)NC(C(=O)NC(C(=O)NC(C(=O)NC(C(=O)NC(C(=O)NC(C(=O)NC(C(=O)NC(C(=O)NC(C(=O)NC(C(=O)NCC(=O)NC(C(=O)NC(C(=O)NC(C(=O)NC(C(=O)NC(C(=O)N6C(C(=O)NC(C(=O)NC(C(=O)NC(C(=O)NC(C(=O)NC(C(=O)NC(C(=O)NC(C(=O)NC(C(=O)NC(C(=O)NC(C(=O)NC(C(=O)NC(C(=O)NC(C(=O)NC(C(=O)NC(C(=O)NC(C(=O)NCC(=O)NC(C(=O)NC(C(=O)NC(C(=O)NC(C(=O)NC(C(=O)NC(C(=O)NC(C(=O)NC(C(=O)NC(C(=O)NC(C(=O)NC(C(=O)NC(C(=O)NC(C(=O)NC(C(=O)NC(C(=O)NC(C(=O)NC(C(=O)NC(C(=O)NC(C(=O)NC(C(=O)NC(C(=O)NC(C(=O)NC(C(=O)NC(C(=O)NC(C(=O)NC(C(=O)NC(C(=O)NC(C(=O)NC(C(=O)NC(C(=O)NC(C(=O)N7C(C(=O)NC(C(=O)NCC(=O)NC(C(=O)NC(C(=O)NC(C(=O)NC(C(=O)NC(C(=O)NC(C(=O)NC(C(=O)NC(C(=O)NC(C(=O)NC(C(=O)NC(C(=O)NC(C(=O)NC(C(=O)N8C(C(=O)NCC(=O)NC(C(=O)NC(C(=O)NC(C(=O)NC(C(=O)NC(C(=O)NC(C(=O)NC(C(=O)NC(C(=O)NC(C(=O)NC(C(=O)NC(C(=O)NC(C(=O)NC(C(=O)NC(C(=O)NC(C(=O)NC(C(=O)NC(C(=O)NC(C(=O)NC(C(=O)NC(C(=O)N9C(C(=O)NCC(=O)NC(C(=O)NC(C(=O)NC(C(=O)NC(C(=O)NC(C(=O)NC(C(=O)NC(C(=O)NC(C(=O)NC(C(=O)NC(C(=O)NC(C(=O)NCC(=O)NC(C(=O)NC(C(=O)NC(C(=O)NC(C(=O)NCC(=O)NC(C(=O)NC(C(=O)NC(C(=O)NCC(=O)NC(C(=O)NCC(=O)NC(C(=O)NC(C(=O)NC(C(=O)NC(C(=O)NC(C(=O)NC(C(=O)N%10C(C(=O)NC(C(=O)NC(C(=O)NC(C(=O)N%11C(C(=O)NC(C(=O)NC(C(=O)NC(C(=O)NC(C(=O)NC(C(=O)NC(C(=O)NC(C(=O)NCC(=O)NC(C(=O)NC(C(=O)NC(C(=O)NCC(=O)NC(C(=O)NC(C(=O)NC(C(=O)NC(C(=O)N%12C(C(=O)NC(C(=O)NCC(=O)NC(C(=O)NC(C(=O)NC(C(=O)NC(C(=O)NC)CC(=O)N)Cc%13ccc(O)cc%13)CO)CCCNC(=[NH2+])N)CC(=O)[O-])CCC%12)Cc%12ccc(O)cc%12)CC(C)C)Cc%12ccc(O)cc%12)Cc%12ccccc%12)CCC(=O)[O-])C)CO)CC(=O)[O-])C(CC)C)CC(C)C)C)CCC(=O)N)Cc%12ccccc%12)CC(C)C)CCC%11)CCCC[NH3+])CC(=O)N)Cc%11[nH]cnc%11)CCC%10)C(CC)C)C(O)C)CCC(=O)N)CC(C)C)C(CC)C)CC(=O)N)CC(=O)[O-])C(O)C)C(C)C)Cc%10ccc(O)cc%10)C(CC)C)C)Cc%10c%11c([nH]c%10)cccc%11)CCC(=O)N)CC(C)C)CCCNC(=[NH2+])N)C(O)C)CS)CO)CC(C)C)CCCNC(=[NH2+])N)Cc%10ccccc%10)C(CC)C)Cc%10ccc(O)cc%10)CO)CCC9)CCCC[NH3+])C(O)C)CO)Cc9ccc(O)cc9)CCCC[NH3+])CCC(=O)N)CC(C)C)CCCNC(=[NH2+])N)C)CCCC[NH3+])C(C)C)CCC(=O)[O-])CC(=O)[O-])Cc9ccc(O)cc9)C(O)C)CC(C)C)Cc9ccccc9)C)CCSC)Cc9ccc(O)cc9)CCC8)Cc8nc[nH]c8)C(O)C)C(C)C)C)CC(C)C)Cc8ccccc8)CC(=O)N)Cc8c9c([nH]c8)cccc9)CC(=O)N)CCCNC(=[NH2+])N)CC(C)C)C(CC)C)CO)Cc8c9c([nH]c8)cccc9)CCC7)CCC(=O)N)Cc7ccccc7)CC(C)C)CCCNC(=[NH2+])N)C(O)C)Cc7ccccc7)C(CC)C)CC(=O)[O-])Cc7ccccc7)CCC(=O)[O-])Cc7ccccc7)C(C)C)CO)C(CC)C)Cc7ccc(O)cc7)CC(=O)[O-])CC(=O)N)CS)C(O)C)CC(C)C)CC(=O)[O-])C(CC)C)C(O)C)CO)CCCC[NH3+])CC(C)C)C)CCSC)C)CCC(=O)[O-])CC(C)C)CO)CO)C(CC)C)CCC(=O)N)Cc7nc[nH]c7)C(C)C)CCC(=O)[O-])Cc7nc[nH]c7)CC(C)C)CS)CCC(=O)N)CCCNC(=[NH2+])N)Cc7ccccc7)C(C)C)CCCC[NH3+])Cc7c8c([nH]c7)cccc8)CCC6)C(C)C)C(CC)C)C(O)C)CCCC[NH3+])CC(=O)[O-])Cc6ccccc6)Cc6ccccc6)CCCC[NH3+])CCCNC(=[NH2+])N)Cc6c7c([nH]c6)cccc7)Cc6ccccc6)CCC(=O)[O-])C)C)CC(=O)[O-])C)CCCC[NH3+])C(O)C)C(CC)C)CCCNC(=[NH2+])N)Cc6ccccc6)CC(=O)N)CC(=O)[O-])CCC(=O)N)Cc6ccccc6)CCC(=O)N)CC(=O)N)CCC5)Cc5ccccc5)C(CC)C)C)CCCC[NH3+])C(CC)C)CCC(=O)[O-])C)CC(C)C)CCSC)Cc5nc[nH]c5)CO)Cc5ccccc5)C(CC)C)CC(C)C)CO)CC(C)C)CCCC[NH3+])C(O)C)CC(C)C)CC(=O)N)CCCNC(=[NH2+])N)CCCNC(=[NH2+])N)CC(=O)[O-])CCC(=O)N)CO)CCC(=O)N)CCC(=O)[O-])CCC(=O)[O-])Cc5ccc(O)cc5)CCSC)CCCNC(=[NH2+])N)CCC(=O)[O-])CCCC[NH3+])CCC(=O)[O-])CCCC[NH3+])Cc5ccccc5)CC(C)C)CCCNC(=[NH2+])N)C(CC)C)C)CCCNC(=[NH2+])N)CCCC[NH3+])CO)CCCC[NH3+])CCCC[NH3+])CCSC)CC(C)C)CO)CC(=O)[O-])C(CC)C)Cc5ccc(O)cc5)C(CC)C)CCCC[NH3+])Cc5ccccc5)Cc5ccc(O)cc5)CCC(=O)[O-])CC(=O)N)CCC(=O)[O-])CO)CC(C)C)CCC(=O)N)C)CC(C)C)CCCC[NH3+])CCC(=O)N)CC(=O)N)CC(=O)[O-])CC(=O)[O-])Cc5ccc(O)cc5)CCCC[NH3+])CO)CC(C)C)C(CC)C)CC(C)C)CCCNC(=[NH2+])N)CC(C)C)Cc5nc[nH]c5)CCC(=O)N)Cc5ccc(O)cc5)C(O)C)CC(=O)[O-])CCC4)CC(C)C)C(CC)C)CC(=O)[O-])CC(C)C)C(CC)C)Cc4ccc(O)cc4)CCC3)CCC2)CO)CC(=O)N)CCCC[NH3+])CC(C)C)CCC(=O)N)CC(C)C)CCCC[NH3+])CCC1)CC(=O)N)CCC(=O)N)CS)CC(C)C)CCCNC(=[NH2+])N)C(C)C)C(C)C)C)CC(=O)[O-])C.OCCO.[UH+3].[Zn+2].[Zn+2].O.O.O.O.O.O.O.O.O.O.O.O.O.O.O.O.O.O.O.O.O.O.O.O.O.O.O.O.O.O.O.O.O.O.O.O.O.O.O.O.O.O.O.O.O.O.O.O.O.O.O.O.O.O.O.O.O.O.O.O.O.O.O.O.O.O.O.O.O.O.O.O.O.O.O.O.O.O.O.O.O.O.O.O.O.O.O.O.O.O.O.O.O.O.O.O.O.O.O.O.O.O.O.O.O.O.O.O.O.O.O.O.O.O.O.O.O.O.O.O.O.O.O.O.O.O.O.O.O.O.O.O.O.O.O.O.O.O.O.O.O.O

>  <rseq>
1

>  <mseq>
53

>  <S>
-8.9626999

>  <rmsd_refine>
1.25694

>  <E_conf>
-1.6415663

>  <E_place>
-83.5756

>  <E_score1>
-11.067295

>  <E_refine>
-50.1478

>  <E_score2>
-8.9626999

>  <Field_2>
JZ03

>  <pseq>
53

>  <%C>
99.969315

>  <a_heavy>
37

>  <h_logP>
4.905354

>  <Weight>
491.55099

>  <E_orig>
1.4

>  <PLIF_raw>
[[5,33,12,10,8,6],[6345,6345,6345,6345,6345,6345],[220688,220688,220688,220688,220688,220688],[10,10,10,10,10,10],[0.8,0.8,0.8,0.8,0.8,0.8]]

>  <FP:PLIF>
37

>  <PLIF_ligidx>
[[5,33,12,10,8,6]]

$$$$

  MOE2020           3D

 48 51  0  0  1  0  0  0  0  0999 V2000
    5.6590    5.3430   15.5610 C   0  0  0  0  0  0  0  0  0  0  0  0
    5.1200    6.2370   15.2490 H   0  0  0  0  0  0  0  0  0  0  0  0
    5.0240    4.4760   15.3820 H   0  0  0  0  0  0  0  0  0  0  0  0
    6.5460    5.2500   14.9310 H   0  0  0  0  0  0  0  0  0  0  0  0
    6.0540    5.4170   17.0470 C   0  0  3  0  0  0  0  0  0  0  0  0
    4.8310    5.5370   17.9640 C   0  0  0  0  0  0  0  0  0  0  0  0
    4.5290    4.5840   18.9470 C   0  0  0  0  0  0  0  0  0  0  0  0
    5.1310    3.7220   19.0730 H   0  0  0  0  0  0  0  0  0  0  0  0
    3.4300    4.7550   19.7850 C   0  0  0  0  0  0  0  0  0  0  0  0
    3.2110    4.0220   20.5150 H   0  0  0  0  0  0  0  0  0  0  0  0
    2.6230    5.8790   19.6740 C   0  0  0  0  0  0  0  0  0  0  0  0
    1.7950    6.0060   20.3230 H   0  0  0  0  0  0  0  0  0  0  0  0
    2.9120    6.8240   18.6900 C   0  0  0  0  0  0  0  0  0  0  0  0
    2.1060    7.9750   18.5190 N   0  0  0  0  0  0  0  0  0  0  0  0
    1.8590    8.2560   17.5570 H   0  0  0  0  0  0  0  0  0  0  0  0
    1.6610    8.8060   19.5350 C   0  0  0  0  0  0  0  0  0  0  0  0
    2.0140    8.5910   20.6920 O   0  0  0  0  0  0  0  0  0  0  0  0
    0.7920    9.9190   19.1650 C   0  0  0  0  0  0  0  0  0  0  0  0
    0.9040   11.1550   19.8110 C   0  0  0  0  0  0  0  0  0  0  0  0
    1.6450   11.3030   20.5540 H   0  0  0  0  0  0  0  0  0  0  0  0
    0.1000   12.1780   19.5240 N   0  0  0  0  0  0  0  0  0  0  0  0
   -0.8330   11.9770   18.6040 C   0  0  0  0  0  0  0  0  0  0  0  0
   -1.4910   12.7760   18.3800 H   0  0  0  0  0  0  0  0  0  0  0  0
   -0.9680   10.7280   17.9610 C   0  0  0  0  0  0  0  0  0  0  0  0
   -2.0030   10.4320   17.0620 N   0  0  0  0  0  0  0  0  0  0  0  0
   -2.6780   11.5340   16.3570 C   0  0  0  0  0  0  0  0  0  0  0  0
   -2.0910   12.4410   16.3620 H   0  0  0  0  0  0  0  0  0  0  0  0
   -2.7880   11.2700   15.3140 H   0  0  0  0  0  0  0  0  0  0  0  0
   -4.0660   11.7400   16.9790 C   0  0  0  0  0  0  0  0  0  0  0  0
   -4.1560   12.7270   17.4320 H   0  0  0  0  0  0  0  0  0  0  0  0
   -4.8330   11.6050   16.2170 H   0  0  0  0  0  0  0  0  0  0  0  0
   -4.1840   10.6640   18.0400 C   0  0  0  0  0  0  0  0  0  0  0  0
   -5.1780   10.2210   18.0720 H   0  0  0  0  0  0  0  0  0  0  0  0
   -3.9420   11.1020   19.0080 H   0  0  0  0  0  0  0  0  0  0  0  0
   -3.0950    9.6640   17.6650 C   0  0  0  0  0  0  0  0  0  0  0  0
   -3.4760    8.9660   16.9330 H   0  0  0  0  0  0  0  0  0  0  0  0
   -2.7760    9.0810   18.5170 H   0  0  0  0  0  0  0  0  0  0  0  0
   -0.1350    9.7230   18.2190 N   0  0  0  0  0  0  0  0  0  0  0  0
    3.9960    6.6470   17.8320 C   0  0  0  0  0  0  0  0  0  0  0  0
    4.1870    7.3680   17.0870 H   0  0  0  0  0  0  0  0  0  0  0  0
    6.8880    4.2660   17.3750 N   0  0  0  0  0  0  0  0  0  0  0  0
    6.5520    3.2920   17.4260 H   0  0  0  0  0  0  0  0  0  0  0  0
    8.0990    4.6470   17.8620 C   0  0  0  0  0  0  0  0  0  0  0  0
    8.9910    3.9080   18.2500 O   0  0  0  0  0  0  0  0  0  0  0  0
    8.1700    6.0160   17.8260 N   0  0  0  0  0  0  0  0  0  0  0  0
    8.9990    6.5590   18.1140 H   0  0  0  0  0  0  0  0  0  0  0  0
    7.0310    6.5540   17.3140 C   0  0  0  0  0  0  0  0  0  0  0  0
    6.9150    7.7470   17.1090 O   0  0  0  0  0  0  0  0  0  0  0  0
  1  2  1  0  0  0  0
  1  3  1  0  0  0  0
  1  4  1  0  0  0  0
  1  5  1  0  0  0  0
  5  6  1  0  0  0  0
  5 41  1  0  0  0  0
  5 47  1  0  0  0  0
  6  7  1  0  0  0  0
  6 39  2  0  0  0  0
  7  8  1  0  0  0  0
  7  9  2  0  0  0  0
  9 10  1  0  0  0  0
  9 11  1  0  0  0  0
 11 12  1  0  0  0  0
 11 13  2  0  0  0  0
 13 14  1  0  0  0  0
 13 39  1  0  0  0  0
 14 15  1  0  0  0  0
 14 16  1  0  0  0  0
 16 17  2  0  0  0  0
 16 18  1  0  0  0  0
 18 19  1  0  0  0  0
 18 38  2  0  0  0  0
 19 20  1  0  0  0  0
 19 21  2  0  0  0  0
 21 22  1  0  0  0  0
 22 23  1  0  0  0  0
 22 24  2  0  0  0  0
 24 25  1  0  0  0  0
 24 38  1  0  0  0  0
 25 26  1  0  0  0  0
 25 35  1  0  0  0  0
 26 27  1  0  0  0  0
 26 28  1  0  0  0  0
 26 29  1  0  0  0  0
 29 30  1  0  0  0  0
 29 31  1  0  0  0  0
 29 32  1  0  0  0  0
 32 33  1  0  0  0  0
 32 34  1  0  0  0  0
 32 35  1  0  0  0  0
 35 36  1  0  0  0  0
 35 37  1  0  0  0  0
 39 40  1  0  0  0  0
 41 42  1  0  0  0  0
 41 43  1  0  0  0  0
 43 44  2  0  0  0  0
 43 45  1  0  0  0  0
 45 46  1  0  0  0  0
 45 47  1  0  0  0  0
 47 48  2  0  0  0  0
M  END
>  <receptor>
S(=O)(=O)([O-])[O-].S(CCC(NC(=O)C(NC(=O)C(NC(=O)CNC(=O)C(NC(=O)C1N(C(=O)C(NC(=O)C(NC(=O)C(NC(=O)C(NC(=O)C(NC(=O)C(NC(=O)C(NC(=O)C(NC(=O)C(NC(=O)C(NC(=O)C(NC(=O)C(NC(=O)C(NC(=O)C(NC(=O)C(NC(=O)C(NC(=O)C(NC(=O)C(NC(=O)C(NC(=O)CNC(=O)C(NC(=O)C(NC(=O)C(NC(=O)C(NC(=O)C(NC(=O)C(NC(=O)C(NC(=O)C(NC(=O)C(NC(=O)C(NC(=O)C(NC(=O)C(NC(=O)C(NC(=O)C)CCCC[NH3+])C(C)C)C(O)C)CCC(=O)N)CCC(=O)[O-])CCC(=O)N)Cc2ccccc2)CCC(=O)[O-])CC(C)C)Cc2ccc(O)cc2)CS)CCC(=O)[O-])CCSC)CO)C(O)C)Cc2ccccc2)CCC(=O)N)CC(C)C)C[S-])CCCC[NH3+])C(CC)C)C[S-])C)CCC(=O)[O-])CC(=O)N)CC(=O)[O-])CCCC[NH3+])CC(=O)[O-])C(C)C)CCCC[NH3+])C(CC)C)CCC(=O)[O-])CCC1)C[S-])Cc1nc[n-]c1)CC(C)C)C(=O)NC(C(=O)NC(C(=O)NC(C(=O)NC(C(=O)NC(C(=O)NC(C(=O)NC(C(=O)NC(C(=O)NC(C(=O)NC(C(=O)NC(C(=O)NC(C(=O)NCC(=O)NC(C(=O)NCC(=O)NC(C(=O)N1C(C(=O)NC(C(=O)NC(C(=O)NC(C(=O)NC(C(=O)NC(C(=O)NC(C(=O)NC(C(=O)NCC(=O)NC(C(=O)NC(C(=O)N2C(C(=O)NC(C(=O)NC(C(=O)NC(C(=O)NC(C(=O)N3C(C(=O)NC(C(=O)NC(C(=O)[O-])CC(=O)[O-])Cc4ccccc4)CCC3)CC(=O)[O-])C(C)C)C(CC)C)C(CC)C)CCC2)CCC(=O)[O-])C(O)C)CCCC[NH3+])C(CC)C)CCC(=O)[O-])CS)CCCNC(=[NH2+])N)C[S-])Cc2ccccc2)CCC1)C[S-])CCC(=O)N)CC(=O)[O-])CO)CCC(=O)[O-])CCC(=O)N)Cc1c2c([nH]c1)cccc2)C)C(O)C)CC(C)C)C[S-])CO)C(O)C)C[S-])C.S(CCC(NC(=O)C(NC(=O)C(NC(=O)C(NC(=O)C(NC(=O)C(NC(=O)C(NC(=O)C(NC(=O)C(NC(=O)C(NC(=O)C(NC(=O)C(NC(=O)C(NC(=O)C(NC(=O)C(NC(=O)C(NC(=O)C[NH3+])CCC(=O)N)C)C)C)CC(=O)[O-])CCCNC(=[NH2+])N)CCCNC(=[NH2+])N)C(O)C)C(C)C)CCC(=O)[O-])CCCC[NH3+])C(O)C)Cc1c2c([nH]c1)cccc2)C)CC(C)C)C(=O)NC(C(=O)NC(C(=O)NC(C(=O)NC(C(=O)NC(C(=O)NC(C(=O)NC(C(=O)NC(C(=O)NC(C(=O)N1C(C(=O)NC(C(=O)NC(C(=O)NC(C(=O)NC(C(=O)NC(C(=O)NC(C(=O)NC(C(=O)N2C(C(=O)N3C(C(=O)NC(C(=O)NC(C(=O)NC(C(=O)NC(C(=O)NC(C(=O)NC(C(=O)N4C(C(=O)NC(C(=O)NC(C(=O)NC(C(=O)NC(C(=O)NC(C(=O)NC(C(=O)NC(C(=O)NC(C(=O)NC(C(=O)NC(C(=O)NC(C(=O)NC(C(=O)NC(C(=O)NC(C(=O)NC(C(=O)NC(C(=O)NC(C(=O)NC(C(=O)NC(C(=O)NC(C(=O)NC(C(=O)NC(C(=O)NC(C(=O)NC(C(=O)NC(C(=O)NC(C(=O)NC(C(=O)NC(C(=O)NC(C(=O)NC(C(=O)NC(C(=O)NC(C(=O)NC(C(=O)NC(C(=O)NC(C(=O)NC(C(=O)NC(C(=O)NC(C(=O)NC(C(=O)NC(C(=O)NC(C(=O)NC(C(=O)NC(C(=O)NC(C(=O)NC(C(=O)NC(C(=O)NC(C(=O)NC(C(=O)NCC(=O)NC(C(=O)NC(C(=O)NC(C(=O)NC(C(=O)NC(C(=O)NC(C(=O)NC(C(=O)NC(C(=O)NC(C(=O)NC(C(=O)NC(C(=O)NC(C(=O)NC(C(=O)NC(C(=O)NC(C(=O)NC(C(=O)NC(C(=O)NC(C(=O)NC(C(=O)NC(C(=O)NC(C(=O)NC(C(=O)NC(C(=O)NC(C(=O)NC(C(=O)NC(C(=O)NC(C(=O)NC(C(=O)NC(C(=O)NC(C(=O)NC(C(=O)NC(C(=O)NC(C(=O)N5C(C(=O)NC(C(=O)NCC(=O)NC(C(=O)NC(C(=O)NC(C(=O)NCC(=O)NC(C(=O)NC(C(=O)NC(C(=O)NC(C(=O)NC(C(=O)NC(C(=O)NC(C(=O)NC(C(=O)NC(C(=O)NC(C(=O)NC(C(=O)NC(C(=O)NC(C(=O)NC(C(=O)NC(C(=O)NC(C(=O)NC(C(=O)NC(C(=O)NCC(=O)NC(C(=O)NC(C(=O)NC(C(=O)NC(C(=O)NC(C(=O)N6C(C(=O)NC(C(=O)NC(C(=O)NC(C(=O)NC(C(=O)NC(C(=O)NC(C(=O)NC(C(=O)NC(C(=O)NC(C(=O)NC(C(=O)NC(C(=O)NC(C(=O)NC(C(=O)NC(C(=O)NC(C(=O)NC(C(=O)NCC(=O)NC(C(=O)NC(C(=O)NC(C(=O)NC(C(=O)NC(C(=O)NC(C(=O)NC(C(=O)NC(C(=O)NC(C(=O)NC(C(=O)NC(C(=O)NC(C(=O)NC(C(=O)NC(C(=O)NC(C(=O)NC(C(=O)NC(C(=O)NC(C(=O)NC(C(=O)NC(C(=O)NC(C(=O)NC(C(=O)NC(C(=O)NC(C(=O)NC(C(=O)NC(C(=O)NC(C(=O)NC(C(=O)NC(C(=O)NC(C(=O)NC(C(=O)N7C(C(=O)NC(C(=O)NCC(=O)NC(C(=O)NC(C(=O)NC(C(=O)NC(C(=O)NC(C(=O)NC(C(=O)NC(C(=O)NC(C(=O)NC(C(=O)NC(C(=O)NC(C(=O)NC(C(=O)NC(C(=O)N8C(C(=O)NCC(=O)NC(C(=O)NC(C(=O)NC(C(=O)NC(C(=O)NC(C(=O)NC(C(=O)NC(C(=O)NC(C(=O)NC(C(=O)NC(C(=O)NC(C(=O)NC(C(=O)NC(C(=O)NC(C(=O)NC(C(=O)NC(C(=O)NC(C(=O)NC(C(=O)NC(C(=O)NC(C(=O)N9C(C(=O)NCC(=O)NC(C(=O)NC(C(=O)NC(C(=O)NC(C(=O)NC(C(=O)NC(C(=O)NC(C(=O)NC(C(=O)NC(C(=O)NC(C(=O)NC(C(=O)NCC(=O)NC(C(=O)NC(C(=O)NC(C(=O)NC(C(=O)NCC(=O)NC(C(=O)NC(C(=O)NC(C(=O)NCC(=O)NC(C(=O)NCC(=O)NC(C(=O)NC(C(=O)NC(C(=O)NC(C(=O)NC(C(=O)NC(C(=O)N%10C(C(=O)NC(C(=O)NC(C(=O)NC(C(=O)N%11C(C(=O)NC(C(=O)NC(C(=O)NC(C(=O)NC(C(=O)NC(C(=O)NC(C(=O)NC(C(=O)NCC(=O)NC(C(=O)NC(C(=O)NC(C(=O)NCC(=O)NC(C(=O)NC(C(=O)NC(C(=O)NC(C(=O)N%12C(C(=O)NC(C(=O)NCC(=O)NC(C(=O)NC(C(=O)NC(C(=O)NC(C(=O)NC)CC(=O)N)Cc%13ccc(O)cc%13)CO)CCCNC(=[NH2+])N)CC(=O)[O-])CCC%12)Cc%12ccc(O)cc%12)CC(C)C)Cc%12ccc(O)cc%12)Cc%12ccccc%12)CCC(=O)[O-])C)CO)CC(=O)[O-])C(CC)C)CC(C)C)C)CCC(=O)N)Cc%12ccccc%12)CC(C)C)CCC%11)CCCC[NH3+])CC(=O)N)Cc%11[nH]cnc%11)CCC%10)C(CC)C)C(O)C)CCC(=O)N)CC(C)C)C(CC)C)CC(=O)N)CC(=O)[O-])C(O)C)C(C)C)Cc%10ccc(O)cc%10)C(CC)C)C)Cc%10c%11c([nH]c%10)cccc%11)CCC(=O)N)CC(C)C)CCCNC(=[NH2+])N)C(O)C)CS)CO)CC(C)C)CCCNC(=[NH2+])N)Cc%10ccccc%10)C(CC)C)Cc%10ccc(O)cc%10)CO)CCC9)CCCC[NH3+])C(O)C)CO)Cc9ccc(O)cc9)CCCC[NH3+])CCC(=O)N)CC(C)C)CCCNC(=[NH2+])N)C)CCCC[NH3+])C(C)C)CCC(=O)[O-])CC(=O)[O-])Cc9ccc(O)cc9)C(O)C)CC(C)C)Cc9ccccc9)C)CCSC)Cc9ccc(O)cc9)CCC8)Cc8nc[nH]c8)C(O)C)C(C)C)C)CC(C)C)Cc8ccccc8)CC(=O)N)Cc8c9c([nH]c8)cccc9)CC(=O)N)CCCNC(=[NH2+])N)CC(C)C)C(CC)C)CO)Cc8c9c([nH]c8)cccc9)CCC7)CCC(=O)N)Cc7ccccc7)CC(C)C)CCCNC(=[NH2+])N)C(O)C)Cc7ccccc7)C(CC)C)CC(=O)[O-])Cc7ccccc7)CCC(=O)[O-])Cc7ccccc7)C(C)C)CO)C(CC)C)Cc7ccc(O)cc7)CC(=O)[O-])CC(=O)N)CS)C(O)C)CC(C)C)CC(=O)[O-])C(CC)C)C(O)C)CO)CCCC[NH3+])CC(C)C)C)CCSC)C)CCC(=O)[O-])CC(C)C)CO)CO)C(CC)C)CCC(=O)N)Cc7nc[nH]c7)C(C)C)CCC(=O)[O-])Cc7nc[nH]c7)CC(C)C)CS)CCC(=O)N)CCCNC(=[NH2+])N)Cc7ccccc7)C(C)C)CCCC[NH3+])Cc7c8c([nH]c7)cccc8)CCC6)C(C)C)C(CC)C)C(O)C)CCCC[NH3+])CC(=O)[O-])Cc6ccccc6)Cc6ccccc6)CCCC[NH3+])CCCNC(=[NH2+])N)Cc6c7c([nH]c6)cccc7)Cc6ccccc6)CCC(=O)[O-])C)C)CC(=O)[O-])C)CCCC[NH3+])C(O)C)C(CC)C)CCCNC(=[NH2+])N)Cc6ccccc6)CC(=O)N)CC(=O)[O-])CCC(=O)N)Cc6ccccc6)CCC(=O)N)CC(=O)N)CCC5)Cc5ccccc5)C(CC)C)C)CCCC[NH3+])C(CC)C)CCC(=O)[O-])C)CC(C)C)CCSC)Cc5nc[nH]c5)CO)Cc5ccccc5)C(CC)C)CC(C)C)CO)CC(C)C)CCCC[NH3+])C(O)C)CC(C)C)CC(=O)N)CCCNC(=[NH2+])N)CCCNC(=[NH2+])N)CC(=O)[O-])CCC(=O)N)CO)CCC(=O)N)CCC(=O)[O-])CCC(=O)[O-])Cc5ccc(O)cc5)CCSC)CCCNC(=[NH2+])N)CCC(=O)[O-])CCCC[NH3+])CCC(=O)[O-])CCCC[NH3+])Cc5ccccc5)CC(C)C)CCCNC(=[NH2+])N)C(CC)C)C)CCCNC(=[NH2+])N)CCCC[NH3+])CO)CCCC[NH3+])CCCC[NH3+])CCSC)CC(C)C)CO)CC(=O)[O-])C(CC)C)Cc5ccc(O)cc5)C(CC)C)CCCC[NH3+])Cc5ccccc5)Cc5ccc(O)cc5)CCC(=O)[O-])CC(=O)N)CCC(=O)[O-])CO)CC(C)C)CCC(=O)N)C)CC(C)C)CCCC[NH3+])CCC(=O)N)CC(=O)N)CC(=O)[O-])CC(=O)[O-])Cc5ccc(O)cc5)CCCC[NH3+])CO)CC(C)C)C(CC)C)CC(C)C)CCCNC(=[NH2+])N)CC(C)C)Cc5nc[nH]c5)CCC(=O)N)Cc5ccc(O)cc5)C(O)C)CC(=O)[O-])CCC4)CC(C)C)C(CC)C)CC(=O)[O-])CC(C)C)C(CC)C)Cc4ccc(O)cc4)CCC3)CCC2)CO)CC(=O)N)CCCC[NH3+])CC(C)C)CCC(=O)N)CC(C)C)CCCC[NH3+])CCC1)CC(=O)N)CCC(=O)N)CS)CC(C)C)CCCNC(=[NH2+])N)C(C)C)C(C)C)C)CC(=O)[O-])C.OCCO.[UH+3].[Zn+2].[Zn+2].O.O.O.O.O.O.O.O.O.O.O.O.O.O.O.O.O.O.O.O.O.O.O.O.O.O.O.O.O.O.O.O.O.O.O.O.O.O.O.O.O.O.O.O.O.O.O.O.O.O.O.O.O.O.O.O.O.O.O.O.O.O.O.O.O.O.O.O.O.O.O.O.O.O.O.O.O.O.O.O.O.O.O.O.O.O.O.O.O.O.O.O.O.O.O.O.O.O.O.O.O.O.O.O.O.O.O.O.O.O.O.O.O.O.O.O.O.O.O.O.O.O.O.O.O.O.O.O.O.O.O.O.O.O.O.O.O.O.O.O.O.O

>  <rseq>
1

>  <mseq>
54

>  <S>
-8.1501141

>  <rmsd_refine>
3.3873944

>  <E_conf>
-16.316311

>  <E_place>
-75.301224

>  <E_score1>
-12.403292

>  <E_refine>
-44.176548

>  <E_score2>
-8.1501141

>  <Field_2>
JZ04

>  <pseq>
54

>  <%C>
97.113846

>  <a_heavy>
28

>  <h_logP>
1.1005131

>  <Weight>
380.40799

>  <E_orig>
1.2

>  <PLIF_raw>
[[19,41,48],[5184,3028,3722],[366,218,260],[1,3,2],[0.5,0.9,0.6]]

>  <FP:PLIF>
2 26 8

>  <PLIF_ligidx>
[41,48,19]

$$$$

  MOE2020           3D

 43 46  0  0  0  0  0  0  0  0999 V2000
    4.8550    4.7430   13.9310 C   0  0  0  0  0  0  0  0  0  0  0  0
    4.4760    5.7420   14.0840 H   0  0  0  0  0  0  0  0  0  0  0  0
    4.3750    4.4370   13.0170 H   0  0  0  0  0  0  0  0  0  0  0  0
    4.3720    4.1300   14.6760 H   0  0  0  0  0  0  0  0  0  0  0  0
    6.6180    4.5950   13.9220 S   0  0  0  0  0  0  0  0  0  0  0  0
    6.9100    3.3070   13.3740 O   0  0  0  0  0  0  0  0  0  0  0  0
    7.1630    5.7210   13.2290 O   0  5  0  0  0  0  0  0  0  0  0  0
    7.0700    4.6530   15.4660 N   0  0  0  0  0  0  0  0  0  0  0  0
    6.6310    5.0740   16.6510 C   0  0  0  0  0  0  0  0  0  0  0  0
    7.5070    4.9160   17.7570 C   0  0  0  0  0  0  0  0  0  0  0  0
    8.4760    4.5230   17.5920 H   0  0  0  0  0  0  0  0  0  0  0  0
    7.1150    5.2490   19.0360 C   0  0  0  0  0  0  0  0  0  0  0  0
    7.7890    5.1260   19.8430 H   0  0  0  0  0  0  0  0  0  0  0  0
    5.8320    5.7230   19.2760 C   0  0  0  0  0  0  0  0  0  0  0  0
    5.5170    5.9340   20.2550 H   0  0  0  0  0  0  0  0  0  0  0  0
    4.9390    5.9130   18.2220 C   0  0  0  0  0  0  0  0  0  0  0  0
    3.5850    6.3420   18.5590 C   0  0  0  0  0  0  0  0  0  0  0  0
    2.8200    5.6220   19.1920 O   0  0  0  0  0  0  0  0  0  0  0  0
    3.1680    7.6150   18.2100 N   0  0  0  0  0  0  0  0  0  0  0  0
    3.7170    8.1230   17.5030 H   0  0  0  0  0  0  0  0  0  0  0  0
    2.1480    8.3330   18.8910 C   0  0  0  0  0  0  0  0  0  0  0  0
    1.3800    9.2170   18.3110 N   0  0  0  0  0  0  0  0  0  0  0  0
    0.5300    9.7800   19.2470 C   0  0  0  0  0  0  0  0  0  0  0  0
   -0.5010   10.7660   18.9360 C   0  0  0  0  0  0  0  0  0  0  0  0
   -0.7630   11.9110   19.6380 C   0  0  0  0  0  0  0  0  0  0  0  0
   -0.2510   12.3300   20.4640 H   0  0  0  0  0  0  0  0  0  0  0  0
   -1.8870   12.5100   19.1180 N   0  0  0  0  0  0  0  0  0  0  0  0
   -2.3090   13.3980   19.4370 H   0  0  0  0  0  0  0  0  0  0  0  0
   -2.3720   11.7380   18.0880 C   0  0  0  0  0  0  0  0  0  0  0  0
   -3.5250   11.9010   17.3110 C   0  0  0  0  0  0  0  0  0  0  0  0
   -4.1820   12.7150   17.4770 H   0  0  0  0  0  0  0  0  0  0  0  0
   -3.7720   10.9690   16.3200 C   0  0  0  0  0  0  0  0  0  0  0  0
   -4.6340   11.0580   15.7130 H   0  0  0  0  0  0  0  0  0  0  0  0
   -2.8790    9.8960   16.1110 C   0  0  0  0  0  0  0  0  0  0  0  0
   -3.0790    9.2020   15.3380 H   0  0  0  0  0  0  0  0  0  0  0  0
   -1.7550    9.7440   16.9060 C   0  0  0  0  0  0  0  0  0  0  0  0
   -1.0870    8.9420   16.7510 H   0  0  0  0  0  0  0  0  0  0  0  0
   -1.4990   10.6690   17.9290 C   0  0  0  0  0  0  0  0  0  0  0  0
    0.7020    9.3060   20.5160 C   0  0  0  0  0  0  0  0  0  0  0  0
    0.1650    9.5930   21.3810 H   0  0  0  0  0  0  0  0  0  0  0  0
    1.9130    8.1050   20.5880 S   0  0  0  0  0  0  0  0  0  0  0  0
    5.3480    5.6450   16.9190 C   0  0  0  0  0  0  0  0  0  0  0  0
    4.6740    5.8470   16.1380 H   0  0  0  0  0  0  0  0  0  0  0  0
  1  2  1  0  0  0  0
  1  3  1  0  0  0  0
  1  4  1  0  0  0  0
  1  5  1  0  0  0  0
  5  6  2  0  0  0  0
  5  7  1  0  0  0  0
  5  8  2  0  0  0  0
  8  9  1  0  0  0  0
  9 10  1  0  0  0  0
  9 42  2  0  0  0  0
 10 11  1  0  0  0  0
 10 12  2  0  0  0  0
 12 13  1  0  0  0  0
 12 14  1  0  0  0  0
 14 15  1  0  0  0  0
 14 16  2  0  0  0  0
 16 17  1  0  0  0  0
 16 42  1  0  0  0  0
 17 18  2  0  0  0  0
 17 19  1  0  0  0  0
 19 20  1  0  0  0  0
 19 21  1  0  0  0  0
 21 22  2  0  0  0  0
 21 41  1  0  0  0  0
 22 23  1  0  0  0  0
 23 24  1  0  0  0  0
 23 39  2  0  0  0  0
 24 25  2  0  0  0  0
 24 38  1  0  0  0  0
 25 26  1  0  0  0  0
 25 27  1  0  0  0  0
 27 28  1  0  0  0  0
 27 29  1  0  0  0  0
 29 30  1  0  0  0  0
 29 38  2  0  0  0  0
 30 31  1  0  0  0  0
 30 32  2  0  0  0  0
 32 33  1  0  0  0  0
 32 34  1  0  0  0  0
 34 35  1  0  0  0  0
 34 36  2  0  0  0  0
 36 37  1  0  0  0  0
 36 38  1  0  0  0  0
 39 40  1  0  0  0  0
 39 41  1  0  0  0  0
 42 43  1  0  0  0  0
M  CHG  1   7  -1
M  END
>  <receptor>
S(=O)(=O)([O-])[O-].S(CCC(NC(=O)C(NC(=O)C(NC(=O)CNC(=O)C(NC(=O)C1N(C(=O)C(NC(=O)C(NC(=O)C(NC(=O)C(NC(=O)C(NC(=O)C(NC(=O)C(NC(=O)C(NC(=O)C(NC(=O)C(NC(=O)C(NC(=O)C(NC(=O)C(NC(=O)C(NC(=O)C(NC(=O)C(NC(=O)C(NC(=O)C(NC(=O)C(NC(=O)CNC(=O)C(NC(=O)C(NC(=O)C(NC(=O)C(NC(=O)C(NC(=O)C(NC(=O)C(NC(=O)C(NC(=O)C(NC(=O)C(NC(=O)C(NC(=O)C(NC(=O)C(NC(=O)C)CCCC[NH3+])C(C)C)C(O)C)CCC(=O)N)CCC(=O)[O-])CCC(=O)N)Cc2ccccc2)CCC(=O)[O-])CC(C)C)Cc2ccc(O)cc2)CS)CCC(=O)[O-])CCSC)CO)C(O)C)Cc2ccccc2)CCC(=O)N)CC(C)C)C[S-])CCCC[NH3+])C(CC)C)C[S-])C)CCC(=O)[O-])CC(=O)N)CC(=O)[O-])CCCC[NH3+])CC(=O)[O-])C(C)C)CCCC[NH3+])C(CC)C)CCC(=O)[O-])CCC1)C[S-])Cc1nc[n-]c1)CC(C)C)C(=O)NC(C(=O)NC(C(=O)NC(C(=O)NC(C(=O)NC(C(=O)NC(C(=O)NC(C(=O)NC(C(=O)NC(C(=O)NC(C(=O)NC(C(=O)NC(C(=O)NCC(=O)NC(C(=O)NCC(=O)NC(C(=O)N1C(C(=O)NC(C(=O)NC(C(=O)NC(C(=O)NC(C(=O)NC(C(=O)NC(C(=O)NC(C(=O)NCC(=O)NC(C(=O)NC(C(=O)N2C(C(=O)NC(C(=O)NC(C(=O)NC(C(=O)NC(C(=O)N3C(C(=O)NC(C(=O)NC(C(=O)[O-])CC(=O)[O-])Cc4ccccc4)CCC3)CC(=O)[O-])C(C)C)C(CC)C)C(CC)C)CCC2)CCC(=O)[O-])C(O)C)CCCC[NH3+])C(CC)C)CCC(=O)[O-])CS)CCCNC(=[NH2+])N)C[S-])Cc2ccccc2)CCC1)C[S-])CCC(=O)N)CC(=O)[O-])CO)CCC(=O)[O-])CCC(=O)N)Cc1c2c([nH]c1)cccc2)C)C(O)C)CC(C)C)C[S-])CO)C(O)C)C[S-])C.S(CCC(NC(=O)C(NC(=O)C(NC(=O)C(NC(=O)C(NC(=O)C(NC(=O)C(NC(=O)C(NC(=O)C(NC(=O)C(NC(=O)C(NC(=O)C(NC(=O)C(NC(=O)C(NC(=O)C(NC(=O)C(NC(=O)C[NH3+])CCC(=O)N)C)C)C)CC(=O)[O-])CCCNC(=[NH2+])N)CCCNC(=[NH2+])N)C(O)C)C(C)C)CCC(=O)[O-])CCCC[NH3+])C(O)C)Cc1c2c([nH]c1)cccc2)C)CC(C)C)C(=O)NC(C(=O)NC(C(=O)NC(C(=O)NC(C(=O)NC(C(=O)NC(C(=O)NC(C(=O)NC(C(=O)NC(C(=O)N1C(C(=O)NC(C(=O)NC(C(=O)NC(C(=O)NC(C(=O)NC(C(=O)NC(C(=O)NC(C(=O)N2C(C(=O)N3C(C(=O)NC(C(=O)NC(C(=O)NC(C(=O)NC(C(=O)NC(C(=O)NC(C(=O)N4C(C(=O)NC(C(=O)NC(C(=O)NC(C(=O)NC(C(=O)NC(C(=O)NC(C(=O)NC(C(=O)NC(C(=O)NC(C(=O)NC(C(=O)NC(C(=O)NC(C(=O)NC(C(=O)NC(C(=O)NC(C(=O)NC(C(=O)NC(C(=O)NC(C(=O)NC(C(=O)NC(C(=O)NC(C(=O)NC(C(=O)NC(C(=O)NC(C(=O)NC(C(=O)NC(C(=O)NC(C(=O)NC(C(=O)NC(C(=O)NC(C(=O)NC(C(=O)NC(C(=O)NC(C(=O)NC(C(=O)NC(C(=O)NC(C(=O)NC(C(=O)NC(C(=O)NC(C(=O)NC(C(=O)NC(C(=O)NC(C(=O)NC(C(=O)NC(C(=O)NC(C(=O)NC(C(=O)NC(C(=O)NC(C(=O)NCC(=O)NC(C(=O)NC(C(=O)NC(C(=O)NC(C(=O)NC(C(=O)NC(C(=O)NC(C(=O)NC(C(=O)NC(C(=O)NC(C(=O)NC(C(=O)NC(C(=O)NC(C(=O)NC(C(=O)NC(C(=O)NC(C(=O)NC(C(=O)NC(C(=O)NC(C(=O)NC(C(=O)NC(C(=O)NC(C(=O)NC(C(=O)NC(C(=O)NC(C(=O)NC(C(=O)NC(C(=O)NC(C(=O)NC(C(=O)NC(C(=O)NC(C(=O)NC(C(=O)NC(C(=O)N5C(C(=O)NC(C(=O)NCC(=O)NC(C(=O)NC(C(=O)NC(C(=O)NCC(=O)NC(C(=O)NC(C(=O)NC(C(=O)NC(C(=O)NC(C(=O)NC(C(=O)NC(C(=O)NC(C(=O)NC(C(=O)NC(C(=O)NC(C(=O)NC(C(=O)NC(C(=O)NC(C(=O)NC(C(=O)NC(C(=O)NC(C(=O)NC(C(=O)NCC(=O)NC(C(=O)NC(C(=O)NC(C(=O)NC(C(=O)NC(C(=O)N6C(C(=O)NC(C(=O)NC(C(=O)NC(C(=O)NC(C(=O)NC(C(=O)NC(C(=O)NC(C(=O)NC(C(=O)NC(C(=O)NC(C(=O)NC(C(=O)NC(C(=O)NC(C(=O)NC(C(=O)NC(C(=O)NC(C(=O)NCC(=O)NC(C(=O)NC(C(=O)NC(C(=O)NC(C(=O)NC(C(=O)NC(C(=O)NC(C(=O)NC(C(=O)NC(C(=O)NC(C(=O)NC(C(=O)NC(C(=O)NC(C(=O)NC(C(=O)NC(C(=O)NC(C(=O)NC(C(=O)NC(C(=O)NC(C(=O)NC(C(=O)NC(C(=O)NC(C(=O)NC(C(=O)NC(C(=O)NC(C(=O)NC(C(=O)NC(C(=O)NC(C(=O)NC(C(=O)NC(C(=O)NC(C(=O)N7C(C(=O)NC(C(=O)NCC(=O)NC(C(=O)NC(C(=O)NC(C(=O)NC(C(=O)NC(C(=O)NC(C(=O)NC(C(=O)NC(C(=O)NC(C(=O)NC(C(=O)NC(C(=O)NC(C(=O)NC(C(=O)N8C(C(=O)NCC(=O)NC(C(=O)NC(C(=O)NC(C(=O)NC(C(=O)NC(C(=O)NC(C(=O)NC(C(=O)NC(C(=O)NC(C(=O)NC(C(=O)NC(C(=O)NC(C(=O)NC(C(=O)NC(C(=O)NC(C(=O)NC(C(=O)NC(C(=O)NC(C(=O)NC(C(=O)NC(C(=O)N9C(C(=O)NCC(=O)NC(C(=O)NC(C(=O)NC(C(=O)NC(C(=O)NC(C(=O)NC(C(=O)NC(C(=O)NC(C(=O)NC(C(=O)NC(C(=O)NC(C(=O)NCC(=O)NC(C(=O)NC(C(=O)NC(C(=O)NC(C(=O)NCC(=O)NC(C(=O)NC(C(=O)NC(C(=O)NCC(=O)NC(C(=O)NCC(=O)NC(C(=O)NC(C(=O)NC(C(=O)NC(C(=O)NC(C(=O)NC(C(=O)N%10C(C(=O)NC(C(=O)NC(C(=O)NC(C(=O)N%11C(C(=O)NC(C(=O)NC(C(=O)NC(C(=O)NC(C(=O)NC(C(=O)NC(C(=O)NC(C(=O)NCC(=O)NC(C(=O)NC(C(=O)NC(C(=O)NCC(=O)NC(C(=O)NC(C(=O)NC(C(=O)NC(C(=O)N%12C(C(=O)NC(C(=O)NCC(=O)NC(C(=O)NC(C(=O)NC(C(=O)NC(C(=O)NC)CC(=O)N)Cc%13ccc(O)cc%13)CO)CCCNC(=[NH2+])N)CC(=O)[O-])CCC%12)Cc%12ccc(O)cc%12)CC(C)C)Cc%12ccc(O)cc%12)Cc%12ccccc%12)CCC(=O)[O-])C)CO)CC(=O)[O-])C(CC)C)CC(C)C)C)CCC(=O)N)Cc%12ccccc%12)CC(C)C)CCC%11)CCCC[NH3+])CC(=O)N)Cc%11[nH]cnc%11)CCC%10)C(CC)C)C(O)C)CCC(=O)N)CC(C)C)C(CC)C)CC(=O)N)CC(=O)[O-])C(O)C)C(C)C)Cc%10ccc(O)cc%10)C(CC)C)C)Cc%10c%11c([nH]c%10)cccc%11)CCC(=O)N)CC(C)C)CCCNC(=[NH2+])N)C(O)C)CS)CO)CC(C)C)CCCNC(=[NH2+])N)Cc%10ccccc%10)C(CC)C)Cc%10ccc(O)cc%10)CO)CCC9)CCCC[NH3+])C(O)C)CO)Cc9ccc(O)cc9)CCCC[NH3+])CCC(=O)N)CC(C)C)CCCNC(=[NH2+])N)C)CCCC[NH3+])C(C)C)CCC(=O)[O-])CC(=O)[O-])Cc9ccc(O)cc9)C(O)C)CC(C)C)Cc9ccccc9)C)CCSC)Cc9ccc(O)cc9)CCC8)Cc8nc[nH]c8)C(O)C)C(C)C)C)CC(C)C)Cc8ccccc8)CC(=O)N)Cc8c9c([nH]c8)cccc9)CC(=O)N)CCCNC(=[NH2+])N)CC(C)C)C(CC)C)CO)Cc8c9c([nH]c8)cccc9)CCC7)CCC(=O)N)Cc7ccccc7)CC(C)C)CCCNC(=[NH2+])N)C(O)C)Cc7ccccc7)C(CC)C)CC(=O)[O-])Cc7ccccc7)CCC(=O)[O-])Cc7ccccc7)C(C)C)CO)C(CC)C)Cc7ccc(O)cc7)CC(=O)[O-])CC(=O)N)CS)C(O)C)CC(C)C)CC(=O)[O-])C(CC)C)C(O)C)CO)CCCC[NH3+])CC(C)C)C)CCSC)C)CCC(=O)[O-])CC(C)C)CO)CO)C(CC)C)CCC(=O)N)Cc7nc[nH]c7)C(C)C)CCC(=O)[O-])Cc7nc[nH]c7)CC(C)C)CS)CCC(=O)N)CCCNC(=[NH2+])N)Cc7ccccc7)C(C)C)CCCC[NH3+])Cc7c8c([nH]c7)cccc8)CCC6)C(C)C)C(CC)C)C(O)C)CCCC[NH3+])CC(=O)[O-])Cc6ccccc6)Cc6ccccc6)CCCC[NH3+])CCCNC(=[NH2+])N)Cc6c7c([nH]c6)cccc7)Cc6ccccc6)CCC(=O)[O-])C)C)CC(=O)[O-])C)CCCC[NH3+])C(O)C)C(CC)C)CCCNC(=[NH2+])N)Cc6ccccc6)CC(=O)N)CC(=O)[O-])CCC(=O)N)Cc6ccccc6)CCC(=O)N)CC(=O)N)CCC5)Cc5ccccc5)C(CC)C)C)CCCC[NH3+])C(CC)C)CCC(=O)[O-])C)CC(C)C)CCSC)Cc5nc[nH]c5)CO)Cc5ccccc5)C(CC)C)CC(C)C)CO)CC(C)C)CCCC[NH3+])C(O)C)CC(C)C)CC(=O)N)CCCNC(=[NH2+])N)CCCNC(=[NH2+])N)CC(=O)[O-])CCC(=O)N)CO)CCC(=O)N)CCC(=O)[O-])CCC(=O)[O-])Cc5ccc(O)cc5)CCSC)CCCNC(=[NH2+])N)CCC(=O)[O-])CCCC[NH3+])CCC(=O)[O-])CCCC[NH3+])Cc5ccccc5)CC(C)C)CCCNC(=[NH2+])N)C(CC)C)C)CCCNC(=[NH2+])N)CCCC[NH3+])CO)CCCC[NH3+])CCCC[NH3+])CCSC)CC(C)C)CO)CC(=O)[O-])C(CC)C)Cc5ccc(O)cc5)C(CC)C)CCCC[NH3+])Cc5ccccc5)Cc5ccc(O)cc5)CCC(=O)[O-])CC(=O)N)CCC(=O)[O-])CO)CC(C)C)CCC(=O)N)C)CC(C)C)CCCC[NH3+])CCC(=O)N)CC(=O)N)CC(=O)[O-])CC(=O)[O-])Cc5ccc(O)cc5)CCCC[NH3+])CO)CC(C)C)C(CC)C)CC(C)C)CCCNC(=[NH2+])N)CC(C)C)Cc5nc[nH]c5)CCC(=O)N)Cc5ccc(O)cc5)C(O)C)CC(=O)[O-])CCC4)CC(C)C)C(CC)C)CC(=O)[O-])CC(C)C)C(CC)C)Cc4ccc(O)cc4)CCC3)CCC2)CO)CC(=O)N)CCCC[NH3+])CC(C)C)CCC(=O)N)CC(C)C)CCCC[NH3+])CCC1)CC(=O)N)CCC(=O)N)CS)CC(C)C)CCCNC(=[NH2+])N)C(C)C)C(C)C)C)CC(=O)[O-])C.OCCO.[UH+3].[Zn+2].[Zn+2].O.O.O.O.O.O.O.O.O.O.O.O.O.O.O.O.O.O.O.O.O.O.O.O.O.O.O.O.O.O.O.O.O.O.O.O.O.O.O.O.O.O.O.O.O.O.O.O.O.O.O.O.O.O.O.O.O.O.O.O.O.O.O.O.O.O.O.O.O.O.O.O.O.O.O.O.O.O.O.O.O.O.O.O.O.O.O.O.O.O.O.O.O.O.O.O.O.O.O.O.O.O.O.O.O.O.O.O.O.O.O.O.O.O.O.O.O.O.O.O.O.O.O.O.O.O.O.O.O.O.O.O.O.O.O.O.O.O.O.O.O.O

>  <rseq>
1

>  <mseq>
55

>  <S>
-7.5074797

>  <rmsd_refine>
1.3136824

>  <E_conf>
-16.497065

>  <E_place>
-71.722023

>  <E_score1>
-12.680151

>  <E_refine>
-33.830296

>  <E_score2>
-7.5074797

>  <Field_2>
JZ05

>  <pseq>
55

>  <%C>
70.016495

>  <a_heavy>
28

>  <h_logP>
3.8433201

>  <Weight>
411.48599

>  <E_orig>
1.8

>  <PLIF_raw>
[18,6345,220688,6,0.7]

>  <FP:PLIF>
3

>  <PLIF_ligidx>
18

$$$$

  MOE2020           3D

 55 58  0  0  0  0  0  0  0  0999 V2000
    6.9920    4.0660   12.3460 C   0  0  0  0  0  0  0  0  0  0  0  0
    7.4640    3.1140   12.1700 H   0  0  0  0  0  0  0  0  0  0  0  0
    7.6390    4.8170   11.9140 H   0  0  0  0  0  0  0  0  0  0  0  0
    6.0660    4.0950   11.8010 H   0  0  0  0  0  0  0  0  0  0  0  0
    6.7950    4.2980   13.8220 C   0  0  0  0  0  0  0  0  0  0  0  0
    7.5780    5.1120   14.5670 C   0  0  0  0  0  0  0  0  0  0  0  0
    8.3690    5.6580   14.1230 H   0  0  0  0  0  0  0  0  0  0  0  0
    7.3560    5.2370   15.9750 C   0  0  0  0  0  0  0  0  0  0  0  0
    8.0400    6.0580   16.6760 N   0  0  0  0  0  0  0  0  0  0  0  0
    7.8930    6.2880   18.2910 S   0  0  0  0  0  0  0  0  0  0  0  0
    8.4260    5.1610   18.9880 O   0  0  0  0  0  0  0  0  0  0  0  0
    8.4430    7.5630   18.6240 O   0  0  0  0  0  0  0  0  0  0  0  0
    6.1210    6.3600   18.5860 C   0  0  0  0  0  0  0  0  0  0  0  0
    5.4790    5.4950   19.4750 C   0  0  0  0  0  0  0  0  0  0  0  0
    6.0390    4.7400   19.9620 H   0  0  0  0  0  0  0  0  0  0  0  0
    4.1190    5.6300   19.7350 C   0  0  0  0  0  0  0  0  0  0  0  0
    3.6320    4.9900   20.4210 H   0  0  0  0  0  0  0  0  0  0  0  0
    3.4060    6.6580   19.1260 C   0  0  0  0  0  0  0  0  0  0  0  0
    2.1390    6.9740   19.6800 N   0  0  0  0  0  0  0  0  0  0  0  0
    1.7040    6.2470   20.2680 H   0  0  0  0  0  0  0  0  0  0  0  0
    1.6040    8.2460   19.7850 C   0  0  0  0  0  0  0  0  0  0  0  0
    1.9720    9.1610   19.0760 O   0  0  0  0  0  0  0  0  0  0  0  0
    0.5940    8.4710   20.8850 C   0  0  0  0  0  0  0  0  0  0  0  0
   -0.2990    8.9110   20.4630 H   0  0  0  0  0  0  0  0  0  0  0  0
    0.2760    7.5290   21.3060 H   0  0  0  0  0  0  0  0  0  0  0  0
    1.1440    9.3700   22.0060 C   0  0  0  0  0  0  0  0  0  0  0  0
    2.2030    9.5350   21.8640 H   0  0  0  0  0  0  0  0  0  0  0  0
    1.0750    8.8420   22.9480 H   0  0  0  0  0  0  0  0  0  0  0  0
    0.4500   10.6530   22.1100 N   0  0  0  0  0  0  0  0  0  0  0  0
    0.6950   11.7910   21.3420 C   0  0  0  0  0  0  0  0  0  0  0  0
    1.6560   11.9140   20.5980 O   0  0  0  0  0  0  0  0  0  0  0  0
   -0.3560   12.7390   21.6310 C   0  0  0  0  0  0  0  0  0  0  0  0
   -0.6130   14.0110   21.1220 C   0  0  0  0  0  0  0  0  0  0  0  0
    0.0240   14.4390   20.3900 H   0  0  0  0  0  0  0  0  0  0  0  0
   -1.7300   14.7050   21.5860 C   0  0  0  0  0  0  0  0  0  0  0  0
   -1.9460   15.6710   21.2050 H   0  0  0  0  0  0  0  0  0  0  0  0
   -2.5750   14.1310   22.5440 C   0  0  0  0  0  0  0  0  0  0  0  0
   -3.4240   14.6650   22.8860 H   0  0  0  0  0  0  0  0  0  0  0  0
   -2.3110   12.8570   23.0440 C   0  0  0  0  0  0  0  0  0  0  0  0
   -2.9520   12.4140   23.7610 H   0  0  0  0  0  0  0  0  0  0  0  0
   -1.1910   12.1720   22.5760 C   0  0  0  0  0  0  0  0  0  0  0  0
   -0.6770   10.8630   22.8950 C   0  0  0  0  0  0  0  0  0  0  0  0
   -1.0870   10.0430   23.7000 O   0  0  0  0  0  0  0  0  0  0  0  0
    3.9920    7.4040   18.1040 C   0  0  0  0  0  0  0  0  0  0  0  0
    3.4160    8.0900   17.5450 H   0  0  0  0  0  0  0  0  0  0  0  0
    5.3530    7.2670   17.8600 C   0  0  0  0  0  0  0  0  0  0  0  0
    5.8300    7.8600   17.1260 H   0  0  0  0  0  0  0  0  0  0  0  0
    6.3400    4.4690   16.5390 N   0  0  0  0  0  0  0  0  0  0  0  0
    5.5760    3.7320   15.8320 C   0  0  0  0  0  0  0  0  0  0  0  0
    4.4350    2.9850   16.4720 C   0  0  0  0  0  0  0  0  0  0  0  0
    4.6910    1.9560   16.6420 H   0  0  0  0  0  0  0  0  0  0  0  0
    3.5380    3.0100   15.8760 H   0  0  0  0  0  0  0  0  0  0  0  0
    4.1900    3.4030   17.4380 H   0  0  0  0  0  0  0  0  0  0  0  0
    5.7710    3.6140   14.4660 N   0  0  0  0  0  0  0  0  0  0  0  0
    5.1480    2.9940   13.9240 H   0  0  0  0  0  0  0  0  0  0  0  0
  1  2  1  0  0  0  0
  1  3  1  0  0  0  0
  1  4  1  0  0  0  0
  1  5  1  0  0  0  0
  5  6  2  0  0  0  0
  5 54  1  0  0  0  0
  6  7  1  0  0  0  0
  6  8  1  0  0  0  0
  8  9  2  0  0  0  0
  8 48  1  0  0  0  0
  9 10  1  0  0  0  0
 10 11  2  0  0  0  0
 10 12  2  0  0  0  0
 10 13  1  0  0  0  0
 13 14  1  0  0  0  0
 13 46  2  0  0  0  0
 14 15  1  0  0  0  0
 14 16  2  0  0  0  0
 16 17  1  0  0  0  0
 16 18  1  0  0  0  0
 18 19  1  0  0  0  0
 18 44  2  0  0  0  0
 19 20  1  0  0  0  0
 19 21  1  0  0  0  0
 21 22  2  0  0  0  0
 21 23  1  0  0  0  0
 23 24  1  0  0  0  0
 23 25  1  0  0  0  0
 23 26  1  0  0  0  0
 26 27  1  0  0  0  0
 26 28  1  0  0  0  0
 26 29  1  0  0  0  0
 29 30  1  0  0  0  0
 29 42  1  0  0  0  0
 30 31  2  0  0  0  0
 30 32  1  0  0  0  0
 32 33  1  0  0  0  0
 32 41  2  0  0  0  0
 33 34  1  0  0  0  0
 33 35  2  0  0  0  0
 35 36  1  0  0  0  0
 35 37  1  0  0  0  0
 37 38  1  0  0  0  0
 37 39  2  0  0  0  0
 39 40  1  0  0  0  0
 39 41  1  0  0  0  0
 41 42  1  0  0  0  0
 42 43  2  0  0  0  0
 44 45  1  0  0  0  0
 44 46  1  0  0  0  0
 46 47  1  0  0  0  0
 48 49  2  0  0  0  0
 49 50  1  0  0  0  0
 49 54  1  0  0  0  0
 50 51  1  0  0  0  0
 50 52  1  0  0  0  0
 50 53  1  0  0  0  0
 54 55  1  0  0  0  0
M  END
>  <receptor>
S(=O)(=O)([O-])[O-].S(CCC(NC(=O)C(NC(=O)C(NC(=O)CNC(=O)C(NC(=O)C1N(C(=O)C(NC(=O)C(NC(=O)C(NC(=O)C(NC(=O)C(NC(=O)C(NC(=O)C(NC(=O)C(NC(=O)C(NC(=O)C(NC(=O)C(NC(=O)C(NC(=O)C(NC(=O)C(NC(=O)C(NC(=O)C(NC(=O)C(NC(=O)C(NC(=O)C(NC(=O)CNC(=O)C(NC(=O)C(NC(=O)C(NC(=O)C(NC(=O)C(NC(=O)C(NC(=O)C(NC(=O)C(NC(=O)C(NC(=O)C(NC(=O)C(NC(=O)C(NC(=O)C(NC(=O)C)CCCC[NH3+])C(C)C)C(O)C)CCC(=O)N)CCC(=O)[O-])CCC(=O)N)Cc2ccccc2)CCC(=O)[O-])CC(C)C)Cc2ccc(O)cc2)CS)CCC(=O)[O-])CCSC)CO)C(O)C)Cc2ccccc2)CCC(=O)N)CC(C)C)C[S-])CCCC[NH3+])C(CC)C)C[S-])C)CCC(=O)[O-])CC(=O)N)CC(=O)[O-])CCCC[NH3+])CC(=O)[O-])C(C)C)CCCC[NH3+])C(CC)C)CCC(=O)[O-])CCC1)C[S-])Cc1nc[n-]c1)CC(C)C)C(=O)NC(C(=O)NC(C(=O)NC(C(=O)NC(C(=O)NC(C(=O)NC(C(=O)NC(C(=O)NC(C(=O)NC(C(=O)NC(C(=O)NC(C(=O)NC(C(=O)NCC(=O)NC(C(=O)NCC(=O)NC(C(=O)N1C(C(=O)NC(C(=O)NC(C(=O)NC(C(=O)NC(C(=O)NC(C(=O)NC(C(=O)NC(C(=O)NCC(=O)NC(C(=O)NC(C(=O)N2C(C(=O)NC(C(=O)NC(C(=O)NC(C(=O)NC(C(=O)N3C(C(=O)NC(C(=O)NC(C(=O)[O-])CC(=O)[O-])Cc4ccccc4)CCC3)CC(=O)[O-])C(C)C)C(CC)C)C(CC)C)CCC2)CCC(=O)[O-])C(O)C)CCCC[NH3+])C(CC)C)CCC(=O)[O-])CS)CCCNC(=[NH2+])N)C[S-])Cc2ccccc2)CCC1)C[S-])CCC(=O)N)CC(=O)[O-])CO)CCC(=O)[O-])CCC(=O)N)Cc1c2c([nH]c1)cccc2)C)C(O)C)CC(C)C)C[S-])CO)C(O)C)C[S-])C.S(CCC(NC(=O)C(NC(=O)C(NC(=O)C(NC(=O)C(NC(=O)C(NC(=O)C(NC(=O)C(NC(=O)C(NC(=O)C(NC(=O)C(NC(=O)C(NC(=O)C(NC(=O)C(NC(=O)C(NC(=O)C(NC(=O)C[NH3+])CCC(=O)N)C)C)C)CC(=O)[O-])CCCNC(=[NH2+])N)CCCNC(=[NH2+])N)C(O)C)C(C)C)CCC(=O)[O-])CCCC[NH3+])C(O)C)Cc1c2c([nH]c1)cccc2)C)CC(C)C)C(=O)NC(C(=O)NC(C(=O)NC(C(=O)NC(C(=O)NC(C(=O)NC(C(=O)NC(C(=O)NC(C(=O)NC(C(=O)N1C(C(=O)NC(C(=O)NC(C(=O)NC(C(=O)NC(C(=O)NC(C(=O)NC(C(=O)NC(C(=O)N2C(C(=O)N3C(C(=O)NC(C(=O)NC(C(=O)NC(C(=O)NC(C(=O)NC(C(=O)NC(C(=O)N4C(C(=O)NC(C(=O)NC(C(=O)NC(C(=O)NC(C(=O)NC(C(=O)NC(C(=O)NC(C(=O)NC(C(=O)NC(C(=O)NC(C(=O)NC(C(=O)NC(C(=O)NC(C(=O)NC(C(=O)NC(C(=O)NC(C(=O)NC(C(=O)NC(C(=O)NC(C(=O)NC(C(=O)NC(C(=O)NC(C(=O)NC(C(=O)NC(C(=O)NC(C(=O)NC(C(=O)NC(C(=O)NC(C(=O)NC(C(=O)NC(C(=O)NC(C(=O)NC(C(=O)NC(C(=O)NC(C(=O)NC(C(=O)NC(C(=O)NC(C(=O)NC(C(=O)NC(C(=O)NC(C(=O)NC(C(=O)NC(C(=O)NC(C(=O)NC(C(=O)NC(C(=O)NC(C(=O)NC(C(=O)NC(C(=O)NCC(=O)NC(C(=O)NC(C(=O)NC(C(=O)NC(C(=O)NC(C(=O)NC(C(=O)NC(C(=O)NC(C(=O)NC(C(=O)NC(C(=O)NC(C(=O)NC(C(=O)NC(C(=O)NC(C(=O)NC(C(=O)NC(C(=O)NC(C(=O)NC(C(=O)NC(C(=O)NC(C(=O)NC(C(=O)NC(C(=O)NC(C(=O)NC(C(=O)NC(C(=O)NC(C(=O)NC(C(=O)NC(C(=O)NC(C(=O)NC(C(=O)NC(C(=O)NC(C(=O)NC(C(=O)N5C(C(=O)NC(C(=O)NCC(=O)NC(C(=O)NC(C(=O)NC(C(=O)NCC(=O)NC(C(=O)NC(C(=O)NC(C(=O)NC(C(=O)NC(C(=O)NC(C(=O)NC(C(=O)NC(C(=O)NC(C(=O)NC(C(=O)NC(C(=O)NC(C(=O)NC(C(=O)NC(C(=O)NC(C(=O)NC(C(=O)NC(C(=O)NC(C(=O)NCC(=O)NC(C(=O)NC(C(=O)NC(C(=O)NC(C(=O)NC(C(=O)N6C(C(=O)NC(C(=O)NC(C(=O)NC(C(=O)NC(C(=O)NC(C(=O)NC(C(=O)NC(C(=O)NC(C(=O)NC(C(=O)NC(C(=O)NC(C(=O)NC(C(=O)NC(C(=O)NC(C(=O)NC(C(=O)NC(C(=O)NCC(=O)NC(C(=O)NC(C(=O)NC(C(=O)NC(C(=O)NC(C(=O)NC(C(=O)NC(C(=O)NC(C(=O)NC(C(=O)NC(C(=O)NC(C(=O)NC(C(=O)NC(C(=O)NC(C(=O)NC(C(=O)NC(C(=O)NC(C(=O)NC(C(=O)NC(C(=O)NC(C(=O)NC(C(=O)NC(C(=O)NC(C(=O)NC(C(=O)NC(C(=O)NC(C(=O)NC(C(=O)NC(C(=O)NC(C(=O)NC(C(=O)NC(C(=O)N7C(C(=O)NC(C(=O)NCC(=O)NC(C(=O)NC(C(=O)NC(C(=O)NC(C(=O)NC(C(=O)NC(C(=O)NC(C(=O)NC(C(=O)NC(C(=O)NC(C(=O)NC(C(=O)NC(C(=O)NC(C(=O)N8C(C(=O)NCC(=O)NC(C(=O)NC(C(=O)NC(C(=O)NC(C(=O)NC(C(=O)NC(C(=O)NC(C(=O)NC(C(=O)NC(C(=O)NC(C(=O)NC(C(=O)NC(C(=O)NC(C(=O)NC(C(=O)NC(C(=O)NC(C(=O)NC(C(=O)NC(C(=O)NC(C(=O)NC(C(=O)N9C(C(=O)NCC(=O)NC(C(=O)NC(C(=O)NC(C(=O)NC(C(=O)NC(C(=O)NC(C(=O)NC(C(=O)NC(C(=O)NC(C(=O)NC(C(=O)NC(C(=O)NCC(=O)NC(C(=O)NC(C(=O)NC(C(=O)NC(C(=O)NCC(=O)NC(C(=O)NC(C(=O)NC(C(=O)NCC(=O)NC(C(=O)NCC(=O)NC(C(=O)NC(C(=O)NC(C(=O)NC(C(=O)NC(C(=O)NC(C(=O)N%10C(C(=O)NC(C(=O)NC(C(=O)NC(C(=O)N%11C(C(=O)NC(C(=O)NC(C(=O)NC(C(=O)NC(C(=O)NC(C(=O)NC(C(=O)NC(C(=O)NCC(=O)NC(C(=O)NC(C(=O)NC(C(=O)NCC(=O)NC(C(=O)NC(C(=O)NC(C(=O)NC(C(=O)N%12C(C(=O)NC(C(=O)NCC(=O)NC(C(=O)NC(C(=O)NC(C(=O)NC(C(=O)NC)CC(=O)N)Cc%13ccc(O)cc%13)CO)CCCNC(=[NH2+])N)CC(=O)[O-])CCC%12)Cc%12ccc(O)cc%12)CC(C)C)Cc%12ccc(O)cc%12)Cc%12ccccc%12)CCC(=O)[O-])C)CO)CC(=O)[O-])C(CC)C)CC(C)C)C)CCC(=O)N)Cc%12ccccc%12)CC(C)C)CCC%11)CCCC[NH3+])CC(=O)N)Cc%11[nH]cnc%11)CCC%10)C(CC)C)C(O)C)CCC(=O)N)CC(C)C)C(CC)C)CC(=O)N)CC(=O)[O-])C(O)C)C(C)C)Cc%10ccc(O)cc%10)C(CC)C)C)Cc%10c%11c([nH]c%10)cccc%11)CCC(=O)N)CC(C)C)CCCNC(=[NH2+])N)C(O)C)CS)CO)CC(C)C)CCCNC(=[NH2+])N)Cc%10ccccc%10)C(CC)C)Cc%10ccc(O)cc%10)CO)CCC9)CCCC[NH3+])C(O)C)CO)Cc9ccc(O)cc9)CCCC[NH3+])CCC(=O)N)CC(C)C)CCCNC(=[NH2+])N)C)CCCC[NH3+])C(C)C)CCC(=O)[O-])CC(=O)[O-])Cc9ccc(O)cc9)C(O)C)CC(C)C)Cc9ccccc9)C)CCSC)Cc9ccc(O)cc9)CCC8)Cc8nc[nH]c8)C(O)C)C(C)C)C)CC(C)C)Cc8ccccc8)CC(=O)N)Cc8c9c([nH]c8)cccc9)CC(=O)N)CCCNC(=[NH2+])N)CC(C)C)C(CC)C)CO)Cc8c9c([nH]c8)cccc9)CCC7)CCC(=O)N)Cc7ccccc7)CC(C)C)CCCNC(=[NH2+])N)C(O)C)Cc7ccccc7)C(CC)C)CC(=O)[O-])Cc7ccccc7)CCC(=O)[O-])Cc7ccccc7)C(C)C)CO)C(CC)C)Cc7ccc(O)cc7)CC(=O)[O-])CC(=O)N)CS)C(O)C)CC(C)C)CC(=O)[O-])C(CC)C)C(O)C)CO)CCCC[NH3+])CC(C)C)C)CCSC)C)CCC(=O)[O-])CC(C)C)CO)CO)C(CC)C)CCC(=O)N)Cc7nc[nH]c7)C(C)C)CCC(=O)[O-])Cc7nc[nH]c7)CC(C)C)CS)CCC(=O)N)CCCNC(=[NH2+])N)Cc7ccccc7)C(C)C)CCCC[NH3+])Cc7c8c([nH]c7)cccc8)CCC6)C(C)C)C(CC)C)C(O)C)CCCC[NH3+])CC(=O)[O-])Cc6ccccc6)Cc6ccccc6)CCCC[NH3+])CCCNC(=[NH2+])N)Cc6c7c([nH]c6)cccc7)Cc6ccccc6)CCC(=O)[O-])C)C)CC(=O)[O-])C)CCCC[NH3+])C(O)C)C(CC)C)CCCNC(=[NH2+])N)Cc6ccccc6)CC(=O)N)CC(=O)[O-])CCC(=O)N)Cc6ccccc6)CCC(=O)N)CC(=O)N)CCC5)Cc5ccccc5)C(CC)C)C)CCCC[NH3+])C(CC)C)CCC(=O)[O-])C)CC(C)C)CCSC)Cc5nc[nH]c5)CO)Cc5ccccc5)C(CC)C)CC(C)C)CO)CC(C)C)CCCC[NH3+])C(O)C)CC(C)C)CC(=O)N)CCCNC(=[NH2+])N)CCCNC(=[NH2+])N)CC(=O)[O-])CCC(=O)N)CO)CCC(=O)N)CCC(=O)[O-])CCC(=O)[O-])Cc5ccc(O)cc5)CCSC)CCCNC(=[NH2+])N)CCC(=O)[O-])CCCC[NH3+])CCC(=O)[O-])CCCC[NH3+])Cc5ccccc5)CC(C)C)CCCNC(=[NH2+])N)C(CC)C)C)CCCNC(=[NH2+])N)CCCC[NH3+])CO)CCCC[NH3+])CCCC[NH3+])CCSC)CC(C)C)CO)CC(=O)[O-])C(CC)C)Cc5ccc(O)cc5)C(CC)C)CCCC[NH3+])Cc5ccccc5)Cc5ccc(O)cc5)CCC(=O)[O-])CC(=O)N)CCC(=O)[O-])CO)CC(C)C)CCC(=O)N)C)CC(C)C)CCCC[NH3+])CCC(=O)N)CC(=O)N)CC(=O)[O-])CC(=O)[O-])Cc5ccc(O)cc5)CCCC[NH3+])CO)CC(C)C)C(CC)C)CC(C)C)CCCNC(=[NH2+])N)CC(C)C)Cc5nc[nH]c5)CCC(=O)N)Cc5ccc(O)cc5)C(O)C)CC(=O)[O-])CCC4)CC(C)C)C(CC)C)CC(=O)[O-])CC(C)C)C(CC)C)Cc4ccc(O)cc4)CCC3)CCC2)CO)CC(=O)N)CCCC[NH3+])CC(C)C)CCC(=O)N)CC(C)C)CCCC[NH3+])CCC1)CC(=O)N)CCC(=O)N)CS)CC(C)C)CCCNC(=[NH2+])N)C(C)C)C(C)C)C)CC(=O)[O-])C.OCCO.[UH+3].[Zn+2].[Zn+2].O.O.O.O.O.O.O.O.O.O.O.O.O.O.O.O.O.O.O.O.O.O.O.O.O.O.O.O.O.O.O.O.O.O.O.O.O.O.O.O.O.O.O.O.O.O.O.O.O.O.O.O.O.O.O.O.O.O.O.O.O.O.O.O.O.O.O.O.O.O.O.O.O.O.O.O.O.O.O.O.O.O.O.O.O.O.O.O.O.O.O.O.O.O.O.O.O.O.O.O.O.O.O.O.O.O.O.O.O.O.O.O.O.O.O.O.O.O.O.O.O.O.O.O.O.O.O.O.O.O.O.O.O.O.O.O.O.O.O.O.O.O

>  <rseq>
1

>  <mseq>
56

>  <S>
-9.183219

>  <rmsd_refine>
2.3970411

>  <E_conf>
-152.87897

>  <E_place>
-79.018608

>  <E_score1>
-14.271188

>  <E_refine>
-46.496452

>  <E_score2>
-9.183219

>  <Field_2>
JZ06

>  <pseq>
56

>  <%C>
93.042603

>  <a_heavy>
34

>  <h_logP>
3.355804

>  <Weight>
479.517

>  <E_orig>
2.5999999

>  <PLIF_raw>
[[26,5,6,8,48,49,54,13,46,44,18,16,14],[5184,3036,3036,3036,3036,3036,3036,6345,6345,6345,6345,6345,6345],[366,219,219,219,219,219,219,220688,220688,220688,220688,220688,220688],[1,10,10,10,10,10,10,10,10,10,10,10,10],[0.9,2.8,2.8,2.8,2.8,2.8,2.8,0.5,0.5,0.5,0.5,0.5,0.5]]

>  <FP:PLIF>
21 25 8 37

>  <PLIF_ligidx>
[[5,6,8,48,49,54],[5,6,8,48,49,54],26,[13,46,44,18,16,14]]

$$$$

  MOE2020           3D

 39 42  0  0  0  0  0  0  0  0999 V2000
   -2.4870   11.4810   16.2820 C   0  0  0  0  0  0  0  0  0  0  0  0
   -2.0410   10.4980   16.3340 H   0  0  0  0  0  0  0  0  0  0  0  0
   -2.7820   11.6410   15.2540 H   0  0  0  0  0  0  0  0  0  0  0  0
   -1.7100   12.1970   16.5090 H   0  0  0  0  0  0  0  0  0  0  0  0
   -3.6100   11.6170   17.1940 N   0  0  0  0  0  0  0  0  0  0  0  0
   -4.8510   11.5910   16.7650 N   0  0  0  0  0  0  0  0  0  0  0  0
   -5.5850   11.7590   17.8280 N   0  0  0  0  0  0  0  0  0  0  0  0
   -4.8050   11.8830   18.9250 N   0  0  0  0  0  0  0  0  0  0  0  0
   -3.5800   11.7830   18.5170 C   0  0  0  0  0  0  0  0  0  0  0  0
   -2.3690   11.8190   19.3290 C   0  0  0  0  0  0  0  0  0  0  0  0
   -2.2190   12.8000   20.3210 C   0  0  0  0  0  0  0  0  0  0  0  0
   -2.9610   13.5500   20.4300 H   0  0  0  0  0  0  0  0  0  0  0  0
   -1.1160   12.7950   21.1720 C   0  0  0  0  0  0  0  0  0  0  0  0
   -1.0260   13.5420   21.9180 H   0  0  0  0  0  0  0  0  0  0  0  0
   -0.1380   11.8150   21.0480 C   0  0  0  0  0  0  0  0  0  0  0  0
    0.6990   11.8060   21.6960 H   0  0  0  0  0  0  0  0  0  0  0  0
   -0.2710   10.8490   20.0510 C   0  0  0  0  0  0  0  0  0  0  0  0
    0.7140    9.8440   19.9350 N   0  0  0  0  0  0  0  0  0  0  0  0
    0.9850    9.3140   20.7770 H   0  0  0  0  0  0  0  0  0  0  0  0
    1.3470    9.5160   18.7500 C   0  0  0  0  0  0  0  0  0  0  0  0
    1.2270   10.2630   17.7830 O   0  0  0  0  0  0  0  0  0  0  0  0
    2.1280    8.3060   18.7180 C   0  0  0  0  0  0  0  0  0  0  0  0
    2.9470    7.8480   17.7370 C   0  0  0  0  0  0  0  0  0  0  0  0
    3.1090    8.3360   16.8170 H   0  0  0  0  0  0  0  0  0  0  0  0
    3.4780    6.6170   18.1360 C   0  0  0  0  0  0  0  0  0  0  0  0
    4.3910    5.6870   17.5910 C   0  0  0  0  0  0  0  0  0  0  0  0
    5.1930    5.9640   16.3260 C   0  0  0  0  0  0  0  0  0  0  0  0
    5.5850    4.8440   15.6930 F   0  0  0  0  0  0  0  0  0  0  0  0
    4.5180    6.6800   15.4170 F   0  0  0  0  0  0  0  0  0  0  0  0
    6.3110    6.6600   16.5900 F   0  0  0  0  0  0  0  0  0  0  0  0
    4.5630    4.5170   18.2960 C   0  0  0  0  0  0  0  0  0  0  0  0
    5.2320    3.7690   17.9570 H   0  0  0  0  0  0  0  0  0  0  0  0
    3.8430    4.2720   19.5090 C   0  0  0  0  0  0  0  0  0  0  0  0
    3.9430    3.1580   20.0850 O   0  5  0  0  0  0  0  0  0  0  0  0
    3.0350    5.2210   20.0560 N   0  0  0  0  0  0  0  0  0  0  0  0
    2.8930    6.3370   19.3650 C   0  0  0  0  0  0  0  0  0  0  0  0
    2.0990    7.3850   19.7540 O   0  0  0  0  0  0  0  0  0  0  0  0
   -1.3720   10.8450   19.1940 C   0  0  0  0  0  0  0  0  0  0  0  0
   -1.4670   10.0840   18.4640 H   0  0  0  0  0  0  0  0  0  0  0  0
  1  2  1  0  0  0  0
  1  3  1  0  0  0  0
  1  4  1  0  0  0  0
  1  5  1  0  0  0  0
  5  6  1  0  0  0  0
  5  9  1  0  0  0  0
  6  7  2  0  0  0  0
  7  8  1  0  0  0  0
  8  9  2  0  0  0  0
  9 10  1  0  0  0  0
 10 11  1  0  0  0  0
 10 38  2  0  0  0  0
 11 12  1  0  0  0  0
 11 13  2  0  0  0  0
 13 14  1  0  0  0  0
 13 15  1  0  0  0  0
 15 16  1  0  0  0  0
 15 17  2  0  0  0  0
 17 18  1  0  0  0  0
 17 38  1  0  0  0  0
 18 19  1  0  0  0  0
 18 20  1  0  0  0  0
 20 21  2  0  0  0  0
 20 22  1  0  0  0  0
 22 23  2  0  0  0  0
 22 37  1  0  0  0  0
 23 24  1  0  0  0  0
 23 25  1  0  0  0  0
 25 26  1  0  0  0  0
 25 36  2  0  0  0  0
 26 27  1  0  0  0  0
 26 31  2  0  0  0  0
 27 28  1  0  0  0  0
 27 29  1  0  0  0  0
 27 30  1  0  0  0  0
 31 32  1  0  0  0  0
 31 33  1  0  0  0  0
 33 34  1  0  0  0  0
 33 35  2  0  0  0  0
 35 36  1  0  0  0  0
 36 37  1  0  0  0  0
 38 39  1  0  0  0  0
M  CHG  1  34  -1
M  END
>  <receptor>
S(=O)(=O)([O-])[O-].S(CCC(NC(=O)C(NC(=O)C(NC(=O)CNC(=O)C(NC(=O)C1N(C(=O)C(NC(=O)C(NC(=O)C(NC(=O)C(NC(=O)C(NC(=O)C(NC(=O)C(NC(=O)C(NC(=O)C(NC(=O)C(NC(=O)C(NC(=O)C(NC(=O)C(NC(=O)C(NC(=O)C(NC(=O)C(NC(=O)C(NC(=O)C(NC(=O)C(NC(=O)CNC(=O)C(NC(=O)C(NC(=O)C(NC(=O)C(NC(=O)C(NC(=O)C(NC(=O)C(NC(=O)C(NC(=O)C(NC(=O)C(NC(=O)C(NC(=O)C(NC(=O)C(NC(=O)C)CCCC[NH3+])C(C)C)C(O)C)CCC(=O)N)CCC(=O)[O-])CCC(=O)N)Cc2ccccc2)CCC(=O)[O-])CC(C)C)Cc2ccc(O)cc2)CS)CCC(=O)[O-])CCSC)CO)C(O)C)Cc2ccccc2)CCC(=O)N)CC(C)C)C[S-])CCCC[NH3+])C(CC)C)C[S-])C)CCC(=O)[O-])CC(=O)N)CC(=O)[O-])CCCC[NH3+])CC(=O)[O-])C(C)C)CCCC[NH3+])C(CC)C)CCC(=O)[O-])CCC1)C[S-])Cc1nc[n-]c1)CC(C)C)C(=O)NC(C(=O)NC(C(=O)NC(C(=O)NC(C(=O)NC(C(=O)NC(C(=O)NC(C(=O)NC(C(=O)NC(C(=O)NC(C(=O)NC(C(=O)NC(C(=O)NCC(=O)NC(C(=O)NCC(=O)NC(C(=O)N1C(C(=O)NC(C(=O)NC(C(=O)NC(C(=O)NC(C(=O)NC(C(=O)NC(C(=O)NC(C(=O)NCC(=O)NC(C(=O)NC(C(=O)N2C(C(=O)NC(C(=O)NC(C(=O)NC(C(=O)NC(C(=O)N3C(C(=O)NC(C(=O)NC(C(=O)[O-])CC(=O)[O-])Cc4ccccc4)CCC3)CC(=O)[O-])C(C)C)C(CC)C)C(CC)C)CCC2)CCC(=O)[O-])C(O)C)CCCC[NH3+])C(CC)C)CCC(=O)[O-])CS)CCCNC(=[NH2+])N)C[S-])Cc2ccccc2)CCC1)C[S-])CCC(=O)N)CC(=O)[O-])CO)CCC(=O)[O-])CCC(=O)N)Cc1c2c([nH]c1)cccc2)C)C(O)C)CC(C)C)C[S-])CO)C(O)C)C[S-])C.S(CCC(NC(=O)C(NC(=O)C(NC(=O)C(NC(=O)C(NC(=O)C(NC(=O)C(NC(=O)C(NC(=O)C(NC(=O)C(NC(=O)C(NC(=O)C(NC(=O)C(NC(=O)C(NC(=O)C(NC(=O)C(NC(=O)C[NH3+])CCC(=O)N)C)C)C)CC(=O)[O-])CCCNC(=[NH2+])N)CCCNC(=[NH2+])N)C(O)C)C(C)C)CCC(=O)[O-])CCCC[NH3+])C(O)C)Cc1c2c([nH]c1)cccc2)C)CC(C)C)C(=O)NC(C(=O)NC(C(=O)NC(C(=O)NC(C(=O)NC(C(=O)NC(C(=O)NC(C(=O)NC(C(=O)NC(C(=O)N1C(C(=O)NC(C(=O)NC(C(=O)NC(C(=O)NC(C(=O)NC(C(=O)NC(C(=O)NC(C(=O)N2C(C(=O)N3C(C(=O)NC(C(=O)NC(C(=O)NC(C(=O)NC(C(=O)NC(C(=O)NC(C(=O)N4C(C(=O)NC(C(=O)NC(C(=O)NC(C(=O)NC(C(=O)NC(C(=O)NC(C(=O)NC(C(=O)NC(C(=O)NC(C(=O)NC(C(=O)NC(C(=O)NC(C(=O)NC(C(=O)NC(C(=O)NC(C(=O)NC(C(=O)NC(C(=O)NC(C(=O)NC(C(=O)NC(C(=O)NC(C(=O)NC(C(=O)NC(C(=O)NC(C(=O)NC(C(=O)NC(C(=O)NC(C(=O)NC(C(=O)NC(C(=O)NC(C(=O)NC(C(=O)NC(C(=O)NC(C(=O)NC(C(=O)NC(C(=O)NC(C(=O)NC(C(=O)NC(C(=O)NC(C(=O)NC(C(=O)NC(C(=O)NC(C(=O)NC(C(=O)NC(C(=O)NC(C(=O)NC(C(=O)NC(C(=O)NC(C(=O)NCC(=O)NC(C(=O)NC(C(=O)NC(C(=O)NC(C(=O)NC(C(=O)NC(C(=O)NC(C(=O)NC(C(=O)NC(C(=O)NC(C(=O)NC(C(=O)NC(C(=O)NC(C(=O)NC(C(=O)NC(C(=O)NC(C(=O)NC(C(=O)NC(C(=O)NC(C(=O)NC(C(=O)NC(C(=O)NC(C(=O)NC(C(=O)NC(C(=O)NC(C(=O)NC(C(=O)NC(C(=O)NC(C(=O)NC(C(=O)NC(C(=O)NC(C(=O)NC(C(=O)NC(C(=O)N5C(C(=O)NC(C(=O)NCC(=O)NC(C(=O)NC(C(=O)NC(C(=O)NCC(=O)NC(C(=O)NC(C(=O)NC(C(=O)NC(C(=O)NC(C(=O)NC(C(=O)NC(C(=O)NC(C(=O)NC(C(=O)NC(C(=O)NC(C(=O)NC(C(=O)NC(C(=O)NC(C(=O)NC(C(=O)NC(C(=O)NC(C(=O)NC(C(=O)NCC(=O)NC(C(=O)NC(C(=O)NC(C(=O)NC(C(=O)NC(C(=O)N6C(C(=O)NC(C(=O)NC(C(=O)NC(C(=O)NC(C(=O)NC(C(=O)NC(C(=O)NC(C(=O)NC(C(=O)NC(C(=O)NC(C(=O)NC(C(=O)NC(C(=O)NC(C(=O)NC(C(=O)NC(C(=O)NC(C(=O)NCC(=O)NC(C(=O)NC(C(=O)NC(C(=O)NC(C(=O)NC(C(=O)NC(C(=O)NC(C(=O)NC(C(=O)NC(C(=O)NC(C(=O)NC(C(=O)NC(C(=O)NC(C(=O)NC(C(=O)NC(C(=O)NC(C(=O)NC(C(=O)NC(C(=O)NC(C(=O)NC(C(=O)NC(C(=O)NC(C(=O)NC(C(=O)NC(C(=O)NC(C(=O)NC(C(=O)NC(C(=O)NC(C(=O)NC(C(=O)NC(C(=O)NC(C(=O)N7C(C(=O)NC(C(=O)NCC(=O)NC(C(=O)NC(C(=O)NC(C(=O)NC(C(=O)NC(C(=O)NC(C(=O)NC(C(=O)NC(C(=O)NC(C(=O)NC(C(=O)NC(C(=O)NC(C(=O)NC(C(=O)N8C(C(=O)NCC(=O)NC(C(=O)NC(C(=O)NC(C(=O)NC(C(=O)NC(C(=O)NC(C(=O)NC(C(=O)NC(C(=O)NC(C(=O)NC(C(=O)NC(C(=O)NC(C(=O)NC(C(=O)NC(C(=O)NC(C(=O)NC(C(=O)NC(C(=O)NC(C(=O)NC(C(=O)NC(C(=O)N9C(C(=O)NCC(=O)NC(C(=O)NC(C(=O)NC(C(=O)NC(C(=O)NC(C(=O)NC(C(=O)NC(C(=O)NC(C(=O)NC(C(=O)NC(C(=O)NC(C(=O)NCC(=O)NC(C(=O)NC(C(=O)NC(C(=O)NC(C(=O)NCC(=O)NC(C(=O)NC(C(=O)NC(C(=O)NCC(=O)NC(C(=O)NCC(=O)NC(C(=O)NC(C(=O)NC(C(=O)NC(C(=O)NC(C(=O)NC(C(=O)N%10C(C(=O)NC(C(=O)NC(C(=O)NC(C(=O)N%11C(C(=O)NC(C(=O)NC(C(=O)NC(C(=O)NC(C(=O)NC(C(=O)NC(C(=O)NC(C(=O)NCC(=O)NC(C(=O)NC(C(=O)NC(C(=O)NCC(=O)NC(C(=O)NC(C(=O)NC(C(=O)NC(C(=O)N%12C(C(=O)NC(C(=O)NCC(=O)NC(C(=O)NC(C(=O)NC(C(=O)NC(C(=O)NC)CC(=O)N)Cc%13ccc(O)cc%13)CO)CCCNC(=[NH2+])N)CC(=O)[O-])CCC%12)Cc%12ccc(O)cc%12)CC(C)C)Cc%12ccc(O)cc%12)Cc%12ccccc%12)CCC(=O)[O-])C)CO)CC(=O)[O-])C(CC)C)CC(C)C)C)CCC(=O)N)Cc%12ccccc%12)CC(C)C)CCC%11)CCCC[NH3+])CC(=O)N)Cc%11[nH]cnc%11)CCC%10)C(CC)C)C(O)C)CCC(=O)N)CC(C)C)C(CC)C)CC(=O)N)CC(=O)[O-])C(O)C)C(C)C)Cc%10ccc(O)cc%10)C(CC)C)C)Cc%10c%11c([nH]c%10)cccc%11)CCC(=O)N)CC(C)C)CCCNC(=[NH2+])N)C(O)C)CS)CO)CC(C)C)CCCNC(=[NH2+])N)Cc%10ccccc%10)C(CC)C)Cc%10ccc(O)cc%10)CO)CCC9)CCCC[NH3+])C(O)C)CO)Cc9ccc(O)cc9)CCCC[NH3+])CCC(=O)N)CC(C)C)CCCNC(=[NH2+])N)C)CCCC[NH3+])C(C)C)CCC(=O)[O-])CC(=O)[O-])Cc9ccc(O)cc9)C(O)C)CC(C)C)Cc9ccccc9)C)CCSC)Cc9ccc(O)cc9)CCC8)Cc8nc[nH]c8)C(O)C)C(C)C)C)CC(C)C)Cc8ccccc8)CC(=O)N)Cc8c9c([nH]c8)cccc9)CC(=O)N)CCCNC(=[NH2+])N)CC(C)C)C(CC)C)CO)Cc8c9c([nH]c8)cccc9)CCC7)CCC(=O)N)Cc7ccccc7)CC(C)C)CCCNC(=[NH2+])N)C(O)C)Cc7ccccc7)C(CC)C)CC(=O)[O-])Cc7ccccc7)CCC(=O)[O-])Cc7ccccc7)C(C)C)CO)C(CC)C)Cc7ccc(O)cc7)CC(=O)[O-])CC(=O)N)CS)C(O)C)CC(C)C)CC(=O)[O-])C(CC)C)C(O)C)CO)CCCC[NH3+])CC(C)C)C)CCSC)C)CCC(=O)[O-])CC(C)C)CO)CO)C(CC)C)CCC(=O)N)Cc7nc[nH]c7)C(C)C)CCC(=O)[O-])Cc7nc[nH]c7)CC(C)C)CS)CCC(=O)N)CCCNC(=[NH2+])N)Cc7ccccc7)C(C)C)CCCC[NH3+])Cc7c8c([nH]c7)cccc8)CCC6)C(C)C)C(CC)C)C(O)C)CCCC[NH3+])CC(=O)[O-])Cc6ccccc6)Cc6ccccc6)CCCC[NH3+])CCCNC(=[NH2+])N)Cc6c7c([nH]c6)cccc7)Cc6ccccc6)CCC(=O)[O-])C)C)CC(=O)[O-])C)CCCC[NH3+])C(O)C)C(CC)C)CCCNC(=[NH2+])N)Cc6ccccc6)CC(=O)N)CC(=O)[O-])CCC(=O)N)Cc6ccccc6)CCC(=O)N)CC(=O)N)CCC5)Cc5ccccc5)C(CC)C)C)CCCC[NH3+])C(CC)C)CCC(=O)[O-])C)CC(C)C)CCSC)Cc5nc[nH]c5)CO)Cc5ccccc5)C(CC)C)CC(C)C)CO)CC(C)C)CCCC[NH3+])C(O)C)CC(C)C)CC(=O)N)CCCNC(=[NH2+])N)CCCNC(=[NH2+])N)CC(=O)[O-])CCC(=O)N)CO)CCC(=O)N)CCC(=O)[O-])CCC(=O)[O-])Cc5ccc(O)cc5)CCSC)CCCNC(=[NH2+])N)CCC(=O)[O-])CCCC[NH3+])CCC(=O)[O-])CCCC[NH3+])Cc5ccccc5)CC(C)C)CCCNC(=[NH2+])N)C(CC)C)C)CCCNC(=[NH2+])N)CCCC[NH3+])CO)CCCC[NH3+])CCCC[NH3+])CCSC)CC(C)C)CO)CC(=O)[O-])C(CC)C)Cc5ccc(O)cc5)C(CC)C)CCCC[NH3+])Cc5ccccc5)Cc5ccc(O)cc5)CCC(=O)[O-])CC(=O)N)CCC(=O)[O-])CO)CC(C)C)CCC(=O)N)C)CC(C)C)CCCC[NH3+])CCC(=O)N)CC(=O)N)CC(=O)[O-])CC(=O)[O-])Cc5ccc(O)cc5)CCCC[NH3+])CO)CC(C)C)C(CC)C)CC(C)C)CCCNC(=[NH2+])N)CC(C)C)Cc5nc[nH]c5)CCC(=O)N)Cc5ccc(O)cc5)C(O)C)CC(=O)[O-])CCC4)CC(C)C)C(CC)C)CC(=O)[O-])CC(C)C)C(CC)C)Cc4ccc(O)cc4)CCC3)CCC2)CO)CC(=O)N)CCCC[NH3+])CC(C)C)CCC(=O)N)CC(C)C)CCCC[NH3+])CCC1)CC(=O)N)CCC(=O)N)CS)CC(C)C)CCCNC(=[NH2+])N)C(C)C)C(C)C)C)CC(=O)[O-])C.OCCO.[UH+3].[Zn+2].[Zn+2].O.O.O.O.O.O.O.O.O.O.O.O.O.O.O.O.O.O.O.O.O.O.O.O.O.O.O.O.O.O.O.O.O.O.O.O.O.O.O.O.O.O.O.O.O.O.O.O.O.O.O.O.O.O.O.O.O.O.O.O.O.O.O.O.O.O.O.O.O.O.O.O.O.O.O.O.O.O.O.O.O.O.O.O.O.O.O.O.O.O.O.O.O.O.O.O.O.O.O.O.O.O.O.O.O.O.O.O.O.O.O.O.O.O.O.O.O.O.O.O.O.O.O.O.O.O.O.O.O.O.O.O.O.O.O.O.O.O.O.O.O.O

>  <rseq>
1

>  <mseq>
57

>  <S>
-6.5673118

>  <rmsd_refine>
1.8418683

>  <E_conf>
-95.615158

>  <E_place>
-94.765381

>  <E_score1>
-15.047006

>  <E_refine>
-29.428194

>  <E_score2>
-6.5673118

>  <Field_2>
JZ07

>  <pseq>
57

>  <%C>
83.494804

>  <a_heavy>
29

>  <h_logP>
2.6983621

>  <Weight>
403.29999

>  <E_orig>
2

>  <PLIF_raw>
[[34,34],[6309,6336],[220676,220685],[6,6],[1.1,0.5]]

>  <FP:PLIF>
44 45

>  <PLIF_ligidx>
[34,34]

$$$$

  MOE2020           3D

 50 53  0  0  0  0  0  0  0  0999 V2000
    2.7080    8.0470   17.4170 O   0  0  0  0  0  0  0  0  0  0  0  0
    2.8890    7.6100   18.5480 C   0  0  0  0  0  0  0  0  0  0  0  0
    2.3310    8.2590   19.6380 N   0  0  0  0  0  0  0  0  0  0  0  0
    2.4540    7.8170   20.5620 H   0  0  0  0  0  0  0  0  0  0  0  0
    1.4430    9.3580   19.5400 C   0  0  0  0  0  0  0  0  0  0  0  0
    0.3320    9.3690   20.3790 C   0  0  0  0  0  0  0  0  0  0  0  0
    0.2350    8.6520   21.1530 H   0  0  0  0  0  0  0  0  0  0  0  0
   -0.6780   10.2930   20.1480 C   0  0  0  0  0  0  0  0  0  0  0  0
   -1.5360   10.2880   20.7590 H   0  0  0  0  0  0  0  0  0  0  0  0
   -0.5870   11.1960   19.0880 C   0  0  0  0  0  0  0  0  0  0  0  0
   -1.8040   11.9840   18.6420 C   0  0  0  0  0  0  0  0  0  0  0  0
   -1.5050   12.7450   17.9190 H   0  0  0  0  0  0  0  0  0  0  0  0
   -2.2550   12.4800   19.5000 H   0  0  0  0  0  0  0  0  0  0  0  0
   -2.8170   11.0310   17.9760 C   0  0  0  0  0  0  0  0  0  0  0  0
   -2.2610   10.3550   17.3240 H   0  0  0  0  0  0  0  0  0  0  0  0
   -3.2940   10.4160   18.7340 H   0  0  0  0  0  0  0  0  0  0  0  0
   -3.8930   11.7060   17.1200 C   0  0  0  0  0  0  0  0  0  0  0  0
   -3.8340   11.5560   15.9000 O   0  0  0  0  0  0  0  0  0  0  0  0
   -4.9020   12.3730   17.7150 N   0  0  0  0  0  0  0  0  0  0  0  0
   -5.1850   12.4270   19.1420 C   0  0  0  0  0  0  0  0  0  0  0  0
   -4.3990   12.9520   19.6840 H   0  0  0  0  0  0  0  0  0  0  0  0
   -5.3050   11.4140   19.5290 H   0  0  0  0  0  0  0  0  0  0  0  0
   -6.5060   13.1870   19.2820 C   0  0  0  0  0  0  0  0  0  0  0  0
   -7.1120   12.7920   20.0970 H   0  0  0  0  0  0  0  0  0  0  0  0
   -6.2990   14.2470   19.4370 H   0  0  0  0  0  0  0  0  0  0  0  0
   -7.1740   12.9900   17.9210 C   0  0  0  0  0  0  0  0  0  0  0  0
   -7.8930   13.7790   17.6980 H   0  0  0  0  0  0  0  0  0  0  0  0
   -7.6430   12.0060   17.8720 H   0  0  0  0  0  0  0  0  0  0  0  0
   -5.9720   13.0320   16.9840 C   0  0  0  0  0  0  0  0  0  0  0  0
   -6.1960   12.5300   16.0450 H   0  0  0  0  0  0  0  0  0  0  0  0
   -5.6920   14.0680   16.7880 H   0  0  0  0  0  0  0  0  0  0  0  0
    0.6020   11.2800   18.3660 C   0  0  0  0  0  0  0  0  0  0  0  0
    0.7140   12.0200   17.6180 H   0  0  0  0  0  0  0  0  0  0  0  0
    1.6260   10.3720   18.5940 C   0  0  0  0  0  0  0  0  0  0  0  0
    2.5180   10.4350   18.0270 H   0  0  0  0  0  0  0  0  0  0  0  0
    3.6630    6.4110   18.7840 C   0  0  0  0  0  0  0  0  0  0  0  0
    3.1340    5.3010   19.4620 C   0  0  0  0  0  0  0  0  0  0  0  0
    2.1640    5.3570   19.8840 H   0  0  0  0  0  0  0  0  0  0  0  0
    3.8580    4.1040   19.5560 C   0  0  0  0  0  0  0  0  0  0  0  0
    3.4280    3.2680   20.0420 H   0  0  0  0  0  0  0  0  0  0  0  0
    5.1380    3.9970   19.0110 C   0  0  0  0  0  0  0  0  0  0  0  0
    5.6770    3.0900   19.0600 H   0  0  0  0  0  0  0  0  0  0  0  0
    5.6830    5.1200   18.4000 C   0  0  0  0  0  0  0  0  0  0  0  0
    6.9320    5.3460   17.8320 N   0  0  0  0  0  0  0  0  0  0  0  0
    7.7140    4.6750   17.7850 H   0  0  0  0  0  0  0  0  0  0  0  0
    6.9960    6.6430   17.3810 C   0  0  0  0  0  0  0  0  0  0  0  0
    7.9580    7.2060   16.8560 O   0  0  0  0  0  0  0  0  0  0  0  0
    5.7740    7.2090   17.6400 N   0  0  0  0  0  0  0  0  0  0  0  0
    5.5270    8.1870   17.4170 H   0  0  0  0  0  0  0  0  0  0  0  0
    4.9630    6.2900   18.2840 C   0  0  0  0  0  0  0  0  0  0  0  0
  1  2  2  0  0  0  0
  2  3  1  0  0  0  0
  2 36  1  0  0  0  0
  3  4  1  0  0  0  0
  3  5  1  0  0  0  0
  5  6  1  0  0  0  0
  5 34  2  0  0  0  0
  6  7  1  0  0  0  0
  6  8  2  0  0  0  0
  8  9  1  0  0  0  0
  8 10  1  0  0  0  0
 10 11  1  0  0  0  0
 10 32  2  0  0  0  0
 11 12  1  0  0  0  0
 11 13  1  0  0  0  0
 11 14  1  0  0  0  0
 14 15  1  0  0  0  0
 14 16  1  0  0  0  0
 14 17  1  0  0  0  0
 17 18  2  0  0  0  0
 17 19  1  0  0  0  0
 19 20  1  0  0  0  0
 19 29  1  0  0  0  0
 20 21  1  0  0  0  0
 20 22  1  0  0  0  0
 20 23  1  0  0  0  0
 23 24  1  0  0  0  0
 23 25  1  0  0  0  0
 23 26  1  0  0  0  0
 26 27  1  0  0  0  0
 26 28  1  0  0  0  0
 26 29  1  0  0  0  0
 29 30  1  0  0  0  0
 29 31  1  0  0  0  0
 32 33  1  0  0  0  0
 32 34  1  0  0  0  0
 34 35  1  0  0  0  0
 36 37  1  0  0  0  0
 36 50  2  0  0  0  0
 37 38  1  0  0  0  0
 37 39  2  0  0  0  0
 39 40  1  0  0  0  0
 39 41  1  0  0  0  0
 41 42  1  0  0  0  0
 41 43  2  0  0  0  0
 43 44  1  0  0  0  0
 43 50  1  0  0  0  0
 44 45  1  0  0  0  0
 44 46  1  0  0  0  0
 46 47  2  0  0  0  0
 46 48  1  0  0  0  0
 48 49  1  0  0  0  0
 48 50  1  0  0  0  0
M  END
>  <receptor>
S(=O)(=O)([O-])[O-].S(CCC(NC(=O)C(NC(=O)C(NC(=O)CNC(=O)C(NC(=O)C1N(C(=O)C(NC(=O)C(NC(=O)C(NC(=O)C(NC(=O)C(NC(=O)C(NC(=O)C(NC(=O)C(NC(=O)C(NC(=O)C(NC(=O)C(NC(=O)C(NC(=O)C(NC(=O)C(NC(=O)C(NC(=O)C(NC(=O)C(NC(=O)C(NC(=O)C(NC(=O)CNC(=O)C(NC(=O)C(NC(=O)C(NC(=O)C(NC(=O)C(NC(=O)C(NC(=O)C(NC(=O)C(NC(=O)C(NC(=O)C(NC(=O)C(NC(=O)C(NC(=O)C(NC(=O)C)CCCC[NH3+])C(C)C)C(O)C)CCC(=O)N)CCC(=O)[O-])CCC(=O)N)Cc2ccccc2)CCC(=O)[O-])CC(C)C)Cc2ccc(O)cc2)CS)CCC(=O)[O-])CCSC)CO)C(O)C)Cc2ccccc2)CCC(=O)N)CC(C)C)C[S-])CCCC[NH3+])C(CC)C)C[S-])C)CCC(=O)[O-])CC(=O)N)CC(=O)[O-])CCCC[NH3+])CC(=O)[O-])C(C)C)CCCC[NH3+])C(CC)C)CCC(=O)[O-])CCC1)C[S-])Cc1nc[n-]c1)CC(C)C)C(=O)NC(C(=O)NC(C(=O)NC(C(=O)NC(C(=O)NC(C(=O)NC(C(=O)NC(C(=O)NC(C(=O)NC(C(=O)NC(C(=O)NC(C(=O)NC(C(=O)NCC(=O)NC(C(=O)NCC(=O)NC(C(=O)N1C(C(=O)NC(C(=O)NC(C(=O)NC(C(=O)NC(C(=O)NC(C(=O)NC(C(=O)NC(C(=O)NCC(=O)NC(C(=O)NC(C(=O)N2C(C(=O)NC(C(=O)NC(C(=O)NC(C(=O)NC(C(=O)N3C(C(=O)NC(C(=O)NC(C(=O)[O-])CC(=O)[O-])Cc4ccccc4)CCC3)CC(=O)[O-])C(C)C)C(CC)C)C(CC)C)CCC2)CCC(=O)[O-])C(O)C)CCCC[NH3+])C(CC)C)CCC(=O)[O-])CS)CCCNC(=[NH2+])N)C[S-])Cc2ccccc2)CCC1)C[S-])CCC(=O)N)CC(=O)[O-])CO)CCC(=O)[O-])CCC(=O)N)Cc1c2c([nH]c1)cccc2)C)C(O)C)CC(C)C)C[S-])CO)C(O)C)C[S-])C.S(CCC(NC(=O)C(NC(=O)C(NC(=O)C(NC(=O)C(NC(=O)C(NC(=O)C(NC(=O)C(NC(=O)C(NC(=O)C(NC(=O)C(NC(=O)C(NC(=O)C(NC(=O)C(NC(=O)C(NC(=O)C(NC(=O)C[NH3+])CCC(=O)N)C)C)C)CC(=O)[O-])CCCNC(=[NH2+])N)CCCNC(=[NH2+])N)C(O)C)C(C)C)CCC(=O)[O-])CCCC[NH3+])C(O)C)Cc1c2c([nH]c1)cccc2)C)CC(C)C)C(=O)NC(C(=O)NC(C(=O)NC(C(=O)NC(C(=O)NC(C(=O)NC(C(=O)NC(C(=O)NC(C(=O)NC(C(=O)N1C(C(=O)NC(C(=O)NC(C(=O)NC(C(=O)NC(C(=O)NC(C(=O)NC(C(=O)NC(C(=O)N2C(C(=O)N3C(C(=O)NC(C(=O)NC(C(=O)NC(C(=O)NC(C(=O)NC(C(=O)NC(C(=O)N4C(C(=O)NC(C(=O)NC(C(=O)NC(C(=O)NC(C(=O)NC(C(=O)NC(C(=O)NC(C(=O)NC(C(=O)NC(C(=O)NC(C(=O)NC(C(=O)NC(C(=O)NC(C(=O)NC(C(=O)NC(C(=O)NC(C(=O)NC(C(=O)NC(C(=O)NC(C(=O)NC(C(=O)NC(C(=O)NC(C(=O)NC(C(=O)NC(C(=O)NC(C(=O)NC(C(=O)NC(C(=O)NC(C(=O)NC(C(=O)NC(C(=O)NC(C(=O)NC(C(=O)NC(C(=O)NC(C(=O)NC(C(=O)NC(C(=O)NC(C(=O)NC(C(=O)NC(C(=O)NC(C(=O)NC(C(=O)NC(C(=O)NC(C(=O)NC(C(=O)NC(C(=O)NC(C(=O)NC(C(=O)NC(C(=O)NCC(=O)NC(C(=O)NC(C(=O)NC(C(=O)NC(C(=O)NC(C(=O)NC(C(=O)NC(C(=O)NC(C(=O)NC(C(=O)NC(C(=O)NC(C(=O)NC(C(=O)NC(C(=O)NC(C(=O)NC(C(=O)NC(C(=O)NC(C(=O)NC(C(=O)NC(C(=O)NC(C(=O)NC(C(=O)NC(C(=O)NC(C(=O)NC(C(=O)NC(C(=O)NC(C(=O)NC(C(=O)NC(C(=O)NC(C(=O)NC(C(=O)NC(C(=O)NC(C(=O)NC(C(=O)N5C(C(=O)NC(C(=O)NCC(=O)NC(C(=O)NC(C(=O)NC(C(=O)NCC(=O)NC(C(=O)NC(C(=O)NC(C(=O)NC(C(=O)NC(C(=O)NC(C(=O)NC(C(=O)NC(C(=O)NC(C(=O)NC(C(=O)NC(C(=O)NC(C(=O)NC(C(=O)NC(C(=O)NC(C(=O)NC(C(=O)NC(C(=O)NC(C(=O)NCC(=O)NC(C(=O)NC(C(=O)NC(C(=O)NC(C(=O)NC(C(=O)N6C(C(=O)NC(C(=O)NC(C(=O)NC(C(=O)NC(C(=O)NC(C(=O)NC(C(=O)NC(C(=O)NC(C(=O)NC(C(=O)NC(C(=O)NC(C(=O)NC(C(=O)NC(C(=O)NC(C(=O)NC(C(=O)NC(C(=O)NCC(=O)NC(C(=O)NC(C(=O)NC(C(=O)NC(C(=O)NC(C(=O)NC(C(=O)NC(C(=O)NC(C(=O)NC(C(=O)NC(C(=O)NC(C(=O)NC(C(=O)NC(C(=O)NC(C(=O)NC(C(=O)NC(C(=O)NC(C(=O)NC(C(=O)NC(C(=O)NC(C(=O)NC(C(=O)NC(C(=O)NC(C(=O)NC(C(=O)NC(C(=O)NC(C(=O)NC(C(=O)NC(C(=O)NC(C(=O)NC(C(=O)NC(C(=O)N7C(C(=O)NC(C(=O)NCC(=O)NC(C(=O)NC(C(=O)NC(C(=O)NC(C(=O)NC(C(=O)NC(C(=O)NC(C(=O)NC(C(=O)NC(C(=O)NC(C(=O)NC(C(=O)NC(C(=O)NC(C(=O)N8C(C(=O)NCC(=O)NC(C(=O)NC(C(=O)NC(C(=O)NC(C(=O)NC(C(=O)NC(C(=O)NC(C(=O)NC(C(=O)NC(C(=O)NC(C(=O)NC(C(=O)NC(C(=O)NC(C(=O)NC(C(=O)NC(C(=O)NC(C(=O)NC(C(=O)NC(C(=O)NC(C(=O)NC(C(=O)N9C(C(=O)NCC(=O)NC(C(=O)NC(C(=O)NC(C(=O)NC(C(=O)NC(C(=O)NC(C(=O)NC(C(=O)NC(C(=O)NC(C(=O)NC(C(=O)NC(C(=O)NCC(=O)NC(C(=O)NC(C(=O)NC(C(=O)NC(C(=O)NCC(=O)NC(C(=O)NC(C(=O)NC(C(=O)NCC(=O)NC(C(=O)NCC(=O)NC(C(=O)NC(C(=O)NC(C(=O)NC(C(=O)NC(C(=O)NC(C(=O)N%10C(C(=O)NC(C(=O)NC(C(=O)NC(C(=O)N%11C(C(=O)NC(C(=O)NC(C(=O)NC(C(=O)NC(C(=O)NC(C(=O)NC(C(=O)NC(C(=O)NCC(=O)NC(C(=O)NC(C(=O)NC(C(=O)NCC(=O)NC(C(=O)NC(C(=O)NC(C(=O)NC(C(=O)N%12C(C(=O)NC(C(=O)NCC(=O)NC(C(=O)NC(C(=O)NC(C(=O)NC(C(=O)NC)CC(=O)N)Cc%13ccc(O)cc%13)CO)CCCNC(=[NH2+])N)CC(=O)[O-])CCC%12)Cc%12ccc(O)cc%12)CC(C)C)Cc%12ccc(O)cc%12)Cc%12ccccc%12)CCC(=O)[O-])C)CO)CC(=O)[O-])C(CC)C)CC(C)C)C)CCC(=O)N)Cc%12ccccc%12)CC(C)C)CCC%11)CCCC[NH3+])CC(=O)N)Cc%11[nH]cnc%11)CCC%10)C(CC)C)C(O)C)CCC(=O)N)CC(C)C)C(CC)C)CC(=O)N)CC(=O)[O-])C(O)C)C(C)C)Cc%10ccc(O)cc%10)C(CC)C)C)Cc%10c%11c([nH]c%10)cccc%11)CCC(=O)N)CC(C)C)CCCNC(=[NH2+])N)C(O)C)CS)CO)CC(C)C)CCCNC(=[NH2+])N)Cc%10ccccc%10)C(CC)C)Cc%10ccc(O)cc%10)CO)CCC9)CCCC[NH3+])C(O)C)CO)Cc9ccc(O)cc9)CCCC[NH3+])CCC(=O)N)CC(C)C)CCCNC(=[NH2+])N)C)CCCC[NH3+])C(C)C)CCC(=O)[O-])CC(=O)[O-])Cc9ccc(O)cc9)C(O)C)CC(C)C)Cc9ccccc9)C)CCSC)Cc9ccc(O)cc9)CCC8)Cc8nc[nH]c8)C(O)C)C(C)C)C)CC(C)C)Cc8ccccc8)CC(=O)N)Cc8c9c([nH]c8)cccc9)CC(=O)N)CCCNC(=[NH2+])N)CC(C)C)C(CC)C)CO)Cc8c9c([nH]c8)cccc9)CCC7)CCC(=O)N)Cc7ccccc7)CC(C)C)CCCNC(=[NH2+])N)C(O)C)Cc7ccccc7)C(CC)C)CC(=O)[O-])Cc7ccccc7)CCC(=O)[O-])Cc7ccccc7)C(C)C)CO)C(CC)C)Cc7ccc(O)cc7)CC(=O)[O-])CC(=O)N)CS)C(O)C)CC(C)C)CC(=O)[O-])C(CC)C)C(O)C)CO)CCCC[NH3+])CC(C)C)C)CCSC)C)CCC(=O)[O-])CC(C)C)CO)CO)C(CC)C)CCC(=O)N)Cc7nc[nH]c7)C(C)C)CCC(=O)[O-])Cc7nc[nH]c7)CC(C)C)CS)CCC(=O)N)CCCNC(=[NH2+])N)Cc7ccccc7)C(C)C)CCCC[NH3+])Cc7c8c([nH]c7)cccc8)CCC6)C(C)C)C(CC)C)C(O)C)CCCC[NH3+])CC(=O)[O-])Cc6ccccc6)Cc6ccccc6)CCCC[NH3+])CCCNC(=[NH2+])N)Cc6c7c([nH]c6)cccc7)Cc6ccccc6)CCC(=O)[O-])C)C)CC(=O)[O-])C)CCCC[NH3+])C(O)C)C(CC)C)CCCNC(=[NH2+])N)Cc6ccccc6)CC(=O)N)CC(=O)[O-])CCC(=O)N)Cc6ccccc6)CCC(=O)N)CC(=O)N)CCC5)Cc5ccccc5)C(CC)C)C)CCCC[NH3+])C(CC)C)CCC(=O)[O-])C)CC(C)C)CCSC)Cc5nc[nH]c5)CO)Cc5ccccc5)C(CC)C)CC(C)C)CO)CC(C)C)CCCC[NH3+])C(O)C)CC(C)C)CC(=O)N)CCCNC(=[NH2+])N)CCCNC(=[NH2+])N)CC(=O)[O-])CCC(=O)N)CO)CCC(=O)N)CCC(=O)[O-])CCC(=O)[O-])Cc5ccc(O)cc5)CCSC)CCCNC(=[NH2+])N)CCC(=O)[O-])CCCC[NH3+])CCC(=O)[O-])CCCC[NH3+])Cc5ccccc5)CC(C)C)CCCNC(=[NH2+])N)C(CC)C)C)CCCNC(=[NH2+])N)CCCC[NH3+])CO)CCCC[NH3+])CCCC[NH3+])CCSC)CC(C)C)CO)CC(=O)[O-])C(CC)C)Cc5ccc(O)cc5)C(CC)C)CCCC[NH3+])Cc5ccccc5)Cc5ccc(O)cc5)CCC(=O)[O-])CC(=O)N)CCC(=O)[O-])CO)CC(C)C)CCC(=O)N)C)CC(C)C)CCCC[NH3+])CCC(=O)N)CC(=O)N)CC(=O)[O-])CC(=O)[O-])Cc5ccc(O)cc5)CCCC[NH3+])CO)CC(C)C)C(CC)C)CC(C)C)CCCNC(=[NH2+])N)CC(C)C)Cc5nc[nH]c5)CCC(=O)N)Cc5ccc(O)cc5)C(O)C)CC(=O)[O-])CCC4)CC(C)C)C(CC)C)CC(=O)[O-])CC(C)C)C(CC)C)Cc4ccc(O)cc4)CCC3)CCC2)CO)CC(=O)N)CCCC[NH3+])CC(C)C)CCC(=O)N)CC(C)C)CCCC[NH3+])CCC1)CC(=O)N)CCC(=O)N)CS)CC(C)C)CCCNC(=[NH2+])N)C(C)C)C(C)C)C)CC(=O)[O-])C.OCCO.[UH+3].[Zn+2].[Zn+2].O.O.O.O.O.O.O.O.O.O.O.O.O.O.O.O.O.O.O.O.O.O.O.O.O.O.O.O.O.O.O.O.O.O.O.O.O.O.O.O.O.O.O.O.O.O.O.O.O.O.O.O.O.O.O.O.O.O.O.O.O.O.O.O.O.O.O.O.O.O.O.O.O.O.O.O.O.O.O.O.O.O.O.O.O.O.O.O.O.O.O.O.O.O.O.O.O.O.O.O.O.O.O.O.O.O.O.O.O.O.O.O.O.O.O.O.O.O.O.O.O.O.O.O.O.O.O.O.O.O.O.O.O.O.O.O.O.O.O.O.O.O

>  <rseq>
1

>  <mseq>
58

>  <S>
-7.4276061

>  <rmsd_refine>
2.2046115

>  <E_conf>
-71.69471

>  <E_place>
-78.150093

>  <E_score1>
-11.963078

>  <E_refine>
-38.541622

>  <E_score2>
-7.4276061

>  <Field_2>
JZ08

>  <pseq>
58

>  <%C>
99.994286

>  <a_heavy>
28

>  <h_logP>
2.5537581

>  <Weight>
378.43201

>  <E_orig>
2.4000001

>  <PLIF_raw>
[[1,47],[3751,3722],[263,260],[4,2],[1.3,2.1]]

>  <FP:PLIF>
26 27 15

>  <PLIF_ligidx>
[47,47,1]

$$$$

  MOE2020           3D

 44 47  0  0  0  0  0  0  0  0999 V2000
    7.9550    4.1470   17.8620 N   0  0  0  0  0  0  0  0  0  0  0  0
    8.7900    3.6760   17.4820 H   0  0  0  0  0  0  0  0  0  0  0  0
    7.7730    4.0930   18.8760 H   0  0  0  0  0  0  0  0  0  0  0  0
    7.0350    4.6800   17.0130 C   0  0  0  0  0  0  0  0  0  0  0  0
    7.3050    4.6390   15.8170 O   0  0  0  0  0  0  0  0  0  0  0  0
    5.8220    5.2940   17.5480 C   0  0  0  0  0  0  0  0  0  0  0  0
    5.0990    6.1880   16.7440 C   0  0  0  0  0  0  0  0  0  0  0  0
    5.4060    6.3690   15.7460 H   0  0  0  0  0  0  0  0  0  0  0  0
    3.9940    6.8560   17.2450 C   0  0  0  0  0  0  0  0  0  0  0  0
    3.4640    7.5320   16.6290 H   0  0  0  0  0  0  0  0  0  0  0  0
    3.5920    6.6450   18.5660 C   0  0  0  0  0  0  0  0  0  0  0  0
    2.5330    7.4010   19.1230 N   0  0  0  0  0  0  0  0  0  0  0  0
    1.8810    6.9320   19.7710 H   0  0  0  0  0  0  0  0  0  0  0  0
    2.3550    8.7610   18.8980 C   0  0  0  0  0  0  0  0  0  0  0  0
    3.2160    9.3910   18.3050 O   0  0  0  0  0  0  0  0  0  0  0  0
    1.1290    9.3970   19.3320 C   0  0  0  0  0  0  0  0  0  0  0  0
    0.2510    9.8440   18.3750 C   0  0  0  0  0  0  0  0  0  0  0  0
    0.5010    9.7420   17.3520 H   0  0  0  0  0  0  0  0  0  0  0  0
   -0.9970   10.4050   18.7320 C   0  0  0  0  0  0  0  0  0  0  0  0
   -2.0310   10.6330   17.7240 C   0  0  0  0  0  0  0  0  0  0  0  0
   -3.0410   11.5820   17.8940 C   0  0  0  0  0  0  0  0  0  0  0  0
   -3.0450   12.2340   18.7300 H   0  0  0  0  0  0  0  0  0  0  0  0
   -4.0530   11.6470   16.9510 C   0  0  0  0  0  0  0  0  0  0  0  0
   -4.8390   12.3490   17.0560 H   0  0  0  0  0  0  0  0  0  0  0  0
   -4.0300   10.7830   15.8610 C   0  0  0  0  0  0  0  0  0  0  0  0
   -4.8050   10.7990   15.1450 H   0  0  0  0  0  0  0  0  0  0  0  0
   -3.0500    9.9050   15.6790 N   0  0  0  0  0  0  0  0  0  0  0  0
   -2.0760    9.8320   16.5740 C   0  0  0  0  0  0  0  0  0  0  0  0
   -1.3240    9.1120   16.4010 H   0  0  0  0  0  0  0  0  0  0  0  0
   -1.2720   10.6440   19.9940 N   0  0  0  0  0  0  0  0  0  0  0  0
   -0.4090   10.2860   20.9880 C   0  0  0  0  0  0  0  0  0  0  0  0
   -0.7490   10.5750   22.3270 C   0  0  0  0  0  0  0  0  0  0  0  0
   -1.6580   11.0800   22.5350 H   0  0  0  0  0  0  0  0  0  0  0  0
    0.0890   10.2070   23.3500 C   0  0  0  0  0  0  0  0  0  0  0  0
   -0.1670   10.4300   24.3490 H   0  0  0  0  0  0  0  0  0  0  0  0
    1.2930    9.5350   23.0730 C   0  0  0  0  0  0  0  0  0  0  0  0
    1.9340    9.2730   23.8720 H   0  0  0  0  0  0  0  0  0  0  0  0
    1.6390    9.2310   21.7770 C   0  0  0  0  0  0  0  0  0  0  0  0
    2.5460    8.7210   21.5840 H   0  0  0  0  0  0  0  0  0  0  0  0
    0.8020    9.6150   20.7000 C   0  0  0  0  0  0  0  0  0  0  0  0
    4.2450    5.6990   19.3570 C   0  0  0  0  0  0  0  0  0  0  0  0
    3.9020    5.5040   20.3390 H   0  0  0  0  0  0  0  0  0  0  0  0
    5.3580    5.0360   18.8520 C   0  0  0  0  0  0  0  0  0  0  0  0
    5.8600    4.3320   19.4640 H   0  0  0  0  0  0  0  0  0  0  0  0
  1  2  1  0  0  0  0
  1  3  1  0  0  0  0
  1  4  1  0  0  0  0
  4  5  2  0  0  0  0
  4  6  1  0  0  0  0
  6  7  1  0  0  0  0
  6 43  2  0  0  0  0
  7  8  1  0  0  0  0
  7  9  2  0  0  0  0
  9 10  1  0  0  0  0
  9 11  1  0  0  0  0
 11 12  1  0  0  0  0
 11 41  2  0  0  0  0
 12 13  1  0  0  0  0
 12 14  1  0  0  0  0
 14 15  2  0  0  0  0
 14 16  1  0  0  0  0
 16 17  1  0  0  0  0
 16 40  2  0  0  0  0
 17 18  1  0  0  0  0
 17 19  2  0  0  0  0
 19 20  1  0  0  0  0
 19 30  1  0  0  0  0
 20 21  1  0  0  0  0
 20 28  2  0  0  0  0
 21 22  1  0  0  0  0
 21 23  2  0  0  0  0
 23 24  1  0  0  0  0
 23 25  1  0  0  0  0
 25 26  1  0  0  0  0
 25 27  2  0  0  0  0
 27 28  1  0  0  0  0
 28 29  1  0  0  0  0
 30 31  2  0  0  0  0
 31 32  1  0  0  0  0
 31 40  1  0  0  0  0
 32 33  1  0  0  0  0
 32 34  2  0  0  0  0
 34 35  1  0  0  0  0
 34 36  1  0  0  0  0
 36 37  1  0  0  0  0
 36 38  2  0  0  0  0
 38 39  1  0  0  0  0
 38 40  1  0  0  0  0
 41 42  1  0  0  0  0
 41 43  1  0  0  0  0
 43 44  1  0  0  0  0
M  END
>  <receptor>
S(=O)(=O)([O-])[O-].S(CCC(NC(=O)C(NC(=O)C(NC(=O)CNC(=O)C(NC(=O)C1N(C(=O)C(NC(=O)C(NC(=O)C(NC(=O)C(NC(=O)C(NC(=O)C(NC(=O)C(NC(=O)C(NC(=O)C(NC(=O)C(NC(=O)C(NC(=O)C(NC(=O)C(NC(=O)C(NC(=O)C(NC(=O)C(NC(=O)C(NC(=O)C(NC(=O)C(NC(=O)CNC(=O)C(NC(=O)C(NC(=O)C(NC(=O)C(NC(=O)C(NC(=O)C(NC(=O)C(NC(=O)C(NC(=O)C(NC(=O)C(NC(=O)C(NC(=O)C(NC(=O)C(NC(=O)C)CCCC[NH3+])C(C)C)C(O)C)CCC(=O)N)CCC(=O)[O-])CCC(=O)N)Cc2ccccc2)CCC(=O)[O-])CC(C)C)Cc2ccc(O)cc2)CS)CCC(=O)[O-])CCSC)CO)C(O)C)Cc2ccccc2)CCC(=O)N)CC(C)C)C[S-])CCCC[NH3+])C(CC)C)C[S-])C)CCC(=O)[O-])CC(=O)N)CC(=O)[O-])CCCC[NH3+])CC(=O)[O-])C(C)C)CCCC[NH3+])C(CC)C)CCC(=O)[O-])CCC1)C[S-])Cc1nc[n-]c1)CC(C)C)C(=O)NC(C(=O)NC(C(=O)NC(C(=O)NC(C(=O)NC(C(=O)NC(C(=O)NC(C(=O)NC(C(=O)NC(C(=O)NC(C(=O)NC(C(=O)NC(C(=O)NCC(=O)NC(C(=O)NCC(=O)NC(C(=O)N1C(C(=O)NC(C(=O)NC(C(=O)NC(C(=O)NC(C(=O)NC(C(=O)NC(C(=O)NC(C(=O)NCC(=O)NC(C(=O)NC(C(=O)N2C(C(=O)NC(C(=O)NC(C(=O)NC(C(=O)NC(C(=O)N3C(C(=O)NC(C(=O)NC(C(=O)[O-])CC(=O)[O-])Cc4ccccc4)CCC3)CC(=O)[O-])C(C)C)C(CC)C)C(CC)C)CCC2)CCC(=O)[O-])C(O)C)CCCC[NH3+])C(CC)C)CCC(=O)[O-])CS)CCCNC(=[NH2+])N)C[S-])Cc2ccccc2)CCC1)C[S-])CCC(=O)N)CC(=O)[O-])CO)CCC(=O)[O-])CCC(=O)N)Cc1c2c([nH]c1)cccc2)C)C(O)C)CC(C)C)C[S-])CO)C(O)C)C[S-])C.S(CCC(NC(=O)C(NC(=O)C(NC(=O)C(NC(=O)C(NC(=O)C(NC(=O)C(NC(=O)C(NC(=O)C(NC(=O)C(NC(=O)C(NC(=O)C(NC(=O)C(NC(=O)C(NC(=O)C(NC(=O)C(NC(=O)C[NH3+])CCC(=O)N)C)C)C)CC(=O)[O-])CCCNC(=[NH2+])N)CCCNC(=[NH2+])N)C(O)C)C(C)C)CCC(=O)[O-])CCCC[NH3+])C(O)C)Cc1c2c([nH]c1)cccc2)C)CC(C)C)C(=O)NC(C(=O)NC(C(=O)NC(C(=O)NC(C(=O)NC(C(=O)NC(C(=O)NC(C(=O)NC(C(=O)NC(C(=O)N1C(C(=O)NC(C(=O)NC(C(=O)NC(C(=O)NC(C(=O)NC(C(=O)NC(C(=O)NC(C(=O)N2C(C(=O)N3C(C(=O)NC(C(=O)NC(C(=O)NC(C(=O)NC(C(=O)NC(C(=O)NC(C(=O)N4C(C(=O)NC(C(=O)NC(C(=O)NC(C(=O)NC(C(=O)NC(C(=O)NC(C(=O)NC(C(=O)NC(C(=O)NC(C(=O)NC(C(=O)NC(C(=O)NC(C(=O)NC(C(=O)NC(C(=O)NC(C(=O)NC(C(=O)NC(C(=O)NC(C(=O)NC(C(=O)NC(C(=O)NC(C(=O)NC(C(=O)NC(C(=O)NC(C(=O)NC(C(=O)NC(C(=O)NC(C(=O)NC(C(=O)NC(C(=O)NC(C(=O)NC(C(=O)NC(C(=O)NC(C(=O)NC(C(=O)NC(C(=O)NC(C(=O)NC(C(=O)NC(C(=O)NC(C(=O)NC(C(=O)NC(C(=O)NC(C(=O)NC(C(=O)NC(C(=O)NC(C(=O)NC(C(=O)NC(C(=O)NC(C(=O)NCC(=O)NC(C(=O)NC(C(=O)NC(C(=O)NC(C(=O)NC(C(=O)NC(C(=O)NC(C(=O)NC(C(=O)NC(C(=O)NC(C(=O)NC(C(=O)NC(C(=O)NC(C(=O)NC(C(=O)NC(C(=O)NC(C(=O)NC(C(=O)NC(C(=O)NC(C(=O)NC(C(=O)NC(C(=O)NC(C(=O)NC(C(=O)NC(C(=O)NC(C(=O)NC(C(=O)NC(C(=O)NC(C(=O)NC(C(=O)NC(C(=O)NC(C(=O)NC(C(=O)NC(C(=O)N5C(C(=O)NC(C(=O)NCC(=O)NC(C(=O)NC(C(=O)NC(C(=O)NCC(=O)NC(C(=O)NC(C(=O)NC(C(=O)NC(C(=O)NC(C(=O)NC(C(=O)NC(C(=O)NC(C(=O)NC(C(=O)NC(C(=O)NC(C(=O)NC(C(=O)NC(C(=O)NC(C(=O)NC(C(=O)NC(C(=O)NC(C(=O)NC(C(=O)NCC(=O)NC(C(=O)NC(C(=O)NC(C(=O)NC(C(=O)NC(C(=O)N6C(C(=O)NC(C(=O)NC(C(=O)NC(C(=O)NC(C(=O)NC(C(=O)NC(C(=O)NC(C(=O)NC(C(=O)NC(C(=O)NC(C(=O)NC(C(=O)NC(C(=O)NC(C(=O)NC(C(=O)NC(C(=O)NC(C(=O)NCC(=O)NC(C(=O)NC(C(=O)NC(C(=O)NC(C(=O)NC(C(=O)NC(C(=O)NC(C(=O)NC(C(=O)NC(C(=O)NC(C(=O)NC(C(=O)NC(C(=O)NC(C(=O)NC(C(=O)NC(C(=O)NC(C(=O)NC(C(=O)NC(C(=O)NC(C(=O)NC(C(=O)NC(C(=O)NC(C(=O)NC(C(=O)NC(C(=O)NC(C(=O)NC(C(=O)NC(C(=O)NC(C(=O)NC(C(=O)NC(C(=O)NC(C(=O)N7C(C(=O)NC(C(=O)NCC(=O)NC(C(=O)NC(C(=O)NC(C(=O)NC(C(=O)NC(C(=O)NC(C(=O)NC(C(=O)NC(C(=O)NC(C(=O)NC(C(=O)NC(C(=O)NC(C(=O)NC(C(=O)N8C(C(=O)NCC(=O)NC(C(=O)NC(C(=O)NC(C(=O)NC(C(=O)NC(C(=O)NC(C(=O)NC(C(=O)NC(C(=O)NC(C(=O)NC(C(=O)NC(C(=O)NC(C(=O)NC(C(=O)NC(C(=O)NC(C(=O)NC(C(=O)NC(C(=O)NC(C(=O)NC(C(=O)NC(C(=O)N9C(C(=O)NCC(=O)NC(C(=O)NC(C(=O)NC(C(=O)NC(C(=O)NC(C(=O)NC(C(=O)NC(C(=O)NC(C(=O)NC(C(=O)NC(C(=O)NC(C(=O)NCC(=O)NC(C(=O)NC(C(=O)NC(C(=O)NC(C(=O)NCC(=O)NC(C(=O)NC(C(=O)NC(C(=O)NCC(=O)NC(C(=O)NCC(=O)NC(C(=O)NC(C(=O)NC(C(=O)NC(C(=O)NC(C(=O)NC(C(=O)N%10C(C(=O)NC(C(=O)NC(C(=O)NC(C(=O)N%11C(C(=O)NC(C(=O)NC(C(=O)NC(C(=O)NC(C(=O)NC(C(=O)NC(C(=O)NC(C(=O)NCC(=O)NC(C(=O)NC(C(=O)NC(C(=O)NCC(=O)NC(C(=O)NC(C(=O)NC(C(=O)NC(C(=O)N%12C(C(=O)NC(C(=O)NCC(=O)NC(C(=O)NC(C(=O)NC(C(=O)NC(C(=O)NC)CC(=O)N)Cc%13ccc(O)cc%13)CO)CCCNC(=[NH2+])N)CC(=O)[O-])CCC%12)Cc%12ccc(O)cc%12)CC(C)C)Cc%12ccc(O)cc%12)Cc%12ccccc%12)CCC(=O)[O-])C)CO)CC(=O)[O-])C(CC)C)CC(C)C)C)CCC(=O)N)Cc%12ccccc%12)CC(C)C)CCC%11)CCCC[NH3+])CC(=O)N)Cc%11[nH]cnc%11)CCC%10)C(CC)C)C(O)C)CCC(=O)N)CC(C)C)C(CC)C)CC(=O)N)CC(=O)[O-])C(O)C)C(C)C)Cc%10ccc(O)cc%10)C(CC)C)C)Cc%10c%11c([nH]c%10)cccc%11)CCC(=O)N)CC(C)C)CCCNC(=[NH2+])N)C(O)C)CS)CO)CC(C)C)CCCNC(=[NH2+])N)Cc%10ccccc%10)C(CC)C)Cc%10ccc(O)cc%10)CO)CCC9)CCCC[NH3+])C(O)C)CO)Cc9ccc(O)cc9)CCCC[NH3+])CCC(=O)N)CC(C)C)CCCNC(=[NH2+])N)C)CCCC[NH3+])C(C)C)CCC(=O)[O-])CC(=O)[O-])Cc9ccc(O)cc9)C(O)C)CC(C)C)Cc9ccccc9)C)CCSC)Cc9ccc(O)cc9)CCC8)Cc8nc[nH]c8)C(O)C)C(C)C)C)CC(C)C)Cc8ccccc8)CC(=O)N)Cc8c9c([nH]c8)cccc9)CC(=O)N)CCCNC(=[NH2+])N)CC(C)C)C(CC)C)CO)Cc8c9c([nH]c8)cccc9)CCC7)CCC(=O)N)Cc7ccccc7)CC(C)C)CCCNC(=[NH2+])N)C(O)C)Cc7ccccc7)C(CC)C)CC(=O)[O-])Cc7ccccc7)CCC(=O)[O-])Cc7ccccc7)C(C)C)CO)C(CC)C)Cc7ccc(O)cc7)CC(=O)[O-])CC(=O)N)CS)C(O)C)CC(C)C)CC(=O)[O-])C(CC)C)C(O)C)CO)CCCC[NH3+])CC(C)C)C)CCSC)C)CCC(=O)[O-])CC(C)C)CO)CO)C(CC)C)CCC(=O)N)Cc7nc[nH]c7)C(C)C)CCC(=O)[O-])Cc7nc[nH]c7)CC(C)C)CS)CCC(=O)N)CCCNC(=[NH2+])N)Cc7ccccc7)C(C)C)CCCC[NH3+])Cc7c8c([nH]c7)cccc8)CCC6)C(C)C)C(CC)C)C(O)C)CCCC[NH3+])CC(=O)[O-])Cc6ccccc6)Cc6ccccc6)CCCC[NH3+])CCCNC(=[NH2+])N)Cc6c7c([nH]c6)cccc7)Cc6ccccc6)CCC(=O)[O-])C)C)CC(=O)[O-])C)CCCC[NH3+])C(O)C)C(CC)C)CCCNC(=[NH2+])N)Cc6ccccc6)CC(=O)N)CC(=O)[O-])CCC(=O)N)Cc6ccccc6)CCC(=O)N)CC(=O)N)CCC5)Cc5ccccc5)C(CC)C)C)CCCC[NH3+])C(CC)C)CCC(=O)[O-])C)CC(C)C)CCSC)Cc5nc[nH]c5)CO)Cc5ccccc5)C(CC)C)CC(C)C)CO)CC(C)C)CCCC[NH3+])C(O)C)CC(C)C)CC(=O)N)CCCNC(=[NH2+])N)CCCNC(=[NH2+])N)CC(=O)[O-])CCC(=O)N)CO)CCC(=O)N)CCC(=O)[O-])CCC(=O)[O-])Cc5ccc(O)cc5)CCSC)CCCNC(=[NH2+])N)CCC(=O)[O-])CCCC[NH3+])CCC(=O)[O-])CCCC[NH3+])Cc5ccccc5)CC(C)C)CCCNC(=[NH2+])N)C(CC)C)C)CCCNC(=[NH2+])N)CCCC[NH3+])CO)CCCC[NH3+])CCCC[NH3+])CCSC)CC(C)C)CO)CC(=O)[O-])C(CC)C)Cc5ccc(O)cc5)C(CC)C)CCCC[NH3+])Cc5ccccc5)Cc5ccc(O)cc5)CCC(=O)[O-])CC(=O)N)CCC(=O)[O-])CO)CC(C)C)CCC(=O)N)C)CC(C)C)CCCC[NH3+])CCC(=O)N)CC(=O)N)CC(=O)[O-])CC(=O)[O-])Cc5ccc(O)cc5)CCCC[NH3+])CO)CC(C)C)C(CC)C)CC(C)C)CCCNC(=[NH2+])N)CC(C)C)Cc5nc[nH]c5)CCC(=O)N)Cc5ccc(O)cc5)C(O)C)CC(=O)[O-])CCC4)CC(C)C)C(CC)C)CC(=O)[O-])CC(C)C)C(CC)C)Cc4ccc(O)cc4)CCC3)CCC2)CO)CC(=O)N)CCCC[NH3+])CC(C)C)CCC(=O)N)CC(C)C)CCCC[NH3+])CCC1)CC(=O)N)CCC(=O)N)CS)CC(C)C)CCCNC(=[NH2+])N)C(C)C)C(C)C)C)CC(=O)[O-])C.OCCO.[UH+3].[Zn+2].[Zn+2].O.O.O.O.O.O.O.O.O.O.O.O.O.O.O.O.O.O.O.O.O.O.O.O.O.O.O.O.O.O.O.O.O.O.O.O.O.O.O.O.O.O.O.O.O.O.O.O.O.O.O.O.O.O.O.O.O.O.O.O.O.O.O.O.O.O.O.O.O.O.O.O.O.O.O.O.O.O.O.O.O.O.O.O.O.O.O.O.O.O.O.O.O.O.O.O.O.O.O.O.O.O.O.O.O.O.O.O.O.O.O.O.O.O.O.O.O.O.O.O.O.O.O.O.O.O.O.O.O.O.O.O.O.O.O.O.O.O.O.O.O.O

>  <rseq>
1

>  <mseq>
59

>  <S>
-7.6449399

>  <rmsd_refine>
1.3010507

>  <E_conf>
-35.409153

>  <E_place>
-85.654991

>  <E_score1>
-12.326659

>  <E_refine>
-39.162933

>  <E_score2>
-7.6449399

>  <Field_2>
JZ09

>  <pseq>
59

>  <%C>
96.601227

>  <a_heavy>
28

>  <h_logP>
3.8053379

>  <Weight>
368.396

>  <E_orig>
1.2

>  <PLIF_raw>
[[1,27],[3032,4205],[218,289],[1,1],[0.9,1]]

>  <FP:PLIF>
46 36

>  <PLIF_ligidx>
[1,27]

$$$$

  MOE2020           3D

 44 48  0  0  0  0  0  0  0  0999 V2000
   -1.4070   12.8140   18.5770 C   0  0  0  0  0  0  0  0  0  0  0  0
   -0.5040   12.7240   19.1610 H   0  0  0  0  0  0  0  0  0  0  0  0
   -2.2140   13.0560   19.2540 H   0  0  0  0  0  0  0  0  0  0  0  0
   -1.2560   13.6690   17.9340 H   0  0  0  0  0  0  0  0  0  0  0  0
   -1.7010   11.6190   17.7940 N   0  0  0  0  0  0  0  0  0  0  0  0
   -2.6280   11.5690   16.8470 C   0  0  0  0  0  0  0  0  0  0  0  0
   -3.2570   12.3950   16.6500 H   0  0  0  0  0  0  0  0  0  0  0  0
   -2.6120   10.4150   16.2640 N   0  0  0  0  0  0  0  0  0  0  0  0
   -1.6440    9.6790   16.8790 N   0  0  0  0  0  0  0  0  0  0  0  0
   -1.1140   10.4110   17.8260 C   0  0  0  0  0  0  0  0  0  0  0  0
   -0.1070    9.9830   18.7840 C   0  0  0  0  0  0  0  0  0  0  0  0
    0.8720    9.0640   18.4270 C   0  0  0  0  0  0  0  0  0  0  0  0
    0.9680    8.7370   17.4290 H   0  0  0  0  0  0  0  0  0  0  0  0
    1.6650    8.5180   19.4230 C   0  0  0  0  0  0  0  0  0  0  0  0
    2.5640    7.4930   19.1250 N   0  0  0  0  0  0  0  0  0  0  0  0
    3.5340    7.5120   18.0250 C   0  0  0  0  0  0  0  0  0  0  0  0
    3.0440    7.6360   17.0720 H   0  0  0  0  0  0  0  0  0  0  0  0
    4.2310    8.3250   18.1520 H   0  0  0  0  0  0  0  0  0  0  0  0
    4.2360    6.1800   18.1220 C   0  0  0  0  0  0  0  0  0  0  0  0
    3.6670    5.4890   19.1750 C   0  0  0  0  0  0  0  0  0  0  0  0
    4.0970    4.2090   19.5030 C   0  0  0  0  0  0  0  0  0  0  0  0
    3.6370    3.6710   20.2900 H   0  0  0  0  0  0  0  0  0  0  0  0
    5.1430    3.6530   18.7820 C   0  0  0  0  0  0  0  0  0  0  0  0
    5.5020    2.6960   19.0370 H   0  0  0  0  0  0  0  0  0  0  0  0
    5.7290    4.3500   17.7260 C   0  0  0  0  0  0  0  0  0  0  0  0
    6.5270    3.8940   17.1970 H   0  0  0  0  0  0  0  0  0  0  0  0
    5.2750    5.6250   17.3720 C   0  0  0  0  0  0  0  0  0  0  0  0
    5.9160    6.3850   16.2210 C   0  0  0  0  0  0  0  0  0  0  0  0
    6.6260    7.4360   16.6600 F   0  0  0  0  0  0  0  0  0  0  0  0
    5.0080    6.8660   15.3600 F   0  0  0  0  0  0  0  0  0  0  0  0
    6.7610    5.6370   15.4920 F   0  0  0  0  0  0  0  0  0  0  0  0
    2.6380    6.2830   19.7990 C   0  0  0  0  0  0  0  0  0  0  0  0
    1.9090    5.9760   20.7310 O   0  0  0  0  0  0  0  0  0  0  0  0
    1.5640    8.9230   20.6840 N   0  0  0  0  0  0  0  0  0  0  0  0
    0.6590    9.8520   20.9670 C   0  0  0  0  0  0  0  0  0  0  0  0
    0.5760   10.3050   22.4040 C   0  0  0  0  0  0  0  0  0  0  0  0
    1.5120   10.6730   22.7930 H   0  0  0  0  0  0  0  0  0  0  0  0
   -0.2470    9.4910   23.3620 C   0  0  0  0  0  0  0  0  0  0  0  0
   -0.8060    8.6580   22.9600 H   0  0  0  0  0  0  0  0  0  0  0  0
    0.1720    9.3110   24.3400 H   0  0  0  0  0  0  0  0  0  0  0  0
   -0.6850   10.8740   22.9970 C   0  0  0  0  0  0  0  0  0  0  0  0
   -0.5750   11.6640   23.7240 H   0  0  0  0  0  0  0  0  0  0  0  0
   -1.5560   10.9810   22.3670 H   0  0  0  0  0  0  0  0  0  0  0  0
   -0.1700   10.3790   20.0680 N   0  0  0  0  0  0  0  0  0  0  0  0
  1  2  1  0  0  0  0
  1  3  1  0  0  0  0
  1  4  1  0  0  0  0
  1  5  1  0  0  0  0
  5  6  1  0  0  0  0
  5 10  1  0  0  0  0
  6  7  1  0  0  0  0
  6  8  2  0  0  0  0
  8  9  1  0  0  0  0
  9 10  2  0  0  0  0
 10 11  1  0  0  0  0
 11 12  1  0  0  0  0
 11 44  2  0  0  0  0
 12 13  1  0  0  0  0
 12 14  2  0  0  0  0
 14 15  1  0  0  0  0
 14 34  1  0  0  0  0
 15 16  1  0  0  0  0
 15 32  1  0  0  0  0
 16 17  1  0  0  0  0
 16 18  1  0  0  0  0
 16 19  1  0  0  0  0
 19 20  1  0  0  0  0
 19 27  2  0  0  0  0
 20 21  2  0  0  0  0
 20 32  1  0  0  0  0
 21 22  1  0  0  0  0
 21 23  1  0  0  0  0
 23 24  1  0  0  0  0
 23 25  2  0  0  0  0
 25 26  1  0  0  0  0
 25 27  1  0  0  0  0
 27 28  1  0  0  0  0
 28 29  1  0  0  0  0
 28 30  1  0  0  0  0
 28 31  1  0  0  0  0
 32 33  2  0  0  0  0
 34 35  2  0  0  0  0
 35 36  1  0  0  0  0
 35 44  1  0  0  0  0
 36 37  1  0  0  0  0
 36 38  1  0  0  0  0
 36 41  1  0  0  0  0
 38 39  1  0  0  0  0
 38 40  1  0  0  0  0
 38 41  1  0  0  0  0
 41 42  1  0  0  0  0
 41 43  1  0  0  0  0
M  END
>  <receptor>
S(=O)(=O)([O-])[O-].S(CCC(NC(=O)C(NC(=O)C(NC(=O)CNC(=O)C(NC(=O)C1N(C(=O)C(NC(=O)C(NC(=O)C(NC(=O)C(NC(=O)C(NC(=O)C(NC(=O)C(NC(=O)C(NC(=O)C(NC(=O)C(NC(=O)C(NC(=O)C(NC(=O)C(NC(=O)C(NC(=O)C(NC(=O)C(NC(=O)C(NC(=O)C(NC(=O)C(NC(=O)CNC(=O)C(NC(=O)C(NC(=O)C(NC(=O)C(NC(=O)C(NC(=O)C(NC(=O)C(NC(=O)C(NC(=O)C(NC(=O)C(NC(=O)C(NC(=O)C(NC(=O)C(NC(=O)C)CCCC[NH3+])C(C)C)C(O)C)CCC(=O)N)CCC(=O)[O-])CCC(=O)N)Cc2ccccc2)CCC(=O)[O-])CC(C)C)Cc2ccc(O)cc2)CS)CCC(=O)[O-])CCSC)CO)C(O)C)Cc2ccccc2)CCC(=O)N)CC(C)C)C[S-])CCCC[NH3+])C(CC)C)C[S-])C)CCC(=O)[O-])CC(=O)N)CC(=O)[O-])CCCC[NH3+])CC(=O)[O-])C(C)C)CCCC[NH3+])C(CC)C)CCC(=O)[O-])CCC1)C[S-])Cc1nc[n-]c1)CC(C)C)C(=O)NC(C(=O)NC(C(=O)NC(C(=O)NC(C(=O)NC(C(=O)NC(C(=O)NC(C(=O)NC(C(=O)NC(C(=O)NC(C(=O)NC(C(=O)NC(C(=O)NCC(=O)NC(C(=O)NCC(=O)NC(C(=O)N1C(C(=O)NC(C(=O)NC(C(=O)NC(C(=O)NC(C(=O)NC(C(=O)NC(C(=O)NC(C(=O)NCC(=O)NC(C(=O)NC(C(=O)N2C(C(=O)NC(C(=O)NC(C(=O)NC(C(=O)NC(C(=O)N3C(C(=O)NC(C(=O)NC(C(=O)[O-])CC(=O)[O-])Cc4ccccc4)CCC3)CC(=O)[O-])C(C)C)C(CC)C)C(CC)C)CCC2)CCC(=O)[O-])C(O)C)CCCC[NH3+])C(CC)C)CCC(=O)[O-])CS)CCCNC(=[NH2+])N)C[S-])Cc2ccccc2)CCC1)C[S-])CCC(=O)N)CC(=O)[O-])CO)CCC(=O)[O-])CCC(=O)N)Cc1c2c([nH]c1)cccc2)C)C(O)C)CC(C)C)C[S-])CO)C(O)C)C[S-])C.S(CCC(NC(=O)C(NC(=O)C(NC(=O)C(NC(=O)C(NC(=O)C(NC(=O)C(NC(=O)C(NC(=O)C(NC(=O)C(NC(=O)C(NC(=O)C(NC(=O)C(NC(=O)C(NC(=O)C(NC(=O)C(NC(=O)C[NH3+])CCC(=O)N)C)C)C)CC(=O)[O-])CCCNC(=[NH2+])N)CCCNC(=[NH2+])N)C(O)C)C(C)C)CCC(=O)[O-])CCCC[NH3+])C(O)C)Cc1c2c([nH]c1)cccc2)C)CC(C)C)C(=O)NC(C(=O)NC(C(=O)NC(C(=O)NC(C(=O)NC(C(=O)NC(C(=O)NC(C(=O)NC(C(=O)NC(C(=O)N1C(C(=O)NC(C(=O)NC(C(=O)NC(C(=O)NC(C(=O)NC(C(=O)NC(C(=O)NC(C(=O)N2C(C(=O)N3C(C(=O)NC(C(=O)NC(C(=O)NC(C(=O)NC(C(=O)NC(C(=O)NC(C(=O)N4C(C(=O)NC(C(=O)NC(C(=O)NC(C(=O)NC(C(=O)NC(C(=O)NC(C(=O)NC(C(=O)NC(C(=O)NC(C(=O)NC(C(=O)NC(C(=O)NC(C(=O)NC(C(=O)NC(C(=O)NC(C(=O)NC(C(=O)NC(C(=O)NC(C(=O)NC(C(=O)NC(C(=O)NC(C(=O)NC(C(=O)NC(C(=O)NC(C(=O)NC(C(=O)NC(C(=O)NC(C(=O)NC(C(=O)NC(C(=O)NC(C(=O)NC(C(=O)NC(C(=O)NC(C(=O)NC(C(=O)NC(C(=O)NC(C(=O)NC(C(=O)NC(C(=O)NC(C(=O)NC(C(=O)NC(C(=O)NC(C(=O)NC(C(=O)NC(C(=O)NC(C(=O)NC(C(=O)NC(C(=O)NC(C(=O)NCC(=O)NC(C(=O)NC(C(=O)NC(C(=O)NC(C(=O)NC(C(=O)NC(C(=O)NC(C(=O)NC(C(=O)NC(C(=O)NC(C(=O)NC(C(=O)NC(C(=O)NC(C(=O)NC(C(=O)NC(C(=O)NC(C(=O)NC(C(=O)NC(C(=O)NC(C(=O)NC(C(=O)NC(C(=O)NC(C(=O)NC(C(=O)NC(C(=O)NC(C(=O)NC(C(=O)NC(C(=O)NC(C(=O)NC(C(=O)NC(C(=O)NC(C(=O)NC(C(=O)NC(C(=O)N5C(C(=O)NC(C(=O)NCC(=O)NC(C(=O)NC(C(=O)NC(C(=O)NCC(=O)NC(C(=O)NC(C(=O)NC(C(=O)NC(C(=O)NC(C(=O)NC(C(=O)NC(C(=O)NC(C(=O)NC(C(=O)NC(C(=O)NC(C(=O)NC(C(=O)NC(C(=O)NC(C(=O)NC(C(=O)NC(C(=O)NC(C(=O)NC(C(=O)NCC(=O)NC(C(=O)NC(C(=O)NC(C(=O)NC(C(=O)NC(C(=O)N6C(C(=O)NC(C(=O)NC(C(=O)NC(C(=O)NC(C(=O)NC(C(=O)NC(C(=O)NC(C(=O)NC(C(=O)NC(C(=O)NC(C(=O)NC(C(=O)NC(C(=O)NC(C(=O)NC(C(=O)NC(C(=O)NC(C(=O)NCC(=O)NC(C(=O)NC(C(=O)NC(C(=O)NC(C(=O)NC(C(=O)NC(C(=O)NC(C(=O)NC(C(=O)NC(C(=O)NC(C(=O)NC(C(=O)NC(C(=O)NC(C(=O)NC(C(=O)NC(C(=O)NC(C(=O)NC(C(=O)NC(C(=O)NC(C(=O)NC(C(=O)NC(C(=O)NC(C(=O)NC(C(=O)NC(C(=O)NC(C(=O)NC(C(=O)NC(C(=O)NC(C(=O)NC(C(=O)NC(C(=O)NC(C(=O)N7C(C(=O)NC(C(=O)NCC(=O)NC(C(=O)NC(C(=O)NC(C(=O)NC(C(=O)NC(C(=O)NC(C(=O)NC(C(=O)NC(C(=O)NC(C(=O)NC(C(=O)NC(C(=O)NC(C(=O)NC(C(=O)N8C(C(=O)NCC(=O)NC(C(=O)NC(C(=O)NC(C(=O)NC(C(=O)NC(C(=O)NC(C(=O)NC(C(=O)NC(C(=O)NC(C(=O)NC(C(=O)NC(C(=O)NC(C(=O)NC(C(=O)NC(C(=O)NC(C(=O)NC(C(=O)NC(C(=O)NC(C(=O)NC(C(=O)NC(C(=O)N9C(C(=O)NCC(=O)NC(C(=O)NC(C(=O)NC(C(=O)NC(C(=O)NC(C(=O)NC(C(=O)NC(C(=O)NC(C(=O)NC(C(=O)NC(C(=O)NC(C(=O)NCC(=O)NC(C(=O)NC(C(=O)NC(C(=O)NC(C(=O)NCC(=O)NC(C(=O)NC(C(=O)NC(C(=O)NCC(=O)NC(C(=O)NCC(=O)NC(C(=O)NC(C(=O)NC(C(=O)NC(C(=O)NC(C(=O)NC(C(=O)N%10C(C(=O)NC(C(=O)NC(C(=O)NC(C(=O)N%11C(C(=O)NC(C(=O)NC(C(=O)NC(C(=O)NC(C(=O)NC(C(=O)NC(C(=O)NC(C(=O)NCC(=O)NC(C(=O)NC(C(=O)NC(C(=O)NCC(=O)NC(C(=O)NC(C(=O)NC(C(=O)NC(C(=O)N%12C(C(=O)NC(C(=O)NCC(=O)NC(C(=O)NC(C(=O)NC(C(=O)NC(C(=O)NC)CC(=O)N)Cc%13ccc(O)cc%13)CO)CCCNC(=[NH2+])N)CC(=O)[O-])CCC%12)Cc%12ccc(O)cc%12)CC(C)C)Cc%12ccc(O)cc%12)Cc%12ccccc%12)CCC(=O)[O-])C)CO)CC(=O)[O-])C(CC)C)CC(C)C)C)CCC(=O)N)Cc%12ccccc%12)CC(C)C)CCC%11)CCCC[NH3+])CC(=O)N)Cc%11[nH]cnc%11)CCC%10)C(CC)C)C(O)C)CCC(=O)N)CC(C)C)C(CC)C)CC(=O)N)CC(=O)[O-])C(O)C)C(C)C)Cc%10ccc(O)cc%10)C(CC)C)C)Cc%10c%11c([nH]c%10)cccc%11)CCC(=O)N)CC(C)C)CCCNC(=[NH2+])N)C(O)C)CS)CO)CC(C)C)CCCNC(=[NH2+])N)Cc%10ccccc%10)C(CC)C)Cc%10ccc(O)cc%10)CO)CCC9)CCCC[NH3+])C(O)C)CO)Cc9ccc(O)cc9)CCCC[NH3+])CCC(=O)N)CC(C)C)CCCNC(=[NH2+])N)C)CCCC[NH3+])C(C)C)CCC(=O)[O-])CC(=O)[O-])Cc9ccc(O)cc9)C(O)C)CC(C)C)Cc9ccccc9)C)CCSC)Cc9ccc(O)cc9)CCC8)Cc8nc[nH]c8)C(O)C)C(C)C)C)CC(C)C)Cc8ccccc8)CC(=O)N)Cc8c9c([nH]c8)cccc9)CC(=O)N)CCCNC(=[NH2+])N)CC(C)C)C(CC)C)CO)Cc8c9c([nH]c8)cccc9)CCC7)CCC(=O)N)Cc7ccccc7)CC(C)C)CCCNC(=[NH2+])N)C(O)C)Cc7ccccc7)C(CC)C)CC(=O)[O-])Cc7ccccc7)CCC(=O)[O-])Cc7ccccc7)C(C)C)CO)C(CC)C)Cc7ccc(O)cc7)CC(=O)[O-])CC(=O)N)CS)C(O)C)CC(C)C)CC(=O)[O-])C(CC)C)C(O)C)CO)CCCC[NH3+])CC(C)C)C)CCSC)C)CCC(=O)[O-])CC(C)C)CO)CO)C(CC)C)CCC(=O)N)Cc7nc[nH]c7)C(C)C)CCC(=O)[O-])Cc7nc[nH]c7)CC(C)C)CS)CCC(=O)N)CCCNC(=[NH2+])N)Cc7ccccc7)C(C)C)CCCC[NH3+])Cc7c8c([nH]c7)cccc8)CCC6)C(C)C)C(CC)C)C(O)C)CCCC[NH3+])CC(=O)[O-])Cc6ccccc6)Cc6ccccc6)CCCC[NH3+])CCCNC(=[NH2+])N)Cc6c7c([nH]c6)cccc7)Cc6ccccc6)CCC(=O)[O-])C)C)CC(=O)[O-])C)CCCC[NH3+])C(O)C)C(CC)C)CCCNC(=[NH2+])N)Cc6ccccc6)CC(=O)N)CC(=O)[O-])CCC(=O)N)Cc6ccccc6)CCC(=O)N)CC(=O)N)CCC5)Cc5ccccc5)C(CC)C)C)CCCC[NH3+])C(CC)C)CCC(=O)[O-])C)CC(C)C)CCSC)Cc5nc[nH]c5)CO)Cc5ccccc5)C(CC)C)CC(C)C)CO)CC(C)C)CCCC[NH3+])C(O)C)CC(C)C)CC(=O)N)CCCNC(=[NH2+])N)CCCNC(=[NH2+])N)CC(=O)[O-])CCC(=O)N)CO)CCC(=O)N)CCC(=O)[O-])CCC(=O)[O-])Cc5ccc(O)cc5)CCSC)CCCNC(=[NH2+])N)CCC(=O)[O-])CCCC[NH3+])CCC(=O)[O-])CCCC[NH3+])Cc5ccccc5)CC(C)C)CCCNC(=[NH2+])N)C(CC)C)C)CCCNC(=[NH2+])N)CCCC[NH3+])CO)CCCC[NH3+])CCCC[NH3+])CCSC)CC(C)C)CO)CC(=O)[O-])C(CC)C)Cc5ccc(O)cc5)C(CC)C)CCCC[NH3+])Cc5ccccc5)Cc5ccc(O)cc5)CCC(=O)[O-])CC(=O)N)CCC(=O)[O-])CO)CC(C)C)CCC(=O)N)C)CC(C)C)CCCC[NH3+])CCC(=O)N)CC(=O)N)CC(=O)[O-])CC(=O)[O-])Cc5ccc(O)cc5)CCCC[NH3+])CO)CC(C)C)C(CC)C)CC(C)C)CCCNC(=[NH2+])N)CC(C)C)Cc5nc[nH]c5)CCC(=O)N)Cc5ccc(O)cc5)C(O)C)CC(=O)[O-])CCC4)CC(C)C)C(CC)C)CC(=O)[O-])CC(C)C)C(CC)C)Cc4ccc(O)cc4)CCC3)CCC2)CO)CC(=O)N)CCCC[NH3+])CC(C)C)CCC(=O)N)CC(C)C)CCCC[NH3+])CCC1)CC(=O)N)CCC(=O)N)CS)CC(C)C)CCCNC(=[NH2+])N)C(C)C)C(C)C)C)CC(=O)[O-])C.OCCO.[UH+3].[Zn+2].[Zn+2].O.O.O.O.O.O.O.O.O.O.O.O.O.O.O.O.O.O.O.O.O.O.O.O.O.O.O.O.O.O.O.O.O.O.O.O.O.O.O.O.O.O.O.O.O.O.O.O.O.O.O.O.O.O.O.O.O.O.O.O.O.O.O.O.O.O.O.O.O.O.O.O.O.O.O.O.O.O.O.O.O.O.O.O.O.O.O.O.O.O.O.O.O.O.O.O.O.O.O.O.O.O.O.O.O.O.O.O.O.O.O.O.O.O.O.O.O.O.O.O.O.O.O.O.O.O.O.O.O.O.O.O.O.O.O.O.O.O.O.O.O.O

>  <rseq>
1

>  <mseq>
60

>  <S>
-7.6024694

>  <rmsd_refine>
1.8339911

>  <E_conf>
103.26913

>  <E_place>
-73.03376

>  <E_score1>
-10.995122

>  <E_refine>
-36.21405

>  <E_score2>
-7.6024694

>  <Field_2>
JZ10

>  <pseq>
60

>  <%C>
99.491623

>  <a_heavy>
29

>  <h_logP>
2.7450929

>  <Weight>
400.36398

>  <E_orig>
0.60000002

>  <PLIF_raw>
[6,3851,268,1,1]

>  <FP:PLIF>
10

>  <PLIF_ligidx>
6

$$$$

  MOE2020           3D

 48 51  0  0  1  0  0  0  0  0999 V2000
   -0.0810   14.2210   18.5890 C   0  0  0  0  0  0  0  0  0  0  0  0
   -0.5430   14.7760   17.7750 H   0  0  0  0  0  0  0  0  0  0  0  0
    0.9620   14.5320   18.6610 H   0  0  0  0  0  0  0  0  0  0  0  0
   -0.5880   14.4950   19.5140 H   0  0  0  0  0  0  0  0  0  0  0  0
   -0.1950   12.7340   18.3500 C   0  0  0  0  0  0  0  0  0  0  0  0
    0.8850   11.8830   18.5120 C   0  0  0  0  0  0  0  0  0  0  0  0
    1.8320   12.2650   18.7960 H   0  0  0  0  0  0  0  0  0  0  0  0
    0.7100   10.5170   18.3040 C   0  0  0  0  0  0  0  0  0  0  0  0
   -0.4990   10.0650   17.9420 N   0  0  0  0  0  0  0  0  0  0  0  0
   -1.5010   10.9240   17.7780 C   0  0  0  0  0  0  0  0  0  0  0  0
   -1.3680   12.2360   17.9860 N   0  0  0  0  0  0  0  0  0  0  0  0
   -2.8360   10.3660   17.3180 C   0  0  0  0  0  0  0  0  0  0  0  0
   -3.0690    9.3910   17.7230 H   0  0  0  0  0  0  0  0  0  0  0  0
   -3.2610   10.5970   15.8910 C   0  0  0  0  0  0  0  0  0  0  0  0
   -2.6420   11.2280   15.2680 H   0  0  0  0  0  0  0  0  0  0  0  0
   -3.7340    9.7830   15.3610 H   0  0  0  0  0  0  0  0  0  0  0  0
   -4.0160   11.2510   17.0060 C   0  0  0  0  0  0  0  0  0  0  0  0
   -5.0040   10.8820   17.2380 H   0  0  0  0  0  0  0  0  0  0  0  0
   -3.9150   12.3200   17.1290 H   0  0  0  0  0  0  0  0  0  0  0  0
    1.8160    9.5800   18.4760 C   0  0  0  0  0  0  0  0  0  0  0  0
    2.9880    9.8990   18.3340 O   0  0  0  0  0  0  0  0  0  0  0  0
    1.5100    8.2890   18.8560 N   0  0  0  0  0  0  0  0  0  0  0  0
    0.5190    8.1100   19.0810 H   0  0  0  0  0  0  0  0  0  0  0  0
    2.4120    7.2110   19.0300 C   0  0  0  0  0  0  0  0  0  0  0  0
    2.1690    6.3310   20.0800 C   0  0  0  0  0  0  0  0  0  0  0  0
    1.3580    6.4950   20.7400 H   0  0  0  0  0  0  0  0  0  0  0  0
    2.9980    5.2320   20.2500 C   0  0  0  0  0  0  0  0  0  0  0  0
    2.8170    4.5610   21.0470 H   0  0  0  0  0  0  0  0  0  0  0  0
    4.0620    5.0070   19.3790 C   0  0  0  0  0  0  0  0  0  0  0  0
    4.6810    4.1590   19.5220 H   0  0  0  0  0  0  0  0  0  0  0  0
    4.3030    5.8830   18.3190 C   0  0  0  0  0  0  0  0  0  0  0  0
    3.4770    6.9950   18.1530 C   0  0  0  0  0  0  0  0  0  0  0  0
    3.6360    7.6620   17.3510 H   0  0  0  0  0  0  0  0  0  0  0  0
    5.4330    5.5950   17.3390 C   0  0  2  0  0  0  0  0  0  0  0  0
    6.6390    6.5070   17.6040 C   0  0  0  0  0  0  0  0  0  0  0  0
    7.4790    6.2160   16.9750 H   0  0  0  0  0  0  0  0  0  0  0  0
    6.9420    6.4120   18.6480 H   0  0  0  0  0  0  0  0  0  0  0  0
    6.3760    7.5460   17.4040 H   0  0  0  0  0  0  0  0  0  0  0  0
    4.9060    5.6890   15.8930 C   0  0  0  0  0  0  0  0  0  0  0  0
    4.8160    6.7240   15.5920 H   0  0  0  0  0  0  0  0  0  0  0  0
    3.8950    5.3150   15.9000 H   0  0  0  0  0  0  0  0  0  0  0  0
    5.6650    4.9300   14.8310 C   0  0  0  0  0  0  0  0  0  0  0  0
    5.1700    3.8680   14.2830 N   0  0  0  0  0  0  0  0  0  0  0  0
    5.9730    3.3150   13.2020 N   0  0  0  0  0  0  0  0  0  0  0  0
    6.9040    4.1660   13.2060 C   0  0  0  0  0  0  0  0  0  0  0  0
    7.2440    5.5420   14.1660 S   0  0  0  0  0  0  0  0  0  0  0  0
    8.8870    6.0120   12.9080 Cl  0  0  0  0  0  0  0  0  0  0  0  0
    5.7390    4.5570   17.4920 H   0  0  0  0  0  0  0  0  0  0  0  0
  1  2  1  0  0  0  0
  1  3  1  0  0  0  0
  1  4  1  0  0  0  0
  1  5  1  0  0  0  0
  5  6  2  0  0  0  0
  5 11  1  0  0  0  0
  6  7  1  0  0  0  0
  6  8  1  0  0  0  0
  8  9  2  0  0  0  0
  8 20  1  0  0  0  0
  9 10  1  0  0  0  0
 10 11  2  0  0  0  0
 10 12  1  0  0  0  0
 12 13  1  0  0  0  0
 12 14  1  0  0  0  0
 12 17  1  0  0  0  0
 14 15  1  0  0  0  0
 14 16  1  0  0  0  0
 14 17  1  0  0  0  0
 17 18  1  0  0  0  0
 17 19  1  0  0  0  0
 20 21  2  0  0  0  0
 20 22  1  0  0  0  0
 22 23  1  0  0  0  0
 22 24  1  0  0  0  0
 24 25  1  0  0  0  0
 24 32  2  0  0  0  0
 25 26  1  0  0  0  0
 25 27  2  0  0  0  0
 27 28  1  0  0  0  0
 27 29  1  0  0  0  0
 29 30  1  0  0  0  0
 29 31  2  0  0  0  0
 31 32  1  0  0  0  0
 31 34  1  0  0  0  0
 32 33  1  0  0  0  0
 34 35  1  0  0  0  0
 34 39  1  0  0  0  0
 34 48  1  0  0  0  0
 35 36  1  0  0  0  0
 35 37  1  0  0  0  0
 35 38  1  0  0  0  0
 39 40  1  0  0  0  0
 39 41  1  0  0  0  0
 39 42  1  0  0  0  0
 42 43  2  0  0  0  0
 42 46  1  0  0  0  0
 43 44  1  0  0  0  0
 44 45  2  0  0  0  0
 45 46  1  0  0  0  0
 46 47  1  0  0  0  0
M  END
>  <receptor>
S(=O)(=O)([O-])[O-].S(CCC(NC(=O)C(NC(=O)C(NC(=O)CNC(=O)C(NC(=O)C1N(C(=O)C(NC(=O)C(NC(=O)C(NC(=O)C(NC(=O)C(NC(=O)C(NC(=O)C(NC(=O)C(NC(=O)C(NC(=O)C(NC(=O)C(NC(=O)C(NC(=O)C(NC(=O)C(NC(=O)C(NC(=O)C(NC(=O)C(NC(=O)C(NC(=O)C(NC(=O)CNC(=O)C(NC(=O)C(NC(=O)C(NC(=O)C(NC(=O)C(NC(=O)C(NC(=O)C(NC(=O)C(NC(=O)C(NC(=O)C(NC(=O)C(NC(=O)C(NC(=O)C(NC(=O)C)CCCC[NH3+])C(C)C)C(O)C)CCC(=O)N)CCC(=O)[O-])CCC(=O)N)Cc2ccccc2)CCC(=O)[O-])CC(C)C)Cc2ccc(O)cc2)CS)CCC(=O)[O-])CCSC)CO)C(O)C)Cc2ccccc2)CCC(=O)N)CC(C)C)C[S-])CCCC[NH3+])C(CC)C)C[S-])C)CCC(=O)[O-])CC(=O)N)CC(=O)[O-])CCCC[NH3+])CC(=O)[O-])C(C)C)CCCC[NH3+])C(CC)C)CCC(=O)[O-])CCC1)C[S-])Cc1nc[n-]c1)CC(C)C)C(=O)NC(C(=O)NC(C(=O)NC(C(=O)NC(C(=O)NC(C(=O)NC(C(=O)NC(C(=O)NC(C(=O)NC(C(=O)NC(C(=O)NC(C(=O)NC(C(=O)NCC(=O)NC(C(=O)NCC(=O)NC(C(=O)N1C(C(=O)NC(C(=O)NC(C(=O)NC(C(=O)NC(C(=O)NC(C(=O)NC(C(=O)NC(C(=O)NCC(=O)NC(C(=O)NC(C(=O)N2C(C(=O)NC(C(=O)NC(C(=O)NC(C(=O)NC(C(=O)N3C(C(=O)NC(C(=O)NC(C(=O)[O-])CC(=O)[O-])Cc4ccccc4)CCC3)CC(=O)[O-])C(C)C)C(CC)C)C(CC)C)CCC2)CCC(=O)[O-])C(O)C)CCCC[NH3+])C(CC)C)CCC(=O)[O-])CS)CCCNC(=[NH2+])N)C[S-])Cc2ccccc2)CCC1)C[S-])CCC(=O)N)CC(=O)[O-])CO)CCC(=O)[O-])CCC(=O)N)Cc1c2c([nH]c1)cccc2)C)C(O)C)CC(C)C)C[S-])CO)C(O)C)C[S-])C.S(CCC(NC(=O)C(NC(=O)C(NC(=O)C(NC(=O)C(NC(=O)C(NC(=O)C(NC(=O)C(NC(=O)C(NC(=O)C(NC(=O)C(NC(=O)C(NC(=O)C(NC(=O)C(NC(=O)C(NC(=O)C(NC(=O)C[NH3+])CCC(=O)N)C)C)C)CC(=O)[O-])CCCNC(=[NH2+])N)CCCNC(=[NH2+])N)C(O)C)C(C)C)CCC(=O)[O-])CCCC[NH3+])C(O)C)Cc1c2c([nH]c1)cccc2)C)CC(C)C)C(=O)NC(C(=O)NC(C(=O)NC(C(=O)NC(C(=O)NC(C(=O)NC(C(=O)NC(C(=O)NC(C(=O)NC(C(=O)N1C(C(=O)NC(C(=O)NC(C(=O)NC(C(=O)NC(C(=O)NC(C(=O)NC(C(=O)NC(C(=O)N2C(C(=O)N3C(C(=O)NC(C(=O)NC(C(=O)NC(C(=O)NC(C(=O)NC(C(=O)NC(C(=O)N4C(C(=O)NC(C(=O)NC(C(=O)NC(C(=O)NC(C(=O)NC(C(=O)NC(C(=O)NC(C(=O)NC(C(=O)NC(C(=O)NC(C(=O)NC(C(=O)NC(C(=O)NC(C(=O)NC(C(=O)NC(C(=O)NC(C(=O)NC(C(=O)NC(C(=O)NC(C(=O)NC(C(=O)NC(C(=O)NC(C(=O)NC(C(=O)NC(C(=O)NC(C(=O)NC(C(=O)NC(C(=O)NC(C(=O)NC(C(=O)NC(C(=O)NC(C(=O)NC(C(=O)NC(C(=O)NC(C(=O)NC(C(=O)NC(C(=O)NC(C(=O)NC(C(=O)NC(C(=O)NC(C(=O)NC(C(=O)NC(C(=O)NC(C(=O)NC(C(=O)NC(C(=O)NC(C(=O)NC(C(=O)NC(C(=O)NCC(=O)NC(C(=O)NC(C(=O)NC(C(=O)NC(C(=O)NC(C(=O)NC(C(=O)NC(C(=O)NC(C(=O)NC(C(=O)NC(C(=O)NC(C(=O)NC(C(=O)NC(C(=O)NC(C(=O)NC(C(=O)NC(C(=O)NC(C(=O)NC(C(=O)NC(C(=O)NC(C(=O)NC(C(=O)NC(C(=O)NC(C(=O)NC(C(=O)NC(C(=O)NC(C(=O)NC(C(=O)NC(C(=O)NC(C(=O)NC(C(=O)NC(C(=O)NC(C(=O)NC(C(=O)N5C(C(=O)NC(C(=O)NCC(=O)NC(C(=O)NC(C(=O)NC(C(=O)NCC(=O)NC(C(=O)NC(C(=O)NC(C(=O)NC(C(=O)NC(C(=O)NC(C(=O)NC(C(=O)NC(C(=O)NC(C(=O)NC(C(=O)NC(C(=O)NC(C(=O)NC(C(=O)NC(C(=O)NC(C(=O)NC(C(=O)NC(C(=O)NC(C(=O)NCC(=O)NC(C(=O)NC(C(=O)NC(C(=O)NC(C(=O)NC(C(=O)N6C(C(=O)NC(C(=O)NC(C(=O)NC(C(=O)NC(C(=O)NC(C(=O)NC(C(=O)NC(C(=O)NC(C(=O)NC(C(=O)NC(C(=O)NC(C(=O)NC(C(=O)NC(C(=O)NC(C(=O)NC(C(=O)NC(C(=O)NCC(=O)NC(C(=O)NC(C(=O)NC(C(=O)NC(C(=O)NC(C(=O)NC(C(=O)NC(C(=O)NC(C(=O)NC(C(=O)NC(C(=O)NC(C(=O)NC(C(=O)NC(C(=O)NC(C(=O)NC(C(=O)NC(C(=O)NC(C(=O)NC(C(=O)NC(C(=O)NC(C(=O)NC(C(=O)NC(C(=O)NC(C(=O)NC(C(=O)NC(C(=O)NC(C(=O)NC(C(=O)NC(C(=O)NC(C(=O)NC(C(=O)NC(C(=O)N7C(C(=O)NC(C(=O)NCC(=O)NC(C(=O)NC(C(=O)NC(C(=O)NC(C(=O)NC(C(=O)NC(C(=O)NC(C(=O)NC(C(=O)NC(C(=O)NC(C(=O)NC(C(=O)NC(C(=O)NC(C(=O)N8C(C(=O)NCC(=O)NC(C(=O)NC(C(=O)NC(C(=O)NC(C(=O)NC(C(=O)NC(C(=O)NC(C(=O)NC(C(=O)NC(C(=O)NC(C(=O)NC(C(=O)NC(C(=O)NC(C(=O)NC(C(=O)NC(C(=O)NC(C(=O)NC(C(=O)NC(C(=O)NC(C(=O)NC(C(=O)N9C(C(=O)NCC(=O)NC(C(=O)NC(C(=O)NC(C(=O)NC(C(=O)NC(C(=O)NC(C(=O)NC(C(=O)NC(C(=O)NC(C(=O)NC(C(=O)NC(C(=O)NCC(=O)NC(C(=O)NC(C(=O)NC(C(=O)NC(C(=O)NCC(=O)NC(C(=O)NC(C(=O)NC(C(=O)NCC(=O)NC(C(=O)NCC(=O)NC(C(=O)NC(C(=O)NC(C(=O)NC(C(=O)NC(C(=O)NC(C(=O)N%10C(C(=O)NC(C(=O)NC(C(=O)NC(C(=O)N%11C(C(=O)NC(C(=O)NC(C(=O)NC(C(=O)NC(C(=O)NC(C(=O)NC(C(=O)NC(C(=O)NCC(=O)NC(C(=O)NC(C(=O)NC(C(=O)NCC(=O)NC(C(=O)NC(C(=O)NC(C(=O)NC(C(=O)N%12C(C(=O)NC(C(=O)NCC(=O)NC(C(=O)NC(C(=O)NC(C(=O)NC(C(=O)NC)CC(=O)N)Cc%13ccc(O)cc%13)CO)CCCNC(=[NH2+])N)CC(=O)[O-])CCC%12)Cc%12ccc(O)cc%12)CC(C)C)Cc%12ccc(O)cc%12)Cc%12ccccc%12)CCC(=O)[O-])C)CO)CC(=O)[O-])C(CC)C)CC(C)C)C)CCC(=O)N)Cc%12ccccc%12)CC(C)C)CCC%11)CCCC[NH3+])CC(=O)N)Cc%11[nH]cnc%11)CCC%10)C(CC)C)C(O)C)CCC(=O)N)CC(C)C)C(CC)C)CC(=O)N)CC(=O)[O-])C(O)C)C(C)C)Cc%10ccc(O)cc%10)C(CC)C)C)Cc%10c%11c([nH]c%10)cccc%11)CCC(=O)N)CC(C)C)CCCNC(=[NH2+])N)C(O)C)CS)CO)CC(C)C)CCCNC(=[NH2+])N)Cc%10ccccc%10)C(CC)C)Cc%10ccc(O)cc%10)CO)CCC9)CCCC[NH3+])C(O)C)CO)Cc9ccc(O)cc9)CCCC[NH3+])CCC(=O)N)CC(C)C)CCCNC(=[NH2+])N)C)CCCC[NH3+])C(C)C)CCC(=O)[O-])CC(=O)[O-])Cc9ccc(O)cc9)C(O)C)CC(C)C)Cc9ccccc9)C)CCSC)Cc9ccc(O)cc9)CCC8)Cc8nc[nH]c8)C(O)C)C(C)C)C)CC(C)C)Cc8ccccc8)CC(=O)N)Cc8c9c([nH]c8)cccc9)CC(=O)N)CCCNC(=[NH2+])N)CC(C)C)C(CC)C)CO)Cc8c9c([nH]c8)cccc9)CCC7)CCC(=O)N)Cc7ccccc7)CC(C)C)CCCNC(=[NH2+])N)C(O)C)Cc7ccccc7)C(CC)C)CC(=O)[O-])Cc7ccccc7)CCC(=O)[O-])Cc7ccccc7)C(C)C)CO)C(CC)C)Cc7ccc(O)cc7)CC(=O)[O-])CC(=O)N)CS)C(O)C)CC(C)C)CC(=O)[O-])C(CC)C)C(O)C)CO)CCCC[NH3+])CC(C)C)C)CCSC)C)CCC(=O)[O-])CC(C)C)CO)CO)C(CC)C)CCC(=O)N)Cc7nc[nH]c7)C(C)C)CCC(=O)[O-])Cc7nc[nH]c7)CC(C)C)CS)CCC(=O)N)CCCNC(=[NH2+])N)Cc7ccccc7)C(C)C)CCCC[NH3+])Cc7c8c([nH]c7)cccc8)CCC6)C(C)C)C(CC)C)C(O)C)CCCC[NH3+])CC(=O)[O-])Cc6ccccc6)Cc6ccccc6)CCCC[NH3+])CCCNC(=[NH2+])N)Cc6c7c([nH]c6)cccc7)Cc6ccccc6)CCC(=O)[O-])C)C)CC(=O)[O-])C)CCCC[NH3+])C(O)C)C(CC)C)CCCNC(=[NH2+])N)Cc6ccccc6)CC(=O)N)CC(=O)[O-])CCC(=O)N)Cc6ccccc6)CCC(=O)N)CC(=O)N)CCC5)Cc5ccccc5)C(CC)C)C)CCCC[NH3+])C(CC)C)CCC(=O)[O-])C)CC(C)C)CCSC)Cc5nc[nH]c5)CO)Cc5ccccc5)C(CC)C)CC(C)C)CO)CC(C)C)CCCC[NH3+])C(O)C)CC(C)C)CC(=O)N)CCCNC(=[NH2+])N)CCCNC(=[NH2+])N)CC(=O)[O-])CCC(=O)N)CO)CCC(=O)N)CCC(=O)[O-])CCC(=O)[O-])Cc5ccc(O)cc5)CCSC)CCCNC(=[NH2+])N)CCC(=O)[O-])CCCC[NH3+])CCC(=O)[O-])CCCC[NH3+])Cc5ccccc5)CC(C)C)CCCNC(=[NH2+])N)C(CC)C)C)CCCNC(=[NH2+])N)CCCC[NH3+])CO)CCCC[NH3+])CCCC[NH3+])CCSC)CC(C)C)CO)CC(=O)[O-])C(CC)C)Cc5ccc(O)cc5)C(CC)C)CCCC[NH3+])Cc5ccccc5)Cc5ccc(O)cc5)CCC(=O)[O-])CC(=O)N)CCC(=O)[O-])CO)CC(C)C)CCC(=O)N)C)CC(C)C)CCCC[NH3+])CCC(=O)N)CC(=O)N)CC(=O)[O-])CC(=O)[O-])Cc5ccc(O)cc5)CCCC[NH3+])CO)CC(C)C)C(CC)C)CC(C)C)CCCNC(=[NH2+])N)CC(C)C)Cc5nc[nH]c5)CCC(=O)N)Cc5ccc(O)cc5)C(O)C)CC(=O)[O-])CCC4)CC(C)C)C(CC)C)CC(=O)[O-])CC(C)C)C(CC)C)Cc4ccc(O)cc4)CCC3)CCC2)CO)CC(=O)N)CCCC[NH3+])CC(C)C)CCC(=O)N)CC(C)C)CCCC[NH3+])CCC1)CC(=O)N)CCC(=O)N)CS)CC(C)C)CCCNC(=[NH2+])N)C(C)C)C(C)C)C)CC(=O)[O-])C.OCCO.[UH+3].[Zn+2].[Zn+2].O.O.O.O.O.O.O.O.O.O.O.O.O.O.O.O.O.O.O.O.O.O.O.O.O.O.O.O.O.O.O.O.O.O.O.O.O.O.O.O.O.O.O.O.O.O.O.O.O.O.O.O.O.O.O.O.O.O.O.O.O.O.O.O.O.O.O.O.O.O.O.O.O.O.O.O.O.O.O.O.O.O.O.O.O.O.O.O.O.O.O.O.O.O.O.O.O.O.O.O.O.O.O.O.O.O.O.O.O.O.O.O.O.O.O.O.O.O.O.O.O.O.O.O.O.O.O.O.O.O.O.O.O.O.O.O.O.O.O.O.O.O

>  <rseq>
1

>  <mseq>
61

>  <S>
-8.0587006

>  <rmsd_refine>
1.1136882

>  <E_conf>
141.25638

>  <E_place>
-66.412025

>  <E_score1>
-10.510856

>  <E_refine>
-35.23135

>  <E_score2>
-8.0587006

>  <Field_2>
WY01

>  <pseq>
61

>  <%C>
100

>  <a_heavy>
28

>  <h_logP>
3.1324062

>  <Weight>
413.93298

>  <E_orig>
1.4

>  <PLIF_raw>
[[],[],[],[],[]]

>  <PLIF_ligidx>
[]

$$$$

  MOE2020           3D

 67 71  0  0  1  0  0  0  0  0999 V2000
    2.6360   13.6500   21.3290 C   0  0  0  0  0  0  0  0  0  0  0  0
    3.6300   13.6610   21.7760 H   0  0  0  0  0  0  0  0  0  0  0  0
    2.2200   12.6590   21.4880 H   0  0  0  0  0  0  0  0  0  0  0  0
    2.0140   14.3770   21.8520 H   0  0  0  0  0  0  0  0  0  0  0  0
    2.7210   13.9910   19.8300 C   0  0  2  0  0  0  0  0  0  0  0  0
    3.5310   15.2760   19.5950 C   0  0  0  0  0  0  0  0  0  0  0  0
    4.5510   15.0450   19.2840 H   0  0  0  0  0  0  0  0  0  0  0  0
    3.5670   15.8650   20.5130 H   0  0  0  0  0  0  0  0  0  0  0  0
    2.8000   16.1000   18.5370 C   0  0  2  0  0  0  0  0  0  0  0  0
    1.3640   15.5910   18.7030 C   0  0  0  0  0  0  0  0  0  0  0  0
    0.8260   15.6600   17.7590 H   0  0  0  0  0  0  0  0  0  0  0  0
    0.8520   16.2160   19.4350 H   0  0  0  0  0  0  0  0  0  0  0  0
    1.4180   14.2200   19.2060 N   0  0  0  0  0  0  0  0  0  0  0  0
    0.4790   13.2560   18.8710 C   0  0  0  0  0  0  0  0  0  0  0  0
   -0.5110   13.5950   18.2370 O   0  0  0  0  0  0  0  0  0  0  0  0
    0.6740   11.8760   19.2980 C   0  0  0  0  0  0  0  0  0  0  0  0
    1.4090   10.9810   18.5130 C   0  0  0  0  0  0  0  0  0  0  0  0
    1.7980   11.2820   17.5740 H   0  0  0  0  0  0  0  0  0  0  0  0
    1.6370    9.6940   18.9930 C   0  0  0  0  0  0  0  0  0  0  0  0
    1.1660    9.3070   20.2340 C   0  0  0  0  0  0  0  0  0  0  0  0
    1.6890    7.9200   20.5080 C   0  0  0  0  0  0  0  0  0  0  0  0
    0.8840    7.2160   20.6590 H   0  0  0  0  0  0  0  0  0  0  0  0
    2.3030    7.9150   21.3960 H   0  0  0  0  0  0  0  0  0  0  0  0
    2.4860    7.5810   19.3120 N   0  0  0  0  0  0  0  0  0  0  0  0
    2.3660    8.6030   18.3850 C   0  0  0  0  0  0  0  0  0  0  0  0
    2.7730    8.5170   17.2360 O   0  0  0  0  0  0  0  0  0  0  0  0
    3.3150    6.4280   19.2140 C   0  0  0  0  0  0  0  0  0  0  0  0
    2.8580    5.2420   19.7840 C   0  0  0  0  0  0  0  0  0  0  0  0
    1.9100    5.2080   20.2490 H   0  0  0  0  0  0  0  0  0  0  0  0
    3.6550    4.1100   19.7340 C   0  0  0  0  0  0  0  0  0  0  0  0
    3.3120    3.2000   20.1480 H   0  0  0  0  0  0  0  0  0  0  0  0
    4.9160    4.1650   19.1530 C   0  0  0  0  0  0  0  0  0  0  0  0
    5.5150    3.2920   19.1400 H   0  0  0  0  0  0  0  0  0  0  0  0
    5.3930    5.3480   18.5840 C   0  0  0  0  0  0  0  0  0  0  0  0
    4.5770    6.4830   18.6060 C   0  0  0  0  0  0  0  0  0  0  0  0
    4.9180    7.3940   18.1910 H   0  0  0  0  0  0  0  0  0  0  0  0
    6.8060    5.3500   17.9970 C   0  0  2  0  0  0  0  0  0  0  0  0
    7.7850    5.9650   19.0000 C   0  0  0  0  0  0  0  0  0  0  0  0
    8.8040    5.6980   18.7310 H   0  0  0  0  0  0  0  0  0  0  0  0
    7.5840    5.5860   20.0030 H   0  0  0  0  0  0  0  0  0  0  0  0
    7.6900    7.0490   18.9830 H   0  0  0  0  0  0  0  0  0  0  0  0
    6.9570    6.0640   16.6350 C   0  0  0  0  0  0  0  0  0  0  0  0
    7.9840    6.4180   16.5530 H   0  0  0  0  0  0  0  0  0  0  0  0
    6.3200    6.9450   16.5870 H   0  0  0  0  0  0  0  0  0  0  0  0
    6.6960    5.2170   15.4030 C   0  0  0  0  0  0  0  0  0  0  0  0
    5.7850    4.2720   15.0810 C   0  0  0  0  0  0  0  0  0  0  0  0
    6.0440    3.9100   13.7630 C   0  0  0  0  0  0  0  0  0  0  0  0
    5.5030    3.2000   13.2020 H   0  0  0  0  0  0  0  0  0  0  0  0
    7.0500    4.5680   13.2690 N   0  0  0  0  0  0  0  0  0  0  0  0
    7.4450    5.3670   14.2870 N   0  0  0  0  0  0  0  0  0  0  0  0
    8.2370    6.0290   14.1970 H   0  0  0  0  0  0  0  0  0  0  0  0
    4.6990    3.7140   15.9610 C   0  0  0  0  0  0  0  0  0  0  0  0
    3.9970    3.1320   15.3820 H   0  0  0  0  0  0  0  0  0  0  0  0
    4.1430    4.5240   16.4270 H   0  0  0  0  0  0  0  0  0  0  0  0
    5.1300    3.0610   16.7170 H   0  0  0  0  0  0  0  0  0  0  0  0
    0.3730   10.1560   21.0060 C   0  0  0  0  0  0  0  0  0  0  0  0
    0.1260   11.4430   20.5160 C   0  0  0  0  0  0  0  0  0  0  0  0
   -0.4650   12.1240   21.0760 H   0  0  0  0  0  0  0  0  0  0  0  0
   -0.1780    9.7020   22.3520 C   0  0  0  0  0  0  0  0  0  0  0  0
   -1.1350   10.5240   22.8240 F   0  0  0  0  0  0  0  0  0  0  0  0
   -0.7660    8.4980   22.2540 F   0  0  0  0  0  0  0  0  0  0  0  0
    1.0670    9.5850   23.5970 Cl  0  0  0  0  0  0  0  0  0  0  0  0
    3.3200   15.8290   17.2520 O   0  0  0  0  0  0  0  0  0  0  0  0
    3.1820   14.8980   17.0530 H   0  0  0  0  0  0  0  0  0  0  0  0
    3.2100   13.1820   19.3020 H   0  0  0  0  0  0  0  0  0  0  0  0
    2.8660   17.1680   18.7470 H   0  0  0  0  0  0  0  0  0  0  0  0
    7.1070    4.3090   17.8600 H   0  0  0  0  0  0  0  0  0  0  0  0
  1  2  1  0  0  0  0
  1  3  1  0  0  0  0
  1  4  1  0  0  0  0
  1  5  1  0  0  0  0
  5  6  1  0  0  0  0
  5 13  1  0  0  0  0
  5 65  1  0  0  0  0
  6  7  1  0  0  0  0
  6  8  1  0  0  0  0
  6  9  1  0  0  0  0
  9 10  1  0  0  0  0
  9 63  1  0  0  0  0
  9 66  1  0  0  0  0
 10 11  1  0  0  0  0
 10 12  1  0  0  0  0
 10 13  1  0  0  0  0
 13 14  1  0  0  0  0
 14 15  2  0  0  0  0
 14 16  1  0  0  0  0
 16 17  2  0  0  0  0
 16 57  1  0  0  0  0
 17 18  1  0  0  0  0
 17 19  1  0  0  0  0
 19 20  2  0  0  0  0
 19 25  1  0  0  0  0
 20 21  1  0  0  0  0
 20 56  1  0  0  0  0
 21 22  1  0  0  0  0
 21 23  1  0  0  0  0
 21 24  1  0  0  0  0
 24 25  1  0  0  0  0
 24 27  1  0  0  0  0
 25 26  2  0  0  0  0
 27 28  1  0  0  0  0
 27 35  2  0  0  0  0
 28 29  1  0  0  0  0
 28 30  2  0  0  0  0
 30 31  1  0  0  0  0
 30 32  1  0  0  0  0
 32 33  1  0  0  0  0
 32 34  2  0  0  0  0
 34 35  1  0  0  0  0
 34 37  1  0  0  0  0
 35 36  1  0  0  0  0
 37 38  1  0  0  0  0
 37 42  1  0  0  0  0
 37 67  1  0  0  0  0
 38 39  1  0  0  0  0
 38 40  1  0  0  0  0
 38 41  1  0  0  0  0
 42 43  1  0  0  0  0
 42 44  1  0  0  0  0
 42 45  1  0  0  0  0
 45 46  2  0  0  0  0
 45 50  1  0  0  0  0
 46 47  1  0  0  0  0
 46 52  1  0  0  0  0
 47 48  1  0  0  0  0
 47 49  2  0  0  0  0
 49 50  1  0  0  0  0
 50 51  1  0  0  0  0
 52 53  1  0  0  0  0
 52 54  1  0  0  0  0
 52 55  1  0  0  0  0
 56 57  2  0  0  0  0
 56 59  1  0  0  0  0
 57 58  1  0  0  0  0
 59 60  1  0  0  0  0
 59 61  1  0  0  0  0
 59 62  1  0  0  0  0
 63 64  1  0  0  0  0
M  END
>  <receptor>
S(=O)(=O)([O-])[O-].S(CCC(NC(=O)C(NC(=O)C(NC(=O)CNC(=O)C(NC(=O)C1N(C(=O)C(NC(=O)C(NC(=O)C(NC(=O)C(NC(=O)C(NC(=O)C(NC(=O)C(NC(=O)C(NC(=O)C(NC(=O)C(NC(=O)C(NC(=O)C(NC(=O)C(NC(=O)C(NC(=O)C(NC(=O)C(NC(=O)C(NC(=O)C(NC(=O)C(NC(=O)CNC(=O)C(NC(=O)C(NC(=O)C(NC(=O)C(NC(=O)C(NC(=O)C(NC(=O)C(NC(=O)C(NC(=O)C(NC(=O)C(NC(=O)C(NC(=O)C(NC(=O)C(NC(=O)C)CCCC[NH3+])C(C)C)C(O)C)CCC(=O)N)CCC(=O)[O-])CCC(=O)N)Cc2ccccc2)CCC(=O)[O-])CC(C)C)Cc2ccc(O)cc2)CS)CCC(=O)[O-])CCSC)CO)C(O)C)Cc2ccccc2)CCC(=O)N)CC(C)C)C[S-])CCCC[NH3+])C(CC)C)C[S-])C)CCC(=O)[O-])CC(=O)N)CC(=O)[O-])CCCC[NH3+])CC(=O)[O-])C(C)C)CCCC[NH3+])C(CC)C)CCC(=O)[O-])CCC1)C[S-])Cc1nc[n-]c1)CC(C)C)C(=O)NC(C(=O)NC(C(=O)NC(C(=O)NC(C(=O)NC(C(=O)NC(C(=O)NC(C(=O)NC(C(=O)NC(C(=O)NC(C(=O)NC(C(=O)NC(C(=O)NCC(=O)NC(C(=O)NCC(=O)NC(C(=O)N1C(C(=O)NC(C(=O)NC(C(=O)NC(C(=O)NC(C(=O)NC(C(=O)NC(C(=O)NC(C(=O)NCC(=O)NC(C(=O)NC(C(=O)N2C(C(=O)NC(C(=O)NC(C(=O)NC(C(=O)NC(C(=O)N3C(C(=O)NC(C(=O)NC(C(=O)[O-])CC(=O)[O-])Cc4ccccc4)CCC3)CC(=O)[O-])C(C)C)C(CC)C)C(CC)C)CCC2)CCC(=O)[O-])C(O)C)CCCC[NH3+])C(CC)C)CCC(=O)[O-])CS)CCCNC(=[NH2+])N)C[S-])Cc2ccccc2)CCC1)C[S-])CCC(=O)N)CC(=O)[O-])CO)CCC(=O)[O-])CCC(=O)N)Cc1c2c([nH]c1)cccc2)C)C(O)C)CC(C)C)C[S-])CO)C(O)C)C[S-])C.S(CCC(NC(=O)C(NC(=O)C(NC(=O)C(NC(=O)C(NC(=O)C(NC(=O)C(NC(=O)C(NC(=O)C(NC(=O)C(NC(=O)C(NC(=O)C(NC(=O)C(NC(=O)C(NC(=O)C(NC(=O)C(NC(=O)C[NH3+])CCC(=O)N)C)C)C)CC(=O)[O-])CCCNC(=[NH2+])N)CCCNC(=[NH2+])N)C(O)C)C(C)C)CCC(=O)[O-])CCCC[NH3+])C(O)C)Cc1c2c([nH]c1)cccc2)C)CC(C)C)C(=O)NC(C(=O)NC(C(=O)NC(C(=O)NC(C(=O)NC(C(=O)NC(C(=O)NC(C(=O)NC(C(=O)NC(C(=O)N1C(C(=O)NC(C(=O)NC(C(=O)NC(C(=O)NC(C(=O)NC(C(=O)NC(C(=O)NC(C(=O)N2C(C(=O)N3C(C(=O)NC(C(=O)NC(C(=O)NC(C(=O)NC(C(=O)NC(C(=O)NC(C(=O)N4C(C(=O)NC(C(=O)NC(C(=O)NC(C(=O)NC(C(=O)NC(C(=O)NC(C(=O)NC(C(=O)NC(C(=O)NC(C(=O)NC(C(=O)NC(C(=O)NC(C(=O)NC(C(=O)NC(C(=O)NC(C(=O)NC(C(=O)NC(C(=O)NC(C(=O)NC(C(=O)NC(C(=O)NC(C(=O)NC(C(=O)NC(C(=O)NC(C(=O)NC(C(=O)NC(C(=O)NC(C(=O)NC(C(=O)NC(C(=O)NC(C(=O)NC(C(=O)NC(C(=O)NC(C(=O)NC(C(=O)NC(C(=O)NC(C(=O)NC(C(=O)NC(C(=O)NC(C(=O)NC(C(=O)NC(C(=O)NC(C(=O)NC(C(=O)NC(C(=O)NC(C(=O)NC(C(=O)NC(C(=O)NC(C(=O)NCC(=O)NC(C(=O)NC(C(=O)NC(C(=O)NC(C(=O)NC(C(=O)NC(C(=O)NC(C(=O)NC(C(=O)NC(C(=O)NC(C(=O)NC(C(=O)NC(C(=O)NC(C(=O)NC(C(=O)NC(C(=O)NC(C(=O)NC(C(=O)NC(C(=O)NC(C(=O)NC(C(=O)NC(C(=O)NC(C(=O)NC(C(=O)NC(C(=O)NC(C(=O)NC(C(=O)NC(C(=O)NC(C(=O)NC(C(=O)NC(C(=O)NC(C(=O)NC(C(=O)NC(C(=O)N5C(C(=O)NC(C(=O)NCC(=O)NC(C(=O)NC(C(=O)NC(C(=O)NCC(=O)NC(C(=O)NC(C(=O)NC(C(=O)NC(C(=O)NC(C(=O)NC(C(=O)NC(C(=O)NC(C(=O)NC(C(=O)NC(C(=O)NC(C(=O)NC(C(=O)NC(C(=O)NC(C(=O)NC(C(=O)NC(C(=O)NC(C(=O)NC(C(=O)NCC(=O)NC(C(=O)NC(C(=O)NC(C(=O)NC(C(=O)NC(C(=O)N6C(C(=O)NC(C(=O)NC(C(=O)NC(C(=O)NC(C(=O)NC(C(=O)NC(C(=O)NC(C(=O)NC(C(=O)NC(C(=O)NC(C(=O)NC(C(=O)NC(C(=O)NC(C(=O)NC(C(=O)NC(C(=O)NC(C(=O)NCC(=O)NC(C(=O)NC(C(=O)NC(C(=O)NC(C(=O)NC(C(=O)NC(C(=O)NC(C(=O)NC(C(=O)NC(C(=O)NC(C(=O)NC(C(=O)NC(C(=O)NC(C(=O)NC(C(=O)NC(C(=O)NC(C(=O)NC(C(=O)NC(C(=O)NC(C(=O)NC(C(=O)NC(C(=O)NC(C(=O)NC(C(=O)NC(C(=O)NC(C(=O)NC(C(=O)NC(C(=O)NC(C(=O)NC(C(=O)NC(C(=O)NC(C(=O)N7C(C(=O)NC(C(=O)NCC(=O)NC(C(=O)NC(C(=O)NC(C(=O)NC(C(=O)NC(C(=O)NC(C(=O)NC(C(=O)NC(C(=O)NC(C(=O)NC(C(=O)NC(C(=O)NC(C(=O)NC(C(=O)N8C(C(=O)NCC(=O)NC(C(=O)NC(C(=O)NC(C(=O)NC(C(=O)NC(C(=O)NC(C(=O)NC(C(=O)NC(C(=O)NC(C(=O)NC(C(=O)NC(C(=O)NC(C(=O)NC(C(=O)NC(C(=O)NC(C(=O)NC(C(=O)NC(C(=O)NC(C(=O)NC(C(=O)NC(C(=O)N9C(C(=O)NCC(=O)NC(C(=O)NC(C(=O)NC(C(=O)NC(C(=O)NC(C(=O)NC(C(=O)NC(C(=O)NC(C(=O)NC(C(=O)NC(C(=O)NC(C(=O)NCC(=O)NC(C(=O)NC(C(=O)NC(C(=O)NC(C(=O)NCC(=O)NC(C(=O)NC(C(=O)NC(C(=O)NCC(=O)NC(C(=O)NCC(=O)NC(C(=O)NC(C(=O)NC(C(=O)NC(C(=O)NC(C(=O)NC(C(=O)N%10C(C(=O)NC(C(=O)NC(C(=O)NC(C(=O)N%11C(C(=O)NC(C(=O)NC(C(=O)NC(C(=O)NC(C(=O)NC(C(=O)NC(C(=O)NC(C(=O)NCC(=O)NC(C(=O)NC(C(=O)NC(C(=O)NCC(=O)NC(C(=O)NC(C(=O)NC(C(=O)NC(C(=O)N%12C(C(=O)NC(C(=O)NCC(=O)NC(C(=O)NC(C(=O)NC(C(=O)NC(C(=O)NC)CC(=O)N)Cc%13ccc(O)cc%13)CO)CCCNC(=[NH2+])N)CC(=O)[O-])CCC%12)Cc%12ccc(O)cc%12)CC(C)C)Cc%12ccc(O)cc%12)Cc%12ccccc%12)CCC(=O)[O-])C)CO)CC(=O)[O-])C(CC)C)CC(C)C)C)CCC(=O)N)Cc%12ccccc%12)CC(C)C)CCC%11)CCCC[NH3+])CC(=O)N)Cc%11[nH]cnc%11)CCC%10)C(CC)C)C(O)C)CCC(=O)N)CC(C)C)C(CC)C)CC(=O)N)CC(=O)[O-])C(O)C)C(C)C)Cc%10ccc(O)cc%10)C(CC)C)C)Cc%10c%11c([nH]c%10)cccc%11)CCC(=O)N)CC(C)C)CCCNC(=[NH2+])N)C(O)C)CS)CO)CC(C)C)CCCNC(=[NH2+])N)Cc%10ccccc%10)C(CC)C)Cc%10ccc(O)cc%10)CO)CCC9)CCCC[NH3+])C(O)C)CO)Cc9ccc(O)cc9)CCCC[NH3+])CCC(=O)N)CC(C)C)CCCNC(=[NH2+])N)C)CCCC[NH3+])C(C)C)CCC(=O)[O-])CC(=O)[O-])Cc9ccc(O)cc9)C(O)C)CC(C)C)Cc9ccccc9)C)CCSC)Cc9ccc(O)cc9)CCC8)Cc8nc[nH]c8)C(O)C)C(C)C)C)CC(C)C)Cc8ccccc8)CC(=O)N)Cc8c9c([nH]c8)cccc9)CC(=O)N)CCCNC(=[NH2+])N)CC(C)C)C(CC)C)CO)Cc8c9c([nH]c8)cccc9)CCC7)CCC(=O)N)Cc7ccccc7)CC(C)C)CCCNC(=[NH2+])N)C(O)C)Cc7ccccc7)C(CC)C)CC(=O)[O-])Cc7ccccc7)CCC(=O)[O-])Cc7ccccc7)C(C)C)CO)C(CC)C)Cc7ccc(O)cc7)CC(=O)[O-])CC(=O)N)CS)C(O)C)CC(C)C)CC(=O)[O-])C(CC)C)C(O)C)CO)CCCC[NH3+])CC(C)C)C)CCSC)C)CCC(=O)[O-])CC(C)C)CO)CO)C(CC)C)CCC(=O)N)Cc7nc[nH]c7)C(C)C)CCC(=O)[O-])Cc7nc[nH]c7)CC(C)C)CS)CCC(=O)N)CCCNC(=[NH2+])N)Cc7ccccc7)C(C)C)CCCC[NH3+])Cc7c8c([nH]c7)cccc8)CCC6)C(C)C)C(CC)C)C(O)C)CCCC[NH3+])CC(=O)[O-])Cc6ccccc6)Cc6ccccc6)CCCC[NH3+])CCCNC(=[NH2+])N)Cc6c7c([nH]c6)cccc7)Cc6ccccc6)CCC(=O)[O-])C)C)CC(=O)[O-])C)CCCC[NH3+])C(O)C)C(CC)C)CCCNC(=[NH2+])N)Cc6ccccc6)CC(=O)N)CC(=O)[O-])CCC(=O)N)Cc6ccccc6)CCC(=O)N)CC(=O)N)CCC5)Cc5ccccc5)C(CC)C)C)CCCC[NH3+])C(CC)C)CCC(=O)[O-])C)CC(C)C)CCSC)Cc5nc[nH]c5)CO)Cc5ccccc5)C(CC)C)CC(C)C)CO)CC(C)C)CCCC[NH3+])C(O)C)CC(C)C)CC(=O)N)CCCNC(=[NH2+])N)CCCNC(=[NH2+])N)CC(=O)[O-])CCC(=O)N)CO)CCC(=O)N)CCC(=O)[O-])CCC(=O)[O-])Cc5ccc(O)cc5)CCSC)CCCNC(=[NH2+])N)CCC(=O)[O-])CCCC[NH3+])CCC(=O)[O-])CCCC[NH3+])Cc5ccccc5)CC(C)C)CCCNC(=[NH2+])N)C(CC)C)C)CCCNC(=[NH2+])N)CCCC[NH3+])CO)CCCC[NH3+])CCCC[NH3+])CCSC)CC(C)C)CO)CC(=O)[O-])C(CC)C)Cc5ccc(O)cc5)C(CC)C)CCCC[NH3+])Cc5ccccc5)Cc5ccc(O)cc5)CCC(=O)[O-])CC(=O)N)CCC(=O)[O-])CO)CC(C)C)CCC(=O)N)C)CC(C)C)CCCC[NH3+])CCC(=O)N)CC(=O)N)CC(=O)[O-])CC(=O)[O-])Cc5ccc(O)cc5)CCCC[NH3+])CO)CC(C)C)C(CC)C)CC(C)C)CCCNC(=[NH2+])N)CC(C)C)Cc5nc[nH]c5)CCC(=O)N)Cc5ccc(O)cc5)C(O)C)CC(=O)[O-])CCC4)CC(C)C)C(CC)C)CC(=O)[O-])CC(C)C)C(CC)C)Cc4ccc(O)cc4)CCC3)CCC2)CO)CC(=O)N)CCCC[NH3+])CC(C)C)CCC(=O)N)CC(C)C)CCCC[NH3+])CCC1)CC(=O)N)CCC(=O)N)CS)CC(C)C)CCCNC(=[NH2+])N)C(C)C)C(C)C)C)CC(=O)[O-])C.OCCO.[UH+3].[Zn+2].[Zn+2].O.O.O.O.O.O.O.O.O.O.O.O.O.O.O.O.O.O.O.O.O.O.O.O.O.O.O.O.O.O.O.O.O.O.O.O.O.O.O.O.O.O.O.O.O.O.O.O.O.O.O.O.O.O.O.O.O.O.O.O.O.O.O.O.O.O.O.O.O.O.O.O.O.O.O.O.O.O.O.O.O.O.O.O.O.O.O.O.O.O.O.O.O.O.O.O.O.O.O.O.O.O.O.O.O.O.O.O.O.O.O.O.O.O.O.O.O.O.O.O.O.O.O.O.O.O.O.O.O.O.O.O.O.O.O.O.O.O.O.O.O.O

>  <rseq>
1

>  <mseq>
62

>  <S>
-9.7804337

>  <rmsd_refine>
1.5359094

>  <E_conf>
52.480541

>  <E_place>
-123.56242

>  <E_score1>
-11.037842

>  <E_refine>
-51.013962

>  <E_score2>
-9.7804337

>  <Field_2>
WY02

>  <pseq>
62

>  <%C>
75.665321

>  <a_heavy>
38

>  <h_logP>
5.7209992

>  <Weight>
543.01398

>  <E_orig>
0.41673821

>  <PLIF_raw>
[[63,26,45,50,49,47,46],[3736,3751,3036,3036,3036,3036,3036],[261,263,219,219,219,219,219],[1,4,10,10,10,10,10],[1,3.6,0.7,0.7,0.7,0.7,0.7]]

>  <FP:PLIF>
21 20 15 16

>  <PLIF_ligidx>
[[45,50,49,47,46],63,26,26]

$$$$

  MOE2020           3D

 48 52  0  0  1  0  0  0  0  0999 V2000
    8.2640    5.2100   19.4570 C   0  0  0  0  0  0  0  0  0  0  0  0
    9.2550    5.5100   19.7550 H   0  0  0  0  0  0  0  0  0  0  0  0
    8.3780    4.2630   18.9490 H   0  0  0  0  0  0  0  0  0  0  0  0
    7.6930    5.0410   20.3590 H   0  0  0  0  0  0  0  0  0  0  0  0
    7.6300    6.1880   18.5940 N   0  0  0  0  0  0  0  0  0  0  0  0
    8.1830    7.3330   18.2090 C   0  0  0  0  0  0  0  0  0  0  0  0
    9.1380    7.6300   18.5580 H   0  0  0  0  0  0  0  0  0  0  0  0
    7.3940    7.9470   17.3950 N   0  0  0  0  0  0  0  0  0  0  0  0
    6.2740    7.1590   17.2610 N   0  0  0  0  0  0  0  0  0  0  0  0
    6.4340    6.1090   18.0040 C   0  0  0  0  0  0  0  0  0  0  0  0
    5.4970    4.9220   18.2150 C   0  0  2  0  0  0  0  0  0  0  0  0
    4.5020    4.5770   17.1470 C   0  0  0  0  0  0  0  0  0  0  0  0
    4.4430    5.2210   16.2820 H   0  0  0  0  0  0  0  0  0  0  0  0
    4.3750    3.5310   16.9040 H   0  0  0  0  0  0  0  0  0  0  0  0
    4.0110    5.0540   18.4870 C   0  0  2  0  0  0  0  0  0  0  0  0
    3.3090    6.3970   18.6860 C   0  0  0  0  0  0  0  0  0  0  0  0
    2.7240    6.6680   19.9220 C   0  0  0  0  0  0  0  0  0  0  0  0
    2.7440    5.9340   20.6860 H   0  0  0  0  0  0  0  0  0  0  0  0
    2.1370    7.9140   20.1720 C   0  0  0  0  0  0  0  0  0  0  0  0
    2.1140    8.8910   19.1750 C   0  0  0  0  0  0  0  0  0  0  0  0
    1.7420    9.8620   19.3570 H   0  0  0  0  0  0  0  0  0  0  0  0
    2.6250    8.5940   17.9230 C   0  0  0  0  0  0  0  0  0  0  0  0
    2.5700    9.3200   17.1570 H   0  0  0  0  0  0  0  0  0  0  0  0
    3.2280    7.3630   17.6800 C   0  0  0  0  0  0  0  0  0  0  0  0
    3.6400    7.1780   16.7250 H   0  0  0  0  0  0  0  0  0  0  0  0
    1.6600    8.1420   21.4910 N   0  0  0  0  0  0  0  0  0  0  0  0
    2.0560    7.5030   22.1970 H   0  0  0  0  0  0  0  0  0  0  0  0
    0.8780    9.1580   22.0240 C   0  0  0  0  0  0  0  0  0  0  0  0
    1.0150    9.3230   23.2350 O   0  0  0  0  0  0  0  0  0  0  0  0
   -0.0530    9.9750   21.2490 C   0  0  0  0  0  0  0  0  0  0  0  0
   -0.6100    9.7490   20.0840 N   0  0  0  0  0  0  0  0  0  0  0  0
   -1.3810   10.8570   19.8060 C   0  0  0  0  0  0  0  0  0  0  0  0
   -2.1910   11.1730   18.6910 C   0  0  0  0  0  0  0  0  0  0  0  0
   -2.9120   12.3640   18.7280 C   0  0  0  0  0  0  0  0  0  0  0  0
   -3.5450   12.6370   17.9230 H   0  0  0  0  0  0  0  0  0  0  0  0
   -2.8270   13.2460   19.8300 C   0  0  0  0  0  0  0  0  0  0  0  0
   -3.3880   14.1450   19.8180 H   0  0  0  0  0  0  0  0  0  0  0  0
   -2.0200   12.9470   20.9100 C   0  0  0  0  0  0  0  0  0  0  0  0
   -1.9470   13.5980   21.7430 H   0  0  0  0  0  0  0  0  0  0  0  0
   -1.3100   11.7440   20.8640 C   0  0  0  0  0  0  0  0  0  0  0  0
   -0.4710   11.1750   21.7580 N   0  0  0  0  0  0  0  0  0  0  0  0
   -0.1950   11.5700   22.6710 H   0  0  0  0  0  0  0  0  0  0  0  0
   -2.2950   10.2060   17.5140 C   0  0  0  0  0  0  0  0  0  0  0  0
   -3.0650    9.1510   17.8480 F   0  0  0  0  0  0  0  0  0  0  0  0
   -1.0960    9.6860   17.2000 F   0  0  0  0  0  0  0  0  0  0  0  0
   -2.9590   10.8690   16.0040 Cl  0  0  0  0  0  0  0  0  0  0  0  0
    5.9680    4.0680   18.6800 H   0  0  0  0  0  0  0  0  0  0  0  0
    3.6060    4.2760   19.1210 H   0  0  0  0  0  0  0  0  0  0  0  0
  1  2  1  0  0  0  0
  1  3  1  0  0  0  0
  1  4  1  0  0  0  0
  1  5  1  0  0  0  0
  5  6  1  0  0  0  0
  5 10  1  0  0  0  0
  6  7  1  0  0  0  0
  6  8  2  0  0  0  0
  8  9  1  0  0  0  0
  9 10  2  0  0  0  0
 10 11  1  0  0  0  0
 11 12  1  0  0  0  0
 11 15  1  0  0  0  0
 11 47  1  0  0  0  0
 12 13  1  0  0  0  0
 12 14  1  0  0  0  0
 12 15  1  0  0  0  0
 15 16  1  0  0  0  0
 15 48  1  0  0  0  0
 16 17  2  0  0  0  0
 16 24  1  0  0  0  0
 17 18  1  0  0  0  0
 17 19  1  0  0  0  0
 19 20  2  0  0  0  0
 19 26  1  0  0  0  0
 20 21  1  0  0  0  0
 20 22  1  0  0  0  0
 22 23  1  0  0  0  0
 22 24  2  0  0  0  0
 24 25  1  0  0  0  0
 26 27  1  0  0  0  0
 26 28  1  0  0  0  0
 28 29  2  0  0  0  0
 28 30  1  0  0  0  0
 30 31  2  0  0  0  0
 30 41  1  0  0  0  0
 31 32  1  0  0  0  0
 32 33  1  0  0  0  0
 32 40  2  0  0  0  0
 33 34  2  0  0  0  0
 33 43  1  0  0  0  0
 34 35  1  0  0  0  0
 34 36  1  0  0  0  0
 36 37  1  0  0  0  0
 36 38  2  0  0  0  0
 38 39  1  0  0  0  0
 38 40  1  0  0  0  0
 40 41  1  0  0  0  0
 41 42  1  0  0  0  0
 43 44  1  0  0  0  0
 43 45  1  0  0  0  0
 43 46  1  0  0  0  0
M  END
>  <receptor>
S(=O)(=O)([O-])[O-].S(CCC(NC(=O)C(NC(=O)C(NC(=O)CNC(=O)C(NC(=O)C1N(C(=O)C(NC(=O)C(NC(=O)C(NC(=O)C(NC(=O)C(NC(=O)C(NC(=O)C(NC(=O)C(NC(=O)C(NC(=O)C(NC(=O)C(NC(=O)C(NC(=O)C(NC(=O)C(NC(=O)C(NC(=O)C(NC(=O)C(NC(=O)C(NC(=O)C(NC(=O)CNC(=O)C(NC(=O)C(NC(=O)C(NC(=O)C(NC(=O)C(NC(=O)C(NC(=O)C(NC(=O)C(NC(=O)C(NC(=O)C(NC(=O)C(NC(=O)C(NC(=O)C(NC(=O)C)CCCC[NH3+])C(C)C)C(O)C)CCC(=O)N)CCC(=O)[O-])CCC(=O)N)Cc2ccccc2)CCC(=O)[O-])CC(C)C)Cc2ccc(O)cc2)CS)CCC(=O)[O-])CCSC)CO)C(O)C)Cc2ccccc2)CCC(=O)N)CC(C)C)C[S-])CCCC[NH3+])C(CC)C)C[S-])C)CCC(=O)[O-])CC(=O)N)CC(=O)[O-])CCCC[NH3+])CC(=O)[O-])C(C)C)CCCC[NH3+])C(CC)C)CCC(=O)[O-])CCC1)C[S-])Cc1nc[n-]c1)CC(C)C)C(=O)NC(C(=O)NC(C(=O)NC(C(=O)NC(C(=O)NC(C(=O)NC(C(=O)NC(C(=O)NC(C(=O)NC(C(=O)NC(C(=O)NC(C(=O)NC(C(=O)NCC(=O)NC(C(=O)NCC(=O)NC(C(=O)N1C(C(=O)NC(C(=O)NC(C(=O)NC(C(=O)NC(C(=O)NC(C(=O)NC(C(=O)NC(C(=O)NCC(=O)NC(C(=O)NC(C(=O)N2C(C(=O)NC(C(=O)NC(C(=O)NC(C(=O)NC(C(=O)N3C(C(=O)NC(C(=O)NC(C(=O)[O-])CC(=O)[O-])Cc4ccccc4)CCC3)CC(=O)[O-])C(C)C)C(CC)C)C(CC)C)CCC2)CCC(=O)[O-])C(O)C)CCCC[NH3+])C(CC)C)CCC(=O)[O-])CS)CCCNC(=[NH2+])N)C[S-])Cc2ccccc2)CCC1)C[S-])CCC(=O)N)CC(=O)[O-])CO)CCC(=O)[O-])CCC(=O)N)Cc1c2c([nH]c1)cccc2)C)C(O)C)CC(C)C)C[S-])CO)C(O)C)C[S-])C.S(CCC(NC(=O)C(NC(=O)C(NC(=O)C(NC(=O)C(NC(=O)C(NC(=O)C(NC(=O)C(NC(=O)C(NC(=O)C(NC(=O)C(NC(=O)C(NC(=O)C(NC(=O)C(NC(=O)C(NC(=O)C(NC(=O)C[NH3+])CCC(=O)N)C)C)C)CC(=O)[O-])CCCNC(=[NH2+])N)CCCNC(=[NH2+])N)C(O)C)C(C)C)CCC(=O)[O-])CCCC[NH3+])C(O)C)Cc1c2c([nH]c1)cccc2)C)CC(C)C)C(=O)NC(C(=O)NC(C(=O)NC(C(=O)NC(C(=O)NC(C(=O)NC(C(=O)NC(C(=O)NC(C(=O)NC(C(=O)N1C(C(=O)NC(C(=O)NC(C(=O)NC(C(=O)NC(C(=O)NC(C(=O)NC(C(=O)NC(C(=O)N2C(C(=O)N3C(C(=O)NC(C(=O)NC(C(=O)NC(C(=O)NC(C(=O)NC(C(=O)NC(C(=O)N4C(C(=O)NC(C(=O)NC(C(=O)NC(C(=O)NC(C(=O)NC(C(=O)NC(C(=O)NC(C(=O)NC(C(=O)NC(C(=O)NC(C(=O)NC(C(=O)NC(C(=O)NC(C(=O)NC(C(=O)NC(C(=O)NC(C(=O)NC(C(=O)NC(C(=O)NC(C(=O)NC(C(=O)NC(C(=O)NC(C(=O)NC(C(=O)NC(C(=O)NC(C(=O)NC(C(=O)NC(C(=O)NC(C(=O)NC(C(=O)NC(C(=O)NC(C(=O)NC(C(=O)NC(C(=O)NC(C(=O)NC(C(=O)NC(C(=O)NC(C(=O)NC(C(=O)NC(C(=O)NC(C(=O)NC(C(=O)NC(C(=O)NC(C(=O)NC(C(=O)NC(C(=O)NC(C(=O)NC(C(=O)NC(C(=O)NCC(=O)NC(C(=O)NC(C(=O)NC(C(=O)NC(C(=O)NC(C(=O)NC(C(=O)NC(C(=O)NC(C(=O)NC(C(=O)NC(C(=O)NC(C(=O)NC(C(=O)NC(C(=O)NC(C(=O)NC(C(=O)NC(C(=O)NC(C(=O)NC(C(=O)NC(C(=O)NC(C(=O)NC(C(=O)NC(C(=O)NC(C(=O)NC(C(=O)NC(C(=O)NC(C(=O)NC(C(=O)NC(C(=O)NC(C(=O)NC(C(=O)NC(C(=O)NC(C(=O)NC(C(=O)N5C(C(=O)NC(C(=O)NCC(=O)NC(C(=O)NC(C(=O)NC(C(=O)NCC(=O)NC(C(=O)NC(C(=O)NC(C(=O)NC(C(=O)NC(C(=O)NC(C(=O)NC(C(=O)NC(C(=O)NC(C(=O)NC(C(=O)NC(C(=O)NC(C(=O)NC(C(=O)NC(C(=O)NC(C(=O)NC(C(=O)NC(C(=O)NC(C(=O)NCC(=O)NC(C(=O)NC(C(=O)NC(C(=O)NC(C(=O)NC(C(=O)N6C(C(=O)NC(C(=O)NC(C(=O)NC(C(=O)NC(C(=O)NC(C(=O)NC(C(=O)NC(C(=O)NC(C(=O)NC(C(=O)NC(C(=O)NC(C(=O)NC(C(=O)NC(C(=O)NC(C(=O)NC(C(=O)NC(C(=O)NCC(=O)NC(C(=O)NC(C(=O)NC(C(=O)NC(C(=O)NC(C(=O)NC(C(=O)NC(C(=O)NC(C(=O)NC(C(=O)NC(C(=O)NC(C(=O)NC(C(=O)NC(C(=O)NC(C(=O)NC(C(=O)NC(C(=O)NC(C(=O)NC(C(=O)NC(C(=O)NC(C(=O)NC(C(=O)NC(C(=O)NC(C(=O)NC(C(=O)NC(C(=O)NC(C(=O)NC(C(=O)NC(C(=O)NC(C(=O)NC(C(=O)NC(C(=O)N7C(C(=O)NC(C(=O)NCC(=O)NC(C(=O)NC(C(=O)NC(C(=O)NC(C(=O)NC(C(=O)NC(C(=O)NC(C(=O)NC(C(=O)NC(C(=O)NC(C(=O)NC(C(=O)NC(C(=O)NC(C(=O)N8C(C(=O)NCC(=O)NC(C(=O)NC(C(=O)NC(C(=O)NC(C(=O)NC(C(=O)NC(C(=O)NC(C(=O)NC(C(=O)NC(C(=O)NC(C(=O)NC(C(=O)NC(C(=O)NC(C(=O)NC(C(=O)NC(C(=O)NC(C(=O)NC(C(=O)NC(C(=O)NC(C(=O)NC(C(=O)N9C(C(=O)NCC(=O)NC(C(=O)NC(C(=O)NC(C(=O)NC(C(=O)NC(C(=O)NC(C(=O)NC(C(=O)NC(C(=O)NC(C(=O)NC(C(=O)NC(C(=O)NCC(=O)NC(C(=O)NC(C(=O)NC(C(=O)NC(C(=O)NCC(=O)NC(C(=O)NC(C(=O)NC(C(=O)NCC(=O)NC(C(=O)NCC(=O)NC(C(=O)NC(C(=O)NC(C(=O)NC(C(=O)NC(C(=O)NC(C(=O)N%10C(C(=O)NC(C(=O)NC(C(=O)NC(C(=O)N%11C(C(=O)NC(C(=O)NC(C(=O)NC(C(=O)NC(C(=O)NC(C(=O)NC(C(=O)NC(C(=O)NCC(=O)NC(C(=O)NC(C(=O)NC(C(=O)NCC(=O)NC(C(=O)NC(C(=O)NC(C(=O)NC(C(=O)N%12C(C(=O)NC(C(=O)NCC(=O)NC(C(=O)NC(C(=O)NC(C(=O)NC(C(=O)NC)CC(=O)N)Cc%13ccc(O)cc%13)CO)CCCNC(=[NH2+])N)CC(=O)[O-])CCC%12)Cc%12ccc(O)cc%12)CC(C)C)Cc%12ccc(O)cc%12)Cc%12ccccc%12)CCC(=O)[O-])C)CO)CC(=O)[O-])C(CC)C)CC(C)C)C)CCC(=O)N)Cc%12ccccc%12)CC(C)C)CCC%11)CCCC[NH3+])CC(=O)N)Cc%11[nH]cnc%11)CCC%10)C(CC)C)C(O)C)CCC(=O)N)CC(C)C)C(CC)C)CC(=O)N)CC(=O)[O-])C(O)C)C(C)C)Cc%10ccc(O)cc%10)C(CC)C)C)Cc%10c%11c([nH]c%10)cccc%11)CCC(=O)N)CC(C)C)CCCNC(=[NH2+])N)C(O)C)CS)CO)CC(C)C)CCCNC(=[NH2+])N)Cc%10ccccc%10)C(CC)C)Cc%10ccc(O)cc%10)CO)CCC9)CCCC[NH3+])C(O)C)CO)Cc9ccc(O)cc9)CCCC[NH3+])CCC(=O)N)CC(C)C)CCCNC(=[NH2+])N)C)CCCC[NH3+])C(C)C)CCC(=O)[O-])CC(=O)[O-])Cc9ccc(O)cc9)C(O)C)CC(C)C)Cc9ccccc9)C)CCSC)Cc9ccc(O)cc9)CCC8)Cc8nc[nH]c8)C(O)C)C(C)C)C)CC(C)C)Cc8ccccc8)CC(=O)N)Cc8c9c([nH]c8)cccc9)CC(=O)N)CCCNC(=[NH2+])N)CC(C)C)C(CC)C)CO)Cc8c9c([nH]c8)cccc9)CCC7)CCC(=O)N)Cc7ccccc7)CC(C)C)CCCNC(=[NH2+])N)C(O)C)Cc7ccccc7)C(CC)C)CC(=O)[O-])Cc7ccccc7)CCC(=O)[O-])Cc7ccccc7)C(C)C)CO)C(CC)C)Cc7ccc(O)cc7)CC(=O)[O-])CC(=O)N)CS)C(O)C)CC(C)C)CC(=O)[O-])C(CC)C)C(O)C)CO)CCCC[NH3+])CC(C)C)C)CCSC)C)CCC(=O)[O-])CC(C)C)CO)CO)C(CC)C)CCC(=O)N)Cc7nc[nH]c7)C(C)C)CCC(=O)[O-])Cc7nc[nH]c7)CC(C)C)CS)CCC(=O)N)CCCNC(=[NH2+])N)Cc7ccccc7)C(C)C)CCCC[NH3+])Cc7c8c([nH]c7)cccc8)CCC6)C(C)C)C(CC)C)C(O)C)CCCC[NH3+])CC(=O)[O-])Cc6ccccc6)Cc6ccccc6)CCCC[NH3+])CCCNC(=[NH2+])N)Cc6c7c([nH]c6)cccc7)Cc6ccccc6)CCC(=O)[O-])C)C)CC(=O)[O-])C)CCCC[NH3+])C(O)C)C(CC)C)CCCNC(=[NH2+])N)Cc6ccccc6)CC(=O)N)CC(=O)[O-])CCC(=O)N)Cc6ccccc6)CCC(=O)N)CC(=O)N)CCC5)Cc5ccccc5)C(CC)C)C)CCCC[NH3+])C(CC)C)CCC(=O)[O-])C)CC(C)C)CCSC)Cc5nc[nH]c5)CO)Cc5ccccc5)C(CC)C)CC(C)C)CO)CC(C)C)CCCC[NH3+])C(O)C)CC(C)C)CC(=O)N)CCCNC(=[NH2+])N)CCCNC(=[NH2+])N)CC(=O)[O-])CCC(=O)N)CO)CCC(=O)N)CCC(=O)[O-])CCC(=O)[O-])Cc5ccc(O)cc5)CCSC)CCCNC(=[NH2+])N)CCC(=O)[O-])CCCC[NH3+])CCC(=O)[O-])CCCC[NH3+])Cc5ccccc5)CC(C)C)CCCNC(=[NH2+])N)C(CC)C)C)CCCNC(=[NH2+])N)CCCC[NH3+])CO)CCCC[NH3+])CCCC[NH3+])CCSC)CC(C)C)CO)CC(=O)[O-])C(CC)C)Cc5ccc(O)cc5)C(CC)C)CCCC[NH3+])Cc5ccccc5)Cc5ccc(O)cc5)CCC(=O)[O-])CC(=O)N)CCC(=O)[O-])CO)CC(C)C)CCC(=O)N)C)CC(C)C)CCCC[NH3+])CCC(=O)N)CC(=O)N)CC(=O)[O-])CC(=O)[O-])Cc5ccc(O)cc5)CCCC[NH3+])CO)CC(C)C)C(CC)C)CC(C)C)CCCNC(=[NH2+])N)CC(C)C)Cc5nc[nH]c5)CCC(=O)N)Cc5ccc(O)cc5)C(O)C)CC(=O)[O-])CCC4)CC(C)C)C(CC)C)CC(=O)[O-])CC(C)C)C(CC)C)Cc4ccc(O)cc4)CCC3)CCC2)CO)CC(=O)N)CCCC[NH3+])CC(C)C)CCC(=O)N)CC(C)C)CCCC[NH3+])CCC1)CC(=O)N)CCC(=O)N)CS)CC(C)C)CCCNC(=[NH2+])N)C(C)C)C(C)C)C)CC(=O)[O-])C.OCCO.[UH+3].[Zn+2].[Zn+2].O.O.O.O.O.O.O.O.O.O.O.O.O.O.O.O.O.O.O.O.O.O.O.O.O.O.O.O.O.O.O.O.O.O.O.O.O.O.O.O.O.O.O.O.O.O.O.O.O.O.O.O.O.O.O.O.O.O.O.O.O.O.O.O.O.O.O.O.O.O.O.O.O.O.O.O.O.O.O.O.O.O.O.O.O.O.O.O.O.O.O.O.O.O.O.O.O.O.O.O.O.O.O.O.O.O.O.O.O.O.O.O.O.O.O.O.O.O.O.O.O.O.O.O.O.O.O.O.O.O.O.O.O.O.O.O.O.O.O.O.O.O

>  <rseq>
1

>  <mseq>
63

>  <S>
-8.6143627

>  <rmsd_refine>
1.0105247

>  <E_conf>
141.5275

>  <E_place>
-98.182549

>  <E_score1>
-12.254932

>  <E_refine>
-48.155907

>  <E_score2>
-8.6143627

>  <Field_2>
WY03

>  <pseq>
63

>  <%C>
75.324768

>  <a_heavy>
31

>  <h_logP>
3.3682282

>  <Weight>
442.85699

>  <E_orig>
0.2

>  <PLIF_raw>
[[26,5,10,9,8,6],[5177,5178,5178,5178,5178,5178],[366,366,366,366,366,366],[3,10,10,10,10,10],[1.7,0.6,0.6,0.6,0.6,0.6]]

>  <FP:PLIF>
17 23 6

>  <PLIF_ligidx>
[26,26,[5,10,9,8,6]]

$$$$

  MOE2020           3D

 58 62  0  0  1  0  0  0  0  0999 V2000
    6.5430    7.3420   17.8700 C   0  0  0  0  0  0  0  0  0  0  0  0
    7.4460    7.2960   17.2680 H   0  0  0  0  0  0  0  0  0  0  0  0
    6.8060    7.1040   18.8970 H   0  0  0  0  0  0  0  0  0  0  0  0
    6.1430    8.3460   17.8000 H   0  0  0  0  0  0  0  0  0  0  0  0
    5.4980    6.3400   17.3790 C   0  0  2  0  0  0  0  0  0  0  0  0
    5.1280    6.5790   15.9050 C   0  0  0  0  0  0  0  0  0  0  0  0
    5.6670    7.4450   15.5260 H   0  0  0  0  0  0  0  0  0  0  0  0
    4.0660    6.8090   15.8350 H   0  0  0  0  0  0  0  0  0  0  0  0
    5.4370    5.4260   14.9640 C   0  0  0  0  0  0  0  0  0  0  0  0
    4.6420    4.9650   14.0600 N   0  0  0  0  0  0  0  0  0  0  0  0
    5.2860    3.9610   13.3940 N   0  0  0  0  0  0  0  0  0  0  0  0
    6.4520    3.8540   13.9230 C   0  0  0  0  0  0  0  0  0  0  0  0
    7.2260    3.1820   13.6670 H   0  0  0  0  0  0  0  0  0  0  0  0
    6.5880    4.7460   14.8980 N   0  0  0  0  0  0  0  0  0  0  0  0
    7.7860    4.8890   15.7020 C   0  0  0  0  0  0  0  0  0  0  0  0
    8.6210    4.3870   15.2560 H   0  0  0  0  0  0  0  0  0  0  0  0
    7.6850    4.4510   16.6840 H   0  0  0  0  0  0  0  0  0  0  0  0
    8.0760    5.9200   15.8100 H   0  0  0  0  0  0  0  0  0  0  0  0
    4.3130    6.2190   18.3300 C   0  0  0  0  0  0  0  0  0  0  0  0
    4.0650    4.9540   18.8560 C   0  0  0  0  0  0  0  0  0  0  0  0
    4.6410    4.1160   18.5540 H   0  0  0  0  0  0  0  0  0  0  0  0
    3.0700    4.7730   19.7960 C   0  0  0  0  0  0  0  0  0  0  0  0
    2.9010    3.8060   20.1870 H   0  0  0  0  0  0  0  0  0  0  0  0
    2.3170    5.8490   20.2320 C   0  0  0  0  0  0  0  0  0  0  0  0
    1.5610    5.6730   20.9500 H   0  0  0  0  0  0  0  0  0  0  0  0
    2.5600    7.1520   19.7620 C   0  0  0  0  0  0  0  0  0  0  0  0
    3.5290    7.3040   18.7470 C   0  0  0  0  0  0  0  0  0  0  0  0
    3.7080    8.2670   18.3450 H   0  0  0  0  0  0  0  0  0  0  0  0
    1.8840    8.2770   20.4160 C   0  0  0  0  0  0  0  0  0  0  0  0
    1.3690    8.1040   21.6580 N   0  0  0  0  0  0  0  0  0  0  0  0
    1.4230    7.2030   22.1620 H   0  0  0  0  0  0  0  0  0  0  0  0
    0.8020    9.1800   22.2130 N   0  0  0  0  0  0  0  0  0  0  0  0
    0.9600   10.1160   21.2870 C   0  0  0  0  0  0  0  0  0  0  0  0
    1.6370    9.6080   20.1660 C   0  0  0  0  0  0  0  0  0  0  0  0
    1.9750   10.4090   19.0830 N   0  0  0  0  0  0  0  0  0  0  0  0
    1.6650   11.6860   19.1420 C   0  0  0  0  0  0  0  0  0  0  0  0
    0.9960   12.2700   20.2500 C   0  0  0  0  0  0  0  0  0  0  0  0
    0.7930   13.3070   20.2220 H   0  0  0  0  0  0  0  0  0  0  0  0
    0.5870   11.4990   21.3130 C   0  0  0  0  0  0  0  0  0  0  0  0
   -0.1720   12.0690   22.3620 N   0  0  0  0  0  0  0  0  0  0  0  0
   -0.6030   13.4830   22.3290 C   0  0  0  0  0  0  0  0  0  0  0  0
    0.2080   14.1580   22.5630 H   0  0  0  0  0  0  0  0  0  0  0  0
   -0.9590   13.7370   21.3390 H   0  0  0  0  0  0  0  0  0  0  0  0
   -1.7710   13.6350   23.2950 C   0  0  0  0  0  0  0  0  0  0  0  0
   -2.4490   14.4350   22.9940 H   0  0  0  0  0  0  0  0  0  0  0  0
   -1.3890   13.8310   24.2950 H   0  0  0  0  0  0  0  0  0  0  0  0
   -2.4320   12.2710   23.2550 C   0  0  2  0  0  0  0  0  0  0  0  0
   -1.2760   11.3010   22.9690 C   0  0  0  0  0  0  0  0  0  0  0  0
   -1.6020   10.4910   22.3300 H   0  0  0  0  0  0  0  0  0  0  0  0
   -0.9300   10.8560   23.8910 H   0  0  0  0  0  0  0  0  0  0  0  0
   -3.3660   12.2650   22.1960 O   0  0  0  0  0  0  0  0  0  0  0  0
   -2.9050   12.4600   21.3760 H   0  0  0  0  0  0  0  0  0  0  0  0
    1.9580   12.6120   17.9760 C   0  0  0  0  0  0  0  0  0  0  0  0
    0.8180   13.1740   17.5650 F   0  0  0  0  0  0  0  0  0  0  0  0
    2.4430   11.9540   16.9320 F   0  0  0  0  0  0  0  0  0  0  0  0
    3.3030   14.2310   18.3910 I   0  0  0  0  0  0  0  0  0  0  0  0
    5.9810    5.3730   17.4490 H   0  0  0  0  0  0  0  0  0  0  0  0
   -2.9350   12.0320   24.1910 H   0  0  0  0  0  0  0  0  0  0  0  0
  1  2  1  0  0  0  0
  1  3  1  0  0  0  0
  1  4  1  0  0  0  0
  1  5  1  0  0  0  0
  5  6  1  0  0  0  0
  5 19  1  0  0  0  0
  5 57  1  0  0  0  0
  6  7  1  0  0  0  0
  6  8  1  0  0  0  0
  6  9  1  0  0  0  0
  9 10  2  0  0  0  0
  9 14  1  0  0  0  0
 10 11  1  0  0  0  0
 11 12  2  0  0  0  0
 12 13  1  0  0  0  0
 12 14  1  0  0  0  0
 14 15  1  0  0  0  0
 15 16  1  0  0  0  0
 15 17  1  0  0  0  0
 15 18  1  0  0  0  0
 19 20  1  0  0  0  0
 19 27  2  0  0  0  0
 20 21  1  0  0  0  0
 20 22  2  0  0  0  0
 22 23  1  0  0  0  0
 22 24  1  0  0  0  0
 24 25  1  0  0  0  0
 24 26  2  0  0  0  0
 26 27  1  0  0  0  0
 26 29  1  0  0  0  0
 27 28  1  0  0  0  0
 29 30  1  0  0  0  0
 29 34  2  0  0  0  0
 30 31  1  0  0  0  0
 30 32  1  0  0  0  0
 32 33  2  0  0  0  0
 33 34  1  0  0  0  0
 33 39  1  0  0  0  0
 34 35  1  0  0  0  0
 35 36  2  0  0  0  0
 36 37  1  0  0  0  0
 36 53  1  0  0  0  0
 37 38  1  0  0  0  0
 37 39  2  0  0  0  0
 39 40  1  0  0  0  0
 40 41  1  0  0  0  0
 40 48  1  0  0  0  0
 41 42  1  0  0  0  0
 41 43  1  0  0  0  0
 41 44  1  0  0  0  0
 44 45  1  0  0  0  0
 44 46  1  0  0  0  0
 44 47  1  0  0  0  0
 47 48  1  0  0  0  0
 47 51  1  0  0  0  0
 47 58  1  0  0  0  0
 48 49  1  0  0  0  0
 48 50  1  0  0  0  0
 51 52  1  0  0  0  0
 53 54  1  0  0  0  0
 53 55  1  0  0  0  0
 53 56  1  0  0  0  0
M  END
>  <receptor>
S(=O)(=O)([O-])[O-].S(CCC(NC(=O)C(NC(=O)C(NC(=O)CNC(=O)C(NC(=O)C1N(C(=O)C(NC(=O)C(NC(=O)C(NC(=O)C(NC(=O)C(NC(=O)C(NC(=O)C(NC(=O)C(NC(=O)C(NC(=O)C(NC(=O)C(NC(=O)C(NC(=O)C(NC(=O)C(NC(=O)C(NC(=O)C(NC(=O)C(NC(=O)C(NC(=O)C(NC(=O)CNC(=O)C(NC(=O)C(NC(=O)C(NC(=O)C(NC(=O)C(NC(=O)C(NC(=O)C(NC(=O)C(NC(=O)C(NC(=O)C(NC(=O)C(NC(=O)C(NC(=O)C(NC(=O)C)CCCC[NH3+])C(C)C)C(O)C)CCC(=O)N)CCC(=O)[O-])CCC(=O)N)Cc2ccccc2)CCC(=O)[O-])CC(C)C)Cc2ccc(O)cc2)CS)CCC(=O)[O-])CCSC)CO)C(O)C)Cc2ccccc2)CCC(=O)N)CC(C)C)C[S-])CCCC[NH3+])C(CC)C)C[S-])C)CCC(=O)[O-])CC(=O)N)CC(=O)[O-])CCCC[NH3+])CC(=O)[O-])C(C)C)CCCC[NH3+])C(CC)C)CCC(=O)[O-])CCC1)C[S-])Cc1nc[n-]c1)CC(C)C)C(=O)NC(C(=O)NC(C(=O)NC(C(=O)NC(C(=O)NC(C(=O)NC(C(=O)NC(C(=O)NC(C(=O)NC(C(=O)NC(C(=O)NC(C(=O)NC(C(=O)NCC(=O)NC(C(=O)NCC(=O)NC(C(=O)N1C(C(=O)NC(C(=O)NC(C(=O)NC(C(=O)NC(C(=O)NC(C(=O)NC(C(=O)NC(C(=O)NCC(=O)NC(C(=O)NC(C(=O)N2C(C(=O)NC(C(=O)NC(C(=O)NC(C(=O)NC(C(=O)N3C(C(=O)NC(C(=O)NC(C(=O)[O-])CC(=O)[O-])Cc4ccccc4)CCC3)CC(=O)[O-])C(C)C)C(CC)C)C(CC)C)CCC2)CCC(=O)[O-])C(O)C)CCCC[NH3+])C(CC)C)CCC(=O)[O-])CS)CCCNC(=[NH2+])N)C[S-])Cc2ccccc2)CCC1)C[S-])CCC(=O)N)CC(=O)[O-])CO)CCC(=O)[O-])CCC(=O)N)Cc1c2c([nH]c1)cccc2)C)C(O)C)CC(C)C)C[S-])CO)C(O)C)C[S-])C.S(CCC(NC(=O)C(NC(=O)C(NC(=O)C(NC(=O)C(NC(=O)C(NC(=O)C(NC(=O)C(NC(=O)C(NC(=O)C(NC(=O)C(NC(=O)C(NC(=O)C(NC(=O)C(NC(=O)C(NC(=O)C(NC(=O)C[NH3+])CCC(=O)N)C)C)C)CC(=O)[O-])CCCNC(=[NH2+])N)CCCNC(=[NH2+])N)C(O)C)C(C)C)CCC(=O)[O-])CCCC[NH3+])C(O)C)Cc1c2c([nH]c1)cccc2)C)CC(C)C)C(=O)NC(C(=O)NC(C(=O)NC(C(=O)NC(C(=O)NC(C(=O)NC(C(=O)NC(C(=O)NC(C(=O)NC(C(=O)N1C(C(=O)NC(C(=O)NC(C(=O)NC(C(=O)NC(C(=O)NC(C(=O)NC(C(=O)NC(C(=O)N2C(C(=O)N3C(C(=O)NC(C(=O)NC(C(=O)NC(C(=O)NC(C(=O)NC(C(=O)NC(C(=O)N4C(C(=O)NC(C(=O)NC(C(=O)NC(C(=O)NC(C(=O)NC(C(=O)NC(C(=O)NC(C(=O)NC(C(=O)NC(C(=O)NC(C(=O)NC(C(=O)NC(C(=O)NC(C(=O)NC(C(=O)NC(C(=O)NC(C(=O)NC(C(=O)NC(C(=O)NC(C(=O)NC(C(=O)NC(C(=O)NC(C(=O)NC(C(=O)NC(C(=O)NC(C(=O)NC(C(=O)NC(C(=O)NC(C(=O)NC(C(=O)NC(C(=O)NC(C(=O)NC(C(=O)NC(C(=O)NC(C(=O)NC(C(=O)NC(C(=O)NC(C(=O)NC(C(=O)NC(C(=O)NC(C(=O)NC(C(=O)NC(C(=O)NC(C(=O)NC(C(=O)NC(C(=O)NC(C(=O)NC(C(=O)NC(C(=O)NCC(=O)NC(C(=O)NC(C(=O)NC(C(=O)NC(C(=O)NC(C(=O)NC(C(=O)NC(C(=O)NC(C(=O)NC(C(=O)NC(C(=O)NC(C(=O)NC(C(=O)NC(C(=O)NC(C(=O)NC(C(=O)NC(C(=O)NC(C(=O)NC(C(=O)NC(C(=O)NC(C(=O)NC(C(=O)NC(C(=O)NC(C(=O)NC(C(=O)NC(C(=O)NC(C(=O)NC(C(=O)NC(C(=O)NC(C(=O)NC(C(=O)NC(C(=O)NC(C(=O)NC(C(=O)N5C(C(=O)NC(C(=O)NCC(=O)NC(C(=O)NC(C(=O)NC(C(=O)NCC(=O)NC(C(=O)NC(C(=O)NC(C(=O)NC(C(=O)NC(C(=O)NC(C(=O)NC(C(=O)NC(C(=O)NC(C(=O)NC(C(=O)NC(C(=O)NC(C(=O)NC(C(=O)NC(C(=O)NC(C(=O)NC(C(=O)NC(C(=O)NC(C(=O)NCC(=O)NC(C(=O)NC(C(=O)NC(C(=O)NC(C(=O)NC(C(=O)N6C(C(=O)NC(C(=O)NC(C(=O)NC(C(=O)NC(C(=O)NC(C(=O)NC(C(=O)NC(C(=O)NC(C(=O)NC(C(=O)NC(C(=O)NC(C(=O)NC(C(=O)NC(C(=O)NC(C(=O)NC(C(=O)NC(C(=O)NCC(=O)NC(C(=O)NC(C(=O)NC(C(=O)NC(C(=O)NC(C(=O)NC(C(=O)NC(C(=O)NC(C(=O)NC(C(=O)NC(C(=O)NC(C(=O)NC(C(=O)NC(C(=O)NC(C(=O)NC(C(=O)NC(C(=O)NC(C(=O)NC(C(=O)NC(C(=O)NC(C(=O)NC(C(=O)NC(C(=O)NC(C(=O)NC(C(=O)NC(C(=O)NC(C(=O)NC(C(=O)NC(C(=O)NC(C(=O)NC(C(=O)NC(C(=O)N7C(C(=O)NC(C(=O)NCC(=O)NC(C(=O)NC(C(=O)NC(C(=O)NC(C(=O)NC(C(=O)NC(C(=O)NC(C(=O)NC(C(=O)NC(C(=O)NC(C(=O)NC(C(=O)NC(C(=O)NC(C(=O)N8C(C(=O)NCC(=O)NC(C(=O)NC(C(=O)NC(C(=O)NC(C(=O)NC(C(=O)NC(C(=O)NC(C(=O)NC(C(=O)NC(C(=O)NC(C(=O)NC(C(=O)NC(C(=O)NC(C(=O)NC(C(=O)NC(C(=O)NC(C(=O)NC(C(=O)NC(C(=O)NC(C(=O)NC(C(=O)N9C(C(=O)NCC(=O)NC(C(=O)NC(C(=O)NC(C(=O)NC(C(=O)NC(C(=O)NC(C(=O)NC(C(=O)NC(C(=O)NC(C(=O)NC(C(=O)NC(C(=O)NCC(=O)NC(C(=O)NC(C(=O)NC(C(=O)NC(C(=O)NCC(=O)NC(C(=O)NC(C(=O)NC(C(=O)NCC(=O)NC(C(=O)NCC(=O)NC(C(=O)NC(C(=O)NC(C(=O)NC(C(=O)NC(C(=O)NC(C(=O)N%10C(C(=O)NC(C(=O)NC(C(=O)NC(C(=O)N%11C(C(=O)NC(C(=O)NC(C(=O)NC(C(=O)NC(C(=O)NC(C(=O)NC(C(=O)NC(C(=O)NCC(=O)NC(C(=O)NC(C(=O)NC(C(=O)NCC(=O)NC(C(=O)NC(C(=O)NC(C(=O)NC(C(=O)N%12C(C(=O)NC(C(=O)NCC(=O)NC(C(=O)NC(C(=O)NC(C(=O)NC(C(=O)NC)CC(=O)N)Cc%13ccc(O)cc%13)CO)CCCNC(=[NH2+])N)CC(=O)[O-])CCC%12)Cc%12ccc(O)cc%12)CC(C)C)Cc%12ccc(O)cc%12)Cc%12ccccc%12)CCC(=O)[O-])C)CO)CC(=O)[O-])C(CC)C)CC(C)C)C)CCC(=O)N)Cc%12ccccc%12)CC(C)C)CCC%11)CCCC[NH3+])CC(=O)N)Cc%11[nH]cnc%11)CCC%10)C(CC)C)C(O)C)CCC(=O)N)CC(C)C)C(CC)C)CC(=O)N)CC(=O)[O-])C(O)C)C(C)C)Cc%10ccc(O)cc%10)C(CC)C)C)Cc%10c%11c([nH]c%10)cccc%11)CCC(=O)N)CC(C)C)CCCNC(=[NH2+])N)C(O)C)CS)CO)CC(C)C)CCCNC(=[NH2+])N)Cc%10ccccc%10)C(CC)C)Cc%10ccc(O)cc%10)CO)CCC9)CCCC[NH3+])C(O)C)CO)Cc9ccc(O)cc9)CCCC[NH3+])CCC(=O)N)CC(C)C)CCCNC(=[NH2+])N)C)CCCC[NH3+])C(C)C)CCC(=O)[O-])CC(=O)[O-])Cc9ccc(O)cc9)C(O)C)CC(C)C)Cc9ccccc9)C)CCSC)Cc9ccc(O)cc9)CCC8)Cc8nc[nH]c8)C(O)C)C(C)C)C)CC(C)C)Cc8ccccc8)CC(=O)N)Cc8c9c([nH]c8)cccc9)CC(=O)N)CCCNC(=[NH2+])N)CC(C)C)C(CC)C)CO)Cc8c9c([nH]c8)cccc9)CCC7)CCC(=O)N)Cc7ccccc7)CC(C)C)CCCNC(=[NH2+])N)C(O)C)Cc7ccccc7)C(CC)C)CC(=O)[O-])Cc7ccccc7)CCC(=O)[O-])Cc7ccccc7)C(C)C)CO)C(CC)C)Cc7ccc(O)cc7)CC(=O)[O-])CC(=O)N)CS)C(O)C)CC(C)C)CC(=O)[O-])C(CC)C)C(O)C)CO)CCCC[NH3+])CC(C)C)C)CCSC)C)CCC(=O)[O-])CC(C)C)CO)CO)C(CC)C)CCC(=O)N)Cc7nc[nH]c7)C(C)C)CCC(=O)[O-])Cc7nc[nH]c7)CC(C)C)CS)CCC(=O)N)CCCNC(=[NH2+])N)Cc7ccccc7)C(C)C)CCCC[NH3+])Cc7c8c([nH]c7)cccc8)CCC6)C(C)C)C(CC)C)C(O)C)CCCC[NH3+])CC(=O)[O-])Cc6ccccc6)Cc6ccccc6)CCCC[NH3+])CCCNC(=[NH2+])N)Cc6c7c([nH]c6)cccc7)Cc6ccccc6)CCC(=O)[O-])C)C)CC(=O)[O-])C)CCCC[NH3+])C(O)C)C(CC)C)CCCNC(=[NH2+])N)Cc6ccccc6)CC(=O)N)CC(=O)[O-])CCC(=O)N)Cc6ccccc6)CCC(=O)N)CC(=O)N)CCC5)Cc5ccccc5)C(CC)C)C)CCCC[NH3+])C(CC)C)CCC(=O)[O-])C)CC(C)C)CCSC)Cc5nc[nH]c5)CO)Cc5ccccc5)C(CC)C)CC(C)C)CO)CC(C)C)CCCC[NH3+])C(O)C)CC(C)C)CC(=O)N)CCCNC(=[NH2+])N)CCCNC(=[NH2+])N)CC(=O)[O-])CCC(=O)N)CO)CCC(=O)N)CCC(=O)[O-])CCC(=O)[O-])Cc5ccc(O)cc5)CCSC)CCCNC(=[NH2+])N)CCC(=O)[O-])CCCC[NH3+])CCC(=O)[O-])CCCC[NH3+])Cc5ccccc5)CC(C)C)CCCNC(=[NH2+])N)C(CC)C)C)CCCNC(=[NH2+])N)CCCC[NH3+])CO)CCCC[NH3+])CCCC[NH3+])CCSC)CC(C)C)CO)CC(=O)[O-])C(CC)C)Cc5ccc(O)cc5)C(CC)C)CCCC[NH3+])Cc5ccccc5)Cc5ccc(O)cc5)CCC(=O)[O-])CC(=O)N)CCC(=O)[O-])CO)CC(C)C)CCC(=O)N)C)CC(C)C)CCCC[NH3+])CCC(=O)N)CC(=O)N)CC(=O)[O-])CC(=O)[O-])Cc5ccc(O)cc5)CCCC[NH3+])CO)CC(C)C)C(CC)C)CC(C)C)CCCNC(=[NH2+])N)CC(C)C)Cc5nc[nH]c5)CCC(=O)N)Cc5ccc(O)cc5)C(O)C)CC(=O)[O-])CCC4)CC(C)C)C(CC)C)CC(=O)[O-])CC(C)C)C(CC)C)Cc4ccc(O)cc4)CCC3)CCC2)CO)CC(=O)N)CCCC[NH3+])CC(C)C)CCC(=O)N)CC(C)C)CCCC[NH3+])CCC1)CC(=O)N)CCC(=O)N)CS)CC(C)C)CCCNC(=[NH2+])N)C(C)C)C(C)C)C)CC(=O)[O-])C.OCCO.[UH+3].[Zn+2].[Zn+2].O.O.O.O.O.O.O.O.O.O.O.O.O.O.O.O.O.O.O.O.O.O.O.O.O.O.O.O.O.O.O.O.O.O.O.O.O.O.O.O.O.O.O.O.O.O.O.O.O.O.O.O.O.O.O.O.O.O.O.O.O.O.O.O.O.O.O.O.O.O.O.O.O.O.O.O.O.O.O.O.O.O.O.O.O.O.O.O.O.O.O.O.O.O.O.O.O.O.O.O.O.O.O.O.O.O.O.O.O.O.O.O.O.O.O.O.O.O.O.O.O.O.O.O.O.O.O.O.O.O.O.O.O.O.O.O.O.O.O.O.O.O

>  <rseq>
1

>  <mseq>
64

>  <S>
-8.0168953

>  <rmsd_refine>
1.3033364

>  <E_conf>
135.42378

>  <E_place>
-97.495071

>  <E_score1>
-12.141322

>  <E_refine>
-30.170313

>  <E_score2>
-8.0168953

>  <Field_2>
WY04

>  <pseq>
64

>  <%C>
63.247063

>  <a_heavy>
34

>  <h_logP>
3.5829947

>  <Weight>
579.39301

>  <E_orig>
3.7271562

>  <PLIF_raw>
[11,6504,220741,6,0.8]

>  <FP:PLIF>
47

>  <PLIF_ligidx>
11

$$$$

  MOE2020           3D

 58 62  0  0  1  0  0  0  0  0999 V2000
    7.8820    5.8050   19.0680 C   0  0  0  0  0  0  0  0  0  0  0  0
    8.8880    5.4720   18.8200 H   0  0  0  0  0  0  0  0  0  0  0  0
    7.6340    5.4360   20.0640 H   0  0  0  0  0  0  0  0  0  0  0  0
    7.8590    6.8930   19.0600 H   0  0  0  0  0  0  0  0  0  0  0  0
    6.8890    5.2540   18.0390 C   0  0  2  0  0  0  0  0  0  0  0  0
    7.1130    5.9550   16.6860 C   0  0  0  0  0  0  0  0  0  0  0  0
    8.1820    5.9660   16.4910 H   0  0  0  0  0  0  0  0  0  0  0  0
    6.7950    6.9940   16.7290 H   0  0  0  0  0  0  0  0  0  0  0  0
    6.4770    5.2350   15.5160 C   0  0  0  0  0  0  0  0  0  0  0  0
    6.8910    4.1350   14.9880 N   0  0  0  0  0  0  0  0  0  0  0  0
    6.0480    3.8080   13.9600 N   0  0  0  0  0  0  0  0  0  0  0  0
    5.1550    4.7340   13.9130 C   0  0  0  0  0  0  0  0  0  0  0  0
    4.3360    4.8260   13.2500 H   0  0  0  0  0  0  0  0  0  0  0  0
    5.3960    5.6400   14.8520 N   0  0  0  0  0  0  0  0  0  0  0  0
    4.6340    6.8480   15.0570 C   0  0  0  0  0  0  0  0  0  0  0  0
    3.9470    7.0390   14.2470 H   0  0  0  0  0  0  0  0  0  0  0  0
    5.2880    7.7020   15.1110 H   0  0  0  0  0  0  0  0  0  0  0  0
    4.0560    6.7980   15.9640 H   0  0  0  0  0  0  0  0  0  0  0  0
    5.4630    5.3450   18.5720 C   0  0  0  0  0  0  0  0  0  0  0  0
    4.8930    4.2230   19.1710 C   0  0  0  0  0  0  0  0  0  0  0  0
    5.4280    3.3100   19.2090 H   0  0  0  0  0  0  0  0  0  0  0  0
    3.6280    4.2970   19.7390 C   0  0  0  0  0  0  0  0  0  0  0  0
    3.2180    3.4420   20.2070 H   0  0  0  0  0  0  0  0  0  0  0  0
    2.9070    5.4810   19.6980 C   0  0  0  0  0  0  0  0  0  0  0  0
    1.9450    5.5310   20.1390 H   0  0  0  0  0  0  0  0  0  0  0  0
    3.4270    6.6000   19.0430 C   0  0  0  0  0  0  0  0  0  0  0  0
    4.7270    6.5260   18.5190 C   0  0  0  0  0  0  0  0  0  0  0  0
    5.1460    7.3910   18.0780 H   0  0  0  0  0  0  0  0  0  0  0  0
    2.6070    7.7710   18.8200 C   0  0  0  0  0  0  0  0  0  0  0  0
    2.5070    8.2760   17.5730 N   0  0  0  0  0  0  0  0  0  0  0  0
    3.0650    7.9320   16.7730 H   0  0  0  0  0  0  0  0  0  0  0  0
    1.6010    9.2410   17.4280 N   0  0  0  0  0  0  0  0  0  0  0  0
    1.0830    9.3650   18.6400 C   0  0  0  0  0  0  0  0  0  0  0  0
    1.7300    8.5310   19.5540 C   0  0  0  0  0  0  0  0  0  0  0  0
    1.4640    8.5870   20.9190 N   0  0  0  0  0  0  0  0  0  0  0  0
    0.5440    9.4330   21.3340 C   0  0  0  0  0  0  0  0  0  0  0  0
   -0.2270   10.2340   20.4400 C   0  0  0  0  0  0  0  0  0  0  0  0
   -1.0010   10.8480   20.8170 H   0  0  0  0  0  0  0  0  0  0  0  0
   -0.0030   10.1660   19.0880 C   0  0  0  0  0  0  0  0  0  0  0  0
   -0.8480   10.7800   18.1620 N   0  0  0  0  0  0  0  0  0  0  0  0
   -1.7480   11.8790   18.4870 C   0  0  0  0  0  0  0  0  0  0  0  0
   -2.3810   11.6190   19.3230 H   0  0  0  0  0  0  0  0  0  0  0  0
   -1.2070   12.7800   18.7430 H   0  0  0  0  0  0  0  0  0  0  0  0
   -2.6130   12.0810   17.2510 C   0  0  0  0  0  0  0  0  0  0  0  0
   -2.0570   12.7330   16.5790 H   0  0  0  0  0  0  0  0  0  0  0  0
   -3.5870   12.5040   17.4980 H   0  0  0  0  0  0  0  0  0  0  0  0
   -2.7350   10.7040   16.6200 C   0  0  2  0  0  0  0  0  0  0  0  0
   -1.6330    9.8880   17.2970 C   0  0  0  0  0  0  0  0  0  0  0  0
   -1.0100    9.3890   16.5750 H   0  0  0  0  0  0  0  0  0  0  0  0
   -2.1050    9.1260   17.9000 H   0  0  0  0  0  0  0  0  0  0  0  0
   -2.5380   10.7510   15.2220 O   0  0  0  0  0  0  0  0  0  0  0  0
   -1.6950   11.1870   15.0670 H   0  0  0  0  0  0  0  0  0  0  0  0
    0.2310    9.5250   22.8170 C   0  0  0  0  0  0  0  0  0  0  0  0
   -0.7270    8.6560   23.1210 F   0  0  0  0  0  0  0  0  0  0  0  0
    1.2860    9.1960   23.5900 F   0  0  0  0  0  0  0  0  0  0  0  0
   -0.3250   11.1170   23.3630 Cl  0  0  0  0  0  0  0  0  0  0  0  0
    7.1160    4.1940   17.9070 H   0  0  0  0  0  0  0  0  0  0  0  0
   -3.7050   10.2620   16.8510 H   0  0  0  0  0  0  0  0  0  0  0  0
  1  2  1  0  0  0  0
  1  3  1  0  0  0  0
  1  4  1  0  0  0  0
  1  5  1  0  0  0  0
  5  6  1  0  0  0  0
  5 19  1  0  0  0  0
  5 57  1  0  0  0  0
  6  7  1  0  0  0  0
  6  8  1  0  0  0  0
  6  9  1  0  0  0  0
  9 10  2  0  0  0  0
  9 14  1  0  0  0  0
 10 11  1  0  0  0  0
 11 12  2  0  0  0  0
 12 13  1  0  0  0  0
 12 14  1  0  0  0  0
 14 15  1  0  0  0  0
 15 16  1  0  0  0  0
 15 17  1  0  0  0  0
 15 18  1  0  0  0  0
 19 20  1  0  0  0  0
 19 27  2  0  0  0  0
 20 21  1  0  0  0  0
 20 22  2  0  0  0  0
 22 23  1  0  0  0  0
 22 24  1  0  0  0  0
 24 25  1  0  0  0  0
 24 26  2  0  0  0  0
 26 27  1  0  0  0  0
 26 29  1  0  0  0  0
 27 28  1  0  0  0  0
 29 30  1  0  0  0  0
 29 34  2  0  0  0  0
 30 31  1  0  0  0  0
 30 32  1  0  0  0  0
 32 33  2  0  0  0  0
 33 34  1  0  0  0  0
 33 39  1  0  0  0  0
 34 35  1  0  0  0  0
 35 36  2  0  0  0  0
 36 37  1  0  0  0  0
 36 53  1  0  0  0  0
 37 38  1  0  0  0  0
 37 39  2  0  0  0  0
 39 40  1  0  0  0  0
 40 41  1  0  0  0  0
 40 48  1  0  0  0  0
 41 42  1  0  0  0  0
 41 43  1  0  0  0  0
 41 44  1  0  0  0  0
 44 45  1  0  0  0  0
 44 46  1  0  0  0  0
 44 47  1  0  0  0  0
 47 48  1  0  0  0  0
 47 51  1  0  0  0  0
 47 58  1  0  0  0  0
 48 49  1  0  0  0  0
 48 50  1  0  0  0  0
 51 52  1  0  0  0  0
 53 54  1  0  0  0  0
 53 55  1  0  0  0  0
 53 56  1  0  0  0  0
M  END
>  <receptor>
S(=O)(=O)([O-])[O-].S(CCC(NC(=O)C(NC(=O)C(NC(=O)CNC(=O)C(NC(=O)C1N(C(=O)C(NC(=O)C(NC(=O)C(NC(=O)C(NC(=O)C(NC(=O)C(NC(=O)C(NC(=O)C(NC(=O)C(NC(=O)C(NC(=O)C(NC(=O)C(NC(=O)C(NC(=O)C(NC(=O)C(NC(=O)C(NC(=O)C(NC(=O)C(NC(=O)C(NC(=O)CNC(=O)C(NC(=O)C(NC(=O)C(NC(=O)C(NC(=O)C(NC(=O)C(NC(=O)C(NC(=O)C(NC(=O)C(NC(=O)C(NC(=O)C(NC(=O)C(NC(=O)C(NC(=O)C)CCCC[NH3+])C(C)C)C(O)C)CCC(=O)N)CCC(=O)[O-])CCC(=O)N)Cc2ccccc2)CCC(=O)[O-])CC(C)C)Cc2ccc(O)cc2)CS)CCC(=O)[O-])CCSC)CO)C(O)C)Cc2ccccc2)CCC(=O)N)CC(C)C)C[S-])CCCC[NH3+])C(CC)C)C[S-])C)CCC(=O)[O-])CC(=O)N)CC(=O)[O-])CCCC[NH3+])CC(=O)[O-])C(C)C)CCCC[NH3+])C(CC)C)CCC(=O)[O-])CCC1)C[S-])Cc1nc[n-]c1)CC(C)C)C(=O)NC(C(=O)NC(C(=O)NC(C(=O)NC(C(=O)NC(C(=O)NC(C(=O)NC(C(=O)NC(C(=O)NC(C(=O)NC(C(=O)NC(C(=O)NC(C(=O)NCC(=O)NC(C(=O)NCC(=O)NC(C(=O)N1C(C(=O)NC(C(=O)NC(C(=O)NC(C(=O)NC(C(=O)NC(C(=O)NC(C(=O)NC(C(=O)NCC(=O)NC(C(=O)NC(C(=O)N2C(C(=O)NC(C(=O)NC(C(=O)NC(C(=O)NC(C(=O)N3C(C(=O)NC(C(=O)NC(C(=O)[O-])CC(=O)[O-])Cc4ccccc4)CCC3)CC(=O)[O-])C(C)C)C(CC)C)C(CC)C)CCC2)CCC(=O)[O-])C(O)C)CCCC[NH3+])C(CC)C)CCC(=O)[O-])CS)CCCNC(=[NH2+])N)C[S-])Cc2ccccc2)CCC1)C[S-])CCC(=O)N)CC(=O)[O-])CO)CCC(=O)[O-])CCC(=O)N)Cc1c2c([nH]c1)cccc2)C)C(O)C)CC(C)C)C[S-])CO)C(O)C)C[S-])C.S(CCC(NC(=O)C(NC(=O)C(NC(=O)C(NC(=O)C(NC(=O)C(NC(=O)C(NC(=O)C(NC(=O)C(NC(=O)C(NC(=O)C(NC(=O)C(NC(=O)C(NC(=O)C(NC(=O)C(NC(=O)C(NC(=O)C[NH3+])CCC(=O)N)C)C)C)CC(=O)[O-])CCCNC(=[NH2+])N)CCCNC(=[NH2+])N)C(O)C)C(C)C)CCC(=O)[O-])CCCC[NH3+])C(O)C)Cc1c2c([nH]c1)cccc2)C)CC(C)C)C(=O)NC(C(=O)NC(C(=O)NC(C(=O)NC(C(=O)NC(C(=O)NC(C(=O)NC(C(=O)NC(C(=O)NC(C(=O)N1C(C(=O)NC(C(=O)NC(C(=O)NC(C(=O)NC(C(=O)NC(C(=O)NC(C(=O)NC(C(=O)N2C(C(=O)N3C(C(=O)NC(C(=O)NC(C(=O)NC(C(=O)NC(C(=O)NC(C(=O)NC(C(=O)N4C(C(=O)NC(C(=O)NC(C(=O)NC(C(=O)NC(C(=O)NC(C(=O)NC(C(=O)NC(C(=O)NC(C(=O)NC(C(=O)NC(C(=O)NC(C(=O)NC(C(=O)NC(C(=O)NC(C(=O)NC(C(=O)NC(C(=O)NC(C(=O)NC(C(=O)NC(C(=O)NC(C(=O)NC(C(=O)NC(C(=O)NC(C(=O)NC(C(=O)NC(C(=O)NC(C(=O)NC(C(=O)NC(C(=O)NC(C(=O)NC(C(=O)NC(C(=O)NC(C(=O)NC(C(=O)NC(C(=O)NC(C(=O)NC(C(=O)NC(C(=O)NC(C(=O)NC(C(=O)NC(C(=O)NC(C(=O)NC(C(=O)NC(C(=O)NC(C(=O)NC(C(=O)NC(C(=O)NC(C(=O)NC(C(=O)NCC(=O)NC(C(=O)NC(C(=O)NC(C(=O)NC(C(=O)NC(C(=O)NC(C(=O)NC(C(=O)NC(C(=O)NC(C(=O)NC(C(=O)NC(C(=O)NC(C(=O)NC(C(=O)NC(C(=O)NC(C(=O)NC(C(=O)NC(C(=O)NC(C(=O)NC(C(=O)NC(C(=O)NC(C(=O)NC(C(=O)NC(C(=O)NC(C(=O)NC(C(=O)NC(C(=O)NC(C(=O)NC(C(=O)NC(C(=O)NC(C(=O)NC(C(=O)NC(C(=O)NC(C(=O)N5C(C(=O)NC(C(=O)NCC(=O)NC(C(=O)NC(C(=O)NC(C(=O)NCC(=O)NC(C(=O)NC(C(=O)NC(C(=O)NC(C(=O)NC(C(=O)NC(C(=O)NC(C(=O)NC(C(=O)NC(C(=O)NC(C(=O)NC(C(=O)NC(C(=O)NC(C(=O)NC(C(=O)NC(C(=O)NC(C(=O)NC(C(=O)NC(C(=O)NCC(=O)NC(C(=O)NC(C(=O)NC(C(=O)NC(C(=O)NC(C(=O)N6C(C(=O)NC(C(=O)NC(C(=O)NC(C(=O)NC(C(=O)NC(C(=O)NC(C(=O)NC(C(=O)NC(C(=O)NC(C(=O)NC(C(=O)NC(C(=O)NC(C(=O)NC(C(=O)NC(C(=O)NC(C(=O)NC(C(=O)NCC(=O)NC(C(=O)NC(C(=O)NC(C(=O)NC(C(=O)NC(C(=O)NC(C(=O)NC(C(=O)NC(C(=O)NC(C(=O)NC(C(=O)NC(C(=O)NC(C(=O)NC(C(=O)NC(C(=O)NC(C(=O)NC(C(=O)NC(C(=O)NC(C(=O)NC(C(=O)NC(C(=O)NC(C(=O)NC(C(=O)NC(C(=O)NC(C(=O)NC(C(=O)NC(C(=O)NC(C(=O)NC(C(=O)NC(C(=O)NC(C(=O)NC(C(=O)N7C(C(=O)NC(C(=O)NCC(=O)NC(C(=O)NC(C(=O)NC(C(=O)NC(C(=O)NC(C(=O)NC(C(=O)NC(C(=O)NC(C(=O)NC(C(=O)NC(C(=O)NC(C(=O)NC(C(=O)NC(C(=O)N8C(C(=O)NCC(=O)NC(C(=O)NC(C(=O)NC(C(=O)NC(C(=O)NC(C(=O)NC(C(=O)NC(C(=O)NC(C(=O)NC(C(=O)NC(C(=O)NC(C(=O)NC(C(=O)NC(C(=O)NC(C(=O)NC(C(=O)NC(C(=O)NC(C(=O)NC(C(=O)NC(C(=O)NC(C(=O)N9C(C(=O)NCC(=O)NC(C(=O)NC(C(=O)NC(C(=O)NC(C(=O)NC(C(=O)NC(C(=O)NC(C(=O)NC(C(=O)NC(C(=O)NC(C(=O)NC(C(=O)NCC(=O)NC(C(=O)NC(C(=O)NC(C(=O)NC(C(=O)NCC(=O)NC(C(=O)NC(C(=O)NC(C(=O)NCC(=O)NC(C(=O)NCC(=O)NC(C(=O)NC(C(=O)NC(C(=O)NC(C(=O)NC(C(=O)NC(C(=O)N%10C(C(=O)NC(C(=O)NC(C(=O)NC(C(=O)N%11C(C(=O)NC(C(=O)NC(C(=O)NC(C(=O)NC(C(=O)NC(C(=O)NC(C(=O)NC(C(=O)NCC(=O)NC(C(=O)NC(C(=O)NC(C(=O)NCC(=O)NC(C(=O)NC(C(=O)NC(C(=O)NC(C(=O)N%12C(C(=O)NC(C(=O)NCC(=O)NC(C(=O)NC(C(=O)NC(C(=O)NC(C(=O)NC)CC(=O)N)Cc%13ccc(O)cc%13)CO)CCCNC(=[NH2+])N)CC(=O)[O-])CCC%12)Cc%12ccc(O)cc%12)CC(C)C)Cc%12ccc(O)cc%12)Cc%12ccccc%12)CCC(=O)[O-])C)CO)CC(=O)[O-])C(CC)C)CC(C)C)C)CCC(=O)N)Cc%12ccccc%12)CC(C)C)CCC%11)CCCC[NH3+])CC(=O)N)Cc%11[nH]cnc%11)CCC%10)C(CC)C)C(O)C)CCC(=O)N)CC(C)C)C(CC)C)CC(=O)N)CC(=O)[O-])C(O)C)C(C)C)Cc%10ccc(O)cc%10)C(CC)C)C)Cc%10c%11c([nH]c%10)cccc%11)CCC(=O)N)CC(C)C)CCCNC(=[NH2+])N)C(O)C)CS)CO)CC(C)C)CCCNC(=[NH2+])N)Cc%10ccccc%10)C(CC)C)Cc%10ccc(O)cc%10)CO)CCC9)CCCC[NH3+])C(O)C)CO)Cc9ccc(O)cc9)CCCC[NH3+])CCC(=O)N)CC(C)C)CCCNC(=[NH2+])N)C)CCCC[NH3+])C(C)C)CCC(=O)[O-])CC(=O)[O-])Cc9ccc(O)cc9)C(O)C)CC(C)C)Cc9ccccc9)C)CCSC)Cc9ccc(O)cc9)CCC8)Cc8nc[nH]c8)C(O)C)C(C)C)C)CC(C)C)Cc8ccccc8)CC(=O)N)Cc8c9c([nH]c8)cccc9)CC(=O)N)CCCNC(=[NH2+])N)CC(C)C)C(CC)C)CO)Cc8c9c([nH]c8)cccc9)CCC7)CCC(=O)N)Cc7ccccc7)CC(C)C)CCCNC(=[NH2+])N)C(O)C)Cc7ccccc7)C(CC)C)CC(=O)[O-])Cc7ccccc7)CCC(=O)[O-])Cc7ccccc7)C(C)C)CO)C(CC)C)Cc7ccc(O)cc7)CC(=O)[O-])CC(=O)N)CS)C(O)C)CC(C)C)CC(=O)[O-])C(CC)C)C(O)C)CO)CCCC[NH3+])CC(C)C)C)CCSC)C)CCC(=O)[O-])CC(C)C)CO)CO)C(CC)C)CCC(=O)N)Cc7nc[nH]c7)C(C)C)CCC(=O)[O-])Cc7nc[nH]c7)CC(C)C)CS)CCC(=O)N)CCCNC(=[NH2+])N)Cc7ccccc7)C(C)C)CCCC[NH3+])Cc7c8c([nH]c7)cccc8)CCC6)C(C)C)C(CC)C)C(O)C)CCCC[NH3+])CC(=O)[O-])Cc6ccccc6)Cc6ccccc6)CCCC[NH3+])CCCNC(=[NH2+])N)Cc6c7c([nH]c6)cccc7)Cc6ccccc6)CCC(=O)[O-])C)C)CC(=O)[O-])C)CCCC[NH3+])C(O)C)C(CC)C)CCCNC(=[NH2+])N)Cc6ccccc6)CC(=O)N)CC(=O)[O-])CCC(=O)N)Cc6ccccc6)CCC(=O)N)CC(=O)N)CCC5)Cc5ccccc5)C(CC)C)C)CCCC[NH3+])C(CC)C)CCC(=O)[O-])C)CC(C)C)CCSC)Cc5nc[nH]c5)CO)Cc5ccccc5)C(CC)C)CC(C)C)CO)CC(C)C)CCCC[NH3+])C(O)C)CC(C)C)CC(=O)N)CCCNC(=[NH2+])N)CCCNC(=[NH2+])N)CC(=O)[O-])CCC(=O)N)CO)CCC(=O)N)CCC(=O)[O-])CCC(=O)[O-])Cc5ccc(O)cc5)CCSC)CCCNC(=[NH2+])N)CCC(=O)[O-])CCCC[NH3+])CCC(=O)[O-])CCCC[NH3+])Cc5ccccc5)CC(C)C)CCCNC(=[NH2+])N)C(CC)C)C)CCCNC(=[NH2+])N)CCCC[NH3+])CO)CCCC[NH3+])CCCC[NH3+])CCSC)CC(C)C)CO)CC(=O)[O-])C(CC)C)Cc5ccc(O)cc5)C(CC)C)CCCC[NH3+])Cc5ccccc5)Cc5ccc(O)cc5)CCC(=O)[O-])CC(=O)N)CCC(=O)[O-])CO)CC(C)C)CCC(=O)N)C)CC(C)C)CCCC[NH3+])CCC(=O)N)CC(=O)N)CC(=O)[O-])CC(=O)[O-])Cc5ccc(O)cc5)CCCC[NH3+])CO)CC(C)C)C(CC)C)CC(C)C)CCCNC(=[NH2+])N)CC(C)C)Cc5nc[nH]c5)CCC(=O)N)Cc5ccc(O)cc5)C(O)C)CC(=O)[O-])CCC4)CC(C)C)C(CC)C)CC(=O)[O-])CC(C)C)C(CC)C)Cc4ccc(O)cc4)CCC3)CCC2)CO)CC(=O)N)CCCC[NH3+])CC(C)C)CCC(=O)N)CC(C)C)CCCC[NH3+])CCC1)CC(=O)N)CCC(=O)N)CS)CC(C)C)CCCNC(=[NH2+])N)C(C)C)C(C)C)C)CC(=O)[O-])C.OCCO.[UH+3].[Zn+2].[Zn+2].O.O.O.O.O.O.O.O.O.O.O.O.O.O.O.O.O.O.O.O.O.O.O.O.O.O.O.O.O.O.O.O.O.O.O.O.O.O.O.O.O.O.O.O.O.O.O.O.O.O.O.O.O.O.O.O.O.O.O.O.O.O.O.O.O.O.O.O.O.O.O.O.O.O.O.O.O.O.O.O.O.O.O.O.O.O.O.O.O.O.O.O.O.O.O.O.O.O.O.O.O.O.O.O.O.O.O.O.O.O.O.O.O.O.O.O.O.O.O.O.O.O.O.O.O.O.O.O.O.O.O.O.O.O.O.O.O.O.O.O.O.O

>  <rseq>
1

>  <mseq>
65

>  <S>
-9.3095026

>  <rmsd_refine>
1.6736227

>  <E_conf>
139.22049

>  <E_place>
-71.801605

>  <E_score1>
-11.214872

>  <E_refine>
-41.07814

>  <E_score2>
-9.3095026

>  <Field_2>
WY05

>  <pseq>
65

>  <%C>
64.634193

>  <a_heavy>
34

>  <h_logP>
3.2315383

>  <Weight>
487.94199

>  <E_orig>
0.40000001

>  <PLIF_raw>
[[51,10,32],[3756,3036,3751],[263,219,263],[3,4,4],[0.5,1.1,1.3]]

>  <FP:PLIF>
48 14 15

>  <PLIF_ligidx>
[10,51,32]

$$$$

  MOE2020           3D

 44 47  0  0  1  0  0  0  0  0999 V2000
    6.3870    4.2530   13.6380 C   0  0  0  0  0  0  0  0  0  0  0  0
    7.3230    3.8380   13.9940 H   0  0  0  0  0  0  0  0  0  0  0  0
    6.6050    5.1700   13.0990 H   0  0  0  0  0  0  0  0  0  0  0  0
    5.9480    3.5330   12.9500 H   0  0  0  0  0  0  0  0  0  0  0  0
    5.4490    4.5100   14.8210 C   0  0  2  0  0  0  0  0  0  0  0  0
    5.7950    5.7070   15.6670 C   0  0  0  0  0  0  0  0  0  0  0  0
    4.7870    6.2600   16.4470 C   0  0  0  0  0  0  0  0  0  0  0  0
    3.7880    5.9320   16.3310 H   0  0  0  0  0  0  0  0  0  0  0  0
    5.1130    7.1580   17.4600 C   0  0  0  0  0  0  0  0  0  0  0  0
    6.4390    7.5720   17.6300 C   0  0  0  0  0  0  0  0  0  0  0  0
    6.7180    8.2480   18.3840 H   0  0  0  0  0  0  0  0  0  0  0  0
    7.4260    7.0850   16.7890 C   0  0  0  0  0  0  0  0  0  0  0  0
    8.4270    7.4080   16.9090 H   0  0  0  0  0  0  0  0  0  0  0  0
    7.1100    6.1420   15.8200 C   0  0  0  0  0  0  0  0  0  0  0  0
    7.8830    5.7300   15.2280 H   0  0  0  0  0  0  0  0  0  0  0  0
    4.0940    7.6270   18.3360 N   0  0  0  0  0  0  0  0  0  0  0  0
    4.3270    7.7000   19.3350 H   0  0  0  0  0  0  0  0  0  0  0  0
    2.8890    8.1800   17.9260 C   0  0  0  0  0  0  0  0  0  0  0  0
    2.6330    8.1420   16.7380 O   0  0  0  0  0  0  0  0  0  0  0  0
    1.9920    8.8350   18.8750 C   0  0  0  0  0  0  0  0  0  0  0  0
    1.9450    8.5180   20.2170 C   0  0  0  0  0  0  0  0  0  0  0  0
    2.5590    7.7520   20.6140 H   0  0  0  0  0  0  0  0  0  0  0  0
    1.0650    9.2100   21.0800 C   0  0  0  0  0  0  0  0  0  0  0  0
    0.9960    8.9520   22.4660 C   0  0  0  0  0  0  0  0  0  0  0  0
    1.6420    8.2280   22.8800 H   0  0  0  0  0  0  0  0  0  0  0  0
    0.1020    9.6300   23.2610 C   0  0  0  0  0  0  0  0  0  0  0  0
    0.0450    9.4220   24.2960 H   0  0  0  0  0  0  0  0  0  0  0  0
   -0.7460   10.6060   22.7010 C   0  0  0  0  0  0  0  0  0  0  0  0
   -1.4330   11.1200   23.3220 H   0  0  0  0  0  0  0  0  0  0  0  0
   -0.6820   10.8870   21.3550 C   0  0  0  0  0  0  0  0  0  0  0  0
   -1.3180   11.6240   20.9340 H   0  0  0  0  0  0  0  0  0  0  0  0
    0.2260   10.1930   20.5190 C   0  0  0  0  0  0  0  0  0  0  0  0
    0.3250   10.4500   19.1270 C   0  0  0  0  0  0  0  0  0  0  0  0
   -0.2970   11.1880   18.6860 H   0  0  0  0  0  0  0  0  0  0  0  0
    1.1570    9.8090   18.3630 N   0  0  0  0  0  0  0  0  0  0  0  0
    5.4290    3.0480   15.9080 S   0  0  0  0  0  0  0  0  0  0  0  0
    5.1790    3.6020   17.5520 C   0  0  0  0  0  0  0  0  0  0  0  0
    4.0500    3.7020   18.1860 N   0  0  0  0  0  0  0  0  0  0  0  0
    4.3980    4.2520   19.3620 C   0  0  0  0  0  0  0  0  0  0  0  0
    3.6850    4.4760   20.1130 H   0  0  0  0  0  0  0  0  0  0  0  0
    5.6600    4.4980   19.5120 N   0  0  0  0  0  0  0  0  0  0  0  0
    6.1610    4.0550   18.3550 N   0  0  0  0  0  0  0  0  0  0  0  0
    7.8740    4.1130   18.0090 Cl  0  0  0  0  0  0  0  0  0  0  0  0
    4.4560    4.6540   14.4240 H   0  0  0  0  0  0  0  0  0  0  0  0
  1  2  1  0  0  0  0
  1  3  1  0  0  0  0
  1  4  1  0  0  0  0
  1  5  1  0  0  0  0
  5  6  1  0  0  0  0
  5 36  1  0  0  0  0
  5 44  1  0  0  0  0
  6  7  2  0  0  0  0
  6 14  1  0  0  0  0
  7  8  1  0  0  0  0
  7  9  1  0  0  0  0
  9 10  2  0  0  0  0
  9 16  1  0  0  0  0
 10 11  1  0  0  0  0
 10 12  1  0  0  0  0
 12 13  1  0  0  0  0
 12 14  2  0  0  0  0
 14 15  1  0  0  0  0
 16 17  1  0  0  0  0
 16 18  1  0  0  0  0
 18 19  2  0  0  0  0
 18 20  1  0  0  0  0
 20 21  1  0  0  0  0
 20 35  2  0  0  0  0
 21 22  1  0  0  0  0
 21 23  2  0  0  0  0
 23 24  1  0  0  0  0
 23 32  1  0  0  0  0
 24 25  1  0  0  0  0
 24 26  2  0  0  0  0
 26 27  1  0  0  0  0
 26 28  1  0  0  0  0
 28 29  1  0  0  0  0
 28 30  2  0  0  0  0
 30 31  1  0  0  0  0
 30 32  1  0  0  0  0
 32 33  2  0  0  0  0
 33 34  1  0  0  0  0
 33 35  1  0  0  0  0
 36 37  1  0  0  0  0
 37 38  2  0  0  0  0
 37 42  1  0  0  0  0
 38 39  1  0  0  0  0
 39 40  1  0  0  0  0
 39 41  2  0  0  0  0
 41 42  1  0  0  0  0
 42 43  1  0  0  0  0
M  END
>  <receptor>
S(=O)(=O)([O-])[O-].S(CCC(NC(=O)C(NC(=O)C(NC(=O)CNC(=O)C(NC(=O)C1N(C(=O)C(NC(=O)C(NC(=O)C(NC(=O)C(NC(=O)C(NC(=O)C(NC(=O)C(NC(=O)C(NC(=O)C(NC(=O)C(NC(=O)C(NC(=O)C(NC(=O)C(NC(=O)C(NC(=O)C(NC(=O)C(NC(=O)C(NC(=O)C(NC(=O)C(NC(=O)CNC(=O)C(NC(=O)C(NC(=O)C(NC(=O)C(NC(=O)C(NC(=O)C(NC(=O)C(NC(=O)C(NC(=O)C(NC(=O)C(NC(=O)C(NC(=O)C(NC(=O)C(NC(=O)C)CCCC[NH3+])C(C)C)C(O)C)CCC(=O)N)CCC(=O)[O-])CCC(=O)N)Cc2ccccc2)CCC(=O)[O-])CC(C)C)Cc2ccc(O)cc2)CS)CCC(=O)[O-])CCSC)CO)C(O)C)Cc2ccccc2)CCC(=O)N)CC(C)C)C[S-])CCCC[NH3+])C(CC)C)C[S-])C)CCC(=O)[O-])CC(=O)N)CC(=O)[O-])CCCC[NH3+])CC(=O)[O-])C(C)C)CCCC[NH3+])C(CC)C)CCC(=O)[O-])CCC1)C[S-])Cc1nc[n-]c1)CC(C)C)C(=O)NC(C(=O)NC(C(=O)NC(C(=O)NC(C(=O)NC(C(=O)NC(C(=O)NC(C(=O)NC(C(=O)NC(C(=O)NC(C(=O)NC(C(=O)NC(C(=O)NCC(=O)NC(C(=O)NCC(=O)NC(C(=O)N1C(C(=O)NC(C(=O)NC(C(=O)NC(C(=O)NC(C(=O)NC(C(=O)NC(C(=O)NC(C(=O)NCC(=O)NC(C(=O)NC(C(=O)N2C(C(=O)NC(C(=O)NC(C(=O)NC(C(=O)NC(C(=O)N3C(C(=O)NC(C(=O)NC(C(=O)[O-])CC(=O)[O-])Cc4ccccc4)CCC3)CC(=O)[O-])C(C)C)C(CC)C)C(CC)C)CCC2)CCC(=O)[O-])C(O)C)CCCC[NH3+])C(CC)C)CCC(=O)[O-])CS)CCCNC(=[NH2+])N)C[S-])Cc2ccccc2)CCC1)C[S-])CCC(=O)N)CC(=O)[O-])CO)CCC(=O)[O-])CCC(=O)N)Cc1c2c([nH]c1)cccc2)C)C(O)C)CC(C)C)C[S-])CO)C(O)C)C[S-])C.S(CCC(NC(=O)C(NC(=O)C(NC(=O)C(NC(=O)C(NC(=O)C(NC(=O)C(NC(=O)C(NC(=O)C(NC(=O)C(NC(=O)C(NC(=O)C(NC(=O)C(NC(=O)C(NC(=O)C(NC(=O)C(NC(=O)C[NH3+])CCC(=O)N)C)C)C)CC(=O)[O-])CCCNC(=[NH2+])N)CCCNC(=[NH2+])N)C(O)C)C(C)C)CCC(=O)[O-])CCCC[NH3+])C(O)C)Cc1c2c([nH]c1)cccc2)C)CC(C)C)C(=O)NC(C(=O)NC(C(=O)NC(C(=O)NC(C(=O)NC(C(=O)NC(C(=O)NC(C(=O)NC(C(=O)NC(C(=O)N1C(C(=O)NC(C(=O)NC(C(=O)NC(C(=O)NC(C(=O)NC(C(=O)NC(C(=O)NC(C(=O)N2C(C(=O)N3C(C(=O)NC(C(=O)NC(C(=O)NC(C(=O)NC(C(=O)NC(C(=O)NC(C(=O)N4C(C(=O)NC(C(=O)NC(C(=O)NC(C(=O)NC(C(=O)NC(C(=O)NC(C(=O)NC(C(=O)NC(C(=O)NC(C(=O)NC(C(=O)NC(C(=O)NC(C(=O)NC(C(=O)NC(C(=O)NC(C(=O)NC(C(=O)NC(C(=O)NC(C(=O)NC(C(=O)NC(C(=O)NC(C(=O)NC(C(=O)NC(C(=O)NC(C(=O)NC(C(=O)NC(C(=O)NC(C(=O)NC(C(=O)NC(C(=O)NC(C(=O)NC(C(=O)NC(C(=O)NC(C(=O)NC(C(=O)NC(C(=O)NC(C(=O)NC(C(=O)NC(C(=O)NC(C(=O)NC(C(=O)NC(C(=O)NC(C(=O)NC(C(=O)NC(C(=O)NC(C(=O)NC(C(=O)NC(C(=O)NC(C(=O)NCC(=O)NC(C(=O)NC(C(=O)NC(C(=O)NC(C(=O)NC(C(=O)NC(C(=O)NC(C(=O)NC(C(=O)NC(C(=O)NC(C(=O)NC(C(=O)NC(C(=O)NC(C(=O)NC(C(=O)NC(C(=O)NC(C(=O)NC(C(=O)NC(C(=O)NC(C(=O)NC(C(=O)NC(C(=O)NC(C(=O)NC(C(=O)NC(C(=O)NC(C(=O)NC(C(=O)NC(C(=O)NC(C(=O)NC(C(=O)NC(C(=O)NC(C(=O)NC(C(=O)NC(C(=O)N5C(C(=O)NC(C(=O)NCC(=O)NC(C(=O)NC(C(=O)NC(C(=O)NCC(=O)NC(C(=O)NC(C(=O)NC(C(=O)NC(C(=O)NC(C(=O)NC(C(=O)NC(C(=O)NC(C(=O)NC(C(=O)NC(C(=O)NC(C(=O)NC(C(=O)NC(C(=O)NC(C(=O)NC(C(=O)NC(C(=O)NC(C(=O)NC(C(=O)NCC(=O)NC(C(=O)NC(C(=O)NC(C(=O)NC(C(=O)NC(C(=O)N6C(C(=O)NC(C(=O)NC(C(=O)NC(C(=O)NC(C(=O)NC(C(=O)NC(C(=O)NC(C(=O)NC(C(=O)NC(C(=O)NC(C(=O)NC(C(=O)NC(C(=O)NC(C(=O)NC(C(=O)NC(C(=O)NC(C(=O)NCC(=O)NC(C(=O)NC(C(=O)NC(C(=O)NC(C(=O)NC(C(=O)NC(C(=O)NC(C(=O)NC(C(=O)NC(C(=O)NC(C(=O)NC(C(=O)NC(C(=O)NC(C(=O)NC(C(=O)NC(C(=O)NC(C(=O)NC(C(=O)NC(C(=O)NC(C(=O)NC(C(=O)NC(C(=O)NC(C(=O)NC(C(=O)NC(C(=O)NC(C(=O)NC(C(=O)NC(C(=O)NC(C(=O)NC(C(=O)NC(C(=O)NC(C(=O)N7C(C(=O)NC(C(=O)NCC(=O)NC(C(=O)NC(C(=O)NC(C(=O)NC(C(=O)NC(C(=O)NC(C(=O)NC(C(=O)NC(C(=O)NC(C(=O)NC(C(=O)NC(C(=O)NC(C(=O)NC(C(=O)N8C(C(=O)NCC(=O)NC(C(=O)NC(C(=O)NC(C(=O)NC(C(=O)NC(C(=O)NC(C(=O)NC(C(=O)NC(C(=O)NC(C(=O)NC(C(=O)NC(C(=O)NC(C(=O)NC(C(=O)NC(C(=O)NC(C(=O)NC(C(=O)NC(C(=O)NC(C(=O)NC(C(=O)NC(C(=O)N9C(C(=O)NCC(=O)NC(C(=O)NC(C(=O)NC(C(=O)NC(C(=O)NC(C(=O)NC(C(=O)NC(C(=O)NC(C(=O)NC(C(=O)NC(C(=O)NC(C(=O)NCC(=O)NC(C(=O)NC(C(=O)NC(C(=O)NC(C(=O)NCC(=O)NC(C(=O)NC(C(=O)NC(C(=O)NCC(=O)NC(C(=O)NCC(=O)NC(C(=O)NC(C(=O)NC(C(=O)NC(C(=O)NC(C(=O)NC(C(=O)N%10C(C(=O)NC(C(=O)NC(C(=O)NC(C(=O)N%11C(C(=O)NC(C(=O)NC(C(=O)NC(C(=O)NC(C(=O)NC(C(=O)NC(C(=O)NC(C(=O)NCC(=O)NC(C(=O)NC(C(=O)NC(C(=O)NCC(=O)NC(C(=O)NC(C(=O)NC(C(=O)NC(C(=O)N%12C(C(=O)NC(C(=O)NCC(=O)NC(C(=O)NC(C(=O)NC(C(=O)NC(C(=O)NC)CC(=O)N)Cc%13ccc(O)cc%13)CO)CCCNC(=[NH2+])N)CC(=O)[O-])CCC%12)Cc%12ccc(O)cc%12)CC(C)C)Cc%12ccc(O)cc%12)Cc%12ccccc%12)CCC(=O)[O-])C)CO)CC(=O)[O-])C(CC)C)CC(C)C)C)CCC(=O)N)Cc%12ccccc%12)CC(C)C)CCC%11)CCCC[NH3+])CC(=O)N)Cc%11[nH]cnc%11)CCC%10)C(CC)C)C(O)C)CCC(=O)N)CC(C)C)C(CC)C)CC(=O)N)CC(=O)[O-])C(O)C)C(C)C)Cc%10ccc(O)cc%10)C(CC)C)C)Cc%10c%11c([nH]c%10)cccc%11)CCC(=O)N)CC(C)C)CCCNC(=[NH2+])N)C(O)C)CS)CO)CC(C)C)CCCNC(=[NH2+])N)Cc%10ccccc%10)C(CC)C)Cc%10ccc(O)cc%10)CO)CCC9)CCCC[NH3+])C(O)C)CO)Cc9ccc(O)cc9)CCCC[NH3+])CCC(=O)N)CC(C)C)CCCNC(=[NH2+])N)C)CCCC[NH3+])C(C)C)CCC(=O)[O-])CC(=O)[O-])Cc9ccc(O)cc9)C(O)C)CC(C)C)Cc9ccccc9)C)CCSC)Cc9ccc(O)cc9)CCC8)Cc8nc[nH]c8)C(O)C)C(C)C)C)CC(C)C)Cc8ccccc8)CC(=O)N)Cc8c9c([nH]c8)cccc9)CC(=O)N)CCCNC(=[NH2+])N)CC(C)C)C(CC)C)CO)Cc8c9c([nH]c8)cccc9)CCC7)CCC(=O)N)Cc7ccccc7)CC(C)C)CCCNC(=[NH2+])N)C(O)C)Cc7ccccc7)C(CC)C)CC(=O)[O-])Cc7ccccc7)CCC(=O)[O-])Cc7ccccc7)C(C)C)CO)C(CC)C)Cc7ccc(O)cc7)CC(=O)[O-])CC(=O)N)CS)C(O)C)CC(C)C)CC(=O)[O-])C(CC)C)C(O)C)CO)CCCC[NH3+])CC(C)C)C)CCSC)C)CCC(=O)[O-])CC(C)C)CO)CO)C(CC)C)CCC(=O)N)Cc7nc[nH]c7)C(C)C)CCC(=O)[O-])Cc7nc[nH]c7)CC(C)C)CS)CCC(=O)N)CCCNC(=[NH2+])N)Cc7ccccc7)C(C)C)CCCC[NH3+])Cc7c8c([nH]c7)cccc8)CCC6)C(C)C)C(CC)C)C(O)C)CCCC[NH3+])CC(=O)[O-])Cc6ccccc6)Cc6ccccc6)CCCC[NH3+])CCCNC(=[NH2+])N)Cc6c7c([nH]c6)cccc7)Cc6ccccc6)CCC(=O)[O-])C)C)CC(=O)[O-])C)CCCC[NH3+])C(O)C)C(CC)C)CCCNC(=[NH2+])N)Cc6ccccc6)CC(=O)N)CC(=O)[O-])CCC(=O)N)Cc6ccccc6)CCC(=O)N)CC(=O)N)CCC5)Cc5ccccc5)C(CC)C)C)CCCC[NH3+])C(CC)C)CCC(=O)[O-])C)CC(C)C)CCSC)Cc5nc[nH]c5)CO)Cc5ccccc5)C(CC)C)CC(C)C)CO)CC(C)C)CCCC[NH3+])C(O)C)CC(C)C)CC(=O)N)CCCNC(=[NH2+])N)CCCNC(=[NH2+])N)CC(=O)[O-])CCC(=O)N)CO)CCC(=O)N)CCC(=O)[O-])CCC(=O)[O-])Cc5ccc(O)cc5)CCSC)CCCNC(=[NH2+])N)CCC(=O)[O-])CCCC[NH3+])CCC(=O)[O-])CCCC[NH3+])Cc5ccccc5)CC(C)C)CCCNC(=[NH2+])N)C(CC)C)C)CCCNC(=[NH2+])N)CCCC[NH3+])CO)CCCC[NH3+])CCCC[NH3+])CCSC)CC(C)C)CO)CC(=O)[O-])C(CC)C)Cc5ccc(O)cc5)C(CC)C)CCCC[NH3+])Cc5ccccc5)Cc5ccc(O)cc5)CCC(=O)[O-])CC(=O)N)CCC(=O)[O-])CO)CC(C)C)CCC(=O)N)C)CC(C)C)CCCC[NH3+])CCC(=O)N)CC(=O)N)CC(=O)[O-])CC(=O)[O-])Cc5ccc(O)cc5)CCCC[NH3+])CO)CC(C)C)C(CC)C)CC(C)C)CCCNC(=[NH2+])N)CC(C)C)Cc5nc[nH]c5)CCC(=O)N)Cc5ccc(O)cc5)C(O)C)CC(=O)[O-])CCC4)CC(C)C)C(CC)C)CC(=O)[O-])CC(C)C)C(CC)C)Cc4ccc(O)cc4)CCC3)CCC2)CO)CC(=O)N)CCCC[NH3+])CC(C)C)CCC(=O)N)CC(C)C)CCCC[NH3+])CCC1)CC(=O)N)CCC(=O)N)CS)CC(C)C)CCCNC(=[NH2+])N)C(C)C)C(C)C)C)CC(=O)[O-])C.OCCO.[UH+3].[Zn+2].[Zn+2].O.O.O.O.O.O.O.O.O.O.O.O.O.O.O.O.O.O.O.O.O.O.O.O.O.O.O.O.O.O.O.O.O.O.O.O.O.O.O.O.O.O.O.O.O.O.O.O.O.O.O.O.O.O.O.O.O.O.O.O.O.O.O.O.O.O.O.O.O.O.O.O.O.O.O.O.O.O.O.O.O.O.O.O.O.O.O.O.O.O.O.O.O.O.O.O.O.O.O.O.O.O.O.O.O.O.O.O.O.O.O.O.O.O.O.O.O.O.O.O.O.O.O.O.O.O.O.O.O.O.O.O.O.O.O.O.O.O.O.O.O.O

>  <rseq>
1

>  <mseq>
66

>  <S>
-7.5488782

>  <rmsd_refine>
0.87982577

>  <E_conf>
72.072601

>  <E_place>
-96.906975

>  <E_score1>
-11.41332

>  <E_refine>
-31.72674

>  <E_score2>
-7.5488782

>  <Field_2>
WY06

>  <pseq>
66

>  <%C>
99.76963

>  <a_heavy>
28

>  <h_logP>
4.9726281

>  <Weight>
409.901

>  <E_orig>
2.734854

>  <PLIF_raw>
[19,3751,263,4,2.4]

>  <FP:PLIF>
15 16

>  <PLIF_ligidx>
[19,19]

$$$$

  MOE2020           3D

 62 66  0  0  1  0  0  0  0  0999 V2000
    4.7940    3.6540   15.9700 C   0  0  0  0  0  0  0  0  0  0  0  0
    5.2070    2.8280   16.5470 H   0  0  0  0  0  0  0  0  0  0  0  0
    5.1650    3.5910   14.9460 H   0  0  0  0  0  0  0  0  0  0  0  0
    3.7130    3.5510   15.9740 H   0  0  0  0  0  0  0  0  0  0  0  0
    5.2000    5.0010   16.5840 C   0  0  2  0  0  0  0  0  0  0  0  0
    6.7080    4.9370   16.8560 C   0  0  0  0  0  0  0  0  0  0  0  0
    7.2190    4.6940   15.9230 H   0  0  0  0  0  0  0  0  0  0  0  0
    6.9170    4.1280   17.5550 H   0  0  0  0  0  0  0  0  0  0  0  0
    7.2960    6.2390   17.3500 C   0  0  0  0  0  0  0  0  0  0  0  0
    7.3430    7.3630   16.7140 N   0  0  0  0  0  0  0  0  0  0  0  0
    8.0200    8.2560   17.5020 N   0  0  0  0  0  0  0  0  0  0  0  0
    8.3510    7.6300   18.5780 C   0  0  0  0  0  0  0  0  0  0  0  0
    8.8960    7.9950   19.4080 H   0  0  0  0  0  0  0  0  0  0  0  0
    7.8890    6.3840   18.5340 N   0  0  0  0  0  0  0  0  0  0  0  0
    8.0040    5.3870   19.5860 C   0  0  0  0  0  0  0  0  0  0  0  0
    7.0940    4.8120   19.6810 H   0  0  0  0  0  0  0  0  0  0  0  0
    8.1640    5.8260   20.5560 H   0  0  0  0  0  0  0  0  0  0  0  0
    8.8160    4.6980   19.4010 H   0  0  0  0  0  0  0  0  0  0  0  0
    4.3640    5.3280   17.8190 C   0  0  0  0  0  0  0  0  0  0  0  0
    3.7170    6.5620   17.9380 C   0  0  0  0  0  0  0  0  0  0  0  0
    3.8690    7.2940   17.1940 H   0  0  0  0  0  0  0  0  0  0  0  0
    2.8720    6.8130   19.0340 C   0  0  0  0  0  0  0  0  0  0  0  0
    2.7040    5.8400   20.0180 C   0  0  0  0  0  0  0  0  0  0  0  0
    2.0690    6.0200   20.8460 H   0  0  0  0  0  0  0  0  0  0  0  0
    3.3670    4.6270   19.9040 C   0  0  0  0  0  0  0  0  0  0  0  0
    3.2300    3.8810   20.6390 H   0  0  0  0  0  0  0  0  0  0  0  0
    4.2010    4.3730   18.8230 C   0  0  0  0  0  0  0  0  0  0  0  0
    4.6990    3.4400   18.7600 H   0  0  0  0  0  0  0  0  0  0  0  0
    2.1280    8.0220   19.2310 N   0  0  0  0  0  0  0  0  0  0  0  0
    1.7640    8.1780   20.1840 H   0  0  0  0  0  0  0  0  0  0  0  0
    1.6570    8.9050   18.2700 C   0  0  0  0  0  0  0  0  0  0  0  0
    2.0970    8.8360   17.1340 O   0  0  0  0  0  0  0  0  0  0  0  0
    0.6070    9.8610   18.6420 C   0  0  0  0  0  0  0  0  0  0  0  0
    0.6900   10.5170   19.8160 N   0  0  0  0  0  0  0  0  0  0  0  0
   -0.2280   11.4310   20.1250 C   0  0  0  0  0  0  0  0  0  0  0  0
   -0.1230   11.9470   21.0450 H   0  0  0  0  0  0  0  0  0  0  0  0
   -1.2950   11.7290   19.2820 C   0  0  0  0  0  0  0  0  0  0  0  0
   -1.9790   12.4910   19.5520 H   0  0  0  0  0  0  0  0  0  0  0  0
   -1.4540   11.0300   18.0840 C   0  0  0  0  0  0  0  0  0  0  0  0
   -0.4720   10.0900   17.7790 C   0  0  0  0  0  0  0  0  0  0  0  0
   -0.5490    9.5440   16.8790 H   0  0  0  0  0  0  0  0  0  0  0  0
   -2.5690   11.2720   17.1530 C   0  0  0  0  0  0  0  0  0  0  0  0
   -2.4380   11.1420   15.9370 O   0  0  0  0  0  0  0  0  0  0  0  0
   -3.8200   11.6290   17.6250 N   0  0  0  0  0  0  0  0  0  0  0  0
   -4.9110   12.0500   16.7580 C   0  0  0  0  0  0  0  0  0  0  0  0
   -4.6430   12.8720   16.1160 H   0  0  0  0  0  0  0  0  0  0  0  0
   -5.1750   11.2250   16.1140 H   0  0  0  0  0  0  0  0  0  0  0  0
   -6.0760   12.4200   17.6720 C   0  0  0  0  0  0  0  0  0  0  0  0
   -5.9890   13.4670   17.9330 H   0  0  0  0  0  0  0  0  0  0  0  0
   -7.0390   12.2840   17.2000 H   0  0  0  0  0  0  0  0  0  0  0  0
   -5.8740   11.5590   18.9210 C   0  0  3  0  0  0  0  0  0  0  0  0
   -4.4090   11.0970   18.8480 C   0  0  0  0  0  0  0  0  0  0  0  0
   -4.3380   10.0230   18.8120 H   0  0  0  0  0  0  0  0  0  0  0  0
   -3.8720   11.4420   19.7160 H   0  0  0  0  0  0  0  0  0  0  0  0
   -6.2840   12.1990   20.2820 C   0  0  0  0  0  0  0  0  0  0  0  0
   -5.5060   12.2640   21.0290 H   0  0  0  0  0  0  0  0  0  0  0  0
   -6.7890   13.1530   20.2140 H   0  0  0  0  0  0  0  0  0  0  0  0
   -7.1980   11.0990   20.5110 O   0  0  0  0  0  0  0  0  0  0  0  0
   -6.9960   10.5020   19.2070 C   0  0  2  0  0  0  0  0  0  0  0  0
   -6.6050    8.7640   19.2950 Cl  0  0  0  0  0  0  0  0  0  0  0  0
    5.0080    5.7800   15.8430 H   0  0  0  0  0  0  0  0  0  0  0  0
   -7.8660   10.6200   18.5780 H   0  0  0  0  0  0  0  0  0  0  0  0
  1  2  1  0  0  0  0
  1  3  1  0  0  0  0
  1  4  1  0  0  0  0
  1  5  1  0  0  0  0
  5  6  1  0  0  0  0
  5 19  1  0  0  0  0
  5 61  1  0  0  0  0
  6  7  1  0  0  0  0
  6  8  1  0  0  0  0
  6  9  1  0  0  0  0
  9 10  2  0  0  0  0
  9 14  1  0  0  0  0
 10 11  1  0  0  0  0
 11 12  2  0  0  0  0
 12 13  1  0  0  0  0
 12 14  1  0  0  0  0
 14 15  1  0  0  0  0
 15 16  1  0  0  0  0
 15 17  1  0  0  0  0
 15 18  1  0  0  0  0
 19 20  2  0  0  0  0
 19 27  1  0  0  0  0
 20 21  1  0  0  0  0
 20 22  1  0  0  0  0
 22 23  2  0  0  0  0
 22 29  1  0  0  0  0
 23 24  1  0  0  0  0
 23 25  1  0  0  0  0
 25 26  1  0  0  0  0
 25 27  2  0  0  0  0
 27 28  1  0  0  0  0
 29 30  1  0  0  0  0
 29 31  1  0  0  0  0
 31 32  2  0  0  0  0
 31 33  1  0  0  0  0
 33 34  2  0  0  0  0
 33 40  1  0  0  0  0
 34 35  1  0  0  0  0
 35 36  1  0  0  0  0
 35 37  2  0  0  0  0
 37 38  1  0  0  0  0
 37 39  1  0  0  0  0
 39 40  2  0  0  0  0
 39 42  1  0  0  0  0
 40 41  1  0  0  0  0
 42 43  2  0  0  0  0
 42 44  1  0  0  0  0
 44 45  1  0  0  0  0
 44 52  1  0  0  0  0
 45 46  1  0  0  0  0
 45 47  1  0  0  0  0
 45 48  1  0  0  0  0
 48 49  1  0  0  0  0
 48 50  1  0  0  0  0
 48 51  1  0  0  0  0
 51 52  1  0  0  0  0
 51 55  1  0  0  0  0
 51 59  1  0  0  0  0
 52 53  1  0  0  0  0
 52 54  1  0  0  0  0
 55 56  1  0  0  0  0
 55 57  1  0  0  0  0
 55 58  1  0  0  0  0
 58 59  1  0  0  0  0
 59 60  1  0  0  0  0
 59 62  1  0  0  0  0
M  END
>  <receptor>
S(=O)(=O)([O-])[O-].S(CCC(NC(=O)C(NC(=O)C(NC(=O)CNC(=O)C(NC(=O)C1N(C(=O)C(NC(=O)C(NC(=O)C(NC(=O)C(NC(=O)C(NC(=O)C(NC(=O)C(NC(=O)C(NC(=O)C(NC(=O)C(NC(=O)C(NC(=O)C(NC(=O)C(NC(=O)C(NC(=O)C(NC(=O)C(NC(=O)C(NC(=O)C(NC(=O)C(NC(=O)CNC(=O)C(NC(=O)C(NC(=O)C(NC(=O)C(NC(=O)C(NC(=O)C(NC(=O)C(NC(=O)C(NC(=O)C(NC(=O)C(NC(=O)C(NC(=O)C(NC(=O)C(NC(=O)C)CCCC[NH3+])C(C)C)C(O)C)CCC(=O)N)CCC(=O)[O-])CCC(=O)N)Cc2ccccc2)CCC(=O)[O-])CC(C)C)Cc2ccc(O)cc2)CS)CCC(=O)[O-])CCSC)CO)C(O)C)Cc2ccccc2)CCC(=O)N)CC(C)C)C[S-])CCCC[NH3+])C(CC)C)C[S-])C)CCC(=O)[O-])CC(=O)N)CC(=O)[O-])CCCC[NH3+])CC(=O)[O-])C(C)C)CCCC[NH3+])C(CC)C)CCC(=O)[O-])CCC1)C[S-])Cc1nc[n-]c1)CC(C)C)C(=O)NC(C(=O)NC(C(=O)NC(C(=O)NC(C(=O)NC(C(=O)NC(C(=O)NC(C(=O)NC(C(=O)NC(C(=O)NC(C(=O)NC(C(=O)NC(C(=O)NCC(=O)NC(C(=O)NCC(=O)NC(C(=O)N1C(C(=O)NC(C(=O)NC(C(=O)NC(C(=O)NC(C(=O)NC(C(=O)NC(C(=O)NC(C(=O)NCC(=O)NC(C(=O)NC(C(=O)N2C(C(=O)NC(C(=O)NC(C(=O)NC(C(=O)NC(C(=O)N3C(C(=O)NC(C(=O)NC(C(=O)[O-])CC(=O)[O-])Cc4ccccc4)CCC3)CC(=O)[O-])C(C)C)C(CC)C)C(CC)C)CCC2)CCC(=O)[O-])C(O)C)CCCC[NH3+])C(CC)C)CCC(=O)[O-])CS)CCCNC(=[NH2+])N)C[S-])Cc2ccccc2)CCC1)C[S-])CCC(=O)N)CC(=O)[O-])CO)CCC(=O)[O-])CCC(=O)N)Cc1c2c([nH]c1)cccc2)C)C(O)C)CC(C)C)C[S-])CO)C(O)C)C[S-])C.S(CCC(NC(=O)C(NC(=O)C(NC(=O)C(NC(=O)C(NC(=O)C(NC(=O)C(NC(=O)C(NC(=O)C(NC(=O)C(NC(=O)C(NC(=O)C(NC(=O)C(NC(=O)C(NC(=O)C(NC(=O)C(NC(=O)C[NH3+])CCC(=O)N)C)C)C)CC(=O)[O-])CCCNC(=[NH2+])N)CCCNC(=[NH2+])N)C(O)C)C(C)C)CCC(=O)[O-])CCCC[NH3+])C(O)C)Cc1c2c([nH]c1)cccc2)C)CC(C)C)C(=O)NC(C(=O)NC(C(=O)NC(C(=O)NC(C(=O)NC(C(=O)NC(C(=O)NC(C(=O)NC(C(=O)NC(C(=O)N1C(C(=O)NC(C(=O)NC(C(=O)NC(C(=O)NC(C(=O)NC(C(=O)NC(C(=O)NC(C(=O)N2C(C(=O)N3C(C(=O)NC(C(=O)NC(C(=O)NC(C(=O)NC(C(=O)NC(C(=O)NC(C(=O)N4C(C(=O)NC(C(=O)NC(C(=O)NC(C(=O)NC(C(=O)NC(C(=O)NC(C(=O)NC(C(=O)NC(C(=O)NC(C(=O)NC(C(=O)NC(C(=O)NC(C(=O)NC(C(=O)NC(C(=O)NC(C(=O)NC(C(=O)NC(C(=O)NC(C(=O)NC(C(=O)NC(C(=O)NC(C(=O)NC(C(=O)NC(C(=O)NC(C(=O)NC(C(=O)NC(C(=O)NC(C(=O)NC(C(=O)NC(C(=O)NC(C(=O)NC(C(=O)NC(C(=O)NC(C(=O)NC(C(=O)NC(C(=O)NC(C(=O)NC(C(=O)NC(C(=O)NC(C(=O)NC(C(=O)NC(C(=O)NC(C(=O)NC(C(=O)NC(C(=O)NC(C(=O)NC(C(=O)NC(C(=O)NC(C(=O)NCC(=O)NC(C(=O)NC(C(=O)NC(C(=O)NC(C(=O)NC(C(=O)NC(C(=O)NC(C(=O)NC(C(=O)NC(C(=O)NC(C(=O)NC(C(=O)NC(C(=O)NC(C(=O)NC(C(=O)NC(C(=O)NC(C(=O)NC(C(=O)NC(C(=O)NC(C(=O)NC(C(=O)NC(C(=O)NC(C(=O)NC(C(=O)NC(C(=O)NC(C(=O)NC(C(=O)NC(C(=O)NC(C(=O)NC(C(=O)NC(C(=O)NC(C(=O)NC(C(=O)NC(C(=O)N5C(C(=O)NC(C(=O)NCC(=O)NC(C(=O)NC(C(=O)NC(C(=O)NCC(=O)NC(C(=O)NC(C(=O)NC(C(=O)NC(C(=O)NC(C(=O)NC(C(=O)NC(C(=O)NC(C(=O)NC(C(=O)NC(C(=O)NC(C(=O)NC(C(=O)NC(C(=O)NC(C(=O)NC(C(=O)NC(C(=O)NC(C(=O)NC(C(=O)NCC(=O)NC(C(=O)NC(C(=O)NC(C(=O)NC(C(=O)NC(C(=O)N6C(C(=O)NC(C(=O)NC(C(=O)NC(C(=O)NC(C(=O)NC(C(=O)NC(C(=O)NC(C(=O)NC(C(=O)NC(C(=O)NC(C(=O)NC(C(=O)NC(C(=O)NC(C(=O)NC(C(=O)NC(C(=O)NC(C(=O)NCC(=O)NC(C(=O)NC(C(=O)NC(C(=O)NC(C(=O)NC(C(=O)NC(C(=O)NC(C(=O)NC(C(=O)NC(C(=O)NC(C(=O)NC(C(=O)NC(C(=O)NC(C(=O)NC(C(=O)NC(C(=O)NC(C(=O)NC(C(=O)NC(C(=O)NC(C(=O)NC(C(=O)NC(C(=O)NC(C(=O)NC(C(=O)NC(C(=O)NC(C(=O)NC(C(=O)NC(C(=O)NC(C(=O)NC(C(=O)NC(C(=O)NC(C(=O)N7C(C(=O)NC(C(=O)NCC(=O)NC(C(=O)NC(C(=O)NC(C(=O)NC(C(=O)NC(C(=O)NC(C(=O)NC(C(=O)NC(C(=O)NC(C(=O)NC(C(=O)NC(C(=O)NC(C(=O)NC(C(=O)N8C(C(=O)NCC(=O)NC(C(=O)NC(C(=O)NC(C(=O)NC(C(=O)NC(C(=O)NC(C(=O)NC(C(=O)NC(C(=O)NC(C(=O)NC(C(=O)NC(C(=O)NC(C(=O)NC(C(=O)NC(C(=O)NC(C(=O)NC(C(=O)NC(C(=O)NC(C(=O)NC(C(=O)NC(C(=O)N9C(C(=O)NCC(=O)NC(C(=O)NC(C(=O)NC(C(=O)NC(C(=O)NC(C(=O)NC(C(=O)NC(C(=O)NC(C(=O)NC(C(=O)NC(C(=O)NC(C(=O)NCC(=O)NC(C(=O)NC(C(=O)NC(C(=O)NC(C(=O)NCC(=O)NC(C(=O)NC(C(=O)NC(C(=O)NCC(=O)NC(C(=O)NCC(=O)NC(C(=O)NC(C(=O)NC(C(=O)NC(C(=O)NC(C(=O)NC(C(=O)N%10C(C(=O)NC(C(=O)NC(C(=O)NC(C(=O)N%11C(C(=O)NC(C(=O)NC(C(=O)NC(C(=O)NC(C(=O)NC(C(=O)NC(C(=O)NC(C(=O)NCC(=O)NC(C(=O)NC(C(=O)NC(C(=O)NCC(=O)NC(C(=O)NC(C(=O)NC(C(=O)NC(C(=O)N%12C(C(=O)NC(C(=O)NCC(=O)NC(C(=O)NC(C(=O)NC(C(=O)NC(C(=O)NC)CC(=O)N)Cc%13ccc(O)cc%13)CO)CCCNC(=[NH2+])N)CC(=O)[O-])CCC%12)Cc%12ccc(O)cc%12)CC(C)C)Cc%12ccc(O)cc%12)Cc%12ccccc%12)CCC(=O)[O-])C)CO)CC(=O)[O-])C(CC)C)CC(C)C)C)CCC(=O)N)Cc%12ccccc%12)CC(C)C)CCC%11)CCCC[NH3+])CC(=O)N)Cc%11[nH]cnc%11)CCC%10)C(CC)C)C(O)C)CCC(=O)N)CC(C)C)C(CC)C)CC(=O)N)CC(=O)[O-])C(O)C)C(C)C)Cc%10ccc(O)cc%10)C(CC)C)C)Cc%10c%11c([nH]c%10)cccc%11)CCC(=O)N)CC(C)C)CCCNC(=[NH2+])N)C(O)C)CS)CO)CC(C)C)CCCNC(=[NH2+])N)Cc%10ccccc%10)C(CC)C)Cc%10ccc(O)cc%10)CO)CCC9)CCCC[NH3+])C(O)C)CO)Cc9ccc(O)cc9)CCCC[NH3+])CCC(=O)N)CC(C)C)CCCNC(=[NH2+])N)C)CCCC[NH3+])C(C)C)CCC(=O)[O-])CC(=O)[O-])Cc9ccc(O)cc9)C(O)C)CC(C)C)Cc9ccccc9)C)CCSC)Cc9ccc(O)cc9)CCC8)Cc8nc[nH]c8)C(O)C)C(C)C)C)CC(C)C)Cc8ccccc8)CC(=O)N)Cc8c9c([nH]c8)cccc9)CC(=O)N)CCCNC(=[NH2+])N)CC(C)C)C(CC)C)CO)Cc8c9c([nH]c8)cccc9)CCC7)CCC(=O)N)Cc7ccccc7)CC(C)C)CCCNC(=[NH2+])N)C(O)C)Cc7ccccc7)C(CC)C)CC(=O)[O-])Cc7ccccc7)CCC(=O)[O-])Cc7ccccc7)C(C)C)CO)C(CC)C)Cc7ccc(O)cc7)CC(=O)[O-])CC(=O)N)CS)C(O)C)CC(C)C)CC(=O)[O-])C(CC)C)C(O)C)CO)CCCC[NH3+])CC(C)C)C)CCSC)C)CCC(=O)[O-])CC(C)C)CO)CO)C(CC)C)CCC(=O)N)Cc7nc[nH]c7)C(C)C)CCC(=O)[O-])Cc7nc[nH]c7)CC(C)C)CS)CCC(=O)N)CCCNC(=[NH2+])N)Cc7ccccc7)C(C)C)CCCC[NH3+])Cc7c8c([nH]c7)cccc8)CCC6)C(C)C)C(CC)C)C(O)C)CCCC[NH3+])CC(=O)[O-])Cc6ccccc6)Cc6ccccc6)CCCC[NH3+])CCCNC(=[NH2+])N)Cc6c7c([nH]c6)cccc7)Cc6ccccc6)CCC(=O)[O-])C)C)CC(=O)[O-])C)CCCC[NH3+])C(O)C)C(CC)C)CCCNC(=[NH2+])N)Cc6ccccc6)CC(=O)N)CC(=O)[O-])CCC(=O)N)Cc6ccccc6)CCC(=O)N)CC(=O)N)CCC5)Cc5ccccc5)C(CC)C)C)CCCC[NH3+])C(CC)C)CCC(=O)[O-])C)CC(C)C)CCSC)Cc5nc[nH]c5)CO)Cc5ccccc5)C(CC)C)CC(C)C)CO)CC(C)C)CCCC[NH3+])C(O)C)CC(C)C)CC(=O)N)CCCNC(=[NH2+])N)CCCNC(=[NH2+])N)CC(=O)[O-])CCC(=O)N)CO)CCC(=O)N)CCC(=O)[O-])CCC(=O)[O-])Cc5ccc(O)cc5)CCSC)CCCNC(=[NH2+])N)CCC(=O)[O-])CCCC[NH3+])CCC(=O)[O-])CCCC[NH3+])Cc5ccccc5)CC(C)C)CCCNC(=[NH2+])N)C(CC)C)C)CCCNC(=[NH2+])N)CCCC[NH3+])CO)CCCC[NH3+])CCCC[NH3+])CCSC)CC(C)C)CO)CC(=O)[O-])C(CC)C)Cc5ccc(O)cc5)C(CC)C)CCCC[NH3+])Cc5ccccc5)Cc5ccc(O)cc5)CCC(=O)[O-])CC(=O)N)CCC(=O)[O-])CO)CC(C)C)CCC(=O)N)C)CC(C)C)CCCC[NH3+])CCC(=O)N)CC(=O)N)CC(=O)[O-])CC(=O)[O-])Cc5ccc(O)cc5)CCCC[NH3+])CO)CC(C)C)C(CC)C)CC(C)C)CCCNC(=[NH2+])N)CC(C)C)Cc5nc[nH]c5)CCC(=O)N)Cc5ccc(O)cc5)C(O)C)CC(=O)[O-])CCC4)CC(C)C)C(CC)C)CC(=O)[O-])CC(C)C)C(CC)C)Cc4ccc(O)cc4)CCC3)CCC2)CO)CC(=O)N)CCCC[NH3+])CC(C)C)CCC(=O)N)CC(C)C)CCCC[NH3+])CCC1)CC(=O)N)CCC(=O)N)CS)CC(C)C)CCCNC(=[NH2+])N)C(C)C)C(C)C)C)CC(=O)[O-])C.OCCO.[UH+3].[Zn+2].[Zn+2].O.O.O.O.O.O.O.O.O.O.O.O.O.O.O.O.O.O.O.O.O.O.O.O.O.O.O.O.O.O.O.O.O.O.O.O.O.O.O.O.O.O.O.O.O.O.O.O.O.O.O.O.O.O.O.O.O.O.O.O.O.O.O.O.O.O.O.O.O.O.O.O.O.O.O.O.O.O.O.O.O.O.O.O.O.O.O.O.O.O.O.O.O.O.O.O.O.O.O.O.O.O.O.O.O.O.O.O.O.O.O.O.O.O.O.O.O.O.O.O.O.O.O.O.O.O.O.O.O.O.O.O.O.O.O.O.O.O.O.O.O.O

>  <rseq>
1

>  <mseq>
67

>  <S>
-10.030857

>  <rmsd_refine>
1.2943491

>  <E_conf>
21.692966

>  <E_place>
-111.26897

>  <E_score1>
-12.520853

>  <E_refine>
-57.758644

>  <E_score2>
-10.030857

>  <Field_2>
WY07

>  <pseq>
67

>  <%C>
99.971931

>  <a_heavy>
35

>  <h_logP>
3.1766329

>  <Weight>
494.983

>  <E_orig>
0.80000001

>  <PLIF_raw>
[[10,11,32,9,9,9,9,9,9,10,10,10,10,10,10,11,11,11,11,11,11,12,12,12,12,12,12,14,14,14,14,14,14],[3722,6288,3751,5143,5141,5137,5134,5135,5139,5143,5141,5137,5134,5135,5139,5143,5141,5137,5134,5135,5139,5143,5141,5137,5134,5135,5139,5143,5141,5137,5134,5135,5139],[260,220669,263,363,363,363,363,363,363,363,363,363,363,363,363,363,363,363,363,363,363,363,363,363,363,363,363,363,363,363,363,363,363],[2,6,4,10,10,10,10,10,10,10,10,10,10,10,10,10,10,10,10,10,10,10,10,10,10,10,10,10,10,10,10,10,10],[1.2,2.2,3.9,1e-005,1e-005,1e-005,1e-005,1e-005,1e-005,1e-005,1e-005,1e-005,1e-005,1e-005,1e-005,1e-005,1e-005,1e-005,1e-005,1e-005,1e-005,1e-005,1e-005,1e-005,1e-005,1e-005,1e-005,1e-005,1e-005,1e-005,1e-005,1e-005,1e-005]]

>  <FP:PLIF>
26 15 16 28 39

>  <PLIF_ligidx>
[10,32,32,11,11]

$$$$

  MOE2020           3D

 51 54  0  0  1  0  0  0  0  0999 V2000
    8.0220    5.0730   15.2510 C   0  0  0  0  0  0  0  0  0  0  0  0
    8.6620    5.3990   14.4450 H   0  0  0  0  0  0  0  0  0  0  0  0
    7.8990    5.9190   15.9020 H   0  0  0  0  0  0  0  0  0  0  0  0
    8.5390    4.3200   15.8260 H   0  0  0  0  0  0  0  0  0  0  0  0
    6.7770    4.5860   14.7240 N   0  0  0  0  0  0  0  0  0  0  0  0
    6.5030    4.3890   13.4340 C   0  0  0  0  0  0  0  0  0  0  0  0
    7.2210    4.5660   12.6740 H   0  0  0  0  0  0  0  0  0  0  0  0
    5.2900    3.9860   13.3070 N   0  0  0  0  0  0  0  0  0  0  0  0
    4.7480    3.9050   14.5700 N   0  0  0  0  0  0  0  0  0  0  0  0
    5.6760    4.2630   15.4030 C   0  0  0  0  0  0  0  0  0  0  0  0
    5.5830    4.3670   17.1370 S   0  0  0  0  0  0  0  0  0  0  0  0
    4.9280    6.0670   17.2920 C   0  0  2  0  0  0  0  0  0  0  0  0
    6.0480    7.1080   17.4400 C   0  0  0  0  0  0  0  0  0  0  0  0
    6.4600    7.3250   16.4670 H   0  0  0  0  0  0  0  0  0  0  0  0
    5.6160    8.0430   17.7500 H   0  0  0  0  0  0  0  0  0  0  0  0
    7.1440    6.7400   18.4150 C   0  0  0  0  0  0  0  0  0  0  0  0
    6.8660    6.1150   19.2260 H   0  0  0  0  0  0  0  0  0  0  0  0
    8.3970    7.1950   18.2920 C   0  0  0  0  0  0  0  0  0  0  0  0
    9.1560    6.9400   18.9850 H   0  0  0  0  0  0  0  0  0  0  0  0
    8.6940    7.8330   17.5010 H   0  0  0  0  0  0  0  0  0  0  0  0
    3.8800    6.2340   18.3740 C   0  0  0  0  0  0  0  0  0  0  0  0
    3.0270    7.3320   18.2870 C   0  0  0  0  0  0  0  0  0  0  0  0
    3.0990    7.9940   17.4660 H   0  0  0  0  0  0  0  0  0  0  0  0
    2.0690    7.5470   19.2780 C   0  0  0  0  0  0  0  0  0  0  0  0
    1.9300    6.6530   20.3340 C   0  0  0  0  0  0  0  0  0  0  0  0
    1.1840    6.8120   21.0640 H   0  0  0  0  0  0  0  0  0  0  0  0
    2.7720    5.5530   20.4130 C   0  0  0  0  0  0  0  0  0  0  0  0
    2.6720    4.8730   21.2180 H   0  0  0  0  0  0  0  0  0  0  0  0
    3.7540    5.3490   19.4490 C   0  0  0  0  0  0  0  0  0  0  0  0
    4.3990    4.5140   19.5450 H   0  0  0  0  0  0  0  0  0  0  0  0
    1.1560    8.6220   19.2300 N   0  0  0  0  0  0  0  0  0  0  0  0
    0.2360    8.4470   19.6640 H   0  0  0  0  0  0  0  0  0  0  0  0
    1.2810    9.8310   18.5770 C   0  0  0  0  0  0  0  0  0  0  0  0
    2.3810   10.2360   18.2130 O   0  0  0  0  0  0  0  0  0  0  0  0
    0.0340   10.5490   18.3810 C   0  0  0  0  0  0  0  0  0  0  0  0
   -0.8240   10.0480   17.5170 N   0  0  0  0  0  0  0  0  0  0  0  0
   -2.0250   10.6570   17.2970 C   0  0  0  0  0  0  0  0  0  0  0  0
   -2.8740   10.1720   16.2780 C   0  0  0  0  0  0  0  0  0  0  0  0
   -2.5480    9.3740   15.6640 H   0  0  0  0  0  0  0  0  0  0  0  0
   -4.1090   10.7380   16.0760 C   0  0  0  0  0  0  0  0  0  0  0  0
   -4.7350   10.3840   15.3010 H   0  0  0  0  0  0  0  0  0  0  0  0
   -4.5500   11.7930   16.8990 C   0  0  0  0  0  0  0  0  0  0  0  0
   -5.5140   12.2050   16.7440 H   0  0  0  0  0  0  0  0  0  0  0  0
   -3.7290   12.2980   17.8800 C   0  0  0  0  0  0  0  0  0  0  0  0
   -4.0570   13.1030   18.4860 H   0  0  0  0  0  0  0  0  0  0  0  0
   -2.4280   11.7700   18.0710 C   0  0  0  0  0  0  0  0  0  0  0  0
   -1.5090   12.3190   18.9900 C   0  0  0  0  0  0  0  0  0  0  0  0
   -1.7670   13.1790   19.5530 H   0  0  0  0  0  0  0  0  0  0  0  0
   -0.2790   11.7200   19.1340 C   0  0  0  0  0  0  0  0  0  0  0  0
    0.8700   12.3690   20.2670 Cl  0  0  0  0  0  0  0  0  0  0  0  0
    4.4250    6.2850   16.3590 H   0  0  0  0  0  0  0  0  0  0  0  0
  1  2  1  0  0  0  0
  1  3  1  0  0  0  0
  1  4  1  0  0  0  0
  1  5  1  0  0  0  0
  5  6  1  0  0  0  0
  5 10  1  0  0  0  0
  6  7  1  0  0  0  0
  6  8  2  0  0  0  0
  8  9  1  0  0  0  0
  9 10  2  0  0  0  0
 10 11  1  0  0  0  0
 11 12  1  0  0  0  0
 12 13  1  0  0  0  0
 12 21  1  0  0  0  0
 12 51  1  0  0  0  0
 13 14  1  0  0  0  0
 13 15  1  0  0  0  0
 13 16  1  0  0  0  0
 16 17  1  0  0  0  0
 16 18  2  0  0  0  0
 18 19  1  0  0  0  0
 18 20  1  0  0  0  0
 21 22  2  0  0  0  0
 21 29  1  0  0  0  0
 22 23  1  0  0  0  0
 22 24  1  0  0  0  0
 24 25  2  0  0  0  0
 24 31  1  0  0  0  0
 25 26  1  0  0  0  0
 25 27  1  0  0  0  0
 27 28  1  0  0  0  0
 27 29  2  0  0  0  0
 29 30  1  0  0  0  0
 31 32  1  0  0  0  0
 31 33  1  0  0  0  0
 33 34  2  0  0  0  0
 33 35  1  0  0  0  0
 35 36  2  0  0  0  0
 35 49  1  0  0  0  0
 36 37  1  0  0  0  0
 37 38  2  0  0  0  0
 37 46  1  0  0  0  0
 38 39  1  0  0  0  0
 38 40  1  0  0  0  0
 40 41  1  0  0  0  0
 40 42  2  0  0  0  0
 42 43  1  0  0  0  0
 42 44  1  0  0  0  0
 44 45  1  0  0  0  0
 44 46  2  0  0  0  0
 46 47  1  0  0  0  0
 47 48  1  0  0  0  0
 47 49  2  0  0  0  0
 49 50  1  0  0  0  0
M  END
>  <receptor>
S(=O)(=O)([O-])[O-].S(CCC(NC(=O)C(NC(=O)C(NC(=O)CNC(=O)C(NC(=O)C1N(C(=O)C(NC(=O)C(NC(=O)C(NC(=O)C(NC(=O)C(NC(=O)C(NC(=O)C(NC(=O)C(NC(=O)C(NC(=O)C(NC(=O)C(NC(=O)C(NC(=O)C(NC(=O)C(NC(=O)C(NC(=O)C(NC(=O)C(NC(=O)C(NC(=O)C(NC(=O)CNC(=O)C(NC(=O)C(NC(=O)C(NC(=O)C(NC(=O)C(NC(=O)C(NC(=O)C(NC(=O)C(NC(=O)C(NC(=O)C(NC(=O)C(NC(=O)C(NC(=O)C(NC(=O)C)CCCC[NH3+])C(C)C)C(O)C)CCC(=O)N)CCC(=O)[O-])CCC(=O)N)Cc2ccccc2)CCC(=O)[O-])CC(C)C)Cc2ccc(O)cc2)CS)CCC(=O)[O-])CCSC)CO)C(O)C)Cc2ccccc2)CCC(=O)N)CC(C)C)C[S-])CCCC[NH3+])C(CC)C)C[S-])C)CCC(=O)[O-])CC(=O)N)CC(=O)[O-])CCCC[NH3+])CC(=O)[O-])C(C)C)CCCC[NH3+])C(CC)C)CCC(=O)[O-])CCC1)C[S-])Cc1nc[n-]c1)CC(C)C)C(=O)NC(C(=O)NC(C(=O)NC(C(=O)NC(C(=O)NC(C(=O)NC(C(=O)NC(C(=O)NC(C(=O)NC(C(=O)NC(C(=O)NC(C(=O)NC(C(=O)NCC(=O)NC(C(=O)NCC(=O)NC(C(=O)N1C(C(=O)NC(C(=O)NC(C(=O)NC(C(=O)NC(C(=O)NC(C(=O)NC(C(=O)NC(C(=O)NCC(=O)NC(C(=O)NC(C(=O)N2C(C(=O)NC(C(=O)NC(C(=O)NC(C(=O)NC(C(=O)N3C(C(=O)NC(C(=O)NC(C(=O)[O-])CC(=O)[O-])Cc4ccccc4)CCC3)CC(=O)[O-])C(C)C)C(CC)C)C(CC)C)CCC2)CCC(=O)[O-])C(O)C)CCCC[NH3+])C(CC)C)CCC(=O)[O-])CS)CCCNC(=[NH2+])N)C[S-])Cc2ccccc2)CCC1)C[S-])CCC(=O)N)CC(=O)[O-])CO)CCC(=O)[O-])CCC(=O)N)Cc1c2c([nH]c1)cccc2)C)C(O)C)CC(C)C)C[S-])CO)C(O)C)C[S-])C.S(CCC(NC(=O)C(NC(=O)C(NC(=O)C(NC(=O)C(NC(=O)C(NC(=O)C(NC(=O)C(NC(=O)C(NC(=O)C(NC(=O)C(NC(=O)C(NC(=O)C(NC(=O)C(NC(=O)C(NC(=O)C(NC(=O)C[NH3+])CCC(=O)N)C)C)C)CC(=O)[O-])CCCNC(=[NH2+])N)CCCNC(=[NH2+])N)C(O)C)C(C)C)CCC(=O)[O-])CCCC[NH3+])C(O)C)Cc1c2c([nH]c1)cccc2)C)CC(C)C)C(=O)NC(C(=O)NC(C(=O)NC(C(=O)NC(C(=O)NC(C(=O)NC(C(=O)NC(C(=O)NC(C(=O)NC(C(=O)N1C(C(=O)NC(C(=O)NC(C(=O)NC(C(=O)NC(C(=O)NC(C(=O)NC(C(=O)NC(C(=O)N2C(C(=O)N3C(C(=O)NC(C(=O)NC(C(=O)NC(C(=O)NC(C(=O)NC(C(=O)NC(C(=O)N4C(C(=O)NC(C(=O)NC(C(=O)NC(C(=O)NC(C(=O)NC(C(=O)NC(C(=O)NC(C(=O)NC(C(=O)NC(C(=O)NC(C(=O)NC(C(=O)NC(C(=O)NC(C(=O)NC(C(=O)NC(C(=O)NC(C(=O)NC(C(=O)NC(C(=O)NC(C(=O)NC(C(=O)NC(C(=O)NC(C(=O)NC(C(=O)NC(C(=O)NC(C(=O)NC(C(=O)NC(C(=O)NC(C(=O)NC(C(=O)NC(C(=O)NC(C(=O)NC(C(=O)NC(C(=O)NC(C(=O)NC(C(=O)NC(C(=O)NC(C(=O)NC(C(=O)NC(C(=O)NC(C(=O)NC(C(=O)NC(C(=O)NC(C(=O)NC(C(=O)NC(C(=O)NC(C(=O)NC(C(=O)NC(C(=O)NCC(=O)NC(C(=O)NC(C(=O)NC(C(=O)NC(C(=O)NC(C(=O)NC(C(=O)NC(C(=O)NC(C(=O)NC(C(=O)NC(C(=O)NC(C(=O)NC(C(=O)NC(C(=O)NC(C(=O)NC(C(=O)NC(C(=O)NC(C(=O)NC(C(=O)NC(C(=O)NC(C(=O)NC(C(=O)NC(C(=O)NC(C(=O)NC(C(=O)NC(C(=O)NC(C(=O)NC(C(=O)NC(C(=O)NC(C(=O)NC(C(=O)NC(C(=O)NC(C(=O)NC(C(=O)N5C(C(=O)NC(C(=O)NCC(=O)NC(C(=O)NC(C(=O)NC(C(=O)NCC(=O)NC(C(=O)NC(C(=O)NC(C(=O)NC(C(=O)NC(C(=O)NC(C(=O)NC(C(=O)NC(C(=O)NC(C(=O)NC(C(=O)NC(C(=O)NC(C(=O)NC(C(=O)NC(C(=O)NC(C(=O)NC(C(=O)NC(C(=O)NC(C(=O)NCC(=O)NC(C(=O)NC(C(=O)NC(C(=O)NC(C(=O)NC(C(=O)N6C(C(=O)NC(C(=O)NC(C(=O)NC(C(=O)NC(C(=O)NC(C(=O)NC(C(=O)NC(C(=O)NC(C(=O)NC(C(=O)NC(C(=O)NC(C(=O)NC(C(=O)NC(C(=O)NC(C(=O)NC(C(=O)NC(C(=O)NCC(=O)NC(C(=O)NC(C(=O)NC(C(=O)NC(C(=O)NC(C(=O)NC(C(=O)NC(C(=O)NC(C(=O)NC(C(=O)NC(C(=O)NC(C(=O)NC(C(=O)NC(C(=O)NC(C(=O)NC(C(=O)NC(C(=O)NC(C(=O)NC(C(=O)NC(C(=O)NC(C(=O)NC(C(=O)NC(C(=O)NC(C(=O)NC(C(=O)NC(C(=O)NC(C(=O)NC(C(=O)NC(C(=O)NC(C(=O)NC(C(=O)NC(C(=O)N7C(C(=O)NC(C(=O)NCC(=O)NC(C(=O)NC(C(=O)NC(C(=O)NC(C(=O)NC(C(=O)NC(C(=O)NC(C(=O)NC(C(=O)NC(C(=O)NC(C(=O)NC(C(=O)NC(C(=O)NC(C(=O)N8C(C(=O)NCC(=O)NC(C(=O)NC(C(=O)NC(C(=O)NC(C(=O)NC(C(=O)NC(C(=O)NC(C(=O)NC(C(=O)NC(C(=O)NC(C(=O)NC(C(=O)NC(C(=O)NC(C(=O)NC(C(=O)NC(C(=O)NC(C(=O)NC(C(=O)NC(C(=O)NC(C(=O)NC(C(=O)N9C(C(=O)NCC(=O)NC(C(=O)NC(C(=O)NC(C(=O)NC(C(=O)NC(C(=O)NC(C(=O)NC(C(=O)NC(C(=O)NC(C(=O)NC(C(=O)NC(C(=O)NCC(=O)NC(C(=O)NC(C(=O)NC(C(=O)NC(C(=O)NCC(=O)NC(C(=O)NC(C(=O)NC(C(=O)NCC(=O)NC(C(=O)NCC(=O)NC(C(=O)NC(C(=O)NC(C(=O)NC(C(=O)NC(C(=O)NC(C(=O)N%10C(C(=O)NC(C(=O)NC(C(=O)NC(C(=O)N%11C(C(=O)NC(C(=O)NC(C(=O)NC(C(=O)NC(C(=O)NC(C(=O)NC(C(=O)NC(C(=O)NCC(=O)NC(C(=O)NC(C(=O)NC(C(=O)NCC(=O)NC(C(=O)NC(C(=O)NC(C(=O)NC(C(=O)N%12C(C(=O)NC(C(=O)NCC(=O)NC(C(=O)NC(C(=O)NC(C(=O)NC(C(=O)NC)CC(=O)N)Cc%13ccc(O)cc%13)CO)CCCNC(=[NH2+])N)CC(=O)[O-])CCC%12)Cc%12ccc(O)cc%12)CC(C)C)Cc%12ccc(O)cc%12)Cc%12ccccc%12)CCC(=O)[O-])C)CO)CC(=O)[O-])C(CC)C)CC(C)C)C)CCC(=O)N)Cc%12ccccc%12)CC(C)C)CCC%11)CCCC[NH3+])CC(=O)N)Cc%11[nH]cnc%11)CCC%10)C(CC)C)C(O)C)CCC(=O)N)CC(C)C)C(CC)C)CC(=O)N)CC(=O)[O-])C(O)C)C(C)C)Cc%10ccc(O)cc%10)C(CC)C)C)Cc%10c%11c([nH]c%10)cccc%11)CCC(=O)N)CC(C)C)CCCNC(=[NH2+])N)C(O)C)CS)CO)CC(C)C)CCCNC(=[NH2+])N)Cc%10ccccc%10)C(CC)C)Cc%10ccc(O)cc%10)CO)CCC9)CCCC[NH3+])C(O)C)CO)Cc9ccc(O)cc9)CCCC[NH3+])CCC(=O)N)CC(C)C)CCCNC(=[NH2+])N)C)CCCC[NH3+])C(C)C)CCC(=O)[O-])CC(=O)[O-])Cc9ccc(O)cc9)C(O)C)CC(C)C)Cc9ccccc9)C)CCSC)Cc9ccc(O)cc9)CCC8)Cc8nc[nH]c8)C(O)C)C(C)C)C)CC(C)C)Cc8ccccc8)CC(=O)N)Cc8c9c([nH]c8)cccc9)CC(=O)N)CCCNC(=[NH2+])N)CC(C)C)C(CC)C)CO)Cc8c9c([nH]c8)cccc9)CCC7)CCC(=O)N)Cc7ccccc7)CC(C)C)CCCNC(=[NH2+])N)C(O)C)Cc7ccccc7)C(CC)C)CC(=O)[O-])Cc7ccccc7)CCC(=O)[O-])Cc7ccccc7)C(C)C)CO)C(CC)C)Cc7ccc(O)cc7)CC(=O)[O-])CC(=O)N)CS)C(O)C)CC(C)C)CC(=O)[O-])C(CC)C)C(O)C)CO)CCCC[NH3+])CC(C)C)C)CCSC)C)CCC(=O)[O-])CC(C)C)CO)CO)C(CC)C)CCC(=O)N)Cc7nc[nH]c7)C(C)C)CCC(=O)[O-])Cc7nc[nH]c7)CC(C)C)CS)CCC(=O)N)CCCNC(=[NH2+])N)Cc7ccccc7)C(C)C)CCCC[NH3+])Cc7c8c([nH]c7)cccc8)CCC6)C(C)C)C(CC)C)C(O)C)CCCC[NH3+])CC(=O)[O-])Cc6ccccc6)Cc6ccccc6)CCCC[NH3+])CCCNC(=[NH2+])N)Cc6c7c([nH]c6)cccc7)Cc6ccccc6)CCC(=O)[O-])C)C)CC(=O)[O-])C)CCCC[NH3+])C(O)C)C(CC)C)CCCNC(=[NH2+])N)Cc6ccccc6)CC(=O)N)CC(=O)[O-])CCC(=O)N)Cc6ccccc6)CCC(=O)N)CC(=O)N)CCC5)Cc5ccccc5)C(CC)C)C)CCCC[NH3+])C(CC)C)CCC(=O)[O-])C)CC(C)C)CCSC)Cc5nc[nH]c5)CO)Cc5ccccc5)C(CC)C)CC(C)C)CO)CC(C)C)CCCC[NH3+])C(O)C)CC(C)C)CC(=O)N)CCCNC(=[NH2+])N)CCCNC(=[NH2+])N)CC(=O)[O-])CCC(=O)N)CO)CCC(=O)N)CCC(=O)[O-])CCC(=O)[O-])Cc5ccc(O)cc5)CCSC)CCCNC(=[NH2+])N)CCC(=O)[O-])CCCC[NH3+])CCC(=O)[O-])CCCC[NH3+])Cc5ccccc5)CC(C)C)CCCNC(=[NH2+])N)C(CC)C)C)CCCNC(=[NH2+])N)CCCC[NH3+])CO)CCCC[NH3+])CCCC[NH3+])CCSC)CC(C)C)CO)CC(=O)[O-])C(CC)C)Cc5ccc(O)cc5)C(CC)C)CCCC[NH3+])Cc5ccccc5)Cc5ccc(O)cc5)CCC(=O)[O-])CC(=O)N)CCC(=O)[O-])CO)CC(C)C)CCC(=O)N)C)CC(C)C)CCCC[NH3+])CCC(=O)N)CC(=O)N)CC(=O)[O-])CC(=O)[O-])Cc5ccc(O)cc5)CCCC[NH3+])CO)CC(C)C)C(CC)C)CC(C)C)CCCNC(=[NH2+])N)CC(C)C)Cc5nc[nH]c5)CCC(=O)N)Cc5ccc(O)cc5)C(O)C)CC(=O)[O-])CCC4)CC(C)C)C(CC)C)CC(=O)[O-])CC(C)C)C(CC)C)Cc4ccc(O)cc4)CCC3)CCC2)CO)CC(=O)N)CCCC[NH3+])CC(C)C)CCC(=O)N)CC(C)C)CCCC[NH3+])CCC1)CC(=O)N)CCC(=O)N)CS)CC(C)C)CCCNC(=[NH2+])N)C(C)C)C(C)C)C)CC(=O)[O-])C.OCCO.[UH+3].[Zn+2].[Zn+2].O.O.O.O.O.O.O.O.O.O.O.O.O.O.O.O.O.O.O.O.O.O.O.O.O.O.O.O.O.O.O.O.O.O.O.O.O.O.O.O.O.O.O.O.O.O.O.O.O.O.O.O.O.O.O.O.O.O.O.O.O.O.O.O.O.O.O.O.O.O.O.O.O.O.O.O.O.O.O.O.O.O.O.O.O.O.O.O.O.O.O.O.O.O.O.O.O.O.O.O.O.O.O.O.O.O.O.O.O.O.O.O.O.O.O.O.O.O.O.O.O.O.O.O.O.O.O.O.O.O.O.O.O.O.O.O.O.O.O.O.O.O

>  <rseq>
1

>  <mseq>
68

>  <S>
-8.2142134

>  <rmsd_refine>
1.6705768

>  <E_conf>
56.178997

>  <E_place>
-56.69352

>  <E_score1>
-10.799267

>  <E_refine>
-35.442337

>  <E_score2>
-8.2142134

>  <Field_2>
WY08

>  <pseq>
68

>  <%C>
99.861671

>  <a_heavy>
31

>  <h_logP>
5.1333776

>  <Weight>
449.966

>  <E_orig>
4.3993988

>  <PLIF_raw>
[[11,8,5,10,9,8,6],[3028,6504,3036,3036,3036,3036,3036],[218,220741,219,219,219,219,219],[3,6,10,10,10,10,10],[0.7,0.7,2,2,2,2,2]]

>  <FP:PLIF>
2 21 25 47

>  <PLIF_ligidx>
[11,[5,10,9,8,6],[5,10,9,8,6],8]

$$$$

  MOE2020           3D

 45 48  0  0  1  0  0  0  0  0999 V2000
    7.3560    6.7950   18.0200 C   0  0  0  0  0  0  0  0  0  0  0  0
    8.2180    6.8030   17.3550 H   0  0  0  0  0  0  0  0  0  0  0  0
    7.6710    6.4360   19.0000 H   0  0  0  0  0  0  0  0  0  0  0  0
    6.9700    7.8100   18.1110 H   0  0  0  0  0  0  0  0  0  0  0  0
    6.2790    5.8620   17.4530 C   0  0  2  0  0  0  0  0  0  0  0  0
    5.8350    6.2930   16.0360 C   0  0  0  0  0  0  0  0  0  0  0  0
    4.7470    6.3570   15.9830 H   0  0  0  0  0  0  0  0  0  0  0  0
    6.2040    7.2910   15.8190 H   0  0  0  0  0  0  0  0  0  0  0  0
    6.2510    5.3400   14.9380 C   0  0  0  0  0  0  0  0  0  0  0  0
    7.0530    5.5570   13.9480 N   0  0  0  0  0  0  0  0  0  0  0  0
    7.0920    4.4220   13.1820 N   0  0  0  0  0  0  0  0  0  0  0  0
    6.3210    3.5670   13.7580 C   0  0  0  0  0  0  0  0  0  0  0  0
    6.1130    2.5800   13.4580 H   0  0  0  0  0  0  0  0  0  0  0  0
    5.7820    4.0980   14.8490 N   0  0  0  0  0  0  0  0  0  0  0  0
    4.8620    3.4300   15.7580 C   0  0  0  0  0  0  0  0  0  0  0  0
    5.3290    2.6030   16.2710 H   0  0  0  0  0  0  0  0  0  0  0  0
    3.9980    3.0570   15.2420 H   0  0  0  0  0  0  0  0  0  0  0  0
    4.4540    4.0870   16.5040 H   0  0  0  0  0  0  0  0  0  0  0  0
    5.0670    5.7640   18.3660 C   0  0  0  0  0  0  0  0  0  0  0  0
    4.2170    6.8560   18.5010 C   0  0  0  0  0  0  0  0  0  0  0  0
    4.4540    7.7660   18.0190 H   0  0  0  0  0  0  0  0  0  0  0  0
    3.0630    6.7580   19.2810 C   0  0  0  0  0  0  0  0  0  0  0  0
    2.7550    5.5660   19.9370 C   0  0  0  0  0  0  0  0  0  0  0  0
    1.8860    5.4910   20.5350 H   0  0  0  0  0  0  0  0  0  0  0  0
    3.6050    4.4750   19.7960 C   0  0  0  0  0  0  0  0  0  0  0  0
    3.3770    3.5620   20.2790 H   0  0  0  0  0  0  0  0  0  0  0  0
    4.7610    4.5740   19.0280 C   0  0  0  0  0  0  0  0  0  0  0  0
    5.4000    3.7330   18.9370 H   0  0  0  0  0  0  0  0  0  0  0  0
    2.2150    7.8870   19.4370 N   0  0  0  0  0  0  0  0  0  0  0  0
    1.5630    8.2460   20.7090 C   0  0  0  0  0  0  0  0  0  0  0  0
    0.8010    7.5270   20.9770 H   0  0  0  0  0  0  0  0  0  0  0  0
    2.2830    8.2980   21.5140 H   0  0  0  0  0  0  0  0  0  0  0  0
    0.9570    9.5980   20.4420 C   0  0  0  0  0  0  0  0  0  0  0  0
    1.2320    9.9460   19.1370 C   0  0  0  0  0  0  0  0  0  0  0  0
    1.9770    8.8870   18.4970 C   0  0  0  0  0  0  0  0  0  0  0  0
    2.3330    8.8230   17.3270 O   0  0  0  0  0  0  0  0  0  0  0  0
    0.8130   11.1710   18.6210 C   0  0  0  0  0  0  0  0  0  0  0  0
    1.0490   11.4450   17.6270 H   0  0  0  0  0  0  0  0  0  0  0  0
    0.0830   12.0300   19.4370 C   0  0  0  0  0  0  0  0  0  0  0  0
   -0.2530   12.9600   19.0540 H   0  0  0  0  0  0  0  0  0  0  0  0
   -0.2070   11.6730   20.7550 C   0  0  0  0  0  0  0  0  0  0  0  0
   -0.7660   12.3350   21.3660 H   0  0  0  0  0  0  0  0  0  0  0  0
    0.2360   10.4500   21.2780 C   0  0  0  0  0  0  0  0  0  0  0  0
   -0.1670    9.9190   23.2700 I   0  0  0  0  0  0  0  0  0  0  0  0
    6.7210    4.8650   17.3980 H   0  0  0  0  0  0  0  0  0  0  0  0
  1  2  1  0  0  0  0
  1  3  1  0  0  0  0
  1  4  1  0  0  0  0
  1  5  1  0  0  0  0
  5  6  1  0  0  0  0
  5 19  1  0  0  0  0
  5 45  1  0  0  0  0
  6  7  1  0  0  0  0
  6  8  1  0  0  0  0
  6  9  1  0  0  0  0
  9 10  2  0  0  0  0
  9 14  1  0  0  0  0
 10 11  1  0  0  0  0
 11 12  2  0  0  0  0
 12 13  1  0  0  0  0
 12 14  1  0  0  0  0
 14 15  1  0  0  0  0
 15 16  1  0  0  0  0
 15 17  1  0  0  0  0
 15 18  1  0  0  0  0
 19 20  2  0  0  0  0
 19 27  1  0  0  0  0
 20 21  1  0  0  0  0
 20 22  1  0  0  0  0
 22 23  2  0  0  0  0
 22 29  1  0  0  0  0
 23 24  1  0  0  0  0
 23 25  1  0  0  0  0
 25 26  1  0  0  0  0
 25 27  2  0  0  0  0
 27 28  1  0  0  0  0
 29 30  1  0  0  0  0
 29 35  1  0  0  0  0
 30 31  1  0  0  0  0
 30 32  1  0  0  0  0
 30 33  1  0  0  0  0
 33 34  1  0  0  0  0
 33 43  2  0  0  0  0
 34 35  1  0  0  0  0
 34 37  2  0  0  0  0
 35 36  2  0  0  0  0
 37 38  1  0  0  0  0
 37 39  1  0  0  0  0
 39 40  1  0  0  0  0
 39 41  2  0  0  0  0
 41 42  1  0  0  0  0
 41 43  1  0  0  0  0
 43 44  1  0  0  0  0
M  END
>  <receptor>
S(=O)(=O)([O-])[O-].S(CCC(NC(=O)C(NC(=O)C(NC(=O)CNC(=O)C(NC(=O)C1N(C(=O)C(NC(=O)C(NC(=O)C(NC(=O)C(NC(=O)C(NC(=O)C(NC(=O)C(NC(=O)C(NC(=O)C(NC(=O)C(NC(=O)C(NC(=O)C(NC(=O)C(NC(=O)C(NC(=O)C(NC(=O)C(NC(=O)C(NC(=O)C(NC(=O)C(NC(=O)CNC(=O)C(NC(=O)C(NC(=O)C(NC(=O)C(NC(=O)C(NC(=O)C(NC(=O)C(NC(=O)C(NC(=O)C(NC(=O)C(NC(=O)C(NC(=O)C(NC(=O)C(NC(=O)C)CCCC[NH3+])C(C)C)C(O)C)CCC(=O)N)CCC(=O)[O-])CCC(=O)N)Cc2ccccc2)CCC(=O)[O-])CC(C)C)Cc2ccc(O)cc2)CS)CCC(=O)[O-])CCSC)CO)C(O)C)Cc2ccccc2)CCC(=O)N)CC(C)C)C[S-])CCCC[NH3+])C(CC)C)C[S-])C)CCC(=O)[O-])CC(=O)N)CC(=O)[O-])CCCC[NH3+])CC(=O)[O-])C(C)C)CCCC[NH3+])C(CC)C)CCC(=O)[O-])CCC1)C[S-])Cc1nc[n-]c1)CC(C)C)C(=O)NC(C(=O)NC(C(=O)NC(C(=O)NC(C(=O)NC(C(=O)NC(C(=O)NC(C(=O)NC(C(=O)NC(C(=O)NC(C(=O)NC(C(=O)NC(C(=O)NCC(=O)NC(C(=O)NCC(=O)NC(C(=O)N1C(C(=O)NC(C(=O)NC(C(=O)NC(C(=O)NC(C(=O)NC(C(=O)NC(C(=O)NC(C(=O)NCC(=O)NC(C(=O)NC(C(=O)N2C(C(=O)NC(C(=O)NC(C(=O)NC(C(=O)NC(C(=O)N3C(C(=O)NC(C(=O)NC(C(=O)[O-])CC(=O)[O-])Cc4ccccc4)CCC3)CC(=O)[O-])C(C)C)C(CC)C)C(CC)C)CCC2)CCC(=O)[O-])C(O)C)CCCC[NH3+])C(CC)C)CCC(=O)[O-])CS)CCCNC(=[NH2+])N)C[S-])Cc2ccccc2)CCC1)C[S-])CCC(=O)N)CC(=O)[O-])CO)CCC(=O)[O-])CCC(=O)N)Cc1c2c([nH]c1)cccc2)C)C(O)C)CC(C)C)C[S-])CO)C(O)C)C[S-])C.S(CCC(NC(=O)C(NC(=O)C(NC(=O)C(NC(=O)C(NC(=O)C(NC(=O)C(NC(=O)C(NC(=O)C(NC(=O)C(NC(=O)C(NC(=O)C(NC(=O)C(NC(=O)C(NC(=O)C(NC(=O)C(NC(=O)C[NH3+])CCC(=O)N)C)C)C)CC(=O)[O-])CCCNC(=[NH2+])N)CCCNC(=[NH2+])N)C(O)C)C(C)C)CCC(=O)[O-])CCCC[NH3+])C(O)C)Cc1c2c([nH]c1)cccc2)C)CC(C)C)C(=O)NC(C(=O)NC(C(=O)NC(C(=O)NC(C(=O)NC(C(=O)NC(C(=O)NC(C(=O)NC(C(=O)NC(C(=O)N1C(C(=O)NC(C(=O)NC(C(=O)NC(C(=O)NC(C(=O)NC(C(=O)NC(C(=O)NC(C(=O)N2C(C(=O)N3C(C(=O)NC(C(=O)NC(C(=O)NC(C(=O)NC(C(=O)NC(C(=O)NC(C(=O)N4C(C(=O)NC(C(=O)NC(C(=O)NC(C(=O)NC(C(=O)NC(C(=O)NC(C(=O)NC(C(=O)NC(C(=O)NC(C(=O)NC(C(=O)NC(C(=O)NC(C(=O)NC(C(=O)NC(C(=O)NC(C(=O)NC(C(=O)NC(C(=O)NC(C(=O)NC(C(=O)NC(C(=O)NC(C(=O)NC(C(=O)NC(C(=O)NC(C(=O)NC(C(=O)NC(C(=O)NC(C(=O)NC(C(=O)NC(C(=O)NC(C(=O)NC(C(=O)NC(C(=O)NC(C(=O)NC(C(=O)NC(C(=O)NC(C(=O)NC(C(=O)NC(C(=O)NC(C(=O)NC(C(=O)NC(C(=O)NC(C(=O)NC(C(=O)NC(C(=O)NC(C(=O)NC(C(=O)NC(C(=O)NC(C(=O)NCC(=O)NC(C(=O)NC(C(=O)NC(C(=O)NC(C(=O)NC(C(=O)NC(C(=O)NC(C(=O)NC(C(=O)NC(C(=O)NC(C(=O)NC(C(=O)NC(C(=O)NC(C(=O)NC(C(=O)NC(C(=O)NC(C(=O)NC(C(=O)NC(C(=O)NC(C(=O)NC(C(=O)NC(C(=O)NC(C(=O)NC(C(=O)NC(C(=O)NC(C(=O)NC(C(=O)NC(C(=O)NC(C(=O)NC(C(=O)NC(C(=O)NC(C(=O)NC(C(=O)NC(C(=O)N5C(C(=O)NC(C(=O)NCC(=O)NC(C(=O)NC(C(=O)NC(C(=O)NCC(=O)NC(C(=O)NC(C(=O)NC(C(=O)NC(C(=O)NC(C(=O)NC(C(=O)NC(C(=O)NC(C(=O)NC(C(=O)NC(C(=O)NC(C(=O)NC(C(=O)NC(C(=O)NC(C(=O)NC(C(=O)NC(C(=O)NC(C(=O)NC(C(=O)NCC(=O)NC(C(=O)NC(C(=O)NC(C(=O)NC(C(=O)NC(C(=O)N6C(C(=O)NC(C(=O)NC(C(=O)NC(C(=O)NC(C(=O)NC(C(=O)NC(C(=O)NC(C(=O)NC(C(=O)NC(C(=O)NC(C(=O)NC(C(=O)NC(C(=O)NC(C(=O)NC(C(=O)NC(C(=O)NC(C(=O)NCC(=O)NC(C(=O)NC(C(=O)NC(C(=O)NC(C(=O)NC(C(=O)NC(C(=O)NC(C(=O)NC(C(=O)NC(C(=O)NC(C(=O)NC(C(=O)NC(C(=O)NC(C(=O)NC(C(=O)NC(C(=O)NC(C(=O)NC(C(=O)NC(C(=O)NC(C(=O)NC(C(=O)NC(C(=O)NC(C(=O)NC(C(=O)NC(C(=O)NC(C(=O)NC(C(=O)NC(C(=O)NC(C(=O)NC(C(=O)NC(C(=O)NC(C(=O)N7C(C(=O)NC(C(=O)NCC(=O)NC(C(=O)NC(C(=O)NC(C(=O)NC(C(=O)NC(C(=O)NC(C(=O)NC(C(=O)NC(C(=O)NC(C(=O)NC(C(=O)NC(C(=O)NC(C(=O)NC(C(=O)N8C(C(=O)NCC(=O)NC(C(=O)NC(C(=O)NC(C(=O)NC(C(=O)NC(C(=O)NC(C(=O)NC(C(=O)NC(C(=O)NC(C(=O)NC(C(=O)NC(C(=O)NC(C(=O)NC(C(=O)NC(C(=O)NC(C(=O)NC(C(=O)NC(C(=O)NC(C(=O)NC(C(=O)NC(C(=O)N9C(C(=O)NCC(=O)NC(C(=O)NC(C(=O)NC(C(=O)NC(C(=O)NC(C(=O)NC(C(=O)NC(C(=O)NC(C(=O)NC(C(=O)NC(C(=O)NC(C(=O)NCC(=O)NC(C(=O)NC(C(=O)NC(C(=O)NC(C(=O)NCC(=O)NC(C(=O)NC(C(=O)NC(C(=O)NCC(=O)NC(C(=O)NCC(=O)NC(C(=O)NC(C(=O)NC(C(=O)NC(C(=O)NC(C(=O)NC(C(=O)N%10C(C(=O)NC(C(=O)NC(C(=O)NC(C(=O)N%11C(C(=O)NC(C(=O)NC(C(=O)NC(C(=O)NC(C(=O)NC(C(=O)NC(C(=O)NC(C(=O)NCC(=O)NC(C(=O)NC(C(=O)NC(C(=O)NCC(=O)NC(C(=O)NC(C(=O)NC(C(=O)NC(C(=O)N%12C(C(=O)NC(C(=O)NCC(=O)NC(C(=O)NC(C(=O)NC(C(=O)NC(C(=O)NC)CC(=O)N)Cc%13ccc(O)cc%13)CO)CCCNC(=[NH2+])N)CC(=O)[O-])CCC%12)Cc%12ccc(O)cc%12)CC(C)C)Cc%12ccc(O)cc%12)Cc%12ccccc%12)CCC(=O)[O-])C)CO)CC(=O)[O-])C(CC)C)CC(C)C)C)CCC(=O)N)Cc%12ccccc%12)CC(C)C)CCC%11)CCCC[NH3+])CC(=O)N)Cc%11[nH]cnc%11)CCC%10)C(CC)C)C(O)C)CCC(=O)N)CC(C)C)C(CC)C)CC(=O)N)CC(=O)[O-])C(O)C)C(C)C)Cc%10ccc(O)cc%10)C(CC)C)C)Cc%10c%11c([nH]c%10)cccc%11)CCC(=O)N)CC(C)C)CCCNC(=[NH2+])N)C(O)C)CS)CO)CC(C)C)CCCNC(=[NH2+])N)Cc%10ccccc%10)C(CC)C)Cc%10ccc(O)cc%10)CO)CCC9)CCCC[NH3+])C(O)C)CO)Cc9ccc(O)cc9)CCCC[NH3+])CCC(=O)N)CC(C)C)CCCNC(=[NH2+])N)C)CCCC[NH3+])C(C)C)CCC(=O)[O-])CC(=O)[O-])Cc9ccc(O)cc9)C(O)C)CC(C)C)Cc9ccccc9)C)CCSC)Cc9ccc(O)cc9)CCC8)Cc8nc[nH]c8)C(O)C)C(C)C)C)CC(C)C)Cc8ccccc8)CC(=O)N)Cc8c9c([nH]c8)cccc9)CC(=O)N)CCCNC(=[NH2+])N)CC(C)C)C(CC)C)CO)Cc8c9c([nH]c8)cccc9)CCC7)CCC(=O)N)Cc7ccccc7)CC(C)C)CCCNC(=[NH2+])N)C(O)C)Cc7ccccc7)C(CC)C)CC(=O)[O-])Cc7ccccc7)CCC(=O)[O-])Cc7ccccc7)C(C)C)CO)C(CC)C)Cc7ccc(O)cc7)CC(=O)[O-])CC(=O)N)CS)C(O)C)CC(C)C)CC(=O)[O-])C(CC)C)C(O)C)CO)CCCC[NH3+])CC(C)C)C)CCSC)C)CCC(=O)[O-])CC(C)C)CO)CO)C(CC)C)CCC(=O)N)Cc7nc[nH]c7)C(C)C)CCC(=O)[O-])Cc7nc[nH]c7)CC(C)C)CS)CCC(=O)N)CCCNC(=[NH2+])N)Cc7ccccc7)C(C)C)CCCC[NH3+])Cc7c8c([nH]c7)cccc8)CCC6)C(C)C)C(CC)C)C(O)C)CCCC[NH3+])CC(=O)[O-])Cc6ccccc6)Cc6ccccc6)CCCC[NH3+])CCCNC(=[NH2+])N)Cc6c7c([nH]c6)cccc7)Cc6ccccc6)CCC(=O)[O-])C)C)CC(=O)[O-])C)CCCC[NH3+])C(O)C)C(CC)C)CCCNC(=[NH2+])N)Cc6ccccc6)CC(=O)N)CC(=O)[O-])CCC(=O)N)Cc6ccccc6)CCC(=O)N)CC(=O)N)CCC5)Cc5ccccc5)C(CC)C)C)CCCC[NH3+])C(CC)C)CCC(=O)[O-])C)CC(C)C)CCSC)Cc5nc[nH]c5)CO)Cc5ccccc5)C(CC)C)CC(C)C)CO)CC(C)C)CCCC[NH3+])C(O)C)CC(C)C)CC(=O)N)CCCNC(=[NH2+])N)CCCNC(=[NH2+])N)CC(=O)[O-])CCC(=O)N)CO)CCC(=O)N)CCC(=O)[O-])CCC(=O)[O-])Cc5ccc(O)cc5)CCSC)CCCNC(=[NH2+])N)CCC(=O)[O-])CCCC[NH3+])CCC(=O)[O-])CCCC[NH3+])Cc5ccccc5)CC(C)C)CCCNC(=[NH2+])N)C(CC)C)C)CCCNC(=[NH2+])N)CCCC[NH3+])CO)CCCC[NH3+])CCCC[NH3+])CCSC)CC(C)C)CO)CC(=O)[O-])C(CC)C)Cc5ccc(O)cc5)C(CC)C)CCCC[NH3+])Cc5ccccc5)Cc5ccc(O)cc5)CCC(=O)[O-])CC(=O)N)CCC(=O)[O-])CO)CC(C)C)CCC(=O)N)C)CC(C)C)CCCC[NH3+])CCC(=O)N)CC(=O)N)CC(=O)[O-])CC(=O)[O-])Cc5ccc(O)cc5)CCCC[NH3+])CO)CC(C)C)C(CC)C)CC(C)C)CCCNC(=[NH2+])N)CC(C)C)Cc5nc[nH]c5)CCC(=O)N)Cc5ccc(O)cc5)C(O)C)CC(=O)[O-])CCC4)CC(C)C)C(CC)C)CC(=O)[O-])CC(C)C)C(CC)C)Cc4ccc(O)cc4)CCC3)CCC2)CO)CC(=O)N)CCCC[NH3+])CC(C)C)CCC(=O)N)CC(C)C)CCCC[NH3+])CCC1)CC(=O)N)CCC(=O)N)CS)CC(C)C)CCCNC(=[NH2+])N)C(C)C)C(C)C)C)CC(=O)[O-])C.OCCO.[UH+3].[Zn+2].[Zn+2].O.O.O.O.O.O.O.O.O.O.O.O.O.O.O.O.O.O.O.O.O.O.O.O.O.O.O.O.O.O.O.O.O.O.O.O.O.O.O.O.O.O.O.O.O.O.O.O.O.O.O.O.O.O.O.O.O.O.O.O.O.O.O.O.O.O.O.O.O.O.O.O.O.O.O.O.O.O.O.O.O.O.O.O.O.O.O.O.O.O.O.O.O.O.O.O.O.O.O.O.O.O.O.O.O.O.O.O.O.O.O.O.O.O.O.O.O.O.O.O.O.O.O.O.O.O.O.O.O.O.O.O.O.O.O.O.O.O.O.O.O.O

>  <rseq>
1

>  <mseq>
69

>  <S>
-8.1230574

>  <rmsd_refine>
1.9330364

>  <E_conf>
2.3470445

>  <E_place>
-49.349167

>  <E_score1>
-10.840214

>  <E_refine>
-39.126595

>  <E_score2>
-8.1230574

>  <Field_2>
WY09

>  <pseq>
69

>  <%C>
99.974426

>  <a_heavy>
26

>  <h_logP>
4.7284002

>  <Weight>
458.30298

>  <E_orig>
0.40000001

>  <PLIF_raw>
[[44,36,9,10,11,12,14],[1761,3751,3036,3036,3036,3036,3036],[141,263,219,219,219,219,219],[3,4,10,10,10,10,10],[0.7,3.7,1.1,1.1,1.1,1.1,1.1]]

>  <FP:PLIF>
49 21 25 15 16

>  <PLIF_ligidx>
[44,[9,10,11,12,14],[9,10,11,12,14],36,36]

$$$$

  MOE2020           3D

 50 53  0  0  1  0  0  0  0  0999 V2000
    3.9890    3.6780   19.4670 C   0  0  0  0  0  0  0  0  0  0  0  0
    3.5240    3.2520   18.5830 H   0  0  0  0  0  0  0  0  0  0  0  0
    4.6670    2.9440   19.8850 H   0  0  0  0  0  0  0  0  0  0  0  0
    3.2230    3.9040   20.2060 H   0  0  0  0  0  0  0  0  0  0  0  0
    4.7770    4.9230   19.0860 C   0  0  2  0  0  0  0  0  0  0  0  0
    3.8550    6.0670   18.6850 C   0  0  0  0  0  0  0  0  0  0  0  0
    3.8410    6.5560   17.3830 C   0  0  0  0  0  0  0  0  0  0  0  0
    4.4150    6.1080   16.6150 H   0  0  0  0  0  0  0  0  0  0  0  0
    3.0680    7.6560   17.0650 C   0  0  0  0  0  0  0  0  0  0  0  0
    3.0790    8.0070   16.0750 H   0  0  0  0  0  0  0  0  0  0  0  0
    2.2870    8.2810   18.0190 C   0  0  0  0  0  0  0  0  0  0  0  0
    1.7150    9.1290   17.7440 H   0  0  0  0  0  0  0  0  0  0  0  0
    2.2560    7.7990   19.3290 C   0  0  0  0  0  0  0  0  0  0  0  0
    3.0220    6.6620   19.6360 C   0  0  0  0  0  0  0  0  0  0  0  0
    2.9840    6.2640   20.6140 H   0  0  0  0  0  0  0  0  0  0  0  0
    1.4740    8.5070   20.3330 C   0  0  0  0  0  0  0  0  0  0  0  0
    0.7130    9.6140   20.2310 C   0  0  0  0  0  0  0  0  0  0  0  0
    0.5230   10.1680   19.3490 H   0  0  0  0  0  0  0  0  0  0  0  0
    0.2370    9.8930   21.5060 C   0  0  0  0  0  0  0  0  0  0  0  0
    0.6790    8.9850   22.3320 N   0  0  0  0  0  0  0  0  0  0  0  0
    1.4330    8.1420   21.6240 O   0  0  0  0  0  0  0  0  0  0  0  0
   -0.6060   11.0270   21.8760 C   0  0  0  0  0  0  0  0  0  0  0  0
   -1.3940   10.9890   23.0330 C   0  0  0  0  0  0  0  0  0  0  0  0
   -1.3890   10.1240   23.6440 H   0  0  0  0  0  0  0  0  0  0  0  0
   -2.1900   12.0700   23.3840 C   0  0  0  0  0  0  0  0  0  0  0  0
   -2.8070   12.0130   24.2420 H   0  0  0  0  0  0  0  0  0  0  0  0
   -2.1890   13.2400   22.6210 C   0  0  0  0  0  0  0  0  0  0  0  0
   -1.4280   13.2740   21.4470 C   0  0  0  0  0  0  0  0  0  0  0  0
   -1.4330   14.1410   20.8370 H   0  0  0  0  0  0  0  0  0  0  0  0
   -0.6500   12.1830   21.0800 C   0  0  0  0  0  0  0  0  0  0  0  0
   -0.0780   12.2370   20.1910 H   0  0  0  0  0  0  0  0  0  0  0  0
   -2.9420   14.4010   23.0790 C   0  0  0  0  0  0  0  0  0  0  0  0
   -2.9210   14.7790   24.2500 O   0  0  0  0  0  0  0  0  0  0  0  0
   -3.6950   15.0940   22.1640 N   0  0  0  0  0  0  0  0  0  0  0  0
   -3.7650   14.7230   21.2040 H   0  0  0  0  0  0  0  0  0  0  0  0
   -4.6420   16.1390   22.5490 C   0  0  0  0  0  0  0  0  0  0  0  0
   -4.9090   16.7530   21.6890 H   0  0  0  0  0  0  0  0  0  0  0  0
   -4.2210   16.7980   23.3100 H   0  0  0  0  0  0  0  0  0  0  0  0
   -5.5570   15.7020   22.9510 H   0  0  0  0  0  0  0  0  0  0  0  0
    6.0470    4.4770   17.8390 S   0  0  0  0  0  0  0  0  0  0  0  0
    7.0210    5.9280   17.8040 C   0  0  0  0  0  0  0  0  0  0  0  0
    7.0810    6.8660   16.8910 N   0  0  0  0  0  0  0  0  0  0  0  0
    7.9690    7.8180   17.3510 N   0  0  0  0  0  0  0  0  0  0  0  0
    8.4110    7.4100   18.4990 C   0  0  0  0  0  0  0  0  0  0  0  0
    9.1070    7.8740   19.1470 H   0  0  0  0  0  0  0  0  0  0  0  0
    7.8450    6.2440   18.7970 N   0  0  0  0  0  0  0  0  0  0  0  0
    8.0720    5.4640   19.9890 N   0  0  0  0  0  0  0  0  0  0  0  0
    7.9360    4.4770   19.7140 H   0  0  0  0  0  0  0  0  0  0  0  0
    9.0700    5.5840   20.2170 H   0  0  0  0  0  0  0  0  0  0  0  0
    5.3100    5.2480   19.9680 H   0  0  0  0  0  0  0  0  0  0  0  0
  1  2  1  0  0  0  0
  1  3  1  0  0  0  0
  1  4  1  0  0  0  0
  1  5  1  0  0  0  0
  5  6  1  0  0  0  0
  5 40  1  0  0  0  0
  5 50  1  0  0  0  0
  6  7  1  0  0  0  0
  6 14  2  0  0  0  0
  7  8  1  0  0  0  0
  7  9  2  0  0  0  0
  9 10  1  0  0  0  0
  9 11  1  0  0  0  0
 11 12  1  0  0  0  0
 11 13  2  0  0  0  0
 13 14  1  0  0  0  0
 13 16  1  0  0  0  0
 14 15  1  0  0  0  0
 16 17  2  0  0  0  0
 16 21  1  0  0  0  0
 17 18  1  0  0  0  0
 17 19  1  0  0  0  0
 19 20  2  0  0  0  0
 19 22  1  0  0  0  0
 20 21  1  0  0  0  0
 22 23  1  0  0  0  0
 22 30  2  0  0  0  0
 23 24  1  0  0  0  0
 23 25  2  0  0  0  0
 25 26  1  0  0  0  0
 25 27  1  0  0  0  0
 27 28  2  0  0  0  0
 27 32  1  0  0  0  0
 28 29  1  0  0  0  0
 28 30  1  0  0  0  0
 30 31  1  0  0  0  0
 32 33  2  0  0  0  0
 32 34  1  0  0  0  0
 34 35  1  0  0  0  0
 34 36  1  0  0  0  0
 36 37  1  0  0  0  0
 36 38  1  0  0  0  0
 36 39  1  0  0  0  0
 40 41  1  0  0  0  0
 41 42  2  0  0  0  0
 41 46  1  0  0  0  0
 42 43  1  0  0  0  0
 43 44  2  0  0  0  0
 44 45  1  0  0  0  0
 44 46  1  0  0  0  0
 46 47  1  0  0  0  0
 47 48  1  0  0  0  0
 47 49  1  0  0  0  0
M  END
>  <receptor>
S(=O)(=O)([O-])[O-].S(CCC(NC(=O)C(NC(=O)C(NC(=O)CNC(=O)C(NC(=O)C1N(C(=O)C(NC(=O)C(NC(=O)C(NC(=O)C(NC(=O)C(NC(=O)C(NC(=O)C(NC(=O)C(NC(=O)C(NC(=O)C(NC(=O)C(NC(=O)C(NC(=O)C(NC(=O)C(NC(=O)C(NC(=O)C(NC(=O)C(NC(=O)C(NC(=O)C(NC(=O)CNC(=O)C(NC(=O)C(NC(=O)C(NC(=O)C(NC(=O)C(NC(=O)C(NC(=O)C(NC(=O)C(NC(=O)C(NC(=O)C(NC(=O)C(NC(=O)C(NC(=O)C(NC(=O)C)CCCC[NH3+])C(C)C)C(O)C)CCC(=O)N)CCC(=O)[O-])CCC(=O)N)Cc2ccccc2)CCC(=O)[O-])CC(C)C)Cc2ccc(O)cc2)CS)CCC(=O)[O-])CCSC)CO)C(O)C)Cc2ccccc2)CCC(=O)N)CC(C)C)C[S-])CCCC[NH3+])C(CC)C)C[S-])C)CCC(=O)[O-])CC(=O)N)CC(=O)[O-])CCCC[NH3+])CC(=O)[O-])C(C)C)CCCC[NH3+])C(CC)C)CCC(=O)[O-])CCC1)C[S-])Cc1nc[n-]c1)CC(C)C)C(=O)NC(C(=O)NC(C(=O)NC(C(=O)NC(C(=O)NC(C(=O)NC(C(=O)NC(C(=O)NC(C(=O)NC(C(=O)NC(C(=O)NC(C(=O)NC(C(=O)NCC(=O)NC(C(=O)NCC(=O)NC(C(=O)N1C(C(=O)NC(C(=O)NC(C(=O)NC(C(=O)NC(C(=O)NC(C(=O)NC(C(=O)NC(C(=O)NCC(=O)NC(C(=O)NC(C(=O)N2C(C(=O)NC(C(=O)NC(C(=O)NC(C(=O)NC(C(=O)N3C(C(=O)NC(C(=O)NC(C(=O)[O-])CC(=O)[O-])Cc4ccccc4)CCC3)CC(=O)[O-])C(C)C)C(CC)C)C(CC)C)CCC2)CCC(=O)[O-])C(O)C)CCCC[NH3+])C(CC)C)CCC(=O)[O-])CS)CCCNC(=[NH2+])N)C[S-])Cc2ccccc2)CCC1)C[S-])CCC(=O)N)CC(=O)[O-])CO)CCC(=O)[O-])CCC(=O)N)Cc1c2c([nH]c1)cccc2)C)C(O)C)CC(C)C)C[S-])CO)C(O)C)C[S-])C.S(CCC(NC(=O)C(NC(=O)C(NC(=O)C(NC(=O)C(NC(=O)C(NC(=O)C(NC(=O)C(NC(=O)C(NC(=O)C(NC(=O)C(NC(=O)C(NC(=O)C(NC(=O)C(NC(=O)C(NC(=O)C(NC(=O)C[NH3+])CCC(=O)N)C)C)C)CC(=O)[O-])CCCNC(=[NH2+])N)CCCNC(=[NH2+])N)C(O)C)C(C)C)CCC(=O)[O-])CCCC[NH3+])C(O)C)Cc1c2c([nH]c1)cccc2)C)CC(C)C)C(=O)NC(C(=O)NC(C(=O)NC(C(=O)NC(C(=O)NC(C(=O)NC(C(=O)NC(C(=O)NC(C(=O)NC(C(=O)N1C(C(=O)NC(C(=O)NC(C(=O)NC(C(=O)NC(C(=O)NC(C(=O)NC(C(=O)NC(C(=O)N2C(C(=O)N3C(C(=O)NC(C(=O)NC(C(=O)NC(C(=O)NC(C(=O)NC(C(=O)NC(C(=O)N4C(C(=O)NC(C(=O)NC(C(=O)NC(C(=O)NC(C(=O)NC(C(=O)NC(C(=O)NC(C(=O)NC(C(=O)NC(C(=O)NC(C(=O)NC(C(=O)NC(C(=O)NC(C(=O)NC(C(=O)NC(C(=O)NC(C(=O)NC(C(=O)NC(C(=O)NC(C(=O)NC(C(=O)NC(C(=O)NC(C(=O)NC(C(=O)NC(C(=O)NC(C(=O)NC(C(=O)NC(C(=O)NC(C(=O)NC(C(=O)NC(C(=O)NC(C(=O)NC(C(=O)NC(C(=O)NC(C(=O)NC(C(=O)NC(C(=O)NC(C(=O)NC(C(=O)NC(C(=O)NC(C(=O)NC(C(=O)NC(C(=O)NC(C(=O)NC(C(=O)NC(C(=O)NC(C(=O)NC(C(=O)NC(C(=O)NCC(=O)NC(C(=O)NC(C(=O)NC(C(=O)NC(C(=O)NC(C(=O)NC(C(=O)NC(C(=O)NC(C(=O)NC(C(=O)NC(C(=O)NC(C(=O)NC(C(=O)NC(C(=O)NC(C(=O)NC(C(=O)NC(C(=O)NC(C(=O)NC(C(=O)NC(C(=O)NC(C(=O)NC(C(=O)NC(C(=O)NC(C(=O)NC(C(=O)NC(C(=O)NC(C(=O)NC(C(=O)NC(C(=O)NC(C(=O)NC(C(=O)NC(C(=O)NC(C(=O)NC(C(=O)N5C(C(=O)NC(C(=O)NCC(=O)NC(C(=O)NC(C(=O)NC(C(=O)NCC(=O)NC(C(=O)NC(C(=O)NC(C(=O)NC(C(=O)NC(C(=O)NC(C(=O)NC(C(=O)NC(C(=O)NC(C(=O)NC(C(=O)NC(C(=O)NC(C(=O)NC(C(=O)NC(C(=O)NC(C(=O)NC(C(=O)NC(C(=O)NC(C(=O)NCC(=O)NC(C(=O)NC(C(=O)NC(C(=O)NC(C(=O)NC(C(=O)N6C(C(=O)NC(C(=O)NC(C(=O)NC(C(=O)NC(C(=O)NC(C(=O)NC(C(=O)NC(C(=O)NC(C(=O)NC(C(=O)NC(C(=O)NC(C(=O)NC(C(=O)NC(C(=O)NC(C(=O)NC(C(=O)NC(C(=O)NCC(=O)NC(C(=O)NC(C(=O)NC(C(=O)NC(C(=O)NC(C(=O)NC(C(=O)NC(C(=O)NC(C(=O)NC(C(=O)NC(C(=O)NC(C(=O)NC(C(=O)NC(C(=O)NC(C(=O)NC(C(=O)NC(C(=O)NC(C(=O)NC(C(=O)NC(C(=O)NC(C(=O)NC(C(=O)NC(C(=O)NC(C(=O)NC(C(=O)NC(C(=O)NC(C(=O)NC(C(=O)NC(C(=O)NC(C(=O)NC(C(=O)NC(C(=O)N7C(C(=O)NC(C(=O)NCC(=O)NC(C(=O)NC(C(=O)NC(C(=O)NC(C(=O)NC(C(=O)NC(C(=O)NC(C(=O)NC(C(=O)NC(C(=O)NC(C(=O)NC(C(=O)NC(C(=O)NC(C(=O)N8C(C(=O)NCC(=O)NC(C(=O)NC(C(=O)NC(C(=O)NC(C(=O)NC(C(=O)NC(C(=O)NC(C(=O)NC(C(=O)NC(C(=O)NC(C(=O)NC(C(=O)NC(C(=O)NC(C(=O)NC(C(=O)NC(C(=O)NC(C(=O)NC(C(=O)NC(C(=O)NC(C(=O)NC(C(=O)N9C(C(=O)NCC(=O)NC(C(=O)NC(C(=O)NC(C(=O)NC(C(=O)NC(C(=O)NC(C(=O)NC(C(=O)NC(C(=O)NC(C(=O)NC(C(=O)NC(C(=O)NCC(=O)NC(C(=O)NC(C(=O)NC(C(=O)NC(C(=O)NCC(=O)NC(C(=O)NC(C(=O)NC(C(=O)NCC(=O)NC(C(=O)NCC(=O)NC(C(=O)NC(C(=O)NC(C(=O)NC(C(=O)NC(C(=O)NC(C(=O)N%10C(C(=O)NC(C(=O)NC(C(=O)NC(C(=O)N%11C(C(=O)NC(C(=O)NC(C(=O)NC(C(=O)NC(C(=O)NC(C(=O)NC(C(=O)NC(C(=O)NCC(=O)NC(C(=O)NC(C(=O)NC(C(=O)NCC(=O)NC(C(=O)NC(C(=O)NC(C(=O)NC(C(=O)N%12C(C(=O)NC(C(=O)NCC(=O)NC(C(=O)NC(C(=O)NC(C(=O)NC(C(=O)NC)CC(=O)N)Cc%13ccc(O)cc%13)CO)CCCNC(=[NH2+])N)CC(=O)[O-])CCC%12)Cc%12ccc(O)cc%12)CC(C)C)Cc%12ccc(O)cc%12)Cc%12ccccc%12)CCC(=O)[O-])C)CO)CC(=O)[O-])C(CC)C)CC(C)C)C)CCC(=O)N)Cc%12ccccc%12)CC(C)C)CCC%11)CCCC[NH3+])CC(=O)N)Cc%11[nH]cnc%11)CCC%10)C(CC)C)C(O)C)CCC(=O)N)CC(C)C)C(CC)C)CC(=O)N)CC(=O)[O-])C(O)C)C(C)C)Cc%10ccc(O)cc%10)C(CC)C)C)Cc%10c%11c([nH]c%10)cccc%11)CCC(=O)N)CC(C)C)CCCNC(=[NH2+])N)C(O)C)CS)CO)CC(C)C)CCCNC(=[NH2+])N)Cc%10ccccc%10)C(CC)C)Cc%10ccc(O)cc%10)CO)CCC9)CCCC[NH3+])C(O)C)CO)Cc9ccc(O)cc9)CCCC[NH3+])CCC(=O)N)CC(C)C)CCCNC(=[NH2+])N)C)CCCC[NH3+])C(C)C)CCC(=O)[O-])CC(=O)[O-])Cc9ccc(O)cc9)C(O)C)CC(C)C)Cc9ccccc9)C)CCSC)Cc9ccc(O)cc9)CCC8)Cc8nc[nH]c8)C(O)C)C(C)C)C)CC(C)C)Cc8ccccc8)CC(=O)N)Cc8c9c([nH]c8)cccc9)CC(=O)N)CCCNC(=[NH2+])N)CC(C)C)C(CC)C)CO)Cc8c9c([nH]c8)cccc9)CCC7)CCC(=O)N)Cc7ccccc7)CC(C)C)CCCNC(=[NH2+])N)C(O)C)Cc7ccccc7)C(CC)C)CC(=O)[O-])Cc7ccccc7)CCC(=O)[O-])Cc7ccccc7)C(C)C)CO)C(CC)C)Cc7ccc(O)cc7)CC(=O)[O-])CC(=O)N)CS)C(O)C)CC(C)C)CC(=O)[O-])C(CC)C)C(O)C)CO)CCCC[NH3+])CC(C)C)C)CCSC)C)CCC(=O)[O-])CC(C)C)CO)CO)C(CC)C)CCC(=O)N)Cc7nc[nH]c7)C(C)C)CCC(=O)[O-])Cc7nc[nH]c7)CC(C)C)CS)CCC(=O)N)CCCNC(=[NH2+])N)Cc7ccccc7)C(C)C)CCCC[NH3+])Cc7c8c([nH]c7)cccc8)CCC6)C(C)C)C(CC)C)C(O)C)CCCC[NH3+])CC(=O)[O-])Cc6ccccc6)Cc6ccccc6)CCCC[NH3+])CCCNC(=[NH2+])N)Cc6c7c([nH]c6)cccc7)Cc6ccccc6)CCC(=O)[O-])C)C)CC(=O)[O-])C)CCCC[NH3+])C(O)C)C(CC)C)CCCNC(=[NH2+])N)Cc6ccccc6)CC(=O)N)CC(=O)[O-])CCC(=O)N)Cc6ccccc6)CCC(=O)N)CC(=O)N)CCC5)Cc5ccccc5)C(CC)C)C)CCCC[NH3+])C(CC)C)CCC(=O)[O-])C)CC(C)C)CCSC)Cc5nc[nH]c5)CO)Cc5ccccc5)C(CC)C)CC(C)C)CO)CC(C)C)CCCC[NH3+])C(O)C)CC(C)C)CC(=O)N)CCCNC(=[NH2+])N)CCCNC(=[NH2+])N)CC(=O)[O-])CCC(=O)N)CO)CCC(=O)N)CCC(=O)[O-])CCC(=O)[O-])Cc5ccc(O)cc5)CCSC)CCCNC(=[NH2+])N)CCC(=O)[O-])CCCC[NH3+])CCC(=O)[O-])CCCC[NH3+])Cc5ccccc5)CC(C)C)CCCNC(=[NH2+])N)C(CC)C)C)CCCNC(=[NH2+])N)CCCC[NH3+])CO)CCCC[NH3+])CCCC[NH3+])CCSC)CC(C)C)CO)CC(=O)[O-])C(CC)C)Cc5ccc(O)cc5)C(CC)C)CCCC[NH3+])Cc5ccccc5)Cc5ccc(O)cc5)CCC(=O)[O-])CC(=O)N)CCC(=O)[O-])CO)CC(C)C)CCC(=O)N)C)CC(C)C)CCCC[NH3+])CCC(=O)N)CC(=O)N)CC(=O)[O-])CC(=O)[O-])Cc5ccc(O)cc5)CCCC[NH3+])CO)CC(C)C)C(CC)C)CC(C)C)CCCNC(=[NH2+])N)CC(C)C)Cc5nc[nH]c5)CCC(=O)N)Cc5ccc(O)cc5)C(O)C)CC(=O)[O-])CCC4)CC(C)C)C(CC)C)CC(=O)[O-])CC(C)C)C(CC)C)Cc4ccc(O)cc4)CCC3)CCC2)CO)CC(=O)N)CCCC[NH3+])CC(C)C)CCC(=O)N)CC(C)C)CCCC[NH3+])CCC1)CC(=O)N)CCC(=O)N)CS)CC(C)C)CCCNC(=[NH2+])N)C(C)C)C(C)C)C)CC(=O)[O-])C.OCCO.[UH+3].[Zn+2].[Zn+2].O.O.O.O.O.O.O.O.O.O.O.O.O.O.O.O.O.O.O.O.O.O.O.O.O.O.O.O.O.O.O.O.O.O.O.O.O.O.O.O.O.O.O.O.O.O.O.O.O.O.O.O.O.O.O.O.O.O.O.O.O.O.O.O.O.O.O.O.O.O.O.O.O.O.O.O.O.O.O.O.O.O.O.O.O.O.O.O.O.O.O.O.O.O.O.O.O.O.O.O.O.O.O.O.O.O.O.O.O.O.O.O.O.O.O.O.O.O.O.O.O.O.O.O.O.O.O.O.O.O.O.O.O.O.O.O.O.O.O.O.O.O

>  <rseq>
1

>  <mseq>
70

>  <S>
-8.3124676

>  <rmsd_refine>
3.6875951

>  <E_conf>
70.051323

>  <E_place>
-80.655975

>  <E_score1>
-12.078313

>  <E_refine>
-45.651745

>  <E_score2>
-8.3124676

>  <Field_2>
WY10

>  <pseq>
70

>  <%C>
99.891418

>  <a_heavy>
30

>  <h_logP>
2.8936927

>  <Weight>
420.49701

>  <E_orig>
1.2

>  <PLIF_raw>
[[47,47,42,43,43,41,41,41,41,41,41,42,42,42,42,42,42,43,43,43,43,43,43,44,44,44,44,44,44,46,46,46,46,46,46],[3032,5130,3722,3722,6288,5139,5143,5141,5137,5134,5135,5139,5143,5141,5137,5134,5135,5139,5143,5141,5137,5134,5135,5139,5143,5141,5137,5134,5135,5139,5143,5141,5137,5134,5135],[218,363,260,260,220669,363,363,363,363,363,363,363,363,363,363,363,363,363,363,363,363,363,363,363,363,363,363,363,363,363,363,363,363,363,363],[1,3,2,2,6,10,10,10,10,10,10,10,10,10,10,10,10,10,10,10,10,10,10,10,10,10,10,10,10,10,10,10,10,10,10],[1.4,0.7,0.6,0.5,0.6,1e-005,1e-005,1e-005,1e-005,1e-005,1e-005,1e-005,1e-005,1e-005,1e-005,1e-005,1e-005,1e-005,1e-005,1e-005,1e-005,1e-005,1e-005,1e-005,1e-005,1e-005,1e-005,1e-005,1e-005,1e-005,1e-005,1e-005,1e-005,1e-005,1e-005]]

>  <FP:PLIF>
46 26 31 28

>  <PLIF_ligidx>
[47,[42,43],47,43]

$$$$

  MOE2020           3D

 47 51  0  0  0  0  0  0  0  0999 V2000
    7.0820    5.8360   13.2820 F   0  0  0  0  0  0  0  0  0  0  0  0
    6.3910    5.3360   14.3230 C   0  0  0  0  0  0  0  0  0  0  0  0
    6.4410    3.9470   14.5000 C   0  0  0  0  0  0  0  0  0  0  0  0
    6.9270    3.3360   13.7850 H   0  0  0  0  0  0  0  0  0  0  0  0
    5.8580    3.4050   15.6150 C   0  0  0  0  0  0  0  0  0  0  0  0
    5.8910    2.3620   15.7720 H   0  0  0  0  0  0  0  0  0  0  0  0
    5.2190    4.2330   16.5670 C   0  0  0  0  0  0  0  0  0  0  0  0
    4.7180    3.7210   17.7790 C   0  0  0  0  0  0  0  0  0  0  0  0
    4.8890    2.7140   18.0330 H   0  0  0  0  0  0  0  0  0  0  0  0
    4.0150    4.5450   18.6090 C   0  0  0  0  0  0  0  0  0  0  0  0
    3.6150    4.1770   19.5190 H   0  0  0  0  0  0  0  0  0  0  0  0
    3.7950    5.8900   18.2380 C   0  0  0  0  0  0  0  0  0  0  0  0
    2.9020    6.7260   19.1210 C   0  0  0  0  0  0  0  0  0  0  0  0
    3.3770    6.9050   20.0720 H   0  0  0  0  0  0  0  0  0  0  0  0
    2.0080    6.1640   19.3540 H   0  0  0  0  0  0  0  0  0  0  0  0
    2.5130    7.9780   18.5160 O   0  0  0  0  0  0  0  0  0  0  0  0
    1.6430    8.8550   19.1070 C   0  0  0  0  0  0  0  0  0  0  0  0
    1.1670    9.9090   18.3000 C   0  0  0  0  0  0  0  0  0  0  0  0
    1.4940    9.9900   17.2960 H   0  0  0  0  0  0  0  0  0  0  0  0
    0.2840   10.8180   18.8230 C   0  0  0  0  0  0  0  0  0  0  0  0
   -0.0830   11.6090   18.2200 H   0  0  0  0  0  0  0  0  0  0  0  0
   -0.1420   10.7150   20.1740 C   0  0  0  0  0  0  0  0  0  0  0  0
   -1.0320   11.6570   20.7410 C   0  0  0  0  0  0  0  0  0  0  0  0
   -1.4000   12.4450   20.1340 H   0  0  0  0  0  0  0  0  0  0  0  0
   -1.4040   11.5700   22.0620 C   0  0  0  0  0  0  0  0  0  0  0  0
   -2.3050   12.6230   22.6650 C   0  0  0  0  0  0  0  0  0  0  0  0
   -3.2370   12.6800   22.1000 H   0  0  0  0  0  0  0  0  0  0  0  0
   -2.5590   12.3390   23.6860 H   0  0  0  0  0  0  0  0  0  0  0  0
   -1.6300   14.0000   22.6680 C   0  0  0  0  0  0  0  0  0  0  0  0
   -1.8920   14.5410   21.7590 H   0  0  0  0  0  0  0  0  0  0  0  0
   -0.5470   13.8750   22.6960 H   0  0  0  0  0  0  0  0  0  0  0  0
   -2.0230   14.8260   23.8640 C   0  0  0  0  0  0  0  0  0  0  0  0
   -3.1910   15.3740   24.0020 N   0  5  0  0  0  0  0  0  0  0  0  0
   -3.1270   15.9710   25.1760 N   0  0  0  0  0  0  0  0  0  0  0  0
   -1.9280   15.7700   25.7050 N   0  0  0  0  0  0  0  0  0  0  0  0
   -1.2200   15.0390   24.8680 N   0  0  0  0  0  0  0  0  0  0  0  0
   -0.9150   10.5150   22.8630 C   0  0  0  0  0  0  0  0  0  0  0  0
   -1.2070   10.4500   23.8780 H   0  0  0  0  0  0  0  0  0  0  0  0
   -0.0630    9.5770   22.3350 C   0  0  0  0  0  0  0  0  0  0  0  0
    0.2980    8.7880   22.9410 H   0  0  0  0  0  0  0  0  0  0  0  0
    0.3480    9.6580   20.9810 C   0  0  0  0  0  0  0  0  0  0  0  0
    1.2460    8.7220   20.4220 C   0  0  0  0  0  0  0  0  0  0  0  0
    1.6080    7.9340   21.0290 H   0  0  0  0  0  0  0  0  0  0  0  0
    4.3210    6.4020   17.1530 N   0  0  0  0  0  0  0  0  0  0  0  0
    5.0720    5.6160   16.3100 C   0  0  0  0  0  0  0  0  0  0  0  0
    5.6960    6.1700   15.1700 C   0  0  0  0  0  0  0  0  0  0  0  0
    5.6280    7.2090   14.9820 H   0  0  0  0  0  0  0  0  0  0  0  0
  1  2  1  0  0  0  0
  2  3  1  0  0  0  0
  2 46  2  0  0  0  0
  3  4  1  0  0  0  0
  3  5  2  0  0  0  0
  5  6  1  0  0  0  0
  5  7  1  0  0  0  0
  7  8  1  0  0  0  0
  7 45  2  0  0  0  0
  8  9  1  0  0  0  0
  8 10  2  0  0  0  0
 10 11  1  0  0  0  0
 10 12  1  0  0  0  0
 12 13  1  0  0  0  0
 12 44  2  0  0  0  0
 13 14  1  0  0  0  0
 13 15  1  0  0  0  0
 13 16  1  0  0  0  0
 16 17  1  0  0  0  0
 17 18  1  0  0  0  0
 17 42  2  0  0  0  0
 18 19  1  0  0  0  0
 18 20  2  0  0  0  0
 20 21  1  0  0  0  0
 20 22  1  0  0  0  0
 22 23  1  0  0  0  0
 22 41  2  0  0  0  0
 23 24  1  0  0  0  0
 23 25  2  0  0  0  0
 25 26  1  0  0  0  0
 25 37  1  0  0  0  0
 26 27  1  0  0  0  0
 26 28  1  0  0  0  0
 26 29  1  0  0  0  0
 29 30  1  0  0  0  0
 29 31  1  0  0  0  0
 29 32  1  0  0  0  0
 32 33  1  0  0  0  0
 32 36  2  0  0  0  0
 33 34  1  0  0  0  0
 34 35  2  0  0  0  0
 35 36  1  0  0  0  0
 37 38  1  0  0  0  0
 37 39  2  0  0  0  0
 39 40  1  0  0  0  0
 39 41  1  0  0  0  0
 41 42  1  0  0  0  0
 42 43  1  0  0  0  0
 44 45  1  0  0  0  0
 45 46  1  0  0  0  0
 46 47  1  0  0  0  0
M  CHG  1  33  -1
M  END
>  <receptor>
S(=O)(=O)([O-])[O-].S(CCC(NC(=O)C(NC(=O)C(NC(=O)CNC(=O)C(NC(=O)C1N(C(=O)C(NC(=O)C(NC(=O)C(NC(=O)C(NC(=O)C(NC(=O)C(NC(=O)C(NC(=O)C(NC(=O)C(NC(=O)C(NC(=O)C(NC(=O)C(NC(=O)C(NC(=O)C(NC(=O)C(NC(=O)C(NC(=O)C(NC(=O)C(NC(=O)C(NC(=O)CNC(=O)C(NC(=O)C(NC(=O)C(NC(=O)C(NC(=O)C(NC(=O)C(NC(=O)C(NC(=O)C(NC(=O)C(NC(=O)C(NC(=O)C(NC(=O)C(NC(=O)C(NC(=O)C)CCCC[NH3+])C(C)C)C(O)C)CCC(=O)N)CCC(=O)[O-])CCC(=O)N)Cc2ccccc2)CCC(=O)[O-])CC(C)C)Cc2ccc(O)cc2)CS)CCC(=O)[O-])CCSC)CO)C(O)C)Cc2ccccc2)CCC(=O)N)CC(C)C)C[S-])CCCC[NH3+])C(CC)C)C[S-])C)CCC(=O)[O-])CC(=O)N)CC(=O)[O-])CCCC[NH3+])CC(=O)[O-])C(C)C)CCCC[NH3+])C(CC)C)CCC(=O)[O-])CCC1)C[S-])Cc1nc[n-]c1)CC(C)C)C(=O)NC(C(=O)NC(C(=O)NC(C(=O)NC(C(=O)NC(C(=O)NC(C(=O)NC(C(=O)NC(C(=O)NC(C(=O)NC(C(=O)NC(C(=O)NC(C(=O)NCC(=O)NC(C(=O)NCC(=O)NC(C(=O)N1C(C(=O)NC(C(=O)NC(C(=O)NC(C(=O)NC(C(=O)NC(C(=O)NC(C(=O)NC(C(=O)NCC(=O)NC(C(=O)NC(C(=O)N2C(C(=O)NC(C(=O)NC(C(=O)NC(C(=O)NC(C(=O)N3C(C(=O)NC(C(=O)NC(C(=O)[O-])CC(=O)[O-])Cc4ccccc4)CCC3)CC(=O)[O-])C(C)C)C(CC)C)C(CC)C)CCC2)CCC(=O)[O-])C(O)C)CCCC[NH3+])C(CC)C)CCC(=O)[O-])CS)CCCNC(=[NH2+])N)C[S-])Cc2ccccc2)CCC1)C[S-])CCC(=O)N)CC(=O)[O-])CO)CCC(=O)[O-])CCC(=O)N)Cc1c2c([nH]c1)cccc2)C)C(O)C)CC(C)C)C[S-])CO)C(O)C)C[S-])C.S(CCC(NC(=O)C(NC(=O)C(NC(=O)C(NC(=O)C(NC(=O)C(NC(=O)C(NC(=O)C(NC(=O)C(NC(=O)C(NC(=O)C(NC(=O)C(NC(=O)C(NC(=O)C(NC(=O)C(NC(=O)C(NC(=O)C[NH3+])CCC(=O)N)C)C)C)CC(=O)[O-])CCCNC(=[NH2+])N)CCCNC(=[NH2+])N)C(O)C)C(C)C)CCC(=O)[O-])CCCC[NH3+])C(O)C)Cc1c2c([nH]c1)cccc2)C)CC(C)C)C(=O)NC(C(=O)NC(C(=O)NC(C(=O)NC(C(=O)NC(C(=O)NC(C(=O)NC(C(=O)NC(C(=O)NC(C(=O)N1C(C(=O)NC(C(=O)NC(C(=O)NC(C(=O)NC(C(=O)NC(C(=O)NC(C(=O)NC(C(=O)N2C(C(=O)N3C(C(=O)NC(C(=O)NC(C(=O)NC(C(=O)NC(C(=O)NC(C(=O)NC(C(=O)N4C(C(=O)NC(C(=O)NC(C(=O)NC(C(=O)NC(C(=O)NC(C(=O)NC(C(=O)NC(C(=O)NC(C(=O)NC(C(=O)NC(C(=O)NC(C(=O)NC(C(=O)NC(C(=O)NC(C(=O)NC(C(=O)NC(C(=O)NC(C(=O)NC(C(=O)NC(C(=O)NC(C(=O)NC(C(=O)NC(C(=O)NC(C(=O)NC(C(=O)NC(C(=O)NC(C(=O)NC(C(=O)NC(C(=O)NC(C(=O)NC(C(=O)NC(C(=O)NC(C(=O)NC(C(=O)NC(C(=O)NC(C(=O)NC(C(=O)NC(C(=O)NC(C(=O)NC(C(=O)NC(C(=O)NC(C(=O)NC(C(=O)NC(C(=O)NC(C(=O)NC(C(=O)NC(C(=O)NC(C(=O)NC(C(=O)NCC(=O)NC(C(=O)NC(C(=O)NC(C(=O)NC(C(=O)NC(C(=O)NC(C(=O)NC(C(=O)NC(C(=O)NC(C(=O)NC(C(=O)NC(C(=O)NC(C(=O)NC(C(=O)NC(C(=O)NC(C(=O)NC(C(=O)NC(C(=O)NC(C(=O)NC(C(=O)NC(C(=O)NC(C(=O)NC(C(=O)NC(C(=O)NC(C(=O)NC(C(=O)NC(C(=O)NC(C(=O)NC(C(=O)NC(C(=O)NC(C(=O)NC(C(=O)NC(C(=O)NC(C(=O)N5C(C(=O)NC(C(=O)NCC(=O)NC(C(=O)NC(C(=O)NC(C(=O)NCC(=O)NC(C(=O)NC(C(=O)NC(C(=O)NC(C(=O)NC(C(=O)NC(C(=O)NC(C(=O)NC(C(=O)NC(C(=O)NC(C(=O)NC(C(=O)NC(C(=O)NC(C(=O)NC(C(=O)NC(C(=O)NC(C(=O)NC(C(=O)NC(C(=O)NCC(=O)NC(C(=O)NC(C(=O)NC(C(=O)NC(C(=O)NC(C(=O)N6C(C(=O)NC(C(=O)NC(C(=O)NC(C(=O)NC(C(=O)NC(C(=O)NC(C(=O)NC(C(=O)NC(C(=O)NC(C(=O)NC(C(=O)NC(C(=O)NC(C(=O)NC(C(=O)NC(C(=O)NC(C(=O)NC(C(=O)NCC(=O)NC(C(=O)NC(C(=O)NC(C(=O)NC(C(=O)NC(C(=O)NC(C(=O)NC(C(=O)NC(C(=O)NC(C(=O)NC(C(=O)NC(C(=O)NC(C(=O)NC(C(=O)NC(C(=O)NC(C(=O)NC(C(=O)NC(C(=O)NC(C(=O)NC(C(=O)NC(C(=O)NC(C(=O)NC(C(=O)NC(C(=O)NC(C(=O)NC(C(=O)NC(C(=O)NC(C(=O)NC(C(=O)NC(C(=O)NC(C(=O)NC(C(=O)N7C(C(=O)NC(C(=O)NCC(=O)NC(C(=O)NC(C(=O)NC(C(=O)NC(C(=O)NC(C(=O)NC(C(=O)NC(C(=O)NC(C(=O)NC(C(=O)NC(C(=O)NC(C(=O)NC(C(=O)NC(C(=O)N8C(C(=O)NCC(=O)NC(C(=O)NC(C(=O)NC(C(=O)NC(C(=O)NC(C(=O)NC(C(=O)NC(C(=O)NC(C(=O)NC(C(=O)NC(C(=O)NC(C(=O)NC(C(=O)NC(C(=O)NC(C(=O)NC(C(=O)NC(C(=O)NC(C(=O)NC(C(=O)NC(C(=O)NC(C(=O)N9C(C(=O)NCC(=O)NC(C(=O)NC(C(=O)NC(C(=O)NC(C(=O)NC(C(=O)NC(C(=O)NC(C(=O)NC(C(=O)NC(C(=O)NC(C(=O)NC(C(=O)NCC(=O)NC(C(=O)NC(C(=O)NC(C(=O)NC(C(=O)NCC(=O)NC(C(=O)NC(C(=O)NC(C(=O)NCC(=O)NC(C(=O)NCC(=O)NC(C(=O)NC(C(=O)NC(C(=O)NC(C(=O)NC(C(=O)NC(C(=O)N%10C(C(=O)NC(C(=O)NC(C(=O)NC(C(=O)N%11C(C(=O)NC(C(=O)NC(C(=O)NC(C(=O)NC(C(=O)NC(C(=O)NC(C(=O)NC(C(=O)NCC(=O)NC(C(=O)NC(C(=O)NC(C(=O)NCC(=O)NC(C(=O)NC(C(=O)NC(C(=O)NC(C(=O)N%12C(C(=O)NC(C(=O)NCC(=O)NC(C(=O)NC(C(=O)NC(C(=O)NC(C(=O)NC)CC(=O)N)Cc%13ccc(O)cc%13)CO)CCCNC(=[NH2+])N)CC(=O)[O-])CCC%12)Cc%12ccc(O)cc%12)CC(C)C)Cc%12ccc(O)cc%12)Cc%12ccccc%12)CCC(=O)[O-])C)CO)CC(=O)[O-])C(CC)C)CC(C)C)C)CCC(=O)N)Cc%12ccccc%12)CC(C)C)CCC%11)CCCC[NH3+])CC(=O)N)Cc%11[nH]cnc%11)CCC%10)C(CC)C)C(O)C)CCC(=O)N)CC(C)C)C(CC)C)CC(=O)N)CC(=O)[O-])C(O)C)C(C)C)Cc%10ccc(O)cc%10)C(CC)C)C)Cc%10c%11c([nH]c%10)cccc%11)CCC(=O)N)CC(C)C)CCCNC(=[NH2+])N)C(O)C)CS)CO)CC(C)C)CCCNC(=[NH2+])N)Cc%10ccccc%10)C(CC)C)Cc%10ccc(O)cc%10)CO)CCC9)CCCC[NH3+])C(O)C)CO)Cc9ccc(O)cc9)CCCC[NH3+])CCC(=O)N)CC(C)C)CCCNC(=[NH2+])N)C)CCCC[NH3+])C(C)C)CCC(=O)[O-])CC(=O)[O-])Cc9ccc(O)cc9)C(O)C)CC(C)C)Cc9ccccc9)C)CCSC)Cc9ccc(O)cc9)CCC8)Cc8nc[nH]c8)C(O)C)C(C)C)C)CC(C)C)Cc8ccccc8)CC(=O)N)Cc8c9c([nH]c8)cccc9)CC(=O)N)CCCNC(=[NH2+])N)CC(C)C)C(CC)C)CO)Cc8c9c([nH]c8)cccc9)CCC7)CCC(=O)N)Cc7ccccc7)CC(C)C)CCCNC(=[NH2+])N)C(O)C)Cc7ccccc7)C(CC)C)CC(=O)[O-])Cc7ccccc7)CCC(=O)[O-])Cc7ccccc7)C(C)C)CO)C(CC)C)Cc7ccc(O)cc7)CC(=O)[O-])CC(=O)N)CS)C(O)C)CC(C)C)CC(=O)[O-])C(CC)C)C(O)C)CO)CCCC[NH3+])CC(C)C)C)CCSC)C)CCC(=O)[O-])CC(C)C)CO)CO)C(CC)C)CCC(=O)N)Cc7nc[nH]c7)C(C)C)CCC(=O)[O-])Cc7nc[nH]c7)CC(C)C)CS)CCC(=O)N)CCCNC(=[NH2+])N)Cc7ccccc7)C(C)C)CCCC[NH3+])Cc7c8c([nH]c7)cccc8)CCC6)C(C)C)C(CC)C)C(O)C)CCCC[NH3+])CC(=O)[O-])Cc6ccccc6)Cc6ccccc6)CCCC[NH3+])CCCNC(=[NH2+])N)Cc6c7c([nH]c6)cccc7)Cc6ccccc6)CCC(=O)[O-])C)C)CC(=O)[O-])C)CCCC[NH3+])C(O)C)C(CC)C)CCCNC(=[NH2+])N)Cc6ccccc6)CC(=O)N)CC(=O)[O-])CCC(=O)N)Cc6ccccc6)CCC(=O)N)CC(=O)N)CCC5)Cc5ccccc5)C(CC)C)C)CCCC[NH3+])C(CC)C)CCC(=O)[O-])C)CC(C)C)CCSC)Cc5nc[nH]c5)CO)Cc5ccccc5)C(CC)C)CC(C)C)CO)CC(C)C)CCCC[NH3+])C(O)C)CC(C)C)CC(=O)N)CCCNC(=[NH2+])N)CCCNC(=[NH2+])N)CC(=O)[O-])CCC(=O)N)CO)CCC(=O)N)CCC(=O)[O-])CCC(=O)[O-])Cc5ccc(O)cc5)CCSC)CCCNC(=[NH2+])N)CCC(=O)[O-])CCCC[NH3+])CCC(=O)[O-])CCCC[NH3+])Cc5ccccc5)CC(C)C)CCCNC(=[NH2+])N)C(CC)C)C)CCCNC(=[NH2+])N)CCCC[NH3+])CO)CCCC[NH3+])CCCC[NH3+])CCSC)CC(C)C)CO)CC(=O)[O-])C(CC)C)Cc5ccc(O)cc5)C(CC)C)CCCC[NH3+])Cc5ccccc5)Cc5ccc(O)cc5)CCC(=O)[O-])CC(=O)N)CCC(=O)[O-])CO)CC(C)C)CCC(=O)N)C)CC(C)C)CCCC[NH3+])CCC(=O)N)CC(=O)N)CC(=O)[O-])CC(=O)[O-])Cc5ccc(O)cc5)CCCC[NH3+])CO)CC(C)C)C(CC)C)CC(C)C)CCCNC(=[NH2+])N)CC(C)C)Cc5nc[nH]c5)CCC(=O)N)Cc5ccc(O)cc5)C(O)C)CC(=O)[O-])CCC4)CC(C)C)C(CC)C)CC(=O)[O-])CC(C)C)C(CC)C)Cc4ccc(O)cc4)CCC3)CCC2)CO)CC(=O)N)CCCC[NH3+])CC(C)C)CCC(=O)N)CC(C)C)CCCC[NH3+])CCC1)CC(=O)N)CCC(=O)N)CS)CC(C)C)CCCNC(=[NH2+])N)C(C)C)C(C)C)C)CC(=O)[O-])C.OCCO.[UH+3].[Zn+2].[Zn+2].O.O.O.O.O.O.O.O.O.O.O.O.O.O.O.O.O.O.O.O.O.O.O.O.O.O.O.O.O.O.O.O.O.O.O.O.O.O.O.O.O.O.O.O.O.O.O.O.O.O.O.O.O.O.O.O.O.O.O.O.O.O.O.O.O.O.O.O.O.O.O.O.O.O.O.O.O.O.O.O.O.O.O.O.O.O.O.O.O.O.O.O.O.O.O.O.O.O.O.O.O.O.O.O.O.O.O.O.O.O.O.O.O.O.O.O.O.O.O.O.O.O.O.O.O.O.O.O.O.O.O.O.O.O.O.O.O.O.O.O.O.O

>  <rseq>
1

>  <mseq>
71

>  <S>
-7.4752994

>  <rmsd_refine>
0.9885031

>  <E_conf>
-78.952965

>  <E_place>
-63.384132

>  <E_score1>
-12.210291

>  <E_refine>
-36.564159

>  <E_score2>
-7.4752994

>  <Field_2>
PC01

>  <pseq>
71

>  <%C>
57.528416

>  <a_heavy>
30

>  <h_logP>
2.776804

>  <Weight>
398.42099

>  <E_orig>
2

>  <PLIF_raw>
[[36,36,7,45,44,12,10,8],[1774,1774,6345,6345,6345,6345,6345,6345],[141,141,220688,220688,220688,220688,220688,220688],[2,7,10,10,10,10,10,10],[5.6,4.538135936,0.5,0.5,0.5,0.5,0.5,0.5]]

>  <FP:PLIF>
18 19 1 4 37

>  <PLIF_ligidx>
[36,36,36,36,[7,45,44,12,10,8]]

$$$$

  MOE2020           3D

 41 43  0  0  0  0  0  0  0  0999 V2000
   -1.0470   11.1080   23.0690 C   0  0  0  0  0  0  0  0  0  0  0  0
   -0.5000   11.9510   23.4880 H   0  0  0  0  0  0  0  0  0  0  0  0
   -1.4240   10.4950   23.8840 H   0  0  0  0  0  0  0  0  0  0  0  0
   -1.9030   11.4970   22.5180 H   0  0  0  0  0  0  0  0  0  0  0  0
   -0.1490   10.2940   22.1670 C   0  0  0  0  0  0  0  0  0  0  0  0
    0.5560    9.1860   22.6820 C   0  0  0  0  0  0  0  0  0  0  0  0
    0.4610    8.9420   23.7080 H   0  0  0  0  0  0  0  0  0  0  0  0
    1.3560    8.4240   21.8610 C   0  0  0  0  0  0  0  0  0  0  0  0
    1.8860    7.5980   22.2460 H   0  0  0  0  0  0  0  0  0  0  0  0
    1.4870    8.7280   20.4910 C   0  0  0  0  0  0  0  0  0  0  0  0
    2.2420    7.9160   19.6710 N   0  0  0  0  0  0  0  0  0  0  0  0
    2.4200    8.2270   18.4010 C   0  0  0  0  0  0  0  0  0  0  0  0
    3.1960    7.3740   17.4740 C   0  0  0  0  0  0  0  0  0  0  0  0
    3.3020    7.7200   16.3040 O   0  0  0  0  0  0  0  0  0  0  0  0
    3.8290    6.1660   17.7950 N   0  0  0  0  0  0  0  0  0  0  0  0
    4.6820    6.0490   18.9680 C   0  0  0  0  0  0  0  0  0  0  0  0
    4.7710    5.0100   19.2540 H   0  0  0  0  0  0  0  0  0  0  0  0
    4.2490    6.5200   19.8330 H   0  0  0  0  0  0  0  0  0  0  0  0
    6.0740    6.6330   18.6660 C   0  0  0  0  0  0  0  0  0  0  0  0
    5.9360    7.6850   18.4420 H   0  0  0  0  0  0  0  0  0  0  0  0
    6.6910    6.5250   19.5530 H   0  0  0  0  0  0  0  0  0  0  0  0
    6.7960    6.0260   17.4470 C   0  0  0  0  0  0  0  0  0  0  0  0
    7.7910    6.9620   17.0450 O   0  0  0  0  0  0  0  0  0  0  0  0
    8.5150    6.9330   17.6780 H   0  0  0  0  0  0  0  0  0  0  0  0
    7.4990    4.6930   17.8160 C   0  0  0  0  0  0  0  0  0  0  0  0
    6.6290    3.7450   18.1550 F   0  0  0  0  0  0  0  0  0  0  0  0
    8.3540    4.8220   18.8490 F   0  0  0  0  0  0  0  0  0  0  0  0
    8.2180    4.2070   16.8060 F   0  0  0  0  0  0  0  0  0  0  0  0
    5.8030    5.8590   16.2700 C   0  0  0  0  0  0  0  0  0  0  0  0
    5.6710    6.8260   15.7840 H   0  0  0  0  0  0  0  0  0  0  0  0
    6.2130    5.1790   15.5220 H   0  0  0  0  0  0  0  0  0  0  0  0
    4.4110    5.3510   16.7030 C   0  0  0  0  0  0  0  0  0  0  0  0
    3.7540    5.3330   15.8460 H   0  0  0  0  0  0  0  0  0  0  0  0
    4.4750    4.3170   17.0150 H   0  0  0  0  0  0  0  0  0  0  0  0
    1.8260    9.4140   17.8740 C   0  0  0  0  0  0  0  0  0  0  0  0
    1.9860    9.6810   16.8670 H   0  0  0  0  0  0  0  0  0  0  0  0
    1.0370   10.2180   18.6420 C   0  0  0  0  0  0  0  0  0  0  0  0
    0.5860   11.0880   18.2360 H   0  0  0  0  0  0  0  0  0  0  0  0
    0.8300    9.8720   19.9900 C   0  0  0  0  0  0  0  0  0  0  0  0
   -0.0020   10.6350   20.8420 C   0  0  0  0  0  0  0  0  0  0  0  0
   -0.5140   11.4750   20.4450 H   0  0  0  0  0  0  0  0  0  0  0  0
  1  2  1  0  0  0  0
  1  3  1  0  0  0  0
  1  4  1  0  0  0  0
  1  5  1  0  0  0  0
  5  6  1  0  0  0  0
  5 40  2  0  0  0  0
  6  7  1  0  0  0  0
  6  8  2  0  0  0  0
  8  9  1  0  0  0  0
  8 10  1  0  0  0  0
 10 11  1  0  0  0  0
 10 39  2  0  0  0  0
 11 12  2  0  0  0  0
 12 13  1  0  0  0  0
 12 35  1  0  0  0  0
 13 14  2  0  0  0  0
 13 15  1  0  0  0  0
 15 16  1  0  0  0  0
 15 32  1  0  0  0  0
 16 17  1  0  0  0  0
 16 18  1  0  0  0  0
 16 19  1  0  0  0  0
 19 20  1  0  0  0  0
 19 21  1  0  0  0  0
 19 22  1  0  0  0  0
 22 23  1  0  0  0  0
 22 25  1  0  0  0  0
 22 29  1  0  0  0  0
 23 24  1  0  0  0  0
 25 26  1  0  0  0  0
 25 27  1  0  0  0  0
 25 28  1  0  0  0  0
 29 30  1  0  0  0  0
 29 31  1  0  0  0  0
 29 32  1  0  0  0  0
 32 33  1  0  0  0  0
 32 34  1  0  0  0  0
 35 36  1  0  0  0  0
 35 37  2  0  0  0  0
 37 38  1  0  0  0  0
 37 39  1  0  0  0  0
 39 40  1  0  0  0  0
 40 41  1  0  0  0  0
M  END
>  <receptor>
S(=O)(=O)([O-])[O-].S(CCC(NC(=O)C(NC(=O)C(NC(=O)CNC(=O)C(NC(=O)C1N(C(=O)C(NC(=O)C(NC(=O)C(NC(=O)C(NC(=O)C(NC(=O)C(NC(=O)C(NC(=O)C(NC(=O)C(NC(=O)C(NC(=O)C(NC(=O)C(NC(=O)C(NC(=O)C(NC(=O)C(NC(=O)C(NC(=O)C(NC(=O)C(NC(=O)C(NC(=O)CNC(=O)C(NC(=O)C(NC(=O)C(NC(=O)C(NC(=O)C(NC(=O)C(NC(=O)C(NC(=O)C(NC(=O)C(NC(=O)C(NC(=O)C(NC(=O)C(NC(=O)C(NC(=O)C)CCCC[NH3+])C(C)C)C(O)C)CCC(=O)N)CCC(=O)[O-])CCC(=O)N)Cc2ccccc2)CCC(=O)[O-])CC(C)C)Cc2ccc(O)cc2)CS)CCC(=O)[O-])CCSC)CO)C(O)C)Cc2ccccc2)CCC(=O)N)CC(C)C)C[S-])CCCC[NH3+])C(CC)C)C[S-])C)CCC(=O)[O-])CC(=O)N)CC(=O)[O-])CCCC[NH3+])CC(=O)[O-])C(C)C)CCCC[NH3+])C(CC)C)CCC(=O)[O-])CCC1)C[S-])Cc1nc[n-]c1)CC(C)C)C(=O)NC(C(=O)NC(C(=O)NC(C(=O)NC(C(=O)NC(C(=O)NC(C(=O)NC(C(=O)NC(C(=O)NC(C(=O)NC(C(=O)NC(C(=O)NC(C(=O)NCC(=O)NC(C(=O)NCC(=O)NC(C(=O)N1C(C(=O)NC(C(=O)NC(C(=O)NC(C(=O)NC(C(=O)NC(C(=O)NC(C(=O)NC(C(=O)NCC(=O)NC(C(=O)NC(C(=O)N2C(C(=O)NC(C(=O)NC(C(=O)NC(C(=O)NC(C(=O)N3C(C(=O)NC(C(=O)NC(C(=O)[O-])CC(=O)[O-])Cc4ccccc4)CCC3)CC(=O)[O-])C(C)C)C(CC)C)C(CC)C)CCC2)CCC(=O)[O-])C(O)C)CCCC[NH3+])C(CC)C)CCC(=O)[O-])CS)CCCNC(=[NH2+])N)C[S-])Cc2ccccc2)CCC1)C[S-])CCC(=O)N)CC(=O)[O-])CO)CCC(=O)[O-])CCC(=O)N)Cc1c2c([nH]c1)cccc2)C)C(O)C)CC(C)C)C[S-])CO)C(O)C)C[S-])C.S(CCC(NC(=O)C(NC(=O)C(NC(=O)C(NC(=O)C(NC(=O)C(NC(=O)C(NC(=O)C(NC(=O)C(NC(=O)C(NC(=O)C(NC(=O)C(NC(=O)C(NC(=O)C(NC(=O)C(NC(=O)C(NC(=O)C[NH3+])CCC(=O)N)C)C)C)CC(=O)[O-])CCCNC(=[NH2+])N)CCCNC(=[NH2+])N)C(O)C)C(C)C)CCC(=O)[O-])CCCC[NH3+])C(O)C)Cc1c2c([nH]c1)cccc2)C)CC(C)C)C(=O)NC(C(=O)NC(C(=O)NC(C(=O)NC(C(=O)NC(C(=O)NC(C(=O)NC(C(=O)NC(C(=O)NC(C(=O)N1C(C(=O)NC(C(=O)NC(C(=O)NC(C(=O)NC(C(=O)NC(C(=O)NC(C(=O)NC(C(=O)N2C(C(=O)N3C(C(=O)NC(C(=O)NC(C(=O)NC(C(=O)NC(C(=O)NC(C(=O)NC(C(=O)N4C(C(=O)NC(C(=O)NC(C(=O)NC(C(=O)NC(C(=O)NC(C(=O)NC(C(=O)NC(C(=O)NC(C(=O)NC(C(=O)NC(C(=O)NC(C(=O)NC(C(=O)NC(C(=O)NC(C(=O)NC(C(=O)NC(C(=O)NC(C(=O)NC(C(=O)NC(C(=O)NC(C(=O)NC(C(=O)NC(C(=O)NC(C(=O)NC(C(=O)NC(C(=O)NC(C(=O)NC(C(=O)NC(C(=O)NC(C(=O)NC(C(=O)NC(C(=O)NC(C(=O)NC(C(=O)NC(C(=O)NC(C(=O)NC(C(=O)NC(C(=O)NC(C(=O)NC(C(=O)NC(C(=O)NC(C(=O)NC(C(=O)NC(C(=O)NC(C(=O)NC(C(=O)NC(C(=O)NC(C(=O)NC(C(=O)NCC(=O)NC(C(=O)NC(C(=O)NC(C(=O)NC(C(=O)NC(C(=O)NC(C(=O)NC(C(=O)NC(C(=O)NC(C(=O)NC(C(=O)NC(C(=O)NC(C(=O)NC(C(=O)NC(C(=O)NC(C(=O)NC(C(=O)NC(C(=O)NC(C(=O)NC(C(=O)NC(C(=O)NC(C(=O)NC(C(=O)NC(C(=O)NC(C(=O)NC(C(=O)NC(C(=O)NC(C(=O)NC(C(=O)NC(C(=O)NC(C(=O)NC(C(=O)NC(C(=O)NC(C(=O)N5C(C(=O)NC(C(=O)NCC(=O)NC(C(=O)NC(C(=O)NC(C(=O)NCC(=O)NC(C(=O)NC(C(=O)NC(C(=O)NC(C(=O)NC(C(=O)NC(C(=O)NC(C(=O)NC(C(=O)NC(C(=O)NC(C(=O)NC(C(=O)NC(C(=O)NC(C(=O)NC(C(=O)NC(C(=O)NC(C(=O)NC(C(=O)NC(C(=O)NCC(=O)NC(C(=O)NC(C(=O)NC(C(=O)NC(C(=O)NC(C(=O)N6C(C(=O)NC(C(=O)NC(C(=O)NC(C(=O)NC(C(=O)NC(C(=O)NC(C(=O)NC(C(=O)NC(C(=O)NC(C(=O)NC(C(=O)NC(C(=O)NC(C(=O)NC(C(=O)NC(C(=O)NC(C(=O)NC(C(=O)NCC(=O)NC(C(=O)NC(C(=O)NC(C(=O)NC(C(=O)NC(C(=O)NC(C(=O)NC(C(=O)NC(C(=O)NC(C(=O)NC(C(=O)NC(C(=O)NC(C(=O)NC(C(=O)NC(C(=O)NC(C(=O)NC(C(=O)NC(C(=O)NC(C(=O)NC(C(=O)NC(C(=O)NC(C(=O)NC(C(=O)NC(C(=O)NC(C(=O)NC(C(=O)NC(C(=O)NC(C(=O)NC(C(=O)NC(C(=O)NC(C(=O)NC(C(=O)N7C(C(=O)NC(C(=O)NCC(=O)NC(C(=O)NC(C(=O)NC(C(=O)NC(C(=O)NC(C(=O)NC(C(=O)NC(C(=O)NC(C(=O)NC(C(=O)NC(C(=O)NC(C(=O)NC(C(=O)NC(C(=O)N8C(C(=O)NCC(=O)NC(C(=O)NC(C(=O)NC(C(=O)NC(C(=O)NC(C(=O)NC(C(=O)NC(C(=O)NC(C(=O)NC(C(=O)NC(C(=O)NC(C(=O)NC(C(=O)NC(C(=O)NC(C(=O)NC(C(=O)NC(C(=O)NC(C(=O)NC(C(=O)NC(C(=O)NC(C(=O)N9C(C(=O)NCC(=O)NC(C(=O)NC(C(=O)NC(C(=O)NC(C(=O)NC(C(=O)NC(C(=O)NC(C(=O)NC(C(=O)NC(C(=O)NC(C(=O)NC(C(=O)NCC(=O)NC(C(=O)NC(C(=O)NC(C(=O)NC(C(=O)NCC(=O)NC(C(=O)NC(C(=O)NC(C(=O)NCC(=O)NC(C(=O)NCC(=O)NC(C(=O)NC(C(=O)NC(C(=O)NC(C(=O)NC(C(=O)NC(C(=O)N%10C(C(=O)NC(C(=O)NC(C(=O)NC(C(=O)N%11C(C(=O)NC(C(=O)NC(C(=O)NC(C(=O)NC(C(=O)NC(C(=O)NC(C(=O)NC(C(=O)NCC(=O)NC(C(=O)NC(C(=O)NC(C(=O)NCC(=O)NC(C(=O)NC(C(=O)NC(C(=O)NC(C(=O)N%12C(C(=O)NC(C(=O)NCC(=O)NC(C(=O)NC(C(=O)NC(C(=O)NC(C(=O)NC)CC(=O)N)Cc%13ccc(O)cc%13)CO)CCCNC(=[NH2+])N)CC(=O)[O-])CCC%12)Cc%12ccc(O)cc%12)CC(C)C)Cc%12ccc(O)cc%12)Cc%12ccccc%12)CCC(=O)[O-])C)CO)CC(=O)[O-])C(CC)C)CC(C)C)C)CCC(=O)N)Cc%12ccccc%12)CC(C)C)CCC%11)CCCC[NH3+])CC(=O)N)Cc%11[nH]cnc%11)CCC%10)C(CC)C)C(O)C)CCC(=O)N)CC(C)C)C(CC)C)CC(=O)N)CC(=O)[O-])C(O)C)C(C)C)Cc%10ccc(O)cc%10)C(CC)C)C)Cc%10c%11c([nH]c%10)cccc%11)CCC(=O)N)CC(C)C)CCCNC(=[NH2+])N)C(O)C)CS)CO)CC(C)C)CCCNC(=[NH2+])N)Cc%10ccccc%10)C(CC)C)Cc%10ccc(O)cc%10)CO)CCC9)CCCC[NH3+])C(O)C)CO)Cc9ccc(O)cc9)CCCC[NH3+])CCC(=O)N)CC(C)C)CCCNC(=[NH2+])N)C)CCCC[NH3+])C(C)C)CCC(=O)[O-])CC(=O)[O-])Cc9ccc(O)cc9)C(O)C)CC(C)C)Cc9ccccc9)C)CCSC)Cc9ccc(O)cc9)CCC8)Cc8nc[nH]c8)C(O)C)C(C)C)C)CC(C)C)Cc8ccccc8)CC(=O)N)Cc8c9c([nH]c8)cccc9)CC(=O)N)CCCNC(=[NH2+])N)CC(C)C)C(CC)C)CO)Cc8c9c([nH]c8)cccc9)CCC7)CCC(=O)N)Cc7ccccc7)CC(C)C)CCCNC(=[NH2+])N)C(O)C)Cc7ccccc7)C(CC)C)CC(=O)[O-])Cc7ccccc7)CCC(=O)[O-])Cc7ccccc7)C(C)C)CO)C(CC)C)Cc7ccc(O)cc7)CC(=O)[O-])CC(=O)N)CS)C(O)C)CC(C)C)CC(=O)[O-])C(CC)C)C(O)C)CO)CCCC[NH3+])CC(C)C)C)CCSC)C)CCC(=O)[O-])CC(C)C)CO)CO)C(CC)C)CCC(=O)N)Cc7nc[nH]c7)C(C)C)CCC(=O)[O-])Cc7nc[nH]c7)CC(C)C)CS)CCC(=O)N)CCCNC(=[NH2+])N)Cc7ccccc7)C(C)C)CCCC[NH3+])Cc7c8c([nH]c7)cccc8)CCC6)C(C)C)C(CC)C)C(O)C)CCCC[NH3+])CC(=O)[O-])Cc6ccccc6)Cc6ccccc6)CCCC[NH3+])CCCNC(=[NH2+])N)Cc6c7c([nH]c6)cccc7)Cc6ccccc6)CCC(=O)[O-])C)C)CC(=O)[O-])C)CCCC[NH3+])C(O)C)C(CC)C)CCCNC(=[NH2+])N)Cc6ccccc6)CC(=O)N)CC(=O)[O-])CCC(=O)N)Cc6ccccc6)CCC(=O)N)CC(=O)N)CCC5)Cc5ccccc5)C(CC)C)C)CCCC[NH3+])C(CC)C)CCC(=O)[O-])C)CC(C)C)CCSC)Cc5nc[nH]c5)CO)Cc5ccccc5)C(CC)C)CC(C)C)CO)CC(C)C)CCCC[NH3+])C(O)C)CC(C)C)CC(=O)N)CCCNC(=[NH2+])N)CCCNC(=[NH2+])N)CC(=O)[O-])CCC(=O)N)CO)CCC(=O)N)CCC(=O)[O-])CCC(=O)[O-])Cc5ccc(O)cc5)CCSC)CCCNC(=[NH2+])N)CCC(=O)[O-])CCCC[NH3+])CCC(=O)[O-])CCCC[NH3+])Cc5ccccc5)CC(C)C)CCCNC(=[NH2+])N)C(CC)C)C)CCCNC(=[NH2+])N)CCCC[NH3+])CO)CCCC[NH3+])CCCC[NH3+])CCSC)CC(C)C)CO)CC(=O)[O-])C(CC)C)Cc5ccc(O)cc5)C(CC)C)CCCC[NH3+])Cc5ccccc5)Cc5ccc(O)cc5)CCC(=O)[O-])CC(=O)N)CCC(=O)[O-])CO)CC(C)C)CCC(=O)N)C)CC(C)C)CCCC[NH3+])CCC(=O)N)CC(=O)N)CC(=O)[O-])CC(=O)[O-])Cc5ccc(O)cc5)CCCC[NH3+])CO)CC(C)C)C(CC)C)CC(C)C)CCCNC(=[NH2+])N)CC(C)C)Cc5nc[nH]c5)CCC(=O)N)Cc5ccc(O)cc5)C(O)C)CC(=O)[O-])CCC4)CC(C)C)C(CC)C)CC(=O)[O-])CC(C)C)C(CC)C)Cc4ccc(O)cc4)CCC3)CCC2)CO)CC(=O)N)CCCC[NH3+])CC(C)C)CCC(=O)N)CC(C)C)CCCC[NH3+])CCC1)CC(=O)N)CCC(=O)N)CS)CC(C)C)CCCNC(=[NH2+])N)C(C)C)C(C)C)C)CC(=O)[O-])C.OCCO.[UH+3].[Zn+2].[Zn+2].O.O.O.O.O.O.O.O.O.O.O.O.O.O.O.O.O.O.O.O.O.O.O.O.O.O.O.O.O.O.O.O.O.O.O.O.O.O.O.O.O.O.O.O.O.O.O.O.O.O.O.O.O.O.O.O.O.O.O.O.O.O.O.O.O.O.O.O.O.O.O.O.O.O.O.O.O.O.O.O.O.O.O.O.O.O.O.O.O.O.O.O.O.O.O.O.O.O.O.O.O.O.O.O.O.O.O.O.O.O.O.O.O.O.O.O.O.O.O.O.O.O.O.O.O.O.O.O.O.O.O.O.O.O.O.O.O.O.O.O.O.O

>  <rseq>
1

>  <mseq>
72

>  <S>
-7.0213065

>  <rmsd_refine>
0.98476487

>  <E_conf>
109.90487

>  <E_place>
-56.311577

>  <E_score1>
-11.030868

>  <E_refine>
-32.014717

>  <E_score2>
-7.0213065

>  <Field_2>
PC02

>  <pseq>
72

>  <%C>
99.961563

>  <a_heavy>
24

>  <h_logP>
3.2361999

>  <Weight>
338.32898

>  <E_orig>
0

>  <PLIF_raw>
[[14,23],[3751,3722],[263,260],[4,2],[3.3,1.1]]

>  <FP:PLIF>
26 15 16

>  <PLIF_ligidx>
[23,14,14]

$$$$

  MOE2020           3D

 49 52  0  0  0  0  0  0  0  0999 V2000
    6.3120    4.0670   13.5820 C   0  0  0  0  0  0  0  0  0  0  0  0
    6.5780    3.0160   13.5040 H   0  0  0  0  0  0  0  0  0  0  0  0
    6.9090    4.6210   12.8590 H   0  0  0  0  0  0  0  0  0  0  0  0
    5.2620    4.1790   13.3160 H   0  0  0  0  0  0  0  0  0  0  0  0
    6.5490    4.5650   14.9890 C   0  0  0  0  0  0  0  0  0  0  0  0
    7.6360    5.3760   15.2740 C   0  0  0  0  0  0  0  0  0  0  0  0
    8.3080    5.6470   14.5020 H   0  0  0  0  0  0  0  0  0  0  0  0
    7.8430    5.8380   16.5670 C   0  0  0  0  0  0  0  0  0  0  0  0
    8.6610    6.4750   16.7710 H   0  0  0  0  0  0  0  0  0  0  0  0
    6.9810    5.4840   17.5980 C   0  0  0  0  0  0  0  0  0  0  0  0
    7.2920    5.9840   18.9940 C   0  0  0  0  0  0  0  0  0  0  0  0
    8.0270    6.7880   18.9700 H   0  0  0  0  0  0  0  0  0  0  0  0
    7.7030    5.1790   19.6040 H   0  0  0  0  0  0  0  0  0  0  0  0
    6.4000    6.3640   19.4840 H   0  0  0  0  0  0  0  0  0  0  0  0
    5.8670    4.6850   17.3150 C   0  0  0  0  0  0  0  0  0  0  0  0
    4.6230    4.2870   18.5490 S   0  0  0  0  0  0  0  0  0  0  0  0
    3.7270    3.3480   17.9730 O   0  0  0  0  0  0  0  0  0  0  0  0
    5.2630    3.8750   19.7470 O   0  0  0  0  0  0  0  0  0  0  0  0
    3.8170    5.7280   18.8070 N   0  0  0  0  0  0  0  0  0  0  0  0
    2.7440    5.7440   19.8110 C   0  0  0  0  0  0  0  0  0  0  0  0
    3.0830    5.2600   20.7160 H   0  0  0  0  0  0  0  0  0  0  0  0
    1.9280    5.1430   19.4390 H   0  0  0  0  0  0  0  0  0  0  0  0
    2.1950    7.1470   20.1530 C   0  0  0  0  0  0  0  0  0  0  0  0
    1.2630    7.0000   20.6780 H   0  0  0  0  0  0  0  0  0  0  0  0
    2.8650    7.6280   20.8430 H   0  0  0  0  0  0  0  0  0  0  0  0
    1.9970    8.0630   19.0170 N   0  0  0  0  0  0  0  0  0  0  0  0
    1.2190    9.2280   19.0610 C   0  0  0  0  0  0  0  0  0  0  0  0
    1.1180    9.8470   18.0020 O   0  0  0  0  0  0  0  0  0  0  0  0
    0.5380    9.7360   20.2540 C   0  0  0  0  0  0  0  0  0  0  0  0
   -0.4630   10.6890   20.2080 C   0  0  0  0  0  0  0  0  0  0  0  0
   -0.8370   11.1040   19.3070 H   0  0  0  0  0  0  0  0  0  0  0  0
   -0.9290   11.0650   21.4830 C   0  0  0  0  0  0  0  0  0  0  0  0
   -1.8260   11.8920   22.1730 C   0  0  0  0  0  0  0  0  0  0  0  0
   -2.7790   12.8910   21.5590 C   0  0  0  0  0  0  0  0  0  0  0  0
   -3.3070   12.4470   20.7150 H   0  0  0  0  0  0  0  0  0  0  0  0
   -3.5170   13.2200   22.2920 H   0  0  0  0  0  0  0  0  0  0  0  0
   -2.2300   13.7620   21.2020 H   0  0  0  0  0  0  0  0  0  0  0  0
   -1.7190   11.6970   23.4430 N   0  0  0  0  0  0  0  0  0  0  0  0
   -0.7590   10.7490   23.6600 O   0  0  0  0  0  0  0  0  0  0  0  0
   -0.2910   10.3920   22.4570 C   0  0  0  0  0  0  0  0  0  0  0  0
    0.9180    9.3000   21.9210 S   0  0  0  0  0  0  0  0  0  0  0  0
    3.0020    7.9250   17.9520 C   0  0  0  0  0  0  0  0  0  0  0  0
    3.8910    8.4680   18.2360 H   0  0  0  0  0  0  0  0  0  0  0  0
    2.6640    8.3800   17.0320 H   0  0  0  0  0  0  0  0  0  0  0  0
    3.3810    6.4780   17.6370 C   0  0  0  0  0  0  0  0  0  0  0  0
    2.5280    5.9740   17.2140 H   0  0  0  0  0  0  0  0  0  0  0  0
    4.1510    6.4850   16.8790 H   0  0  0  0  0  0  0  0  0  0  0  0
    5.6740    4.2200   16.0110 C   0  0  0  0  0  0  0  0  0  0  0  0
    4.8400    3.6060   15.7880 H   0  0  0  0  0  0  0  0  0  0  0  0
  1  2  1  0  0  0  0
  1  3  1  0  0  0  0
  1  4  1  0  0  0  0
  1  5  1  0  0  0  0
  5  6  1  0  0  0  0
  5 48  2  0  0  0  0
  6  7  1  0  0  0  0
  6  8  2  0  0  0  0
  8  9  1  0  0  0  0
  8 10  1  0  0  0  0
 10 11  1  0  0  0  0
 10 15  2  0  0  0  0
 11 12  1  0  0  0  0
 11 13  1  0  0  0  0
 11 14  1  0  0  0  0
 15 16  1  0  0  0  0
 15 48  1  0  0  0  0
 16 17  2  0  0  0  0
 16 18  2  0  0  0  0
 16 19  1  0  0  0  0
 19 20  1  0  0  0  0
 19 45  1  0  0  0  0
 20 21  1  0  0  0  0
 20 22  1  0  0  0  0
 20 23  1  0  0  0  0
 23 24  1  0  0  0  0
 23 25  1  0  0  0  0
 23 26  1  0  0  0  0
 26 27  1  0  0  0  0
 26 42  1  0  0  0  0
 27 28  2  0  0  0  0
 27 29  1  0  0  0  0
 29 30  2  0  0  0  0
 29 41  1  0  0  0  0
 30 31  1  0  0  0  0
 30 32  1  0  0  0  0
 32 33  1  0  0  0  0
 32 40  2  0  0  0  0
 33 34  1  0  0  0  0
 33 38  2  0  0  0  0
 34 35  1  0  0  0  0
 34 36  1  0  0  0  0
 34 37  1  0  0  0  0
 38 39  1  0  0  0  0
 39 40  1  0  0  0  0
 40 41  1  0  0  0  0
 42 43  1  0  0  0  0
 42 44  1  0  0  0  0
 42 45  1  0  0  0  0
 45 46  1  0  0  0  0
 45 47  1  0  0  0  0
 48 49  1  0  0  0  0
M  END
>  <receptor>
S(=O)(=O)([O-])[O-].S(CCC(NC(=O)C(NC(=O)C(NC(=O)CNC(=O)C(NC(=O)C1N(C(=O)C(NC(=O)C(NC(=O)C(NC(=O)C(NC(=O)C(NC(=O)C(NC(=O)C(NC(=O)C(NC(=O)C(NC(=O)C(NC(=O)C(NC(=O)C(NC(=O)C(NC(=O)C(NC(=O)C(NC(=O)C(NC(=O)C(NC(=O)C(NC(=O)C(NC(=O)CNC(=O)C(NC(=O)C(NC(=O)C(NC(=O)C(NC(=O)C(NC(=O)C(NC(=O)C(NC(=O)C(NC(=O)C(NC(=O)C(NC(=O)C(NC(=O)C(NC(=O)C(NC(=O)C)CCCC[NH3+])C(C)C)C(O)C)CCC(=O)N)CCC(=O)[O-])CCC(=O)N)Cc2ccccc2)CCC(=O)[O-])CC(C)C)Cc2ccc(O)cc2)CS)CCC(=O)[O-])CCSC)CO)C(O)C)Cc2ccccc2)CCC(=O)N)CC(C)C)C[S-])CCCC[NH3+])C(CC)C)C[S-])C)CCC(=O)[O-])CC(=O)N)CC(=O)[O-])CCCC[NH3+])CC(=O)[O-])C(C)C)CCCC[NH3+])C(CC)C)CCC(=O)[O-])CCC1)C[S-])Cc1nc[n-]c1)CC(C)C)C(=O)NC(C(=O)NC(C(=O)NC(C(=O)NC(C(=O)NC(C(=O)NC(C(=O)NC(C(=O)NC(C(=O)NC(C(=O)NC(C(=O)NC(C(=O)NC(C(=O)NCC(=O)NC(C(=O)NCC(=O)NC(C(=O)N1C(C(=O)NC(C(=O)NC(C(=O)NC(C(=O)NC(C(=O)NC(C(=O)NC(C(=O)NC(C(=O)NCC(=O)NC(C(=O)NC(C(=O)N2C(C(=O)NC(C(=O)NC(C(=O)NC(C(=O)NC(C(=O)N3C(C(=O)NC(C(=O)NC(C(=O)[O-])CC(=O)[O-])Cc4ccccc4)CCC3)CC(=O)[O-])C(C)C)C(CC)C)C(CC)C)CCC2)CCC(=O)[O-])C(O)C)CCCC[NH3+])C(CC)C)CCC(=O)[O-])CS)CCCNC(=[NH2+])N)C[S-])Cc2ccccc2)CCC1)C[S-])CCC(=O)N)CC(=O)[O-])CO)CCC(=O)[O-])CCC(=O)N)Cc1c2c([nH]c1)cccc2)C)C(O)C)CC(C)C)C[S-])CO)C(O)C)C[S-])C.S(CCC(NC(=O)C(NC(=O)C(NC(=O)C(NC(=O)C(NC(=O)C(NC(=O)C(NC(=O)C(NC(=O)C(NC(=O)C(NC(=O)C(NC(=O)C(NC(=O)C(NC(=O)C(NC(=O)C(NC(=O)C(NC(=O)C[NH3+])CCC(=O)N)C)C)C)CC(=O)[O-])CCCNC(=[NH2+])N)CCCNC(=[NH2+])N)C(O)C)C(C)C)CCC(=O)[O-])CCCC[NH3+])C(O)C)Cc1c2c([nH]c1)cccc2)C)CC(C)C)C(=O)NC(C(=O)NC(C(=O)NC(C(=O)NC(C(=O)NC(C(=O)NC(C(=O)NC(C(=O)NC(C(=O)NC(C(=O)N1C(C(=O)NC(C(=O)NC(C(=O)NC(C(=O)NC(C(=O)NC(C(=O)NC(C(=O)NC(C(=O)N2C(C(=O)N3C(C(=O)NC(C(=O)NC(C(=O)NC(C(=O)NC(C(=O)NC(C(=O)NC(C(=O)N4C(C(=O)NC(C(=O)NC(C(=O)NC(C(=O)NC(C(=O)NC(C(=O)NC(C(=O)NC(C(=O)NC(C(=O)NC(C(=O)NC(C(=O)NC(C(=O)NC(C(=O)NC(C(=O)NC(C(=O)NC(C(=O)NC(C(=O)NC(C(=O)NC(C(=O)NC(C(=O)NC(C(=O)NC(C(=O)NC(C(=O)NC(C(=O)NC(C(=O)NC(C(=O)NC(C(=O)NC(C(=O)NC(C(=O)NC(C(=O)NC(C(=O)NC(C(=O)NC(C(=O)NC(C(=O)NC(C(=O)NC(C(=O)NC(C(=O)NC(C(=O)NC(C(=O)NC(C(=O)NC(C(=O)NC(C(=O)NC(C(=O)NC(C(=O)NC(C(=O)NC(C(=O)NC(C(=O)NC(C(=O)NC(C(=O)NCC(=O)NC(C(=O)NC(C(=O)NC(C(=O)NC(C(=O)NC(C(=O)NC(C(=O)NC(C(=O)NC(C(=O)NC(C(=O)NC(C(=O)NC(C(=O)NC(C(=O)NC(C(=O)NC(C(=O)NC(C(=O)NC(C(=O)NC(C(=O)NC(C(=O)NC(C(=O)NC(C(=O)NC(C(=O)NC(C(=O)NC(C(=O)NC(C(=O)NC(C(=O)NC(C(=O)NC(C(=O)NC(C(=O)NC(C(=O)NC(C(=O)NC(C(=O)NC(C(=O)NC(C(=O)N5C(C(=O)NC(C(=O)NCC(=O)NC(C(=O)NC(C(=O)NC(C(=O)NCC(=O)NC(C(=O)NC(C(=O)NC(C(=O)NC(C(=O)NC(C(=O)NC(C(=O)NC(C(=O)NC(C(=O)NC(C(=O)NC(C(=O)NC(C(=O)NC(C(=O)NC(C(=O)NC(C(=O)NC(C(=O)NC(C(=O)NC(C(=O)NC(C(=O)NCC(=O)NC(C(=O)NC(C(=O)NC(C(=O)NC(C(=O)NC(C(=O)N6C(C(=O)NC(C(=O)NC(C(=O)NC(C(=O)NC(C(=O)NC(C(=O)NC(C(=O)NC(C(=O)NC(C(=O)NC(C(=O)NC(C(=O)NC(C(=O)NC(C(=O)NC(C(=O)NC(C(=O)NC(C(=O)NC(C(=O)NCC(=O)NC(C(=O)NC(C(=O)NC(C(=O)NC(C(=O)NC(C(=O)NC(C(=O)NC(C(=O)NC(C(=O)NC(C(=O)NC(C(=O)NC(C(=O)NC(C(=O)NC(C(=O)NC(C(=O)NC(C(=O)NC(C(=O)NC(C(=O)NC(C(=O)NC(C(=O)NC(C(=O)NC(C(=O)NC(C(=O)NC(C(=O)NC(C(=O)NC(C(=O)NC(C(=O)NC(C(=O)NC(C(=O)NC(C(=O)NC(C(=O)NC(C(=O)N7C(C(=O)NC(C(=O)NCC(=O)NC(C(=O)NC(C(=O)NC(C(=O)NC(C(=O)NC(C(=O)NC(C(=O)NC(C(=O)NC(C(=O)NC(C(=O)NC(C(=O)NC(C(=O)NC(C(=O)NC(C(=O)N8C(C(=O)NCC(=O)NC(C(=O)NC(C(=O)NC(C(=O)NC(C(=O)NC(C(=O)NC(C(=O)NC(C(=O)NC(C(=O)NC(C(=O)NC(C(=O)NC(C(=O)NC(C(=O)NC(C(=O)NC(C(=O)NC(C(=O)NC(C(=O)NC(C(=O)NC(C(=O)NC(C(=O)NC(C(=O)N9C(C(=O)NCC(=O)NC(C(=O)NC(C(=O)NC(C(=O)NC(C(=O)NC(C(=O)NC(C(=O)NC(C(=O)NC(C(=O)NC(C(=O)NC(C(=O)NC(C(=O)NCC(=O)NC(C(=O)NC(C(=O)NC(C(=O)NC(C(=O)NCC(=O)NC(C(=O)NC(C(=O)NC(C(=O)NCC(=O)NC(C(=O)NCC(=O)NC(C(=O)NC(C(=O)NC(C(=O)NC(C(=O)NC(C(=O)NC(C(=O)N%10C(C(=O)NC(C(=O)NC(C(=O)NC(C(=O)N%11C(C(=O)NC(C(=O)NC(C(=O)NC(C(=O)NC(C(=O)NC(C(=O)NC(C(=O)NC(C(=O)NCC(=O)NC(C(=O)NC(C(=O)NC(C(=O)NCC(=O)NC(C(=O)NC(C(=O)NC(C(=O)NC(C(=O)N%12C(C(=O)NC(C(=O)NCC(=O)NC(C(=O)NC(C(=O)NC(C(=O)NC(C(=O)NC)CC(=O)N)Cc%13ccc(O)cc%13)CO)CCCNC(=[NH2+])N)CC(=O)[O-])CCC%12)Cc%12ccc(O)cc%12)CC(C)C)Cc%12ccc(O)cc%12)Cc%12ccccc%12)CCC(=O)[O-])C)CO)CC(=O)[O-])C(CC)C)CC(C)C)C)CCC(=O)N)Cc%12ccccc%12)CC(C)C)CCC%11)CCCC[NH3+])CC(=O)N)Cc%11[nH]cnc%11)CCC%10)C(CC)C)C(O)C)CCC(=O)N)CC(C)C)C(CC)C)CC(=O)N)CC(=O)[O-])C(O)C)C(C)C)Cc%10ccc(O)cc%10)C(CC)C)C)Cc%10c%11c([nH]c%10)cccc%11)CCC(=O)N)CC(C)C)CCCNC(=[NH2+])N)C(O)C)CS)CO)CC(C)C)CCCNC(=[NH2+])N)Cc%10ccccc%10)C(CC)C)Cc%10ccc(O)cc%10)CO)CCC9)CCCC[NH3+])C(O)C)CO)Cc9ccc(O)cc9)CCCC[NH3+])CCC(=O)N)CC(C)C)CCCNC(=[NH2+])N)C)CCCC[NH3+])C(C)C)CCC(=O)[O-])CC(=O)[O-])Cc9ccc(O)cc9)C(O)C)CC(C)C)Cc9ccccc9)C)CCSC)Cc9ccc(O)cc9)CCC8)Cc8nc[nH]c8)C(O)C)C(C)C)C)CC(C)C)Cc8ccccc8)CC(=O)N)Cc8c9c([nH]c8)cccc9)CC(=O)N)CCCNC(=[NH2+])N)CC(C)C)C(CC)C)CO)Cc8c9c([nH]c8)cccc9)CCC7)CCC(=O)N)Cc7ccccc7)CC(C)C)CCCNC(=[NH2+])N)C(O)C)Cc7ccccc7)C(CC)C)CC(=O)[O-])Cc7ccccc7)CCC(=O)[O-])Cc7ccccc7)C(C)C)CO)C(CC)C)Cc7ccc(O)cc7)CC(=O)[O-])CC(=O)N)CS)C(O)C)CC(C)C)CC(=O)[O-])C(CC)C)C(O)C)CO)CCCC[NH3+])CC(C)C)C)CCSC)C)CCC(=O)[O-])CC(C)C)CO)CO)C(CC)C)CCC(=O)N)Cc7nc[nH]c7)C(C)C)CCC(=O)[O-])Cc7nc[nH]c7)CC(C)C)CS)CCC(=O)N)CCCNC(=[NH2+])N)Cc7ccccc7)C(C)C)CCCC[NH3+])Cc7c8c([nH]c7)cccc8)CCC6)C(C)C)C(CC)C)C(O)C)CCCC[NH3+])CC(=O)[O-])Cc6ccccc6)Cc6ccccc6)CCCC[NH3+])CCCNC(=[NH2+])N)Cc6c7c([nH]c6)cccc7)Cc6ccccc6)CCC(=O)[O-])C)C)CC(=O)[O-])C)CCCC[NH3+])C(O)C)C(CC)C)CCCNC(=[NH2+])N)Cc6ccccc6)CC(=O)N)CC(=O)[O-])CCC(=O)N)Cc6ccccc6)CCC(=O)N)CC(=O)N)CCC5)Cc5ccccc5)C(CC)C)C)CCCC[NH3+])C(CC)C)CCC(=O)[O-])C)CC(C)C)CCSC)Cc5nc[nH]c5)CO)Cc5ccccc5)C(CC)C)CC(C)C)CO)CC(C)C)CCCC[NH3+])C(O)C)CC(C)C)CC(=O)N)CCCNC(=[NH2+])N)CCCNC(=[NH2+])N)CC(=O)[O-])CCC(=O)N)CO)CCC(=O)N)CCC(=O)[O-])CCC(=O)[O-])Cc5ccc(O)cc5)CCSC)CCCNC(=[NH2+])N)CCC(=O)[O-])CCCC[NH3+])CCC(=O)[O-])CCCC[NH3+])Cc5ccccc5)CC(C)C)CCCNC(=[NH2+])N)C(CC)C)C)CCCNC(=[NH2+])N)CCCC[NH3+])CO)CCCC[NH3+])CCCC[NH3+])CCSC)CC(C)C)CO)CC(=O)[O-])C(CC)C)Cc5ccc(O)cc5)C(CC)C)CCCC[NH3+])Cc5ccccc5)Cc5ccc(O)cc5)CCC(=O)[O-])CC(=O)N)CCC(=O)[O-])CO)CC(C)C)CCC(=O)N)C)CC(C)C)CCCC[NH3+])CCC(=O)N)CC(=O)N)CC(=O)[O-])CC(=O)[O-])Cc5ccc(O)cc5)CCCC[NH3+])CO)CC(C)C)C(CC)C)CC(C)C)CCCNC(=[NH2+])N)CC(C)C)Cc5nc[nH]c5)CCC(=O)N)Cc5ccc(O)cc5)C(O)C)CC(=O)[O-])CCC4)CC(C)C)C(CC)C)CC(=O)[O-])CC(C)C)C(CC)C)Cc4ccc(O)cc4)CCC3)CCC2)CO)CC(=O)N)CCCC[NH3+])CC(C)C)CCC(=O)N)CC(C)C)CCCC[NH3+])CCC1)CC(=O)N)CCC(=O)N)CS)CC(C)C)CCCNC(=[NH2+])N)C(C)C)C(C)C)C)CC(=O)[O-])C.OCCO.[UH+3].[Zn+2].[Zn+2].O.O.O.O.O.O.O.O.O.O.O.O.O.O.O.O.O.O.O.O.O.O.O.O.O.O.O.O.O.O.O.O.O.O.O.O.O.O.O.O.O.O.O.O.O.O.O.O.O.O.O.O.O.O.O.O.O.O.O.O.O.O.O.O.O.O.O.O.O.O.O.O.O.O.O.O.O.O.O.O.O.O.O.O.O.O.O.O.O.O.O.O.O.O.O.O.O.O.O.O.O.O.O.O.O.O.O.O.O.O.O.O.O.O.O.O.O.O.O.O.O.O.O.O.O.O.O.O.O.O.O.O.O.O.O.O.O.O.O.O.O.O

>  <rseq>
1

>  <mseq>
73

>  <S>
-8.4042368

>  <rmsd_refine>
1.6734327

>  <E_conf>
116.7292

>  <E_place>
-81.831238

>  <E_score1>
-13.960294

>  <E_refine>
-42.360653

>  <E_score2>
-8.4042368

>  <Field_2>
PC03

>  <pseq>
73

>  <%C>
100

>  <a_heavy>
28

>  <h_logP>
3.8665583

>  <Weight>
419.526

>  <E_orig>
1.3549936

>  <PLIF_raw>
[[41,5,48,15,10,8,6],[5177,3036,3036,3036,3036,3036,3036],[366,219,219,219,219,219,219],[3,10,10,10,10,10,10],[0.7,0.9,0.9,0.9,0.9,0.9,0.9]]

>  <FP:PLIF>
21 17

>  <PLIF_ligidx>
[[5,48,15,10,8,6],41]

$$$$

  MOE2020           3D

 35 39  0  0  0  0  0  0  0  0999 V2000
    1.7980   10.0180   17.2970 O   0  0  0  0  0  0  0  0  0  0  0  0
    2.0730    9.0070   17.9260 C   0  0  0  0  0  0  0  0  0  0  0  0
    2.8200    8.0560   17.2790 O   0  0  0  0  0  0  0  0  0  0  0  0
    3.3100    6.8980   17.8800 C   0  0  0  0  0  0  0  0  0  0  0  0
    3.0030    6.6520   19.1880 C   0  0  0  0  0  0  0  0  0  0  0  0
    2.1850    7.5970   19.8810 C   0  0  0  0  0  0  0  0  0  0  0  0
    1.7560    7.6030   21.1850 N   0  0  0  0  0  0  0  0  0  0  0  0
    1.9920    6.8790   21.8840 H   0  0  0  0  0  0  0  0  0  0  0  0
    1.0020    8.7440   21.4240 C   0  0  0  0  0  0  0  0  0  0  0  0
    0.3760    9.1870   22.5960 C   0  0  0  0  0  0  0  0  0  0  0  0
    0.4430    8.6340   23.4940 H   0  0  0  0  0  0  0  0  0  0  0  0
   -0.3320   10.3750   22.5430 C   0  0  0  0  0  0  0  0  0  0  0  0
   -0.8260   10.7380   23.4080 H   0  0  0  0  0  0  0  0  0  0  0  0
   -0.4050   11.1120   21.3400 C   0  0  0  0  0  0  0  0  0  0  0  0
   -0.9550   12.0170   21.3170 H   0  0  0  0  0  0  0  0  0  0  0  0
    0.2330   10.6650   20.1920 C   0  0  0  0  0  0  0  0  0  0  0  0
    0.1770   11.2230   19.2920 H   0  0  0  0  0  0  0  0  0  0  0  0
    0.9560    9.4600   20.2340 C   0  0  0  0  0  0  0  0  0  0  0  0
    1.7150    8.7360   19.2820 C   0  0  0  0  0  0  0  0  0  0  0  0
    3.6320    5.4670   19.8840 C   0  0  0  0  0  0  0  0  0  0  0  0
    4.5510    5.8190   20.3200 H   0  0  0  0  0  0  0  0  0  0  0  0
    3.0060    5.1110   20.6910 H   0  0  0  0  0  0  0  0  0  0  0  0
    4.0050    4.3070   18.9510 C   0  0  0  0  0  0  0  0  0  0  0  0
    3.1390    3.6640   18.8360 H   0  0  0  0  0  0  0  0  0  0  0  0
    4.7840    3.7160   19.4330 H   0  0  0  0  0  0  0  0  0  0  0  0
    4.4840    4.7540   17.5790 C   0  0  0  0  0  0  0  0  0  0  0  0
    5.2450    3.8800   16.8130 C   0  0  0  0  0  0  0  0  0  0  0  0
    5.4660    2.9210   17.1870 H   0  0  0  0  0  0  0  0  0  0  0  0
    5.7130    4.2550   15.5600 C   0  0  0  0  0  0  0  0  0  0  0  0
    6.2990    3.5840   14.9880 H   0  0  0  0  0  0  0  0  0  0  0  0
    5.4070    5.5130   15.0600 C   0  0  0  0  0  0  0  0  0  0  0  0
    5.7740    5.8010   14.1110 H   0  0  0  0  0  0  0  0  0  0  0  0
    4.6180    6.3850   15.8000 C   0  0  0  0  0  0  0  0  0  0  0  0
    4.3720    7.3270   15.3880 H   0  0  0  0  0  0  0  0  0  0  0  0
    4.1440    6.0190   17.0700 C   0  0  0  0  0  0  0  0  0  0  0  0
  1  2  2  0  0  0  0
  2  3  1  0  0  0  0
  2 19  1  0  0  0  0
  3  4  1  0  0  0  0
  4  5  2  0  0  0  0
  4 35  1  0  0  0  0
  5  6  1  0  0  0  0
  5 20  1  0  0  0  0
  6  7  1  0  0  0  0
  6 19  2  0  0  0  0
  7  8  1  0  0  0  0
  7  9  1  0  0  0  0
  9 10  1  0  0  0  0
  9 18  2  0  0  0  0
 10 11  1  0  0  0  0
 10 12  2  0  0  0  0
 12 13  1  0  0  0  0
 12 14  1  0  0  0  0
 14 15  1  0  0  0  0
 14 16  2  0  0  0  0
 16 17  1  0  0  0  0
 16 18  1  0  0  0  0
 18 19  1  0  0  0  0
 20 21  1  0  0  0  0
 20 22  1  0  0  0  0
 20 23  1  0  0  0  0
 23 24  1  0  0  0  0
 23 25  1  0  0  0  0
 23 26  1  0  0  0  0
 26 27  2  0  0  0  0
 26 35  1  0  0  0  0
 27 28  1  0  0  0  0
 27 29  1  0  0  0  0
 29 30  1  0  0  0  0
 29 31  2  0  0  0  0
 31 32  1  0  0  0  0
 31 33  1  0  0  0  0
 33 34  1  0  0  0  0
 33 35  2  0  0  0  0
M  END
>  <receptor>
S(=O)(=O)([O-])[O-].S(CCC(NC(=O)C(NC(=O)C(NC(=O)CNC(=O)C(NC(=O)C1N(C(=O)C(NC(=O)C(NC(=O)C(NC(=O)C(NC(=O)C(NC(=O)C(NC(=O)C(NC(=O)C(NC(=O)C(NC(=O)C(NC(=O)C(NC(=O)C(NC(=O)C(NC(=O)C(NC(=O)C(NC(=O)C(NC(=O)C(NC(=O)C(NC(=O)C(NC(=O)CNC(=O)C(NC(=O)C(NC(=O)C(NC(=O)C(NC(=O)C(NC(=O)C(NC(=O)C(NC(=O)C(NC(=O)C(NC(=O)C(NC(=O)C(NC(=O)C(NC(=O)C(NC(=O)C)CCCC[NH3+])C(C)C)C(O)C)CCC(=O)N)CCC(=O)[O-])CCC(=O)N)Cc2ccccc2)CCC(=O)[O-])CC(C)C)Cc2ccc(O)cc2)CS)CCC(=O)[O-])CCSC)CO)C(O)C)Cc2ccccc2)CCC(=O)N)CC(C)C)C[S-])CCCC[NH3+])C(CC)C)C[S-])C)CCC(=O)[O-])CC(=O)N)CC(=O)[O-])CCCC[NH3+])CC(=O)[O-])C(C)C)CCCC[NH3+])C(CC)C)CCC(=O)[O-])CCC1)C[S-])Cc1nc[n-]c1)CC(C)C)C(=O)NC(C(=O)NC(C(=O)NC(C(=O)NC(C(=O)NC(C(=O)NC(C(=O)NC(C(=O)NC(C(=O)NC(C(=O)NC(C(=O)NC(C(=O)NC(C(=O)NCC(=O)NC(C(=O)NCC(=O)NC(C(=O)N1C(C(=O)NC(C(=O)NC(C(=O)NC(C(=O)NC(C(=O)NC(C(=O)NC(C(=O)NC(C(=O)NCC(=O)NC(C(=O)NC(C(=O)N2C(C(=O)NC(C(=O)NC(C(=O)NC(C(=O)NC(C(=O)N3C(C(=O)NC(C(=O)NC(C(=O)[O-])CC(=O)[O-])Cc4ccccc4)CCC3)CC(=O)[O-])C(C)C)C(CC)C)C(CC)C)CCC2)CCC(=O)[O-])C(O)C)CCCC[NH3+])C(CC)C)CCC(=O)[O-])CS)CCCNC(=[NH2+])N)C[S-])Cc2ccccc2)CCC1)C[S-])CCC(=O)N)CC(=O)[O-])CO)CCC(=O)[O-])CCC(=O)N)Cc1c2c([nH]c1)cccc2)C)C(O)C)CC(C)C)C[S-])CO)C(O)C)C[S-])C.S(CCC(NC(=O)C(NC(=O)C(NC(=O)C(NC(=O)C(NC(=O)C(NC(=O)C(NC(=O)C(NC(=O)C(NC(=O)C(NC(=O)C(NC(=O)C(NC(=O)C(NC(=O)C(NC(=O)C(NC(=O)C(NC(=O)C[NH3+])CCC(=O)N)C)C)C)CC(=O)[O-])CCCNC(=[NH2+])N)CCCNC(=[NH2+])N)C(O)C)C(C)C)CCC(=O)[O-])CCCC[NH3+])C(O)C)Cc1c2c([nH]c1)cccc2)C)CC(C)C)C(=O)NC(C(=O)NC(C(=O)NC(C(=O)NC(C(=O)NC(C(=O)NC(C(=O)NC(C(=O)NC(C(=O)NC(C(=O)N1C(C(=O)NC(C(=O)NC(C(=O)NC(C(=O)NC(C(=O)NC(C(=O)NC(C(=O)NC(C(=O)N2C(C(=O)N3C(C(=O)NC(C(=O)NC(C(=O)NC(C(=O)NC(C(=O)NC(C(=O)NC(C(=O)N4C(C(=O)NC(C(=O)NC(C(=O)NC(C(=O)NC(C(=O)NC(C(=O)NC(C(=O)NC(C(=O)NC(C(=O)NC(C(=O)NC(C(=O)NC(C(=O)NC(C(=O)NC(C(=O)NC(C(=O)NC(C(=O)NC(C(=O)NC(C(=O)NC(C(=O)NC(C(=O)NC(C(=O)NC(C(=O)NC(C(=O)NC(C(=O)NC(C(=O)NC(C(=O)NC(C(=O)NC(C(=O)NC(C(=O)NC(C(=O)NC(C(=O)NC(C(=O)NC(C(=O)NC(C(=O)NC(C(=O)NC(C(=O)NC(C(=O)NC(C(=O)NC(C(=O)NC(C(=O)NC(C(=O)NC(C(=O)NC(C(=O)NC(C(=O)NC(C(=O)NC(C(=O)NC(C(=O)NC(C(=O)NC(C(=O)NCC(=O)NC(C(=O)NC(C(=O)NC(C(=O)NC(C(=O)NC(C(=O)NC(C(=O)NC(C(=O)NC(C(=O)NC(C(=O)NC(C(=O)NC(C(=O)NC(C(=O)NC(C(=O)NC(C(=O)NC(C(=O)NC(C(=O)NC(C(=O)NC(C(=O)NC(C(=O)NC(C(=O)NC(C(=O)NC(C(=O)NC(C(=O)NC(C(=O)NC(C(=O)NC(C(=O)NC(C(=O)NC(C(=O)NC(C(=O)NC(C(=O)NC(C(=O)NC(C(=O)NC(C(=O)N5C(C(=O)NC(C(=O)NCC(=O)NC(C(=O)NC(C(=O)NC(C(=O)NCC(=O)NC(C(=O)NC(C(=O)NC(C(=O)NC(C(=O)NC(C(=O)NC(C(=O)NC(C(=O)NC(C(=O)NC(C(=O)NC(C(=O)NC(C(=O)NC(C(=O)NC(C(=O)NC(C(=O)NC(C(=O)NC(C(=O)NC(C(=O)NC(C(=O)NCC(=O)NC(C(=O)NC(C(=O)NC(C(=O)NC(C(=O)NC(C(=O)N6C(C(=O)NC(C(=O)NC(C(=O)NC(C(=O)NC(C(=O)NC(C(=O)NC(C(=O)NC(C(=O)NC(C(=O)NC(C(=O)NC(C(=O)NC(C(=O)NC(C(=O)NC(C(=O)NC(C(=O)NC(C(=O)NC(C(=O)NCC(=O)NC(C(=O)NC(C(=O)NC(C(=O)NC(C(=O)NC(C(=O)NC(C(=O)NC(C(=O)NC(C(=O)NC(C(=O)NC(C(=O)NC(C(=O)NC(C(=O)NC(C(=O)NC(C(=O)NC(C(=O)NC(C(=O)NC(C(=O)NC(C(=O)NC(C(=O)NC(C(=O)NC(C(=O)NC(C(=O)NC(C(=O)NC(C(=O)NC(C(=O)NC(C(=O)NC(C(=O)NC(C(=O)NC(C(=O)NC(C(=O)NC(C(=O)N7C(C(=O)NC(C(=O)NCC(=O)NC(C(=O)NC(C(=O)NC(C(=O)NC(C(=O)NC(C(=O)NC(C(=O)NC(C(=O)NC(C(=O)NC(C(=O)NC(C(=O)NC(C(=O)NC(C(=O)NC(C(=O)N8C(C(=O)NCC(=O)NC(C(=O)NC(C(=O)NC(C(=O)NC(C(=O)NC(C(=O)NC(C(=O)NC(C(=O)NC(C(=O)NC(C(=O)NC(C(=O)NC(C(=O)NC(C(=O)NC(C(=O)NC(C(=O)NC(C(=O)NC(C(=O)NC(C(=O)NC(C(=O)NC(C(=O)NC(C(=O)N9C(C(=O)NCC(=O)NC(C(=O)NC(C(=O)NC(C(=O)NC(C(=O)NC(C(=O)NC(C(=O)NC(C(=O)NC(C(=O)NC(C(=O)NC(C(=O)NC(C(=O)NCC(=O)NC(C(=O)NC(C(=O)NC(C(=O)NC(C(=O)NCC(=O)NC(C(=O)NC(C(=O)NC(C(=O)NCC(=O)NC(C(=O)NCC(=O)NC(C(=O)NC(C(=O)NC(C(=O)NC(C(=O)NC(C(=O)NC(C(=O)N%10C(C(=O)NC(C(=O)NC(C(=O)NC(C(=O)N%11C(C(=O)NC(C(=O)NC(C(=O)NC(C(=O)NC(C(=O)NC(C(=O)NC(C(=O)NC(C(=O)NCC(=O)NC(C(=O)NC(C(=O)NC(C(=O)NCC(=O)NC(C(=O)NC(C(=O)NC(C(=O)NC(C(=O)N%12C(C(=O)NC(C(=O)NCC(=O)NC(C(=O)NC(C(=O)NC(C(=O)NC(C(=O)NC)CC(=O)N)Cc%13ccc(O)cc%13)CO)CCCNC(=[NH2+])N)CC(=O)[O-])CCC%12)Cc%12ccc(O)cc%12)CC(C)C)Cc%12ccc(O)cc%12)Cc%12ccccc%12)CCC(=O)[O-])C)CO)CC(=O)[O-])C(CC)C)CC(C)C)C)CCC(=O)N)Cc%12ccccc%12)CC(C)C)CCC%11)CCCC[NH3+])CC(=O)N)Cc%11[nH]cnc%11)CCC%10)C(CC)C)C(O)C)CCC(=O)N)CC(C)C)C(CC)C)CC(=O)N)CC(=O)[O-])C(O)C)C(C)C)Cc%10ccc(O)cc%10)C(CC)C)C)Cc%10c%11c([nH]c%10)cccc%11)CCC(=O)N)CC(C)C)CCCNC(=[NH2+])N)C(O)C)CS)CO)CC(C)C)CCCNC(=[NH2+])N)Cc%10ccccc%10)C(CC)C)Cc%10ccc(O)cc%10)CO)CCC9)CCCC[NH3+])C(O)C)CO)Cc9ccc(O)cc9)CCCC[NH3+])CCC(=O)N)CC(C)C)CCCNC(=[NH2+])N)C)CCCC[NH3+])C(C)C)CCC(=O)[O-])CC(=O)[O-])Cc9ccc(O)cc9)C(O)C)CC(C)C)Cc9ccccc9)C)CCSC)Cc9ccc(O)cc9)CCC8)Cc8nc[nH]c8)C(O)C)C(C)C)C)CC(C)C)Cc8ccccc8)CC(=O)N)Cc8c9c([nH]c8)cccc9)CC(=O)N)CCCNC(=[NH2+])N)CC(C)C)C(CC)C)CO)Cc8c9c([nH]c8)cccc9)CCC7)CCC(=O)N)Cc7ccccc7)CC(C)C)CCCNC(=[NH2+])N)C(O)C)Cc7ccccc7)C(CC)C)CC(=O)[O-])Cc7ccccc7)CCC(=O)[O-])Cc7ccccc7)C(C)C)CO)C(CC)C)Cc7ccc(O)cc7)CC(=O)[O-])CC(=O)N)CS)C(O)C)CC(C)C)CC(=O)[O-])C(CC)C)C(O)C)CO)CCCC[NH3+])CC(C)C)C)CCSC)C)CCC(=O)[O-])CC(C)C)CO)CO)C(CC)C)CCC(=O)N)Cc7nc[nH]c7)C(C)C)CCC(=O)[O-])Cc7nc[nH]c7)CC(C)C)CS)CCC(=O)N)CCCNC(=[NH2+])N)Cc7ccccc7)C(C)C)CCCC[NH3+])Cc7c8c([nH]c7)cccc8)CCC6)C(C)C)C(CC)C)C(O)C)CCCC[NH3+])CC(=O)[O-])Cc6ccccc6)Cc6ccccc6)CCCC[NH3+])CCCNC(=[NH2+])N)Cc6c7c([nH]c6)cccc7)Cc6ccccc6)CCC(=O)[O-])C)C)CC(=O)[O-])C)CCCC[NH3+])C(O)C)C(CC)C)CCCNC(=[NH2+])N)Cc6ccccc6)CC(=O)N)CC(=O)[O-])CCC(=O)N)Cc6ccccc6)CCC(=O)N)CC(=O)N)CCC5)Cc5ccccc5)C(CC)C)C)CCCC[NH3+])C(CC)C)CCC(=O)[O-])C)CC(C)C)CCSC)Cc5nc[nH]c5)CO)Cc5ccccc5)C(CC)C)CC(C)C)CO)CC(C)C)CCCC[NH3+])C(O)C)CC(C)C)CC(=O)N)CCCNC(=[NH2+])N)CCCNC(=[NH2+])N)CC(=O)[O-])CCC(=O)N)CO)CCC(=O)N)CCC(=O)[O-])CCC(=O)[O-])Cc5ccc(O)cc5)CCSC)CCCNC(=[NH2+])N)CCC(=O)[O-])CCCC[NH3+])CCC(=O)[O-])CCCC[NH3+])Cc5ccccc5)CC(C)C)CCCNC(=[NH2+])N)C(CC)C)C)CCCNC(=[NH2+])N)CCCC[NH3+])CO)CCCC[NH3+])CCCC[NH3+])CCSC)CC(C)C)CO)CC(=O)[O-])C(CC)C)Cc5ccc(O)cc5)C(CC)C)CCCC[NH3+])Cc5ccccc5)Cc5ccc(O)cc5)CCC(=O)[O-])CC(=O)N)CCC(=O)[O-])CO)CC(C)C)CCC(=O)N)C)CC(C)C)CCCC[NH3+])CCC(=O)N)CC(=O)N)CC(=O)[O-])CC(=O)[O-])Cc5ccc(O)cc5)CCCC[NH3+])CO)CC(C)C)C(CC)C)CC(C)C)CCCNC(=[NH2+])N)CC(C)C)Cc5nc[nH]c5)CCC(=O)N)Cc5ccc(O)cc5)C(O)C)CC(=O)[O-])CCC4)CC(C)C)C(CC)C)CC(=O)[O-])CC(C)C)C(CC)C)Cc4ccc(O)cc4)CCC3)CCC2)CO)CC(=O)N)CCCC[NH3+])CC(C)C)CCC(=O)N)CC(C)C)CCCC[NH3+])CCC1)CC(=O)N)CCC(=O)N)CS)CC(C)C)CCCNC(=[NH2+])N)C(C)C)C(C)C)C)CC(=O)[O-])C.OCCO.[UH+3].[Zn+2].[Zn+2].O.O.O.O.O.O.O.O.O.O.O.O.O.O.O.O.O.O.O.O.O.O.O.O.O.O.O.O.O.O.O.O.O.O.O.O.O.O.O.O.O.O.O.O.O.O.O.O.O.O.O.O.O.O.O.O.O.O.O.O.O.O.O.O.O.O.O.O.O.O.O.O.O.O.O.O.O.O.O.O.O.O.O.O.O.O.O.O.O.O.O.O.O.O.O.O.O.O.O.O.O.O.O.O.O.O.O.O.O.O.O.O.O.O.O.O.O.O.O.O.O.O.O.O.O.O.O.O.O.O.O.O.O.O.O.O.O.O.O.O.O.O

>  <rseq>
1

>  <mseq>
74

>  <S>
-6.5349917

>  <rmsd_refine>
0.56385499

>  <E_conf>
59.810024

>  <E_place>
-83.383064

>  <E_score1>
-10.75729

>  <E_refine>
-30.08185

>  <E_score2>
-6.5349917

>  <Field_2>
PC04

>  <pseq>
74

>  <%C>
100

>  <a_heavy>
22

>  <h_logP>
4.464654

>  <Weight>
287.31799

>  <E_orig>
0

>  <PLIF_raw>
[1,3751,263,4,1.6]

>  <FP:PLIF>
15 16

>  <PLIF_ligidx>
[1,1]

$$$$

  MOE2020           3D

 54 57  0  0  0  0  0  0  0  0999 V2000
    5.2520    7.1590   14.9880 N   0  0  0  0  0  0  0  0  0  0  0  0
    5.7220    7.4610   14.1200 H   0  0  0  0  0  0  0  0  0  0  0  0
    5.1980    7.8480   15.7540 H   0  0  0  0  0  0  0  0  0  0  0  0
    5.3520    5.8430   15.3260 C   0  0  0  0  0  0  0  0  0  0  0  0
    5.7420    5.0280   14.3450 N   0  0  0  0  0  0  0  0  0  0  0  0
    5.8170    3.7320   14.6030 C   0  0  0  0  0  0  0  0  0  0  0  0
    6.1320    3.0870   13.8230 H   0  0  0  0  0  0  0  0  0  0  0  0
    5.5160    3.1900   15.7810 N   0  0  0  0  0  0  0  0  0  0  0  0
    5.1400    3.9870   16.7750 C   0  0  0  0  0  0  0  0  0  0  0  0
    5.0520    5.3730   16.6170 C   0  0  0  0  0  0  0  0  0  0  0  0
    4.7290    6.3070   17.6860 C   0  0  0  0  0  0  0  0  0  0  0  0
    5.3780    7.3350   17.8630 O   0  0  0  0  0  0  0  0  0  0  0  0
    3.6550    6.0850   18.5540 N   0  0  0  0  0  0  0  0  0  0  0  0
    2.7570    7.1720   18.8770 C   0  0  0  0  0  0  0  0  0  0  0  0
    2.1260    7.2600   20.1260 C   0  0  0  0  0  0  0  0  0  0  0  0
    2.2020    6.4870   20.8410 H   0  0  0  0  0  0  0  0  0  0  0  0
    1.3990    8.3970   20.4560 C   0  0  0  0  0  0  0  0  0  0  0  0
    0.9560    8.4510   21.4150 H   0  0  0  0  0  0  0  0  0  0  0  0
    1.2750    9.4580   19.5520 C   0  0  0  0  0  0  0  0  0  0  0  0
    0.5950   10.7780   19.9100 C   0  0  0  0  0  0  0  0  0  0  0  0
    1.3210   11.5450   19.6310 H   0  0  0  0  0  0  0  0  0  0  0  0
   -0.6850   11.0290   19.0930 C   0  0  0  0  0  0  0  0  0  0  0  0
   -1.4380   10.2860   19.3540 H   0  0  0  0  0  0  0  0  0  0  0  0
   -0.4700   10.9390   18.0270 H   0  0  0  0  0  0  0  0  0  0  0  0
   -1.2280   12.4420   19.3620 C   0  0  0  0  0  0  0  0  0  0  0  0
   -0.5030   13.1660   18.9890 H   0  0  0  0  0  0  0  0  0  0  0  0
   -2.1590   12.5760   18.8080 H   0  0  0  0  0  0  0  0  0  0  0  0
   -1.4840   12.6850   20.8640 C   0  0  0  0  0  0  0  0  0  0  0  0
   -2.2660   11.9930   21.1740 H   0  0  0  0  0  0  0  0  0  0  0  0
   -2.0200   14.1040   21.1500 C   0  0  0  0  0  0  0  0  0  0  0  0
   -2.8920   14.2850   20.5180 H   0  0  0  0  0  0  0  0  0  0  0  0
   -2.3590   14.1450   22.1860 H   0  0  0  0  0  0  0  0  0  0  0  0
   -1.0040   15.2300   20.9350 C   0  0  0  0  0  0  0  0  0  0  0  0
   -0.9360   15.7810   19.7250 N   0  0  0  0  0  0  0  0  0  0  0  0
   -0.2770   16.5230   19.5490 H   0  0  0  0  0  0  0  0  0  0  0  0
   -1.5480   15.4570   18.9840 H   0  0  0  0  0  0  0  0  0  0  0  0
   -0.2820   15.6040   21.8580 O   0  0  0  0  0  0  0  0  0  0  0  0
   -0.2280   12.3680   21.7020 C   0  0  0  0  0  0  0  0  0  0  0  0
   -0.4690   12.4500   22.7620 H   0  0  0  0  0  0  0  0  0  0  0  0
    0.5630   13.0810   21.4690 H   0  0  0  0  0  0  0  0  0  0  0  0
    0.2980   10.9580   21.4130 C   0  0  0  0  0  0  0  0  0  0  0  0
    1.2130   10.8020   21.9860 H   0  0  0  0  0  0  0  0  0  0  0  0
   -0.4500   10.2300   21.7310 H   0  0  0  0  0  0  0  0  0  0  0  0
    1.8300    9.3200   18.2780 C   0  0  0  0  0  0  0  0  0  0  0  0
    1.7190   10.0990   17.5680 H   0  0  0  0  0  0  0  0  0  0  0  0
    2.5470    8.1820   17.9330 C   0  0  0  0  0  0  0  0  0  0  0  0
    2.9460    8.0950   16.9590 H   0  0  0  0  0  0  0  0  0  0  0  0
    3.6890    4.8960   19.4200 C   0  0  0  0  0  0  0  0  0  0  0  0
    2.7700    4.3370   19.3280 H   0  0  0  0  0  0  0  0  0  0  0  0
    3.7310    5.2120   20.4490 H   0  0  0  0  0  0  0  0  0  0  0  0
    4.8810    3.9610   19.2230 C   0  0  0  0  0  0  0  0  0  0  0  0
    4.8270    3.1690   19.9660 H   0  0  0  0  0  0  0  0  0  0  0  0
    5.8210    4.4940   19.3680 H   0  0  0  0  0  0  0  0  0  0  0  0
    4.8820    3.3450   17.9350 O   0  0  0  0  0  0  0  0  0  0  0  0
  1  2  1  0  0  0  0
  1  3  1  0  0  0  0
  1  4  1  0  0  0  0
  4  5  1  0  0  0  0
  4 10  2  0  0  0  0
  5  6  2  0  0  0  0
  6  7  1  0  0  0  0
  6  8  1  0  0  0  0
  8  9  2  0  0  0  0
  9 10  1  0  0  0  0
  9 54  1  0  0  0  0
 10 11  1  0  0  0  0
 11 12  2  0  0  0  0
 11 13  1  0  0  0  0
 13 14  1  0  0  0  0
 13 48  1  0  0  0  0
 14 15  1  0  0  0  0
 14 46  2  0  0  0  0
 15 16  1  0  0  0  0
 15 17  2  0  0  0  0
 17 18  1  0  0  0  0
 17 19  1  0  0  0  0
 19 20  1  0  0  0  0
 19 44  2  0  0  0  0
 20 21  1  0  0  0  0
 20 22  1  0  0  0  0
 20 41  1  0  0  0  0
 22 23  1  0  0  0  0
 22 24  1  0  0  0  0
 22 25  1  0  0  0  0
 25 26  1  0  0  0  0
 25 27  1  0  0  0  0
 25 28  1  0  0  0  0
 28 29  1  0  0  0  0
 28 30  1  0  0  0  0
 28 38  1  0  0  0  0
 30 31  1  0  0  0  0
 30 32  1  0  0  0  0
 30 33  1  0  0  0  0
 33 34  1  0  0  0  0
 33 37  2  0  0  0  0
 34 35  1  0  0  0  0
 34 36  1  0  0  0  0
 38 39  1  0  0  0  0
 38 40  1  0  0  0  0
 38 41  1  0  0  0  0
 41 42  1  0  0  0  0
 41 43  1  0  0  0  0
 44 45  1  0  0  0  0
 44 46  1  0  0  0  0
 46 47  1  0  0  0  0
 48 49  1  0  0  0  0
 48 50  1  0  0  0  0
 48 51  1  0  0  0  0
 51 52  1  0  0  0  0
 51 53  1  0  0  0  0
 51 54  1  0  0  0  0
M  END
>  <receptor>
S(=O)(=O)([O-])[O-].S(CCC(NC(=O)C(NC(=O)C(NC(=O)CNC(=O)C(NC(=O)C1N(C(=O)C(NC(=O)C(NC(=O)C(NC(=O)C(NC(=O)C(NC(=O)C(NC(=O)C(NC(=O)C(NC(=O)C(NC(=O)C(NC(=O)C(NC(=O)C(NC(=O)C(NC(=O)C(NC(=O)C(NC(=O)C(NC(=O)C(NC(=O)C(NC(=O)C(NC(=O)CNC(=O)C(NC(=O)C(NC(=O)C(NC(=O)C(NC(=O)C(NC(=O)C(NC(=O)C(NC(=O)C(NC(=O)C(NC(=O)C(NC(=O)C(NC(=O)C(NC(=O)C(NC(=O)C)CCCC[NH3+])C(C)C)C(O)C)CCC(=O)N)CCC(=O)[O-])CCC(=O)N)Cc2ccccc2)CCC(=O)[O-])CC(C)C)Cc2ccc(O)cc2)CS)CCC(=O)[O-])CCSC)CO)C(O)C)Cc2ccccc2)CCC(=O)N)CC(C)C)C[S-])CCCC[NH3+])C(CC)C)C[S-])C)CCC(=O)[O-])CC(=O)N)CC(=O)[O-])CCCC[NH3+])CC(=O)[O-])C(C)C)CCCC[NH3+])C(CC)C)CCC(=O)[O-])CCC1)C[S-])Cc1nc[n-]c1)CC(C)C)C(=O)NC(C(=O)NC(C(=O)NC(C(=O)NC(C(=O)NC(C(=O)NC(C(=O)NC(C(=O)NC(C(=O)NC(C(=O)NC(C(=O)NC(C(=O)NC(C(=O)NCC(=O)NC(C(=O)NCC(=O)NC(C(=O)N1C(C(=O)NC(C(=O)NC(C(=O)NC(C(=O)NC(C(=O)NC(C(=O)NC(C(=O)NC(C(=O)NCC(=O)NC(C(=O)NC(C(=O)N2C(C(=O)NC(C(=O)NC(C(=O)NC(C(=O)NC(C(=O)N3C(C(=O)NC(C(=O)NC(C(=O)[O-])CC(=O)[O-])Cc4ccccc4)CCC3)CC(=O)[O-])C(C)C)C(CC)C)C(CC)C)CCC2)CCC(=O)[O-])C(O)C)CCCC[NH3+])C(CC)C)CCC(=O)[O-])CS)CCCNC(=[NH2+])N)C[S-])Cc2ccccc2)CCC1)C[S-])CCC(=O)N)CC(=O)[O-])CO)CCC(=O)[O-])CCC(=O)N)Cc1c2c([nH]c1)cccc2)C)C(O)C)CC(C)C)C[S-])CO)C(O)C)C[S-])C.S(CCC(NC(=O)C(NC(=O)C(NC(=O)C(NC(=O)C(NC(=O)C(NC(=O)C(NC(=O)C(NC(=O)C(NC(=O)C(NC(=O)C(NC(=O)C(NC(=O)C(NC(=O)C(NC(=O)C(NC(=O)C(NC(=O)C[NH3+])CCC(=O)N)C)C)C)CC(=O)[O-])CCCNC(=[NH2+])N)CCCNC(=[NH2+])N)C(O)C)C(C)C)CCC(=O)[O-])CCCC[NH3+])C(O)C)Cc1c2c([nH]c1)cccc2)C)CC(C)C)C(=O)NC(C(=O)NC(C(=O)NC(C(=O)NC(C(=O)NC(C(=O)NC(C(=O)NC(C(=O)NC(C(=O)NC(C(=O)N1C(C(=O)NC(C(=O)NC(C(=O)NC(C(=O)NC(C(=O)NC(C(=O)NC(C(=O)NC(C(=O)N2C(C(=O)N3C(C(=O)NC(C(=O)NC(C(=O)NC(C(=O)NC(C(=O)NC(C(=O)NC(C(=O)N4C(C(=O)NC(C(=O)NC(C(=O)NC(C(=O)NC(C(=O)NC(C(=O)NC(C(=O)NC(C(=O)NC(C(=O)NC(C(=O)NC(C(=O)NC(C(=O)NC(C(=O)NC(C(=O)NC(C(=O)NC(C(=O)NC(C(=O)NC(C(=O)NC(C(=O)NC(C(=O)NC(C(=O)NC(C(=O)NC(C(=O)NC(C(=O)NC(C(=O)NC(C(=O)NC(C(=O)NC(C(=O)NC(C(=O)NC(C(=O)NC(C(=O)NC(C(=O)NC(C(=O)NC(C(=O)NC(C(=O)NC(C(=O)NC(C(=O)NC(C(=O)NC(C(=O)NC(C(=O)NC(C(=O)NC(C(=O)NC(C(=O)NC(C(=O)NC(C(=O)NC(C(=O)NC(C(=O)NC(C(=O)NC(C(=O)NCC(=O)NC(C(=O)NC(C(=O)NC(C(=O)NC(C(=O)NC(C(=O)NC(C(=O)NC(C(=O)NC(C(=O)NC(C(=O)NC(C(=O)NC(C(=O)NC(C(=O)NC(C(=O)NC(C(=O)NC(C(=O)NC(C(=O)NC(C(=O)NC(C(=O)NC(C(=O)NC(C(=O)NC(C(=O)NC(C(=O)NC(C(=O)NC(C(=O)NC(C(=O)NC(C(=O)NC(C(=O)NC(C(=O)NC(C(=O)NC(C(=O)NC(C(=O)NC(C(=O)NC(C(=O)N5C(C(=O)NC(C(=O)NCC(=O)NC(C(=O)NC(C(=O)NC(C(=O)NCC(=O)NC(C(=O)NC(C(=O)NC(C(=O)NC(C(=O)NC(C(=O)NC(C(=O)NC(C(=O)NC(C(=O)NC(C(=O)NC(C(=O)NC(C(=O)NC(C(=O)NC(C(=O)NC(C(=O)NC(C(=O)NC(C(=O)NC(C(=O)NC(C(=O)NCC(=O)NC(C(=O)NC(C(=O)NC(C(=O)NC(C(=O)NC(C(=O)N6C(C(=O)NC(C(=O)NC(C(=O)NC(C(=O)NC(C(=O)NC(C(=O)NC(C(=O)NC(C(=O)NC(C(=O)NC(C(=O)NC(C(=O)NC(C(=O)NC(C(=O)NC(C(=O)NC(C(=O)NC(C(=O)NC(C(=O)NCC(=O)NC(C(=O)NC(C(=O)NC(C(=O)NC(C(=O)NC(C(=O)NC(C(=O)NC(C(=O)NC(C(=O)NC(C(=O)NC(C(=O)NC(C(=O)NC(C(=O)NC(C(=O)NC(C(=O)NC(C(=O)NC(C(=O)NC(C(=O)NC(C(=O)NC(C(=O)NC(C(=O)NC(C(=O)NC(C(=O)NC(C(=O)NC(C(=O)NC(C(=O)NC(C(=O)NC(C(=O)NC(C(=O)NC(C(=O)NC(C(=O)NC(C(=O)N7C(C(=O)NC(C(=O)NCC(=O)NC(C(=O)NC(C(=O)NC(C(=O)NC(C(=O)NC(C(=O)NC(C(=O)NC(C(=O)NC(C(=O)NC(C(=O)NC(C(=O)NC(C(=O)NC(C(=O)NC(C(=O)N8C(C(=O)NCC(=O)NC(C(=O)NC(C(=O)NC(C(=O)NC(C(=O)NC(C(=O)NC(C(=O)NC(C(=O)NC(C(=O)NC(C(=O)NC(C(=O)NC(C(=O)NC(C(=O)NC(C(=O)NC(C(=O)NC(C(=O)NC(C(=O)NC(C(=O)NC(C(=O)NC(C(=O)NC(C(=O)N9C(C(=O)NCC(=O)NC(C(=O)NC(C(=O)NC(C(=O)NC(C(=O)NC(C(=O)NC(C(=O)NC(C(=O)NC(C(=O)NC(C(=O)NC(C(=O)NC(C(=O)NCC(=O)NC(C(=O)NC(C(=O)NC(C(=O)NC(C(=O)NCC(=O)NC(C(=O)NC(C(=O)NC(C(=O)NCC(=O)NC(C(=O)NCC(=O)NC(C(=O)NC(C(=O)NC(C(=O)NC(C(=O)NC(C(=O)NC(C(=O)N%10C(C(=O)NC(C(=O)NC(C(=O)NC(C(=O)N%11C(C(=O)NC(C(=O)NC(C(=O)NC(C(=O)NC(C(=O)NC(C(=O)NC(C(=O)NC(C(=O)NCC(=O)NC(C(=O)NC(C(=O)NC(C(=O)NCC(=O)NC(C(=O)NC(C(=O)NC(C(=O)NC(C(=O)N%12C(C(=O)NC(C(=O)NCC(=O)NC(C(=O)NC(C(=O)NC(C(=O)NC(C(=O)NC)CC(=O)N)Cc%13ccc(O)cc%13)CO)CCCNC(=[NH2+])N)CC(=O)[O-])CCC%12)Cc%12ccc(O)cc%12)CC(C)C)Cc%12ccc(O)cc%12)Cc%12ccccc%12)CCC(=O)[O-])C)CO)CC(=O)[O-])C(CC)C)CC(C)C)C)CCC(=O)N)Cc%12ccccc%12)CC(C)C)CCC%11)CCCC[NH3+])CC(=O)N)Cc%11[nH]cnc%11)CCC%10)C(CC)C)C(O)C)CCC(=O)N)CC(C)C)C(CC)C)CC(=O)N)CC(=O)[O-])C(O)C)C(C)C)Cc%10ccc(O)cc%10)C(CC)C)C)Cc%10c%11c([nH]c%10)cccc%11)CCC(=O)N)CC(C)C)CCCNC(=[NH2+])N)C(O)C)CS)CO)CC(C)C)CCCNC(=[NH2+])N)Cc%10ccccc%10)C(CC)C)Cc%10ccc(O)cc%10)CO)CCC9)CCCC[NH3+])C(O)C)CO)Cc9ccc(O)cc9)CCCC[NH3+])CCC(=O)N)CC(C)C)CCCNC(=[NH2+])N)C)CCCC[NH3+])C(C)C)CCC(=O)[O-])CC(=O)[O-])Cc9ccc(O)cc9)C(O)C)CC(C)C)Cc9ccccc9)C)CCSC)Cc9ccc(O)cc9)CCC8)Cc8nc[nH]c8)C(O)C)C(C)C)C)CC(C)C)Cc8ccccc8)CC(=O)N)Cc8c9c([nH]c8)cccc9)CC(=O)N)CCCNC(=[NH2+])N)CC(C)C)C(CC)C)CO)Cc8c9c([nH]c8)cccc9)CCC7)CCC(=O)N)Cc7ccccc7)CC(C)C)CCCNC(=[NH2+])N)C(O)C)Cc7ccccc7)C(CC)C)CC(=O)[O-])Cc7ccccc7)CCC(=O)[O-])Cc7ccccc7)C(C)C)CO)C(CC)C)Cc7ccc(O)cc7)CC(=O)[O-])CC(=O)N)CS)C(O)C)CC(C)C)CC(=O)[O-])C(CC)C)C(O)C)CO)CCCC[NH3+])CC(C)C)C)CCSC)C)CCC(=O)[O-])CC(C)C)CO)CO)C(CC)C)CCC(=O)N)Cc7nc[nH]c7)C(C)C)CCC(=O)[O-])Cc7nc[nH]c7)CC(C)C)CS)CCC(=O)N)CCCNC(=[NH2+])N)Cc7ccccc7)C(C)C)CCCC[NH3+])Cc7c8c([nH]c7)cccc8)CCC6)C(C)C)C(CC)C)C(O)C)CCCC[NH3+])CC(=O)[O-])Cc6ccccc6)Cc6ccccc6)CCCC[NH3+])CCCNC(=[NH2+])N)Cc6c7c([nH]c6)cccc7)Cc6ccccc6)CCC(=O)[O-])C)C)CC(=O)[O-])C)CCCC[NH3+])C(O)C)C(CC)C)CCCNC(=[NH2+])N)Cc6ccccc6)CC(=O)N)CC(=O)[O-])CCC(=O)N)Cc6ccccc6)CCC(=O)N)CC(=O)N)CCC5)Cc5ccccc5)C(CC)C)C)CCCC[NH3+])C(CC)C)CCC(=O)[O-])C)CC(C)C)CCSC)Cc5nc[nH]c5)CO)Cc5ccccc5)C(CC)C)CC(C)C)CO)CC(C)C)CCCC[NH3+])C(O)C)CC(C)C)CC(=O)N)CCCNC(=[NH2+])N)CCCNC(=[NH2+])N)CC(=O)[O-])CCC(=O)N)CO)CCC(=O)N)CCC(=O)[O-])CCC(=O)[O-])Cc5ccc(O)cc5)CCSC)CCCNC(=[NH2+])N)CCC(=O)[O-])CCCC[NH3+])CCC(=O)[O-])CCCC[NH3+])Cc5ccccc5)CC(C)C)CCCNC(=[NH2+])N)C(CC)C)C)CCCNC(=[NH2+])N)CCCC[NH3+])CO)CCCC[NH3+])CCCC[NH3+])CCSC)CC(C)C)CO)CC(=O)[O-])C(CC)C)Cc5ccc(O)cc5)C(CC)C)CCCC[NH3+])Cc5ccccc5)Cc5ccc(O)cc5)CCC(=O)[O-])CC(=O)N)CCC(=O)[O-])CO)CC(C)C)CCC(=O)N)C)CC(C)C)CCCC[NH3+])CCC(=O)N)CC(=O)N)CC(=O)[O-])CC(=O)[O-])Cc5ccc(O)cc5)CCCC[NH3+])CO)CC(C)C)C(CC)C)CC(C)C)CCCNC(=[NH2+])N)CC(C)C)Cc5nc[nH]c5)CCC(=O)N)Cc5ccc(O)cc5)C(O)C)CC(=O)[O-])CCC4)CC(C)C)C(CC)C)CC(=O)[O-])CC(C)C)C(CC)C)Cc4ccc(O)cc4)CCC3)CCC2)CO)CC(=O)N)CCCC[NH3+])CC(C)C)CCC(=O)N)CC(C)C)CCCC[NH3+])CCC1)CC(=O)N)CCC(=O)N)CS)CC(C)C)CCCNC(=[NH2+])N)C(C)C)C(C)C)C)CC(=O)[O-])C.OCCO.[UH+3].[Zn+2].[Zn+2].O.O.O.O.O.O.O.O.O.O.O.O.O.O.O.O.O.O.O.O.O.O.O.O.O.O.O.O.O.O.O.O.O.O.O.O.O.O.O.O.O.O.O.O.O.O.O.O.O.O.O.O.O.O.O.O.O.O.O.O.O.O.O.O.O.O.O.O.O.O.O.O.O.O.O.O.O.O.O.O.O.O.O.O.O.O.O.O.O.O.O.O.O.O.O.O.O.O.O.O.O.O.O.O.O.O.O.O.O.O.O.O.O.O.O.O.O.O.O.O.O.O.O.O.O.O.O.O.O.O.O.O.O.O.O.O.O.O.O.O.O.O

>  <rseq>
1

>  <mseq>
75

>  <S>
-7.4025254

>  <rmsd_refine>
1.6157975

>  <E_conf>
-136.04945

>  <E_place>
-75.49762

>  <E_score1>
-12.310781

>  <E_refine>
-37.172203

>  <E_score2>
-7.4025254

>  <Field_2>
PC05

>  <pseq>
75

>  <%C>
97.71389

>  <a_heavy>
29

>  <h_logP>
2.6315796

>  <Weight>
395.46298

>  <E_orig>
1

>  <PLIF_raw>
[34,3850,268,1,5.7]

>  <FP:PLIF>
10 11

>  <PLIF_ligidx>
[34,34]

$$$$

  MOE2020           3D

 47 49  0  0  1  0  0  0  0  0999 V2000
    1.0080   11.6020   19.4430 O   0  0  0  0  0  0  0  0  0  0  0  0
   -0.1130   11.2500   19.8070 C   0  0  0  0  0  0  0  0  0  0  0  0
   -1.3590   12.0120   19.3950 C   0  0  0  0  0  0  0  0  0  0  0  0
   -1.0750   13.0190   19.1190 H   0  0  0  0  0  0  0  0  0  0  0  0
   -1.9910   12.1240   20.2660 H   0  0  0  0  0  0  0  0  0  0  0  0
   -2.1860   11.4320   18.2560 C   0  0  0  0  0  0  0  0  0  0  0  0
   -1.6600   10.5040   17.3560 C   0  0  0  0  0  0  0  0  0  0  0  0
   -0.6680   10.1490   17.4690 H   0  0  0  0  0  0  0  0  0  0  0  0
   -2.4270   10.0500   16.2820 C   0  0  0  0  0  0  0  0  0  0  0  0
   -2.0180    9.3520   15.6030 H   0  0  0  0  0  0  0  0  0  0  0  0
   -3.7240   10.5160   16.0870 C   0  0  0  0  0  0  0  0  0  0  0  0
   -4.2900   10.1810   15.2570 H   0  0  0  0  0  0  0  0  0  0  0  0
   -4.2720   11.4260   16.9820 C   0  0  0  0  0  0  0  0  0  0  0  0
   -5.2590   11.7870   16.8480 H   0  0  0  0  0  0  0  0  0  0  0  0
   -3.4980   11.8630   18.0490 C   0  0  0  0  0  0  0  0  0  0  0  0
   -4.0610   12.7500   18.9120 F   0  0  0  0  0  0  0  0  0  0  0  0
   -0.3100   10.2200   20.6420 N   0  0  0  0  0  0  0  0  0  0  0  0
   -1.2620   10.0020   20.8940 H   0  0  0  0  0  0  0  0  0  0  0  0
    0.7200    9.6320   21.5100 C   0  0  2  0  0  0  0  0  0  0  0  0
    0.8490    8.1140   21.2910 C   0  0  0  0  0  0  0  0  0  0  0  0
    1.2910    7.7530   22.2130 H   0  0  0  0  0  0  0  0  0  0  0  0
   -0.1420    7.6730   21.2180 H   0  0  0  0  0  0  0  0  0  0  0  0
    1.7740    7.5580   20.2140 C   0  0  0  0  0  0  0  0  0  0  0  0
    2.3090    6.2870   20.4230 C   0  0  0  0  0  0  0  0  0  0  0  0
    2.0200    5.7210   21.2680 H   0  0  0  0  0  0  0  0  0  0  0  0
    3.2550    5.7560   19.5600 C   0  0  0  0  0  0  0  0  0  0  0  0
    3.6640    4.7990   19.7630 H   0  0  0  0  0  0  0  0  0  0  0  0
    3.6970    6.4820   18.4520 C   0  0  0  0  0  0  0  0  0  0  0  0
    4.8150    5.9740   17.6490 C   0  0  0  0  0  0  0  0  0  0  0  0
    4.7310    5.8760   16.2510 C   0  0  0  0  0  0  0  0  0  0  0  0
    3.8670    6.2060   15.7460 H   0  0  0  0  0  0  0  0  0  0  0  0
    5.7900    5.3330   15.5250 C   0  0  0  0  0  0  0  0  0  0  0  0
    5.6660    5.2120   14.1910 F   0  0  0  0  0  0  0  0  0  0  0  0
    6.9700    4.9000   16.1180 C   0  0  0  0  0  0  0  0  0  0  0  0
    7.7610    4.4980   15.5430 H   0  0  0  0  0  0  0  0  0  0  0  0
    7.0640    5.0200   17.4960 C   0  0  0  0  0  0  0  0  0  0  0  0
    8.1950    4.6140   18.1070 F   0  0  0  0  0  0  0  0  0  0  0  0
    6.0170    5.5490   18.2460 C   0  0  0  0  0  0  0  0  0  0  0  0
    6.1850    5.6610   19.5830 F   0  0  0  0  0  0  0  0  0  0  0  0
    3.0670    7.7050   18.1760 C   0  0  0  0  0  0  0  0  0  0  0  0
    3.3180    8.2420   17.3050 H   0  0  0  0  0  0  0  0  0  0  0  0
    2.1290    8.2450   19.0540 C   0  0  0  0  0  0  0  0  0  0  0  0
    1.7010    9.1890   18.8420 H   0  0  0  0  0  0  0  0  0  0  0  0
    0.3810    9.8930   22.9980 C   0  0  0  0  0  0  0  0  0  0  0  0
    1.2930    9.6980   23.8340 O   0  5  0  0  0  0  0  0  0  0  0  0
   -0.7830   10.2430   23.3010 O   0  0  0  0  0  0  0  0  0  0  0  0
    1.6860   10.0930   21.3120 H   0  0  0  0  0  0  0  0  0  0  0  0
  1  2  2  0  0  0  0
  2  3  1  0  0  0  0
  2 17  1  0  0  0  0
  3  4  1  0  0  0  0
  3  5  1  0  0  0  0
  3  6  1  0  0  0  0
  6  7  1  0  0  0  0
  6 15  2  0  0  0  0
  7  8  1  0  0  0  0
  7  9  2  0  0  0  0
  9 10  1  0  0  0  0
  9 11  1  0  0  0  0
 11 12  1  0  0  0  0
 11 13  2  0  0  0  0
 13 14  1  0  0  0  0
 13 15  1  0  0  0  0
 15 16  1  0  0  0  0
 17 18  1  0  0  0  0
 17 19  1  0  0  0  0
 19 20  1  0  0  0  0
 19 44  1  0  0  0  0
 19 47  1  0  0  0  0
 20 21  1  0  0  0  0
 20 22  1  0  0  0  0
 20 23  1  0  0  0  0
 23 24  1  0  0  0  0
 23 42  2  0  0  0  0
 24 25  1  0  0  0  0
 24 26  2  0  0  0  0
 26 27  1  0  0  0  0
 26 28  1  0  0  0  0
 28 29  1  0  0  0  0
 28 40  2  0  0  0  0
 29 30  1  0  0  0  0
 29 38  2  0  0  0  0
 30 31  1  0  0  0  0
 30 32  2  0  0  0  0
 32 33  1  0  0  0  0
 32 34  1  0  0  0  0
 34 35  1  0  0  0  0
 34 36  2  0  0  0  0
 36 37  1  0  0  0  0
 36 38  1  0  0  0  0
 38 39  1  0  0  0  0
 40 41  1  0  0  0  0
 40 42  1  0  0  0  0
 42 43  1  0  0  0  0
 44 45  1  0  0  0  0
 44 46  2  0  0  0  0
M  CHG  1  45  -1
M  END
>  <receptor>
S(=O)(=O)([O-])[O-].S(CCC(NC(=O)C(NC(=O)C(NC(=O)CNC(=O)C(NC(=O)C1N(C(=O)C(NC(=O)C(NC(=O)C(NC(=O)C(NC(=O)C(NC(=O)C(NC(=O)C(NC(=O)C(NC(=O)C(NC(=O)C(NC(=O)C(NC(=O)C(NC(=O)C(NC(=O)C(NC(=O)C(NC(=O)C(NC(=O)C(NC(=O)C(NC(=O)C(NC(=O)CNC(=O)C(NC(=O)C(NC(=O)C(NC(=O)C(NC(=O)C(NC(=O)C(NC(=O)C(NC(=O)C(NC(=O)C(NC(=O)C(NC(=O)C(NC(=O)C(NC(=O)C(NC(=O)C)CCCC[NH3+])C(C)C)C(O)C)CCC(=O)N)CCC(=O)[O-])CCC(=O)N)Cc2ccccc2)CCC(=O)[O-])CC(C)C)Cc2ccc(O)cc2)CS)CCC(=O)[O-])CCSC)CO)C(O)C)Cc2ccccc2)CCC(=O)N)CC(C)C)C[S-])CCCC[NH3+])C(CC)C)C[S-])C)CCC(=O)[O-])CC(=O)N)CC(=O)[O-])CCCC[NH3+])CC(=O)[O-])C(C)C)CCCC[NH3+])C(CC)C)CCC(=O)[O-])CCC1)C[S-])Cc1nc[n-]c1)CC(C)C)C(=O)NC(C(=O)NC(C(=O)NC(C(=O)NC(C(=O)NC(C(=O)NC(C(=O)NC(C(=O)NC(C(=O)NC(C(=O)NC(C(=O)NC(C(=O)NC(C(=O)NCC(=O)NC(C(=O)NCC(=O)NC(C(=O)N1C(C(=O)NC(C(=O)NC(C(=O)NC(C(=O)NC(C(=O)NC(C(=O)NC(C(=O)NC(C(=O)NCC(=O)NC(C(=O)NC(C(=O)N2C(C(=O)NC(C(=O)NC(C(=O)NC(C(=O)NC(C(=O)N3C(C(=O)NC(C(=O)NC(C(=O)[O-])CC(=O)[O-])Cc4ccccc4)CCC3)CC(=O)[O-])C(C)C)C(CC)C)C(CC)C)CCC2)CCC(=O)[O-])C(O)C)CCCC[NH3+])C(CC)C)CCC(=O)[O-])CS)CCCNC(=[NH2+])N)C[S-])Cc2ccccc2)CCC1)C[S-])CCC(=O)N)CC(=O)[O-])CO)CCC(=O)[O-])CCC(=O)N)Cc1c2c([nH]c1)cccc2)C)C(O)C)CC(C)C)C[S-])CO)C(O)C)C[S-])C.S(CCC(NC(=O)C(NC(=O)C(NC(=O)C(NC(=O)C(NC(=O)C(NC(=O)C(NC(=O)C(NC(=O)C(NC(=O)C(NC(=O)C(NC(=O)C(NC(=O)C(NC(=O)C(NC(=O)C(NC(=O)C(NC(=O)C[NH3+])CCC(=O)N)C)C)C)CC(=O)[O-])CCCNC(=[NH2+])N)CCCNC(=[NH2+])N)C(O)C)C(C)C)CCC(=O)[O-])CCCC[NH3+])C(O)C)Cc1c2c([nH]c1)cccc2)C)CC(C)C)C(=O)NC(C(=O)NC(C(=O)NC(C(=O)NC(C(=O)NC(C(=O)NC(C(=O)NC(C(=O)NC(C(=O)NC(C(=O)N1C(C(=O)NC(C(=O)NC(C(=O)NC(C(=O)NC(C(=O)NC(C(=O)NC(C(=O)NC(C(=O)N2C(C(=O)N3C(C(=O)NC(C(=O)NC(C(=O)NC(C(=O)NC(C(=O)NC(C(=O)NC(C(=O)N4C(C(=O)NC(C(=O)NC(C(=O)NC(C(=O)NC(C(=O)NC(C(=O)NC(C(=O)NC(C(=O)NC(C(=O)NC(C(=O)NC(C(=O)NC(C(=O)NC(C(=O)NC(C(=O)NC(C(=O)NC(C(=O)NC(C(=O)NC(C(=O)NC(C(=O)NC(C(=O)NC(C(=O)NC(C(=O)NC(C(=O)NC(C(=O)NC(C(=O)NC(C(=O)NC(C(=O)NC(C(=O)NC(C(=O)NC(C(=O)NC(C(=O)NC(C(=O)NC(C(=O)NC(C(=O)NC(C(=O)NC(C(=O)NC(C(=O)NC(C(=O)NC(C(=O)NC(C(=O)NC(C(=O)NC(C(=O)NC(C(=O)NC(C(=O)NC(C(=O)NC(C(=O)NC(C(=O)NC(C(=O)NC(C(=O)NCC(=O)NC(C(=O)NC(C(=O)NC(C(=O)NC(C(=O)NC(C(=O)NC(C(=O)NC(C(=O)NC(C(=O)NC(C(=O)NC(C(=O)NC(C(=O)NC(C(=O)NC(C(=O)NC(C(=O)NC(C(=O)NC(C(=O)NC(C(=O)NC(C(=O)NC(C(=O)NC(C(=O)NC(C(=O)NC(C(=O)NC(C(=O)NC(C(=O)NC(C(=O)NC(C(=O)NC(C(=O)NC(C(=O)NC(C(=O)NC(C(=O)NC(C(=O)NC(C(=O)NC(C(=O)N5C(C(=O)NC(C(=O)NCC(=O)NC(C(=O)NC(C(=O)NC(C(=O)NCC(=O)NC(C(=O)NC(C(=O)NC(C(=O)NC(C(=O)NC(C(=O)NC(C(=O)NC(C(=O)NC(C(=O)NC(C(=O)NC(C(=O)NC(C(=O)NC(C(=O)NC(C(=O)NC(C(=O)NC(C(=O)NC(C(=O)NC(C(=O)NC(C(=O)NCC(=O)NC(C(=O)NC(C(=O)NC(C(=O)NC(C(=O)NC(C(=O)N6C(C(=O)NC(C(=O)NC(C(=O)NC(C(=O)NC(C(=O)NC(C(=O)NC(C(=O)NC(C(=O)NC(C(=O)NC(C(=O)NC(C(=O)NC(C(=O)NC(C(=O)NC(C(=O)NC(C(=O)NC(C(=O)NC(C(=O)NCC(=O)NC(C(=O)NC(C(=O)NC(C(=O)NC(C(=O)NC(C(=O)NC(C(=O)NC(C(=O)NC(C(=O)NC(C(=O)NC(C(=O)NC(C(=O)NC(C(=O)NC(C(=O)NC(C(=O)NC(C(=O)NC(C(=O)NC(C(=O)NC(C(=O)NC(C(=O)NC(C(=O)NC(C(=O)NC(C(=O)NC(C(=O)NC(C(=O)NC(C(=O)NC(C(=O)NC(C(=O)NC(C(=O)NC(C(=O)NC(C(=O)NC(C(=O)N7C(C(=O)NC(C(=O)NCC(=O)NC(C(=O)NC(C(=O)NC(C(=O)NC(C(=O)NC(C(=O)NC(C(=O)NC(C(=O)NC(C(=O)NC(C(=O)NC(C(=O)NC(C(=O)NC(C(=O)NC(C(=O)N8C(C(=O)NCC(=O)NC(C(=O)NC(C(=O)NC(C(=O)NC(C(=O)NC(C(=O)NC(C(=O)NC(C(=O)NC(C(=O)NC(C(=O)NC(C(=O)NC(C(=O)NC(C(=O)NC(C(=O)NC(C(=O)NC(C(=O)NC(C(=O)NC(C(=O)NC(C(=O)NC(C(=O)NC(C(=O)N9C(C(=O)NCC(=O)NC(C(=O)NC(C(=O)NC(C(=O)NC(C(=O)NC(C(=O)NC(C(=O)NC(C(=O)NC(C(=O)NC(C(=O)NC(C(=O)NC(C(=O)NCC(=O)NC(C(=O)NC(C(=O)NC(C(=O)NC(C(=O)NCC(=O)NC(C(=O)NC(C(=O)NC(C(=O)NCC(=O)NC(C(=O)NCC(=O)NC(C(=O)NC(C(=O)NC(C(=O)NC(C(=O)NC(C(=O)NC(C(=O)N%10C(C(=O)NC(C(=O)NC(C(=O)NC(C(=O)N%11C(C(=O)NC(C(=O)NC(C(=O)NC(C(=O)NC(C(=O)NC(C(=O)NC(C(=O)NC(C(=O)NCC(=O)NC(C(=O)NC(C(=O)NC(C(=O)NCC(=O)NC(C(=O)NC(C(=O)NC(C(=O)NC(C(=O)N%12C(C(=O)NC(C(=O)NCC(=O)NC(C(=O)NC(C(=O)NC(C(=O)NC(C(=O)NC)CC(=O)N)Cc%13ccc(O)cc%13)CO)CCCNC(=[NH2+])N)CC(=O)[O-])CCC%12)Cc%12ccc(O)cc%12)CC(C)C)Cc%12ccc(O)cc%12)Cc%12ccccc%12)CCC(=O)[O-])C)CO)CC(=O)[O-])C(CC)C)CC(C)C)C)CCC(=O)N)Cc%12ccccc%12)CC(C)C)CCC%11)CCCC[NH3+])CC(=O)N)Cc%11[nH]cnc%11)CCC%10)C(CC)C)C(O)C)CCC(=O)N)CC(C)C)C(CC)C)CC(=O)N)CC(=O)[O-])C(O)C)C(C)C)Cc%10ccc(O)cc%10)C(CC)C)C)Cc%10c%11c([nH]c%10)cccc%11)CCC(=O)N)CC(C)C)CCCNC(=[NH2+])N)C(O)C)CS)CO)CC(C)C)CCCNC(=[NH2+])N)Cc%10ccccc%10)C(CC)C)Cc%10ccc(O)cc%10)CO)CCC9)CCCC[NH3+])C(O)C)CO)Cc9ccc(O)cc9)CCCC[NH3+])CCC(=O)N)CC(C)C)CCCNC(=[NH2+])N)C)CCCC[NH3+])C(C)C)CCC(=O)[O-])CC(=O)[O-])Cc9ccc(O)cc9)C(O)C)CC(C)C)Cc9ccccc9)C)CCSC)Cc9ccc(O)cc9)CCC8)Cc8nc[nH]c8)C(O)C)C(C)C)C)CC(C)C)Cc8ccccc8)CC(=O)N)Cc8c9c([nH]c8)cccc9)CC(=O)N)CCCNC(=[NH2+])N)CC(C)C)C(CC)C)CO)Cc8c9c([nH]c8)cccc9)CCC7)CCC(=O)N)Cc7ccccc7)CC(C)C)CCCNC(=[NH2+])N)C(O)C)Cc7ccccc7)C(CC)C)CC(=O)[O-])Cc7ccccc7)CCC(=O)[O-])Cc7ccccc7)C(C)C)CO)C(CC)C)Cc7ccc(O)cc7)CC(=O)[O-])CC(=O)N)CS)C(O)C)CC(C)C)CC(=O)[O-])C(CC)C)C(O)C)CO)CCCC[NH3+])CC(C)C)C)CCSC)C)CCC(=O)[O-])CC(C)C)CO)CO)C(CC)C)CCC(=O)N)Cc7nc[nH]c7)C(C)C)CCC(=O)[O-])Cc7nc[nH]c7)CC(C)C)CS)CCC(=O)N)CCCNC(=[NH2+])N)Cc7ccccc7)C(C)C)CCCC[NH3+])Cc7c8c([nH]c7)cccc8)CCC6)C(C)C)C(CC)C)C(O)C)CCCC[NH3+])CC(=O)[O-])Cc6ccccc6)Cc6ccccc6)CCCC[NH3+])CCCNC(=[NH2+])N)Cc6c7c([nH]c6)cccc7)Cc6ccccc6)CCC(=O)[O-])C)C)CC(=O)[O-])C)CCCC[NH3+])C(O)C)C(CC)C)CCCNC(=[NH2+])N)Cc6ccccc6)CC(=O)N)CC(=O)[O-])CCC(=O)N)Cc6ccccc6)CCC(=O)N)CC(=O)N)CCC5)Cc5ccccc5)C(CC)C)C)CCCC[NH3+])C(CC)C)CCC(=O)[O-])C)CC(C)C)CCSC)Cc5nc[nH]c5)CO)Cc5ccccc5)C(CC)C)CC(C)C)CO)CC(C)C)CCCC[NH3+])C(O)C)CC(C)C)CC(=O)N)CCCNC(=[NH2+])N)CCCNC(=[NH2+])N)CC(=O)[O-])CCC(=O)N)CO)CCC(=O)N)CCC(=O)[O-])CCC(=O)[O-])Cc5ccc(O)cc5)CCSC)CCCNC(=[NH2+])N)CCC(=O)[O-])CCCC[NH3+])CCC(=O)[O-])CCCC[NH3+])Cc5ccccc5)CC(C)C)CCCNC(=[NH2+])N)C(CC)C)C)CCCNC(=[NH2+])N)CCCC[NH3+])CO)CCCC[NH3+])CCCC[NH3+])CCSC)CC(C)C)CO)CC(=O)[O-])C(CC)C)Cc5ccc(O)cc5)C(CC)C)CCCC[NH3+])Cc5ccccc5)Cc5ccc(O)cc5)CCC(=O)[O-])CC(=O)N)CCC(=O)[O-])CO)CC(C)C)CCC(=O)N)C)CC(C)C)CCCC[NH3+])CCC(=O)N)CC(=O)N)CC(=O)[O-])CC(=O)[O-])Cc5ccc(O)cc5)CCCC[NH3+])CO)CC(C)C)C(CC)C)CC(C)C)CCCNC(=[NH2+])N)CC(C)C)Cc5nc[nH]c5)CCC(=O)N)Cc5ccc(O)cc5)C(O)C)CC(=O)[O-])CCC4)CC(C)C)C(CC)C)CC(=O)[O-])CC(C)C)C(CC)C)Cc4ccc(O)cc4)CCC3)CCC2)CO)CC(=O)N)CCCC[NH3+])CC(C)C)CCC(=O)N)CC(C)C)CCCC[NH3+])CCC1)CC(=O)N)CCC(=O)N)CS)CC(C)C)CCCNC(=[NH2+])N)C(C)C)C(C)C)C)CC(=O)[O-])C.OCCO.[UH+3].[Zn+2].[Zn+2].O.O.O.O.O.O.O.O.O.O.O.O.O.O.O.O.O.O.O.O.O.O.O.O.O.O.O.O.O.O.O.O.O.O.O.O.O.O.O.O.O.O.O.O.O.O.O.O.O.O.O.O.O.O.O.O.O.O.O.O.O.O.O.O.O.O.O.O.O.O.O.O.O.O.O.O.O.O.O.O.O.O.O.O.O.O.O.O.O.O.O.O.O.O.O.O.O.O.O.O.O.O.O.O.O.O.O.O.O.O.O.O.O.O.O.O.O.O.O.O.O.O.O.O.O.O.O.O.O.O.O.O.O.O.O.O.O.O.O.O.O.O

>  <rseq>
1

>  <mseq>
76

>  <S>
-7.8375764

>  <rmsd_refine>
1.5336382

>  <E_conf>
-22.937284

>  <E_place>
-68.533363

>  <E_score1>
-11.62946

>  <E_refine>
-41.132404

>  <E_score2>
-7.8375764

>  <Field_2>
PC06

>  <pseq>
76

>  <%C>
99.865967

>  <a_heavy>
31

>  <h_logP>
5.0133033

>  <Weight>
430.37698

>  <E_orig>
0.99997675

>  <PLIF_raw>
[[19,45,45,45,46,23,42,40,28,26,24],[5184,1777,1771,1777,1771,5181,5181,5181,5181,5181,5181],[366,141,141,141,141,366,366,366,366,366,366],[1,2,7,7,7,10,10,10,10,10,10],[0.5,0.8,2.956466107,5.320796653,0.7817604879,0.5,0.5,0.5,0.5,0.5,0.5]]

>  <FP:PLIF>
18 1 4 8 6

>  <PLIF_ligidx>
[45,[45,45,46],45,19,[23,42,40,28,26,24]]

$$$$

  MOE2020           3D

 50 55  0  0  0  0  0  0  0  0999 V2000
    1.6980    9.9510   17.3470 O   0  0  0  0  0  0  0  0  0  0  0  0
    1.1680    9.4330   18.3270 C   0  0  0  0  0  0  0  0  0  0  0  0
    1.8040    8.2270   18.8350 C   0  0  0  0  0  0  0  0  0  0  0  0
    1.5730    7.4410   19.9360 C   0  0  0  0  0  0  0  0  0  0  0  0
    0.8500    7.6150   20.6890 H   0  0  0  0  0  0  0  0  0  0  0  0
    2.4050    6.3150   19.8680 C   0  0  0  0  0  0  0  0  0  0  0  0
    2.5380    5.1410   20.6530 C   0  0  0  0  0  0  0  0  0  0  0  0
    1.9760    5.0150   21.7670 O   0  5  0  0  0  0  0  0  0  0  0  0
    3.3120    4.1160   20.1710 N   0  0  0  0  0  0  0  0  0  0  0  0
    4.0460    4.2420   19.0710 N   0  0  0  0  0  0  0  0  0  0  0  0
    4.0570    5.3740   18.3490 C   0  0  0  0  0  0  0  0  0  0  0  0
    4.9580    5.4220   17.2280 C   0  0  0  0  0  0  0  0  0  0  0  0
    4.8190    4.4990   16.1740 C   0  0  0  0  0  0  0  0  0  0  0  0
    4.0190    3.8050   16.1900 H   0  0  0  0  0  0  0  0  0  0  0  0
    5.7280    4.4740   15.1270 C   0  0  0  0  0  0  0  0  0  0  0  0
    5.6180    3.7850   14.3300 H   0  0  0  0  0  0  0  0  0  0  0  0
    6.7930    5.3620   15.1510 C   0  0  0  0  0  0  0  0  0  0  0  0
    7.6730    5.3310   14.1330 F   0  0  0  0  0  0  0  0  0  0  0  0
    6.9730    6.2740   16.1870 C   0  0  0  0  0  0  0  0  0  0  0  0
    7.8110    6.9200   16.2010 H   0  0  0  0  0  0  0  0  0  0  0  0
    6.0410    6.3160   17.2130 C   0  0  0  0  0  0  0  0  0  0  0  0
    6.1620    7.0060   18.0080 H   0  0  0  0  0  0  0  0  0  0  0  0
    3.1810    6.4110   18.7320 C   0  0  0  0  0  0  0  0  0  0  0  0
    2.8320    7.5970   18.1220 N   0  0  0  0  0  0  0  0  0  0  0  0
    3.2360    7.9450   17.2370 H   0  0  0  0  0  0  0  0  0  0  0  0
   -0.0420   10.0600   18.8510 C   0  0  0  0  0  0  0  0  0  0  0  0
   -0.3050   10.5200   20.1320 C   0  0  0  0  0  0  0  0  0  0  0  0
    0.2730   10.2470   21.4270 C   0  0  0  0  0  0  0  0  0  0  0  0
    1.6400   10.0320   21.5970 C   0  0  0  0  0  0  0  0  0  0  0  0
    2.2740   10.1000   20.7580 H   0  0  0  0  0  0  0  0  0  0  0  0
    2.1570    9.7080   22.8440 C   0  0  0  0  0  0  0  0  0  0  0  0
    3.1940    9.5300   22.9620 H   0  0  0  0  0  0  0  0  0  0  0  0
    1.3080    9.6190   23.9410 C   0  0  0  0  0  0  0  0  0  0  0  0
    1.6950    9.4000   24.8990 H   0  0  0  0  0  0  0  0  0  0  0  0
   -0.0520    9.8290   23.7790 C   0  0  0  0  0  0  0  0  0  0  0  0
   -0.7090    9.7400   24.5910 H   0  0  0  0  0  0  0  0  0  0  0  0
   -0.5660   10.1530   22.5400 C   0  0  0  0  0  0  0  0  0  0  0  0
   -1.6060   10.3160   22.4430 H   0  0  0  0  0  0  0  0  0  0  0  0
   -1.4160   11.3230   20.0730 N   0  0  0  0  0  0  0  0  0  0  0  0
   -1.8190   11.8340   20.8750 H   0  0  0  0  0  0  0  0  0  0  0  0
   -1.9710   11.2720   18.8260 C   0  0  0  0  0  0  0  0  0  0  0  0
   -3.1500   11.8630   18.3590 C   0  0  0  0  0  0  0  0  0  0  0  0
   -3.7150   12.5170   18.9710 H   0  0  0  0  0  0  0  0  0  0  0  0
   -3.5500   11.5580   17.0720 C   0  0  0  0  0  0  0  0  0  0  0  0
   -4.4340   11.9890   16.6760 H   0  0  0  0  0  0  0  0  0  0  0  0
   -2.7840   10.6710   16.2850 C   0  0  0  0  0  0  0  0  0  0  0  0
   -3.3570   10.2440   14.5430 Br  0  0  0  0  0  0  0  0  0  0  0  0
   -1.6180   10.1070   16.7770 C   0  0  0  0  0  0  0  0  0  0  0  0
   -1.0730    9.4210   16.1970 H   0  0  0  0  0  0  0  0  0  0  0  0
   -1.1650   10.4440   18.0600 C   0  0  0  0  0  0  0  0  0  0  0  0
  1  2  2  0  0  0  0
  2  3  1  0  0  0  0
  2 26  1  0  0  0  0
  3  4  2  0  0  0  0
  3 24  1  0  0  0  0
  4  5  1  0  0  0  0
  4  6  1  0  0  0  0
  6  7  1  0  0  0  0
  6 23  2  0  0  0  0
  7  8  1  0  0  0  0
  7  9  2  0  0  0  0
  9 10  1  0  0  0  0
 10 11  2  0  0  0  0
 11 12  1  0  0  0  0
 11 23  1  0  0  0  0
 12 13  1  0  0  0  0
 12 21  2  0  0  0  0
 13 14  1  0  0  0  0
 13 15  2  0  0  0  0
 15 16  1  0  0  0  0
 15 17  1  0  0  0  0
 17 18  1  0  0  0  0
 17 19  2  0  0  0  0
 19 20  1  0  0  0  0
 19 21  1  0  0  0  0
 21 22  1  0  0  0  0
 23 24  1  0  0  0  0
 24 25  1  0  0  0  0
 26 27  2  0  0  0  0
 26 50  1  0  0  0  0
 27 28  1  0  0  0  0
 27 39  1  0  0  0  0
 28 29  1  0  0  0  0
 28 37  2  0  0  0  0
 29 30  1  0  0  0  0
 29 31  2  0  0  0  0
 31 32  1  0  0  0  0
 31 33  1  0  0  0  0
 33 34  1  0  0  0  0
 33 35  2  0  0  0  0
 35 36  1  0  0  0  0
 35 37  1  0  0  0  0
 37 38  1  0  0  0  0
 39 40  1  0  0  0  0
 39 41  1  0  0  0  0
 41 42  2  0  0  0  0
 41 50  1  0  0  0  0
 42 43  1  0  0  0  0
 42 44  1  0  0  0  0
 44 45  1  0  0  0  0
 44 46  2  0  0  0  0
 46 47  1  0  0  0  0
 46 48  1  0  0  0  0
 48 49  1  0  0  0  0
 48 50  2  0  0  0  0
M  CHG  1   8  -1
M  END
>  <receptor>
S(=O)(=O)([O-])[O-].S(CCC(NC(=O)C(NC(=O)C(NC(=O)CNC(=O)C(NC(=O)C1N(C(=O)C(NC(=O)C(NC(=O)C(NC(=O)C(NC(=O)C(NC(=O)C(NC(=O)C(NC(=O)C(NC(=O)C(NC(=O)C(NC(=O)C(NC(=O)C(NC(=O)C(NC(=O)C(NC(=O)C(NC(=O)C(NC(=O)C(NC(=O)C(NC(=O)C(NC(=O)CNC(=O)C(NC(=O)C(NC(=O)C(NC(=O)C(NC(=O)C(NC(=O)C(NC(=O)C(NC(=O)C(NC(=O)C(NC(=O)C(NC(=O)C(NC(=O)C(NC(=O)C(NC(=O)C)CCCC[NH3+])C(C)C)C(O)C)CCC(=O)N)CCC(=O)[O-])CCC(=O)N)Cc2ccccc2)CCC(=O)[O-])CC(C)C)Cc2ccc(O)cc2)CS)CCC(=O)[O-])CCSC)CO)C(O)C)Cc2ccccc2)CCC(=O)N)CC(C)C)C[S-])CCCC[NH3+])C(CC)C)C[S-])C)CCC(=O)[O-])CC(=O)N)CC(=O)[O-])CCCC[NH3+])CC(=O)[O-])C(C)C)CCCC[NH3+])C(CC)C)CCC(=O)[O-])CCC1)C[S-])Cc1nc[n-]c1)CC(C)C)C(=O)NC(C(=O)NC(C(=O)NC(C(=O)NC(C(=O)NC(C(=O)NC(C(=O)NC(C(=O)NC(C(=O)NC(C(=O)NC(C(=O)NC(C(=O)NC(C(=O)NCC(=O)NC(C(=O)NCC(=O)NC(C(=O)N1C(C(=O)NC(C(=O)NC(C(=O)NC(C(=O)NC(C(=O)NC(C(=O)NC(C(=O)NC(C(=O)NCC(=O)NC(C(=O)NC(C(=O)N2C(C(=O)NC(C(=O)NC(C(=O)NC(C(=O)NC(C(=O)N3C(C(=O)NC(C(=O)NC(C(=O)[O-])CC(=O)[O-])Cc4ccccc4)CCC3)CC(=O)[O-])C(C)C)C(CC)C)C(CC)C)CCC2)CCC(=O)[O-])C(O)C)CCCC[NH3+])C(CC)C)CCC(=O)[O-])CS)CCCNC(=[NH2+])N)C[S-])Cc2ccccc2)CCC1)C[S-])CCC(=O)N)CC(=O)[O-])CO)CCC(=O)[O-])CCC(=O)N)Cc1c2c([nH]c1)cccc2)C)C(O)C)CC(C)C)C[S-])CO)C(O)C)C[S-])C.S(CCC(NC(=O)C(NC(=O)C(NC(=O)C(NC(=O)C(NC(=O)C(NC(=O)C(NC(=O)C(NC(=O)C(NC(=O)C(NC(=O)C(NC(=O)C(NC(=O)C(NC(=O)C(NC(=O)C(NC(=O)C(NC(=O)C[NH3+])CCC(=O)N)C)C)C)CC(=O)[O-])CCCNC(=[NH2+])N)CCCNC(=[NH2+])N)C(O)C)C(C)C)CCC(=O)[O-])CCCC[NH3+])C(O)C)Cc1c2c([nH]c1)cccc2)C)CC(C)C)C(=O)NC(C(=O)NC(C(=O)NC(C(=O)NC(C(=O)NC(C(=O)NC(C(=O)NC(C(=O)NC(C(=O)NC(C(=O)N1C(C(=O)NC(C(=O)NC(C(=O)NC(C(=O)NC(C(=O)NC(C(=O)NC(C(=O)NC(C(=O)N2C(C(=O)N3C(C(=O)NC(C(=O)NC(C(=O)NC(C(=O)NC(C(=O)NC(C(=O)NC(C(=O)N4C(C(=O)NC(C(=O)NC(C(=O)NC(C(=O)NC(C(=O)NC(C(=O)NC(C(=O)NC(C(=O)NC(C(=O)NC(C(=O)NC(C(=O)NC(C(=O)NC(C(=O)NC(C(=O)NC(C(=O)NC(C(=O)NC(C(=O)NC(C(=O)NC(C(=O)NC(C(=O)NC(C(=O)NC(C(=O)NC(C(=O)NC(C(=O)NC(C(=O)NC(C(=O)NC(C(=O)NC(C(=O)NC(C(=O)NC(C(=O)NC(C(=O)NC(C(=O)NC(C(=O)NC(C(=O)NC(C(=O)NC(C(=O)NC(C(=O)NC(C(=O)NC(C(=O)NC(C(=O)NC(C(=O)NC(C(=O)NC(C(=O)NC(C(=O)NC(C(=O)NC(C(=O)NC(C(=O)NC(C(=O)NC(C(=O)NCC(=O)NC(C(=O)NC(C(=O)NC(C(=O)NC(C(=O)NC(C(=O)NC(C(=O)NC(C(=O)NC(C(=O)NC(C(=O)NC(C(=O)NC(C(=O)NC(C(=O)NC(C(=O)NC(C(=O)NC(C(=O)NC(C(=O)NC(C(=O)NC(C(=O)NC(C(=O)NC(C(=O)NC(C(=O)NC(C(=O)NC(C(=O)NC(C(=O)NC(C(=O)NC(C(=O)NC(C(=O)NC(C(=O)NC(C(=O)NC(C(=O)NC(C(=O)NC(C(=O)NC(C(=O)N5C(C(=O)NC(C(=O)NCC(=O)NC(C(=O)NC(C(=O)NC(C(=O)NCC(=O)NC(C(=O)NC(C(=O)NC(C(=O)NC(C(=O)NC(C(=O)NC(C(=O)NC(C(=O)NC(C(=O)NC(C(=O)NC(C(=O)NC(C(=O)NC(C(=O)NC(C(=O)NC(C(=O)NC(C(=O)NC(C(=O)NC(C(=O)NC(C(=O)NCC(=O)NC(C(=O)NC(C(=O)NC(C(=O)NC(C(=O)NC(C(=O)N6C(C(=O)NC(C(=O)NC(C(=O)NC(C(=O)NC(C(=O)NC(C(=O)NC(C(=O)NC(C(=O)NC(C(=O)NC(C(=O)NC(C(=O)NC(C(=O)NC(C(=O)NC(C(=O)NC(C(=O)NC(C(=O)NC(C(=O)NCC(=O)NC(C(=O)NC(C(=O)NC(C(=O)NC(C(=O)NC(C(=O)NC(C(=O)NC(C(=O)NC(C(=O)NC(C(=O)NC(C(=O)NC(C(=O)NC(C(=O)NC(C(=O)NC(C(=O)NC(C(=O)NC(C(=O)NC(C(=O)NC(C(=O)NC(C(=O)NC(C(=O)NC(C(=O)NC(C(=O)NC(C(=O)NC(C(=O)NC(C(=O)NC(C(=O)NC(C(=O)NC(C(=O)NC(C(=O)NC(C(=O)NC(C(=O)N7C(C(=O)NC(C(=O)NCC(=O)NC(C(=O)NC(C(=O)NC(C(=O)NC(C(=O)NC(C(=O)NC(C(=O)NC(C(=O)NC(C(=O)NC(C(=O)NC(C(=O)NC(C(=O)NC(C(=O)NC(C(=O)N8C(C(=O)NCC(=O)NC(C(=O)NC(C(=O)NC(C(=O)NC(C(=O)NC(C(=O)NC(C(=O)NC(C(=O)NC(C(=O)NC(C(=O)NC(C(=O)NC(C(=O)NC(C(=O)NC(C(=O)NC(C(=O)NC(C(=O)NC(C(=O)NC(C(=O)NC(C(=O)NC(C(=O)NC(C(=O)N9C(C(=O)NCC(=O)NC(C(=O)NC(C(=O)NC(C(=O)NC(C(=O)NC(C(=O)NC(C(=O)NC(C(=O)NC(C(=O)NC(C(=O)NC(C(=O)NC(C(=O)NCC(=O)NC(C(=O)NC(C(=O)NC(C(=O)NC(C(=O)NCC(=O)NC(C(=O)NC(C(=O)NC(C(=O)NCC(=O)NC(C(=O)NCC(=O)NC(C(=O)NC(C(=O)NC(C(=O)NC(C(=O)NC(C(=O)NC(C(=O)N%10C(C(=O)NC(C(=O)NC(C(=O)NC(C(=O)N%11C(C(=O)NC(C(=O)NC(C(=O)NC(C(=O)NC(C(=O)NC(C(=O)NC(C(=O)NC(C(=O)NCC(=O)NC(C(=O)NC(C(=O)NC(C(=O)NCC(=O)NC(C(=O)NC(C(=O)NC(C(=O)NC(C(=O)N%12C(C(=O)NC(C(=O)NCC(=O)NC(C(=O)NC(C(=O)NC(C(=O)NC(C(=O)NC)CC(=O)N)Cc%13ccc(O)cc%13)CO)CCCNC(=[NH2+])N)CC(=O)[O-])CCC%12)Cc%12ccc(O)cc%12)CC(C)C)Cc%12ccc(O)cc%12)Cc%12ccccc%12)CCC(=O)[O-])C)CO)CC(=O)[O-])C(CC)C)CC(C)C)C)CCC(=O)N)Cc%12ccccc%12)CC(C)C)CCC%11)CCCC[NH3+])CC(=O)N)Cc%11[nH]cnc%11)CCC%10)C(CC)C)C(O)C)CCC(=O)N)CC(C)C)C(CC)C)CC(=O)N)CC(=O)[O-])C(O)C)C(C)C)Cc%10ccc(O)cc%10)C(CC)C)C)Cc%10c%11c([nH]c%10)cccc%11)CCC(=O)N)CC(C)C)CCCNC(=[NH2+])N)C(O)C)CS)CO)CC(C)C)CCCNC(=[NH2+])N)Cc%10ccccc%10)C(CC)C)Cc%10ccc(O)cc%10)CO)CCC9)CCCC[NH3+])C(O)C)CO)Cc9ccc(O)cc9)CCCC[NH3+])CCC(=O)N)CC(C)C)CCCNC(=[NH2+])N)C)CCCC[NH3+])C(C)C)CCC(=O)[O-])CC(=O)[O-])Cc9ccc(O)cc9)C(O)C)CC(C)C)Cc9ccccc9)C)CCSC)Cc9ccc(O)cc9)CCC8)Cc8nc[nH]c8)C(O)C)C(C)C)C)CC(C)C)Cc8ccccc8)CC(=O)N)Cc8c9c([nH]c8)cccc9)CC(=O)N)CCCNC(=[NH2+])N)CC(C)C)C(CC)C)CO)Cc8c9c([nH]c8)cccc9)CCC7)CCC(=O)N)Cc7ccccc7)CC(C)C)CCCNC(=[NH2+])N)C(O)C)Cc7ccccc7)C(CC)C)CC(=O)[O-])Cc7ccccc7)CCC(=O)[O-])Cc7ccccc7)C(C)C)CO)C(CC)C)Cc7ccc(O)cc7)CC(=O)[O-])CC(=O)N)CS)C(O)C)CC(C)C)CC(=O)[O-])C(CC)C)C(O)C)CO)CCCC[NH3+])CC(C)C)C)CCSC)C)CCC(=O)[O-])CC(C)C)CO)CO)C(CC)C)CCC(=O)N)Cc7nc[nH]c7)C(C)C)CCC(=O)[O-])Cc7nc[nH]c7)CC(C)C)CS)CCC(=O)N)CCCNC(=[NH2+])N)Cc7ccccc7)C(C)C)CCCC[NH3+])Cc7c8c([nH]c7)cccc8)CCC6)C(C)C)C(CC)C)C(O)C)CCCC[NH3+])CC(=O)[O-])Cc6ccccc6)Cc6ccccc6)CCCC[NH3+])CCCNC(=[NH2+])N)Cc6c7c([nH]c6)cccc7)Cc6ccccc6)CCC(=O)[O-])C)C)CC(=O)[O-])C)CCCC[NH3+])C(O)C)C(CC)C)CCCNC(=[NH2+])N)Cc6ccccc6)CC(=O)N)CC(=O)[O-])CCC(=O)N)Cc6ccccc6)CCC(=O)N)CC(=O)N)CCC5)Cc5ccccc5)C(CC)C)C)CCCC[NH3+])C(CC)C)CCC(=O)[O-])C)CC(C)C)CCSC)Cc5nc[nH]c5)CO)Cc5ccccc5)C(CC)C)CC(C)C)CO)CC(C)C)CCCC[NH3+])C(O)C)CC(C)C)CC(=O)N)CCCNC(=[NH2+])N)CCCNC(=[NH2+])N)CC(=O)[O-])CCC(=O)N)CO)CCC(=O)N)CCC(=O)[O-])CCC(=O)[O-])Cc5ccc(O)cc5)CCSC)CCCNC(=[NH2+])N)CCC(=O)[O-])CCCC[NH3+])CCC(=O)[O-])CCCC[NH3+])Cc5ccccc5)CC(C)C)CCCNC(=[NH2+])N)C(CC)C)C)CCCNC(=[NH2+])N)CCCC[NH3+])CO)CCCC[NH3+])CCCC[NH3+])CCSC)CC(C)C)CO)CC(=O)[O-])C(CC)C)Cc5ccc(O)cc5)C(CC)C)CCCC[NH3+])Cc5ccccc5)Cc5ccc(O)cc5)CCC(=O)[O-])CC(=O)N)CCC(=O)[O-])CO)CC(C)C)CCC(=O)N)C)CC(C)C)CCCC[NH3+])CCC(=O)N)CC(=O)N)CC(=O)[O-])CC(=O)[O-])Cc5ccc(O)cc5)CCCC[NH3+])CO)CC(C)C)C(CC)C)CC(C)C)CCCNC(=[NH2+])N)CC(C)C)Cc5nc[nH]c5)CCC(=O)N)Cc5ccc(O)cc5)C(O)C)CC(=O)[O-])CCC4)CC(C)C)C(CC)C)CC(=O)[O-])CC(C)C)C(CC)C)Cc4ccc(O)cc4)CCC3)CCC2)CO)CC(=O)N)CCCC[NH3+])CC(C)C)CCC(=O)N)CC(C)C)CCCC[NH3+])CCC1)CC(=O)N)CCC(=O)N)CS)CC(C)C)CCCNC(=[NH2+])N)C(C)C)C(C)C)C)CC(=O)[O-])C.OCCO.[UH+3].[Zn+2].[Zn+2].O.O.O.O.O.O.O.O.O.O.O.O.O.O.O.O.O.O.O.O.O.O.O.O.O.O.O.O.O.O.O.O.O.O.O.O.O.O.O.O.O.O.O.O.O.O.O.O.O.O.O.O.O.O.O.O.O.O.O.O.O.O.O.O.O.O.O.O.O.O.O.O.O.O.O.O.O.O.O.O.O.O.O.O.O.O.O.O.O.O.O.O.O.O.O.O.O.O.O.O.O.O.O.O.O.O.O.O.O.O.O.O.O.O.O.O.O.O.O.O.O.O.O.O.O.O.O.O.O.O.O.O.O.O.O.O.O.O.O.O.O.O

>  <rseq>
1

>  <mseq>
77

>  <S>
-7.7775493

>  <rmsd_refine>
1.7101899

>  <E_conf>
38.028755

>  <E_place>
-84.615913

>  <E_score1>
-12.601125

>  <E_refine>
-23.990469

>  <E_score2>
-7.7775493

>  <Field_2>
PC07

>  <pseq>
77

>  <%C>
82.748711

>  <a_heavy>
35

>  <h_logP>
6.0196581

>  <Weight>
526.34497

>  <E_orig>
0.4087131

>  <PLIF_raw>
[[1,8,9,3,24,23,6,4,3,24,23,6,4,6,23,11,10,9,7],[3751,6336,6336,3763,3763,3763,3763,3763,5181,5181,5181,5181,5181,5181,5181,5181,5181,5181,5181],[263,220685,220685,263,263,263,263,263,366,366,366,366,366,366,366,366,366,366,366],[4,6,6,10,10,10,10,10,10,10,10,10,10,10,10,10,10,10,10],[1.1,0.9,0.8,0.5,0.5,0.5,0.5,0.5,0.5,0.5,0.5,0.5,0.5,0.5,0.5,0.5,0.5,0.5,0.5]]

>  <FP:PLIF>
15 7 6 45

>  <PLIF_ligidx>
[1,[3,24,23,6,4],[3,24,23,6,4,6,23,11,10,9,7],[8,9]]

$$$$

  MOE2020           3D

 51 54  0  0  1  0  0  0  0  0999 V2000
    2.2460    7.4320   18.1530 O   0  0  0  0  0  0  0  0  0  0  0  0
    2.1520    7.5210   19.3750 C   0  0  0  0  0  0  0  0  0  0  0  0
    2.7680    6.5610   20.1480 N   0  0  0  0  0  0  0  0  0  0  0  0
    2.7620    6.6960   21.1710 H   0  0  0  0  0  0  0  0  0  0  0  0
    3.1100    5.2040   19.7050 C   0  0  0  0  0  0  0  0  0  0  0  0
    2.3310    4.8590   19.0360 H   0  0  0  0  0  0  0  0  0  0  0  0
    3.0630    4.5510   20.5760 H   0  0  0  0  0  0  0  0  0  0  0  0
    4.4840    4.9780   19.0410 C   0  0  2  0  0  0  0  0  0  0  0  0
    5.3810    6.2190   19.0070 C   0  0  0  0  0  0  0  0  0  0  0  0
    4.8310    7.0560   18.5780 H   0  0  0  0  0  0  0  0  0  0  0  0
    5.6850    6.4530   20.0210 H   0  0  0  0  0  0  0  0  0  0  0  0
    6.5620    6.0300   18.2150 O   0  0  0  0  0  0  0  0  0  0  0  0
    6.3980    5.4250   16.9960 C   0  0  0  0  0  0  0  0  0  0  0  0
    7.3420    5.6480   16.0040 C   0  0  0  0  0  0  0  0  0  0  0  0
    8.1640    6.2850   16.1950 H   0  0  0  0  0  0  0  0  0  0  0  0
    7.1810    5.0450   14.7580 C   0  0  0  0  0  0  0  0  0  0  0  0
    7.8840    5.2320   13.9880 H   0  0  0  0  0  0  0  0  0  0  0  0
    6.0950    4.2040   14.5180 C   0  0  0  0  0  0  0  0  0  0  0  0
    5.9860    3.7390   13.5730 H   0  0  0  0  0  0  0  0  0  0  0  0
    5.1510    3.9800   15.5180 C   0  0  0  0  0  0  0  0  0  0  0  0
    4.3260    3.3450   15.3460 H   0  0  0  0  0  0  0  0  0  0  0  0
    5.2920    4.6080   16.7480 C   0  0  0  0  0  0  0  0  0  0  0  0
    4.3150    4.4330   17.7070 O   0  0  0  0  0  0  0  0  0  0  0  0
    1.3680    8.5680   20.0520 C   0  0  0  0  0  0  0  0  0  0  0  0
    1.2970    8.6270   21.4530 C   0  0  0  0  0  0  0  0  0  0  0  0
    1.8760    7.9760   22.0520 H   0  0  0  0  0  0  0  0  0  0  0  0
    0.4520    9.5300   22.0810 C   0  0  0  0  0  0  0  0  0  0  0  0
    0.3980    9.5570   23.1390 H   0  0  0  0  0  0  0  0  0  0  0  0
   -0.3330   10.3920   21.3260 C   0  0  0  0  0  0  0  0  0  0  0  0
   -0.9870   11.0650   21.8190 H   0  0  0  0  0  0  0  0  0  0  0  0
   -0.2670   10.3800   19.9320 C   0  0  0  0  0  0  0  0  0  0  0  0
   -1.3090   11.5170   18.9890 S   0  0  0  0  0  0  0  0  0  0  0  0
   -0.5330   12.0530   17.9230 O   0  0  0  0  0  0  0  0  0  0  0  0
   -1.8540   12.4620   19.9070 O   0  0  0  0  0  0  0  0  0  0  0  0
   -2.5340   10.5560   18.3740 N   0  0  0  0  0  0  0  0  0  0  0  0
   -3.9290   11.0340   18.3540 C   0  0  0  0  0  0  0  0  0  0  0  0
   -4.5820   10.1910   18.5310 H   0  0  0  0  0  0  0  0  0  0  0  0
   -4.1100   11.7280   19.1640 H   0  0  0  0  0  0  0  0  0  0  0  0
   -4.3090   11.6650   17.0060 C   0  0  0  0  0  0  0  0  0  0  0  0
   -3.7230   12.5680   16.8720 H   0  0  0  0  0  0  0  0  0  0  0  0
   -5.3650   11.9350   17.0040 H   0  0  0  0  0  0  0  0  0  0  0  0
   -4.0550   10.7720   15.9260 O   0  0  0  0  0  0  0  0  0  0  0  0
   -2.6910   10.3790   15.8920 C   0  0  0  0  0  0  0  0  0  0  0  0
   -2.5450    9.6920   15.0590 H   0  0  0  0  0  0  0  0  0  0  0  0
   -2.0760   11.2620   15.7200 H   0  0  0  0  0  0  0  0  0  0  0  0
   -2.2800    9.6990   17.2110 C   0  0  0  0  0  0  0  0  0  0  0  0
   -2.8570    8.7930   17.3310 H   0  0  0  0  0  0  0  0  0  0  0  0
   -1.2410    9.4080   17.1700 H   0  0  0  0  0  0  0  0  0  0  0  0
    0.6120    9.4910   19.3070 C   0  0  0  0  0  0  0  0  0  0  0  0
    0.6850    9.4960   18.2500 H   0  0  0  0  0  0  0  0  0  0  0  0
    5.0110    4.2060   19.6040 H   0  0  0  0  0  0  0  0  0  0  0  0
  1  2  2  0  0  0  0
  2  3  1  0  0  0  0
  2 24  1  0  0  0  0
  3  4  1  0  0  0  0
  3  5  1  0  0  0  0
  5  6  1  0  0  0  0
  5  7  1  0  0  0  0
  5  8  1  0  0  0  0
  8  9  1  0  0  0  0
  8 23  1  0  0  0  0
  8 51  1  0  0  0  0
  9 10  1  0  0  0  0
  9 11  1  0  0  0  0
  9 12  1  0  0  0  0
 12 13  1  0  0  0  0
 13 14  1  0  0  0  0
 13 22  2  0  0  0  0
 14 15  1  0  0  0  0
 14 16  2  0  0  0  0
 16 17  1  0  0  0  0
 16 18  1  0  0  0  0
 18 19  1  0  0  0  0
 18 20  2  0  0  0  0
 20 21  1  0  0  0  0
 20 22  1  0  0  0  0
 22 23  1  0  0  0  0
 24 25  1  0  0  0  0
 24 49  2  0  0  0  0
 25 26  1  0  0  0  0
 25 27  2  0  0  0  0
 27 28  1  0  0  0  0
 27 29  1  0  0  0  0
 29 30  1  0  0  0  0
 29 31  2  0  0  0  0
 31 32  1  0  0  0  0
 31 49  1  0  0  0  0
 32 33  2  0  0  0  0
 32 34  2  0  0  0  0
 32 35  1  0  0  0  0
 35 36  1  0  0  0  0
 35 46  1  0  0  0  0
 36 37  1  0  0  0  0
 36 38  1  0  0  0  0
 36 39  1  0  0  0  0
 39 40  1  0  0  0  0
 39 41  1  0  0  0  0
 39 42  1  0  0  0  0
 42 43  1  0  0  0  0
 43 44  1  0  0  0  0
 43 45  1  0  0  0  0
 43 46  1  0  0  0  0
 46 47  1  0  0  0  0
 46 48  1  0  0  0  0
 49 50  1  0  0  0  0
M  END
>  <receptor>
S(=O)(=O)([O-])[O-].S(CCC(NC(=O)C(NC(=O)C(NC(=O)CNC(=O)C(NC(=O)C1N(C(=O)C(NC(=O)C(NC(=O)C(NC(=O)C(NC(=O)C(NC(=O)C(NC(=O)C(NC(=O)C(NC(=O)C(NC(=O)C(NC(=O)C(NC(=O)C(NC(=O)C(NC(=O)C(NC(=O)C(NC(=O)C(NC(=O)C(NC(=O)C(NC(=O)C(NC(=O)CNC(=O)C(NC(=O)C(NC(=O)C(NC(=O)C(NC(=O)C(NC(=O)C(NC(=O)C(NC(=O)C(NC(=O)C(NC(=O)C(NC(=O)C(NC(=O)C(NC(=O)C(NC(=O)C)CCCC[NH3+])C(C)C)C(O)C)CCC(=O)N)CCC(=O)[O-])CCC(=O)N)Cc2ccccc2)CCC(=O)[O-])CC(C)C)Cc2ccc(O)cc2)CS)CCC(=O)[O-])CCSC)CO)C(O)C)Cc2ccccc2)CCC(=O)N)CC(C)C)C[S-])CCCC[NH3+])C(CC)C)C[S-])C)CCC(=O)[O-])CC(=O)N)CC(=O)[O-])CCCC[NH3+])CC(=O)[O-])C(C)C)CCCC[NH3+])C(CC)C)CCC(=O)[O-])CCC1)C[S-])Cc1nc[n-]c1)CC(C)C)C(=O)NC(C(=O)NC(C(=O)NC(C(=O)NC(C(=O)NC(C(=O)NC(C(=O)NC(C(=O)NC(C(=O)NC(C(=O)NC(C(=O)NC(C(=O)NC(C(=O)NCC(=O)NC(C(=O)NCC(=O)NC(C(=O)N1C(C(=O)NC(C(=O)NC(C(=O)NC(C(=O)NC(C(=O)NC(C(=O)NC(C(=O)NC(C(=O)NCC(=O)NC(C(=O)NC(C(=O)N2C(C(=O)NC(C(=O)NC(C(=O)NC(C(=O)NC(C(=O)N3C(C(=O)NC(C(=O)NC(C(=O)[O-])CC(=O)[O-])Cc4ccccc4)CCC3)CC(=O)[O-])C(C)C)C(CC)C)C(CC)C)CCC2)CCC(=O)[O-])C(O)C)CCCC[NH3+])C(CC)C)CCC(=O)[O-])CS)CCCNC(=[NH2+])N)C[S-])Cc2ccccc2)CCC1)C[S-])CCC(=O)N)CC(=O)[O-])CO)CCC(=O)[O-])CCC(=O)N)Cc1c2c([nH]c1)cccc2)C)C(O)C)CC(C)C)C[S-])CO)C(O)C)C[S-])C.S(CCC(NC(=O)C(NC(=O)C(NC(=O)C(NC(=O)C(NC(=O)C(NC(=O)C(NC(=O)C(NC(=O)C(NC(=O)C(NC(=O)C(NC(=O)C(NC(=O)C(NC(=O)C(NC(=O)C(NC(=O)C(NC(=O)C[NH3+])CCC(=O)N)C)C)C)CC(=O)[O-])CCCNC(=[NH2+])N)CCCNC(=[NH2+])N)C(O)C)C(C)C)CCC(=O)[O-])CCCC[NH3+])C(O)C)Cc1c2c([nH]c1)cccc2)C)CC(C)C)C(=O)NC(C(=O)NC(C(=O)NC(C(=O)NC(C(=O)NC(C(=O)NC(C(=O)NC(C(=O)NC(C(=O)NC(C(=O)N1C(C(=O)NC(C(=O)NC(C(=O)NC(C(=O)NC(C(=O)NC(C(=O)NC(C(=O)NC(C(=O)N2C(C(=O)N3C(C(=O)NC(C(=O)NC(C(=O)NC(C(=O)NC(C(=O)NC(C(=O)NC(C(=O)N4C(C(=O)NC(C(=O)NC(C(=O)NC(C(=O)NC(C(=O)NC(C(=O)NC(C(=O)NC(C(=O)NC(C(=O)NC(C(=O)NC(C(=O)NC(C(=O)NC(C(=O)NC(C(=O)NC(C(=O)NC(C(=O)NC(C(=O)NC(C(=O)NC(C(=O)NC(C(=O)NC(C(=O)NC(C(=O)NC(C(=O)NC(C(=O)NC(C(=O)NC(C(=O)NC(C(=O)NC(C(=O)NC(C(=O)NC(C(=O)NC(C(=O)NC(C(=O)NC(C(=O)NC(C(=O)NC(C(=O)NC(C(=O)NC(C(=O)NC(C(=O)NC(C(=O)NC(C(=O)NC(C(=O)NC(C(=O)NC(C(=O)NC(C(=O)NC(C(=O)NC(C(=O)NC(C(=O)NC(C(=O)NC(C(=O)NCC(=O)NC(C(=O)NC(C(=O)NC(C(=O)NC(C(=O)NC(C(=O)NC(C(=O)NC(C(=O)NC(C(=O)NC(C(=O)NC(C(=O)NC(C(=O)NC(C(=O)NC(C(=O)NC(C(=O)NC(C(=O)NC(C(=O)NC(C(=O)NC(C(=O)NC(C(=O)NC(C(=O)NC(C(=O)NC(C(=O)NC(C(=O)NC(C(=O)NC(C(=O)NC(C(=O)NC(C(=O)NC(C(=O)NC(C(=O)NC(C(=O)NC(C(=O)NC(C(=O)NC(C(=O)N5C(C(=O)NC(C(=O)NCC(=O)NC(C(=O)NC(C(=O)NC(C(=O)NCC(=O)NC(C(=O)NC(C(=O)NC(C(=O)NC(C(=O)NC(C(=O)NC(C(=O)NC(C(=O)NC(C(=O)NC(C(=O)NC(C(=O)NC(C(=O)NC(C(=O)NC(C(=O)NC(C(=O)NC(C(=O)NC(C(=O)NC(C(=O)NC(C(=O)NCC(=O)NC(C(=O)NC(C(=O)NC(C(=O)NC(C(=O)NC(C(=O)N6C(C(=O)NC(C(=O)NC(C(=O)NC(C(=O)NC(C(=O)NC(C(=O)NC(C(=O)NC(C(=O)NC(C(=O)NC(C(=O)NC(C(=O)NC(C(=O)NC(C(=O)NC(C(=O)NC(C(=O)NC(C(=O)NC(C(=O)NCC(=O)NC(C(=O)NC(C(=O)NC(C(=O)NC(C(=O)NC(C(=O)NC(C(=O)NC(C(=O)NC(C(=O)NC(C(=O)NC(C(=O)NC(C(=O)NC(C(=O)NC(C(=O)NC(C(=O)NC(C(=O)NC(C(=O)NC(C(=O)NC(C(=O)NC(C(=O)NC(C(=O)NC(C(=O)NC(C(=O)NC(C(=O)NC(C(=O)NC(C(=O)NC(C(=O)NC(C(=O)NC(C(=O)NC(C(=O)NC(C(=O)NC(C(=O)N7C(C(=O)NC(C(=O)NCC(=O)NC(C(=O)NC(C(=O)NC(C(=O)NC(C(=O)NC(C(=O)NC(C(=O)NC(C(=O)NC(C(=O)NC(C(=O)NC(C(=O)NC(C(=O)NC(C(=O)NC(C(=O)N8C(C(=O)NCC(=O)NC(C(=O)NC(C(=O)NC(C(=O)NC(C(=O)NC(C(=O)NC(C(=O)NC(C(=O)NC(C(=O)NC(C(=O)NC(C(=O)NC(C(=O)NC(C(=O)NC(C(=O)NC(C(=O)NC(C(=O)NC(C(=O)NC(C(=O)NC(C(=O)NC(C(=O)NC(C(=O)N9C(C(=O)NCC(=O)NC(C(=O)NC(C(=O)NC(C(=O)NC(C(=O)NC(C(=O)NC(C(=O)NC(C(=O)NC(C(=O)NC(C(=O)NC(C(=O)NC(C(=O)NCC(=O)NC(C(=O)NC(C(=O)NC(C(=O)NC(C(=O)NCC(=O)NC(C(=O)NC(C(=O)NC(C(=O)NCC(=O)NC(C(=O)NCC(=O)NC(C(=O)NC(C(=O)NC(C(=O)NC(C(=O)NC(C(=O)NC(C(=O)N%10C(C(=O)NC(C(=O)NC(C(=O)NC(C(=O)N%11C(C(=O)NC(C(=O)NC(C(=O)NC(C(=O)NC(C(=O)NC(C(=O)NC(C(=O)NC(C(=O)NCC(=O)NC(C(=O)NC(C(=O)NC(C(=O)NCC(=O)NC(C(=O)NC(C(=O)NC(C(=O)NC(C(=O)N%12C(C(=O)NC(C(=O)NCC(=O)NC(C(=O)NC(C(=O)NC(C(=O)NC(C(=O)NC)CC(=O)N)Cc%13ccc(O)cc%13)CO)CCCNC(=[NH2+])N)CC(=O)[O-])CCC%12)Cc%12ccc(O)cc%12)CC(C)C)Cc%12ccc(O)cc%12)Cc%12ccccc%12)CCC(=O)[O-])C)CO)CC(=O)[O-])C(CC)C)CC(C)C)C)CCC(=O)N)Cc%12ccccc%12)CC(C)C)CCC%11)CCCC[NH3+])CC(=O)N)Cc%11[nH]cnc%11)CCC%10)C(CC)C)C(O)C)CCC(=O)N)CC(C)C)C(CC)C)CC(=O)N)CC(=O)[O-])C(O)C)C(C)C)Cc%10ccc(O)cc%10)C(CC)C)C)Cc%10c%11c([nH]c%10)cccc%11)CCC(=O)N)CC(C)C)CCCNC(=[NH2+])N)C(O)C)CS)CO)CC(C)C)CCCNC(=[NH2+])N)Cc%10ccccc%10)C(CC)C)Cc%10ccc(O)cc%10)CO)CCC9)CCCC[NH3+])C(O)C)CO)Cc9ccc(O)cc9)CCCC[NH3+])CCC(=O)N)CC(C)C)CCCNC(=[NH2+])N)C)CCCC[NH3+])C(C)C)CCC(=O)[O-])CC(=O)[O-])Cc9ccc(O)cc9)C(O)C)CC(C)C)Cc9ccccc9)C)CCSC)Cc9ccc(O)cc9)CCC8)Cc8nc[nH]c8)C(O)C)C(C)C)C)CC(C)C)Cc8ccccc8)CC(=O)N)Cc8c9c([nH]c8)cccc9)CC(=O)N)CCCNC(=[NH2+])N)CC(C)C)C(CC)C)CO)Cc8c9c([nH]c8)cccc9)CCC7)CCC(=O)N)Cc7ccccc7)CC(C)C)CCCNC(=[NH2+])N)C(O)C)Cc7ccccc7)C(CC)C)CC(=O)[O-])Cc7ccccc7)CCC(=O)[O-])Cc7ccccc7)C(C)C)CO)C(CC)C)Cc7ccc(O)cc7)CC(=O)[O-])CC(=O)N)CS)C(O)C)CC(C)C)CC(=O)[O-])C(CC)C)C(O)C)CO)CCCC[NH3+])CC(C)C)C)CCSC)C)CCC(=O)[O-])CC(C)C)CO)CO)C(CC)C)CCC(=O)N)Cc7nc[nH]c7)C(C)C)CCC(=O)[O-])Cc7nc[nH]c7)CC(C)C)CS)CCC(=O)N)CCCNC(=[NH2+])N)Cc7ccccc7)C(C)C)CCCC[NH3+])Cc7c8c([nH]c7)cccc8)CCC6)C(C)C)C(CC)C)C(O)C)CCCC[NH3+])CC(=O)[O-])Cc6ccccc6)Cc6ccccc6)CCCC[NH3+])CCCNC(=[NH2+])N)Cc6c7c([nH]c6)cccc7)Cc6ccccc6)CCC(=O)[O-])C)C)CC(=O)[O-])C)CCCC[NH3+])C(O)C)C(CC)C)CCCNC(=[NH2+])N)Cc6ccccc6)CC(=O)N)CC(=O)[O-])CCC(=O)N)Cc6ccccc6)CCC(=O)N)CC(=O)N)CCC5)Cc5ccccc5)C(CC)C)C)CCCC[NH3+])C(CC)C)CCC(=O)[O-])C)CC(C)C)CCSC)Cc5nc[nH]c5)CO)Cc5ccccc5)C(CC)C)CC(C)C)CO)CC(C)C)CCCC[NH3+])C(O)C)CC(C)C)CC(=O)N)CCCNC(=[NH2+])N)CCCNC(=[NH2+])N)CC(=O)[O-])CCC(=O)N)CO)CCC(=O)N)CCC(=O)[O-])CCC(=O)[O-])Cc5ccc(O)cc5)CCSC)CCCNC(=[NH2+])N)CCC(=O)[O-])CCCC[NH3+])CCC(=O)[O-])CCCC[NH3+])Cc5ccccc5)CC(C)C)CCCNC(=[NH2+])N)C(CC)C)C)CCCNC(=[NH2+])N)CCCC[NH3+])CO)CCCC[NH3+])CCCC[NH3+])CCSC)CC(C)C)CO)CC(=O)[O-])C(CC)C)Cc5ccc(O)cc5)C(CC)C)CCCC[NH3+])Cc5ccccc5)Cc5ccc(O)cc5)CCC(=O)[O-])CC(=O)N)CCC(=O)[O-])CO)CC(C)C)CCC(=O)N)C)CC(C)C)CCCC[NH3+])CCC(=O)N)CC(=O)N)CC(=O)[O-])CC(=O)[O-])Cc5ccc(O)cc5)CCCC[NH3+])CO)CC(C)C)C(CC)C)CC(C)C)CCCNC(=[NH2+])N)CC(C)C)Cc5nc[nH]c5)CCC(=O)N)Cc5ccc(O)cc5)C(O)C)CC(=O)[O-])CCC4)CC(C)C)C(CC)C)CC(=O)[O-])CC(C)C)C(CC)C)Cc4ccc(O)cc4)CCC3)CCC2)CO)CC(=O)N)CCCC[NH3+])CC(C)C)CCC(=O)N)CC(C)C)CCCC[NH3+])CCC1)CC(=O)N)CCC(=O)N)CS)CC(C)C)CCCNC(=[NH2+])N)C(C)C)C(C)C)C)CC(=O)[O-])C.OCCO.[UH+3].[Zn+2].[Zn+2].O.O.O.O.O.O.O.O.O.O.O.O.O.O.O.O.O.O.O.O.O.O.O.O.O.O.O.O.O.O.O.O.O.O.O.O.O.O.O.O.O.O.O.O.O.O.O.O.O.O.O.O.O.O.O.O.O.O.O.O.O.O.O.O.O.O.O.O.O.O.O.O.O.O.O.O.O.O.O.O.O.O.O.O.O.O.O.O.O.O.O.O.O.O.O.O.O.O.O.O.O.O.O.O.O.O.O.O.O.O.O.O.O.O.O.O.O.O.O.O.O.O.O.O.O.O.O.O.O.O.O.O.O.O.O.O.O.O.O.O.O.O

>  <rseq>
1

>  <mseq>
78

>  <S>
-8.0700941

>  <rmsd_refine>
1.9892833

>  <E_conf>
81.974739

>  <E_place>
-58.400085

>  <E_score1>
-12.784329

>  <E_refine>
-44.153576

>  <E_score2>
-8.0700941

>  <Field_2>
PC08

>  <pseq>
78

>  <%C>
100

>  <a_heavy>
29

>  <h_logP>
1.8362222

>  <Weight>
418.47

>  <E_orig>
2.2

>  <PLIF_raw>
[[3,13,22,20,18,16,14],[5177,3036,3036,3036,3036,3036,3036],[366,219,219,219,219,219,219],[3,10,10,10,10,10,10],[1.5,1.1,1.1,1.1,1.1,1.1,1.1]]

>  <FP:PLIF>
21 25 17 23

>  <PLIF_ligidx>
[[13,22,20,18,16,14],[13,22,20,18,16,14],3,3]

$$$$

  MOE2020           3D

 43 46  0  0  0  0  0  0  0  0999 V2000
   -1.9710   12.9570   22.9830 C   0  0  0  0  0  0  0  0  0  0  0  0
   -2.6740   12.2380   23.4040 H   0  0  0  0  0  0  0  0  0  0  0  0
   -2.5000   13.5690   22.2520 H   0  0  0  0  0  0  0  0  0  0  0  0
   -1.6120   13.6080   23.7800 H   0  0  0  0  0  0  0  0  0  0  0  0
   -0.8160   12.2440   22.3220 C   0  0  0  0  0  0  0  0  0  0  0  0
   -0.6690   10.9640   21.9570 C   0  0  0  0  0  0  0  0  0  0  0  0
   -1.3750   10.1900   22.0960 H   0  0  0  0  0  0  0  0  0  0  0  0
    0.5840   10.8980   21.3530 C   0  0  0  0  0  0  0  0  0  0  0  0
    1.2260    9.7760   20.7600 N   0  0  0  0  0  0  0  0  0  0  0  0
    2.1080    9.9680   20.2610 H   0  0  0  0  0  0  0  0  0  0  0  0
    0.8420    8.4500   20.8310 C   0  0  0  0  0  0  0  0  0  0  0  0
   -0.1640    8.1500   21.4670 O   0  0  0  0  0  0  0  0  0  0  0  0
    1.7090    7.4550   20.1980 C   0  0  0  0  0  0  0  0  0  0  0  0
    1.7270    6.1410   20.6930 C   0  0  0  0  0  0  0  0  0  0  0  0
    1.0190    5.8320   21.4060 H   0  0  0  0  0  0  0  0  0  0  0  0
    2.6750    5.2340   20.2680 C   0  0  0  0  0  0  0  0  0  0  0  0
    2.7200    4.2720   20.7040 H   0  0  0  0  0  0  0  0  0  0  0  0
    3.5920    5.5830   19.2780 C   0  0  0  0  0  0  0  0  0  0  0  0
    4.6540    4.6880   18.8940 C   0  0  0  0  0  0  0  0  0  0  0  0
    4.8120    3.5700   19.3850 O   0  0  0  0  0  0  0  0  0  0  0  0
    5.5450    5.1490   17.9310 N   0  0  0  0  0  0  0  0  0  0  0  0
    5.3430    6.3960   17.3170 C   0  0  0  0  0  0  0  0  0  0  0  0
    4.3830    7.1760   17.6510 N   0  0  0  0  0  0  0  0  0  0  0  0
    3.4920    6.8380   18.6690 C   0  0  0  0  0  0  0  0  0  0  0  0
    2.5590    7.7720   19.1340 C   0  0  0  0  0  0  0  0  0  0  0  0
    2.5260    8.7320   18.6870 H   0  0  0  0  0  0  0  0  0  0  0  0
    6.3720    6.8350   16.2970 C   0  0  0  0  0  0  0  0  0  0  0  0
    5.9680    7.6350   15.6960 H   0  0  0  0  0  0  0  0  0  0  0  0
    6.5620    6.0490   15.5810 H   0  0  0  0  0  0  0  0  0  0  0  0
    7.6900    7.2960   16.9520 C   0  0  0  0  0  0  0  0  0  0  0  0
    8.4930    7.2150   16.2250 H   0  0  0  0  0  0  0  0  0  0  0  0
    7.5840    8.3470   17.2240 H   0  0  0  0  0  0  0  0  0  0  0  0
    8.0890    6.5260   18.2200 C   0  0  0  0  0  0  0  0  0  0  0  0
    9.0800    6.8520   18.5340 H   0  0  0  0  0  0  0  0  0  0  0  0
    7.4040    6.7930   19.0230 H   0  0  0  0  0  0  0  0  0  0  0  0
    8.0850    4.9960   18.0720 C   0  0  0  0  0  0  0  0  0  0  0  0
    8.8550    4.6870   17.3680 H   0  0  0  0  0  0  0  0  0  0  0  0
    8.3390    4.5800   19.0460 H   0  0  0  0  0  0  0  0  0  0  0  0
    6.7570    4.3660   17.6100 C   0  0  0  0  0  0  0  0  0  0  0  0
    6.7970    4.1740   16.5480 H   0  0  0  0  0  0  0  0  0  0  0  0
    6.7010    3.3770   18.0300 H   0  0  0  0  0  0  0  0  0  0  0  0
    1.1690   12.0490   21.3630 N   0  0  0  0  0  0  0  0  0  0  0  0
    0.3020   12.8980   21.9620 O   0  0  0  0  0  0  0  0  0  0  0  0
  1  2  1  0  0  0  0
  1  3  1  0  0  0  0
  1  4  1  0  0  0  0
  1  5  1  0  0  0  0
  5  6  2  0  0  0  0
  5 43  1  0  0  0  0
  6  7  1  0  0  0  0
  6  8  1  0  0  0  0
  8  9  1  0  0  0  0
  8 42  2  0  0  0  0
  9 10  1  0  0  0  0
  9 11  1  0  0  0  0
 11 12  2  0  0  0  0
 11 13  1  0  0  0  0
 13 14  1  0  0  0  0
 13 25  2  0  0  0  0
 14 15  1  0  0  0  0
 14 16  2  0  0  0  0
 16 17  1  0  0  0  0
 16 18  1  0  0  0  0
 18 19  1  0  0  0  0
 18 24  2  0  0  0  0
 19 20  2  0  0  0  0
 19 21  1  0  0  0  0
 21 22  1  0  0  0  0
 21 39  1  0  0  0  0
 22 23  2  0  0  0  0
 22 27  1  0  0  0  0
 23 24  1  0  0  0  0
 24 25  1  0  0  0  0
 25 26  1  0  0  0  0
 27 28  1  0  0  0  0
 27 29  1  0  0  0  0
 27 30  1  0  0  0  0
 30 31  1  0  0  0  0
 30 32  1  0  0  0  0
 30 33  1  0  0  0  0
 33 34  1  0  0  0  0
 33 35  1  0  0  0  0
 33 36  1  0  0  0  0
 36 37  1  0  0  0  0
 36 38  1  0  0  0  0
 36 39  1  0  0  0  0
 39 40  1  0  0  0  0
 39 41  1  0  0  0  0
 42 43  1  0  0  0  0
M  END
>  <receptor>
S(=O)(=O)([O-])[O-].S(CCC(NC(=O)C(NC(=O)C(NC(=O)CNC(=O)C(NC(=O)C1N(C(=O)C(NC(=O)C(NC(=O)C(NC(=O)C(NC(=O)C(NC(=O)C(NC(=O)C(NC(=O)C(NC(=O)C(NC(=O)C(NC(=O)C(NC(=O)C(NC(=O)C(NC(=O)C(NC(=O)C(NC(=O)C(NC(=O)C(NC(=O)C(NC(=O)C(NC(=O)CNC(=O)C(NC(=O)C(NC(=O)C(NC(=O)C(NC(=O)C(NC(=O)C(NC(=O)C(NC(=O)C(NC(=O)C(NC(=O)C(NC(=O)C(NC(=O)C(NC(=O)C(NC(=O)C)CCCC[NH3+])C(C)C)C(O)C)CCC(=O)N)CCC(=O)[O-])CCC(=O)N)Cc2ccccc2)CCC(=O)[O-])CC(C)C)Cc2ccc(O)cc2)CS)CCC(=O)[O-])CCSC)CO)C(O)C)Cc2ccccc2)CCC(=O)N)CC(C)C)C[S-])CCCC[NH3+])C(CC)C)C[S-])C)CCC(=O)[O-])CC(=O)N)CC(=O)[O-])CCCC[NH3+])CC(=O)[O-])C(C)C)CCCC[NH3+])C(CC)C)CCC(=O)[O-])CCC1)C[S-])Cc1nc[n-]c1)CC(C)C)C(=O)NC(C(=O)NC(C(=O)NC(C(=O)NC(C(=O)NC(C(=O)NC(C(=O)NC(C(=O)NC(C(=O)NC(C(=O)NC(C(=O)NC(C(=O)NC(C(=O)NCC(=O)NC(C(=O)NCC(=O)NC(C(=O)N1C(C(=O)NC(C(=O)NC(C(=O)NC(C(=O)NC(C(=O)NC(C(=O)NC(C(=O)NC(C(=O)NCC(=O)NC(C(=O)NC(C(=O)N2C(C(=O)NC(C(=O)NC(C(=O)NC(C(=O)NC(C(=O)N3C(C(=O)NC(C(=O)NC(C(=O)[O-])CC(=O)[O-])Cc4ccccc4)CCC3)CC(=O)[O-])C(C)C)C(CC)C)C(CC)C)CCC2)CCC(=O)[O-])C(O)C)CCCC[NH3+])C(CC)C)CCC(=O)[O-])CS)CCCNC(=[NH2+])N)C[S-])Cc2ccccc2)CCC1)C[S-])CCC(=O)N)CC(=O)[O-])CO)CCC(=O)[O-])CCC(=O)N)Cc1c2c([nH]c1)cccc2)C)C(O)C)CC(C)C)C[S-])CO)C(O)C)C[S-])C.S(CCC(NC(=O)C(NC(=O)C(NC(=O)C(NC(=O)C(NC(=O)C(NC(=O)C(NC(=O)C(NC(=O)C(NC(=O)C(NC(=O)C(NC(=O)C(NC(=O)C(NC(=O)C(NC(=O)C(NC(=O)C(NC(=O)C[NH3+])CCC(=O)N)C)C)C)CC(=O)[O-])CCCNC(=[NH2+])N)CCCNC(=[NH2+])N)C(O)C)C(C)C)CCC(=O)[O-])CCCC[NH3+])C(O)C)Cc1c2c([nH]c1)cccc2)C)CC(C)C)C(=O)NC(C(=O)NC(C(=O)NC(C(=O)NC(C(=O)NC(C(=O)NC(C(=O)NC(C(=O)NC(C(=O)NC(C(=O)N1C(C(=O)NC(C(=O)NC(C(=O)NC(C(=O)NC(C(=O)NC(C(=O)NC(C(=O)NC(C(=O)N2C(C(=O)N3C(C(=O)NC(C(=O)NC(C(=O)NC(C(=O)NC(C(=O)NC(C(=O)NC(C(=O)N4C(C(=O)NC(C(=O)NC(C(=O)NC(C(=O)NC(C(=O)NC(C(=O)NC(C(=O)NC(C(=O)NC(C(=O)NC(C(=O)NC(C(=O)NC(C(=O)NC(C(=O)NC(C(=O)NC(C(=O)NC(C(=O)NC(C(=O)NC(C(=O)NC(C(=O)NC(C(=O)NC(C(=O)NC(C(=O)NC(C(=O)NC(C(=O)NC(C(=O)NC(C(=O)NC(C(=O)NC(C(=O)NC(C(=O)NC(C(=O)NC(C(=O)NC(C(=O)NC(C(=O)NC(C(=O)NC(C(=O)NC(C(=O)NC(C(=O)NC(C(=O)NC(C(=O)NC(C(=O)NC(C(=O)NC(C(=O)NC(C(=O)NC(C(=O)NC(C(=O)NC(C(=O)NC(C(=O)NC(C(=O)NC(C(=O)NCC(=O)NC(C(=O)NC(C(=O)NC(C(=O)NC(C(=O)NC(C(=O)NC(C(=O)NC(C(=O)NC(C(=O)NC(C(=O)NC(C(=O)NC(C(=O)NC(C(=O)NC(C(=O)NC(C(=O)NC(C(=O)NC(C(=O)NC(C(=O)NC(C(=O)NC(C(=O)NC(C(=O)NC(C(=O)NC(C(=O)NC(C(=O)NC(C(=O)NC(C(=O)NC(C(=O)NC(C(=O)NC(C(=O)NC(C(=O)NC(C(=O)NC(C(=O)NC(C(=O)NC(C(=O)N5C(C(=O)NC(C(=O)NCC(=O)NC(C(=O)NC(C(=O)NC(C(=O)NCC(=O)NC(C(=O)NC(C(=O)NC(C(=O)NC(C(=O)NC(C(=O)NC(C(=O)NC(C(=O)NC(C(=O)NC(C(=O)NC(C(=O)NC(C(=O)NC(C(=O)NC(C(=O)NC(C(=O)NC(C(=O)NC(C(=O)NC(C(=O)NC(C(=O)NCC(=O)NC(C(=O)NC(C(=O)NC(C(=O)NC(C(=O)NC(C(=O)N6C(C(=O)NC(C(=O)NC(C(=O)NC(C(=O)NC(C(=O)NC(C(=O)NC(C(=O)NC(C(=O)NC(C(=O)NC(C(=O)NC(C(=O)NC(C(=O)NC(C(=O)NC(C(=O)NC(C(=O)NC(C(=O)NC(C(=O)NCC(=O)NC(C(=O)NC(C(=O)NC(C(=O)NC(C(=O)NC(C(=O)NC(C(=O)NC(C(=O)NC(C(=O)NC(C(=O)NC(C(=O)NC(C(=O)NC(C(=O)NC(C(=O)NC(C(=O)NC(C(=O)NC(C(=O)NC(C(=O)NC(C(=O)NC(C(=O)NC(C(=O)NC(C(=O)NC(C(=O)NC(C(=O)NC(C(=O)NC(C(=O)NC(C(=O)NC(C(=O)NC(C(=O)NC(C(=O)NC(C(=O)NC(C(=O)N7C(C(=O)NC(C(=O)NCC(=O)NC(C(=O)NC(C(=O)NC(C(=O)NC(C(=O)NC(C(=O)NC(C(=O)NC(C(=O)NC(C(=O)NC(C(=O)NC(C(=O)NC(C(=O)NC(C(=O)NC(C(=O)N8C(C(=O)NCC(=O)NC(C(=O)NC(C(=O)NC(C(=O)NC(C(=O)NC(C(=O)NC(C(=O)NC(C(=O)NC(C(=O)NC(C(=O)NC(C(=O)NC(C(=O)NC(C(=O)NC(C(=O)NC(C(=O)NC(C(=O)NC(C(=O)NC(C(=O)NC(C(=O)NC(C(=O)NC(C(=O)N9C(C(=O)NCC(=O)NC(C(=O)NC(C(=O)NC(C(=O)NC(C(=O)NC(C(=O)NC(C(=O)NC(C(=O)NC(C(=O)NC(C(=O)NC(C(=O)NC(C(=O)NCC(=O)NC(C(=O)NC(C(=O)NC(C(=O)NC(C(=O)NCC(=O)NC(C(=O)NC(C(=O)NC(C(=O)NCC(=O)NC(C(=O)NCC(=O)NC(C(=O)NC(C(=O)NC(C(=O)NC(C(=O)NC(C(=O)NC(C(=O)N%10C(C(=O)NC(C(=O)NC(C(=O)NC(C(=O)N%11C(C(=O)NC(C(=O)NC(C(=O)NC(C(=O)NC(C(=O)NC(C(=O)NC(C(=O)NC(C(=O)NCC(=O)NC(C(=O)NC(C(=O)NC(C(=O)NCC(=O)NC(C(=O)NC(C(=O)NC(C(=O)NC(C(=O)N%12C(C(=O)NC(C(=O)NCC(=O)NC(C(=O)NC(C(=O)NC(C(=O)NC(C(=O)NC)CC(=O)N)Cc%13ccc(O)cc%13)CO)CCCNC(=[NH2+])N)CC(=O)[O-])CCC%12)Cc%12ccc(O)cc%12)CC(C)C)Cc%12ccc(O)cc%12)Cc%12ccccc%12)CCC(=O)[O-])C)CO)CC(=O)[O-])C(CC)C)CC(C)C)C)CCC(=O)N)Cc%12ccccc%12)CC(C)C)CCC%11)CCCC[NH3+])CC(=O)N)Cc%11[nH]cnc%11)CCC%10)C(CC)C)C(O)C)CCC(=O)N)CC(C)C)C(CC)C)CC(=O)N)CC(=O)[O-])C(O)C)C(C)C)Cc%10ccc(O)cc%10)C(CC)C)C)Cc%10c%11c([nH]c%10)cccc%11)CCC(=O)N)CC(C)C)CCCNC(=[NH2+])N)C(O)C)CS)CO)CC(C)C)CCCNC(=[NH2+])N)Cc%10ccccc%10)C(CC)C)Cc%10ccc(O)cc%10)CO)CCC9)CCCC[NH3+])C(O)C)CO)Cc9ccc(O)cc9)CCCC[NH3+])CCC(=O)N)CC(C)C)CCCNC(=[NH2+])N)C)CCCC[NH3+])C(C)C)CCC(=O)[O-])CC(=O)[O-])Cc9ccc(O)cc9)C(O)C)CC(C)C)Cc9ccccc9)C)CCSC)Cc9ccc(O)cc9)CCC8)Cc8nc[nH]c8)C(O)C)C(C)C)C)CC(C)C)Cc8ccccc8)CC(=O)N)Cc8c9c([nH]c8)cccc9)CC(=O)N)CCCNC(=[NH2+])N)CC(C)C)C(CC)C)CO)Cc8c9c([nH]c8)cccc9)CCC7)CCC(=O)N)Cc7ccccc7)CC(C)C)CCCNC(=[NH2+])N)C(O)C)Cc7ccccc7)C(CC)C)CC(=O)[O-])Cc7ccccc7)CCC(=O)[O-])Cc7ccccc7)C(C)C)CO)C(CC)C)Cc7ccc(O)cc7)CC(=O)[O-])CC(=O)N)CS)C(O)C)CC(C)C)CC(=O)[O-])C(CC)C)C(O)C)CO)CCCC[NH3+])CC(C)C)C)CCSC)C)CCC(=O)[O-])CC(C)C)CO)CO)C(CC)C)CCC(=O)N)Cc7nc[nH]c7)C(C)C)CCC(=O)[O-])Cc7nc[nH]c7)CC(C)C)CS)CCC(=O)N)CCCNC(=[NH2+])N)Cc7ccccc7)C(C)C)CCCC[NH3+])Cc7c8c([nH]c7)cccc8)CCC6)C(C)C)C(CC)C)C(O)C)CCCC[NH3+])CC(=O)[O-])Cc6ccccc6)Cc6ccccc6)CCCC[NH3+])CCCNC(=[NH2+])N)Cc6c7c([nH]c6)cccc7)Cc6ccccc6)CCC(=O)[O-])C)C)CC(=O)[O-])C)CCCC[NH3+])C(O)C)C(CC)C)CCCNC(=[NH2+])N)Cc6ccccc6)CC(=O)N)CC(=O)[O-])CCC(=O)N)Cc6ccccc6)CCC(=O)N)CC(=O)N)CCC5)Cc5ccccc5)C(CC)C)C)CCCC[NH3+])C(CC)C)CCC(=O)[O-])C)CC(C)C)CCSC)Cc5nc[nH]c5)CO)Cc5ccccc5)C(CC)C)CC(C)C)CO)CC(C)C)CCCC[NH3+])C(O)C)CC(C)C)CC(=O)N)CCCNC(=[NH2+])N)CCCNC(=[NH2+])N)CC(=O)[O-])CCC(=O)N)CO)CCC(=O)N)CCC(=O)[O-])CCC(=O)[O-])Cc5ccc(O)cc5)CCSC)CCCNC(=[NH2+])N)CCC(=O)[O-])CCCC[NH3+])CCC(=O)[O-])CCCC[NH3+])Cc5ccccc5)CC(C)C)CCCNC(=[NH2+])N)C(CC)C)C)CCCNC(=[NH2+])N)CCCC[NH3+])CO)CCCC[NH3+])CCCC[NH3+])CCSC)CC(C)C)CO)CC(=O)[O-])C(CC)C)Cc5ccc(O)cc5)C(CC)C)CCCC[NH3+])Cc5ccccc5)Cc5ccc(O)cc5)CCC(=O)[O-])CC(=O)N)CCC(=O)[O-])CO)CC(C)C)CCC(=O)N)C)CC(C)C)CCCC[NH3+])CCC(=O)N)CC(=O)N)CC(=O)[O-])CC(=O)[O-])Cc5ccc(O)cc5)CCCC[NH3+])CO)CC(C)C)C(CC)C)CC(C)C)CCCNC(=[NH2+])N)CC(C)C)Cc5nc[nH]c5)CCC(=O)N)Cc5ccc(O)cc5)C(O)C)CC(=O)[O-])CCC4)CC(C)C)C(CC)C)CC(=O)[O-])CC(C)C)C(CC)C)Cc4ccc(O)cc4)CCC3)CCC2)CO)CC(=O)N)CCCC[NH3+])CC(C)C)CCC(=O)N)CC(C)C)CCCC[NH3+])CCC1)CC(=O)N)CCC(=O)N)CS)CC(C)C)CCCNC(=[NH2+])N)C(C)C)C(C)C)C)CC(=O)[O-])C.OCCO.[UH+3].[Zn+2].[Zn+2].O.O.O.O.O.O.O.O.O.O.O.O.O.O.O.O.O.O.O.O.O.O.O.O.O.O.O.O.O.O.O.O.O.O.O.O.O.O.O.O.O.O.O.O.O.O.O.O.O.O.O.O.O.O.O.O.O.O.O.O.O.O.O.O.O.O.O.O.O.O.O.O.O.O.O.O.O.O.O.O.O.O.O.O.O.O.O.O.O.O.O.O.O.O.O.O.O.O.O.O.O.O.O.O.O.O.O.O.O.O.O.O.O.O.O.O.O.O.O.O.O.O.O.O.O.O.O.O.O.O.O.O.O.O.O.O.O.O.O.O.O.O

>  <rseq>
1

>  <mseq>
79

>  <S>
-7.5338149

>  <rmsd_refine>
1.205231

>  <E_conf>
-50.170601

>  <E_place>
-58.832977

>  <E_score1>
-12.096733

>  <E_refine>
-35.827354

>  <E_score2>
-7.5338149

>  <Field_2>
PC09

>  <pseq>
79

>  <%C>
99.774673

>  <a_heavy>
25

>  <h_logP>
2.5071905

>  <Weight>
338.367

>  <E_orig>
0.80000001

>  <PLIF_raw>
[9,5184,366,1,3]

>  <FP:PLIF>
8 24

>  <PLIF_ligidx>
[9,9]

$$$$

  MOE2020           3D

 63 67  0  0  0  0  0  0  0  0999 V2000
   -7.6220   13.5720   17.6110 C   0  0  0  0  0  0  0  0  0  0  0  0
   -8.0180   14.1420   18.4520 H   0  0  0  0  0  0  0  0  0  0  0  0
   -7.6900   14.1990   16.7210 H   0  0  0  0  0  0  0  0  0  0  0  0
   -8.2670   12.7060   17.4670 H   0  0  0  0  0  0  0  0  0  0  0  0
   -6.1930   13.1500   17.8650 C   0  0  0  0  0  0  0  0  0  0  0  0
   -5.3810   13.6290   18.9010 C   0  0  0  0  0  0  0  0  0  0  0  0
   -5.7700   14.3430   19.5810 H   0  0  0  0  0  0  0  0  0  0  0  0
   -4.0820   13.1820   19.0310 C   0  0  0  0  0  0  0  0  0  0  0  0
   -3.4690   13.5670   19.8040 H   0  0  0  0  0  0  0  0  0  0  0  0
   -3.5690   12.2390   18.1160 C   0  0  0  0  0  0  0  0  0  0  0  0
   -2.2330   11.7260   18.1340 C   0  0  0  0  0  0  0  0  0  0  0  0
   -1.3310   12.1800   19.1040 N   0  0  0  0  0  0  0  0  0  0  0  0
   -1.4930   11.5050   20.4020 C   0  0  0  0  0  0  0  0  0  0  0  0
   -2.4300   11.8050   20.8480 H   0  0  0  0  0  0  0  0  0  0  0  0
   -1.5560   10.4390   20.2380 H   0  0  0  0  0  0  0  0  0  0  0  0
   -0.3830   11.7640   21.4220 C   0  0  0  0  0  0  0  0  0  0  0  0
   -0.5390   11.1140   22.2730 H   0  0  0  0  0  0  0  0  0  0  0  0
   -0.5370   12.7590   21.8160 H   0  0  0  0  0  0  0  0  0  0  0  0
    0.9930   11.6300   20.8610 N   0  3  0  0  0  0  0  0  0  0  0  0
    1.6200   11.9600   21.5810 H   0  0  0  0  0  0  0  0  0  0  0  0
    1.3980   10.1760   20.6070 C   0  0  0  0  0  0  0  0  0  0  0  0
    2.4240   10.0260   20.8950 H   0  0  0  0  0  0  0  0  0  0  0  0
    0.8740    9.5130   21.2830 H   0  0  0  0  0  0  0  0  0  0  0  0
    1.2550    9.5940   19.1910 C   0  0  0  0  0  0  0  0  0  0  0  0
    0.2050    9.3970   18.9970 H   0  0  0  0  0  0  0  0  0  0  0  0
    1.6130   10.3320   18.4780 H   0  0  0  0  0  0  0  0  0  0  0  0
    2.0640    8.3350   18.9420 C   0  0  0  0  0  0  0  0  0  0  0  0
    2.1510    7.3000   19.8880 C   0  0  0  0  0  0  0  0  0  0  0  0
    1.6250    7.3770   20.8040 H   0  0  0  0  0  0  0  0  0  0  0  0
    2.9110    6.1770   19.6180 C   0  0  0  0  0  0  0  0  0  0  0  0
    2.8880    5.2010   20.5560 O   0  0  0  0  0  0  0  0  0  0  0  0
    2.3240    5.4500   21.3130 H   0  0  0  0  0  0  0  0  0  0  0  0
    3.6590    6.0350   18.4070 C   0  0  0  0  0  0  0  0  0  0  0  0
    4.5410    4.9600   18.0470 C   0  0  0  0  0  0  0  0  0  0  0  0
    4.8570    3.8370   19.0220 C   0  0  0  0  0  0  0  0  0  0  0  0
    5.5680    3.1140   18.6350 H   0  0  0  0  0  0  0  0  0  0  0  0
    3.9560    3.2840   19.2830 H   0  0  0  0  0  0  0  0  0  0  0  0
    5.3010    4.2500   19.9230 H   0  0  0  0  0  0  0  0  0  0  0  0
    5.1170    4.9770   16.7950 C   0  0  0  0  0  0  0  0  0  0  0  0
    6.0570    3.9120   16.2700 C   0  0  0  0  0  0  0  0  0  0  0  0
    5.5580    2.9440   16.2570 H   0  0  0  0  0  0  0  0  0  0  0  0
    6.9470    3.8470   16.8970 H   0  0  0  0  0  0  0  0  0  0  0  0
    6.3820    4.1300   15.2520 H   0  0  0  0  0  0  0  0  0  0  0  0
    4.8780    5.9910   15.9120 N   0  0  0  0  0  0  0  0  0  0  0  0
    4.1180    6.9790   16.2250 N   0  0  0  0  0  0  0  0  0  0  0  0
    3.5070    7.0610   17.4550 C   0  0  0  0  0  0  0  0  0  0  0  0
    2.7180    8.1950   17.7380 C   0  0  0  0  0  0  0  0  0  0  0  0
    2.6320    8.9510   17.0040 H   0  0  0  0  0  0  0  0  0  0  0  0
    1.1480   12.5960   19.7010 C   0  0  0  0  0  0  0  0  0  0  0  0
    1.1870   13.6100   20.0760 H   0  0  0  0  0  0  0  0  0  0  0  0
    2.1010   12.4780   19.2010 H   0  0  0  0  0  0  0  0  0  0  0  0
    0.0290   12.5740   18.6330 C   0  0  0  0  0  0  0  0  0  0  0  0
   -0.0300   13.5540   18.1770 H   0  0  0  0  0  0  0  0  0  0  0  0
    0.3540   11.9420   17.8230 H   0  0  0  0  0  0  0  0  0  0  0  0
   -1.8410   10.7630   17.2030 C   0  0  0  0  0  0  0  0  0  0  0  0
   -0.8710   10.3470   17.2330 H   0  0  0  0  0  0  0  0  0  0  0  0
   -2.7240   10.3230   16.2070 C   0  0  0  0  0  0  0  0  0  0  0  0
   -2.3990    9.6010   15.5030 H   0  0  0  0  0  0  0  0  0  0  0  0
   -4.0070   10.8230   16.1350 C   0  0  0  0  0  0  0  0  0  0  0  0
   -4.6690   10.4980   15.3770 H   0  0  0  0  0  0  0  0  0  0  0  0
   -4.4170   11.7690   17.0870 C   0  0  0  0  0  0  0  0  0  0  0  0
   -5.7010   12.2610   17.0130 N   0  3  0  0  0  0  0  0  0  0  0  0
   -6.3140   11.9130   16.2500 H   0  0  0  0  0  0  0  0  0  0  0  0
  1  2  1  0  0  0  0
  1  3  1  0  0  0  0
  1  4  1  0  0  0  0
  1  5  1  0  0  0  0
  5  6  1  0  0  0  0
  5 62  2  0  0  0  0
  6  7  1  0  0  0  0
  6  8  2  0  0  0  0
  8  9  1  0  0  0  0
  8 10  1  0  0  0  0
 10 11  1  0  0  0  0
 10 61  2  0  0  0  0
 11 12  1  0  0  0  0
 11 55  2  0  0  0  0
 12 13  1  0  0  0  0
 12 52  1  0  0  0  0
 13 14  1  0  0  0  0
 13 15  1  0  0  0  0
 13 16  1  0  0  0  0
 16 17  1  0  0  0  0
 16 18  1  0  0  0  0
 16 19  1  0  0  0  0
 19 20  1  0  0  0  0
 19 21  1  0  0  0  0
 19 49  1  0  0  0  0
 21 22  1  0  0  0  0
 21 23  1  0  0  0  0
 21 24  1  0  0  0  0
 24 25  1  0  0  0  0
 24 26  1  0  0  0  0
 24 27  1  0  0  0  0
 27 28  1  0  0  0  0
 27 47  2  0  0  0  0
 28 29  1  0  0  0  0
 28 30  2  0  0  0  0
 30 31  1  0  0  0  0
 30 33  1  0  0  0  0
 31 32  1  0  0  0  0
 33 34  1  0  0  0  0
 33 46  2  0  0  0  0
 34 35  1  0  0  0  0
 34 39  2  0  0  0  0
 35 36  1  0  0  0  0
 35 37  1  0  0  0  0
 35 38  1  0  0  0  0
 39 40  1  0  0  0  0
 39 44  1  0  0  0  0
 40 41  1  0  0  0  0
 40 42  1  0  0  0  0
 40 43  1  0  0  0  0
 44 45  2  0  0  0  0
 45 46  1  0  0  0  0
 46 47  1  0  0  0  0
 47 48  1  0  0  0  0
 49 50  1  0  0  0  0
 49 51  1  0  0  0  0
 49 52  1  0  0  0  0
 52 53  1  0  0  0  0
 52 54  1  0  0  0  0
 55 56  1  0  0  0  0
 55 57  1  0  0  0  0
 57 58  1  0  0  0  0
 57 59  2  0  0  0  0
 59 60  1  0  0  0  0
 59 61  1  0  0  0  0
 61 62  1  0  0  0  0
 62 63  1  0  0  0  0
M  CHG  1  19   1
M  CHG  1  62   1
M  END
>  <receptor>
S(=O)(=O)([O-])[O-].S(CCC(NC(=O)C(NC(=O)C(NC(=O)CNC(=O)C(NC(=O)C1N(C(=O)C(NC(=O)C(NC(=O)C(NC(=O)C(NC(=O)C(NC(=O)C(NC(=O)C(NC(=O)C(NC(=O)C(NC(=O)C(NC(=O)C(NC(=O)C(NC(=O)C(NC(=O)C(NC(=O)C(NC(=O)C(NC(=O)C(NC(=O)C(NC(=O)C(NC(=O)CNC(=O)C(NC(=O)C(NC(=O)C(NC(=O)C(NC(=O)C(NC(=O)C(NC(=O)C(NC(=O)C(NC(=O)C(NC(=O)C(NC(=O)C(NC(=O)C(NC(=O)C(NC(=O)C)CCCC[NH3+])C(C)C)C(O)C)CCC(=O)N)CCC(=O)[O-])CCC(=O)N)Cc2ccccc2)CCC(=O)[O-])CC(C)C)Cc2ccc(O)cc2)CS)CCC(=O)[O-])CCSC)CO)C(O)C)Cc2ccccc2)CCC(=O)N)CC(C)C)C[S-])CCCC[NH3+])C(CC)C)C[S-])C)CCC(=O)[O-])CC(=O)N)CC(=O)[O-])CCCC[NH3+])CC(=O)[O-])C(C)C)CCCC[NH3+])C(CC)C)CCC(=O)[O-])CCC1)C[S-])Cc1nc[n-]c1)CC(C)C)C(=O)NC(C(=O)NC(C(=O)NC(C(=O)NC(C(=O)NC(C(=O)NC(C(=O)NC(C(=O)NC(C(=O)NC(C(=O)NC(C(=O)NC(C(=O)NC(C(=O)NCC(=O)NC(C(=O)NCC(=O)NC(C(=O)N1C(C(=O)NC(C(=O)NC(C(=O)NC(C(=O)NC(C(=O)NC(C(=O)NC(C(=O)NC(C(=O)NCC(=O)NC(C(=O)NC(C(=O)N2C(C(=O)NC(C(=O)NC(C(=O)NC(C(=O)NC(C(=O)N3C(C(=O)NC(C(=O)NC(C(=O)[O-])CC(=O)[O-])Cc4ccccc4)CCC3)CC(=O)[O-])C(C)C)C(CC)C)C(CC)C)CCC2)CCC(=O)[O-])C(O)C)CCCC[NH3+])C(CC)C)CCC(=O)[O-])CS)CCCNC(=[NH2+])N)C[S-])Cc2ccccc2)CCC1)C[S-])CCC(=O)N)CC(=O)[O-])CO)CCC(=O)[O-])CCC(=O)N)Cc1c2c([nH]c1)cccc2)C)C(O)C)CC(C)C)C[S-])CO)C(O)C)C[S-])C.S(CCC(NC(=O)C(NC(=O)C(NC(=O)C(NC(=O)C(NC(=O)C(NC(=O)C(NC(=O)C(NC(=O)C(NC(=O)C(NC(=O)C(NC(=O)C(NC(=O)C(NC(=O)C(NC(=O)C(NC(=O)C(NC(=O)C[NH3+])CCC(=O)N)C)C)C)CC(=O)[O-])CCCNC(=[NH2+])N)CCCNC(=[NH2+])N)C(O)C)C(C)C)CCC(=O)[O-])CCCC[NH3+])C(O)C)Cc1c2c([nH]c1)cccc2)C)CC(C)C)C(=O)NC(C(=O)NC(C(=O)NC(C(=O)NC(C(=O)NC(C(=O)NC(C(=O)NC(C(=O)NC(C(=O)NC(C(=O)N1C(C(=O)NC(C(=O)NC(C(=O)NC(C(=O)NC(C(=O)NC(C(=O)NC(C(=O)NC(C(=O)N2C(C(=O)N3C(C(=O)NC(C(=O)NC(C(=O)NC(C(=O)NC(C(=O)NC(C(=O)NC(C(=O)N4C(C(=O)NC(C(=O)NC(C(=O)NC(C(=O)NC(C(=O)NC(C(=O)NC(C(=O)NC(C(=O)NC(C(=O)NC(C(=O)NC(C(=O)NC(C(=O)NC(C(=O)NC(C(=O)NC(C(=O)NC(C(=O)NC(C(=O)NC(C(=O)NC(C(=O)NC(C(=O)NC(C(=O)NC(C(=O)NC(C(=O)NC(C(=O)NC(C(=O)NC(C(=O)NC(C(=O)NC(C(=O)NC(C(=O)NC(C(=O)NC(C(=O)NC(C(=O)NC(C(=O)NC(C(=O)NC(C(=O)NC(C(=O)NC(C(=O)NC(C(=O)NC(C(=O)NC(C(=O)NC(C(=O)NC(C(=O)NC(C(=O)NC(C(=O)NC(C(=O)NC(C(=O)NC(C(=O)NC(C(=O)NC(C(=O)NCC(=O)NC(C(=O)NC(C(=O)NC(C(=O)NC(C(=O)NC(C(=O)NC(C(=O)NC(C(=O)NC(C(=O)NC(C(=O)NC(C(=O)NC(C(=O)NC(C(=O)NC(C(=O)NC(C(=O)NC(C(=O)NC(C(=O)NC(C(=O)NC(C(=O)NC(C(=O)NC(C(=O)NC(C(=O)NC(C(=O)NC(C(=O)NC(C(=O)NC(C(=O)NC(C(=O)NC(C(=O)NC(C(=O)NC(C(=O)NC(C(=O)NC(C(=O)NC(C(=O)NC(C(=O)N5C(C(=O)NC(C(=O)NCC(=O)NC(C(=O)NC(C(=O)NC(C(=O)NCC(=O)NC(C(=O)NC(C(=O)NC(C(=O)NC(C(=O)NC(C(=O)NC(C(=O)NC(C(=O)NC(C(=O)NC(C(=O)NC(C(=O)NC(C(=O)NC(C(=O)NC(C(=O)NC(C(=O)NC(C(=O)NC(C(=O)NC(C(=O)NC(C(=O)NCC(=O)NC(C(=O)NC(C(=O)NC(C(=O)NC(C(=O)NC(C(=O)N6C(C(=O)NC(C(=O)NC(C(=O)NC(C(=O)NC(C(=O)NC(C(=O)NC(C(=O)NC(C(=O)NC(C(=O)NC(C(=O)NC(C(=O)NC(C(=O)NC(C(=O)NC(C(=O)NC(C(=O)NC(C(=O)NC(C(=O)NCC(=O)NC(C(=O)NC(C(=O)NC(C(=O)NC(C(=O)NC(C(=O)NC(C(=O)NC(C(=O)NC(C(=O)NC(C(=O)NC(C(=O)NC(C(=O)NC(C(=O)NC(C(=O)NC(C(=O)NC(C(=O)NC(C(=O)NC(C(=O)NC(C(=O)NC(C(=O)NC(C(=O)NC(C(=O)NC(C(=O)NC(C(=O)NC(C(=O)NC(C(=O)NC(C(=O)NC(C(=O)NC(C(=O)NC(C(=O)NC(C(=O)NC(C(=O)N7C(C(=O)NC(C(=O)NCC(=O)NC(C(=O)NC(C(=O)NC(C(=O)NC(C(=O)NC(C(=O)NC(C(=O)NC(C(=O)NC(C(=O)NC(C(=O)NC(C(=O)NC(C(=O)NC(C(=O)NC(C(=O)N8C(C(=O)NCC(=O)NC(C(=O)NC(C(=O)NC(C(=O)NC(C(=O)NC(C(=O)NC(C(=O)NC(C(=O)NC(C(=O)NC(C(=O)NC(C(=O)NC(C(=O)NC(C(=O)NC(C(=O)NC(C(=O)NC(C(=O)NC(C(=O)NC(C(=O)NC(C(=O)NC(C(=O)NC(C(=O)N9C(C(=O)NCC(=O)NC(C(=O)NC(C(=O)NC(C(=O)NC(C(=O)NC(C(=O)NC(C(=O)NC(C(=O)NC(C(=O)NC(C(=O)NC(C(=O)NC(C(=O)NCC(=O)NC(C(=O)NC(C(=O)NC(C(=O)NC(C(=O)NCC(=O)NC(C(=O)NC(C(=O)NC(C(=O)NCC(=O)NC(C(=O)NCC(=O)NC(C(=O)NC(C(=O)NC(C(=O)NC(C(=O)NC(C(=O)NC(C(=O)N%10C(C(=O)NC(C(=O)NC(C(=O)NC(C(=O)N%11C(C(=O)NC(C(=O)NC(C(=O)NC(C(=O)NC(C(=O)NC(C(=O)NC(C(=O)NC(C(=O)NCC(=O)NC(C(=O)NC(C(=O)NC(C(=O)NCC(=O)NC(C(=O)NC(C(=O)NC(C(=O)NC(C(=O)N%12C(C(=O)NC(C(=O)NCC(=O)NC(C(=O)NC(C(=O)NC(C(=O)NC(C(=O)NC)CC(=O)N)Cc%13ccc(O)cc%13)CO)CCCNC(=[NH2+])N)CC(=O)[O-])CCC%12)Cc%12ccc(O)cc%12)CC(C)C)Cc%12ccc(O)cc%12)Cc%12ccccc%12)CCC(=O)[O-])C)CO)CC(=O)[O-])C(CC)C)CC(C)C)C)CCC(=O)N)Cc%12ccccc%12)CC(C)C)CCC%11)CCCC[NH3+])CC(=O)N)Cc%11[nH]cnc%11)CCC%10)C(CC)C)C(O)C)CCC(=O)N)CC(C)C)C(CC)C)CC(=O)N)CC(=O)[O-])C(O)C)C(C)C)Cc%10ccc(O)cc%10)C(CC)C)C)Cc%10c%11c([nH]c%10)cccc%11)CCC(=O)N)CC(C)C)CCCNC(=[NH2+])N)C(O)C)CS)CO)CC(C)C)CCCNC(=[NH2+])N)Cc%10ccccc%10)C(CC)C)Cc%10ccc(O)cc%10)CO)CCC9)CCCC[NH3+])C(O)C)CO)Cc9ccc(O)cc9)CCCC[NH3+])CCC(=O)N)CC(C)C)CCCNC(=[NH2+])N)C)CCCC[NH3+])C(C)C)CCC(=O)[O-])CC(=O)[O-])Cc9ccc(O)cc9)C(O)C)CC(C)C)Cc9ccccc9)C)CCSC)Cc9ccc(O)cc9)CCC8)Cc8nc[nH]c8)C(O)C)C(C)C)C)CC(C)C)Cc8ccccc8)CC(=O)N)Cc8c9c([nH]c8)cccc9)CC(=O)N)CCCNC(=[NH2+])N)CC(C)C)C(CC)C)CO)Cc8c9c([nH]c8)cccc9)CCC7)CCC(=O)N)Cc7ccccc7)CC(C)C)CCCNC(=[NH2+])N)C(O)C)Cc7ccccc7)C(CC)C)CC(=O)[O-])Cc7ccccc7)CCC(=O)[O-])Cc7ccccc7)C(C)C)CO)C(CC)C)Cc7ccc(O)cc7)CC(=O)[O-])CC(=O)N)CS)C(O)C)CC(C)C)CC(=O)[O-])C(CC)C)C(O)C)CO)CCCC[NH3+])CC(C)C)C)CCSC)C)CCC(=O)[O-])CC(C)C)CO)CO)C(CC)C)CCC(=O)N)Cc7nc[nH]c7)C(C)C)CCC(=O)[O-])Cc7nc[nH]c7)CC(C)C)CS)CCC(=O)N)CCCNC(=[NH2+])N)Cc7ccccc7)C(C)C)CCCC[NH3+])Cc7c8c([nH]c7)cccc8)CCC6)C(C)C)C(CC)C)C(O)C)CCCC[NH3+])CC(=O)[O-])Cc6ccccc6)Cc6ccccc6)CCCC[NH3+])CCCNC(=[NH2+])N)Cc6c7c([nH]c6)cccc7)Cc6ccccc6)CCC(=O)[O-])C)C)CC(=O)[O-])C)CCCC[NH3+])C(O)C)C(CC)C)CCCNC(=[NH2+])N)Cc6ccccc6)CC(=O)N)CC(=O)[O-])CCC(=O)N)Cc6ccccc6)CCC(=O)N)CC(=O)N)CCC5)Cc5ccccc5)C(CC)C)C)CCCC[NH3+])C(CC)C)CCC(=O)[O-])C)CC(C)C)CCSC)Cc5nc[nH]c5)CO)Cc5ccccc5)C(CC)C)CC(C)C)CO)CC(C)C)CCCC[NH3+])C(O)C)CC(C)C)CC(=O)N)CCCNC(=[NH2+])N)CCCNC(=[NH2+])N)CC(=O)[O-])CCC(=O)N)CO)CCC(=O)N)CCC(=O)[O-])CCC(=O)[O-])Cc5ccc(O)cc5)CCSC)CCCNC(=[NH2+])N)CCC(=O)[O-])CCCC[NH3+])CCC(=O)[O-])CCCC[NH3+])Cc5ccccc5)CC(C)C)CCCNC(=[NH2+])N)C(CC)C)C)CCCNC(=[NH2+])N)CCCC[NH3+])CO)CCCC[NH3+])CCCC[NH3+])CCSC)CC(C)C)CO)CC(=O)[O-])C(CC)C)Cc5ccc(O)cc5)C(CC)C)CCCC[NH3+])Cc5ccccc5)Cc5ccc(O)cc5)CCC(=O)[O-])CC(=O)N)CCC(=O)[O-])CO)CC(C)C)CCC(=O)N)C)CC(C)C)CCCC[NH3+])CCC(=O)N)CC(=O)N)CC(=O)[O-])CC(=O)[O-])Cc5ccc(O)cc5)CCCC[NH3+])CO)CC(C)C)C(CC)C)CC(C)C)CCCNC(=[NH2+])N)CC(C)C)Cc5nc[nH]c5)CCC(=O)N)Cc5ccc(O)cc5)C(O)C)CC(=O)[O-])CCC4)CC(C)C)C(CC)C)CC(=O)[O-])CC(C)C)C(CC)C)Cc4ccc(O)cc4)CCC3)CCC2)CO)CC(=O)N)CCCC[NH3+])CC(C)C)CCC(=O)N)CC(C)C)CCCC[NH3+])CCC1)CC(=O)N)CCC(=O)N)CS)CC(C)C)CCCNC(=[NH2+])N)C(C)C)C(C)C)C)CC(=O)[O-])C.OCCO.[UH+3].[Zn+2].[Zn+2].O.O.O.O.O.O.O.O.O.O.O.O.O.O.O.O.O.O.O.O.O.O.O.O.O.O.O.O.O.O.O.O.O.O.O.O.O.O.O.O.O.O.O.O.O.O.O.O.O.O.O.O.O.O.O.O.O.O.O.O.O.O.O.O.O.O.O.O.O.O.O.O.O.O.O.O.O.O.O.O.O.O.O.O.O.O.O.O.O.O.O.O.O.O.O.O.O.O.O.O.O.O.O.O.O.O.O.O.O.O.O.O.O.O.O.O.O.O.O.O.O.O.O.O.O.O.O.O.O.O.O.O.O.O.O.O.O.O.O.O.O.O

>  <rseq>
1

>  <mseq>
80

>  <S>
-8.1029577

>  <rmsd_refine>
1.7547282

>  <E_conf>
60.213127

>  <E_place>
-43.137646

>  <E_score1>
-14.649024

>  <E_refine>
-43.89489

>  <E_score2>
-8.1029577

>  <Field_2>
PC10

>  <pseq>
80

>  <%C>
50.179497

>  <a_heavy>
32

>  <h_logP>
-0.62031728

>  <Weight>
429.56799

>  <E_orig>
0.60000002

>  <PLIF_raw>
[[21,62,12,62,27,47,46,33,30,28],[5184,549,3850,3851,5181,5181,5181,5181,5181,5181],[366,71,268,268,366,366,366,366,366,366],[1,3,7,7,10,10,10,10,10,10],[1.5,5.3,1.073126132,2.306736694,0.5,0.5,0.5,0.5,0.5,0.5]]

>  <FP:PLIF>
42 43 12 8 24 6

>  <PLIF_ligidx>
[62,62,[12,62],21,21,[27,47,46,33,30,28]]

$$$$

  MOE2020           3D

 39 41  0  0  1  0  0  0  0  0999 V2000
    4.6040    4.9510   19.3440 O   0  0  0  0  0  0  0  0  0  0  0  0
    4.0680    5.4060   18.3350 C   0  0  0  0  0  0  0  0  0  0  0  0
    3.0940    6.3230   18.3760 N   0  0  0  0  0  0  0  0  0  0  0  0
    2.6710    6.6280   17.5120 H   0  0  0  0  0  0  0  0  0  0  0  0
    2.5030    6.8130   19.6170 C   0  0  0  0  0  0  0  0  0  0  0  0
    1.7790    6.0900   19.9660 H   0  0  0  0  0  0  0  0  0  0  0  0
    3.2520    6.8440   20.3900 H   0  0  0  0  0  0  0  0  0  0  0  0
    1.8400    8.1750   19.5150 C   0  0  0  0  0  0  0  0  0  0  0  0
    0.9560    8.5670   20.5200 C   0  0  0  0  0  0  0  0  0  0  0  0
    0.7620    7.9200   21.3350 H   0  0  0  0  0  0  0  0  0  0  0  0
    0.3190    9.8030   20.4590 C   0  0  0  0  0  0  0  0  0  0  0  0
   -0.3570   10.0890   21.2220 H   0  0  0  0  0  0  0  0  0  0  0  0
    0.5680   10.6610   19.3940 C   0  0  0  0  0  0  0  0  0  0  0  0
    0.0810   11.6010   19.3420 H   0  0  0  0  0  0  0  0  0  0  0  0
    1.4590   10.2850   18.3940 C   0  0  0  0  0  0  0  0  0  0  0  0
    1.6550   10.9430   17.5870 H   0  0  0  0  0  0  0  0  0  0  0  0
    2.0930    9.0490   18.4530 C   0  0  0  0  0  0  0  0  0  0  0  0
    2.7710    8.7820   17.6860 H   0  0  0  0  0  0  0  0  0  0  0  0
    4.4270    4.8790   16.9420 C   0  0  2  0  0  0  0  0  0  0  0  0
    4.8100    3.4000   16.8890 C   0  0  0  0  0  0  0  0  0  0  0  0
    3.9260    2.7710   16.7870 H   0  0  0  0  0  0  0  0  0  0  0  0
    5.3830    3.1160   17.7720 H   0  0  0  0  0  0  0  0  0  0  0  0
    5.6520    3.3300   15.7090 N   0  0  0  0  0  0  0  0  0  0  0  0
    5.8990    2.4540   15.2690 H   0  0  0  0  0  0  0  0  0  0  0  0
    6.1220    4.5100   15.3090 C   0  0  0  0  0  0  0  0  0  0  0  0
    6.8550    4.6750   14.3400 O   0  0  0  0  0  0  0  0  0  0  0  0
    5.5640    5.5930   16.1930 C   0  0  2  0  0  0  0  0  0  0  0  0
    6.6400    6.1920   17.0780 C   0  0  0  0  0  0  0  0  0  0  0  0
    7.3670    5.4250   17.9900 C   0  0  0  0  0  0  0  0  0  0  0  0
    7.1870    4.3870   18.0900 H   0  0  0  0  0  0  0  0  0  0  0  0
    8.3330    6.0290   18.7770 C   0  0  0  0  0  0  0  0  0  0  0  0
    8.8860    5.4680   19.4860 H   0  0  0  0  0  0  0  0  0  0  0  0
    8.5570    7.3850   18.6060 C   0  0  0  0  0  0  0  0  0  0  0  0
    9.2920    7.8880   19.1760 H   0  0  0  0  0  0  0  0  0  0  0  0
    7.8060    8.0860   17.6740 C   0  0  0  0  0  0  0  0  0  0  0  0
    7.9630    9.1190   17.5330 H   0  0  0  0  0  0  0  0  0  0  0  0
    6.8720    7.4970   16.9370 N   0  0  0  0  0  0  0  0  0  0  0  0
    3.5560    4.9960   16.3070 H   0  0  0  0  0  0  0  0  0  0  0  0
    5.1440    6.3710   15.5690 H   0  0  0  0  0  0  0  0  0  0  0  0
  1  2  2  0  0  0  0
  2  3  1  0  0  0  0
  2 19  1  0  0  0  0
  3  4  1  0  0  0  0
  3  5  1  0  0  0  0
  5  6  1  0  0  0  0
  5  7  1  0  0  0  0
  5  8  1  0  0  0  0
  8  9  1  0  0  0  0
  8 17  2  0  0  0  0
  9 10  1  0  0  0  0
  9 11  2  0  0  0  0
 11 12  1  0  0  0  0
 11 13  1  0  0  0  0
 13 14  1  0  0  0  0
 13 15  2  0  0  0  0
 15 16  1  0  0  0  0
 15 17  1  0  0  0  0
 17 18  1  0  0  0  0
 19 20  1  0  0  0  0
 19 27  1  0  0  0  0
 19 38  1  0  0  0  0
 20 21  1  0  0  0  0
 20 22  1  0  0  0  0
 20 23  1  0  0  0  0
 23 24  1  0  0  0  0
 23 25  1  0  0  0  0
 25 26  2  0  0  0  0
 25 27  1  0  0  0  0
 27 28  1  0  0  0  0
 27 39  1  0  0  0  0
 28 29  1  0  0  0  0
 28 37  2  0  0  0  0
 29 30  1  0  0  0  0
 29 31  2  0  0  0  0
 31 32  1  0  0  0  0
 31 33  1  0  0  0  0
 33 34  1  0  0  0  0
 33 35  2  0  0  0  0
 35 36  1  0  0  0  0
 35 37  1  0  0  0  0
M  END
>  <receptor>
S(=O)(=O)([O-])[O-].S(CCC(NC(=O)C(NC(=O)C(NC(=O)CNC(=O)C(NC(=O)C1N(C(=O)C(NC(=O)C(NC(=O)C(NC(=O)C(NC(=O)C(NC(=O)C(NC(=O)C(NC(=O)C(NC(=O)C(NC(=O)C(NC(=O)C(NC(=O)C(NC(=O)C(NC(=O)C(NC(=O)C(NC(=O)C(NC(=O)C(NC(=O)C(NC(=O)C(NC(=O)CNC(=O)C(NC(=O)C(NC(=O)C(NC(=O)C(NC(=O)C(NC(=O)C(NC(=O)C(NC(=O)C(NC(=O)C(NC(=O)C(NC(=O)C(NC(=O)C(NC(=O)C(NC(=O)C)CCCC[NH3+])C(C)C)C(O)C)CCC(=O)N)CCC(=O)[O-])CCC(=O)N)Cc2ccccc2)CCC(=O)[O-])CC(C)C)Cc2ccc(O)cc2)CS)CCC(=O)[O-])CCSC)CO)C(O)C)Cc2ccccc2)CCC(=O)N)CC(C)C)C[S-])CCCC[NH3+])C(CC)C)C[S-])C)CCC(=O)[O-])CC(=O)N)CC(=O)[O-])CCCC[NH3+])CC(=O)[O-])C(C)C)CCCC[NH3+])C(CC)C)CCC(=O)[O-])CCC1)C[S-])Cc1nc[n-]c1)CC(C)C)C(=O)NC(C(=O)NC(C(=O)NC(C(=O)NC(C(=O)NC(C(=O)NC(C(=O)NC(C(=O)NC(C(=O)NC(C(=O)NC(C(=O)NC(C(=O)NC(C(=O)NCC(=O)NC(C(=O)NCC(=O)NC(C(=O)N1C(C(=O)NC(C(=O)NC(C(=O)NC(C(=O)NC(C(=O)NC(C(=O)NC(C(=O)NC(C(=O)NCC(=O)NC(C(=O)NC(C(=O)N2C(C(=O)NC(C(=O)NC(C(=O)NC(C(=O)NC(C(=O)N3C(C(=O)NC(C(=O)NC(C(=O)[O-])CC(=O)[O-])Cc4ccccc4)CCC3)CC(=O)[O-])C(C)C)C(CC)C)C(CC)C)CCC2)CCC(=O)[O-])C(O)C)CCCC[NH3+])C(CC)C)CCC(=O)[O-])CS)CCCNC(=[NH2+])N)C[S-])Cc2ccccc2)CCC1)C[S-])CCC(=O)N)CC(=O)[O-])CO)CCC(=O)[O-])CCC(=O)N)Cc1c2c([nH]c1)cccc2)C)C(O)C)CC(C)C)C[S-])CO)C(O)C)C[S-])C.S(CCC(NC(=O)C(NC(=O)C(NC(=O)C(NC(=O)C(NC(=O)C(NC(=O)C(NC(=O)C(NC(=O)C(NC(=O)C(NC(=O)C(NC(=O)C(NC(=O)C(NC(=O)C(NC(=O)C(NC(=O)C(NC(=O)C[NH3+])CCC(=O)N)C)C)C)CC(=O)[O-])CCCNC(=[NH2+])N)CCCNC(=[NH2+])N)C(O)C)C(C)C)CCC(=O)[O-])CCCC[NH3+])C(O)C)Cc1c2c([nH]c1)cccc2)C)CC(C)C)C(=O)NC(C(=O)NC(C(=O)NC(C(=O)NC(C(=O)NC(C(=O)NC(C(=O)NC(C(=O)NC(C(=O)NC(C(=O)N1C(C(=O)NC(C(=O)NC(C(=O)NC(C(=O)NC(C(=O)NC(C(=O)NC(C(=O)NC(C(=O)N2C(C(=O)N3C(C(=O)NC(C(=O)NC(C(=O)NC(C(=O)NC(C(=O)NC(C(=O)NC(C(=O)N4C(C(=O)NC(C(=O)NC(C(=O)NC(C(=O)NC(C(=O)NC(C(=O)NC(C(=O)NC(C(=O)NC(C(=O)NC(C(=O)NC(C(=O)NC(C(=O)NC(C(=O)NC(C(=O)NC(C(=O)NC(C(=O)NC(C(=O)NC(C(=O)NC(C(=O)NC(C(=O)NC(C(=O)NC(C(=O)NC(C(=O)NC(C(=O)NC(C(=O)NC(C(=O)NC(C(=O)NC(C(=O)NC(C(=O)NC(C(=O)NC(C(=O)NC(C(=O)NC(C(=O)NC(C(=O)NC(C(=O)NC(C(=O)NC(C(=O)NC(C(=O)NC(C(=O)NC(C(=O)NC(C(=O)NC(C(=O)NC(C(=O)NC(C(=O)NC(C(=O)NC(C(=O)NC(C(=O)NC(C(=O)NC(C(=O)NCC(=O)NC(C(=O)NC(C(=O)NC(C(=O)NC(C(=O)NC(C(=O)NC(C(=O)NC(C(=O)NC(C(=O)NC(C(=O)NC(C(=O)NC(C(=O)NC(C(=O)NC(C(=O)NC(C(=O)NC(C(=O)NC(C(=O)NC(C(=O)NC(C(=O)NC(C(=O)NC(C(=O)NC(C(=O)NC(C(=O)NC(C(=O)NC(C(=O)NC(C(=O)NC(C(=O)NC(C(=O)NC(C(=O)NC(C(=O)NC(C(=O)NC(C(=O)NC(C(=O)NC(C(=O)N5C(C(=O)NC(C(=O)NCC(=O)NC(C(=O)NC(C(=O)NC(C(=O)NCC(=O)NC(C(=O)NC(C(=O)NC(C(=O)NC(C(=O)NC(C(=O)NC(C(=O)NC(C(=O)NC(C(=O)NC(C(=O)NC(C(=O)NC(C(=O)NC(C(=O)NC(C(=O)NC(C(=O)NC(C(=O)NC(C(=O)NC(C(=O)NC(C(=O)NCC(=O)NC(C(=O)NC(C(=O)NC(C(=O)NC(C(=O)NC(C(=O)N6C(C(=O)NC(C(=O)NC(C(=O)NC(C(=O)NC(C(=O)NC(C(=O)NC(C(=O)NC(C(=O)NC(C(=O)NC(C(=O)NC(C(=O)NC(C(=O)NC(C(=O)NC(C(=O)NC(C(=O)NC(C(=O)NC(C(=O)NCC(=O)NC(C(=O)NC(C(=O)NC(C(=O)NC(C(=O)NC(C(=O)NC(C(=O)NC(C(=O)NC(C(=O)NC(C(=O)NC(C(=O)NC(C(=O)NC(C(=O)NC(C(=O)NC(C(=O)NC(C(=O)NC(C(=O)NC(C(=O)NC(C(=O)NC(C(=O)NC(C(=O)NC(C(=O)NC(C(=O)NC(C(=O)NC(C(=O)NC(C(=O)NC(C(=O)NC(C(=O)NC(C(=O)NC(C(=O)NC(C(=O)NC(C(=O)N7C(C(=O)NC(C(=O)NCC(=O)NC(C(=O)NC(C(=O)NC(C(=O)NC(C(=O)NC(C(=O)NC(C(=O)NC(C(=O)NC(C(=O)NC(C(=O)NC(C(=O)NC(C(=O)NC(C(=O)NC(C(=O)N8C(C(=O)NCC(=O)NC(C(=O)NC(C(=O)NC(C(=O)NC(C(=O)NC(C(=O)NC(C(=O)NC(C(=O)NC(C(=O)NC(C(=O)NC(C(=O)NC(C(=O)NC(C(=O)NC(C(=O)NC(C(=O)NC(C(=O)NC(C(=O)NC(C(=O)NC(C(=O)NC(C(=O)NC(C(=O)N9C(C(=O)NCC(=O)NC(C(=O)NC(C(=O)NC(C(=O)NC(C(=O)NC(C(=O)NC(C(=O)NC(C(=O)NC(C(=O)NC(C(=O)NC(C(=O)NC(C(=O)NCC(=O)NC(C(=O)NC(C(=O)NC(C(=O)NC(C(=O)NCC(=O)NC(C(=O)NC(C(=O)NC(C(=O)NCC(=O)NC(C(=O)NCC(=O)NC(C(=O)NC(C(=O)NC(C(=O)NC(C(=O)NC(C(=O)NC(C(=O)N%10C(C(=O)NC(C(=O)NC(C(=O)NC(C(=O)N%11C(C(=O)NC(C(=O)NC(C(=O)NC(C(=O)NC(C(=O)NC(C(=O)NC(C(=O)NC(C(=O)NCC(=O)NC(C(=O)NC(C(=O)NC(C(=O)NCC(=O)NC(C(=O)NC(C(=O)NC(C(=O)NC(C(=O)N%12C(C(=O)NC(C(=O)NCC(=O)NC(C(=O)NC(C(=O)NC(C(=O)NC(C(=O)NC)CC(=O)N)Cc%13ccc(O)cc%13)CO)CCCNC(=[NH2+])N)CC(=O)[O-])CCC%12)Cc%12ccc(O)cc%12)CC(C)C)Cc%12ccc(O)cc%12)Cc%12ccccc%12)CCC(=O)[O-])C)CO)CC(=O)[O-])C(CC)C)CC(C)C)C)CCC(=O)N)Cc%12ccccc%12)CC(C)C)CCC%11)CCCC[NH3+])CC(=O)N)Cc%11[nH]cnc%11)CCC%10)C(CC)C)C(O)C)CCC(=O)N)CC(C)C)C(CC)C)CC(=O)N)CC(=O)[O-])C(O)C)C(C)C)Cc%10ccc(O)cc%10)C(CC)C)C)Cc%10c%11c([nH]c%10)cccc%11)CCC(=O)N)CC(C)C)CCCNC(=[NH2+])N)C(O)C)CS)CO)CC(C)C)CCCNC(=[NH2+])N)Cc%10ccccc%10)C(CC)C)Cc%10ccc(O)cc%10)CO)CCC9)CCCC[NH3+])C(O)C)CO)Cc9ccc(O)cc9)CCCC[NH3+])CCC(=O)N)CC(C)C)CCCNC(=[NH2+])N)C)CCCC[NH3+])C(C)C)CCC(=O)[O-])CC(=O)[O-])Cc9ccc(O)cc9)C(O)C)CC(C)C)Cc9ccccc9)C)CCSC)Cc9ccc(O)cc9)CCC8)Cc8nc[nH]c8)C(O)C)C(C)C)C)CC(C)C)Cc8ccccc8)CC(=O)N)Cc8c9c([nH]c8)cccc9)CC(=O)N)CCCNC(=[NH2+])N)CC(C)C)C(CC)C)CO)Cc8c9c([nH]c8)cccc9)CCC7)CCC(=O)N)Cc7ccccc7)CC(C)C)CCCNC(=[NH2+])N)C(O)C)Cc7ccccc7)C(CC)C)CC(=O)[O-])Cc7ccccc7)CCC(=O)[O-])Cc7ccccc7)C(C)C)CO)C(CC)C)Cc7ccc(O)cc7)CC(=O)[O-])CC(=O)N)CS)C(O)C)CC(C)C)CC(=O)[O-])C(CC)C)C(O)C)CO)CCCC[NH3+])CC(C)C)C)CCSC)C)CCC(=O)[O-])CC(C)C)CO)CO)C(CC)C)CCC(=O)N)Cc7nc[nH]c7)C(C)C)CCC(=O)[O-])Cc7nc[nH]c7)CC(C)C)CS)CCC(=O)N)CCCNC(=[NH2+])N)Cc7ccccc7)C(C)C)CCCC[NH3+])Cc7c8c([nH]c7)cccc8)CCC6)C(C)C)C(CC)C)C(O)C)CCCC[NH3+])CC(=O)[O-])Cc6ccccc6)Cc6ccccc6)CCCC[NH3+])CCCNC(=[NH2+])N)Cc6c7c([nH]c6)cccc7)Cc6ccccc6)CCC(=O)[O-])C)C)CC(=O)[O-])C)CCCC[NH3+])C(O)C)C(CC)C)CCCNC(=[NH2+])N)Cc6ccccc6)CC(=O)N)CC(=O)[O-])CCC(=O)N)Cc6ccccc6)CCC(=O)N)CC(=O)N)CCC5)Cc5ccccc5)C(CC)C)C)CCCC[NH3+])C(CC)C)CCC(=O)[O-])C)CC(C)C)CCSC)Cc5nc[nH]c5)CO)Cc5ccccc5)C(CC)C)CC(C)C)CO)CC(C)C)CCCC[NH3+])C(O)C)CC(C)C)CC(=O)N)CCCNC(=[NH2+])N)CCCNC(=[NH2+])N)CC(=O)[O-])CCC(=O)N)CO)CCC(=O)N)CCC(=O)[O-])CCC(=O)[O-])Cc5ccc(O)cc5)CCSC)CCCNC(=[NH2+])N)CCC(=O)[O-])CCCC[NH3+])CCC(=O)[O-])CCCC[NH3+])Cc5ccccc5)CC(C)C)CCCNC(=[NH2+])N)C(CC)C)C)CCCNC(=[NH2+])N)CCCC[NH3+])CO)CCCC[NH3+])CCCC[NH3+])CCSC)CC(C)C)CO)CC(=O)[O-])C(CC)C)Cc5ccc(O)cc5)C(CC)C)CCCC[NH3+])Cc5ccccc5)Cc5ccc(O)cc5)CCC(=O)[O-])CC(=O)N)CCC(=O)[O-])CO)CC(C)C)CCC(=O)N)C)CC(C)C)CCCC[NH3+])CCC(=O)N)CC(=O)N)CC(=O)[O-])CC(=O)[O-])Cc5ccc(O)cc5)CCCC[NH3+])CO)CC(C)C)C(CC)C)CC(C)C)CCCNC(=[NH2+])N)CC(C)C)Cc5nc[nH]c5)CCC(=O)N)Cc5ccc(O)cc5)C(O)C)CC(=O)[O-])CCC4)CC(C)C)C(CC)C)CC(=O)[O-])CC(C)C)C(CC)C)Cc4ccc(O)cc4)CCC3)CCC2)CO)CC(=O)N)CCCC[NH3+])CC(C)C)CCC(=O)N)CC(C)C)CCCC[NH3+])CCC1)CC(=O)N)CCC(=O)N)CS)CC(C)C)CCCNC(=[NH2+])N)C(C)C)C(C)C)C)CC(=O)[O-])C.OCCO.[UH+3].[Zn+2].[Zn+2].O.O.O.O.O.O.O.O.O.O.O.O.O.O.O.O.O.O.O.O.O.O.O.O.O.O.O.O.O.O.O.O.O.O.O.O.O.O.O.O.O.O.O.O.O.O.O.O.O.O.O.O.O.O.O.O.O.O.O.O.O.O.O.O.O.O.O.O.O.O.O.O.O.O.O.O.O.O.O.O.O.O.O.O.O.O.O.O.O.O.O.O.O.O.O.O.O.O.O.O.O.O.O.O.O.O.O.O.O.O.O.O.O.O.O.O.O.O.O.O.O.O.O.O.O.O.O.O.O.O.O.O.O.O.O.O.O.O.O.O.O.O

>  <rseq>
1

>  <mseq>
81

>  <S>
-7.0081954

>  <rmsd_refine>
1.9300967

>  <E_conf>
-59.800274

>  <E_place>
-56.076035

>  <E_score1>
-10.221045

>  <E_refine>
-33.167305

>  <E_score2>
-7.0081954

>  <Field_2>
UD01

>  <pseq>
81

>  <%C>
97.504745

>  <a_heavy>
22

>  <h_logP>
1.8148475

>  <Weight>
295.34198

>  <E_orig>
1.2

>  <PLIF_raw>
[[],[],[],[],[]]

>  <PLIF_ligidx>
[]

$$$$

  MOE2020           3D

 34 35  0  0  1  0  0  0  0  0999 V2000
    5.5840    6.0990   15.3320 C   0  0  0  0  0  0  0  0  0  0  0  0
    6.4100    6.1940   14.6310 H   0  0  0  0  0  0  0  0  0  0  0  0
    4.6590    6.2380   14.7770 H   0  0  0  0  0  0  0  0  0  0  0  0
    5.6570    6.8920   16.0720 H   0  0  0  0  0  0  0  0  0  0  0  0
    5.6050    4.7080   15.9780 C   0  0  0  0  0  0  0  0  0  0  0  0
    4.6200    4.5730   16.4080 H   0  0  0  0  0  0  0  0  0  0  0  0
    5.7290    3.6370   14.8960 C   0  0  0  0  0  0  0  0  0  0  0  0
    5.7670    2.6550   15.3610 H   0  0  0  0  0  0  0  0  0  0  0  0
    6.6350    3.7700   14.3040 H   0  0  0  0  0  0  0  0  0  0  0  0
    4.8770    3.6810   14.2180 H   0  0  0  0  0  0  0  0  0  0  0  0
    6.6220    4.5300   17.0790 N   0  3  3  0  0  0  0  0  0  0  0  0
    6.5420    3.5630   17.3700 H   0  0  0  0  0  0  0  0  0  0  0  0
    8.0330    4.7280   16.6360 C   0  0  0  0  0  0  0  0  0  0  0  0
    8.7550    4.4310   17.3850 H   0  0  0  0  0  0  0  0  0  0  0  0
    8.2560    5.7610   16.4040 H   0  0  0  0  0  0  0  0  0  0  0  0
    8.2850    4.1710   15.7460 H   0  0  0  0  0  0  0  0  0  0  0  0
    6.3340    5.3400   18.2970 C   0  0  0  0  0  0  0  0  0  0  0  0
    7.0480    5.1230   19.0820 H   0  0  0  0  0  0  0  0  0  0  0  0
    6.4770    6.3950   18.1070 H   0  0  0  0  0  0  0  0  0  0  0  0
    4.9600    5.1640   18.8810 C   0  0  0  0  0  0  0  0  0  0  0  0
    4.4920    4.0540   19.5040 C   0  0  0  0  0  0  0  0  0  0  0  0
    4.9540    3.1150   19.6570 H   0  0  0  0  0  0  0  0  0  0  0  0
    3.2420    4.3320   20.0020 N   0  0  0  0  0  0  0  0  0  0  0  0
    2.6530    3.6810   20.5500 H   0  0  0  0  0  0  0  0  0  0  0  0
    2.9130    5.6360   19.7000 C   0  0  0  0  0  0  0  0  0  0  0  0
    1.7970    6.3970   20.0660 C   0  0  0  0  0  0  0  0  0  0  0  0
    1.0410    5.9890   20.6840 H   0  0  0  0  0  0  0  0  0  0  0  0
    1.7160    7.6940   19.5890 C   0  0  0  0  0  0  0  0  0  0  0  0
    0.8900    8.3050   19.8480 H   0  0  0  0  0  0  0  0  0  0  0  0
    2.7220    8.2120   18.7430 C   0  0  0  0  0  0  0  0  0  0  0  0
    2.6300    9.2000   18.3710 H   0  0  0  0  0  0  0  0  0  0  0  0
    3.8310    7.4490   18.4190 C   0  0  0  0  0  0  0  0  0  0  0  0
    4.6020    7.8450   17.8200 H   0  0  0  0  0  0  0  0  0  0  0  0
    3.9520    6.1500   18.9390 C   0  0  0  0  0  0  0  0  0  0  0  0
  1  2  1  0  0  0  0
  1  3  1  0  0  0  0
  1  4  1  0  0  0  0
  1  5  1  0  0  0  0
  5  6  1  0  0  0  0
  5  7  1  0  0  0  0
  5 11  1  0  0  0  0
  7  8  1  0  0  0  0
  7  9  1  0  0  0  0
  7 10  1  0  0  0  0
 11 12  1  0  0  0  0
 11 13  1  0  0  0  0
 11 17  1  0  0  0  0
 13 14  1  0  0  0  0
 13 15  1  0  0  0  0
 13 16  1  0  0  0  0
 17 18  1  0  0  0  0
 17 19  1  0  0  0  0
 17 20  1  0  0  0  0
 20 21  2  0  0  0  0
 20 34  1  0  0  0  0
 21 22  1  0  0  0  0
 21 23  1  0  0  0  0
 23 24  1  0  0  0  0
 23 25  1  0  0  0  0
 25 26  1  0  0  0  0
 25 34  2  0  0  0  0
 26 27  1  0  0  0  0
 26 28  2  0  0  0  0
 28 29  1  0  0  0  0
 28 30  1  0  0  0  0
 30 31  1  0  0  0  0
 30 32  2  0  0  0  0
 32 33  1  0  0  0  0
 32 34  1  0  0  0  0
M  CHG  1  11   1
M  END
>  <receptor>
S(=O)(=O)([O-])[O-].S(CCC(NC(=O)C(NC(=O)C(NC(=O)CNC(=O)C(NC(=O)C1N(C(=O)C(NC(=O)C(NC(=O)C(NC(=O)C(NC(=O)C(NC(=O)C(NC(=O)C(NC(=O)C(NC(=O)C(NC(=O)C(NC(=O)C(NC(=O)C(NC(=O)C(NC(=O)C(NC(=O)C(NC(=O)C(NC(=O)C(NC(=O)C(NC(=O)C(NC(=O)CNC(=O)C(NC(=O)C(NC(=O)C(NC(=O)C(NC(=O)C(NC(=O)C(NC(=O)C(NC(=O)C(NC(=O)C(NC(=O)C(NC(=O)C(NC(=O)C(NC(=O)C(NC(=O)C)CCCC[NH3+])C(C)C)C(O)C)CCC(=O)N)CCC(=O)[O-])CCC(=O)N)Cc2ccccc2)CCC(=O)[O-])CC(C)C)Cc2ccc(O)cc2)CS)CCC(=O)[O-])CCSC)CO)C(O)C)Cc2ccccc2)CCC(=O)N)CC(C)C)C[S-])CCCC[NH3+])C(CC)C)C[S-])C)CCC(=O)[O-])CC(=O)N)CC(=O)[O-])CCCC[NH3+])CC(=O)[O-])C(C)C)CCCC[NH3+])C(CC)C)CCC(=O)[O-])CCC1)C[S-])Cc1nc[n-]c1)CC(C)C)C(=O)NC(C(=O)NC(C(=O)NC(C(=O)NC(C(=O)NC(C(=O)NC(C(=O)NC(C(=O)NC(C(=O)NC(C(=O)NC(C(=O)NC(C(=O)NC(C(=O)NCC(=O)NC(C(=O)NCC(=O)NC(C(=O)N1C(C(=O)NC(C(=O)NC(C(=O)NC(C(=O)NC(C(=O)NC(C(=O)NC(C(=O)NC(C(=O)NCC(=O)NC(C(=O)NC(C(=O)N2C(C(=O)NC(C(=O)NC(C(=O)NC(C(=O)NC(C(=O)N3C(C(=O)NC(C(=O)NC(C(=O)[O-])CC(=O)[O-])Cc4ccccc4)CCC3)CC(=O)[O-])C(C)C)C(CC)C)C(CC)C)CCC2)CCC(=O)[O-])C(O)C)CCCC[NH3+])C(CC)C)CCC(=O)[O-])CS)CCCNC(=[NH2+])N)C[S-])Cc2ccccc2)CCC1)C[S-])CCC(=O)N)CC(=O)[O-])CO)CCC(=O)[O-])CCC(=O)N)Cc1c2c([nH]c1)cccc2)C)C(O)C)CC(C)C)C[S-])CO)C(O)C)C[S-])C.S(CCC(NC(=O)C(NC(=O)C(NC(=O)C(NC(=O)C(NC(=O)C(NC(=O)C(NC(=O)C(NC(=O)C(NC(=O)C(NC(=O)C(NC(=O)C(NC(=O)C(NC(=O)C(NC(=O)C(NC(=O)C(NC(=O)C[NH3+])CCC(=O)N)C)C)C)CC(=O)[O-])CCCNC(=[NH2+])N)CCCNC(=[NH2+])N)C(O)C)C(C)C)CCC(=O)[O-])CCCC[NH3+])C(O)C)Cc1c2c([nH]c1)cccc2)C)CC(C)C)C(=O)NC(C(=O)NC(C(=O)NC(C(=O)NC(C(=O)NC(C(=O)NC(C(=O)NC(C(=O)NC(C(=O)NC(C(=O)N1C(C(=O)NC(C(=O)NC(C(=O)NC(C(=O)NC(C(=O)NC(C(=O)NC(C(=O)NC(C(=O)N2C(C(=O)N3C(C(=O)NC(C(=O)NC(C(=O)NC(C(=O)NC(C(=O)NC(C(=O)NC(C(=O)N4C(C(=O)NC(C(=O)NC(C(=O)NC(C(=O)NC(C(=O)NC(C(=O)NC(C(=O)NC(C(=O)NC(C(=O)NC(C(=O)NC(C(=O)NC(C(=O)NC(C(=O)NC(C(=O)NC(C(=O)NC(C(=O)NC(C(=O)NC(C(=O)NC(C(=O)NC(C(=O)NC(C(=O)NC(C(=O)NC(C(=O)NC(C(=O)NC(C(=O)NC(C(=O)NC(C(=O)NC(C(=O)NC(C(=O)NC(C(=O)NC(C(=O)NC(C(=O)NC(C(=O)NC(C(=O)NC(C(=O)NC(C(=O)NC(C(=O)NC(C(=O)NC(C(=O)NC(C(=O)NC(C(=O)NC(C(=O)NC(C(=O)NC(C(=O)NC(C(=O)NC(C(=O)NC(C(=O)NC(C(=O)NC(C(=O)NCC(=O)NC(C(=O)NC(C(=O)NC(C(=O)NC(C(=O)NC(C(=O)NC(C(=O)NC(C(=O)NC(C(=O)NC(C(=O)NC(C(=O)NC(C(=O)NC(C(=O)NC(C(=O)NC(C(=O)NC(C(=O)NC(C(=O)NC(C(=O)NC(C(=O)NC(C(=O)NC(C(=O)NC(C(=O)NC(C(=O)NC(C(=O)NC(C(=O)NC(C(=O)NC(C(=O)NC(C(=O)NC(C(=O)NC(C(=O)NC(C(=O)NC(C(=O)NC(C(=O)NC(C(=O)N5C(C(=O)NC(C(=O)NCC(=O)NC(C(=O)NC(C(=O)NC(C(=O)NCC(=O)NC(C(=O)NC(C(=O)NC(C(=O)NC(C(=O)NC(C(=O)NC(C(=O)NC(C(=O)NC(C(=O)NC(C(=O)NC(C(=O)NC(C(=O)NC(C(=O)NC(C(=O)NC(C(=O)NC(C(=O)NC(C(=O)NC(C(=O)NC(C(=O)NCC(=O)NC(C(=O)NC(C(=O)NC(C(=O)NC(C(=O)NC(C(=O)N6C(C(=O)NC(C(=O)NC(C(=O)NC(C(=O)NC(C(=O)NC(C(=O)NC(C(=O)NC(C(=O)NC(C(=O)NC(C(=O)NC(C(=O)NC(C(=O)NC(C(=O)NC(C(=O)NC(C(=O)NC(C(=O)NC(C(=O)NCC(=O)NC(C(=O)NC(C(=O)NC(C(=O)NC(C(=O)NC(C(=O)NC(C(=O)NC(C(=O)NC(C(=O)NC(C(=O)NC(C(=O)NC(C(=O)NC(C(=O)NC(C(=O)NC(C(=O)NC(C(=O)NC(C(=O)NC(C(=O)NC(C(=O)NC(C(=O)NC(C(=O)NC(C(=O)NC(C(=O)NC(C(=O)NC(C(=O)NC(C(=O)NC(C(=O)NC(C(=O)NC(C(=O)NC(C(=O)NC(C(=O)NC(C(=O)N7C(C(=O)NC(C(=O)NCC(=O)NC(C(=O)NC(C(=O)NC(C(=O)NC(C(=O)NC(C(=O)NC(C(=O)NC(C(=O)NC(C(=O)NC(C(=O)NC(C(=O)NC(C(=O)NC(C(=O)NC(C(=O)N8C(C(=O)NCC(=O)NC(C(=O)NC(C(=O)NC(C(=O)NC(C(=O)NC(C(=O)NC(C(=O)NC(C(=O)NC(C(=O)NC(C(=O)NC(C(=O)NC(C(=O)NC(C(=O)NC(C(=O)NC(C(=O)NC(C(=O)NC(C(=O)NC(C(=O)NC(C(=O)NC(C(=O)NC(C(=O)N9C(C(=O)NCC(=O)NC(C(=O)NC(C(=O)NC(C(=O)NC(C(=O)NC(C(=O)NC(C(=O)NC(C(=O)NC(C(=O)NC(C(=O)NC(C(=O)NC(C(=O)NCC(=O)NC(C(=O)NC(C(=O)NC(C(=O)NC(C(=O)NCC(=O)NC(C(=O)NC(C(=O)NC(C(=O)NCC(=O)NC(C(=O)NCC(=O)NC(C(=O)NC(C(=O)NC(C(=O)NC(C(=O)NC(C(=O)NC(C(=O)N%10C(C(=O)NC(C(=O)NC(C(=O)NC(C(=O)N%11C(C(=O)NC(C(=O)NC(C(=O)NC(C(=O)NC(C(=O)NC(C(=O)NC(C(=O)NC(C(=O)NCC(=O)NC(C(=O)NC(C(=O)NC(C(=O)NCC(=O)NC(C(=O)NC(C(=O)NC(C(=O)NC(C(=O)N%12C(C(=O)NC(C(=O)NCC(=O)NC(C(=O)NC(C(=O)NC(C(=O)NC(C(=O)NC)CC(=O)N)Cc%13ccc(O)cc%13)CO)CCCNC(=[NH2+])N)CC(=O)[O-])CCC%12)Cc%12ccc(O)cc%12)CC(C)C)Cc%12ccc(O)cc%12)Cc%12ccccc%12)CCC(=O)[O-])C)CO)CC(=O)[O-])C(CC)C)CC(C)C)C)CCC(=O)N)Cc%12ccccc%12)CC(C)C)CCC%11)CCCC[NH3+])CC(=O)N)Cc%11[nH]cnc%11)CCC%10)C(CC)C)C(O)C)CCC(=O)N)CC(C)C)C(CC)C)CC(=O)N)CC(=O)[O-])C(O)C)C(C)C)Cc%10ccc(O)cc%10)C(CC)C)C)Cc%10c%11c([nH]c%10)cccc%11)CCC(=O)N)CC(C)C)CCCNC(=[NH2+])N)C(O)C)CS)CO)CC(C)C)CCCNC(=[NH2+])N)Cc%10ccccc%10)C(CC)C)Cc%10ccc(O)cc%10)CO)CCC9)CCCC[NH3+])C(O)C)CO)Cc9ccc(O)cc9)CCCC[NH3+])CCC(=O)N)CC(C)C)CCCNC(=[NH2+])N)C)CCCC[NH3+])C(C)C)CCC(=O)[O-])CC(=O)[O-])Cc9ccc(O)cc9)C(O)C)CC(C)C)Cc9ccccc9)C)CCSC)Cc9ccc(O)cc9)CCC8)Cc8nc[nH]c8)C(O)C)C(C)C)C)CC(C)C)Cc8ccccc8)CC(=O)N)Cc8c9c([nH]c8)cccc9)CC(=O)N)CCCNC(=[NH2+])N)CC(C)C)C(CC)C)CO)Cc8c9c([nH]c8)cccc9)CCC7)CCC(=O)N)Cc7ccccc7)CC(C)C)CCCNC(=[NH2+])N)C(O)C)Cc7ccccc7)C(CC)C)CC(=O)[O-])Cc7ccccc7)CCC(=O)[O-])Cc7ccccc7)C(C)C)CO)C(CC)C)Cc7ccc(O)cc7)CC(=O)[O-])CC(=O)N)CS)C(O)C)CC(C)C)CC(=O)[O-])C(CC)C)C(O)C)CO)CCCC[NH3+])CC(C)C)C)CCSC)C)CCC(=O)[O-])CC(C)C)CO)CO)C(CC)C)CCC(=O)N)Cc7nc[nH]c7)C(C)C)CCC(=O)[O-])Cc7nc[nH]c7)CC(C)C)CS)CCC(=O)N)CCCNC(=[NH2+])N)Cc7ccccc7)C(C)C)CCCC[NH3+])Cc7c8c([nH]c7)cccc8)CCC6)C(C)C)C(CC)C)C(O)C)CCCC[NH3+])CC(=O)[O-])Cc6ccccc6)Cc6ccccc6)CCCC[NH3+])CCCNC(=[NH2+])N)Cc6c7c([nH]c6)cccc7)Cc6ccccc6)CCC(=O)[O-])C)C)CC(=O)[O-])C)CCCC[NH3+])C(O)C)C(CC)C)CCCNC(=[NH2+])N)Cc6ccccc6)CC(=O)N)CC(=O)[O-])CCC(=O)N)Cc6ccccc6)CCC(=O)N)CC(=O)N)CCC5)Cc5ccccc5)C(CC)C)C)CCCC[NH3+])C(CC)C)CCC(=O)[O-])C)CC(C)C)CCSC)Cc5nc[nH]c5)CO)Cc5ccccc5)C(CC)C)CC(C)C)CO)CC(C)C)CCCC[NH3+])C(O)C)CC(C)C)CC(=O)N)CCCNC(=[NH2+])N)CCCNC(=[NH2+])N)CC(=O)[O-])CCC(=O)N)CO)CCC(=O)N)CCC(=O)[O-])CCC(=O)[O-])Cc5ccc(O)cc5)CCSC)CCCNC(=[NH2+])N)CCC(=O)[O-])CCCC[NH3+])CCC(=O)[O-])CCCC[NH3+])Cc5ccccc5)CC(C)C)CCCNC(=[NH2+])N)C(CC)C)C)CCCNC(=[NH2+])N)CCCC[NH3+])CO)CCCC[NH3+])CCCC[NH3+])CCSC)CC(C)C)CO)CC(=O)[O-])C(CC)C)Cc5ccc(O)cc5)C(CC)C)CCCC[NH3+])Cc5ccccc5)Cc5ccc(O)cc5)CCC(=O)[O-])CC(=O)N)CCC(=O)[O-])CO)CC(C)C)CCC(=O)N)C)CC(C)C)CCCC[NH3+])CCC(=O)N)CC(=O)N)CC(=O)[O-])CC(=O)[O-])Cc5ccc(O)cc5)CCCC[NH3+])CO)CC(C)C)C(CC)C)CC(C)C)CCCNC(=[NH2+])N)CC(C)C)Cc5nc[nH]c5)CCC(=O)N)Cc5ccc(O)cc5)C(O)C)CC(=O)[O-])CCC4)CC(C)C)C(CC)C)CC(=O)[O-])CC(C)C)C(CC)C)Cc4ccc(O)cc4)CCC3)CCC2)CO)CC(=O)N)CCCC[NH3+])CC(C)C)CCC(=O)N)CC(C)C)CCCC[NH3+])CCC1)CC(=O)N)CCC(=O)N)CS)CC(C)C)CCCNC(=[NH2+])N)C(C)C)C(C)C)C)CC(=O)[O-])C.OCCO.[UH+3].[Zn+2].[Zn+2].O.O.O.O.O.O.O.O.O.O.O.O.O.O.O.O.O.O.O.O.O.O.O.O.O.O.O.O.O.O.O.O.O.O.O.O.O.O.O.O.O.O.O.O.O.O.O.O.O.O.O.O.O.O.O.O.O.O.O.O.O.O.O.O.O.O.O.O.O.O.O.O.O.O.O.O.O.O.O.O.O.O.O.O.O.O.O.O.O.O.O.O.O.O.O.O.O.O.O.O.O.O.O.O.O.O.O.O.O.O.O.O.O.O.O.O.O.O.O.O.O.O.O.O.O.O.O.O.O.O.O.O.O.O.O.O.O.O.O.O.O.O

>  <rseq>
1

>  <mseq>
82

>  <S>
-6.0193305

>  <rmsd_refine>
1.5124099

>  <E_conf>
-2.4723375

>  <E_place>
-48.927685

>  <E_score1>
-8.908205

>  <E_refine>
-24.673403

>  <E_score2>
-6.0193305

>  <Field_2>
UD02

>  <pseq>
82

>  <%C>
99.910553

>  <a_heavy>
15

>  <h_logP>
-0.25845557

>  <Weight>
203.30899

>  <E_orig>
0.60274619

>  <PLIF_raw>
[[11,23],[3028,6369],[218,220696],[3,5],[0.7,0.9]]

>  <FP:PLIF>
2 29

>  <PLIF_ligidx>
[11,23]

$$$$

  MOE2020           3D

 34 35  0  0  0  0  0  0  0  0999 V2000
    6.0930    3.8720   15.5780 C   0  0  0  0  0  0  0  0  0  0  0  0
    5.4780    4.5760   15.0330 H   0  0  0  0  0  0  0  0  0  0  0  0
    5.8630    2.8980   15.1660 H   0  0  0  0  0  0  0  0  0  0  0  0
    7.1120    4.0820   15.2810 H   0  0  0  0  0  0  0  0  0  0  0  0
    5.8890    3.9410   17.0630 N   0  3  0  0  0  0  0  0  0  0  0  0
    6.4400    3.2000   17.4820 H   0  0  0  0  0  0  0  0  0  0  0  0
    4.4590    3.6670   17.4490 C   0  0  0  0  0  0  0  0  0  0  0  0
    3.7920    4.2840   16.8640 H   0  0  0  0  0  0  0  0  0  0  0  0
    4.1680    2.6560   17.2000 H   0  0  0  0  0  0  0  0  0  0  0  0
    4.1300    3.9200   18.9320 C   0  0  0  0  0  0  0  0  0  0  0  0
    4.6550    3.1940   19.5370 H   0  0  0  0  0  0  0  0  0  0  0  0
    3.0820    3.7490   19.1260 H   0  0  0  0  0  0  0  0  0  0  0  0
    4.5090    5.2640   19.3710 N   0  0  0  0  0  0  0  0  0  0  0  0
    3.5660    6.2900   19.1100 C   0  0  0  0  0  0  0  0  0  0  0  0
    2.6480    6.6250   20.1150 C   0  0  0  0  0  0  0  0  0  0  0  0
    2.5900    6.0320   20.9900 H   0  0  0  0  0  0  0  0  0  0  0  0
    1.8550    7.7650   19.9860 C   0  0  0  0  0  0  0  0  0  0  0  0
    1.9020    8.4960   18.7970 C   0  0  0  0  0  0  0  0  0  0  0  0
    2.7340    8.1010   17.7530 C   0  0  0  0  0  0  0  0  0  0  0  0
    2.7220    8.6340   16.8440 H   0  0  0  0  0  0  0  0  0  0  0  0
    3.5770    7.0090   17.9080 C   0  0  0  0  0  0  0  0  0  0  0  0
    4.2170    6.7290   17.1160 H   0  0  0  0  0  0  0  0  0  0  0  0
    1.1050    9.6180   18.6550 O   0  0  0  0  0  0  0  0  0  0  0  0
    1.6250   10.8570   18.1240 C   0  0  0  0  0  0  0  0  0  0  0  0
    1.9860   10.7210   17.1070 H   0  0  0  0  0  0  0  0  0  0  0  0
    2.4460   11.2180   18.7430 H   0  0  0  0  0  0  0  0  0  0  0  0
    0.8390   11.6130   18.1110 H   0  0  0  0  0  0  0  0  0  0  0  0
    0.7700    8.3580   21.4220 Br  0  0  0  0  0  0  0  0  0  0  0  0
    5.9360    5.5440   19.0900 C   0  0  0  0  0  0  0  0  0  0  0  0
    6.1680    6.5710   19.3250 H   0  0  0  0  0  0  0  0  0  0  0  0
    6.5400    4.9560   19.7680 H   0  0  0  0  0  0  0  0  0  0  0  0
    6.3890    5.2400   17.6470 C   0  0  0  0  0  0  0  0  0  0  0  0
    7.4690    5.2970   17.6140 H   0  0  0  0  0  0  0  0  0  0  0  0
    6.0780    6.0710   17.0320 H   0  0  0  0  0  0  0  0  0  0  0  0
  1  2  1  0  0  0  0
  1  3  1  0  0  0  0
  1  4  1  0  0  0  0
  1  5  1  0  0  0  0
  5  6  1  0  0  0  0
  5  7  1  0  0  0  0
  5 32  1  0  0  0  0
  7  8  1  0  0  0  0
  7  9  1  0  0  0  0
  7 10  1  0  0  0  0
 10 11  1  0  0  0  0
 10 12  1  0  0  0  0
 10 13  1  0  0  0  0
 13 14  1  0  0  0  0
 13 29  1  0  0  0  0
 14 15  1  0  0  0  0
 14 21  2  0  0  0  0
 15 16  1  0  0  0  0
 15 17  2  0  0  0  0
 17 18  1  0  0  0  0
 17 28  1  0  0  0  0
 18 19  2  0  0  0  0
 18 23  1  0  0  0  0
 19 20  1  0  0  0  0
 19 21  1  0  0  0  0
 21 22  1  0  0  0  0
 23 24  1  0  0  0  0
 24 25  1  0  0  0  0
 24 26  1  0  0  0  0
 24 27  1  0  0  0  0
 29 30  1  0  0  0  0
 29 31  1  0  0  0  0
 29 32  1  0  0  0  0
 32 33  1  0  0  0  0
 32 34  1  0  0  0  0
M  CHG  1   5   1
M  END
>  <receptor>
S(=O)(=O)([O-])[O-].S(CCC(NC(=O)C(NC(=O)C(NC(=O)CNC(=O)C(NC(=O)C1N(C(=O)C(NC(=O)C(NC(=O)C(NC(=O)C(NC(=O)C(NC(=O)C(NC(=O)C(NC(=O)C(NC(=O)C(NC(=O)C(NC(=O)C(NC(=O)C(NC(=O)C(NC(=O)C(NC(=O)C(NC(=O)C(NC(=O)C(NC(=O)C(NC(=O)C(NC(=O)CNC(=O)C(NC(=O)C(NC(=O)C(NC(=O)C(NC(=O)C(NC(=O)C(NC(=O)C(NC(=O)C(NC(=O)C(NC(=O)C(NC(=O)C(NC(=O)C(NC(=O)C(NC(=O)C)CCCC[NH3+])C(C)C)C(O)C)CCC(=O)N)CCC(=O)[O-])CCC(=O)N)Cc2ccccc2)CCC(=O)[O-])CC(C)C)Cc2ccc(O)cc2)CS)CCC(=O)[O-])CCSC)CO)C(O)C)Cc2ccccc2)CCC(=O)N)CC(C)C)C[S-])CCCC[NH3+])C(CC)C)C[S-])C)CCC(=O)[O-])CC(=O)N)CC(=O)[O-])CCCC[NH3+])CC(=O)[O-])C(C)C)CCCC[NH3+])C(CC)C)CCC(=O)[O-])CCC1)C[S-])Cc1nc[n-]c1)CC(C)C)C(=O)NC(C(=O)NC(C(=O)NC(C(=O)NC(C(=O)NC(C(=O)NC(C(=O)NC(C(=O)NC(C(=O)NC(C(=O)NC(C(=O)NC(C(=O)NC(C(=O)NCC(=O)NC(C(=O)NCC(=O)NC(C(=O)N1C(C(=O)NC(C(=O)NC(C(=O)NC(C(=O)NC(C(=O)NC(C(=O)NC(C(=O)NC(C(=O)NCC(=O)NC(C(=O)NC(C(=O)N2C(C(=O)NC(C(=O)NC(C(=O)NC(C(=O)NC(C(=O)N3C(C(=O)NC(C(=O)NC(C(=O)[O-])CC(=O)[O-])Cc4ccccc4)CCC3)CC(=O)[O-])C(C)C)C(CC)C)C(CC)C)CCC2)CCC(=O)[O-])C(O)C)CCCC[NH3+])C(CC)C)CCC(=O)[O-])CS)CCCNC(=[NH2+])N)C[S-])Cc2ccccc2)CCC1)C[S-])CCC(=O)N)CC(=O)[O-])CO)CCC(=O)[O-])CCC(=O)N)Cc1c2c([nH]c1)cccc2)C)C(O)C)CC(C)C)C[S-])CO)C(O)C)C[S-])C.S(CCC(NC(=O)C(NC(=O)C(NC(=O)C(NC(=O)C(NC(=O)C(NC(=O)C(NC(=O)C(NC(=O)C(NC(=O)C(NC(=O)C(NC(=O)C(NC(=O)C(NC(=O)C(NC(=O)C(NC(=O)C(NC(=O)C[NH3+])CCC(=O)N)C)C)C)CC(=O)[O-])CCCNC(=[NH2+])N)CCCNC(=[NH2+])N)C(O)C)C(C)C)CCC(=O)[O-])CCCC[NH3+])C(O)C)Cc1c2c([nH]c1)cccc2)C)CC(C)C)C(=O)NC(C(=O)NC(C(=O)NC(C(=O)NC(C(=O)NC(C(=O)NC(C(=O)NC(C(=O)NC(C(=O)NC(C(=O)N1C(C(=O)NC(C(=O)NC(C(=O)NC(C(=O)NC(C(=O)NC(C(=O)NC(C(=O)NC(C(=O)N2C(C(=O)N3C(C(=O)NC(C(=O)NC(C(=O)NC(C(=O)NC(C(=O)NC(C(=O)NC(C(=O)N4C(C(=O)NC(C(=O)NC(C(=O)NC(C(=O)NC(C(=O)NC(C(=O)NC(C(=O)NC(C(=O)NC(C(=O)NC(C(=O)NC(C(=O)NC(C(=O)NC(C(=O)NC(C(=O)NC(C(=O)NC(C(=O)NC(C(=O)NC(C(=O)NC(C(=O)NC(C(=O)NC(C(=O)NC(C(=O)NC(C(=O)NC(C(=O)NC(C(=O)NC(C(=O)NC(C(=O)NC(C(=O)NC(C(=O)NC(C(=O)NC(C(=O)NC(C(=O)NC(C(=O)NC(C(=O)NC(C(=O)NC(C(=O)NC(C(=O)NC(C(=O)NC(C(=O)NC(C(=O)NC(C(=O)NC(C(=O)NC(C(=O)NC(C(=O)NC(C(=O)NC(C(=O)NC(C(=O)NC(C(=O)NC(C(=O)NCC(=O)NC(C(=O)NC(C(=O)NC(C(=O)NC(C(=O)NC(C(=O)NC(C(=O)NC(C(=O)NC(C(=O)NC(C(=O)NC(C(=O)NC(C(=O)NC(C(=O)NC(C(=O)NC(C(=O)NC(C(=O)NC(C(=O)NC(C(=O)NC(C(=O)NC(C(=O)NC(C(=O)NC(C(=O)NC(C(=O)NC(C(=O)NC(C(=O)NC(C(=O)NC(C(=O)NC(C(=O)NC(C(=O)NC(C(=O)NC(C(=O)NC(C(=O)NC(C(=O)NC(C(=O)N5C(C(=O)NC(C(=O)NCC(=O)NC(C(=O)NC(C(=O)NC(C(=O)NCC(=O)NC(C(=O)NC(C(=O)NC(C(=O)NC(C(=O)NC(C(=O)NC(C(=O)NC(C(=O)NC(C(=O)NC(C(=O)NC(C(=O)NC(C(=O)NC(C(=O)NC(C(=O)NC(C(=O)NC(C(=O)NC(C(=O)NC(C(=O)NC(C(=O)NCC(=O)NC(C(=O)NC(C(=O)NC(C(=O)NC(C(=O)NC(C(=O)N6C(C(=O)NC(C(=O)NC(C(=O)NC(C(=O)NC(C(=O)NC(C(=O)NC(C(=O)NC(C(=O)NC(C(=O)NC(C(=O)NC(C(=O)NC(C(=O)NC(C(=O)NC(C(=O)NC(C(=O)NC(C(=O)NC(C(=O)NCC(=O)NC(C(=O)NC(C(=O)NC(C(=O)NC(C(=O)NC(C(=O)NC(C(=O)NC(C(=O)NC(C(=O)NC(C(=O)NC(C(=O)NC(C(=O)NC(C(=O)NC(C(=O)NC(C(=O)NC(C(=O)NC(C(=O)NC(C(=O)NC(C(=O)NC(C(=O)NC(C(=O)NC(C(=O)NC(C(=O)NC(C(=O)NC(C(=O)NC(C(=O)NC(C(=O)NC(C(=O)NC(C(=O)NC(C(=O)NC(C(=O)NC(C(=O)N7C(C(=O)NC(C(=O)NCC(=O)NC(C(=O)NC(C(=O)NC(C(=O)NC(C(=O)NC(C(=O)NC(C(=O)NC(C(=O)NC(C(=O)NC(C(=O)NC(C(=O)NC(C(=O)NC(C(=O)NC(C(=O)N8C(C(=O)NCC(=O)NC(C(=O)NC(C(=O)NC(C(=O)NC(C(=O)NC(C(=O)NC(C(=O)NC(C(=O)NC(C(=O)NC(C(=O)NC(C(=O)NC(C(=O)NC(C(=O)NC(C(=O)NC(C(=O)NC(C(=O)NC(C(=O)NC(C(=O)NC(C(=O)NC(C(=O)NC(C(=O)N9C(C(=O)NCC(=O)NC(C(=O)NC(C(=O)NC(C(=O)NC(C(=O)NC(C(=O)NC(C(=O)NC(C(=O)NC(C(=O)NC(C(=O)NC(C(=O)NC(C(=O)NCC(=O)NC(C(=O)NC(C(=O)NC(C(=O)NC(C(=O)NCC(=O)NC(C(=O)NC(C(=O)NC(C(=O)NCC(=O)NC(C(=O)NCC(=O)NC(C(=O)NC(C(=O)NC(C(=O)NC(C(=O)NC(C(=O)NC(C(=O)N%10C(C(=O)NC(C(=O)NC(C(=O)NC(C(=O)N%11C(C(=O)NC(C(=O)NC(C(=O)NC(C(=O)NC(C(=O)NC(C(=O)NC(C(=O)NC(C(=O)NCC(=O)NC(C(=O)NC(C(=O)NC(C(=O)NCC(=O)NC(C(=O)NC(C(=O)NC(C(=O)NC(C(=O)N%12C(C(=O)NC(C(=O)NCC(=O)NC(C(=O)NC(C(=O)NC(C(=O)NC(C(=O)NC)CC(=O)N)Cc%13ccc(O)cc%13)CO)CCCNC(=[NH2+])N)CC(=O)[O-])CCC%12)Cc%12ccc(O)cc%12)CC(C)C)Cc%12ccc(O)cc%12)Cc%12ccccc%12)CCC(=O)[O-])C)CO)CC(=O)[O-])C(CC)C)CC(C)C)C)CCC(=O)N)Cc%12ccccc%12)CC(C)C)CCC%11)CCCC[NH3+])CC(=O)N)Cc%11[nH]cnc%11)CCC%10)C(CC)C)C(O)C)CCC(=O)N)CC(C)C)C(CC)C)CC(=O)N)CC(=O)[O-])C(O)C)C(C)C)Cc%10ccc(O)cc%10)C(CC)C)C)Cc%10c%11c([nH]c%10)cccc%11)CCC(=O)N)CC(C)C)CCCNC(=[NH2+])N)C(O)C)CS)CO)CC(C)C)CCCNC(=[NH2+])N)Cc%10ccccc%10)C(CC)C)Cc%10ccc(O)cc%10)CO)CCC9)CCCC[NH3+])C(O)C)CO)Cc9ccc(O)cc9)CCCC[NH3+])CCC(=O)N)CC(C)C)CCCNC(=[NH2+])N)C)CCCC[NH3+])C(C)C)CCC(=O)[O-])CC(=O)[O-])Cc9ccc(O)cc9)C(O)C)CC(C)C)Cc9ccccc9)C)CCSC)Cc9ccc(O)cc9)CCC8)Cc8nc[nH]c8)C(O)C)C(C)C)C)CC(C)C)Cc8ccccc8)CC(=O)N)Cc8c9c([nH]c8)cccc9)CC(=O)N)CCCNC(=[NH2+])N)CC(C)C)C(CC)C)CO)Cc8c9c([nH]c8)cccc9)CCC7)CCC(=O)N)Cc7ccccc7)CC(C)C)CCCNC(=[NH2+])N)C(O)C)Cc7ccccc7)C(CC)C)CC(=O)[O-])Cc7ccccc7)CCC(=O)[O-])Cc7ccccc7)C(C)C)CO)C(CC)C)Cc7ccc(O)cc7)CC(=O)[O-])CC(=O)N)CS)C(O)C)CC(C)C)CC(=O)[O-])C(CC)C)C(O)C)CO)CCCC[NH3+])CC(C)C)C)CCSC)C)CCC(=O)[O-])CC(C)C)CO)CO)C(CC)C)CCC(=O)N)Cc7nc[nH]c7)C(C)C)CCC(=O)[O-])Cc7nc[nH]c7)CC(C)C)CS)CCC(=O)N)CCCNC(=[NH2+])N)Cc7ccccc7)C(C)C)CCCC[NH3+])Cc7c8c([nH]c7)cccc8)CCC6)C(C)C)C(CC)C)C(O)C)CCCC[NH3+])CC(=O)[O-])Cc6ccccc6)Cc6ccccc6)CCCC[NH3+])CCCNC(=[NH2+])N)Cc6c7c([nH]c6)cccc7)Cc6ccccc6)CCC(=O)[O-])C)C)CC(=O)[O-])C)CCCC[NH3+])C(O)C)C(CC)C)CCCNC(=[NH2+])N)Cc6ccccc6)CC(=O)N)CC(=O)[O-])CCC(=O)N)Cc6ccccc6)CCC(=O)N)CC(=O)N)CCC5)Cc5ccccc5)C(CC)C)C)CCCC[NH3+])C(CC)C)CCC(=O)[O-])C)CC(C)C)CCSC)Cc5nc[nH]c5)CO)Cc5ccccc5)C(CC)C)CC(C)C)CO)CC(C)C)CCCC[NH3+])C(O)C)CC(C)C)CC(=O)N)CCCNC(=[NH2+])N)CCCNC(=[NH2+])N)CC(=O)[O-])CCC(=O)N)CO)CCC(=O)N)CCC(=O)[O-])CCC(=O)[O-])Cc5ccc(O)cc5)CCSC)CCCNC(=[NH2+])N)CCC(=O)[O-])CCCC[NH3+])CCC(=O)[O-])CCCC[NH3+])Cc5ccccc5)CC(C)C)CCCNC(=[NH2+])N)C(CC)C)C)CCCNC(=[NH2+])N)CCCC[NH3+])CO)CCCC[NH3+])CCCC[NH3+])CCSC)CC(C)C)CO)CC(=O)[O-])C(CC)C)Cc5ccc(O)cc5)C(CC)C)CCCC[NH3+])Cc5ccccc5)Cc5ccc(O)cc5)CCC(=O)[O-])CC(=O)N)CCC(=O)[O-])CO)CC(C)C)CCC(=O)N)C)CC(C)C)CCCC[NH3+])CCC(=O)N)CC(=O)N)CC(=O)[O-])CC(=O)[O-])Cc5ccc(O)cc5)CCCC[NH3+])CO)CC(C)C)C(CC)C)CC(C)C)CCCNC(=[NH2+])N)CC(C)C)Cc5nc[nH]c5)CCC(=O)N)Cc5ccc(O)cc5)C(O)C)CC(=O)[O-])CCC4)CC(C)C)C(CC)C)CC(=O)[O-])CC(C)C)C(CC)C)Cc4ccc(O)cc4)CCC3)CCC2)CO)CC(=O)N)CCCC[NH3+])CC(C)C)CCC(=O)N)CC(C)C)CCCC[NH3+])CCC1)CC(=O)N)CCC(=O)N)CS)CC(C)C)CCCNC(=[NH2+])N)C(C)C)C(C)C)C)CC(=O)[O-])C.OCCO.[UH+3].[Zn+2].[Zn+2].O.O.O.O.O.O.O.O.O.O.O.O.O.O.O.O.O.O.O.O.O.O.O.O.O.O.O.O.O.O.O.O.O.O.O.O.O.O.O.O.O.O.O.O.O.O.O.O.O.O.O.O.O.O.O.O.O.O.O.O.O.O.O.O.O.O.O.O.O.O.O.O.O.O.O.O.O.O.O.O.O.O.O.O.O.O.O.O.O.O.O.O.O.O.O.O.O.O.O.O.O.O.O.O.O.O.O.O.O.O.O.O.O.O.O.O.O.O.O.O.O.O.O.O.O.O.O.O.O.O.O.O.O.O.O.O.O.O.O.O.O.O

>  <rseq>
1

>  <mseq>
83

>  <S>
-6.2510729

>  <rmsd_refine>
1.2463256

>  <E_conf>
85.053886

>  <E_place>
-55.813606

>  <E_score1>
-9.3915176

>  <E_refine>
-28.777412

>  <E_score2>
-6.2510729

>  <Field_2>
UD03

>  <pseq>
83

>  <%C>
96.954361

>  <a_heavy>
16

>  <h_logP>
-0.62735575

>  <Weight>
286.19299

>  <E_orig>
0.60000002

>  <PLIF_raw>
[[5,14,21,19,18,17,15],[3028,6345,6345,6345,6345,6345,6345],[218,220688,220688,220688,220688,220688,220688],[3,10,10,10,10,10,10],[2.1,0.5,0.5,0.5,0.5,0.5,0.5]]

>  <FP:PLIF>
2 50 37

>  <PLIF_ligidx>
[5,5,[14,21,19,18,17,15]]

$$$$

  MOE2020           3D

 28 30  0  0  0  0  0  0  0  0999 V2000
    7.8210    6.8350   16.6150 C   0  0  0  0  0  0  0  0  0  0  0  0
    8.7190    7.1500   16.0940 H   0  0  0  0  0  0  0  0  0  0  0  0
    7.1240    7.6760   16.6230 H   0  0  0  0  0  0  0  0  0  0  0  0
    8.1760    6.4540   18.0560 C   0  0  0  0  0  0  0  0  0  0  0  0
    8.6630    7.2930   18.5560 H   0  0  0  0  0  0  0  0  0  0  0  0
    8.8440    5.5940   18.0610 H   0  0  0  0  0  0  0  0  0  0  0  0
    6.8960    6.0840   18.7960 C   0  0  0  0  0  0  0  0  0  0  0  0
    7.1460    5.7500   19.8030 H   0  0  0  0  0  0  0  0  0  0  0  0
    6.2810    6.9790   18.8650 H   0  0  0  0  0  0  0  0  0  0  0  0
    6.0840    4.9860   18.0880 C   0  0  0  0  0  0  0  0  0  0  0  0
    6.6590    4.0730   18.1570 H   0  0  0  0  0  0  0  0  0  0  0  0
    5.8760    5.2710   16.5910 C   0  0  0  0  0  0  0  0  0  0  0  0
    5.4470    4.3870   16.1150 H   0  0  0  0  0  0  0  0  0  0  0  0
    5.1740    6.0980   16.4730 H   0  0  0  0  0  0  0  0  0  0  0  0
    7.1840    5.6370   15.8900 C   0  0  0  0  0  0  0  0  0  0  0  0
    7.8670    4.7860   15.9150 H   0  0  0  0  0  0  0  0  0  0  0  0
    6.9730    5.8830   14.8500 H   0  0  0  0  0  0  0  0  0  0  0  0
    4.8250    4.7860   18.7700 N   0  0  0  0  0  0  0  0  0  0  0  0
    4.4730    3.6510   19.4450 C   0  0  0  0  0  0  0  0  0  0  0  0
    5.1080    2.8070   19.4190 H   0  0  0  0  0  0  0  0  0  0  0  0
    3.3430    3.7770   20.0800 N   0  0  0  0  0  0  0  0  0  0  0  0
    2.9810    5.0580   19.7940 C   0  0  0  0  0  0  0  0  0  0  0  0
    3.8340    5.6960   18.9820 C   0  0  0  0  0  0  0  0  0  0  0  0
    3.4560    6.9710   18.6650 N   0  0  0  0  0  0  0  0  0  0  0  0
    2.3460    7.1100   19.3390 C   0  0  0  0  0  0  0  0  0  0  0  0
    1.7220    7.9670   19.3790 H   0  0  0  0  0  0  0  0  0  0  0  0
    2.0150    5.9780   20.0450 N   0  0  0  0  0  0  0  0  0  0  0  0
    1.1800    5.8480   20.6390 H   0  0  0  0  0  0  0  0  0  0  0  0
  1  2  1  0  0  0  0
  1  3  1  0  0  0  0
  1  4  1  0  0  0  0
  1 15  1  0  0  0  0
  4  5  1  0  0  0  0
  4  6  1  0  0  0  0
  4  7  1  0  0  0  0
  7  8  1  0  0  0  0
  7  9  1  0  0  0  0
  7 10  1  0  0  0  0
 10 11  1  0  0  0  0
 10 12  1  0  0  0  0
 10 18  1  0  0  0  0
 12 13  1  0  0  0  0
 12 14  1  0  0  0  0
 12 15  1  0  0  0  0
 15 16  1  0  0  0  0
 15 17  1  0  0  0  0
 18 19  1  0  0  0  0
 18 23  1  0  0  0  0
 19 20  1  0  0  0  0
 19 21  2  0  0  0  0
 21 22  1  0  0  0  0
 22 23  2  0  0  0  0
 22 27  1  0  0  0  0
 23 24  1  0  0  0  0
 24 25  2  0  0  0  0
 25 26  1  0  0  0  0
 25 27  1  0  0  0  0
 27 28  1  0  0  0  0
M  END
>  <receptor>
S(=O)(=O)([O-])[O-].S(CCC(NC(=O)C(NC(=O)C(NC(=O)CNC(=O)C(NC(=O)C1N(C(=O)C(NC(=O)C(NC(=O)C(NC(=O)C(NC(=O)C(NC(=O)C(NC(=O)C(NC(=O)C(NC(=O)C(NC(=O)C(NC(=O)C(NC(=O)C(NC(=O)C(NC(=O)C(NC(=O)C(NC(=O)C(NC(=O)C(NC(=O)C(NC(=O)C(NC(=O)CNC(=O)C(NC(=O)C(NC(=O)C(NC(=O)C(NC(=O)C(NC(=O)C(NC(=O)C(NC(=O)C(NC(=O)C(NC(=O)C(NC(=O)C(NC(=O)C(NC(=O)C(NC(=O)C)CCCC[NH3+])C(C)C)C(O)C)CCC(=O)N)CCC(=O)[O-])CCC(=O)N)Cc2ccccc2)CCC(=O)[O-])CC(C)C)Cc2ccc(O)cc2)CS)CCC(=O)[O-])CCSC)CO)C(O)C)Cc2ccccc2)CCC(=O)N)CC(C)C)C[S-])CCCC[NH3+])C(CC)C)C[S-])C)CCC(=O)[O-])CC(=O)N)CC(=O)[O-])CCCC[NH3+])CC(=O)[O-])C(C)C)CCCC[NH3+])C(CC)C)CCC(=O)[O-])CCC1)C[S-])Cc1nc[n-]c1)CC(C)C)C(=O)NC(C(=O)NC(C(=O)NC(C(=O)NC(C(=O)NC(C(=O)NC(C(=O)NC(C(=O)NC(C(=O)NC(C(=O)NC(C(=O)NC(C(=O)NC(C(=O)NCC(=O)NC(C(=O)NCC(=O)NC(C(=O)N1C(C(=O)NC(C(=O)NC(C(=O)NC(C(=O)NC(C(=O)NC(C(=O)NC(C(=O)NC(C(=O)NCC(=O)NC(C(=O)NC(C(=O)N2C(C(=O)NC(C(=O)NC(C(=O)NC(C(=O)NC(C(=O)N3C(C(=O)NC(C(=O)NC(C(=O)[O-])CC(=O)[O-])Cc4ccccc4)CCC3)CC(=O)[O-])C(C)C)C(CC)C)C(CC)C)CCC2)CCC(=O)[O-])C(O)C)CCCC[NH3+])C(CC)C)CCC(=O)[O-])CS)CCCNC(=[NH2+])N)C[S-])Cc2ccccc2)CCC1)C[S-])CCC(=O)N)CC(=O)[O-])CO)CCC(=O)[O-])CCC(=O)N)Cc1c2c([nH]c1)cccc2)C)C(O)C)CC(C)C)C[S-])CO)C(O)C)C[S-])C.S(CCC(NC(=O)C(NC(=O)C(NC(=O)C(NC(=O)C(NC(=O)C(NC(=O)C(NC(=O)C(NC(=O)C(NC(=O)C(NC(=O)C(NC(=O)C(NC(=O)C(NC(=O)C(NC(=O)C(NC(=O)C(NC(=O)C[NH3+])CCC(=O)N)C)C)C)CC(=O)[O-])CCCNC(=[NH2+])N)CCCNC(=[NH2+])N)C(O)C)C(C)C)CCC(=O)[O-])CCCC[NH3+])C(O)C)Cc1c2c([nH]c1)cccc2)C)CC(C)C)C(=O)NC(C(=O)NC(C(=O)NC(C(=O)NC(C(=O)NC(C(=O)NC(C(=O)NC(C(=O)NC(C(=O)NC(C(=O)N1C(C(=O)NC(C(=O)NC(C(=O)NC(C(=O)NC(C(=O)NC(C(=O)NC(C(=O)NC(C(=O)N2C(C(=O)N3C(C(=O)NC(C(=O)NC(C(=O)NC(C(=O)NC(C(=O)NC(C(=O)NC(C(=O)N4C(C(=O)NC(C(=O)NC(C(=O)NC(C(=O)NC(C(=O)NC(C(=O)NC(C(=O)NC(C(=O)NC(C(=O)NC(C(=O)NC(C(=O)NC(C(=O)NC(C(=O)NC(C(=O)NC(C(=O)NC(C(=O)NC(C(=O)NC(C(=O)NC(C(=O)NC(C(=O)NC(C(=O)NC(C(=O)NC(C(=O)NC(C(=O)NC(C(=O)NC(C(=O)NC(C(=O)NC(C(=O)NC(C(=O)NC(C(=O)NC(C(=O)NC(C(=O)NC(C(=O)NC(C(=O)NC(C(=O)NC(C(=O)NC(C(=O)NC(C(=O)NC(C(=O)NC(C(=O)NC(C(=O)NC(C(=O)NC(C(=O)NC(C(=O)NC(C(=O)NC(C(=O)NC(C(=O)NC(C(=O)NC(C(=O)NCC(=O)NC(C(=O)NC(C(=O)NC(C(=O)NC(C(=O)NC(C(=O)NC(C(=O)NC(C(=O)NC(C(=O)NC(C(=O)NC(C(=O)NC(C(=O)NC(C(=O)NC(C(=O)NC(C(=O)NC(C(=O)NC(C(=O)NC(C(=O)NC(C(=O)NC(C(=O)NC(C(=O)NC(C(=O)NC(C(=O)NC(C(=O)NC(C(=O)NC(C(=O)NC(C(=O)NC(C(=O)NC(C(=O)NC(C(=O)NC(C(=O)NC(C(=O)NC(C(=O)NC(C(=O)N5C(C(=O)NC(C(=O)NCC(=O)NC(C(=O)NC(C(=O)NC(C(=O)NCC(=O)NC(C(=O)NC(C(=O)NC(C(=O)NC(C(=O)NC(C(=O)NC(C(=O)NC(C(=O)NC(C(=O)NC(C(=O)NC(C(=O)NC(C(=O)NC(C(=O)NC(C(=O)NC(C(=O)NC(C(=O)NC(C(=O)NC(C(=O)NC(C(=O)NCC(=O)NC(C(=O)NC(C(=O)NC(C(=O)NC(C(=O)NC(C(=O)N6C(C(=O)NC(C(=O)NC(C(=O)NC(C(=O)NC(C(=O)NC(C(=O)NC(C(=O)NC(C(=O)NC(C(=O)NC(C(=O)NC(C(=O)NC(C(=O)NC(C(=O)NC(C(=O)NC(C(=O)NC(C(=O)NC(C(=O)NCC(=O)NC(C(=O)NC(C(=O)NC(C(=O)NC(C(=O)NC(C(=O)NC(C(=O)NC(C(=O)NC(C(=O)NC(C(=O)NC(C(=O)NC(C(=O)NC(C(=O)NC(C(=O)NC(C(=O)NC(C(=O)NC(C(=O)NC(C(=O)NC(C(=O)NC(C(=O)NC(C(=O)NC(C(=O)NC(C(=O)NC(C(=O)NC(C(=O)NC(C(=O)NC(C(=O)NC(C(=O)NC(C(=O)NC(C(=O)NC(C(=O)NC(C(=O)N7C(C(=O)NC(C(=O)NCC(=O)NC(C(=O)NC(C(=O)NC(C(=O)NC(C(=O)NC(C(=O)NC(C(=O)NC(C(=O)NC(C(=O)NC(C(=O)NC(C(=O)NC(C(=O)NC(C(=O)NC(C(=O)N8C(C(=O)NCC(=O)NC(C(=O)NC(C(=O)NC(C(=O)NC(C(=O)NC(C(=O)NC(C(=O)NC(C(=O)NC(C(=O)NC(C(=O)NC(C(=O)NC(C(=O)NC(C(=O)NC(C(=O)NC(C(=O)NC(C(=O)NC(C(=O)NC(C(=O)NC(C(=O)NC(C(=O)NC(C(=O)N9C(C(=O)NCC(=O)NC(C(=O)NC(C(=O)NC(C(=O)NC(C(=O)NC(C(=O)NC(C(=O)NC(C(=O)NC(C(=O)NC(C(=O)NC(C(=O)NC(C(=O)NCC(=O)NC(C(=O)NC(C(=O)NC(C(=O)NC(C(=O)NCC(=O)NC(C(=O)NC(C(=O)NC(C(=O)NCC(=O)NC(C(=O)NCC(=O)NC(C(=O)NC(C(=O)NC(C(=O)NC(C(=O)NC(C(=O)NC(C(=O)N%10C(C(=O)NC(C(=O)NC(C(=O)NC(C(=O)N%11C(C(=O)NC(C(=O)NC(C(=O)NC(C(=O)NC(C(=O)NC(C(=O)NC(C(=O)NC(C(=O)NCC(=O)NC(C(=O)NC(C(=O)NC(C(=O)NCC(=O)NC(C(=O)NC(C(=O)NC(C(=O)NC(C(=O)N%12C(C(=O)NC(C(=O)NCC(=O)NC(C(=O)NC(C(=O)NC(C(=O)NC(C(=O)NC)CC(=O)N)Cc%13ccc(O)cc%13)CO)CCCNC(=[NH2+])N)CC(=O)[O-])CCC%12)Cc%12ccc(O)cc%12)CC(C)C)Cc%12ccc(O)cc%12)Cc%12ccccc%12)CCC(=O)[O-])C)CO)CC(=O)[O-])C(CC)C)CC(C)C)C)CCC(=O)N)Cc%12ccccc%12)CC(C)C)CCC%11)CCCC[NH3+])CC(=O)N)Cc%11[nH]cnc%11)CCC%10)C(CC)C)C(O)C)CCC(=O)N)CC(C)C)C(CC)C)CC(=O)N)CC(=O)[O-])C(O)C)C(C)C)Cc%10ccc(O)cc%10)C(CC)C)C)Cc%10c%11c([nH]c%10)cccc%11)CCC(=O)N)CC(C)C)CCCNC(=[NH2+])N)C(O)C)CS)CO)CC(C)C)CCCNC(=[NH2+])N)Cc%10ccccc%10)C(CC)C)Cc%10ccc(O)cc%10)CO)CCC9)CCCC[NH3+])C(O)C)CO)Cc9ccc(O)cc9)CCCC[NH3+])CCC(=O)N)CC(C)C)CCCNC(=[NH2+])N)C)CCCC[NH3+])C(C)C)CCC(=O)[O-])CC(=O)[O-])Cc9ccc(O)cc9)C(O)C)CC(C)C)Cc9ccccc9)C)CCSC)Cc9ccc(O)cc9)CCC8)Cc8nc[nH]c8)C(O)C)C(C)C)C)CC(C)C)Cc8ccccc8)CC(=O)N)Cc8c9c([nH]c8)cccc9)CC(=O)N)CCCNC(=[NH2+])N)CC(C)C)C(CC)C)CO)Cc8c9c([nH]c8)cccc9)CCC7)CCC(=O)N)Cc7ccccc7)CC(C)C)CCCNC(=[NH2+])N)C(O)C)Cc7ccccc7)C(CC)C)CC(=O)[O-])Cc7ccccc7)CCC(=O)[O-])Cc7ccccc7)C(C)C)CO)C(CC)C)Cc7ccc(O)cc7)CC(=O)[O-])CC(=O)N)CS)C(O)C)CC(C)C)CC(=O)[O-])C(CC)C)C(O)C)CO)CCCC[NH3+])CC(C)C)C)CCSC)C)CCC(=O)[O-])CC(C)C)CO)CO)C(CC)C)CCC(=O)N)Cc7nc[nH]c7)C(C)C)CCC(=O)[O-])Cc7nc[nH]c7)CC(C)C)CS)CCC(=O)N)CCCNC(=[NH2+])N)Cc7ccccc7)C(C)C)CCCC[NH3+])Cc7c8c([nH]c7)cccc8)CCC6)C(C)C)C(CC)C)C(O)C)CCCC[NH3+])CC(=O)[O-])Cc6ccccc6)Cc6ccccc6)CCCC[NH3+])CCCNC(=[NH2+])N)Cc6c7c([nH]c6)cccc7)Cc6ccccc6)CCC(=O)[O-])C)C)CC(=O)[O-])C)CCCC[NH3+])C(O)C)C(CC)C)CCCNC(=[NH2+])N)Cc6ccccc6)CC(=O)N)CC(=O)[O-])CCC(=O)N)Cc6ccccc6)CCC(=O)N)CC(=O)N)CCC5)Cc5ccccc5)C(CC)C)C)CCCC[NH3+])C(CC)C)CCC(=O)[O-])C)CC(C)C)CCSC)Cc5nc[nH]c5)CO)Cc5ccccc5)C(CC)C)CC(C)C)CO)CC(C)C)CCCC[NH3+])C(O)C)CC(C)C)CC(=O)N)CCCNC(=[NH2+])N)CCCNC(=[NH2+])N)CC(=O)[O-])CCC(=O)N)CO)CCC(=O)N)CCC(=O)[O-])CCC(=O)[O-])Cc5ccc(O)cc5)CCSC)CCCNC(=[NH2+])N)CCC(=O)[O-])CCCC[NH3+])CCC(=O)[O-])CCCC[NH3+])Cc5ccccc5)CC(C)C)CCCNC(=[NH2+])N)C(CC)C)C)CCCNC(=[NH2+])N)CCCC[NH3+])CO)CCCC[NH3+])CCCC[NH3+])CCSC)CC(C)C)CO)CC(=O)[O-])C(CC)C)Cc5ccc(O)cc5)C(CC)C)CCCC[NH3+])Cc5ccccc5)Cc5ccc(O)cc5)CCC(=O)[O-])CC(=O)N)CCC(=O)[O-])CO)CC(C)C)CCC(=O)N)C)CC(C)C)CCCC[NH3+])CCC(=O)N)CC(=O)N)CC(=O)[O-])CC(=O)[O-])Cc5ccc(O)cc5)CCCC[NH3+])CO)CC(C)C)C(CC)C)CC(C)C)CCCNC(=[NH2+])N)CC(C)C)Cc5nc[nH]c5)CCC(=O)N)Cc5ccc(O)cc5)C(O)C)CC(=O)[O-])CCC4)CC(C)C)C(CC)C)CC(=O)[O-])CC(C)C)C(CC)C)Cc4ccc(O)cc4)CCC3)CCC2)CO)CC(=O)N)CCCC[NH3+])CC(C)C)CCC(=O)N)CC(C)C)CCCC[NH3+])CCC1)CC(=O)N)CCC(=O)N)CS)CC(C)C)CCCNC(=[NH2+])N)C(C)C)C(C)C)C)CC(=O)[O-])C.OCCO.[UH+3].[Zn+2].[Zn+2].O.O.O.O.O.O.O.O.O.O.O.O.O.O.O.O.O.O.O.O.O.O.O.O.O.O.O.O.O.O.O.O.O.O.O.O.O.O.O.O.O.O.O.O.O.O.O.O.O.O.O.O.O.O.O.O.O.O.O.O.O.O.O.O.O.O.O.O.O.O.O.O.O.O.O.O.O.O.O.O.O.O.O.O.O.O.O.O.O.O.O.O.O.O.O.O.O.O.O.O.O.O.O.O.O.O.O.O.O.O.O.O.O.O.O.O.O.O.O.O.O.O.O.O.O.O.O.O.O.O.O.O.O.O.O.O.O.O.O.O.O.O

>  <rseq>
1

>  <mseq>
84

>  <S>
-5.3330383

>  <rmsd_refine>
0.44983482

>  <E_conf>
75.35051

>  <E_place>
-69.914871

>  <E_score1>
-8.9913816

>  <E_refine>
-20.412035

>  <E_score2>
-5.3330383

>  <Field_2>
UD04

>  <pseq>
84

>  <%C>
95.018761

>  <a_heavy>
14

>  <h_logP>
0.90612739

>  <Weight>
190.25

>  <E_orig>
0

>  <PLIF_raw>
[[21,18,23,22,21,19,22,27,25,24,23],[6336,6345,6345,6345,6345,6345,6345,6345,6345,6345,6345],[220685,220688,220688,220688,220688,220688,220688,220688,220688,220688,220688],[6,10,10,10,10,10,10,10,10,10,10],[0.7,0.5,0.5,0.5,0.5,0.5,0.5,0.5,0.5,0.5,0.5]]

>  <FP:PLIF>
45 37

>  <PLIF_ligidx>
[21,[18,23,22,21,19,22,27,25,24,23]]

$$$$

  MOE2020           3D

 35 36  0  0  0  0  0  0  0  0999 V2000
    0.8130   10.0810   20.6950 C   0  0  0  0  0  0  0  0  0  0  0  0
    0.3990   10.5550   21.5850 H   0  0  0  0  0  0  0  0  0  0  0  0
    0.0220    9.9850   19.9510 H   0  0  0  0  0  0  0  0  0  0  0  0
    1.6110   10.7080   20.2990 H   0  0  0  0  0  0  0  0  0  0  0  0
    1.3610    8.6970   21.0510 C   0  0  0  0  0  0  0  0  0  0  0  0
    1.3590    8.3750   22.2370 O   0  0  0  0  0  0  0  0  0  0  0  0
    1.8040    7.8780   20.0690 N   0  0  0  0  0  0  0  0  0  0  0  0
    1.8850    8.2730   18.6530 C   0  0  0  0  0  0  0  0  0  0  0  0
    1.0380    7.8920   18.1060 H   0  0  0  0  0  0  0  0  0  0  0  0
    1.8450    9.3450   18.5250 H   0  0  0  0  0  0  0  0  0  0  0  0
    3.1660    7.7740   17.9830 C   0  0  0  0  0  0  0  0  0  0  0  0
    3.1070    7.9980   16.9290 H   0  0  0  0  0  0  0  0  0  0  0  0
    3.9830    8.3590   18.3700 H   0  0  0  0  0  0  0  0  0  0  0  0
    3.4280    6.3320   18.1650 N   0  0  0  0  0  0  0  0  0  0  0  0
    3.3720    5.9330   19.5800 C   0  0  0  0  0  0  0  0  0  0  0  0
    3.4070    4.8550   19.6590 H   0  0  0  0  0  0  0  0  0  0  0  0
    4.2620    6.2820   20.0810 H   0  0  0  0  0  0  0  0  0  0  0  0
    2.1200    6.4500   20.3190 C   0  0  0  0  0  0  0  0  0  0  0  0
    1.2790    5.8460   20.0180 H   0  0  0  0  0  0  0  0  0  0  0  0
    2.2250    6.2440   21.3720 H   0  0  0  0  0  0  0  0  0  0  0  0
    4.5540    5.8310   17.4690 C   0  0  0  0  0  0  0  0  0  0  0  0
    5.6910    6.6220   17.2340 C   0  0  0  0  0  0  0  0  0  0  0  0
    5.8030    7.5650   17.6980 H   0  0  0  0  0  0  0  0  0  0  0  0
    6.6790    6.1700   16.3720 C   0  0  0  0  0  0  0  0  0  0  0  0
    7.5350    6.7610   16.1830 H   0  0  0  0  0  0  0  0  0  0  0  0
    6.5230    4.9410   15.7380 C   0  0  0  0  0  0  0  0  0  0  0  0
    5.4720    4.0910   16.0730 C   0  0  0  0  0  0  0  0  0  0  0  0
    5.4110    3.1240   15.6480 H   0  0  0  0  0  0  0  0  0  0  0  0
    4.4960    4.5290   16.9540 C   0  0  0  0  0  0  0  0  0  0  0  0
    3.7000    3.8860   17.2110 H   0  0  0  0  0  0  0  0  0  0  0  0
    7.4020    4.6050   14.7400 O   0  0  0  0  0  0  0  0  0  0  0  0
    6.8540    4.1000   13.4960 C   0  0  0  0  0  0  0  0  0  0  0  0
    5.9160    4.6020   13.2610 H   0  0  0  0  0  0  0  0  0  0  0  0
    6.6660    3.0310   13.5730 H   0  0  0  0  0  0  0  0  0  0  0  0
    7.5520    4.2750   12.6780 H   0  0  0  0  0  0  0  0  0  0  0  0
  1  2  1  0  0  0  0
  1  3  1  0  0  0  0
  1  4  1  0  0  0  0
  1  5  1  0  0  0  0
  5  6  2  0  0  0  0
  5  7  1  0  0  0  0
  7  8  1  0  0  0  0
  7 18  1  0  0  0  0
  8  9  1  0  0  0  0
  8 10  1  0  0  0  0
  8 11  1  0  0  0  0
 11 12  1  0  0  0  0
 11 13  1  0  0  0  0
 11 14  1  0  0  0  0
 14 15  1  0  0  0  0
 14 21  1  0  0  0  0
 15 16  1  0  0  0  0
 15 17  1  0  0  0  0
 15 18  1  0  0  0  0
 18 19  1  0  0  0  0
 18 20  1  0  0  0  0
 21 22  1  0  0  0  0
 21 29  2  0  0  0  0
 22 23  1  0  0  0  0
 22 24  2  0  0  0  0
 24 25  1  0  0  0  0
 24 26  1  0  0  0  0
 26 27  2  0  0  0  0
 26 31  1  0  0  0  0
 27 28  1  0  0  0  0
 27 29  1  0  0  0  0
 29 30  1  0  0  0  0
 31 32  1  0  0  0  0
 32 33  1  0  0  0  0
 32 34  1  0  0  0  0
 32 35  1  0  0  0  0
M  END
>  <receptor>
S(=O)(=O)([O-])[O-].S(CCC(NC(=O)C(NC(=O)C(NC(=O)CNC(=O)C(NC(=O)C1N(C(=O)C(NC(=O)C(NC(=O)C(NC(=O)C(NC(=O)C(NC(=O)C(NC(=O)C(NC(=O)C(NC(=O)C(NC(=O)C(NC(=O)C(NC(=O)C(NC(=O)C(NC(=O)C(NC(=O)C(NC(=O)C(NC(=O)C(NC(=O)C(NC(=O)C(NC(=O)CNC(=O)C(NC(=O)C(NC(=O)C(NC(=O)C(NC(=O)C(NC(=O)C(NC(=O)C(NC(=O)C(NC(=O)C(NC(=O)C(NC(=O)C(NC(=O)C(NC(=O)C(NC(=O)C)CCCC[NH3+])C(C)C)C(O)C)CCC(=O)N)CCC(=O)[O-])CCC(=O)N)Cc2ccccc2)CCC(=O)[O-])CC(C)C)Cc2ccc(O)cc2)CS)CCC(=O)[O-])CCSC)CO)C(O)C)Cc2ccccc2)CCC(=O)N)CC(C)C)C[S-])CCCC[NH3+])C(CC)C)C[S-])C)CCC(=O)[O-])CC(=O)N)CC(=O)[O-])CCCC[NH3+])CC(=O)[O-])C(C)C)CCCC[NH3+])C(CC)C)CCC(=O)[O-])CCC1)C[S-])Cc1nc[n-]c1)CC(C)C)C(=O)NC(C(=O)NC(C(=O)NC(C(=O)NC(C(=O)NC(C(=O)NC(C(=O)NC(C(=O)NC(C(=O)NC(C(=O)NC(C(=O)NC(C(=O)NC(C(=O)NCC(=O)NC(C(=O)NCC(=O)NC(C(=O)N1C(C(=O)NC(C(=O)NC(C(=O)NC(C(=O)NC(C(=O)NC(C(=O)NC(C(=O)NC(C(=O)NCC(=O)NC(C(=O)NC(C(=O)N2C(C(=O)NC(C(=O)NC(C(=O)NC(C(=O)NC(C(=O)N3C(C(=O)NC(C(=O)NC(C(=O)[O-])CC(=O)[O-])Cc4ccccc4)CCC3)CC(=O)[O-])C(C)C)C(CC)C)C(CC)C)CCC2)CCC(=O)[O-])C(O)C)CCCC[NH3+])C(CC)C)CCC(=O)[O-])CS)CCCNC(=[NH2+])N)C[S-])Cc2ccccc2)CCC1)C[S-])CCC(=O)N)CC(=O)[O-])CO)CCC(=O)[O-])CCC(=O)N)Cc1c2c([nH]c1)cccc2)C)C(O)C)CC(C)C)C[S-])CO)C(O)C)C[S-])C.S(CCC(NC(=O)C(NC(=O)C(NC(=O)C(NC(=O)C(NC(=O)C(NC(=O)C(NC(=O)C(NC(=O)C(NC(=O)C(NC(=O)C(NC(=O)C(NC(=O)C(NC(=O)C(NC(=O)C(NC(=O)C(NC(=O)C[NH3+])CCC(=O)N)C)C)C)CC(=O)[O-])CCCNC(=[NH2+])N)CCCNC(=[NH2+])N)C(O)C)C(C)C)CCC(=O)[O-])CCCC[NH3+])C(O)C)Cc1c2c([nH]c1)cccc2)C)CC(C)C)C(=O)NC(C(=O)NC(C(=O)NC(C(=O)NC(C(=O)NC(C(=O)NC(C(=O)NC(C(=O)NC(C(=O)NC(C(=O)N1C(C(=O)NC(C(=O)NC(C(=O)NC(C(=O)NC(C(=O)NC(C(=O)NC(C(=O)NC(C(=O)N2C(C(=O)N3C(C(=O)NC(C(=O)NC(C(=O)NC(C(=O)NC(C(=O)NC(C(=O)NC(C(=O)N4C(C(=O)NC(C(=O)NC(C(=O)NC(C(=O)NC(C(=O)NC(C(=O)NC(C(=O)NC(C(=O)NC(C(=O)NC(C(=O)NC(C(=O)NC(C(=O)NC(C(=O)NC(C(=O)NC(C(=O)NC(C(=O)NC(C(=O)NC(C(=O)NC(C(=O)NC(C(=O)NC(C(=O)NC(C(=O)NC(C(=O)NC(C(=O)NC(C(=O)NC(C(=O)NC(C(=O)NC(C(=O)NC(C(=O)NC(C(=O)NC(C(=O)NC(C(=O)NC(C(=O)NC(C(=O)NC(C(=O)NC(C(=O)NC(C(=O)NC(C(=O)NC(C(=O)NC(C(=O)NC(C(=O)NC(C(=O)NC(C(=O)NC(C(=O)NC(C(=O)NC(C(=O)NC(C(=O)NC(C(=O)NC(C(=O)NCC(=O)NC(C(=O)NC(C(=O)NC(C(=O)NC(C(=O)NC(C(=O)NC(C(=O)NC(C(=O)NC(C(=O)NC(C(=O)NC(C(=O)NC(C(=O)NC(C(=O)NC(C(=O)NC(C(=O)NC(C(=O)NC(C(=O)NC(C(=O)NC(C(=O)NC(C(=O)NC(C(=O)NC(C(=O)NC(C(=O)NC(C(=O)NC(C(=O)NC(C(=O)NC(C(=O)NC(C(=O)NC(C(=O)NC(C(=O)NC(C(=O)NC(C(=O)NC(C(=O)NC(C(=O)N5C(C(=O)NC(C(=O)NCC(=O)NC(C(=O)NC(C(=O)NC(C(=O)NCC(=O)NC(C(=O)NC(C(=O)NC(C(=O)NC(C(=O)NC(C(=O)NC(C(=O)NC(C(=O)NC(C(=O)NC(C(=O)NC(C(=O)NC(C(=O)NC(C(=O)NC(C(=O)NC(C(=O)NC(C(=O)NC(C(=O)NC(C(=O)NC(C(=O)NCC(=O)NC(C(=O)NC(C(=O)NC(C(=O)NC(C(=O)NC(C(=O)N6C(C(=O)NC(C(=O)NC(C(=O)NC(C(=O)NC(C(=O)NC(C(=O)NC(C(=O)NC(C(=O)NC(C(=O)NC(C(=O)NC(C(=O)NC(C(=O)NC(C(=O)NC(C(=O)NC(C(=O)NC(C(=O)NC(C(=O)NCC(=O)NC(C(=O)NC(C(=O)NC(C(=O)NC(C(=O)NC(C(=O)NC(C(=O)NC(C(=O)NC(C(=O)NC(C(=O)NC(C(=O)NC(C(=O)NC(C(=O)NC(C(=O)NC(C(=O)NC(C(=O)NC(C(=O)NC(C(=O)NC(C(=O)NC(C(=O)NC(C(=O)NC(C(=O)NC(C(=O)NC(C(=O)NC(C(=O)NC(C(=O)NC(C(=O)NC(C(=O)NC(C(=O)NC(C(=O)NC(C(=O)NC(C(=O)N7C(C(=O)NC(C(=O)NCC(=O)NC(C(=O)NC(C(=O)NC(C(=O)NC(C(=O)NC(C(=O)NC(C(=O)NC(C(=O)NC(C(=O)NC(C(=O)NC(C(=O)NC(C(=O)NC(C(=O)NC(C(=O)N8C(C(=O)NCC(=O)NC(C(=O)NC(C(=O)NC(C(=O)NC(C(=O)NC(C(=O)NC(C(=O)NC(C(=O)NC(C(=O)NC(C(=O)NC(C(=O)NC(C(=O)NC(C(=O)NC(C(=O)NC(C(=O)NC(C(=O)NC(C(=O)NC(C(=O)NC(C(=O)NC(C(=O)NC(C(=O)N9C(C(=O)NCC(=O)NC(C(=O)NC(C(=O)NC(C(=O)NC(C(=O)NC(C(=O)NC(C(=O)NC(C(=O)NC(C(=O)NC(C(=O)NC(C(=O)NC(C(=O)NCC(=O)NC(C(=O)NC(C(=O)NC(C(=O)NC(C(=O)NCC(=O)NC(C(=O)NC(C(=O)NC(C(=O)NCC(=O)NC(C(=O)NCC(=O)NC(C(=O)NC(C(=O)NC(C(=O)NC(C(=O)NC(C(=O)NC(C(=O)N%10C(C(=O)NC(C(=O)NC(C(=O)NC(C(=O)N%11C(C(=O)NC(C(=O)NC(C(=O)NC(C(=O)NC(C(=O)NC(C(=O)NC(C(=O)NC(C(=O)NCC(=O)NC(C(=O)NC(C(=O)NC(C(=O)NCC(=O)NC(C(=O)NC(C(=O)NC(C(=O)NC(C(=O)N%12C(C(=O)NC(C(=O)NCC(=O)NC(C(=O)NC(C(=O)NC(C(=O)NC(C(=O)NC)CC(=O)N)Cc%13ccc(O)cc%13)CO)CCCNC(=[NH2+])N)CC(=O)[O-])CCC%12)Cc%12ccc(O)cc%12)CC(C)C)Cc%12ccc(O)cc%12)Cc%12ccccc%12)CCC(=O)[O-])C)CO)CC(=O)[O-])C(CC)C)CC(C)C)C)CCC(=O)N)Cc%12ccccc%12)CC(C)C)CCC%11)CCCC[NH3+])CC(=O)N)Cc%11[nH]cnc%11)CCC%10)C(CC)C)C(O)C)CCC(=O)N)CC(C)C)C(CC)C)CC(=O)N)CC(=O)[O-])C(O)C)C(C)C)Cc%10ccc(O)cc%10)C(CC)C)C)Cc%10c%11c([nH]c%10)cccc%11)CCC(=O)N)CC(C)C)CCCNC(=[NH2+])N)C(O)C)CS)CO)CC(C)C)CCCNC(=[NH2+])N)Cc%10ccccc%10)C(CC)C)Cc%10ccc(O)cc%10)CO)CCC9)CCCC[NH3+])C(O)C)CO)Cc9ccc(O)cc9)CCCC[NH3+])CCC(=O)N)CC(C)C)CCCNC(=[NH2+])N)C)CCCC[NH3+])C(C)C)CCC(=O)[O-])CC(=O)[O-])Cc9ccc(O)cc9)C(O)C)CC(C)C)Cc9ccccc9)C)CCSC)Cc9ccc(O)cc9)CCC8)Cc8nc[nH]c8)C(O)C)C(C)C)C)CC(C)C)Cc8ccccc8)CC(=O)N)Cc8c9c([nH]c8)cccc9)CC(=O)N)CCCNC(=[NH2+])N)CC(C)C)C(CC)C)CO)Cc8c9c([nH]c8)cccc9)CCC7)CCC(=O)N)Cc7ccccc7)CC(C)C)CCCNC(=[NH2+])N)C(O)C)Cc7ccccc7)C(CC)C)CC(=O)[O-])Cc7ccccc7)CCC(=O)[O-])Cc7ccccc7)C(C)C)CO)C(CC)C)Cc7ccc(O)cc7)CC(=O)[O-])CC(=O)N)CS)C(O)C)CC(C)C)CC(=O)[O-])C(CC)C)C(O)C)CO)CCCC[NH3+])CC(C)C)C)CCSC)C)CCC(=O)[O-])CC(C)C)CO)CO)C(CC)C)CCC(=O)N)Cc7nc[nH]c7)C(C)C)CCC(=O)[O-])Cc7nc[nH]c7)CC(C)C)CS)CCC(=O)N)CCCNC(=[NH2+])N)Cc7ccccc7)C(C)C)CCCC[NH3+])Cc7c8c([nH]c7)cccc8)CCC6)C(C)C)C(CC)C)C(O)C)CCCC[NH3+])CC(=O)[O-])Cc6ccccc6)Cc6ccccc6)CCCC[NH3+])CCCNC(=[NH2+])N)Cc6c7c([nH]c6)cccc7)Cc6ccccc6)CCC(=O)[O-])C)C)CC(=O)[O-])C)CCCC[NH3+])C(O)C)C(CC)C)CCCNC(=[NH2+])N)Cc6ccccc6)CC(=O)N)CC(=O)[O-])CCC(=O)N)Cc6ccccc6)CCC(=O)N)CC(=O)N)CCC5)Cc5ccccc5)C(CC)C)C)CCCC[NH3+])C(CC)C)CCC(=O)[O-])C)CC(C)C)CCSC)Cc5nc[nH]c5)CO)Cc5ccccc5)C(CC)C)CC(C)C)CO)CC(C)C)CCCC[NH3+])C(O)C)CC(C)C)CC(=O)N)CCCNC(=[NH2+])N)CCCNC(=[NH2+])N)CC(=O)[O-])CCC(=O)N)CO)CCC(=O)N)CCC(=O)[O-])CCC(=O)[O-])Cc5ccc(O)cc5)CCSC)CCCNC(=[NH2+])N)CCC(=O)[O-])CCCC[NH3+])CCC(=O)[O-])CCCC[NH3+])Cc5ccccc5)CC(C)C)CCCNC(=[NH2+])N)C(CC)C)C)CCCNC(=[NH2+])N)CCCC[NH3+])CO)CCCC[NH3+])CCCC[NH3+])CCSC)CC(C)C)CO)CC(=O)[O-])C(CC)C)Cc5ccc(O)cc5)C(CC)C)CCCC[NH3+])Cc5ccccc5)Cc5ccc(O)cc5)CCC(=O)[O-])CC(=O)N)CCC(=O)[O-])CO)CC(C)C)CCC(=O)N)C)CC(C)C)CCCC[NH3+])CCC(=O)N)CC(=O)N)CC(=O)[O-])CC(=O)[O-])Cc5ccc(O)cc5)CCCC[NH3+])CO)CC(C)C)C(CC)C)CC(C)C)CCCNC(=[NH2+])N)CC(C)C)Cc5nc[nH]c5)CCC(=O)N)Cc5ccc(O)cc5)C(O)C)CC(=O)[O-])CCC4)CC(C)C)C(CC)C)CC(=O)[O-])CC(C)C)C(CC)C)Cc4ccc(O)cc4)CCC3)CCC2)CO)CC(=O)N)CCCC[NH3+])CC(C)C)CCC(=O)N)CC(C)C)CCCC[NH3+])CCC1)CC(=O)N)CCC(=O)N)CS)CC(C)C)CCCNC(=[NH2+])N)C(C)C)C(C)C)C)CC(=O)[O-])C.OCCO.[UH+3].[Zn+2].[Zn+2].O.O.O.O.O.O.O.O.O.O.O.O.O.O.O.O.O.O.O.O.O.O.O.O.O.O.O.O.O.O.O.O.O.O.O.O.O.O.O.O.O.O.O.O.O.O.O.O.O.O.O.O.O.O.O.O.O.O.O.O.O.O.O.O.O.O.O.O.O.O.O.O.O.O.O.O.O.O.O.O.O.O.O.O.O.O.O.O.O.O.O.O.O.O.O.O.O.O.O.O.O.O.O.O.O.O.O.O.O.O.O.O.O.O.O.O.O.O.O.O.O.O.O.O.O.O.O.O.O.O.O.O.O.O.O.O.O.O.O.O.O.O

>  <rseq>
1

>  <mseq>
85

>  <S>
-6.0507793

>  <rmsd_refine>
1.0079297

>  <E_conf>
-2.5863702

>  <E_place>
-46.666363

>  <E_score1>
-10.515763

>  <E_refine>
-25.540682

>  <E_score2>
-6.0507793

>  <Field_2>
UD05

>  <pseq>
85

>  <%C>
100

>  <a_heavy>
17

>  <h_logP>
1.6046064

>  <Weight>
234.299

>  <E_orig>
0.60000002

>  <PLIF_raw>
[[],[],[],[],[]]

>  <PLIF_ligidx>
[]

$$$$

  MOE2020           3D

 24 25  0  0  0  0  0  0  0  0999 V2000
    8.2410    5.4770   19.4800 C   0  0  0  0  0  0  0  0  0  0  0  0
    9.2250    5.9020   19.5790 H   0  0  0  0  0  0  0  0  0  0  0  0
    8.3920    4.4230   19.3030 H   0  0  0  0  0  0  0  0  0  0  0  0
    7.7230    5.5850   20.4220 H   0  0  0  0  0  0  0  0  0  0  0  0
    7.5220    6.0910   18.3860 N   0  0  0  0  0  0  0  0  0  0  0  0
    7.7950    7.2960   17.8240 C   0  0  0  0  0  0  0  0  0  0  0  0
    8.5430    7.9220   18.2400 H   0  0  0  0  0  0  0  0  0  0  0  0
    7.0570    7.5210   16.7640 N   0  0  0  0  0  0  0  0  0  0  0  0
    6.3030    6.4010   16.6630 C   0  0  0  0  0  0  0  0  0  0  0  0
    6.5240    5.5290   17.6690 C   0  0  0  0  0  0  0  0  0  0  0  0
    5.7900    4.3180   17.8550 C   0  0  0  0  0  0  0  0  0  0  0  0
    5.7570    3.6530   18.8860 O   0  0  0  0  0  0  0  0  0  0  0  0
    5.0150    3.9330   16.7590 N   0  0  0  0  0  0  0  0  0  0  0  0
    5.0080    4.6840   15.5690 C   0  0  0  0  0  0  0  0  0  0  0  0
    4.6520    4.1820   14.4990 O   0  0  0  0  0  0  0  0  0  0  0  0
    5.3970    6.0190   15.6560 N   0  0  0  0  0  0  0  0  0  0  0  0
    4.7150    7.0000   14.8360 C   0  0  0  0  0  0  0  0  0  0  0  0
    5.4060    7.6860   14.3770 H   0  0  0  0  0  0  0  0  0  0  0  0
    4.0090    7.5590   15.4280 H   0  0  0  0  0  0  0  0  0  0  0  0
    4.1310    6.5390   14.0540 H   0  0  0  0  0  0  0  0  0  0  0  0
    4.1530    2.7660   16.8600 C   0  0  0  0  0  0  0  0  0  0  0  0
    3.6760    2.7280   17.8270 H   0  0  0  0  0  0  0  0  0  0  0  0
    4.7150    1.8570   16.7370 H   0  0  0  0  0  0  0  0  0  0  0  0
    3.3600    2.7720   16.1280 H   0  0  0  0  0  0  0  0  0  0  0  0
  1  2  1  0  0  0  0
  1  3  1  0  0  0  0
  1  4  1  0  0  0  0
  1  5  1  0  0  0  0
  5  6  1  0  0  0  0
  5 10  1  0  0  0  0
  6  7  1  0  0  0  0
  6  8  2  0  0  0  0
  8  9  1  0  0  0  0
  9 10  2  0  0  0  0
  9 16  1  0  0  0  0
 10 11  1  0  0  0  0
 11 12  2  0  0  0  0
 11 13  1  0  0  0  0
 13 14  1  0  0  0  0
 13 21  1  0  0  0  0
 14 15  2  0  0  0  0
 14 16  1  0  0  0  0
 16 17  1  0  0  0  0
 17 18  1  0  0  0  0
 17 19  1  0  0  0  0
 17 20  1  0  0  0  0
 21 22  1  0  0  0  0
 21 23  1  0  0  0  0
 21 24  1  0  0  0  0
M  END
>  <receptor>
S(=O)(=O)([O-])[O-].S(CCC(NC(=O)C(NC(=O)C(NC(=O)CNC(=O)C(NC(=O)C1N(C(=O)C(NC(=O)C(NC(=O)C(NC(=O)C(NC(=O)C(NC(=O)C(NC(=O)C(NC(=O)C(NC(=O)C(NC(=O)C(NC(=O)C(NC(=O)C(NC(=O)C(NC(=O)C(NC(=O)C(NC(=O)C(NC(=O)C(NC(=O)C(NC(=O)C(NC(=O)CNC(=O)C(NC(=O)C(NC(=O)C(NC(=O)C(NC(=O)C(NC(=O)C(NC(=O)C(NC(=O)C(NC(=O)C(NC(=O)C(NC(=O)C(NC(=O)C(NC(=O)C(NC(=O)C)CCCC[NH3+])C(C)C)C(O)C)CCC(=O)N)CCC(=O)[O-])CCC(=O)N)Cc2ccccc2)CCC(=O)[O-])CC(C)C)Cc2ccc(O)cc2)CS)CCC(=O)[O-])CCSC)CO)C(O)C)Cc2ccccc2)CCC(=O)N)CC(C)C)C[S-])CCCC[NH3+])C(CC)C)C[S-])C)CCC(=O)[O-])CC(=O)N)CC(=O)[O-])CCCC[NH3+])CC(=O)[O-])C(C)C)CCCC[NH3+])C(CC)C)CCC(=O)[O-])CCC1)C[S-])Cc1nc[n-]c1)CC(C)C)C(=O)NC(C(=O)NC(C(=O)NC(C(=O)NC(C(=O)NC(C(=O)NC(C(=O)NC(C(=O)NC(C(=O)NC(C(=O)NC(C(=O)NC(C(=O)NC(C(=O)NCC(=O)NC(C(=O)NCC(=O)NC(C(=O)N1C(C(=O)NC(C(=O)NC(C(=O)NC(C(=O)NC(C(=O)NC(C(=O)NC(C(=O)NC(C(=O)NCC(=O)NC(C(=O)NC(C(=O)N2C(C(=O)NC(C(=O)NC(C(=O)NC(C(=O)NC(C(=O)N3C(C(=O)NC(C(=O)NC(C(=O)[O-])CC(=O)[O-])Cc4ccccc4)CCC3)CC(=O)[O-])C(C)C)C(CC)C)C(CC)C)CCC2)CCC(=O)[O-])C(O)C)CCCC[NH3+])C(CC)C)CCC(=O)[O-])CS)CCCNC(=[NH2+])N)C[S-])Cc2ccccc2)CCC1)C[S-])CCC(=O)N)CC(=O)[O-])CO)CCC(=O)[O-])CCC(=O)N)Cc1c2c([nH]c1)cccc2)C)C(O)C)CC(C)C)C[S-])CO)C(O)C)C[S-])C.S(CCC(NC(=O)C(NC(=O)C(NC(=O)C(NC(=O)C(NC(=O)C(NC(=O)C(NC(=O)C(NC(=O)C(NC(=O)C(NC(=O)C(NC(=O)C(NC(=O)C(NC(=O)C(NC(=O)C(NC(=O)C(NC(=O)C[NH3+])CCC(=O)N)C)C)C)CC(=O)[O-])CCCNC(=[NH2+])N)CCCNC(=[NH2+])N)C(O)C)C(C)C)CCC(=O)[O-])CCCC[NH3+])C(O)C)Cc1c2c([nH]c1)cccc2)C)CC(C)C)C(=O)NC(C(=O)NC(C(=O)NC(C(=O)NC(C(=O)NC(C(=O)NC(C(=O)NC(C(=O)NC(C(=O)NC(C(=O)N1C(C(=O)NC(C(=O)NC(C(=O)NC(C(=O)NC(C(=O)NC(C(=O)NC(C(=O)NC(C(=O)N2C(C(=O)N3C(C(=O)NC(C(=O)NC(C(=O)NC(C(=O)NC(C(=O)NC(C(=O)NC(C(=O)N4C(C(=O)NC(C(=O)NC(C(=O)NC(C(=O)NC(C(=O)NC(C(=O)NC(C(=O)NC(C(=O)NC(C(=O)NC(C(=O)NC(C(=O)NC(C(=O)NC(C(=O)NC(C(=O)NC(C(=O)NC(C(=O)NC(C(=O)NC(C(=O)NC(C(=O)NC(C(=O)NC(C(=O)NC(C(=O)NC(C(=O)NC(C(=O)NC(C(=O)NC(C(=O)NC(C(=O)NC(C(=O)NC(C(=O)NC(C(=O)NC(C(=O)NC(C(=O)NC(C(=O)NC(C(=O)NC(C(=O)NC(C(=O)NC(C(=O)NC(C(=O)NC(C(=O)NC(C(=O)NC(C(=O)NC(C(=O)NC(C(=O)NC(C(=O)NC(C(=O)NC(C(=O)NC(C(=O)NC(C(=O)NC(C(=O)NCC(=O)NC(C(=O)NC(C(=O)NC(C(=O)NC(C(=O)NC(C(=O)NC(C(=O)NC(C(=O)NC(C(=O)NC(C(=O)NC(C(=O)NC(C(=O)NC(C(=O)NC(C(=O)NC(C(=O)NC(C(=O)NC(C(=O)NC(C(=O)NC(C(=O)NC(C(=O)NC(C(=O)NC(C(=O)NC(C(=O)NC(C(=O)NC(C(=O)NC(C(=O)NC(C(=O)NC(C(=O)NC(C(=O)NC(C(=O)NC(C(=O)NC(C(=O)NC(C(=O)NC(C(=O)N5C(C(=O)NC(C(=O)NCC(=O)NC(C(=O)NC(C(=O)NC(C(=O)NCC(=O)NC(C(=O)NC(C(=O)NC(C(=O)NC(C(=O)NC(C(=O)NC(C(=O)NC(C(=O)NC(C(=O)NC(C(=O)NC(C(=O)NC(C(=O)NC(C(=O)NC(C(=O)NC(C(=O)NC(C(=O)NC(C(=O)NC(C(=O)NC(C(=O)NCC(=O)NC(C(=O)NC(C(=O)NC(C(=O)NC(C(=O)NC(C(=O)N6C(C(=O)NC(C(=O)NC(C(=O)NC(C(=O)NC(C(=O)NC(C(=O)NC(C(=O)NC(C(=O)NC(C(=O)NC(C(=O)NC(C(=O)NC(C(=O)NC(C(=O)NC(C(=O)NC(C(=O)NC(C(=O)NC(C(=O)NCC(=O)NC(C(=O)NC(C(=O)NC(C(=O)NC(C(=O)NC(C(=O)NC(C(=O)NC(C(=O)NC(C(=O)NC(C(=O)NC(C(=O)NC(C(=O)NC(C(=O)NC(C(=O)NC(C(=O)NC(C(=O)NC(C(=O)NC(C(=O)NC(C(=O)NC(C(=O)NC(C(=O)NC(C(=O)NC(C(=O)NC(C(=O)NC(C(=O)NC(C(=O)NC(C(=O)NC(C(=O)NC(C(=O)NC(C(=O)NC(C(=O)NC(C(=O)N7C(C(=O)NC(C(=O)NCC(=O)NC(C(=O)NC(C(=O)NC(C(=O)NC(C(=O)NC(C(=O)NC(C(=O)NC(C(=O)NC(C(=O)NC(C(=O)NC(C(=O)NC(C(=O)NC(C(=O)NC(C(=O)N8C(C(=O)NCC(=O)NC(C(=O)NC(C(=O)NC(C(=O)NC(C(=O)NC(C(=O)NC(C(=O)NC(C(=O)NC(C(=O)NC(C(=O)NC(C(=O)NC(C(=O)NC(C(=O)NC(C(=O)NC(C(=O)NC(C(=O)NC(C(=O)NC(C(=O)NC(C(=O)NC(C(=O)NC(C(=O)N9C(C(=O)NCC(=O)NC(C(=O)NC(C(=O)NC(C(=O)NC(C(=O)NC(C(=O)NC(C(=O)NC(C(=O)NC(C(=O)NC(C(=O)NC(C(=O)NC(C(=O)NCC(=O)NC(C(=O)NC(C(=O)NC(C(=O)NC(C(=O)NCC(=O)NC(C(=O)NC(C(=O)NC(C(=O)NCC(=O)NC(C(=O)NCC(=O)NC(C(=O)NC(C(=O)NC(C(=O)NC(C(=O)NC(C(=O)NC(C(=O)N%10C(C(=O)NC(C(=O)NC(C(=O)NC(C(=O)N%11C(C(=O)NC(C(=O)NC(C(=O)NC(C(=O)NC(C(=O)NC(C(=O)NC(C(=O)NC(C(=O)NCC(=O)NC(C(=O)NC(C(=O)NC(C(=O)NCC(=O)NC(C(=O)NC(C(=O)NC(C(=O)NC(C(=O)N%12C(C(=O)NC(C(=O)NCC(=O)NC(C(=O)NC(C(=O)NC(C(=O)NC(C(=O)NC)CC(=O)N)Cc%13ccc(O)cc%13)CO)CCCNC(=[NH2+])N)CC(=O)[O-])CCC%12)Cc%12ccc(O)cc%12)CC(C)C)Cc%12ccc(O)cc%12)Cc%12ccccc%12)CCC(=O)[O-])C)CO)CC(=O)[O-])C(CC)C)CC(C)C)C)CCC(=O)N)Cc%12ccccc%12)CC(C)C)CCC%11)CCCC[NH3+])CC(=O)N)Cc%11[nH]cnc%11)CCC%10)C(CC)C)C(O)C)CCC(=O)N)CC(C)C)C(CC)C)CC(=O)N)CC(=O)[O-])C(O)C)C(C)C)Cc%10ccc(O)cc%10)C(CC)C)C)Cc%10c%11c([nH]c%10)cccc%11)CCC(=O)N)CC(C)C)CCCNC(=[NH2+])N)C(O)C)CS)CO)CC(C)C)CCCNC(=[NH2+])N)Cc%10ccccc%10)C(CC)C)Cc%10ccc(O)cc%10)CO)CCC9)CCCC[NH3+])C(O)C)CO)Cc9ccc(O)cc9)CCCC[NH3+])CCC(=O)N)CC(C)C)CCCNC(=[NH2+])N)C)CCCC[NH3+])C(C)C)CCC(=O)[O-])CC(=O)[O-])Cc9ccc(O)cc9)C(O)C)CC(C)C)Cc9ccccc9)C)CCSC)Cc9ccc(O)cc9)CCC8)Cc8nc[nH]c8)C(O)C)C(C)C)C)CC(C)C)Cc8ccccc8)CC(=O)N)Cc8c9c([nH]c8)cccc9)CC(=O)N)CCCNC(=[NH2+])N)CC(C)C)C(CC)C)CO)Cc8c9c([nH]c8)cccc9)CCC7)CCC(=O)N)Cc7ccccc7)CC(C)C)CCCNC(=[NH2+])N)C(O)C)Cc7ccccc7)C(CC)C)CC(=O)[O-])Cc7ccccc7)CCC(=O)[O-])Cc7ccccc7)C(C)C)CO)C(CC)C)Cc7ccc(O)cc7)CC(=O)[O-])CC(=O)N)CS)C(O)C)CC(C)C)CC(=O)[O-])C(CC)C)C(O)C)CO)CCCC[NH3+])CC(C)C)C)CCSC)C)CCC(=O)[O-])CC(C)C)CO)CO)C(CC)C)CCC(=O)N)Cc7nc[nH]c7)C(C)C)CCC(=O)[O-])Cc7nc[nH]c7)CC(C)C)CS)CCC(=O)N)CCCNC(=[NH2+])N)Cc7ccccc7)C(C)C)CCCC[NH3+])Cc7c8c([nH]c7)cccc8)CCC6)C(C)C)C(CC)C)C(O)C)CCCC[NH3+])CC(=O)[O-])Cc6ccccc6)Cc6ccccc6)CCCC[NH3+])CCCNC(=[NH2+])N)Cc6c7c([nH]c6)cccc7)Cc6ccccc6)CCC(=O)[O-])C)C)CC(=O)[O-])C)CCCC[NH3+])C(O)C)C(CC)C)CCCNC(=[NH2+])N)Cc6ccccc6)CC(=O)N)CC(=O)[O-])CCC(=O)N)Cc6ccccc6)CCC(=O)N)CC(=O)N)CCC5)Cc5ccccc5)C(CC)C)C)CCCC[NH3+])C(CC)C)CCC(=O)[O-])C)CC(C)C)CCSC)Cc5nc[nH]c5)CO)Cc5ccccc5)C(CC)C)CC(C)C)CO)CC(C)C)CCCC[NH3+])C(O)C)CC(C)C)CC(=O)N)CCCNC(=[NH2+])N)CCCNC(=[NH2+])N)CC(=O)[O-])CCC(=O)N)CO)CCC(=O)N)CCC(=O)[O-])CCC(=O)[O-])Cc5ccc(O)cc5)CCSC)CCCNC(=[NH2+])N)CCC(=O)[O-])CCCC[NH3+])CCC(=O)[O-])CCCC[NH3+])Cc5ccccc5)CC(C)C)CCCNC(=[NH2+])N)C(CC)C)C)CCCNC(=[NH2+])N)CCCC[NH3+])CO)CCCC[NH3+])CCCC[NH3+])CCSC)CC(C)C)CO)CC(=O)[O-])C(CC)C)Cc5ccc(O)cc5)C(CC)C)CCCC[NH3+])Cc5ccccc5)Cc5ccc(O)cc5)CCC(=O)[O-])CC(=O)N)CCC(=O)[O-])CO)CC(C)C)CCC(=O)N)C)CC(C)C)CCCC[NH3+])CCC(=O)N)CC(=O)N)CC(=O)[O-])CC(=O)[O-])Cc5ccc(O)cc5)CCCC[NH3+])CO)CC(C)C)C(CC)C)CC(C)C)CCCNC(=[NH2+])N)CC(C)C)Cc5nc[nH]c5)CCC(=O)N)Cc5ccc(O)cc5)C(O)C)CC(=O)[O-])CCC4)CC(C)C)C(CC)C)CC(=O)[O-])CC(C)C)C(CC)C)Cc4ccc(O)cc4)CCC3)CCC2)CO)CC(=O)N)CCCC[NH3+])CC(C)C)CCC(=O)N)CC(C)C)CCCC[NH3+])CCC1)CC(=O)N)CCC(=O)N)CS)CC(C)C)CCCNC(=[NH2+])N)C(C)C)C(C)C)C)CC(=O)[O-])C.OCCO.[UH+3].[Zn+2].[Zn+2].O.O.O.O.O.O.O.O.O.O.O.O.O.O.O.O.O.O.O.O.O.O.O.O.O.O.O.O.O.O.O.O.O.O.O.O.O.O.O.O.O.O.O.O.O.O.O.O.O.O.O.O.O.O.O.O.O.O.O.O.O.O.O.O.O.O.O.O.O.O.O.O.O.O.O.O.O.O.O.O.O.O.O.O.O.O.O.O.O.O.O.O.O.O.O.O.O.O.O.O.O.O.O.O.O.O.O.O.O.O.O.O.O.O.O.O.O.O.O.O.O.O.O.O.O.O.O.O.O.O.O.O.O.O.O.O.O.O.O.O.O.O

>  <rseq>
1

>  <mseq>
86

>  <S>
-5.7217546

>  <rmsd_refine>
0.46987748

>  <E_conf>
-94.03936

>  <E_place>
-56.133839

>  <E_score1>
-9.2402143

>  <E_refine>
-21.75989

>  <E_score2>
-5.7217546

>  <Field_2>
UD06

>  <pseq>
86

>  <%C>
99.981216

>  <a_heavy>
14

>  <h_logP>
0.63823229

>  <Weight>
194.194

>  <E_orig>
0

>  <PLIF_raw>
[[],[],[],[],[]]

>  <PLIF_ligidx>
[]

$$$$

  MOE2020           3D

 29 30  0  0  0  0  0  0  0  0999 V2000
    4.3890    6.3080   17.4950 C   0  0  0  0  0  0  0  0  0  0  0  0
    4.0100    6.7730   16.5990 H   0  0  0  0  0  0  0  0  0  0  0  0
    5.1480    6.9720   17.8860 H   0  0  0  0  0  0  0  0  0  0  0  0
    5.0520    4.9890   17.0610 C   0  0  0  0  0  0  0  0  0  0  0  0
    5.8910    5.2020   16.3990 H   0  0  0  0  0  0  0  0  0  0  0  0
    4.3350    4.3780   16.5110 H   0  0  0  0  0  0  0  0  0  0  0  0
    5.5260    4.2590   18.1780 O   0  0  0  0  0  0  0  0  0  0  0  0
    4.4590    3.9430   19.0570 C   0  0  0  0  0  0  0  0  0  0  0  0
    3.7420    3.3120   18.5320 H   0  0  0  0  0  0  0  0  0  0  0  0
    4.8540    3.3750   19.8970 H   0  0  0  0  0  0  0  0  0  0  0  0
    3.7520    5.2070   19.5770 C   0  0  0  0  0  0  0  0  0  0  0  0
    4.4250    5.7280   20.2420 H   0  0  0  0  0  0  0  0  0  0  0  0
    2.9100    4.8860   20.1720 H   0  0  0  0  0  0  0  0  0  0  0  0
    3.3150    6.1420   18.5130 N   0  0  0  0  0  0  0  0  0  0  0  0
    2.6140    7.3330   18.9290 C   0  0  0  0  0  0  0  0  0  0  0  0
    2.0450    7.4410   20.2140 C   0  0  0  0  0  0  0  0  0  0  0  0
    2.0760    6.6380   20.8990 H   0  0  0  0  0  0  0  0  0  0  0  0
    1.4290    8.6310   20.6110 C   0  0  0  0  0  0  0  0  0  0  0  0
    1.3620    9.7230   19.7490 C   0  0  0  0  0  0  0  0  0  0  0  0
    0.9000   10.6200   20.0680 H   0  0  0  0  0  0  0  0  0  0  0  0
    1.9160    9.6050   18.4780 C   0  0  0  0  0  0  0  0  0  0  0  0
    2.5000    8.4200   18.0470 C   0  0  0  0  0  0  0  0  0  0  0  0
    2.8540    8.3660   17.0570 H   0  0  0  0  0  0  0  0  0  0  0  0
    1.9320   10.6640   17.6010 O   0  0  0  0  0  0  0  0  0  0  0  0
    1.6930   12.0390   17.9830 C   0  0  0  0  0  0  0  0  0  0  0  0
    2.3170   12.3100   18.8350 H   0  0  0  0  0  0  0  0  0  0  0  0
    0.6440   12.1820   18.2430 H   0  0  0  0  0  0  0  0  0  0  0  0
    1.9360   12.7000   17.1520 H   0  0  0  0  0  0  0  0  0  0  0  0
    0.7500    8.7810   22.1980 Cl  0  0  0  0  0  0  0  0  0  0  0  0
  1  2  1  0  0  0  0
  1  3  1  0  0  0  0
  1  4  1  0  0  0  0
  1 14  1  0  0  0  0
  4  5  1  0  0  0  0
  4  6  1  0  0  0  0
  4  7  1  0  0  0  0
  7  8  1  0  0  0  0
  8  9  1  0  0  0  0
  8 10  1  0  0  0  0
  8 11  1  0  0  0  0
 11 12  1  0  0  0  0
 11 13  1  0  0  0  0
 11 14  1  0  0  0  0
 14 15  1  0  0  0  0
 15 16  1  0  0  0  0
 15 22  2  0  0  0  0
 16 17  1  0  0  0  0
 16 18  2  0  0  0  0
 18 19  1  0  0  0  0
 18 29  1  0  0  0  0
 19 20  1  0  0  0  0
 19 21  2  0  0  0  0
 21 22  1  0  0  0  0
 21 24  1  0  0  0  0
 22 23  1  0  0  0  0
 24 25  1  0  0  0  0
 25 26  1  0  0  0  0
 25 27  1  0  0  0  0
 25 28  1  0  0  0  0
M  END
>  <receptor>
S(=O)(=O)([O-])[O-].S(CCC(NC(=O)C(NC(=O)C(NC(=O)CNC(=O)C(NC(=O)C1N(C(=O)C(NC(=O)C(NC(=O)C(NC(=O)C(NC(=O)C(NC(=O)C(NC(=O)C(NC(=O)C(NC(=O)C(NC(=O)C(NC(=O)C(NC(=O)C(NC(=O)C(NC(=O)C(NC(=O)C(NC(=O)C(NC(=O)C(NC(=O)C(NC(=O)C(NC(=O)CNC(=O)C(NC(=O)C(NC(=O)C(NC(=O)C(NC(=O)C(NC(=O)C(NC(=O)C(NC(=O)C(NC(=O)C(NC(=O)C(NC(=O)C(NC(=O)C(NC(=O)C(NC(=O)C)CCCC[NH3+])C(C)C)C(O)C)CCC(=O)N)CCC(=O)[O-])CCC(=O)N)Cc2ccccc2)CCC(=O)[O-])CC(C)C)Cc2ccc(O)cc2)CS)CCC(=O)[O-])CCSC)CO)C(O)C)Cc2ccccc2)CCC(=O)N)CC(C)C)C[S-])CCCC[NH3+])C(CC)C)C[S-])C)CCC(=O)[O-])CC(=O)N)CC(=O)[O-])CCCC[NH3+])CC(=O)[O-])C(C)C)CCCC[NH3+])C(CC)C)CCC(=O)[O-])CCC1)C[S-])Cc1nc[n-]c1)CC(C)C)C(=O)NC(C(=O)NC(C(=O)NC(C(=O)NC(C(=O)NC(C(=O)NC(C(=O)NC(C(=O)NC(C(=O)NC(C(=O)NC(C(=O)NC(C(=O)NC(C(=O)NCC(=O)NC(C(=O)NCC(=O)NC(C(=O)N1C(C(=O)NC(C(=O)NC(C(=O)NC(C(=O)NC(C(=O)NC(C(=O)NC(C(=O)NC(C(=O)NCC(=O)NC(C(=O)NC(C(=O)N2C(C(=O)NC(C(=O)NC(C(=O)NC(C(=O)NC(C(=O)N3C(C(=O)NC(C(=O)NC(C(=O)[O-])CC(=O)[O-])Cc4ccccc4)CCC3)CC(=O)[O-])C(C)C)C(CC)C)C(CC)C)CCC2)CCC(=O)[O-])C(O)C)CCCC[NH3+])C(CC)C)CCC(=O)[O-])CS)CCCNC(=[NH2+])N)C[S-])Cc2ccccc2)CCC1)C[S-])CCC(=O)N)CC(=O)[O-])CO)CCC(=O)[O-])CCC(=O)N)Cc1c2c([nH]c1)cccc2)C)C(O)C)CC(C)C)C[S-])CO)C(O)C)C[S-])C.S(CCC(NC(=O)C(NC(=O)C(NC(=O)C(NC(=O)C(NC(=O)C(NC(=O)C(NC(=O)C(NC(=O)C(NC(=O)C(NC(=O)C(NC(=O)C(NC(=O)C(NC(=O)C(NC(=O)C(NC(=O)C(NC(=O)C[NH3+])CCC(=O)N)C)C)C)CC(=O)[O-])CCCNC(=[NH2+])N)CCCNC(=[NH2+])N)C(O)C)C(C)C)CCC(=O)[O-])CCCC[NH3+])C(O)C)Cc1c2c([nH]c1)cccc2)C)CC(C)C)C(=O)NC(C(=O)NC(C(=O)NC(C(=O)NC(C(=O)NC(C(=O)NC(C(=O)NC(C(=O)NC(C(=O)NC(C(=O)N1C(C(=O)NC(C(=O)NC(C(=O)NC(C(=O)NC(C(=O)NC(C(=O)NC(C(=O)NC(C(=O)N2C(C(=O)N3C(C(=O)NC(C(=O)NC(C(=O)NC(C(=O)NC(C(=O)NC(C(=O)NC(C(=O)N4C(C(=O)NC(C(=O)NC(C(=O)NC(C(=O)NC(C(=O)NC(C(=O)NC(C(=O)NC(C(=O)NC(C(=O)NC(C(=O)NC(C(=O)NC(C(=O)NC(C(=O)NC(C(=O)NC(C(=O)NC(C(=O)NC(C(=O)NC(C(=O)NC(C(=O)NC(C(=O)NC(C(=O)NC(C(=O)NC(C(=O)NC(C(=O)NC(C(=O)NC(C(=O)NC(C(=O)NC(C(=O)NC(C(=O)NC(C(=O)NC(C(=O)NC(C(=O)NC(C(=O)NC(C(=O)NC(C(=O)NC(C(=O)NC(C(=O)NC(C(=O)NC(C(=O)NC(C(=O)NC(C(=O)NC(C(=O)NC(C(=O)NC(C(=O)NC(C(=O)NC(C(=O)NC(C(=O)NC(C(=O)NC(C(=O)NCC(=O)NC(C(=O)NC(C(=O)NC(C(=O)NC(C(=O)NC(C(=O)NC(C(=O)NC(C(=O)NC(C(=O)NC(C(=O)NC(C(=O)NC(C(=O)NC(C(=O)NC(C(=O)NC(C(=O)NC(C(=O)NC(C(=O)NC(C(=O)NC(C(=O)NC(C(=O)NC(C(=O)NC(C(=O)NC(C(=O)NC(C(=O)NC(C(=O)NC(C(=O)NC(C(=O)NC(C(=O)NC(C(=O)NC(C(=O)NC(C(=O)NC(C(=O)NC(C(=O)NC(C(=O)N5C(C(=O)NC(C(=O)NCC(=O)NC(C(=O)NC(C(=O)NC(C(=O)NCC(=O)NC(C(=O)NC(C(=O)NC(C(=O)NC(C(=O)NC(C(=O)NC(C(=O)NC(C(=O)NC(C(=O)NC(C(=O)NC(C(=O)NC(C(=O)NC(C(=O)NC(C(=O)NC(C(=O)NC(C(=O)NC(C(=O)NC(C(=O)NC(C(=O)NCC(=O)NC(C(=O)NC(C(=O)NC(C(=O)NC(C(=O)NC(C(=O)N6C(C(=O)NC(C(=O)NC(C(=O)NC(C(=O)NC(C(=O)NC(C(=O)NC(C(=O)NC(C(=O)NC(C(=O)NC(C(=O)NC(C(=O)NC(C(=O)NC(C(=O)NC(C(=O)NC(C(=O)NC(C(=O)NC(C(=O)NCC(=O)NC(C(=O)NC(C(=O)NC(C(=O)NC(C(=O)NC(C(=O)NC(C(=O)NC(C(=O)NC(C(=O)NC(C(=O)NC(C(=O)NC(C(=O)NC(C(=O)NC(C(=O)NC(C(=O)NC(C(=O)NC(C(=O)NC(C(=O)NC(C(=O)NC(C(=O)NC(C(=O)NC(C(=O)NC(C(=O)NC(C(=O)NC(C(=O)NC(C(=O)NC(C(=O)NC(C(=O)NC(C(=O)NC(C(=O)NC(C(=O)NC(C(=O)N7C(C(=O)NC(C(=O)NCC(=O)NC(C(=O)NC(C(=O)NC(C(=O)NC(C(=O)NC(C(=O)NC(C(=O)NC(C(=O)NC(C(=O)NC(C(=O)NC(C(=O)NC(C(=O)NC(C(=O)NC(C(=O)N8C(C(=O)NCC(=O)NC(C(=O)NC(C(=O)NC(C(=O)NC(C(=O)NC(C(=O)NC(C(=O)NC(C(=O)NC(C(=O)NC(C(=O)NC(C(=O)NC(C(=O)NC(C(=O)NC(C(=O)NC(C(=O)NC(C(=O)NC(C(=O)NC(C(=O)NC(C(=O)NC(C(=O)NC(C(=O)N9C(C(=O)NCC(=O)NC(C(=O)NC(C(=O)NC(C(=O)NC(C(=O)NC(C(=O)NC(C(=O)NC(C(=O)NC(C(=O)NC(C(=O)NC(C(=O)NC(C(=O)NCC(=O)NC(C(=O)NC(C(=O)NC(C(=O)NC(C(=O)NCC(=O)NC(C(=O)NC(C(=O)NC(C(=O)NCC(=O)NC(C(=O)NCC(=O)NC(C(=O)NC(C(=O)NC(C(=O)NC(C(=O)NC(C(=O)NC(C(=O)N%10C(C(=O)NC(C(=O)NC(C(=O)NC(C(=O)N%11C(C(=O)NC(C(=O)NC(C(=O)NC(C(=O)NC(C(=O)NC(C(=O)NC(C(=O)NC(C(=O)NCC(=O)NC(C(=O)NC(C(=O)NC(C(=O)NCC(=O)NC(C(=O)NC(C(=O)NC(C(=O)NC(C(=O)N%12C(C(=O)NC(C(=O)NCC(=O)NC(C(=O)NC(C(=O)NC(C(=O)NC(C(=O)NC)CC(=O)N)Cc%13ccc(O)cc%13)CO)CCCNC(=[NH2+])N)CC(=O)[O-])CCC%12)Cc%12ccc(O)cc%12)CC(C)C)Cc%12ccc(O)cc%12)Cc%12ccccc%12)CCC(=O)[O-])C)CO)CC(=O)[O-])C(CC)C)CC(C)C)C)CCC(=O)N)Cc%12ccccc%12)CC(C)C)CCC%11)CCCC[NH3+])CC(=O)N)Cc%11[nH]cnc%11)CCC%10)C(CC)C)C(O)C)CCC(=O)N)CC(C)C)C(CC)C)CC(=O)N)CC(=O)[O-])C(O)C)C(C)C)Cc%10ccc(O)cc%10)C(CC)C)C)Cc%10c%11c([nH]c%10)cccc%11)CCC(=O)N)CC(C)C)CCCNC(=[NH2+])N)C(O)C)CS)CO)CC(C)C)CCCNC(=[NH2+])N)Cc%10ccccc%10)C(CC)C)Cc%10ccc(O)cc%10)CO)CCC9)CCCC[NH3+])C(O)C)CO)Cc9ccc(O)cc9)CCCC[NH3+])CCC(=O)N)CC(C)C)CCCNC(=[NH2+])N)C)CCCC[NH3+])C(C)C)CCC(=O)[O-])CC(=O)[O-])Cc9ccc(O)cc9)C(O)C)CC(C)C)Cc9ccccc9)C)CCSC)Cc9ccc(O)cc9)CCC8)Cc8nc[nH]c8)C(O)C)C(C)C)C)CC(C)C)Cc8ccccc8)CC(=O)N)Cc8c9c([nH]c8)cccc9)CC(=O)N)CCCNC(=[NH2+])N)CC(C)C)C(CC)C)CO)Cc8c9c([nH]c8)cccc9)CCC7)CCC(=O)N)Cc7ccccc7)CC(C)C)CCCNC(=[NH2+])N)C(O)C)Cc7ccccc7)C(CC)C)CC(=O)[O-])Cc7ccccc7)CCC(=O)[O-])Cc7ccccc7)C(C)C)CO)C(CC)C)Cc7ccc(O)cc7)CC(=O)[O-])CC(=O)N)CS)C(O)C)CC(C)C)CC(=O)[O-])C(CC)C)C(O)C)CO)CCCC[NH3+])CC(C)C)C)CCSC)C)CCC(=O)[O-])CC(C)C)CO)CO)C(CC)C)CCC(=O)N)Cc7nc[nH]c7)C(C)C)CCC(=O)[O-])Cc7nc[nH]c7)CC(C)C)CS)CCC(=O)N)CCCNC(=[NH2+])N)Cc7ccccc7)C(C)C)CCCC[NH3+])Cc7c8c([nH]c7)cccc8)CCC6)C(C)C)C(CC)C)C(O)C)CCCC[NH3+])CC(=O)[O-])Cc6ccccc6)Cc6ccccc6)CCCC[NH3+])CCCNC(=[NH2+])N)Cc6c7c([nH]c6)cccc7)Cc6ccccc6)CCC(=O)[O-])C)C)CC(=O)[O-])C)CCCC[NH3+])C(O)C)C(CC)C)CCCNC(=[NH2+])N)Cc6ccccc6)CC(=O)N)CC(=O)[O-])CCC(=O)N)Cc6ccccc6)CCC(=O)N)CC(=O)N)CCC5)Cc5ccccc5)C(CC)C)C)CCCC[NH3+])C(CC)C)CCC(=O)[O-])C)CC(C)C)CCSC)Cc5nc[nH]c5)CO)Cc5ccccc5)C(CC)C)CC(C)C)CO)CC(C)C)CCCC[NH3+])C(O)C)CC(C)C)CC(=O)N)CCCNC(=[NH2+])N)CCCNC(=[NH2+])N)CC(=O)[O-])CCC(=O)N)CO)CCC(=O)N)CCC(=O)[O-])CCC(=O)[O-])Cc5ccc(O)cc5)CCSC)CCCNC(=[NH2+])N)CCC(=O)[O-])CCCC[NH3+])CCC(=O)[O-])CCCC[NH3+])Cc5ccccc5)CC(C)C)CCCNC(=[NH2+])N)C(CC)C)C)CCCNC(=[NH2+])N)CCCC[NH3+])CO)CCCC[NH3+])CCCC[NH3+])CCSC)CC(C)C)CO)CC(=O)[O-])C(CC)C)Cc5ccc(O)cc5)C(CC)C)CCCC[NH3+])Cc5ccccc5)Cc5ccc(O)cc5)CCC(=O)[O-])CC(=O)N)CCC(=O)[O-])CO)CC(C)C)CCC(=O)N)C)CC(C)C)CCCC[NH3+])CCC(=O)N)CC(=O)N)CC(=O)[O-])CC(=O)[O-])Cc5ccc(O)cc5)CCCC[NH3+])CO)CC(C)C)C(CC)C)CC(C)C)CCCNC(=[NH2+])N)CC(C)C)Cc5nc[nH]c5)CCC(=O)N)Cc5ccc(O)cc5)C(O)C)CC(=O)[O-])CCC4)CC(C)C)C(CC)C)CC(=O)[O-])CC(C)C)C(CC)C)Cc4ccc(O)cc4)CCC3)CCC2)CO)CC(=O)N)CCCC[NH3+])CC(C)C)CCC(=O)N)CC(C)C)CCCC[NH3+])CCC1)CC(=O)N)CCC(=O)N)CS)CC(C)C)CCCNC(=[NH2+])N)C(C)C)C(C)C)C)CC(=O)[O-])C.OCCO.[UH+3].[Zn+2].[Zn+2].O.O.O.O.O.O.O.O.O.O.O.O.O.O.O.O.O.O.O.O.O.O.O.O.O.O.O.O.O.O.O.O.O.O.O.O.O.O.O.O.O.O.O.O.O.O.O.O.O.O.O.O.O.O.O.O.O.O.O.O.O.O.O.O.O.O.O.O.O.O.O.O.O.O.O.O.O.O.O.O.O.O.O.O.O.O.O.O.O.O.O.O.O.O.O.O.O.O.O.O.O.O.O.O.O.O.O.O.O.O.O.O.O.O.O.O.O.O.O.O.O.O.O.O.O.O.O.O.O.O.O.O.O.O.O.O.O.O.O.O.O.O

>  <rseq>
1

>  <mseq>
87

>  <S>
-5.8170881

>  <rmsd_refine>
1.4059451

>  <E_conf>
19.966583

>  <E_place>
-47.588955

>  <E_score1>
-11.541692

>  <E_refine>
-27.59791

>  <E_score2>
-5.8170881

>  <Field_2>
UD07

>  <pseq>
87

>  <%C>
100

>  <a_heavy>
15

>  <h_logP>
2.0515652

>  <Weight>
227.69099

>  <E_orig>
1.4

>  <PLIF_raw>
[[],[],[],[],[]]

>  <PLIF_ligidx>
[]

$$$$

  MOE2020           3D

 24 24  0  0  0  0  0  0  0  0999 V2000
    4.9810    6.8150   15.6360 C   0  0  0  0  0  0  0  0  0  0  0  0
    5.8420    7.4720   15.5680 H   0  0  0  0  0  0  0  0  0  0  0  0
    4.1410    7.3330   15.1770 H   0  0  0  0  0  0  0  0  0  0  0  0
    5.1620    5.9210   15.0400 H   0  0  0  0  0  0  0  0  0  0  0  0
    4.6900    6.4470   17.0800 C   0  0  0  0  0  0  0  0  0  0  0  0
    5.5700    5.6710   17.8670 C   0  0  0  0  0  0  0  0  0  0  0  0
    5.1470    5.2380   19.1300 C   0  0  0  0  0  0  0  0  0  0  0  0
    5.7790    4.6120   19.7070 H   0  0  0  0  0  0  0  0  0  0  0  0
    3.9190    5.6330   19.6480 C   0  0  0  0  0  0  0  0  0  0  0  0
    3.5880    5.3030   20.5960 H   0  0  0  0  0  0  0  0  0  0  0  0
    3.1380    6.4990   18.9090 C   0  0  0  0  0  0  0  0  0  0  0  0
    3.4920    6.9000   17.6320 C   0  0  0  0  0  0  0  0  0  0  0  0
    2.8520    7.5490   17.0920 H   0  0  0  0  0  0  0  0  0  0  0  0
    2.0030    6.9750   19.4600 F   0  0  0  0  0  0  0  0  0  0  0  0
    7.2620    5.2330   17.3920 S   0  0  0  0  0  0  0  0  0  0  0  0
    7.4770    5.5130   16.0170 O   0  0  0  0  0  0  0  0  0  0  0  0
    7.5290    3.9010   17.7860 O   0  0  0  0  0  0  0  0  0  0  0  0
    8.2090    6.2590   18.3320 N   0  0  0  0  0  0  0  0  0  0  0  0
    8.1590    6.0790   19.3450 H   0  0  0  0  0  0  0  0  0  0  0  0
    8.3340    7.5830   18.0220 C   0  0  0  0  0  0  0  0  0  0  0  0
    7.9000    8.1000   16.9990 O   0  0  0  0  0  0  0  0  0  0  0  0
    8.9880    8.3140   18.9560 N   0  0  0  0  0  0  0  0  0  0  0  0
    9.2920    9.2730   18.7320 H   0  0  0  0  0  0  0  0  0  0  0  0
    9.4270    7.8400   19.7600 H   0  0  0  0  0  0  0  0  0  0  0  0
  1  2  1  0  0  0  0
  1  3  1  0  0  0  0
  1  4  1  0  0  0  0
  1  5  1  0  0  0  0
  5  6  1  0  0  0  0
  5 12  2  0  0  0  0
  6  7  2  0  0  0  0
  6 15  1  0  0  0  0
  7  8  1  0  0  0  0
  7  9  1  0  0  0  0
  9 10  1  0  0  0  0
  9 11  2  0  0  0  0
 11 12  1  0  0  0  0
 11 14  1  0  0  0  0
 12 13  1  0  0  0  0
 15 16  2  0  0  0  0
 15 17  2  0  0  0  0
 15 18  1  0  0  0  0
 18 19  1  0  0  0  0
 18 20  1  0  0  0  0
 20 21  2  0  0  0  0
 20 22  1  0  0  0  0
 22 23  1  0  0  0  0
 22 24  1  0  0  0  0
M  END
>  <receptor>
S(=O)(=O)([O-])[O-].S(CCC(NC(=O)C(NC(=O)C(NC(=O)CNC(=O)C(NC(=O)C1N(C(=O)C(NC(=O)C(NC(=O)C(NC(=O)C(NC(=O)C(NC(=O)C(NC(=O)C(NC(=O)C(NC(=O)C(NC(=O)C(NC(=O)C(NC(=O)C(NC(=O)C(NC(=O)C(NC(=O)C(NC(=O)C(NC(=O)C(NC(=O)C(NC(=O)C(NC(=O)CNC(=O)C(NC(=O)C(NC(=O)C(NC(=O)C(NC(=O)C(NC(=O)C(NC(=O)C(NC(=O)C(NC(=O)C(NC(=O)C(NC(=O)C(NC(=O)C(NC(=O)C(NC(=O)C)CCCC[NH3+])C(C)C)C(O)C)CCC(=O)N)CCC(=O)[O-])CCC(=O)N)Cc2ccccc2)CCC(=O)[O-])CC(C)C)Cc2ccc(O)cc2)CS)CCC(=O)[O-])CCSC)CO)C(O)C)Cc2ccccc2)CCC(=O)N)CC(C)C)C[S-])CCCC[NH3+])C(CC)C)C[S-])C)CCC(=O)[O-])CC(=O)N)CC(=O)[O-])CCCC[NH3+])CC(=O)[O-])C(C)C)CCCC[NH3+])C(CC)C)CCC(=O)[O-])CCC1)C[S-])Cc1nc[n-]c1)CC(C)C)C(=O)NC(C(=O)NC(C(=O)NC(C(=O)NC(C(=O)NC(C(=O)NC(C(=O)NC(C(=O)NC(C(=O)NC(C(=O)NC(C(=O)NC(C(=O)NC(C(=O)NCC(=O)NC(C(=O)NCC(=O)NC(C(=O)N1C(C(=O)NC(C(=O)NC(C(=O)NC(C(=O)NC(C(=O)NC(C(=O)NC(C(=O)NC(C(=O)NCC(=O)NC(C(=O)NC(C(=O)N2C(C(=O)NC(C(=O)NC(C(=O)NC(C(=O)NC(C(=O)N3C(C(=O)NC(C(=O)NC(C(=O)[O-])CC(=O)[O-])Cc4ccccc4)CCC3)CC(=O)[O-])C(C)C)C(CC)C)C(CC)C)CCC2)CCC(=O)[O-])C(O)C)CCCC[NH3+])C(CC)C)CCC(=O)[O-])CS)CCCNC(=[NH2+])N)C[S-])Cc2ccccc2)CCC1)C[S-])CCC(=O)N)CC(=O)[O-])CO)CCC(=O)[O-])CCC(=O)N)Cc1c2c([nH]c1)cccc2)C)C(O)C)CC(C)C)C[S-])CO)C(O)C)C[S-])C.S(CCC(NC(=O)C(NC(=O)C(NC(=O)C(NC(=O)C(NC(=O)C(NC(=O)C(NC(=O)C(NC(=O)C(NC(=O)C(NC(=O)C(NC(=O)C(NC(=O)C(NC(=O)C(NC(=O)C(NC(=O)C(NC(=O)C[NH3+])CCC(=O)N)C)C)C)CC(=O)[O-])CCCNC(=[NH2+])N)CCCNC(=[NH2+])N)C(O)C)C(C)C)CCC(=O)[O-])CCCC[NH3+])C(O)C)Cc1c2c([nH]c1)cccc2)C)CC(C)C)C(=O)NC(C(=O)NC(C(=O)NC(C(=O)NC(C(=O)NC(C(=O)NC(C(=O)NC(C(=O)NC(C(=O)NC(C(=O)N1C(C(=O)NC(C(=O)NC(C(=O)NC(C(=O)NC(C(=O)NC(C(=O)NC(C(=O)NC(C(=O)N2C(C(=O)N3C(C(=O)NC(C(=O)NC(C(=O)NC(C(=O)NC(C(=O)NC(C(=O)NC(C(=O)N4C(C(=O)NC(C(=O)NC(C(=O)NC(C(=O)NC(C(=O)NC(C(=O)NC(C(=O)NC(C(=O)NC(C(=O)NC(C(=O)NC(C(=O)NC(C(=O)NC(C(=O)NC(C(=O)NC(C(=O)NC(C(=O)NC(C(=O)NC(C(=O)NC(C(=O)NC(C(=O)NC(C(=O)NC(C(=O)NC(C(=O)NC(C(=O)NC(C(=O)NC(C(=O)NC(C(=O)NC(C(=O)NC(C(=O)NC(C(=O)NC(C(=O)NC(C(=O)NC(C(=O)NC(C(=O)NC(C(=O)NC(C(=O)NC(C(=O)NC(C(=O)NC(C(=O)NC(C(=O)NC(C(=O)NC(C(=O)NC(C(=O)NC(C(=O)NC(C(=O)NC(C(=O)NC(C(=O)NC(C(=O)NC(C(=O)NCC(=O)NC(C(=O)NC(C(=O)NC(C(=O)NC(C(=O)NC(C(=O)NC(C(=O)NC(C(=O)NC(C(=O)NC(C(=O)NC(C(=O)NC(C(=O)NC(C(=O)NC(C(=O)NC(C(=O)NC(C(=O)NC(C(=O)NC(C(=O)NC(C(=O)NC(C(=O)NC(C(=O)NC(C(=O)NC(C(=O)NC(C(=O)NC(C(=O)NC(C(=O)NC(C(=O)NC(C(=O)NC(C(=O)NC(C(=O)NC(C(=O)NC(C(=O)NC(C(=O)NC(C(=O)N5C(C(=O)NC(C(=O)NCC(=O)NC(C(=O)NC(C(=O)NC(C(=O)NCC(=O)NC(C(=O)NC(C(=O)NC(C(=O)NC(C(=O)NC(C(=O)NC(C(=O)NC(C(=O)NC(C(=O)NC(C(=O)NC(C(=O)NC(C(=O)NC(C(=O)NC(C(=O)NC(C(=O)NC(C(=O)NC(C(=O)NC(C(=O)NC(C(=O)NCC(=O)NC(C(=O)NC(C(=O)NC(C(=O)NC(C(=O)NC(C(=O)N6C(C(=O)NC(C(=O)NC(C(=O)NC(C(=O)NC(C(=O)NC(C(=O)NC(C(=O)NC(C(=O)NC(C(=O)NC(C(=O)NC(C(=O)NC(C(=O)NC(C(=O)NC(C(=O)NC(C(=O)NC(C(=O)NC(C(=O)NCC(=O)NC(C(=O)NC(C(=O)NC(C(=O)NC(C(=O)NC(C(=O)NC(C(=O)NC(C(=O)NC(C(=O)NC(C(=O)NC(C(=O)NC(C(=O)NC(C(=O)NC(C(=O)NC(C(=O)NC(C(=O)NC(C(=O)NC(C(=O)NC(C(=O)NC(C(=O)NC(C(=O)NC(C(=O)NC(C(=O)NC(C(=O)NC(C(=O)NC(C(=O)NC(C(=O)NC(C(=O)NC(C(=O)NC(C(=O)NC(C(=O)NC(C(=O)N7C(C(=O)NC(C(=O)NCC(=O)NC(C(=O)NC(C(=O)NC(C(=O)NC(C(=O)NC(C(=O)NC(C(=O)NC(C(=O)NC(C(=O)NC(C(=O)NC(C(=O)NC(C(=O)NC(C(=O)NC(C(=O)N8C(C(=O)NCC(=O)NC(C(=O)NC(C(=O)NC(C(=O)NC(C(=O)NC(C(=O)NC(C(=O)NC(C(=O)NC(C(=O)NC(C(=O)NC(C(=O)NC(C(=O)NC(C(=O)NC(C(=O)NC(C(=O)NC(C(=O)NC(C(=O)NC(C(=O)NC(C(=O)NC(C(=O)NC(C(=O)N9C(C(=O)NCC(=O)NC(C(=O)NC(C(=O)NC(C(=O)NC(C(=O)NC(C(=O)NC(C(=O)NC(C(=O)NC(C(=O)NC(C(=O)NC(C(=O)NC(C(=O)NCC(=O)NC(C(=O)NC(C(=O)NC(C(=O)NC(C(=O)NCC(=O)NC(C(=O)NC(C(=O)NC(C(=O)NCC(=O)NC(C(=O)NCC(=O)NC(C(=O)NC(C(=O)NC(C(=O)NC(C(=O)NC(C(=O)NC(C(=O)N%10C(C(=O)NC(C(=O)NC(C(=O)NC(C(=O)N%11C(C(=O)NC(C(=O)NC(C(=O)NC(C(=O)NC(C(=O)NC(C(=O)NC(C(=O)NC(C(=O)NCC(=O)NC(C(=O)NC(C(=O)NC(C(=O)NCC(=O)NC(C(=O)NC(C(=O)NC(C(=O)NC(C(=O)N%12C(C(=O)NC(C(=O)NCC(=O)NC(C(=O)NC(C(=O)NC(C(=O)NC(C(=O)NC)CC(=O)N)Cc%13ccc(O)cc%13)CO)CCCNC(=[NH2+])N)CC(=O)[O-])CCC%12)Cc%12ccc(O)cc%12)CC(C)C)Cc%12ccc(O)cc%12)Cc%12ccccc%12)CCC(=O)[O-])C)CO)CC(=O)[O-])C(CC)C)CC(C)C)C)CCC(=O)N)Cc%12ccccc%12)CC(C)C)CCC%11)CCCC[NH3+])CC(=O)N)Cc%11[nH]cnc%11)CCC%10)C(CC)C)C(O)C)CCC(=O)N)CC(C)C)C(CC)C)CC(=O)N)CC(=O)[O-])C(O)C)C(C)C)Cc%10ccc(O)cc%10)C(CC)C)C)Cc%10c%11c([nH]c%10)cccc%11)CCC(=O)N)CC(C)C)CCCNC(=[NH2+])N)C(O)C)CS)CO)CC(C)C)CCCNC(=[NH2+])N)Cc%10ccccc%10)C(CC)C)Cc%10ccc(O)cc%10)CO)CCC9)CCCC[NH3+])C(O)C)CO)Cc9ccc(O)cc9)CCCC[NH3+])CCC(=O)N)CC(C)C)CCCNC(=[NH2+])N)C)CCCC[NH3+])C(C)C)CCC(=O)[O-])CC(=O)[O-])Cc9ccc(O)cc9)C(O)C)CC(C)C)Cc9ccccc9)C)CCSC)Cc9ccc(O)cc9)CCC8)Cc8nc[nH]c8)C(O)C)C(C)C)C)CC(C)C)Cc8ccccc8)CC(=O)N)Cc8c9c([nH]c8)cccc9)CC(=O)N)CCCNC(=[NH2+])N)CC(C)C)C(CC)C)CO)Cc8c9c([nH]c8)cccc9)CCC7)CCC(=O)N)Cc7ccccc7)CC(C)C)CCCNC(=[NH2+])N)C(O)C)Cc7ccccc7)C(CC)C)CC(=O)[O-])Cc7ccccc7)CCC(=O)[O-])Cc7ccccc7)C(C)C)CO)C(CC)C)Cc7ccc(O)cc7)CC(=O)[O-])CC(=O)N)CS)C(O)C)CC(C)C)CC(=O)[O-])C(CC)C)C(O)C)CO)CCCC[NH3+])CC(C)C)C)CCSC)C)CCC(=O)[O-])CC(C)C)CO)CO)C(CC)C)CCC(=O)N)Cc7nc[nH]c7)C(C)C)CCC(=O)[O-])Cc7nc[nH]c7)CC(C)C)CS)CCC(=O)N)CCCNC(=[NH2+])N)Cc7ccccc7)C(C)C)CCCC[NH3+])Cc7c8c([nH]c7)cccc8)CCC6)C(C)C)C(CC)C)C(O)C)CCCC[NH3+])CC(=O)[O-])Cc6ccccc6)Cc6ccccc6)CCCC[NH3+])CCCNC(=[NH2+])N)Cc6c7c([nH]c6)cccc7)Cc6ccccc6)CCC(=O)[O-])C)C)CC(=O)[O-])C)CCCC[NH3+])C(O)C)C(CC)C)CCCNC(=[NH2+])N)Cc6ccccc6)CC(=O)N)CC(=O)[O-])CCC(=O)N)Cc6ccccc6)CCC(=O)N)CC(=O)N)CCC5)Cc5ccccc5)C(CC)C)C)CCCC[NH3+])C(CC)C)CCC(=O)[O-])C)CC(C)C)CCSC)Cc5nc[nH]c5)CO)Cc5ccccc5)C(CC)C)CC(C)C)CO)CC(C)C)CCCC[NH3+])C(O)C)CC(C)C)CC(=O)N)CCCNC(=[NH2+])N)CCCNC(=[NH2+])N)CC(=O)[O-])CCC(=O)N)CO)CCC(=O)N)CCC(=O)[O-])CCC(=O)[O-])Cc5ccc(O)cc5)CCSC)CCCNC(=[NH2+])N)CCC(=O)[O-])CCCC[NH3+])CCC(=O)[O-])CCCC[NH3+])Cc5ccccc5)CC(C)C)CCCNC(=[NH2+])N)C(CC)C)C)CCCNC(=[NH2+])N)CCCC[NH3+])CO)CCCC[NH3+])CCCC[NH3+])CCSC)CC(C)C)CO)CC(=O)[O-])C(CC)C)Cc5ccc(O)cc5)C(CC)C)CCCC[NH3+])Cc5ccccc5)Cc5ccc(O)cc5)CCC(=O)[O-])CC(=O)N)CCC(=O)[O-])CO)CC(C)C)CCC(=O)N)C)CC(C)C)CCCC[NH3+])CCC(=O)N)CC(=O)N)CC(=O)[O-])CC(=O)[O-])Cc5ccc(O)cc5)CCCC[NH3+])CO)CC(C)C)C(CC)C)CC(C)C)CCCNC(=[NH2+])N)CC(C)C)Cc5nc[nH]c5)CCC(=O)N)Cc5ccc(O)cc5)C(O)C)CC(=O)[O-])CCC4)CC(C)C)C(CC)C)CC(=O)[O-])CC(C)C)C(CC)C)Cc4ccc(O)cc4)CCC3)CCC2)CO)CC(=O)N)CCCC[NH3+])CC(C)C)CCC(=O)N)CC(C)C)CCCC[NH3+])CCC1)CC(=O)N)CCC(=O)N)CS)CC(C)C)CCCNC(=[NH2+])N)C(C)C)C(C)C)C)CC(=O)[O-])C.OCCO.[UH+3].[Zn+2].[Zn+2].O.O.O.O.O.O.O.O.O.O.O.O.O.O.O.O.O.O.O.O.O.O.O.O.O.O.O.O.O.O.O.O.O.O.O.O.O.O.O.O.O.O.O.O.O.O.O.O.O.O.O.O.O.O.O.O.O.O.O.O.O.O.O.O.O.O.O.O.O.O.O.O.O.O.O.O.O.O.O.O.O.O.O.O.O.O.O.O.O.O.O.O.O.O.O.O.O.O.O.O.O.O.O.O.O.O.O.O.O.O.O.O.O.O.O.O.O.O.O.O.O.O.O.O.O.O.O.O.O.O.O.O.O.O.O.O.O.O.O.O.O.O

>  <rseq>
1

>  <mseq>
88

>  <S>
-6.0869098

>  <rmsd_refine>
1.2542197

>  <E_conf>
-187.07216

>  <E_place>
-68.682266

>  <E_score1>
-11.890699

>  <E_refine>
-28.242764

>  <E_score2>
-6.0869098

>  <Field_2>
UD08

>  <pseq>
88

>  <%C>
100

>  <a_heavy>
15

>  <h_logP>
0.10985742

>  <Weight>
232.235

>  <E_orig>
0

>  <PLIF_raw>
[[22,21,21],[5130,3722,6288],[363,260,220669],[3,2,6],[4.2,2.1,0.6]]

>  <FP:PLIF>
26 27 31 33 28

>  <PLIF_ligidx>
[21,21,22,22,21]

$$$$

  MOE2020           3D

 24 24  0  0  0  0  0  0  0  0999 V2000
    7.0420    4.1750   12.4100 C   0  0  0  0  0  0  0  0  0  0  0  0
    7.5500    3.2310   12.2990 H   0  0  0  0  0  0  0  0  0  0  0  0
    7.7720    4.9550   12.2420 H   0  0  0  0  0  0  0  0  0  0  0  0
    6.3110    4.2260   11.6200 H   0  0  0  0  0  0  0  0  0  0  0  0
    6.4080    4.2840   13.7760 C   0  0  0  0  0  0  0  0  0  0  0  0
    5.2480    3.9920   13.9780 O   0  0  0  0  0  0  0  0  0  0  0  0
    7.2480    4.6860   14.7890 N   0  0  0  0  0  0  0  0  0  0  0  0
    8.2230    4.8690   14.5080 H   0  0  0  0  0  0  0  0  0  0  0  0
    6.9750    4.7910   16.1780 C   0  0  0  0  0  0  0  0  0  0  0  0
    8.0640    4.6490   17.0360 C   0  0  0  0  0  0  0  0  0  0  0  0
    9.0130    4.4110   16.6500 H   0  0  0  0  0  0  0  0  0  0  0  0
    7.8960    4.8060   18.4020 C   0  0  0  0  0  0  0  0  0  0  0  0
    8.7270    4.7200   19.0540 H   0  0  0  0  0  0  0  0  0  0  0  0
    6.6320    5.0550   18.9190 C   0  0  0  0  0  0  0  0  0  0  0  0
    6.5050    5.1570   19.9650 H   0  0  0  0  0  0  0  0  0  0  0  0
    5.5270    5.1440   18.0720 C   0  0  0  0  0  0  0  0  0  0  0  0
    5.7010    5.0400   16.6930 C   0  0  0  0  0  0  0  0  0  0  0  0
    4.8660    5.1500   16.0520 H   0  0  0  0  0  0  0  0  0  0  0  0
    3.8990    5.3690   18.7680 S   0  0  0  0  0  0  0  0  0  0  0  0
    4.0170    6.1610   19.9350 O   0  0  0  0  0  0  0  0  0  0  0  0
    3.0410    5.8610   17.7460 O   0  0  0  0  0  0  0  0  0  0  0  0
    3.4620    3.8370   19.1930 N   0  0  0  0  0  0  0  0  0  0  0  0
    3.2950    3.1530   18.4510 H   0  0  0  0  0  0  0  0  0  0  0  0
    3.9550    3.3910   19.9700 H   0  0  0  0  0  0  0  0  0  0  0  0
  1  2  1  0  0  0  0
  1  3  1  0  0  0  0
  1  4  1  0  0  0  0
  1  5  1  0  0  0  0
  5  6  2  0  0  0  0
  5  7  1  0  0  0  0
  7  8  1  0  0  0  0
  7  9  1  0  0  0  0
  9 10  1  0  0  0  0
  9 17  2  0  0  0  0
 10 11  1  0  0  0  0
 10 12  2  0  0  0  0
 12 13  1  0  0  0  0
 12 14  1  0  0  0  0
 14 15  1  0  0  0  0
 14 16  2  0  0  0  0
 16 17  1  0  0  0  0
 16 19  1  0  0  0  0
 17 18  1  0  0  0  0
 19 20  2  0  0  0  0
 19 21  2  0  0  0  0
 19 22  1  0  0  0  0
 22 23  1  0  0  0  0
 22 24  1  0  0  0  0
M  END
>  <receptor>
S(=O)(=O)([O-])[O-].S(CCC(NC(=O)C(NC(=O)C(NC(=O)CNC(=O)C(NC(=O)C1N(C(=O)C(NC(=O)C(NC(=O)C(NC(=O)C(NC(=O)C(NC(=O)C(NC(=O)C(NC(=O)C(NC(=O)C(NC(=O)C(NC(=O)C(NC(=O)C(NC(=O)C(NC(=O)C(NC(=O)C(NC(=O)C(NC(=O)C(NC(=O)C(NC(=O)C(NC(=O)CNC(=O)C(NC(=O)C(NC(=O)C(NC(=O)C(NC(=O)C(NC(=O)C(NC(=O)C(NC(=O)C(NC(=O)C(NC(=O)C(NC(=O)C(NC(=O)C(NC(=O)C(NC(=O)C)CCCC[NH3+])C(C)C)C(O)C)CCC(=O)N)CCC(=O)[O-])CCC(=O)N)Cc2ccccc2)CCC(=O)[O-])CC(C)C)Cc2ccc(O)cc2)CS)CCC(=O)[O-])CCSC)CO)C(O)C)Cc2ccccc2)CCC(=O)N)CC(C)C)C[S-])CCCC[NH3+])C(CC)C)C[S-])C)CCC(=O)[O-])CC(=O)N)CC(=O)[O-])CCCC[NH3+])CC(=O)[O-])C(C)C)CCCC[NH3+])C(CC)C)CCC(=O)[O-])CCC1)C[S-])Cc1nc[n-]c1)CC(C)C)C(=O)NC(C(=O)NC(C(=O)NC(C(=O)NC(C(=O)NC(C(=O)NC(C(=O)NC(C(=O)NC(C(=O)NC(C(=O)NC(C(=O)NC(C(=O)NC(C(=O)NCC(=O)NC(C(=O)NCC(=O)NC(C(=O)N1C(C(=O)NC(C(=O)NC(C(=O)NC(C(=O)NC(C(=O)NC(C(=O)NC(C(=O)NC(C(=O)NCC(=O)NC(C(=O)NC(C(=O)N2C(C(=O)NC(C(=O)NC(C(=O)NC(C(=O)NC(C(=O)N3C(C(=O)NC(C(=O)NC(C(=O)[O-])CC(=O)[O-])Cc4ccccc4)CCC3)CC(=O)[O-])C(C)C)C(CC)C)C(CC)C)CCC2)CCC(=O)[O-])C(O)C)CCCC[NH3+])C(CC)C)CCC(=O)[O-])CS)CCCNC(=[NH2+])N)C[S-])Cc2ccccc2)CCC1)C[S-])CCC(=O)N)CC(=O)[O-])CO)CCC(=O)[O-])CCC(=O)N)Cc1c2c([nH]c1)cccc2)C)C(O)C)CC(C)C)C[S-])CO)C(O)C)C[S-])C.S(CCC(NC(=O)C(NC(=O)C(NC(=O)C(NC(=O)C(NC(=O)C(NC(=O)C(NC(=O)C(NC(=O)C(NC(=O)C(NC(=O)C(NC(=O)C(NC(=O)C(NC(=O)C(NC(=O)C(NC(=O)C(NC(=O)C[NH3+])CCC(=O)N)C)C)C)CC(=O)[O-])CCCNC(=[NH2+])N)CCCNC(=[NH2+])N)C(O)C)C(C)C)CCC(=O)[O-])CCCC[NH3+])C(O)C)Cc1c2c([nH]c1)cccc2)C)CC(C)C)C(=O)NC(C(=O)NC(C(=O)NC(C(=O)NC(C(=O)NC(C(=O)NC(C(=O)NC(C(=O)NC(C(=O)NC(C(=O)N1C(C(=O)NC(C(=O)NC(C(=O)NC(C(=O)NC(C(=O)NC(C(=O)NC(C(=O)NC(C(=O)N2C(C(=O)N3C(C(=O)NC(C(=O)NC(C(=O)NC(C(=O)NC(C(=O)NC(C(=O)NC(C(=O)N4C(C(=O)NC(C(=O)NC(C(=O)NC(C(=O)NC(C(=O)NC(C(=O)NC(C(=O)NC(C(=O)NC(C(=O)NC(C(=O)NC(C(=O)NC(C(=O)NC(C(=O)NC(C(=O)NC(C(=O)NC(C(=O)NC(C(=O)NC(C(=O)NC(C(=O)NC(C(=O)NC(C(=O)NC(C(=O)NC(C(=O)NC(C(=O)NC(C(=O)NC(C(=O)NC(C(=O)NC(C(=O)NC(C(=O)NC(C(=O)NC(C(=O)NC(C(=O)NC(C(=O)NC(C(=O)NC(C(=O)NC(C(=O)NC(C(=O)NC(C(=O)NC(C(=O)NC(C(=O)NC(C(=O)NC(C(=O)NC(C(=O)NC(C(=O)NC(C(=O)NC(C(=O)NC(C(=O)NC(C(=O)NC(C(=O)NCC(=O)NC(C(=O)NC(C(=O)NC(C(=O)NC(C(=O)NC(C(=O)NC(C(=O)NC(C(=O)NC(C(=O)NC(C(=O)NC(C(=O)NC(C(=O)NC(C(=O)NC(C(=O)NC(C(=O)NC(C(=O)NC(C(=O)NC(C(=O)NC(C(=O)NC(C(=O)NC(C(=O)NC(C(=O)NC(C(=O)NC(C(=O)NC(C(=O)NC(C(=O)NC(C(=O)NC(C(=O)NC(C(=O)NC(C(=O)NC(C(=O)NC(C(=O)NC(C(=O)NC(C(=O)N5C(C(=O)NC(C(=O)NCC(=O)NC(C(=O)NC(C(=O)NC(C(=O)NCC(=O)NC(C(=O)NC(C(=O)NC(C(=O)NC(C(=O)NC(C(=O)NC(C(=O)NC(C(=O)NC(C(=O)NC(C(=O)NC(C(=O)NC(C(=O)NC(C(=O)NC(C(=O)NC(C(=O)NC(C(=O)NC(C(=O)NC(C(=O)NC(C(=O)NCC(=O)NC(C(=O)NC(C(=O)NC(C(=O)NC(C(=O)NC(C(=O)N6C(C(=O)NC(C(=O)NC(C(=O)NC(C(=O)NC(C(=O)NC(C(=O)NC(C(=O)NC(C(=O)NC(C(=O)NC(C(=O)NC(C(=O)NC(C(=O)NC(C(=O)NC(C(=O)NC(C(=O)NC(C(=O)NC(C(=O)NCC(=O)NC(C(=O)NC(C(=O)NC(C(=O)NC(C(=O)NC(C(=O)NC(C(=O)NC(C(=O)NC(C(=O)NC(C(=O)NC(C(=O)NC(C(=O)NC(C(=O)NC(C(=O)NC(C(=O)NC(C(=O)NC(C(=O)NC(C(=O)NC(C(=O)NC(C(=O)NC(C(=O)NC(C(=O)NC(C(=O)NC(C(=O)NC(C(=O)NC(C(=O)NC(C(=O)NC(C(=O)NC(C(=O)NC(C(=O)NC(C(=O)NC(C(=O)N7C(C(=O)NC(C(=O)NCC(=O)NC(C(=O)NC(C(=O)NC(C(=O)NC(C(=O)NC(C(=O)NC(C(=O)NC(C(=O)NC(C(=O)NC(C(=O)NC(C(=O)NC(C(=O)NC(C(=O)NC(C(=O)N8C(C(=O)NCC(=O)NC(C(=O)NC(C(=O)NC(C(=O)NC(C(=O)NC(C(=O)NC(C(=O)NC(C(=O)NC(C(=O)NC(C(=O)NC(C(=O)NC(C(=O)NC(C(=O)NC(C(=O)NC(C(=O)NC(C(=O)NC(C(=O)NC(C(=O)NC(C(=O)NC(C(=O)NC(C(=O)N9C(C(=O)NCC(=O)NC(C(=O)NC(C(=O)NC(C(=O)NC(C(=O)NC(C(=O)NC(C(=O)NC(C(=O)NC(C(=O)NC(C(=O)NC(C(=O)NC(C(=O)NCC(=O)NC(C(=O)NC(C(=O)NC(C(=O)NC(C(=O)NCC(=O)NC(C(=O)NC(C(=O)NC(C(=O)NCC(=O)NC(C(=O)NCC(=O)NC(C(=O)NC(C(=O)NC(C(=O)NC(C(=O)NC(C(=O)NC(C(=O)N%10C(C(=O)NC(C(=O)NC(C(=O)NC(C(=O)N%11C(C(=O)NC(C(=O)NC(C(=O)NC(C(=O)NC(C(=O)NC(C(=O)NC(C(=O)NC(C(=O)NCC(=O)NC(C(=O)NC(C(=O)NC(C(=O)NCC(=O)NC(C(=O)NC(C(=O)NC(C(=O)NC(C(=O)N%12C(C(=O)NC(C(=O)NCC(=O)NC(C(=O)NC(C(=O)NC(C(=O)NC(C(=O)NC)CC(=O)N)Cc%13ccc(O)cc%13)CO)CCCNC(=[NH2+])N)CC(=O)[O-])CCC%12)Cc%12ccc(O)cc%12)CC(C)C)Cc%12ccc(O)cc%12)Cc%12ccccc%12)CCC(=O)[O-])C)CO)CC(=O)[O-])C(CC)C)CC(C)C)C)CCC(=O)N)Cc%12ccccc%12)CC(C)C)CCC%11)CCCC[NH3+])CC(=O)N)Cc%11[nH]cnc%11)CCC%10)C(CC)C)C(O)C)CCC(=O)N)CC(C)C)C(CC)C)CC(=O)N)CC(=O)[O-])C(O)C)C(C)C)Cc%10ccc(O)cc%10)C(CC)C)C)Cc%10c%11c([nH]c%10)cccc%11)CCC(=O)N)CC(C)C)CCCNC(=[NH2+])N)C(O)C)CS)CO)CC(C)C)CCCNC(=[NH2+])N)Cc%10ccccc%10)C(CC)C)Cc%10ccc(O)cc%10)CO)CCC9)CCCC[NH3+])C(O)C)CO)Cc9ccc(O)cc9)CCCC[NH3+])CCC(=O)N)CC(C)C)CCCNC(=[NH2+])N)C)CCCC[NH3+])C(C)C)CCC(=O)[O-])CC(=O)[O-])Cc9ccc(O)cc9)C(O)C)CC(C)C)Cc9ccccc9)C)CCSC)Cc9ccc(O)cc9)CCC8)Cc8nc[nH]c8)C(O)C)C(C)C)C)CC(C)C)Cc8ccccc8)CC(=O)N)Cc8c9c([nH]c8)cccc9)CC(=O)N)CCCNC(=[NH2+])N)CC(C)C)C(CC)C)CO)Cc8c9c([nH]c8)cccc9)CCC7)CCC(=O)N)Cc7ccccc7)CC(C)C)CCCNC(=[NH2+])N)C(O)C)Cc7ccccc7)C(CC)C)CC(=O)[O-])Cc7ccccc7)CCC(=O)[O-])Cc7ccccc7)C(C)C)CO)C(CC)C)Cc7ccc(O)cc7)CC(=O)[O-])CC(=O)N)CS)C(O)C)CC(C)C)CC(=O)[O-])C(CC)C)C(O)C)CO)CCCC[NH3+])CC(C)C)C)CCSC)C)CCC(=O)[O-])CC(C)C)CO)CO)C(CC)C)CCC(=O)N)Cc7nc[nH]c7)C(C)C)CCC(=O)[O-])Cc7nc[nH]c7)CC(C)C)CS)CCC(=O)N)CCCNC(=[NH2+])N)Cc7ccccc7)C(C)C)CCCC[NH3+])Cc7c8c([nH]c7)cccc8)CCC6)C(C)C)C(CC)C)C(O)C)CCCC[NH3+])CC(=O)[O-])Cc6ccccc6)Cc6ccccc6)CCCC[NH3+])CCCNC(=[NH2+])N)Cc6c7c([nH]c6)cccc7)Cc6ccccc6)CCC(=O)[O-])C)C)CC(=O)[O-])C)CCCC[NH3+])C(O)C)C(CC)C)CCCNC(=[NH2+])N)Cc6ccccc6)CC(=O)N)CC(=O)[O-])CCC(=O)N)Cc6ccccc6)CCC(=O)N)CC(=O)N)CCC5)Cc5ccccc5)C(CC)C)C)CCCC[NH3+])C(CC)C)CCC(=O)[O-])C)CC(C)C)CCSC)Cc5nc[nH]c5)CO)Cc5ccccc5)C(CC)C)CC(C)C)CO)CC(C)C)CCCC[NH3+])C(O)C)CC(C)C)CC(=O)N)CCCNC(=[NH2+])N)CCCNC(=[NH2+])N)CC(=O)[O-])CCC(=O)N)CO)CCC(=O)N)CCC(=O)[O-])CCC(=O)[O-])Cc5ccc(O)cc5)CCSC)CCCNC(=[NH2+])N)CCC(=O)[O-])CCCC[NH3+])CCC(=O)[O-])CCCC[NH3+])Cc5ccccc5)CC(C)C)CCCNC(=[NH2+])N)C(CC)C)C)CCCNC(=[NH2+])N)CCCC[NH3+])CO)CCCC[NH3+])CCCC[NH3+])CCSC)CC(C)C)CO)CC(=O)[O-])C(CC)C)Cc5ccc(O)cc5)C(CC)C)CCCC[NH3+])Cc5ccccc5)Cc5ccc(O)cc5)CCC(=O)[O-])CC(=O)N)CCC(=O)[O-])CO)CC(C)C)CCC(=O)N)C)CC(C)C)CCCC[NH3+])CCC(=O)N)CC(=O)N)CC(=O)[O-])CC(=O)[O-])Cc5ccc(O)cc5)CCCC[NH3+])CO)CC(C)C)C(CC)C)CC(C)C)CCCNC(=[NH2+])N)CC(C)C)Cc5nc[nH]c5)CCC(=O)N)Cc5ccc(O)cc5)C(O)C)CC(=O)[O-])CCC4)CC(C)C)C(CC)C)CC(=O)[O-])CC(C)C)C(CC)C)Cc4ccc(O)cc4)CCC3)CCC2)CO)CC(=O)N)CCCC[NH3+])CC(C)C)CCC(=O)N)CC(C)C)CCCC[NH3+])CCC1)CC(=O)N)CCC(=O)N)CS)CC(C)C)CCCNC(=[NH2+])N)C(C)C)C(C)C)C)CC(=O)[O-])C.OCCO.[UH+3].[Zn+2].[Zn+2].O.O.O.O.O.O.O.O.O.O.O.O.O.O.O.O.O.O.O.O.O.O.O.O.O.O.O.O.O.O.O.O.O.O.O.O.O.O.O.O.O.O.O.O.O.O.O.O.O.O.O.O.O.O.O.O.O.O.O.O.O.O.O.O.O.O.O.O.O.O.O.O.O.O.O.O.O.O.O.O.O.O.O.O.O.O.O.O.O.O.O.O.O.O.O.O.O.O.O.O.O.O.O.O.O.O.O.O.O.O.O.O.O.O.O.O.O.O.O.O.O.O.O.O.O.O.O.O.O.O.O.O.O.O.O.O.O.O.O.O.O.O

>  <rseq>
1

>  <mseq>
89

>  <S>
-5.640161

>  <rmsd_refine>
1.1983401

>  <E_conf>
-85.365456

>  <E_place>
-56.511147

>  <E_score1>
-14.630704

>  <E_refine>
-20.797394

>  <E_score2>
-5.640161

>  <Field_2>
UD09

>  <pseq>
89

>  <%C>
99.950027

>  <a_heavy>
14

>  <h_logP>
-0.13822186

>  <Weight>
214.245

>  <E_orig>
1.2

>  <PLIF_raw>
[21,6345,220688,6,2]

>  <FP:PLIF>
3 5

>  <PLIF_ligidx>
[21,21]

$$$$

  MOE2020           3D

 29 31  0  0  0  0  0  0  0  0999 V2000
    5.3570    5.0900   14.6340 C   0  0  0  0  0  0  0  0  0  0  0  0
    4.8140    4.6630   13.8030 H   0  0  0  0  0  0  0  0  0  0  0  0
    5.9170    5.9810   14.3880 H   0  0  0  0  0  0  0  0  0  0  0  0
    5.9450    4.1540   15.6430 C   0  0  0  0  0  0  0  0  0  0  0  0
    6.9170    4.3980   16.0470 H   0  0  0  0  0  0  0  0  0  0  0  0
    5.7880    3.0940   15.5090 H   0  0  0  0  0  0  0  0  0  0  0  0
    4.7460    4.9940   16.0030 C   0  0  0  0  0  0  0  0  0  0  0  0
    3.8250    4.4380   16.0920 H   0  0  0  0  0  0  0  0  0  0  0  0
    4.8440    6.1220   16.9360 N   0  0  0  0  0  0  0  0  0  0  0  0
    3.7390    6.4780   17.6590 C   0  0  0  0  0  0  0  0  0  0  0  0
    3.1510    7.2370   17.2090 H   0  0  0  0  0  0  0  0  0  0  0  0
    3.4740    5.9360   18.8900 C   0  0  0  0  0  0  0  0  0  0  0  0
    4.2060    4.7710   19.3710 C   0  0  0  0  0  0  0  0  0  0  0  0
    3.6660    3.7810   19.8520 O   0  0  0  0  0  0  0  0  0  0  0  0
    5.5890    4.6830   19.2920 N   0  0  0  0  0  0  0  0  0  0  0  0
    6.0210    3.8770   19.7690 H   0  0  0  0  0  0  0  0  0  0  0  0
    6.4550    5.6430   18.7000 C   0  0  0  0  0  0  0  0  0  0  0  0
    7.7100    5.8490   19.2590 C   0  0  0  0  0  0  0  0  0  0  0  0
    8.0260    5.2840   20.0970 H   0  0  0  0  0  0  0  0  0  0  0  0
    8.5440    6.8270   18.7160 C   0  0  0  0  0  0  0  0  0  0  0  0
    9.4940    7.0040   19.1340 H   0  0  0  0  0  0  0  0  0  0  0  0
    8.1370    7.5870   17.6260 C   0  0  0  0  0  0  0  0  0  0  0  0
    8.7770    8.3360   17.2440 H   0  0  0  0  0  0  0  0  0  0  0  0
    6.9000    7.3570   17.0400 C   0  0  0  0  0  0  0  0  0  0  0  0
    6.5840    7.9240   16.2060 H   0  0  0  0  0  0  0  0  0  0  0  0
    6.0750    6.3730   17.5660 C   0  0  0  0  0  0  0  0  0  0  0  0
    2.4270    6.5100   19.7230 C   0  0  0  0  0  0  0  0  0  0  0  0
    1.9110    7.6150   19.3920 O   0  5  0  0  0  0  0  0  0  0  0  0
    2.0400    5.9360   20.7720 O   0  0  0  0  0  0  0  0  0  0  0  0
  1  2  1  0  0  0  0
  1  3  1  0  0  0  0
  1  4  1  0  0  0  0
  1  7  1  0  0  0  0
  4  5  1  0  0  0  0
  4  6  1  0  0  0  0
  4  7  1  0  0  0  0
  7  8  1  0  0  0  0
  7  9  1  0  0  0  0
  9 10  1  0  0  0  0
  9 26  1  0  0  0  0
 10 11  1  0  0  0  0
 10 12  2  0  0  0  0
 12 13  1  0  0  0  0
 12 27  1  0  0  0  0
 13 14  2  0  0  0  0
 13 15  1  0  0  0  0
 15 16  1  0  0  0  0
 15 17  1  0  0  0  0
 17 18  1  0  0  0  0
 17 26  2  0  0  0  0
 18 19  1  0  0  0  0
 18 20  2  0  0  0  0
 20 21  1  0  0  0  0
 20 22  1  0  0  0  0
 22 23  1  0  0  0  0
 22 24  2  0  0  0  0
 24 25  1  0  0  0  0
 24 26  1  0  0  0  0
 27 28  1  0  0  0  0
 27 29  2  0  0  0  0
M  CHG  1  28  -1
M  END
>  <receptor>
S(=O)(=O)([O-])[O-].S(CCC(NC(=O)C(NC(=O)C(NC(=O)CNC(=O)C(NC(=O)C1N(C(=O)C(NC(=O)C(NC(=O)C(NC(=O)C(NC(=O)C(NC(=O)C(NC(=O)C(NC(=O)C(NC(=O)C(NC(=O)C(NC(=O)C(NC(=O)C(NC(=O)C(NC(=O)C(NC(=O)C(NC(=O)C(NC(=O)C(NC(=O)C(NC(=O)C(NC(=O)CNC(=O)C(NC(=O)C(NC(=O)C(NC(=O)C(NC(=O)C(NC(=O)C(NC(=O)C(NC(=O)C(NC(=O)C(NC(=O)C(NC(=O)C(NC(=O)C(NC(=O)C(NC(=O)C)CCCC[NH3+])C(C)C)C(O)C)CCC(=O)N)CCC(=O)[O-])CCC(=O)N)Cc2ccccc2)CCC(=O)[O-])CC(C)C)Cc2ccc(O)cc2)CS)CCC(=O)[O-])CCSC)CO)C(O)C)Cc2ccccc2)CCC(=O)N)CC(C)C)C[S-])CCCC[NH3+])C(CC)C)C[S-])C)CCC(=O)[O-])CC(=O)N)CC(=O)[O-])CCCC[NH3+])CC(=O)[O-])C(C)C)CCCC[NH3+])C(CC)C)CCC(=O)[O-])CCC1)C[S-])Cc1nc[n-]c1)CC(C)C)C(=O)NC(C(=O)NC(C(=O)NC(C(=O)NC(C(=O)NC(C(=O)NC(C(=O)NC(C(=O)NC(C(=O)NC(C(=O)NC(C(=O)NC(C(=O)NC(C(=O)NCC(=O)NC(C(=O)NCC(=O)NC(C(=O)N1C(C(=O)NC(C(=O)NC(C(=O)NC(C(=O)NC(C(=O)NC(C(=O)NC(C(=O)NC(C(=O)NCC(=O)NC(C(=O)NC(C(=O)N2C(C(=O)NC(C(=O)NC(C(=O)NC(C(=O)NC(C(=O)N3C(C(=O)NC(C(=O)NC(C(=O)[O-])CC(=O)[O-])Cc4ccccc4)CCC3)CC(=O)[O-])C(C)C)C(CC)C)C(CC)C)CCC2)CCC(=O)[O-])C(O)C)CCCC[NH3+])C(CC)C)CCC(=O)[O-])CS)CCCNC(=[NH2+])N)C[S-])Cc2ccccc2)CCC1)C[S-])CCC(=O)N)CC(=O)[O-])CO)CCC(=O)[O-])CCC(=O)N)Cc1c2c([nH]c1)cccc2)C)C(O)C)CC(C)C)C[S-])CO)C(O)C)C[S-])C.S(CCC(NC(=O)C(NC(=O)C(NC(=O)C(NC(=O)C(NC(=O)C(NC(=O)C(NC(=O)C(NC(=O)C(NC(=O)C(NC(=O)C(NC(=O)C(NC(=O)C(NC(=O)C(NC(=O)C(NC(=O)C(NC(=O)C[NH3+])CCC(=O)N)C)C)C)CC(=O)[O-])CCCNC(=[NH2+])N)CCCNC(=[NH2+])N)C(O)C)C(C)C)CCC(=O)[O-])CCCC[NH3+])C(O)C)Cc1c2c([nH]c1)cccc2)C)CC(C)C)C(=O)NC(C(=O)NC(C(=O)NC(C(=O)NC(C(=O)NC(C(=O)NC(C(=O)NC(C(=O)NC(C(=O)NC(C(=O)N1C(C(=O)NC(C(=O)NC(C(=O)NC(C(=O)NC(C(=O)NC(C(=O)NC(C(=O)NC(C(=O)N2C(C(=O)N3C(C(=O)NC(C(=O)NC(C(=O)NC(C(=O)NC(C(=O)NC(C(=O)NC(C(=O)N4C(C(=O)NC(C(=O)NC(C(=O)NC(C(=O)NC(C(=O)NC(C(=O)NC(C(=O)NC(C(=O)NC(C(=O)NC(C(=O)NC(C(=O)NC(C(=O)NC(C(=O)NC(C(=O)NC(C(=O)NC(C(=O)NC(C(=O)NC(C(=O)NC(C(=O)NC(C(=O)NC(C(=O)NC(C(=O)NC(C(=O)NC(C(=O)NC(C(=O)NC(C(=O)NC(C(=O)NC(C(=O)NC(C(=O)NC(C(=O)NC(C(=O)NC(C(=O)NC(C(=O)NC(C(=O)NC(C(=O)NC(C(=O)NC(C(=O)NC(C(=O)NC(C(=O)NC(C(=O)NC(C(=O)NC(C(=O)NC(C(=O)NC(C(=O)NC(C(=O)NC(C(=O)NC(C(=O)NC(C(=O)NC(C(=O)NCC(=O)NC(C(=O)NC(C(=O)NC(C(=O)NC(C(=O)NC(C(=O)NC(C(=O)NC(C(=O)NC(C(=O)NC(C(=O)NC(C(=O)NC(C(=O)NC(C(=O)NC(C(=O)NC(C(=O)NC(C(=O)NC(C(=O)NC(C(=O)NC(C(=O)NC(C(=O)NC(C(=O)NC(C(=O)NC(C(=O)NC(C(=O)NC(C(=O)NC(C(=O)NC(C(=O)NC(C(=O)NC(C(=O)NC(C(=O)NC(C(=O)NC(C(=O)NC(C(=O)NC(C(=O)N5C(C(=O)NC(C(=O)NCC(=O)NC(C(=O)NC(C(=O)NC(C(=O)NCC(=O)NC(C(=O)NC(C(=O)NC(C(=O)NC(C(=O)NC(C(=O)NC(C(=O)NC(C(=O)NC(C(=O)NC(C(=O)NC(C(=O)NC(C(=O)NC(C(=O)NC(C(=O)NC(C(=O)NC(C(=O)NC(C(=O)NC(C(=O)NC(C(=O)NCC(=O)NC(C(=O)NC(C(=O)NC(C(=O)NC(C(=O)NC(C(=O)N6C(C(=O)NC(C(=O)NC(C(=O)NC(C(=O)NC(C(=O)NC(C(=O)NC(C(=O)NC(C(=O)NC(C(=O)NC(C(=O)NC(C(=O)NC(C(=O)NC(C(=O)NC(C(=O)NC(C(=O)NC(C(=O)NC(C(=O)NCC(=O)NC(C(=O)NC(C(=O)NC(C(=O)NC(C(=O)NC(C(=O)NC(C(=O)NC(C(=O)NC(C(=O)NC(C(=O)NC(C(=O)NC(C(=O)NC(C(=O)NC(C(=O)NC(C(=O)NC(C(=O)NC(C(=O)NC(C(=O)NC(C(=O)NC(C(=O)NC(C(=O)NC(C(=O)NC(C(=O)NC(C(=O)NC(C(=O)NC(C(=O)NC(C(=O)NC(C(=O)NC(C(=O)NC(C(=O)NC(C(=O)NC(C(=O)N7C(C(=O)NC(C(=O)NCC(=O)NC(C(=O)NC(C(=O)NC(C(=O)NC(C(=O)NC(C(=O)NC(C(=O)NC(C(=O)NC(C(=O)NC(C(=O)NC(C(=O)NC(C(=O)NC(C(=O)NC(C(=O)N8C(C(=O)NCC(=O)NC(C(=O)NC(C(=O)NC(C(=O)NC(C(=O)NC(C(=O)NC(C(=O)NC(C(=O)NC(C(=O)NC(C(=O)NC(C(=O)NC(C(=O)NC(C(=O)NC(C(=O)NC(C(=O)NC(C(=O)NC(C(=O)NC(C(=O)NC(C(=O)NC(C(=O)NC(C(=O)N9C(C(=O)NCC(=O)NC(C(=O)NC(C(=O)NC(C(=O)NC(C(=O)NC(C(=O)NC(C(=O)NC(C(=O)NC(C(=O)NC(C(=O)NC(C(=O)NC(C(=O)NCC(=O)NC(C(=O)NC(C(=O)NC(C(=O)NC(C(=O)NCC(=O)NC(C(=O)NC(C(=O)NC(C(=O)NCC(=O)NC(C(=O)NCC(=O)NC(C(=O)NC(C(=O)NC(C(=O)NC(C(=O)NC(C(=O)NC(C(=O)N%10C(C(=O)NC(C(=O)NC(C(=O)NC(C(=O)N%11C(C(=O)NC(C(=O)NC(C(=O)NC(C(=O)NC(C(=O)NC(C(=O)NC(C(=O)NC(C(=O)NCC(=O)NC(C(=O)NC(C(=O)NC(C(=O)NCC(=O)NC(C(=O)NC(C(=O)NC(C(=O)NC(C(=O)N%12C(C(=O)NC(C(=O)NCC(=O)NC(C(=O)NC(C(=O)NC(C(=O)NC(C(=O)NC)CC(=O)N)Cc%13ccc(O)cc%13)CO)CCCNC(=[NH2+])N)CC(=O)[O-])CCC%12)Cc%12ccc(O)cc%12)CC(C)C)Cc%12ccc(O)cc%12)Cc%12ccccc%12)CCC(=O)[O-])C)CO)CC(=O)[O-])C(CC)C)CC(C)C)C)CCC(=O)N)Cc%12ccccc%12)CC(C)C)CCC%11)CCCC[NH3+])CC(=O)N)Cc%11[nH]cnc%11)CCC%10)C(CC)C)C(O)C)CCC(=O)N)CC(C)C)C(CC)C)CC(=O)N)CC(=O)[O-])C(O)C)C(C)C)Cc%10ccc(O)cc%10)C(CC)C)C)Cc%10c%11c([nH]c%10)cccc%11)CCC(=O)N)CC(C)C)CCCNC(=[NH2+])N)C(O)C)CS)CO)CC(C)C)CCCNC(=[NH2+])N)Cc%10ccccc%10)C(CC)C)Cc%10ccc(O)cc%10)CO)CCC9)CCCC[NH3+])C(O)C)CO)Cc9ccc(O)cc9)CCCC[NH3+])CCC(=O)N)CC(C)C)CCCNC(=[NH2+])N)C)CCCC[NH3+])C(C)C)CCC(=O)[O-])CC(=O)[O-])Cc9ccc(O)cc9)C(O)C)CC(C)C)Cc9ccccc9)C)CCSC)Cc9ccc(O)cc9)CCC8)Cc8nc[nH]c8)C(O)C)C(C)C)C)CC(C)C)Cc8ccccc8)CC(=O)N)Cc8c9c([nH]c8)cccc9)CC(=O)N)CCCNC(=[NH2+])N)CC(C)C)C(CC)C)CO)Cc8c9c([nH]c8)cccc9)CCC7)CCC(=O)N)Cc7ccccc7)CC(C)C)CCCNC(=[NH2+])N)C(O)C)Cc7ccccc7)C(CC)C)CC(=O)[O-])Cc7ccccc7)CCC(=O)[O-])Cc7ccccc7)C(C)C)CO)C(CC)C)Cc7ccc(O)cc7)CC(=O)[O-])CC(=O)N)CS)C(O)C)CC(C)C)CC(=O)[O-])C(CC)C)C(O)C)CO)CCCC[NH3+])CC(C)C)C)CCSC)C)CCC(=O)[O-])CC(C)C)CO)CO)C(CC)C)CCC(=O)N)Cc7nc[nH]c7)C(C)C)CCC(=O)[O-])Cc7nc[nH]c7)CC(C)C)CS)CCC(=O)N)CCCNC(=[NH2+])N)Cc7ccccc7)C(C)C)CCCC[NH3+])Cc7c8c([nH]c7)cccc8)CCC6)C(C)C)C(CC)C)C(O)C)CCCC[NH3+])CC(=O)[O-])Cc6ccccc6)Cc6ccccc6)CCCC[NH3+])CCCNC(=[NH2+])N)Cc6c7c([nH]c6)cccc7)Cc6ccccc6)CCC(=O)[O-])C)C)CC(=O)[O-])C)CCCC[NH3+])C(O)C)C(CC)C)CCCNC(=[NH2+])N)Cc6ccccc6)CC(=O)N)CC(=O)[O-])CCC(=O)N)Cc6ccccc6)CCC(=O)N)CC(=O)N)CCC5)Cc5ccccc5)C(CC)C)C)CCCC[NH3+])C(CC)C)CCC(=O)[O-])C)CC(C)C)CCSC)Cc5nc[nH]c5)CO)Cc5ccccc5)C(CC)C)CC(C)C)CO)CC(C)C)CCCC[NH3+])C(O)C)CC(C)C)CC(=O)N)CCCNC(=[NH2+])N)CCCNC(=[NH2+])N)CC(=O)[O-])CCC(=O)N)CO)CCC(=O)N)CCC(=O)[O-])CCC(=O)[O-])Cc5ccc(O)cc5)CCSC)CCCNC(=[NH2+])N)CCC(=O)[O-])CCCC[NH3+])CCC(=O)[O-])CCCC[NH3+])Cc5ccccc5)CC(C)C)CCCNC(=[NH2+])N)C(CC)C)C)CCCNC(=[NH2+])N)CCCC[NH3+])CO)CCCC[NH3+])CCCC[NH3+])CCSC)CC(C)C)CO)CC(=O)[O-])C(CC)C)Cc5ccc(O)cc5)C(CC)C)CCCC[NH3+])Cc5ccccc5)Cc5ccc(O)cc5)CCC(=O)[O-])CC(=O)N)CCC(=O)[O-])CO)CC(C)C)CCC(=O)N)C)CC(C)C)CCCC[NH3+])CCC(=O)N)CC(=O)N)CC(=O)[O-])CC(=O)[O-])Cc5ccc(O)cc5)CCCC[NH3+])CO)CC(C)C)C(CC)C)CC(C)C)CCCNC(=[NH2+])N)CC(C)C)Cc5nc[nH]c5)CCC(=O)N)Cc5ccc(O)cc5)C(O)C)CC(=O)[O-])CCC4)CC(C)C)C(CC)C)CC(=O)[O-])CC(C)C)C(CC)C)Cc4ccc(O)cc4)CCC3)CCC2)CO)CC(=O)N)CCCC[NH3+])CC(C)C)CCC(=O)N)CC(C)C)CCCC[NH3+])CCC1)CC(=O)N)CCC(=O)N)CS)CC(C)C)CCCNC(=[NH2+])N)C(C)C)C(C)C)C)CC(=O)[O-])C.OCCO.[UH+3].[Zn+2].[Zn+2].O.O.O.O.O.O.O.O.O.O.O.O.O.O.O.O.O.O.O.O.O.O.O.O.O.O.O.O.O.O.O.O.O.O.O.O.O.O.O.O.O.O.O.O.O.O.O.O.O.O.O.O.O.O.O.O.O.O.O.O.O.O.O.O.O.O.O.O.O.O.O.O.O.O.O.O.O.O.O.O.O.O.O.O.O.O.O.O.O.O.O.O.O.O.O.O.O.O.O.O.O.O.O.O.O.O.O.O.O.O.O.O.O.O.O.O.O.O.O.O.O.O.O.O.O.O.O.O.O.O.O.O.O.O.O.O.O.O.O.O.O.O

>  <rseq>
1

>  <mseq>
90

>  <S>
-6.317091

>  <rmsd_refine>
1.6261216

>  <E_conf>
9.5182419

>  <E_place>
-52.87355

>  <E_score1>
-13.279708

>  <E_refine>
-24.433016

>  <E_score2>
-6.317091

>  <Field_2>
UD10

>  <pseq>
90

>  <%C>
99.428291

>  <a_heavy>
18

>  <h_logP>
1.2838689

>  <Weight>
243.24199

>  <E_orig>
0

>  <PLIF_raw>
[15,3032,218,1,1.1]

>  <FP:PLIF>
46

>  <PLIF_ligidx>
15

$$$$

  MOE2020           3D

 41 43  0  0  1  0  0  0  0  0999 V2000
   -0.5260   12.0710   19.4220 C   0  0  2  0  0  0  0  0  0  0  0  0
    0.7320   11.1710   19.5860 C   0  0  2  0  0  0  0  0  0  0  0  0
    0.6920   11.3310   21.1570 C   0  0  3  0  0  0  0  0  0  0  0  0
   -0.6250   12.1680   20.9660 C   0  0  0  0  0  0  0  0  0  0  0  0
   -1.7420   11.6430   21.4990 F   0  0  0  0  0  0  0  0  0  0  0  0
   -0.5700   13.4400   21.4460 F   0  0  0  0  0  0  0  0  0  0  0  0
    1.7850   12.2110   21.6430 C   0  0  0  0  0  0  0  0  0  0  0  0
    2.6170   12.9060   21.9870 N   0  0  0  0  0  0  0  0  0  0  0  0
    0.5840    9.9730   21.9900 C   0  0  0  0  0  0  0  0  0  0  0  0
    1.9710    9.3140   22.1390 C   0  0  0  0  0  0  0  0  0  0  0  0
    1.8800    8.3490   22.6330 H   0  0  0  0  0  0  0  0  0  0  0  0
    2.6580    9.9210   22.7280 H   0  0  0  0  0  0  0  0  0  0  0  0
    2.4080    9.1230   21.1600 H   0  0  0  0  0  0  0  0  0  0  0  0
   -0.3070    8.9160   21.2970 C   0  0  0  0  0  0  0  0  0  0  0  0
   -0.6140    8.1340   21.9920 H   0  0  0  0  0  0  0  0  0  0  0  0
    0.2250    8.4270   20.4820 H   0  0  0  0  0  0  0  0  0  0  0  0
   -1.1980    9.3620   20.8730 H   0  0  0  0  0  0  0  0  0  0  0  0
    0.0190   10.2190   23.4100 C   0  0  0  0  0  0  0  0  0  0  0  0
    0.4650   11.0980   23.8620 H   0  0  0  0  0  0  0  0  0  0  0  0
    0.2130    9.3660   24.0610 H   0  0  0  0  0  0  0  0  0  0  0  0
   -1.0600   10.3620   23.4080 H   0  0  0  0  0  0  0  0  0  0  0  0
    1.9270   11.6330   18.8830 N   0  0  0  0  0  0  0  0  0  0  0  0
    2.7590   11.1870   19.2780 H   0  0  0  0  0  0  0  0  0  0  0  0
    2.0210   12.6460   18.9960 H   0  0  0  0  0  0  0  0  0  0  0  0
   -1.7230   11.3840   18.6260 B   0  5  0  0  0  0  0  0  0  0  0  0
   -1.4110   10.4650   17.9690 H   0  0  0  0  0  0  0  0  0  0  0  0
   -3.0530   12.0660   18.4330 C   0  0  0  0  0  0  0  0  0  0  0  0
   -3.5180   13.0500   19.3460 C   0  0  0  0  0  0  0  0  0  0  0  0
   -2.9580   13.3840   20.1780 H   0  0  0  0  0  0  0  0  0  0  0  0
   -4.7710   13.5740   19.0930 C   0  0  0  0  0  0  0  0  0  0  0  0
   -5.5530   13.2310   18.0250 C   0  0  0  0  0  0  0  0  0  0  0  0
   -5.2290   12.3380   17.0480 C   0  0  0  0  0  0  0  0  0  0  0  0
   -5.8350   12.1310   16.2090 H   0  0  0  0  0  0  0  0  0  0  0  0
   -3.9290   11.7470   17.2510 C   0  0  0  0  0  0  0  0  0  0  0  0
   -3.2220   10.4280   15.6880 I   0  3  0  0  0  0  0  0  0  0  0  0
   -6.5870   14.0820   18.3680 O   0  0  0  0  0  0  0  0  0  0  0  0
   -5.8290   14.5340   19.5450 C   0  0  0  0  0  0  0  0  0  0  0  0
   -5.5570   15.5810   19.5220 H   0  0  0  0  0  0  0  0  0  0  0  0
   -6.3010   14.3070   20.4920 H   0  0  0  0  0  0  0  0  0  0  0  0
   -0.2920   13.0250   18.9660 H   0  0  0  0  0  0  0  0  0  0  0  0
    0.5430   10.1630   19.2510 H   0  0  0  0  0  0  0  0  0  0  0  0
  1  2  1  0  0  0  0
  1  4  1  0  0  0  0
  1 25  1  0  0  0  0
  1 40  1  0  0  0  0
  2  3  1  0  0  0  0
  2 22  1  0  0  0  0
  2 41  1  0  0  0  0
  3  4  1  0  0  0  0
  3  7  1  0  0  0  0
  3  9  1  0  0  0  0
  4  5  1  0  0  0  0
  4  6  1  0  0  0  0
  7  8  3  0  0  0  0
  9 10  1  0  0  0  0
  9 14  1  0  0  0  0
  9 18  1  0  0  0  0
 10 11  1  0  0  0  0
 10 12  1  0  0  0  0
 10 13  1  0  0  0  0
 14 15  1  0  0  0  0
 14 16  1  0  0  0  0
 14 17  1  0  0  0  0
 18 19  1  0  0  0  0
 18 20  1  0  0  0  0
 18 21  1  0  0  0  0
 22 23  1  0  0  0  0
 22 24  1  0  0  0  0
 25 26  1  0  0  0  0
 25 27  2  0  0  0  0
 27 28  1  0  0  0  0
 27 34  1  0  0  0  0
 28 29  1  0  0  0  0
 28 30  2  0  0  0  0
 30 31  1  0  0  0  0
 30 37  1  0  0  0  0
 31 32  2  0  0  0  0
 31 36  1  0  0  0  0
 32 33  1  0  0  0  0
 32 34  1  0  0  0  0
 34 35  2  0  0  0  0
 36 37  1  0  0  0  0
 37 38  1  0  0  0  0
 37 39  1  0  0  0  0
M  CHG  1  25  -1
M  CHG  1  35   1
M  END
>  <receptor>
S(=O)(=O)([O-])[O-].S(CCC(NC(=O)C(NC(=O)C(NC(=O)CNC(=O)C(NC(=O)C1N(C(=O)C(NC(=O)C(NC(=O)C(NC(=O)C(NC(=O)C(NC(=O)C(NC(=O)C(NC(=O)C(NC(=O)C(NC(=O)C(NC(=O)C(NC(=O)C(NC(=O)C(NC(=O)C(NC(=O)C(NC(=O)C(NC(=O)C(NC(=O)C(NC(=O)C(NC(=O)CNC(=O)C(NC(=O)C(NC(=O)C(NC(=O)C(NC(=O)C(NC(=O)C(NC(=O)C(NC(=O)C(NC(=O)C(NC(=O)C(NC(=O)C(NC(=O)C(NC(=O)C(NC(=O)C)CCCC[NH3+])C(C)C)C(O)C)CCC(=O)N)CCC(=O)[O-])CCC(=O)N)Cc2ccccc2)CCC(=O)[O-])CC(C)C)Cc2ccc(O)cc2)CS)CCC(=O)[O-])CCSC)CO)C(O)C)Cc2ccccc2)CCC(=O)N)CC(C)C)C[S-])CCCC[NH3+])C(CC)C)C[S-])C)CCC(=O)[O-])CC(=O)N)CC(=O)[O-])CCCC[NH3+])CC(=O)[O-])C(C)C)CCCC[NH3+])C(CC)C)CCC(=O)[O-])CCC1)C[S-])Cc1nc[n-]c1)CC(C)C)C(=O)NC(C(=O)NC(C(=O)NC(C(=O)NC(C(=O)NC(C(=O)NC(C(=O)NC(C(=O)NC(C(=O)NC(C(=O)NC(C(=O)NC(C(=O)NC(C(=O)NCC(=O)NC(C(=O)NCC(=O)NC(C(=O)N1C(C(=O)NC(C(=O)NC(C(=O)NC(C(=O)NC(C(=O)NC(C(=O)NC(C(=O)NC(C(=O)NCC(=O)NC(C(=O)NC(C(=O)N2C(C(=O)NC(C(=O)NC(C(=O)NC(C(=O)NC(C(=O)N3C(C(=O)NC(C(=O)NC(C(=O)[O-])CC(=O)[O-])Cc4ccccc4)CCC3)CC(=O)[O-])C(C)C)C(CC)C)C(CC)C)CCC2)CCC(=O)[O-])C(O)C)CCCC[NH3+])C(CC)C)CCC(=O)[O-])CS)CCCNC(=[NH2+])N)C[S-])Cc2ccccc2)CCC1)C[S-])CCC(=O)N)CC(=O)[O-])CO)CCC(=O)[O-])CCC(=O)N)Cc1c2c([nH]c1)cccc2)C)C(O)C)CC(C)C)C[S-])CO)C(O)C)C[S-])C.S(CCC(NC(=O)C(NC(=O)C(NC(=O)C(NC(=O)C(NC(=O)C(NC(=O)C(NC(=O)C(NC(=O)C(NC(=O)C(NC(=O)C(NC(=O)C(NC(=O)C(NC(=O)C(NC(=O)C(NC(=O)C(NC(=O)C[NH3+])CCC(=O)N)C)C)C)CC(=O)[O-])CCCNC(=[NH2+])N)CCCNC(=[NH2+])N)C(O)C)C(C)C)CCC(=O)[O-])CCCC[NH3+])C(O)C)Cc1c2c([nH]c1)cccc2)C)CC(C)C)C(=O)NC(C(=O)NC(C(=O)NC(C(=O)NC(C(=O)NC(C(=O)NC(C(=O)NC(C(=O)NC(C(=O)NC(C(=O)N1C(C(=O)NC(C(=O)NC(C(=O)NC(C(=O)NC(C(=O)NC(C(=O)NC(C(=O)NC(C(=O)N2C(C(=O)N3C(C(=O)NC(C(=O)NC(C(=O)NC(C(=O)NC(C(=O)NC(C(=O)NC(C(=O)N4C(C(=O)NC(C(=O)NC(C(=O)NC(C(=O)NC(C(=O)NC(C(=O)NC(C(=O)NC(C(=O)NC(C(=O)NC(C(=O)NC(C(=O)NC(C(=O)NC(C(=O)NC(C(=O)NC(C(=O)NC(C(=O)NC(C(=O)NC(C(=O)NC(C(=O)NC(C(=O)NC(C(=O)NC(C(=O)NC(C(=O)NC(C(=O)NC(C(=O)NC(C(=O)NC(C(=O)NC(C(=O)NC(C(=O)NC(C(=O)NC(C(=O)NC(C(=O)NC(C(=O)NC(C(=O)NC(C(=O)NC(C(=O)NC(C(=O)NC(C(=O)NC(C(=O)NC(C(=O)NC(C(=O)NC(C(=O)NC(C(=O)NC(C(=O)NC(C(=O)NC(C(=O)NC(C(=O)NC(C(=O)NC(C(=O)NCC(=O)NC(C(=O)NC(C(=O)NC(C(=O)NC(C(=O)NC(C(=O)NC(C(=O)NC(C(=O)NC(C(=O)NC(C(=O)NC(C(=O)NC(C(=O)NC(C(=O)NC(C(=O)NC(C(=O)NC(C(=O)NC(C(=O)NC(C(=O)NC(C(=O)NC(C(=O)NC(C(=O)NC(C(=O)NC(C(=O)NC(C(=O)NC(C(=O)NC(C(=O)NC(C(=O)NC(C(=O)NC(C(=O)NC(C(=O)NC(C(=O)NC(C(=O)NC(C(=O)NC(C(=O)N5C(C(=O)NC(C(=O)NCC(=O)NC(C(=O)NC(C(=O)NC(C(=O)NCC(=O)NC(C(=O)NC(C(=O)NC(C(=O)NC(C(=O)NC(C(=O)NC(C(=O)NC(C(=O)NC(C(=O)NC(C(=O)NC(C(=O)NC(C(=O)NC(C(=O)NC(C(=O)NC(C(=O)NC(C(=O)NC(C(=O)NC(C(=O)NC(C(=O)NCC(=O)NC(C(=O)NC(C(=O)NC(C(=O)NC(C(=O)NC(C(=O)N6C(C(=O)NC(C(=O)NC(C(=O)NC(C(=O)NC(C(=O)NC(C(=O)NC(C(=O)NC(C(=O)NC(C(=O)NC(C(=O)NC(C(=O)NC(C(=O)NC(C(=O)NC(C(=O)NC(C(=O)NC(C(=O)NC(C(=O)NCC(=O)NC(C(=O)NC(C(=O)NC(C(=O)NC(C(=O)NC(C(=O)NC(C(=O)NC(C(=O)NC(C(=O)NC(C(=O)NC(C(=O)NC(C(=O)NC(C(=O)NC(C(=O)NC(C(=O)NC(C(=O)NC(C(=O)NC(C(=O)NC(C(=O)NC(C(=O)NC(C(=O)NC(C(=O)NC(C(=O)NC(C(=O)NC(C(=O)NC(C(=O)NC(C(=O)NC(C(=O)NC(C(=O)NC(C(=O)NC(C(=O)NC(C(=O)N7C(C(=O)NC(C(=O)NCC(=O)NC(C(=O)NC(C(=O)NC(C(=O)NC(C(=O)NC(C(=O)NC(C(=O)NC(C(=O)NC(C(=O)NC(C(=O)NC(C(=O)NC(C(=O)NC(C(=O)NC(C(=O)N8C(C(=O)NCC(=O)NC(C(=O)NC(C(=O)NC(C(=O)NC(C(=O)NC(C(=O)NC(C(=O)NC(C(=O)NC(C(=O)NC(C(=O)NC(C(=O)NC(C(=O)NC(C(=O)NC(C(=O)NC(C(=O)NC(C(=O)NC(C(=O)NC(C(=O)NC(C(=O)NC(C(=O)NC(C(=O)N9C(C(=O)NCC(=O)NC(C(=O)NC(C(=O)NC(C(=O)NC(C(=O)NC(C(=O)NC(C(=O)NC(C(=O)NC(C(=O)NC(C(=O)NC(C(=O)NC(C(=O)NCC(=O)NC(C(=O)NC(C(=O)NC(C(=O)NC(C(=O)NCC(=O)NC(C(=O)NC(C(=O)NC(C(=O)NCC(=O)NC(C(=O)NCC(=O)NC(C(=O)NC(C(=O)NC(C(=O)NC(C(=O)NC(C(=O)NC(C(=O)N%10C(C(=O)NC(C(=O)NC(C(=O)NC(C(=O)N%11C(C(=O)NC(C(=O)NC(C(=O)NC(C(=O)NC(C(=O)NC(C(=O)NC(C(=O)NC(C(=O)NCC(=O)NC(C(=O)NC(C(=O)NC(C(=O)NCC(=O)NC(C(=O)NC(C(=O)NC(C(=O)NC(C(=O)N%12C(C(=O)NC(C(=O)NCC(=O)NC(C(=O)NC(C(=O)NC(C(=O)NC(C(=O)NC)CC(=O)N)Cc%13ccc(O)cc%13)CO)CCCNC(=[NH2+])N)CC(=O)[O-])CCC%12)Cc%12ccc(O)cc%12)CC(C)C)Cc%12ccc(O)cc%12)Cc%12ccccc%12)CCC(=O)[O-])C)CO)CC(=O)[O-])C(CC)C)CC(C)C)C)CCC(=O)N)Cc%12ccccc%12)CC(C)C)CCC%11)CCCC[NH3+])CC(=O)N)Cc%11[nH]cnc%11)CCC%10)C(CC)C)C(O)C)CCC(=O)N)CC(C)C)C(CC)C)CC(=O)N)CC(=O)[O-])C(O)C)C(C)C)Cc%10ccc(O)cc%10)C(CC)C)C)Cc%10c%11c([nH]c%10)cccc%11)CCC(=O)N)CC(C)C)CCCNC(=[NH2+])N)C(O)C)CS)CO)CC(C)C)CCCNC(=[NH2+])N)Cc%10ccccc%10)C(CC)C)Cc%10ccc(O)cc%10)CO)CCC9)CCCC[NH3+])C(O)C)CO)Cc9ccc(O)cc9)CCCC[NH3+])CCC(=O)N)CC(C)C)CCCNC(=[NH2+])N)C)CCCC[NH3+])C(C)C)CCC(=O)[O-])CC(=O)[O-])Cc9ccc(O)cc9)C(O)C)CC(C)C)Cc9ccccc9)C)CCSC)Cc9ccc(O)cc9)CCC8)Cc8nc[nH]c8)C(O)C)C(C)C)C)CC(C)C)Cc8ccccc8)CC(=O)N)Cc8c9c([nH]c8)cccc9)CC(=O)N)CCCNC(=[NH2+])N)CC(C)C)C(CC)C)CO)Cc8c9c([nH]c8)cccc9)CCC7)CCC(=O)N)Cc7ccccc7)CC(C)C)CCCNC(=[NH2+])N)C(O)C)Cc7ccccc7)C(CC)C)CC(=O)[O-])Cc7ccccc7)CCC(=O)[O-])Cc7ccccc7)C(C)C)CO)C(CC)C)Cc7ccc(O)cc7)CC(=O)[O-])CC(=O)N)CS)C(O)C)CC(C)C)CC(=O)[O-])C(CC)C)C(O)C)CO)CCCC[NH3+])CC(C)C)C)CCSC)C)CCC(=O)[O-])CC(C)C)CO)CO)C(CC)C)CCC(=O)N)Cc7nc[nH]c7)C(C)C)CCC(=O)[O-])Cc7nc[nH]c7)CC(C)C)CS)CCC(=O)N)CCCNC(=[NH2+])N)Cc7ccccc7)C(C)C)CCCC[NH3+])Cc7c8c([nH]c7)cccc8)CCC6)C(C)C)C(CC)C)C(O)C)CCCC[NH3+])CC(=O)[O-])Cc6ccccc6)Cc6ccccc6)CCCC[NH3+])CCCNC(=[NH2+])N)Cc6c7c([nH]c6)cccc7)Cc6ccccc6)CCC(=O)[O-])C)C)CC(=O)[O-])C)CCCC[NH3+])C(O)C)C(CC)C)CCCNC(=[NH2+])N)Cc6ccccc6)CC(=O)N)CC(=O)[O-])CCC(=O)N)Cc6ccccc6)CCC(=O)N)CC(=O)N)CCC5)Cc5ccccc5)C(CC)C)C)CCCC[NH3+])C(CC)C)CCC(=O)[O-])C)CC(C)C)CCSC)Cc5nc[nH]c5)CO)Cc5ccccc5)C(CC)C)CC(C)C)CO)CC(C)C)CCCC[NH3+])C(O)C)CC(C)C)CC(=O)N)CCCNC(=[NH2+])N)CCCNC(=[NH2+])N)CC(=O)[O-])CCC(=O)N)CO)CCC(=O)N)CCC(=O)[O-])CCC(=O)[O-])Cc5ccc(O)cc5)CCSC)CCCNC(=[NH2+])N)CCC(=O)[O-])CCCC[NH3+])CCC(=O)[O-])CCCC[NH3+])Cc5ccccc5)CC(C)C)CCCNC(=[NH2+])N)C(CC)C)C)CCCNC(=[NH2+])N)CCCC[NH3+])CO)CCCC[NH3+])CCCC[NH3+])CCSC)CC(C)C)CO)CC(=O)[O-])C(CC)C)Cc5ccc(O)cc5)C(CC)C)CCCC[NH3+])Cc5ccccc5)Cc5ccc(O)cc5)CCC(=O)[O-])CC(=O)N)CCC(=O)[O-])CO)CC(C)C)CCC(=O)N)C)CC(C)C)CCCC[NH3+])CCC(=O)N)CC(=O)N)CC(=O)[O-])CC(=O)[O-])Cc5ccc(O)cc5)CCCC[NH3+])CO)CC(C)C)C(CC)C)CC(C)C)CCCNC(=[NH2+])N)CC(C)C)Cc5nc[nH]c5)CCC(=O)N)Cc5ccc(O)cc5)C(O)C)CC(=O)[O-])CCC4)CC(C)C)C(CC)C)CC(=O)[O-])CC(C)C)C(CC)C)Cc4ccc(O)cc4)CCC3)CCC2)CO)CC(=O)N)CCCC[NH3+])CC(C)C)CCC(=O)N)CC(C)C)CCCC[NH3+])CCC1)CC(=O)N)CCC(=O)N)CS)CC(C)C)CCCNC(=[NH2+])N)C(C)C)C(C)C)C)CC(=O)[O-])C.OCCO.[UH+3].[Zn+2].[Zn+2].O.O.O.O.O.O.O.O.O.O.O.O.O.O.O.O.O.O.O.O.O.O.O.O.O.O.O.O.O.O.O.O.O.O.O.O.O.O.O.O.O.O.O.O.O.O.O.O.O.O.O.O.O.O.O.O.O.O.O.O.O.O.O.O.O.O.O.O.O.O.O.O.O.O.O.O.O.O.O.O.O.O.O.O.O.O.O.O.O.O.O.O.O.O.O.O.O.O.O.O.O.O.O.O.O.O.O.O.O.O.O.O.O.O.O.O.O.O.O.O.O.O.O.O.O.O.O.O.O.O.O.O.O.O.O.O.O.O.O.O.O.O

>  <rseq>
1

>  <mseq>
91

>  <S>
-5.794559

>  <rmsd_refine>
1.9007639

>  <E_conf>
66.509529

>  <E_place>
-44.180256

>  <E_score1>
-16.437675

>  <E_refine>
-23.678791

>  <E_score2>
-5.794559

>  <Field_2>
VN01

>  <pseq>
91

>  <%C>
100

>  <a_heavy>
23

>  <h_logP>
3.8575234

>  <Weight>
430.04401

>  <E_orig>
0

>  <PLIF_raw>
[[22,32,35,8,35],[5184,549,4205,1777,3851],[366,71,289,141,268],[1,3,1,2,7],[1,0.9,1.1,3.1,0.7519983349]]

>  <FP:PLIF>
42 18 19 12 36 8

>  <PLIF_ligidx>
[32,8,8,35,35,22]

$$$$

  MOE2020           3D

 40 42  0  0  1  0  0  0  0  0999 V2000
    1.2500   10.1970   20.3140 C   0  0  2  0  0  0  0  0  0  0  0  0
   -0.1950   10.3190   20.8840 C   0  0  2  0  0  0  0  0  0  0  0  0
   -0.3290   11.7730   20.2540 C   0  0  3  0  0  0  0  0  0  0  0  0
    1.2420   11.7460   20.1490 C   0  0  0  0  0  0  0  0  0  0  0  0
    1.9300   12.3650   21.1370 F   0  0  0  0  0  0  0  0  0  0  0  0
    1.7600   12.2270   18.9930 F   0  0  0  0  0  0  0  0  0  0  0  0
   -0.9530   11.6030   18.9110 C   0  0  0  0  0  0  0  0  0  0  0  0
   -1.4450   11.4570   17.8970 N   0  0  0  0  0  0  0  0  0  0  0  0
   -1.0300   13.0180   20.9910 C   0  0  0  0  0  0  0  0  0  0  0  0
   -2.5090   12.6840   21.2950 C   0  0  0  0  0  0  0  0  0  0  0  0
   -3.0290   13.5520   21.7030 H   0  0  0  0  0  0  0  0  0  0  0  0
   -2.5890   11.8850   22.0310 H   0  0  0  0  0  0  0  0  0  0  0  0
   -3.0490   12.3850   20.3970 H   0  0  0  0  0  0  0  0  0  0  0  0
   -1.0060   14.2470   20.0450 C   0  0  0  0  0  0  0  0  0  0  0  0
    0.0140   14.4900   19.7430 H   0  0  0  0  0  0  0  0  0  0  0  0
   -1.4310   15.1270   20.5290 H   0  0  0  0  0  0  0  0  0  0  0  0
   -1.5910   14.0810   19.1420 H   0  0  0  0  0  0  0  0  0  0  0  0
   -0.3950   13.5250   22.3130 C   0  0  0  0  0  0  0  0  0  0  0  0
   -1.0290   14.2900   22.7630 H   0  0  0  0  0  0  0  0  0  0  0  0
    0.5670   14.0060   22.1470 H   0  0  0  0  0  0  0  0  0  0  0  0
   -0.2790   12.7560   23.0630 H   0  0  0  0  0  0  0  0  0  0  0  0
   -0.2650    9.8990   23.0080 I   0  0  0  0  0  0  0  0  0  0  0  0
    1.4270    9.3470   18.9650 B   0  5  0  0  0  0  0  0  0  0  0  0
    1.2520    9.9370   17.9650 H   0  0  0  0  0  0  0  0  0  0  0  0
    2.2050    8.0500   18.8840 C   0  0  0  0  0  0  0  0  0  0  0  0
    2.9030    7.7250   17.7010 C   0  0  0  0  0  0  0  0  0  0  0  0
    2.8720    8.3400   16.8400 H   0  0  0  0  0  0  0  0  0  0  0  0
    3.6500    6.5570   17.7340 C   0  0  0  0  0  0  0  0  0  0  0  0
    3.7030    5.6990   18.8080 C   0  0  0  0  0  0  0  0  0  0  0  0
    3.0440    5.8540   19.9920 C   0  0  0  0  0  0  0  0  0  0  0  0
    3.0730    5.1650   20.7960 H   0  0  0  0  0  0  0  0  0  0  0  0
    2.2860    7.0660   20.0080 C   0  0  0  0  0  0  0  0  0  0  0  0
    1.6090    7.3000   21.0560 O   0  3  0  0  0  0  0  0  0  0  0  0
    1.7240    6.6150   21.7520 H   0  0  0  0  0  0  0  0  0  0  0  0
    4.5540    4.8130   18.1910 O   0  0  0  0  0  0  0  0  0  0  0  0
    4.5840    5.6530   16.9860 C   0  0  0  0  0  0  0  0  0  0  0  0
    5.5580    6.0640   16.7540 H   0  0  0  0  0  0  0  0  0  0  0  0
    4.1810    5.1760   16.1020 H   0  0  0  0  0  0  0  0  0  0  0  0
    1.9690    9.8680   21.0480 H   0  0  0  0  0  0  0  0  0  0  0  0
   -0.8800    9.6040   20.4490 H   0  0  0  0  0  0  0  0  0  0  0  0
  1  2  1  0  0  0  0
  1  4  1  0  0  0  0
  1 23  1  0  0  0  0
  1 39  1  0  0  0  0
  2  3  1  0  0  0  0
  2 22  1  0  0  0  0
  2 40  1  0  0  0  0
  3  4  1  0  0  0  0
  3  7  1  0  0  0  0
  3  9  1  0  0  0  0
  4  5  1  0  0  0  0
  4  6  1  0  0  0  0
  7  8  3  0  0  0  0
  9 10  1  0  0  0  0
  9 14  1  0  0  0  0
  9 18  1  0  0  0  0
 10 11  1  0  0  0  0
 10 12  1  0  0  0  0
 10 13  1  0  0  0  0
 14 15  1  0  0  0  0
 14 16  1  0  0  0  0
 14 17  1  0  0  0  0
 18 19  1  0  0  0  0
 18 20  1  0  0  0  0
 18 21  1  0  0  0  0
 23 24  1  0  0  0  0
 23 25  2  0  0  0  0
 25 26  1  0  0  0  0
 25 32  1  0  0  0  0
 26 27  1  0  0  0  0
 26 28  2  0  0  0  0
 28 29  1  0  0  0  0
 28 36  1  0  0  0  0
 29 30  2  0  0  0  0
 29 35  1  0  0  0  0
 30 31  1  0  0  0  0
 30 32  1  0  0  0  0
 32 33  2  0  0  0  0
 33 34  1  0  0  0  0
 35 36  1  0  0  0  0
 36 37  1  0  0  0  0
 36 38  1  0  0  0  0
M  CHG  1  23  -1
M  CHG  1  33   1
M  END
>  <receptor>
S(=O)(=O)([O-])[O-].S(CCC(NC(=O)C(NC(=O)C(NC(=O)CNC(=O)C(NC(=O)C1N(C(=O)C(NC(=O)C(NC(=O)C(NC(=O)C(NC(=O)C(NC(=O)C(NC(=O)C(NC(=O)C(NC(=O)C(NC(=O)C(NC(=O)C(NC(=O)C(NC(=O)C(NC(=O)C(NC(=O)C(NC(=O)C(NC(=O)C(NC(=O)C(NC(=O)C(NC(=O)CNC(=O)C(NC(=O)C(NC(=O)C(NC(=O)C(NC(=O)C(NC(=O)C(NC(=O)C(NC(=O)C(NC(=O)C(NC(=O)C(NC(=O)C(NC(=O)C(NC(=O)C(NC(=O)C)CCCC[NH3+])C(C)C)C(O)C)CCC(=O)N)CCC(=O)[O-])CCC(=O)N)Cc2ccccc2)CCC(=O)[O-])CC(C)C)Cc2ccc(O)cc2)CS)CCC(=O)[O-])CCSC)CO)C(O)C)Cc2ccccc2)CCC(=O)N)CC(C)C)C[S-])CCCC[NH3+])C(CC)C)C[S-])C)CCC(=O)[O-])CC(=O)N)CC(=O)[O-])CCCC[NH3+])CC(=O)[O-])C(C)C)CCCC[NH3+])C(CC)C)CCC(=O)[O-])CCC1)C[S-])Cc1nc[n-]c1)CC(C)C)C(=O)NC(C(=O)NC(C(=O)NC(C(=O)NC(C(=O)NC(C(=O)NC(C(=O)NC(C(=O)NC(C(=O)NC(C(=O)NC(C(=O)NC(C(=O)NC(C(=O)NCC(=O)NC(C(=O)NCC(=O)NC(C(=O)N1C(C(=O)NC(C(=O)NC(C(=O)NC(C(=O)NC(C(=O)NC(C(=O)NC(C(=O)NC(C(=O)NCC(=O)NC(C(=O)NC(C(=O)N2C(C(=O)NC(C(=O)NC(C(=O)NC(C(=O)NC(C(=O)N3C(C(=O)NC(C(=O)NC(C(=O)[O-])CC(=O)[O-])Cc4ccccc4)CCC3)CC(=O)[O-])C(C)C)C(CC)C)C(CC)C)CCC2)CCC(=O)[O-])C(O)C)CCCC[NH3+])C(CC)C)CCC(=O)[O-])CS)CCCNC(=[NH2+])N)C[S-])Cc2ccccc2)CCC1)C[S-])CCC(=O)N)CC(=O)[O-])CO)CCC(=O)[O-])CCC(=O)N)Cc1c2c([nH]c1)cccc2)C)C(O)C)CC(C)C)C[S-])CO)C(O)C)C[S-])C.S(CCC(NC(=O)C(NC(=O)C(NC(=O)C(NC(=O)C(NC(=O)C(NC(=O)C(NC(=O)C(NC(=O)C(NC(=O)C(NC(=O)C(NC(=O)C(NC(=O)C(NC(=O)C(NC(=O)C(NC(=O)C(NC(=O)C[NH3+])CCC(=O)N)C)C)C)CC(=O)[O-])CCCNC(=[NH2+])N)CCCNC(=[NH2+])N)C(O)C)C(C)C)CCC(=O)[O-])CCCC[NH3+])C(O)C)Cc1c2c([nH]c1)cccc2)C)CC(C)C)C(=O)NC(C(=O)NC(C(=O)NC(C(=O)NC(C(=O)NC(C(=O)NC(C(=O)NC(C(=O)NC(C(=O)NC(C(=O)N1C(C(=O)NC(C(=O)NC(C(=O)NC(C(=O)NC(C(=O)NC(C(=O)NC(C(=O)NC(C(=O)N2C(C(=O)N3C(C(=O)NC(C(=O)NC(C(=O)NC(C(=O)NC(C(=O)NC(C(=O)NC(C(=O)N4C(C(=O)NC(C(=O)NC(C(=O)NC(C(=O)NC(C(=O)NC(C(=O)NC(C(=O)NC(C(=O)NC(C(=O)NC(C(=O)NC(C(=O)NC(C(=O)NC(C(=O)NC(C(=O)NC(C(=O)NC(C(=O)NC(C(=O)NC(C(=O)NC(C(=O)NC(C(=O)NC(C(=O)NC(C(=O)NC(C(=O)NC(C(=O)NC(C(=O)NC(C(=O)NC(C(=O)NC(C(=O)NC(C(=O)NC(C(=O)NC(C(=O)NC(C(=O)NC(C(=O)NC(C(=O)NC(C(=O)NC(C(=O)NC(C(=O)NC(C(=O)NC(C(=O)NC(C(=O)NC(C(=O)NC(C(=O)NC(C(=O)NC(C(=O)NC(C(=O)NC(C(=O)NC(C(=O)NC(C(=O)NC(C(=O)NCC(=O)NC(C(=O)NC(C(=O)NC(C(=O)NC(C(=O)NC(C(=O)NC(C(=O)NC(C(=O)NC(C(=O)NC(C(=O)NC(C(=O)NC(C(=O)NC(C(=O)NC(C(=O)NC(C(=O)NC(C(=O)NC(C(=O)NC(C(=O)NC(C(=O)NC(C(=O)NC(C(=O)NC(C(=O)NC(C(=O)NC(C(=O)NC(C(=O)NC(C(=O)NC(C(=O)NC(C(=O)NC(C(=O)NC(C(=O)NC(C(=O)NC(C(=O)NC(C(=O)NC(C(=O)N5C(C(=O)NC(C(=O)NCC(=O)NC(C(=O)NC(C(=O)NC(C(=O)NCC(=O)NC(C(=O)NC(C(=O)NC(C(=O)NC(C(=O)NC(C(=O)NC(C(=O)NC(C(=O)NC(C(=O)NC(C(=O)NC(C(=O)NC(C(=O)NC(C(=O)NC(C(=O)NC(C(=O)NC(C(=O)NC(C(=O)NC(C(=O)NC(C(=O)NCC(=O)NC(C(=O)NC(C(=O)NC(C(=O)NC(C(=O)NC(C(=O)N6C(C(=O)NC(C(=O)NC(C(=O)NC(C(=O)NC(C(=O)NC(C(=O)NC(C(=O)NC(C(=O)NC(C(=O)NC(C(=O)NC(C(=O)NC(C(=O)NC(C(=O)NC(C(=O)NC(C(=O)NC(C(=O)NC(C(=O)NCC(=O)NC(C(=O)NC(C(=O)NC(C(=O)NC(C(=O)NC(C(=O)NC(C(=O)NC(C(=O)NC(C(=O)NC(C(=O)NC(C(=O)NC(C(=O)NC(C(=O)NC(C(=O)NC(C(=O)NC(C(=O)NC(C(=O)NC(C(=O)NC(C(=O)NC(C(=O)NC(C(=O)NC(C(=O)NC(C(=O)NC(C(=O)NC(C(=O)NC(C(=O)NC(C(=O)NC(C(=O)NC(C(=O)NC(C(=O)NC(C(=O)NC(C(=O)N7C(C(=O)NC(C(=O)NCC(=O)NC(C(=O)NC(C(=O)NC(C(=O)NC(C(=O)NC(C(=O)NC(C(=O)NC(C(=O)NC(C(=O)NC(C(=O)NC(C(=O)NC(C(=O)NC(C(=O)NC(C(=O)N8C(C(=O)NCC(=O)NC(C(=O)NC(C(=O)NC(C(=O)NC(C(=O)NC(C(=O)NC(C(=O)NC(C(=O)NC(C(=O)NC(C(=O)NC(C(=O)NC(C(=O)NC(C(=O)NC(C(=O)NC(C(=O)NC(C(=O)NC(C(=O)NC(C(=O)NC(C(=O)NC(C(=O)NC(C(=O)N9C(C(=O)NCC(=O)NC(C(=O)NC(C(=O)NC(C(=O)NC(C(=O)NC(C(=O)NC(C(=O)NC(C(=O)NC(C(=O)NC(C(=O)NC(C(=O)NC(C(=O)NCC(=O)NC(C(=O)NC(C(=O)NC(C(=O)NC(C(=O)NCC(=O)NC(C(=O)NC(C(=O)NC(C(=O)NCC(=O)NC(C(=O)NCC(=O)NC(C(=O)NC(C(=O)NC(C(=O)NC(C(=O)NC(C(=O)NC(C(=O)N%10C(C(=O)NC(C(=O)NC(C(=O)NC(C(=O)N%11C(C(=O)NC(C(=O)NC(C(=O)NC(C(=O)NC(C(=O)NC(C(=O)NC(C(=O)NC(C(=O)NCC(=O)NC(C(=O)NC(C(=O)NC(C(=O)NCC(=O)NC(C(=O)NC(C(=O)NC(C(=O)NC(C(=O)N%12C(C(=O)NC(C(=O)NCC(=O)NC(C(=O)NC(C(=O)NC(C(=O)NC(C(=O)NC)CC(=O)N)Cc%13ccc(O)cc%13)CO)CCCNC(=[NH2+])N)CC(=O)[O-])CCC%12)Cc%12ccc(O)cc%12)CC(C)C)Cc%12ccc(O)cc%12)Cc%12ccccc%12)CCC(=O)[O-])C)CO)CC(=O)[O-])C(CC)C)CC(C)C)C)CCC(=O)N)Cc%12ccccc%12)CC(C)C)CCC%11)CCCC[NH3+])CC(=O)N)Cc%11[nH]cnc%11)CCC%10)C(CC)C)C(O)C)CCC(=O)N)CC(C)C)C(CC)C)CC(=O)N)CC(=O)[O-])C(O)C)C(C)C)Cc%10ccc(O)cc%10)C(CC)C)C)Cc%10c%11c([nH]c%10)cccc%11)CCC(=O)N)CC(C)C)CCCNC(=[NH2+])N)C(O)C)CS)CO)CC(C)C)CCCNC(=[NH2+])N)Cc%10ccccc%10)C(CC)C)Cc%10ccc(O)cc%10)CO)CCC9)CCCC[NH3+])C(O)C)CO)Cc9ccc(O)cc9)CCCC[NH3+])CCC(=O)N)CC(C)C)CCCNC(=[NH2+])N)C)CCCC[NH3+])C(C)C)CCC(=O)[O-])CC(=O)[O-])Cc9ccc(O)cc9)C(O)C)CC(C)C)Cc9ccccc9)C)CCSC)Cc9ccc(O)cc9)CCC8)Cc8nc[nH]c8)C(O)C)C(C)C)C)CC(C)C)Cc8ccccc8)CC(=O)N)Cc8c9c([nH]c8)cccc9)CC(=O)N)CCCNC(=[NH2+])N)CC(C)C)C(CC)C)CO)Cc8c9c([nH]c8)cccc9)CCC7)CCC(=O)N)Cc7ccccc7)CC(C)C)CCCNC(=[NH2+])N)C(O)C)Cc7ccccc7)C(CC)C)CC(=O)[O-])Cc7ccccc7)CCC(=O)[O-])Cc7ccccc7)C(C)C)CO)C(CC)C)Cc7ccc(O)cc7)CC(=O)[O-])CC(=O)N)CS)C(O)C)CC(C)C)CC(=O)[O-])C(CC)C)C(O)C)CO)CCCC[NH3+])CC(C)C)C)CCSC)C)CCC(=O)[O-])CC(C)C)CO)CO)C(CC)C)CCC(=O)N)Cc7nc[nH]c7)C(C)C)CCC(=O)[O-])Cc7nc[nH]c7)CC(C)C)CS)CCC(=O)N)CCCNC(=[NH2+])N)Cc7ccccc7)C(C)C)CCCC[NH3+])Cc7c8c([nH]c7)cccc8)CCC6)C(C)C)C(CC)C)C(O)C)CCCC[NH3+])CC(=O)[O-])Cc6ccccc6)Cc6ccccc6)CCCC[NH3+])CCCNC(=[NH2+])N)Cc6c7c([nH]c6)cccc7)Cc6ccccc6)CCC(=O)[O-])C)C)CC(=O)[O-])C)CCCC[NH3+])C(O)C)C(CC)C)CCCNC(=[NH2+])N)Cc6ccccc6)CC(=O)N)CC(=O)[O-])CCC(=O)N)Cc6ccccc6)CCC(=O)N)CC(=O)N)CCC5)Cc5ccccc5)C(CC)C)C)CCCC[NH3+])C(CC)C)CCC(=O)[O-])C)CC(C)C)CCSC)Cc5nc[nH]c5)CO)Cc5ccccc5)C(CC)C)CC(C)C)CO)CC(C)C)CCCC[NH3+])C(O)C)CC(C)C)CC(=O)N)CCCNC(=[NH2+])N)CCCNC(=[NH2+])N)CC(=O)[O-])CCC(=O)N)CO)CCC(=O)N)CCC(=O)[O-])CCC(=O)[O-])Cc5ccc(O)cc5)CCSC)CCCNC(=[NH2+])N)CCC(=O)[O-])CCCC[NH3+])CCC(=O)[O-])CCCC[NH3+])Cc5ccccc5)CC(C)C)CCCNC(=[NH2+])N)C(CC)C)C)CCCNC(=[NH2+])N)CCCC[NH3+])CO)CCCC[NH3+])CCCC[NH3+])CCSC)CC(C)C)CO)CC(=O)[O-])C(CC)C)Cc5ccc(O)cc5)C(CC)C)CCCC[NH3+])Cc5ccccc5)Cc5ccc(O)cc5)CCC(=O)[O-])CC(=O)N)CCC(=O)[O-])CO)CC(C)C)CCC(=O)N)C)CC(C)C)CCCC[NH3+])CCC(=O)N)CC(=O)N)CC(=O)[O-])CC(=O)[O-])Cc5ccc(O)cc5)CCCC[NH3+])CO)CC(C)C)C(CC)C)CC(C)C)CCCNC(=[NH2+])N)CC(C)C)Cc5nc[nH]c5)CCC(=O)N)Cc5ccc(O)cc5)C(O)C)CC(=O)[O-])CCC4)CC(C)C)C(CC)C)CC(=O)[O-])CC(C)C)C(CC)C)Cc4ccc(O)cc4)CCC3)CCC2)CO)CC(=O)N)CCCC[NH3+])CC(C)C)CCC(=O)N)CC(C)C)CCCC[NH3+])CCC1)CC(=O)N)CCC(=O)N)CS)CC(C)C)CCCNC(=[NH2+])N)C(C)C)C(C)C)C)CC(=O)[O-])C.OCCO.[UH+3].[Zn+2].[Zn+2].O.O.O.O.O.O.O.O.O.O.O.O.O.O.O.O.O.O.O.O.O.O.O.O.O.O.O.O.O.O.O.O.O.O.O.O.O.O.O.O.O.O.O.O.O.O.O.O.O.O.O.O.O.O.O.O.O.O.O.O.O.O.O.O.O.O.O.O.O.O.O.O.O.O.O.O.O.O.O.O.O.O.O.O.O.O.O.O.O.O.O.O.O.O.O.O.O.O.O.O.O.O.O.O.O.O.O.O.O.O.O.O.O.O.O.O.O.O.O.O.O.O.O.O.O.O.O.O.O.O.O.O.O.O.O.O.O.O.O.O.O.O

>  <rseq>
1

>  <mseq>
92

>  <S>
-6.0374546

>  <rmsd_refine>
1.6663575

>  <E_conf>
45.43322

>  <E_place>
-80.481277

>  <E_score1>
-10.62783

>  <E_refine>
-26.925703

>  <E_score2>
-6.0374546

>  <Field_2>
VN02

>  <pseq>
92

>  <%C>
100

>  <a_heavy>
23

>  <h_logP>
3.2808571

>  <Weight>
431.02798

>  <E_orig>
0

>  <PLIF_raw>
[[25,32,30,29,28,26],[5181,5181,5181,5181,5181,5181],[366,366,366,366,366,366],[10,10,10,10,10,10],[0.6,0.6,0.6,0.6,0.6,0.6]]

>  <FP:PLIF>
6

>  <PLIF_ligidx>
[[25,32,30,29,28,26]]

$$$$

  MOE2020           3D

 39 41  0  0  1  0  0  0  0  0999 V2000
    1.5670   11.2690   18.2840 B   0  0  0  0  0  0  0  0  0  0  0  0
    2.6360   11.7130   18.0900 H   0  0  0  0  0  0  0  0  0  0  0  0
    0.3220   11.8270   18.3700 O   0  0  0  0  0  0  0  0  0  0  0  0
   -0.2500   10.4910   18.6250 C   0  0  2  0  0  0  0  0  0  0  0  0
    1.1240   10.0150   18.5560 N   0  0  0  0  0  0  0  0  0  0  0  0
    1.7650    8.7490   18.7470 C   0  0  0  0  0  0  0  0  0  0  0  0
    2.4870    8.2400   17.6700 C   0  0  0  0  0  0  0  0  0  0  0  0
    2.4580    8.7280   16.7390 H   0  0  0  0  0  0  0  0  0  0  0  0
    3.2670    7.1040   17.8500 C   0  0  0  0  0  0  0  0  0  0  0  0
    3.3040    6.4800   19.0750 C   0  0  0  0  0  0  0  0  0  0  0  0
    2.4970    6.9180   20.1240 C   0  0  0  0  0  0  0  0  0  0  0  0
    2.4780    6.3800   21.0330 H   0  0  0  0  0  0  0  0  0  0  0  0
    1.7400    8.0900   19.9930 C   0  0  0  0  0  0  0  0  0  0  0  0
    0.7000    8.8460   21.6720 I   0  0  0  0  0  0  0  0  0  0  0  0
    4.3340    5.3800   19.0940 C   0  0  0  0  0  0  0  0  0  0  0  0
    3.8620    4.4450   19.4060 H   0  0  0  0  0  0  0  0  0  0  0  0
    5.0980    5.6390   19.8230 H   0  0  0  0  0  0  0  0  0  0  0  0
    4.9270    5.3020   17.6380 C   0  0  3  0  0  0  0  0  0  0  0  0
    4.1560    6.4090   16.8530 C   0  0  0  0  0  0  0  0  0  0  0  0
    4.8080    7.1240   16.3670 H   0  0  0  0  0  0  0  0  0  0  0  0
    3.5620    5.9530   16.0700 H   0  0  0  0  0  0  0  0  0  0  0  0
    4.5460    3.9770   17.0790 C   0  0  0  0  0  0  0  0  0  0  0  0
    4.2470    2.9700   16.6500 N   0  0  0  0  0  0  0  0  0  0  0  0
    6.5020    5.5130   17.5200 C   0  0  0  0  0  0  0  0  0  0  0  0
    7.2800    4.5150   18.3970 C   0  0  0  0  0  0  0  0  0  0  0  0
    8.3530    4.6050   18.2230 H   0  0  0  0  0  0  0  0  0  0  0  0
    6.9830    3.4990   18.1600 H   0  0  0  0  0  0  0  0  0  0  0  0
    7.0930    4.7030   19.4530 H   0  0  0  0  0  0  0  0  0  0  0  0
    6.9720    6.9120   17.9770 C   0  0  0  0  0  0  0  0  0  0  0  0
    8.0620    6.9660   17.9720 H   0  0  0  0  0  0  0  0  0  0  0  0
    6.6290    7.0890   18.9880 H   0  0  0  0  0  0  0  0  0  0  0  0
    6.6020    7.7040   17.3300 H   0  0  0  0  0  0  0  0  0  0  0  0
    6.9870    5.3070   16.0630 C   0  0  0  0  0  0  0  0  0  0  0  0
    6.8600    4.2700   15.7500 H   0  0  0  0  0  0  0  0  0  0  0  0
    8.0430    5.5470   15.9890 H   0  0  0  0  0  0  0  0  0  0  0  0
    6.4440    5.9480   15.3700 H   0  0  0  0  0  0  0  0  0  0  0  0
   -1.4190    9.9100   17.3600 S   0  0  0  0  0  0  0  0  0  0  0  0
   -1.0480    8.6010   17.4430 H   0  0  0  0  0  0  0  0  0  0  0  0
   -0.7130   10.4010   19.5980 H   0  0  0  0  0  0  0  0  0  0  0  0
  1  2  1  0  0  0  0
  1  3  1  0  0  0  0
  1  5  1  0  0  0  0
  3  4  1  0  0  0  0
  4  5  1  0  0  0  0
  4 37  1  0  0  0  0
  4 39  1  0  0  0  0
  5  6  1  0  0  0  0
  6  7  1  0  0  0  0
  6 13  2  0  0  0  0
  7  8  1  0  0  0  0
  7  9  2  0  0  0  0
  9 10  1  0  0  0  0
  9 19  1  0  0  0  0
 10 11  2  0  0  0  0
 10 15  1  0  0  0  0
 11 12  1  0  0  0  0
 11 13  1  0  0  0  0
 13 14  1  0  0  0  0
 15 16  1  0  0  0  0
 15 17  1  0  0  0  0
 15 18  1  0  0  0  0
 18 19  1  0  0  0  0
 18 22  1  0  0  0  0
 18 24  1  0  0  0  0
 19 20  1  0  0  0  0
 19 21  1  0  0  0  0
 22 23  3  0  0  0  0
 24 25  1  0  0  0  0
 24 29  1  0  0  0  0
 24 33  1  0  0  0  0
 25 26  1  0  0  0  0
 25 27  1  0  0  0  0
 25 28  1  0  0  0  0
 29 30  1  0  0  0  0
 29 31  1  0  0  0  0
 29 32  1  0  0  0  0
 33 34  1  0  0  0  0
 33 35  1  0  0  0  0
 33 36  1  0  0  0  0
 37 38  1  0  0  0  0
M  END
>  <receptor>
S(=O)(=O)([O-])[O-].S(CCC(NC(=O)C(NC(=O)C(NC(=O)CNC(=O)C(NC(=O)C1N(C(=O)C(NC(=O)C(NC(=O)C(NC(=O)C(NC(=O)C(NC(=O)C(NC(=O)C(NC(=O)C(NC(=O)C(NC(=O)C(NC(=O)C(NC(=O)C(NC(=O)C(NC(=O)C(NC(=O)C(NC(=O)C(NC(=O)C(NC(=O)C(NC(=O)C(NC(=O)CNC(=O)C(NC(=O)C(NC(=O)C(NC(=O)C(NC(=O)C(NC(=O)C(NC(=O)C(NC(=O)C(NC(=O)C(NC(=O)C(NC(=O)C(NC(=O)C(NC(=O)C(NC(=O)C)CCCC[NH3+])C(C)C)C(O)C)CCC(=O)N)CCC(=O)[O-])CCC(=O)N)Cc2ccccc2)CCC(=O)[O-])CC(C)C)Cc2ccc(O)cc2)CS)CCC(=O)[O-])CCSC)CO)C(O)C)Cc2ccccc2)CCC(=O)N)CC(C)C)C[S-])CCCC[NH3+])C(CC)C)C[S-])C)CCC(=O)[O-])CC(=O)N)CC(=O)[O-])CCCC[NH3+])CC(=O)[O-])C(C)C)CCCC[NH3+])C(CC)C)CCC(=O)[O-])CCC1)C[S-])Cc1nc[n-]c1)CC(C)C)C(=O)NC(C(=O)NC(C(=O)NC(C(=O)NC(C(=O)NC(C(=O)NC(C(=O)NC(C(=O)NC(C(=O)NC(C(=O)NC(C(=O)NC(C(=O)NC(C(=O)NCC(=O)NC(C(=O)NCC(=O)NC(C(=O)N1C(C(=O)NC(C(=O)NC(C(=O)NC(C(=O)NC(C(=O)NC(C(=O)NC(C(=O)NC(C(=O)NCC(=O)NC(C(=O)NC(C(=O)N2C(C(=O)NC(C(=O)NC(C(=O)NC(C(=O)NC(C(=O)N3C(C(=O)NC(C(=O)NC(C(=O)[O-])CC(=O)[O-])Cc4ccccc4)CCC3)CC(=O)[O-])C(C)C)C(CC)C)C(CC)C)CCC2)CCC(=O)[O-])C(O)C)CCCC[NH3+])C(CC)C)CCC(=O)[O-])CS)CCCNC(=[NH2+])N)C[S-])Cc2ccccc2)CCC1)C[S-])CCC(=O)N)CC(=O)[O-])CO)CCC(=O)[O-])CCC(=O)N)Cc1c2c([nH]c1)cccc2)C)C(O)C)CC(C)C)C[S-])CO)C(O)C)C[S-])C.S(CCC(NC(=O)C(NC(=O)C(NC(=O)C(NC(=O)C(NC(=O)C(NC(=O)C(NC(=O)C(NC(=O)C(NC(=O)C(NC(=O)C(NC(=O)C(NC(=O)C(NC(=O)C(NC(=O)C(NC(=O)C(NC(=O)C[NH3+])CCC(=O)N)C)C)C)CC(=O)[O-])CCCNC(=[NH2+])N)CCCNC(=[NH2+])N)C(O)C)C(C)C)CCC(=O)[O-])CCCC[NH3+])C(O)C)Cc1c2c([nH]c1)cccc2)C)CC(C)C)C(=O)NC(C(=O)NC(C(=O)NC(C(=O)NC(C(=O)NC(C(=O)NC(C(=O)NC(C(=O)NC(C(=O)NC(C(=O)N1C(C(=O)NC(C(=O)NC(C(=O)NC(C(=O)NC(C(=O)NC(C(=O)NC(C(=O)NC(C(=O)N2C(C(=O)N3C(C(=O)NC(C(=O)NC(C(=O)NC(C(=O)NC(C(=O)NC(C(=O)NC(C(=O)N4C(C(=O)NC(C(=O)NC(C(=O)NC(C(=O)NC(C(=O)NC(C(=O)NC(C(=O)NC(C(=O)NC(C(=O)NC(C(=O)NC(C(=O)NC(C(=O)NC(C(=O)NC(C(=O)NC(C(=O)NC(C(=O)NC(C(=O)NC(C(=O)NC(C(=O)NC(C(=O)NC(C(=O)NC(C(=O)NC(C(=O)NC(C(=O)NC(C(=O)NC(C(=O)NC(C(=O)NC(C(=O)NC(C(=O)NC(C(=O)NC(C(=O)NC(C(=O)NC(C(=O)NC(C(=O)NC(C(=O)NC(C(=O)NC(C(=O)NC(C(=O)NC(C(=O)NC(C(=O)NC(C(=O)NC(C(=O)NC(C(=O)NC(C(=O)NC(C(=O)NC(C(=O)NC(C(=O)NC(C(=O)NC(C(=O)NCC(=O)NC(C(=O)NC(C(=O)NC(C(=O)NC(C(=O)NC(C(=O)NC(C(=O)NC(C(=O)NC(C(=O)NC(C(=O)NC(C(=O)NC(C(=O)NC(C(=O)NC(C(=O)NC(C(=O)NC(C(=O)NC(C(=O)NC(C(=O)NC(C(=O)NC(C(=O)NC(C(=O)NC(C(=O)NC(C(=O)NC(C(=O)NC(C(=O)NC(C(=O)NC(C(=O)NC(C(=O)NC(C(=O)NC(C(=O)NC(C(=O)NC(C(=O)NC(C(=O)NC(C(=O)N5C(C(=O)NC(C(=O)NCC(=O)NC(C(=O)NC(C(=O)NC(C(=O)NCC(=O)NC(C(=O)NC(C(=O)NC(C(=O)NC(C(=O)NC(C(=O)NC(C(=O)NC(C(=O)NC(C(=O)NC(C(=O)NC(C(=O)NC(C(=O)NC(C(=O)NC(C(=O)NC(C(=O)NC(C(=O)NC(C(=O)NC(C(=O)NC(C(=O)NCC(=O)NC(C(=O)NC(C(=O)NC(C(=O)NC(C(=O)NC(C(=O)N6C(C(=O)NC(C(=O)NC(C(=O)NC(C(=O)NC(C(=O)NC(C(=O)NC(C(=O)NC(C(=O)NC(C(=O)NC(C(=O)NC(C(=O)NC(C(=O)NC(C(=O)NC(C(=O)NC(C(=O)NC(C(=O)NC(C(=O)NCC(=O)NC(C(=O)NC(C(=O)NC(C(=O)NC(C(=O)NC(C(=O)NC(C(=O)NC(C(=O)NC(C(=O)NC(C(=O)NC(C(=O)NC(C(=O)NC(C(=O)NC(C(=O)NC(C(=O)NC(C(=O)NC(C(=O)NC(C(=O)NC(C(=O)NC(C(=O)NC(C(=O)NC(C(=O)NC(C(=O)NC(C(=O)NC(C(=O)NC(C(=O)NC(C(=O)NC(C(=O)NC(C(=O)NC(C(=O)NC(C(=O)NC(C(=O)N7C(C(=O)NC(C(=O)NCC(=O)NC(C(=O)NC(C(=O)NC(C(=O)NC(C(=O)NC(C(=O)NC(C(=O)NC(C(=O)NC(C(=O)NC(C(=O)NC(C(=O)NC(C(=O)NC(C(=O)NC(C(=O)N8C(C(=O)NCC(=O)NC(C(=O)NC(C(=O)NC(C(=O)NC(C(=O)NC(C(=O)NC(C(=O)NC(C(=O)NC(C(=O)NC(C(=O)NC(C(=O)NC(C(=O)NC(C(=O)NC(C(=O)NC(C(=O)NC(C(=O)NC(C(=O)NC(C(=O)NC(C(=O)NC(C(=O)NC(C(=O)N9C(C(=O)NCC(=O)NC(C(=O)NC(C(=O)NC(C(=O)NC(C(=O)NC(C(=O)NC(C(=O)NC(C(=O)NC(C(=O)NC(C(=O)NC(C(=O)NC(C(=O)NCC(=O)NC(C(=O)NC(C(=O)NC(C(=O)NC(C(=O)NCC(=O)NC(C(=O)NC(C(=O)NC(C(=O)NCC(=O)NC(C(=O)NCC(=O)NC(C(=O)NC(C(=O)NC(C(=O)NC(C(=O)NC(C(=O)NC(C(=O)N%10C(C(=O)NC(C(=O)NC(C(=O)NC(C(=O)N%11C(C(=O)NC(C(=O)NC(C(=O)NC(C(=O)NC(C(=O)NC(C(=O)NC(C(=O)NC(C(=O)NCC(=O)NC(C(=O)NC(C(=O)NC(C(=O)NCC(=O)NC(C(=O)NC(C(=O)NC(C(=O)NC(C(=O)N%12C(C(=O)NC(C(=O)NCC(=O)NC(C(=O)NC(C(=O)NC(C(=O)NC(C(=O)NC)CC(=O)N)Cc%13ccc(O)cc%13)CO)CCCNC(=[NH2+])N)CC(=O)[O-])CCC%12)Cc%12ccc(O)cc%12)CC(C)C)Cc%12ccc(O)cc%12)Cc%12ccccc%12)CCC(=O)[O-])C)CO)CC(=O)[O-])C(CC)C)CC(C)C)C)CCC(=O)N)Cc%12ccccc%12)CC(C)C)CCC%11)CCCC[NH3+])CC(=O)N)Cc%11[nH]cnc%11)CCC%10)C(CC)C)C(O)C)CCC(=O)N)CC(C)C)C(CC)C)CC(=O)N)CC(=O)[O-])C(O)C)C(C)C)Cc%10ccc(O)cc%10)C(CC)C)C)Cc%10c%11c([nH]c%10)cccc%11)CCC(=O)N)CC(C)C)CCCNC(=[NH2+])N)C(O)C)CS)CO)CC(C)C)CCCNC(=[NH2+])N)Cc%10ccccc%10)C(CC)C)Cc%10ccc(O)cc%10)CO)CCC9)CCCC[NH3+])C(O)C)CO)Cc9ccc(O)cc9)CCCC[NH3+])CCC(=O)N)CC(C)C)CCCNC(=[NH2+])N)C)CCCC[NH3+])C(C)C)CCC(=O)[O-])CC(=O)[O-])Cc9ccc(O)cc9)C(O)C)CC(C)C)Cc9ccccc9)C)CCSC)Cc9ccc(O)cc9)CCC8)Cc8nc[nH]c8)C(O)C)C(C)C)C)CC(C)C)Cc8ccccc8)CC(=O)N)Cc8c9c([nH]c8)cccc9)CC(=O)N)CCCNC(=[NH2+])N)CC(C)C)C(CC)C)CO)Cc8c9c([nH]c8)cccc9)CCC7)CCC(=O)N)Cc7ccccc7)CC(C)C)CCCNC(=[NH2+])N)C(O)C)Cc7ccccc7)C(CC)C)CC(=O)[O-])Cc7ccccc7)CCC(=O)[O-])Cc7ccccc7)C(C)C)CO)C(CC)C)Cc7ccc(O)cc7)CC(=O)[O-])CC(=O)N)CS)C(O)C)CC(C)C)CC(=O)[O-])C(CC)C)C(O)C)CO)CCCC[NH3+])CC(C)C)C)CCSC)C)CCC(=O)[O-])CC(C)C)CO)CO)C(CC)C)CCC(=O)N)Cc7nc[nH]c7)C(C)C)CCC(=O)[O-])Cc7nc[nH]c7)CC(C)C)CS)CCC(=O)N)CCCNC(=[NH2+])N)Cc7ccccc7)C(C)C)CCCC[NH3+])Cc7c8c([nH]c7)cccc8)CCC6)C(C)C)C(CC)C)C(O)C)CCCC[NH3+])CC(=O)[O-])Cc6ccccc6)Cc6ccccc6)CCCC[NH3+])CCCNC(=[NH2+])N)Cc6c7c([nH]c6)cccc7)Cc6ccccc6)CCC(=O)[O-])C)C)CC(=O)[O-])C)CCCC[NH3+])C(O)C)C(CC)C)CCCNC(=[NH2+])N)Cc6ccccc6)CC(=O)N)CC(=O)[O-])CCC(=O)N)Cc6ccccc6)CCC(=O)N)CC(=O)N)CCC5)Cc5ccccc5)C(CC)C)C)CCCC[NH3+])C(CC)C)CCC(=O)[O-])C)CC(C)C)CCSC)Cc5nc[nH]c5)CO)Cc5ccccc5)C(CC)C)CC(C)C)CO)CC(C)C)CCCC[NH3+])C(O)C)CC(C)C)CC(=O)N)CCCNC(=[NH2+])N)CCCNC(=[NH2+])N)CC(=O)[O-])CCC(=O)N)CO)CCC(=O)N)CCC(=O)[O-])CCC(=O)[O-])Cc5ccc(O)cc5)CCSC)CCCNC(=[NH2+])N)CCC(=O)[O-])CCCC[NH3+])CCC(=O)[O-])CCCC[NH3+])Cc5ccccc5)CC(C)C)CCCNC(=[NH2+])N)C(CC)C)C)CCCNC(=[NH2+])N)CCCC[NH3+])CO)CCCC[NH3+])CCCC[NH3+])CCSC)CC(C)C)CO)CC(=O)[O-])C(CC)C)Cc5ccc(O)cc5)C(CC)C)CCCC[NH3+])Cc5ccccc5)Cc5ccc(O)cc5)CCC(=O)[O-])CC(=O)N)CCC(=O)[O-])CO)CC(C)C)CCC(=O)N)C)CC(C)C)CCCC[NH3+])CCC(=O)N)CC(=O)N)CC(=O)[O-])CC(=O)[O-])Cc5ccc(O)cc5)CCCC[NH3+])CO)CC(C)C)C(CC)C)CC(C)C)CCCNC(=[NH2+])N)CC(C)C)Cc5nc[nH]c5)CCC(=O)N)Cc5ccc(O)cc5)C(O)C)CC(=O)[O-])CCC4)CC(C)C)C(CC)C)CC(=O)[O-])CC(C)C)C(CC)C)Cc4ccc(O)cc4)CCC3)CCC2)CO)CC(=O)N)CCCC[NH3+])CC(C)C)CCC(=O)N)CC(C)C)CCCC[NH3+])CCC1)CC(=O)N)CCC(=O)N)CS)CC(C)C)CCCNC(=[NH2+])N)C(C)C)C(C)C)C)CC(=O)[O-])C.OCCO.[UH+3].[Zn+2].[Zn+2].O.O.O.O.O.O.O.O.O.O.O.O.O.O.O.O.O.O.O.O.O.O.O.O.O.O.O.O.O.O.O.O.O.O.O.O.O.O.O.O.O.O.O.O.O.O.O.O.O.O.O.O.O.O.O.O.O.O.O.O.O.O.O.O.O.O.O.O.O.O.O.O.O.O.O.O.O.O.O.O.O.O.O.O.O.O.O.O.O.O.O.O.O.O.O.O.O.O.O.O.O.O.O.O.O.O.O.O.O.O.O.O.O.O.O.O.O.O.O.O.O.O.O.O.O.O.O.O.O.O.O.O.O.O.O.O.O.O.O.O.O.O

>  <rseq>
1

>  <mseq>
93

>  <S>
-6.9353299

>  <rmsd_refine>
2.2713616

>  <E_conf>
12.225166

>  <E_place>
-41.996185

>  <E_score1>
-11.985794

>  <E_refine>
-29.155132

>  <E_score2>
-6.9353299

>  <Field_2>
VN03

>  <pseq>
93

>  <%C>
89.932831

>  <a_heavy>
21

>  <h_logP>
4.8893757

>  <Weight>
412.103

>  <E_orig>
0

>  <PLIF_raw>
[[],[],[],[],[]]

>  <PLIF_ligidx>
[]

$$$$

  MOE2020           3D

 40 42  0  0  1  0  0  0  0  0999 V2000
    4.9000    6.5510   18.3040 C   0  0  2  0  0  0  0  0  0  0  0  0
    6.2180    6.7570   17.4920 C   0  0  2  0  0  0  0  0  0  0  0  0
    6.2550    5.2260   17.1080 C   0  0  3  0  0  0  0  0  0  0  0  0
    5.0700    5.0220   18.1160 C   0  0  0  0  0  0  0  0  0  0  0  0
    3.9940    4.3820   17.6460 F   0  0  0  0  0  0  0  0  0  0  0  0
    5.3970    4.3810   19.2650 F   0  0  0  0  0  0  0  0  0  0  0  0
    7.4910    4.5520   17.5810 C   0  0  0  0  0  0  0  0  0  0  0  0
    8.4490    4.0570   17.9320 N   0  0  0  0  0  0  0  0  0  0  0  0
    6.0050    4.9100   15.5720 C   0  0  0  0  0  0  0  0  0  0  0  0
    4.9250    5.7860   14.9070 C   0  0  0  0  0  0  0  0  0  0  0  0
    3.9960    5.7340   15.4590 H   0  0  0  0  0  0  0  0  0  0  0  0
    4.7130    5.4170   13.9040 H   0  0  0  0  0  0  0  0  0  0  0  0
    5.2210    6.8290   14.8070 H   0  0  0  0  0  0  0  0  0  0  0  0
    7.3200    5.1240   14.8020 C   0  0  0  0  0  0  0  0  0  0  0  0
    7.1670    5.1330   13.7210 H   0  0  0  0  0  0  0  0  0  0  0  0
    8.0260    4.3350   15.0330 H   0  0  0  0  0  0  0  0  0  0  0  0
    7.7910    6.0520   15.1040 H   0  0  0  0  0  0  0  0  0  0  0  0
    5.5760    3.4470   15.3560 C   0  0  0  0  0  0  0  0  0  0  0  0
    6.1200    2.7700   16.0010 H   0  0  0  0  0  0  0  0  0  0  0  0
    5.7570    3.1500   14.3230 H   0  0  0  0  0  0  0  0  0  0  0  0
    4.5150    3.3020   15.5520 H   0  0  0  0  0  0  0  0  0  0  0  0
    7.4910    7.3200   18.2920 B   0  0  0  0  0  0  0  0  0  0  0  0
    8.1120    8.1860   17.8210 H   0  0  0  0  0  0  0  0  0  0  0  0
    7.9770    6.6970   19.1470 H   0  0  0  0  0  0  0  0  0  0  0  0
    3.3730    7.2910   17.5890 S   0  0  0  0  0  0  0  0  0  0  0  0
    2.5140    8.2790   18.7620 C   0  0  0  0  0  0  0  0  0  0  0  0
    2.2740    9.6350   18.4100 C   0  0  0  0  0  0  0  0  0  0  0  0
    2.5660   10.0560   17.4850 H   0  0  0  0  0  0  0  0  0  0  0  0
    1.6210   10.3510   19.3810 C   0  0  0  0  0  0  0  0  0  0  0  0
    1.2200    9.8370   20.5670 C   0  0  0  0  0  0  0  0  0  0  0  0
    1.3780    8.5400   20.9810 C   0  0  0  0  0  0  0  0  0  0  0  0
    1.0290    8.1860   21.9150 H   0  0  0  0  0  0  0  0  0  0  0  0
    2.0250    7.7250   20.0200 C   0  0  0  0  0  0  0  0  0  0  0  0
    2.1670    5.6690   20.4140 I   0  0  0  0  0  0  0  0  0  0  0  0
    0.6750   11.0470   21.0390 O   0  0  0  0  0  0  0  0  0  0  0  0
    1.0590   11.6920   19.7650 C   0  0  0  0  0  0  0  0  0  0  0  0
    0.2210   12.0340   19.1720 H   0  0  0  0  0  0  0  0  0  0  0  0
    1.7850   12.4870   19.8740 H   0  0  0  0  0  0  0  0  0  0  0  0
    5.0060    6.8210   19.3390 H   0  0  0  0  0  0  0  0  0  0  0  0
    6.0820    7.4220   16.6550 H   0  0  0  0  0  0  0  0  0  0  0  0
  1  2  1  0  0  0  0
  1  4  1  0  0  0  0
  1 25  1  0  0  0  0
  1 39  1  0  0  0  0
  2  3  1  0  0  0  0
  2 22  1  0  0  0  0
  2 40  1  0  0  0  0
  3  4  1  0  0  0  0
  3  7  1  0  0  0  0
  3  9  1  0  0  0  0
  4  5  1  0  0  0  0
  4  6  1  0  0  0  0
  7  8  3  0  0  0  0
  9 10  1  0  0  0  0
  9 14  1  0  0  0  0
  9 18  1  0  0  0  0
 10 11  1  0  0  0  0
 10 12  1  0  0  0  0
 10 13  1  0  0  0  0
 14 15  1  0  0  0  0
 14 16  1  0  0  0  0
 14 17  1  0  0  0  0
 18 19  1  0  0  0  0
 18 20  1  0  0  0  0
 18 21  1  0  0  0  0
 22 23  1  0  0  0  0
 22 24  1  0  0  0  0
 25 26  1  0  0  0  0
 26 27  1  0  0  0  0
 26 33  2  0  0  0  0
 27 28  1  0  0  0  0
 27 29  2  0  0  0  0
 29 30  1  0  0  0  0
 29 36  1  0  0  0  0
 30 31  2  0  0  0  0
 30 35  1  0  0  0  0
 31 32  1  0  0  0  0
 31 33  1  0  0  0  0
 33 34  1  0  0  0  0
 35 36  1  0  0  0  0
 36 37  1  0  0  0  0
 36 38  1  0  0  0  0
M  END
>  <receptor>
S(=O)(=O)([O-])[O-].S(CCC(NC(=O)C(NC(=O)C(NC(=O)CNC(=O)C(NC(=O)C1N(C(=O)C(NC(=O)C(NC(=O)C(NC(=O)C(NC(=O)C(NC(=O)C(NC(=O)C(NC(=O)C(NC(=O)C(NC(=O)C(NC(=O)C(NC(=O)C(NC(=O)C(NC(=O)C(NC(=O)C(NC(=O)C(NC(=O)C(NC(=O)C(NC(=O)C(NC(=O)CNC(=O)C(NC(=O)C(NC(=O)C(NC(=O)C(NC(=O)C(NC(=O)C(NC(=O)C(NC(=O)C(NC(=O)C(NC(=O)C(NC(=O)C(NC(=O)C(NC(=O)C(NC(=O)C)CCCC[NH3+])C(C)C)C(O)C)CCC(=O)N)CCC(=O)[O-])CCC(=O)N)Cc2ccccc2)CCC(=O)[O-])CC(C)C)Cc2ccc(O)cc2)CS)CCC(=O)[O-])CCSC)CO)C(O)C)Cc2ccccc2)CCC(=O)N)CC(C)C)C[S-])CCCC[NH3+])C(CC)C)C[S-])C)CCC(=O)[O-])CC(=O)N)CC(=O)[O-])CCCC[NH3+])CC(=O)[O-])C(C)C)CCCC[NH3+])C(CC)C)CCC(=O)[O-])CCC1)C[S-])Cc1nc[n-]c1)CC(C)C)C(=O)NC(C(=O)NC(C(=O)NC(C(=O)NC(C(=O)NC(C(=O)NC(C(=O)NC(C(=O)NC(C(=O)NC(C(=O)NC(C(=O)NC(C(=O)NC(C(=O)NCC(=O)NC(C(=O)NCC(=O)NC(C(=O)N1C(C(=O)NC(C(=O)NC(C(=O)NC(C(=O)NC(C(=O)NC(C(=O)NC(C(=O)NC(C(=O)NCC(=O)NC(C(=O)NC(C(=O)N2C(C(=O)NC(C(=O)NC(C(=O)NC(C(=O)NC(C(=O)N3C(C(=O)NC(C(=O)NC(C(=O)[O-])CC(=O)[O-])Cc4ccccc4)CCC3)CC(=O)[O-])C(C)C)C(CC)C)C(CC)C)CCC2)CCC(=O)[O-])C(O)C)CCCC[NH3+])C(CC)C)CCC(=O)[O-])CS)CCCNC(=[NH2+])N)C[S-])Cc2ccccc2)CCC1)C[S-])CCC(=O)N)CC(=O)[O-])CO)CCC(=O)[O-])CCC(=O)N)Cc1c2c([nH]c1)cccc2)C)C(O)C)CC(C)C)C[S-])CO)C(O)C)C[S-])C.S(CCC(NC(=O)C(NC(=O)C(NC(=O)C(NC(=O)C(NC(=O)C(NC(=O)C(NC(=O)C(NC(=O)C(NC(=O)C(NC(=O)C(NC(=O)C(NC(=O)C(NC(=O)C(NC(=O)C(NC(=O)C(NC(=O)C[NH3+])CCC(=O)N)C)C)C)CC(=O)[O-])CCCNC(=[NH2+])N)CCCNC(=[NH2+])N)C(O)C)C(C)C)CCC(=O)[O-])CCCC[NH3+])C(O)C)Cc1c2c([nH]c1)cccc2)C)CC(C)C)C(=O)NC(C(=O)NC(C(=O)NC(C(=O)NC(C(=O)NC(C(=O)NC(C(=O)NC(C(=O)NC(C(=O)NC(C(=O)N1C(C(=O)NC(C(=O)NC(C(=O)NC(C(=O)NC(C(=O)NC(C(=O)NC(C(=O)NC(C(=O)N2C(C(=O)N3C(C(=O)NC(C(=O)NC(C(=O)NC(C(=O)NC(C(=O)NC(C(=O)NC(C(=O)N4C(C(=O)NC(C(=O)NC(C(=O)NC(C(=O)NC(C(=O)NC(C(=O)NC(C(=O)NC(C(=O)NC(C(=O)NC(C(=O)NC(C(=O)NC(C(=O)NC(C(=O)NC(C(=O)NC(C(=O)NC(C(=O)NC(C(=O)NC(C(=O)NC(C(=O)NC(C(=O)NC(C(=O)NC(C(=O)NC(C(=O)NC(C(=O)NC(C(=O)NC(C(=O)NC(C(=O)NC(C(=O)NC(C(=O)NC(C(=O)NC(C(=O)NC(C(=O)NC(C(=O)NC(C(=O)NC(C(=O)NC(C(=O)NC(C(=O)NC(C(=O)NC(C(=O)NC(C(=O)NC(C(=O)NC(C(=O)NC(C(=O)NC(C(=O)NC(C(=O)NC(C(=O)NC(C(=O)NC(C(=O)NC(C(=O)NCC(=O)NC(C(=O)NC(C(=O)NC(C(=O)NC(C(=O)NC(C(=O)NC(C(=O)NC(C(=O)NC(C(=O)NC(C(=O)NC(C(=O)NC(C(=O)NC(C(=O)NC(C(=O)NC(C(=O)NC(C(=O)NC(C(=O)NC(C(=O)NC(C(=O)NC(C(=O)NC(C(=O)NC(C(=O)NC(C(=O)NC(C(=O)NC(C(=O)NC(C(=O)NC(C(=O)NC(C(=O)NC(C(=O)NC(C(=O)NC(C(=O)NC(C(=O)NC(C(=O)NC(C(=O)N5C(C(=O)NC(C(=O)NCC(=O)NC(C(=O)NC(C(=O)NC(C(=O)NCC(=O)NC(C(=O)NC(C(=O)NC(C(=O)NC(C(=O)NC(C(=O)NC(C(=O)NC(C(=O)NC(C(=O)NC(C(=O)NC(C(=O)NC(C(=O)NC(C(=O)NC(C(=O)NC(C(=O)NC(C(=O)NC(C(=O)NC(C(=O)NC(C(=O)NCC(=O)NC(C(=O)NC(C(=O)NC(C(=O)NC(C(=O)NC(C(=O)N6C(C(=O)NC(C(=O)NC(C(=O)NC(C(=O)NC(C(=O)NC(C(=O)NC(C(=O)NC(C(=O)NC(C(=O)NC(C(=O)NC(C(=O)NC(C(=O)NC(C(=O)NC(C(=O)NC(C(=O)NC(C(=O)NC(C(=O)NCC(=O)NC(C(=O)NC(C(=O)NC(C(=O)NC(C(=O)NC(C(=O)NC(C(=O)NC(C(=O)NC(C(=O)NC(C(=O)NC(C(=O)NC(C(=O)NC(C(=O)NC(C(=O)NC(C(=O)NC(C(=O)NC(C(=O)NC(C(=O)NC(C(=O)NC(C(=O)NC(C(=O)NC(C(=O)NC(C(=O)NC(C(=O)NC(C(=O)NC(C(=O)NC(C(=O)NC(C(=O)NC(C(=O)NC(C(=O)NC(C(=O)NC(C(=O)N7C(C(=O)NC(C(=O)NCC(=O)NC(C(=O)NC(C(=O)NC(C(=O)NC(C(=O)NC(C(=O)NC(C(=O)NC(C(=O)NC(C(=O)NC(C(=O)NC(C(=O)NC(C(=O)NC(C(=O)NC(C(=O)N8C(C(=O)NCC(=O)NC(C(=O)NC(C(=O)NC(C(=O)NC(C(=O)NC(C(=O)NC(C(=O)NC(C(=O)NC(C(=O)NC(C(=O)NC(C(=O)NC(C(=O)NC(C(=O)NC(C(=O)NC(C(=O)NC(C(=O)NC(C(=O)NC(C(=O)NC(C(=O)NC(C(=O)NC(C(=O)N9C(C(=O)NCC(=O)NC(C(=O)NC(C(=O)NC(C(=O)NC(C(=O)NC(C(=O)NC(C(=O)NC(C(=O)NC(C(=O)NC(C(=O)NC(C(=O)NC(C(=O)NCC(=O)NC(C(=O)NC(C(=O)NC(C(=O)NC(C(=O)NCC(=O)NC(C(=O)NC(C(=O)NC(C(=O)NCC(=O)NC(C(=O)NCC(=O)NC(C(=O)NC(C(=O)NC(C(=O)NC(C(=O)NC(C(=O)NC(C(=O)N%10C(C(=O)NC(C(=O)NC(C(=O)NC(C(=O)N%11C(C(=O)NC(C(=O)NC(C(=O)NC(C(=O)NC(C(=O)NC(C(=O)NC(C(=O)NC(C(=O)NCC(=O)NC(C(=O)NC(C(=O)NC(C(=O)NCC(=O)NC(C(=O)NC(C(=O)NC(C(=O)NC(C(=O)N%12C(C(=O)NC(C(=O)NCC(=O)NC(C(=O)NC(C(=O)NC(C(=O)NC(C(=O)NC)CC(=O)N)Cc%13ccc(O)cc%13)CO)CCCNC(=[NH2+])N)CC(=O)[O-])CCC%12)Cc%12ccc(O)cc%12)CC(C)C)Cc%12ccc(O)cc%12)Cc%12ccccc%12)CCC(=O)[O-])C)CO)CC(=O)[O-])C(CC)C)CC(C)C)C)CCC(=O)N)Cc%12ccccc%12)CC(C)C)CCC%11)CCCC[NH3+])CC(=O)N)Cc%11[nH]cnc%11)CCC%10)C(CC)C)C(O)C)CCC(=O)N)CC(C)C)C(CC)C)CC(=O)N)CC(=O)[O-])C(O)C)C(C)C)Cc%10ccc(O)cc%10)C(CC)C)C)Cc%10c%11c([nH]c%10)cccc%11)CCC(=O)N)CC(C)C)CCCNC(=[NH2+])N)C(O)C)CS)CO)CC(C)C)CCCNC(=[NH2+])N)Cc%10ccccc%10)C(CC)C)Cc%10ccc(O)cc%10)CO)CCC9)CCCC[NH3+])C(O)C)CO)Cc9ccc(O)cc9)CCCC[NH3+])CCC(=O)N)CC(C)C)CCCNC(=[NH2+])N)C)CCCC[NH3+])C(C)C)CCC(=O)[O-])CC(=O)[O-])Cc9ccc(O)cc9)C(O)C)CC(C)C)Cc9ccccc9)C)CCSC)Cc9ccc(O)cc9)CCC8)Cc8nc[nH]c8)C(O)C)C(C)C)C)CC(C)C)Cc8ccccc8)CC(=O)N)Cc8c9c([nH]c8)cccc9)CC(=O)N)CCCNC(=[NH2+])N)CC(C)C)C(CC)C)CO)Cc8c9c([nH]c8)cccc9)CCC7)CCC(=O)N)Cc7ccccc7)CC(C)C)CCCNC(=[NH2+])N)C(O)C)Cc7ccccc7)C(CC)C)CC(=O)[O-])Cc7ccccc7)CCC(=O)[O-])Cc7ccccc7)C(C)C)CO)C(CC)C)Cc7ccc(O)cc7)CC(=O)[O-])CC(=O)N)CS)C(O)C)CC(C)C)CC(=O)[O-])C(CC)C)C(O)C)CO)CCCC[NH3+])CC(C)C)C)CCSC)C)CCC(=O)[O-])CC(C)C)CO)CO)C(CC)C)CCC(=O)N)Cc7nc[nH]c7)C(C)C)CCC(=O)[O-])Cc7nc[nH]c7)CC(C)C)CS)CCC(=O)N)CCCNC(=[NH2+])N)Cc7ccccc7)C(C)C)CCCC[NH3+])Cc7c8c([nH]c7)cccc8)CCC6)C(C)C)C(CC)C)C(O)C)CCCC[NH3+])CC(=O)[O-])Cc6ccccc6)Cc6ccccc6)CCCC[NH3+])CCCNC(=[NH2+])N)Cc6c7c([nH]c6)cccc7)Cc6ccccc6)CCC(=O)[O-])C)C)CC(=O)[O-])C)CCCC[NH3+])C(O)C)C(CC)C)CCCNC(=[NH2+])N)Cc6ccccc6)CC(=O)N)CC(=O)[O-])CCC(=O)N)Cc6ccccc6)CCC(=O)N)CC(=O)N)CCC5)Cc5ccccc5)C(CC)C)C)CCCC[NH3+])C(CC)C)CCC(=O)[O-])C)CC(C)C)CCSC)Cc5nc[nH]c5)CO)Cc5ccccc5)C(CC)C)CC(C)C)CO)CC(C)C)CCCC[NH3+])C(O)C)CC(C)C)CC(=O)N)CCCNC(=[NH2+])N)CCCNC(=[NH2+])N)CC(=O)[O-])CCC(=O)N)CO)CCC(=O)N)CCC(=O)[O-])CCC(=O)[O-])Cc5ccc(O)cc5)CCSC)CCCNC(=[NH2+])N)CCC(=O)[O-])CCCC[NH3+])CCC(=O)[O-])CCCC[NH3+])Cc5ccccc5)CC(C)C)CCCNC(=[NH2+])N)C(CC)C)C)CCCNC(=[NH2+])N)CCCC[NH3+])CO)CCCC[NH3+])CCCC[NH3+])CCSC)CC(C)C)CO)CC(=O)[O-])C(CC)C)Cc5ccc(O)cc5)C(CC)C)CCCC[NH3+])Cc5ccccc5)Cc5ccc(O)cc5)CCC(=O)[O-])CC(=O)N)CCC(=O)[O-])CO)CC(C)C)CCC(=O)N)C)CC(C)C)CCCC[NH3+])CCC(=O)N)CC(=O)N)CC(=O)[O-])CC(=O)[O-])Cc5ccc(O)cc5)CCCC[NH3+])CO)CC(C)C)C(CC)C)CC(C)C)CCCNC(=[NH2+])N)CC(C)C)Cc5nc[nH]c5)CCC(=O)N)Cc5ccc(O)cc5)C(O)C)CC(=O)[O-])CCC4)CC(C)C)C(CC)C)CC(=O)[O-])CC(C)C)C(CC)C)Cc4ccc(O)cc4)CCC3)CCC2)CO)CC(=O)N)CCCC[NH3+])CC(C)C)CCC(=O)N)CC(C)C)CCCC[NH3+])CCC1)CC(=O)N)CCC(=O)N)CS)CC(C)C)CCCNC(=[NH2+])N)C(C)C)C(C)C)C)CC(=O)[O-])C.OCCO.[UH+3].[Zn+2].[Zn+2].O.O.O.O.O.O.O.O.O.O.O.O.O.O.O.O.O.O.O.O.O.O.O.O.O.O.O.O.O.O.O.O.O.O.O.O.O.O.O.O.O.O.O.O.O.O.O.O.O.O.O.O.O.O.O.O.O.O.O.O.O.O.O.O.O.O.O.O.O.O.O.O.O.O.O.O.O.O.O.O.O.O.O.O.O.O.O.O.O.O.O.O.O.O.O.O.O.O.O.O.O.O.O.O.O.O.O.O.O.O.O.O.O.O.O.O.O.O.O.O.O.O.O.O.O.O.O.O.O.O.O.O.O.O.O.O.O.O.O.O.O.O

>  <rseq>
1

>  <mseq>
94

>  <S>
-6.8678212

>  <rmsd_refine>
1.8066525

>  <E_conf>
103.79819

>  <E_place>
-53.138084

>  <E_score1>
-10.237737

>  <E_refine>
-24.385647

>  <E_score2>
-6.8678212

>  <Field_2>
VN04

>  <pseq>
94

>  <%C>
100

>  <a_heavy>
23

>  <h_logP>
5.1750159

>  <Weight>
447.095

>  <E_orig>
1.0029529

>  <PLIF_raw>
[[],[],[],[],[]]

>  <PLIF_ligidx>
[]

$$$$

  MOE2020           3D

 40 42  0  0  1  0  0  0  0  0999 V2000
    3.9110    7.1400   18.3340 C   0  0  2  0  0  0  0  0  0  0  0  0
    3.8560    6.3270   16.9980 C   0  0  2  0  0  0  0  0  0  0  0  0
    4.9940    5.3450   17.4820 C   0  0  3  0  0  0  0  0  0  0  0  0
    4.6280    5.8710   18.9120 C   0  0  0  0  0  0  0  0  0  0  0  0
    3.8070    5.0260   19.5950 F   0  0  0  0  0  0  0  0  0  0  0  0
    5.6460    6.1210   19.7370 F   0  0  0  0  0  0  0  0  0  0  0  0
    4.5740    3.9480   17.2300 C   0  0  0  0  0  0  0  0  0  0  0  0
    4.2490    2.8850   17.0030 N   0  0  0  0  0  0  0  0  0  0  0  0
    6.5240    5.5410   17.0110 C   0  0  0  0  0  0  0  0  0  0  0  0
    7.0560    6.9950   17.1400 C   0  0  0  0  0  0  0  0  0  0  0  0
    8.0950    7.0490   16.8160 H   0  0  0  0  0  0  0  0  0  0  0  0
    7.0360    7.3550   18.1660 H   0  0  0  0  0  0  0  0  0  0  0  0
    6.5000    7.7030   16.5320 H   0  0  0  0  0  0  0  0  0  0  0  0
    6.7370    5.0690   15.5420 C   0  0  0  0  0  0  0  0  0  0  0  0
    7.7840    5.1620   15.2590 H   0  0  0  0  0  0  0  0  0  0  0  0
    6.1810    5.6470   14.8120 H   0  0  0  0  0  0  0  0  0  0  0  0
    6.4710    4.0210   15.4060 H   0  0  0  0  0  0  0  0  0  0  0  0
    7.4630    4.6440   17.8620 C   0  0  0  0  0  0  0  0  0  0  0  0
    7.5430    4.9700   18.8970 H   0  0  0  0  0  0  0  0  0  0  0  0
    8.4750    4.6490   17.4600 H   0  0  0  0  0  0  0  0  0  0  0  0
    7.1300    3.6100   17.8630 H   0  0  0  0  0  0  0  0  0  0  0  0
    4.1400    7.1500   15.4010 S   0  0  0  0  0  0  0  0  0  0  0  0
    3.8050    6.0710   14.6330 H   0  0  0  0  0  0  0  0  0  0  0  0
    2.6870    7.6260   19.3140 B   0  5  0  0  0  0  0  0  0  0  0  0
    2.8230    7.1750   20.3850 H   0  0  0  0  0  0  0  0  0  0  0  0
    1.5650    8.6510   19.1770 C   0  0  0  0  0  0  0  0  0  0  0  0
    1.0470    9.0890   17.9280 C   0  0  0  0  0  0  0  0  0  0  0  0
    1.5350    8.8680   17.0180 H   0  0  0  0  0  0  0  0  0  0  0  0
   -0.1910    9.7360   17.9750 C   0  0  0  0  0  0  0  0  0  0  0  0
   -0.8620   10.0360   19.1330 C   0  0  0  0  0  0  0  0  0  0  0  0
   -0.4210    9.8210   20.3960 C   0  0  0  0  0  0  0  0  0  0  0  0
   -0.9460   10.1040   21.2730 H   0  0  0  0  0  0  0  0  0  0  0  0
    0.8620    9.1790   20.4150 C   0  0  0  0  0  0  0  0  0  0  0  0
    1.7420    9.1110   22.3760 I   0  3  0  0  0  0  0  0  0  0  0  0
   -1.9850   10.5210   18.5160 O   0  0  0  0  0  0  0  0  0  0  0  0
   -1.3700   10.3060   17.2180 C   0  0  0  0  0  0  0  0  0  0  0  0
   -1.9060    9.6140   16.5830 H   0  0  0  0  0  0  0  0  0  0  0  0
   -1.2590   11.2430   16.7010 H   0  0  0  0  0  0  0  0  0  0  0  0
    4.5930    7.9680   18.2280 H   0  0  0  0  0  0  0  0  0  0  0  0
    2.9100    5.8160   16.9310 H   0  0  0  0  0  0  0  0  0  0  0  0
  1  2  1  0  0  0  0
  1  4  1  0  0  0  0
  1 24  1  0  0  0  0
  1 39  1  0  0  0  0
  2  3  1  0  0  0  0
  2 22  1  0  0  0  0
  2 40  1  0  0  0  0
  3  4  1  0  0  0  0
  3  7  1  0  0  0  0
  3  9  1  0  0  0  0
  4  5  1  0  0  0  0
  4  6  1  0  0  0  0
  7  8  3  0  0  0  0
  9 10  1  0  0  0  0
  9 14  1  0  0  0  0
  9 18  1  0  0  0  0
 10 11  1  0  0  0  0
 10 12  1  0  0  0  0
 10 13  1  0  0  0  0
 14 15  1  0  0  0  0
 14 16  1  0  0  0  0
 14 17  1  0  0  0  0
 18 19  1  0  0  0  0
 18 20  1  0  0  0  0
 18 21  1  0  0  0  0
 22 23  1  0  0  0  0
 24 25  1  0  0  0  0
 24 26  2  0  0  0  0
 26 27  1  0  0  0  0
 26 33  1  0  0  0  0
 27 28  1  0  0  0  0
 27 29  2  0  0  0  0
 29 30  1  0  0  0  0
 29 36  1  0  0  0  0
 30 31  2  0  0  0  0
 30 35  1  0  0  0  0
 31 32  1  0  0  0  0
 31 33  1  0  0  0  0
 33 34  2  0  0  0  0
 35 36  1  0  0  0  0
 36 37  1  0  0  0  0
 36 38  1  0  0  0  0
M  CHG  1  24  -1
M  CHG  1  34   1
M  END
>  <receptor>
S(=O)(=O)([O-])[O-].S(CCC(NC(=O)C(NC(=O)C(NC(=O)CNC(=O)C(NC(=O)C1N(C(=O)C(NC(=O)C(NC(=O)C(NC(=O)C(NC(=O)C(NC(=O)C(NC(=O)C(NC(=O)C(NC(=O)C(NC(=O)C(NC(=O)C(NC(=O)C(NC(=O)C(NC(=O)C(NC(=O)C(NC(=O)C(NC(=O)C(NC(=O)C(NC(=O)C(NC(=O)CNC(=O)C(NC(=O)C(NC(=O)C(NC(=O)C(NC(=O)C(NC(=O)C(NC(=O)C(NC(=O)C(NC(=O)C(NC(=O)C(NC(=O)C(NC(=O)C(NC(=O)C(NC(=O)C)CCCC[NH3+])C(C)C)C(O)C)CCC(=O)N)CCC(=O)[O-])CCC(=O)N)Cc2ccccc2)CCC(=O)[O-])CC(C)C)Cc2ccc(O)cc2)CS)CCC(=O)[O-])CCSC)CO)C(O)C)Cc2ccccc2)CCC(=O)N)CC(C)C)C[S-])CCCC[NH3+])C(CC)C)C[S-])C)CCC(=O)[O-])CC(=O)N)CC(=O)[O-])CCCC[NH3+])CC(=O)[O-])C(C)C)CCCC[NH3+])C(CC)C)CCC(=O)[O-])CCC1)C[S-])Cc1nc[n-]c1)CC(C)C)C(=O)NC(C(=O)NC(C(=O)NC(C(=O)NC(C(=O)NC(C(=O)NC(C(=O)NC(C(=O)NC(C(=O)NC(C(=O)NC(C(=O)NC(C(=O)NC(C(=O)NCC(=O)NC(C(=O)NCC(=O)NC(C(=O)N1C(C(=O)NC(C(=O)NC(C(=O)NC(C(=O)NC(C(=O)NC(C(=O)NC(C(=O)NC(C(=O)NCC(=O)NC(C(=O)NC(C(=O)N2C(C(=O)NC(C(=O)NC(C(=O)NC(C(=O)NC(C(=O)N3C(C(=O)NC(C(=O)NC(C(=O)[O-])CC(=O)[O-])Cc4ccccc4)CCC3)CC(=O)[O-])C(C)C)C(CC)C)C(CC)C)CCC2)CCC(=O)[O-])C(O)C)CCCC[NH3+])C(CC)C)CCC(=O)[O-])CS)CCCNC(=[NH2+])N)C[S-])Cc2ccccc2)CCC1)C[S-])CCC(=O)N)CC(=O)[O-])CO)CCC(=O)[O-])CCC(=O)N)Cc1c2c([nH]c1)cccc2)C)C(O)C)CC(C)C)C[S-])CO)C(O)C)C[S-])C.S(CCC(NC(=O)C(NC(=O)C(NC(=O)C(NC(=O)C(NC(=O)C(NC(=O)C(NC(=O)C(NC(=O)C(NC(=O)C(NC(=O)C(NC(=O)C(NC(=O)C(NC(=O)C(NC(=O)C(NC(=O)C(NC(=O)C[NH3+])CCC(=O)N)C)C)C)CC(=O)[O-])CCCNC(=[NH2+])N)CCCNC(=[NH2+])N)C(O)C)C(C)C)CCC(=O)[O-])CCCC[NH3+])C(O)C)Cc1c2c([nH]c1)cccc2)C)CC(C)C)C(=O)NC(C(=O)NC(C(=O)NC(C(=O)NC(C(=O)NC(C(=O)NC(C(=O)NC(C(=O)NC(C(=O)NC(C(=O)N1C(C(=O)NC(C(=O)NC(C(=O)NC(C(=O)NC(C(=O)NC(C(=O)NC(C(=O)NC(C(=O)N2C(C(=O)N3C(C(=O)NC(C(=O)NC(C(=O)NC(C(=O)NC(C(=O)NC(C(=O)NC(C(=O)N4C(C(=O)NC(C(=O)NC(C(=O)NC(C(=O)NC(C(=O)NC(C(=O)NC(C(=O)NC(C(=O)NC(C(=O)NC(C(=O)NC(C(=O)NC(C(=O)NC(C(=O)NC(C(=O)NC(C(=O)NC(C(=O)NC(C(=O)NC(C(=O)NC(C(=O)NC(C(=O)NC(C(=O)NC(C(=O)NC(C(=O)NC(C(=O)NC(C(=O)NC(C(=O)NC(C(=O)NC(C(=O)NC(C(=O)NC(C(=O)NC(C(=O)NC(C(=O)NC(C(=O)NC(C(=O)NC(C(=O)NC(C(=O)NC(C(=O)NC(C(=O)NC(C(=O)NC(C(=O)NC(C(=O)NC(C(=O)NC(C(=O)NC(C(=O)NC(C(=O)NC(C(=O)NC(C(=O)NC(C(=O)NC(C(=O)NCC(=O)NC(C(=O)NC(C(=O)NC(C(=O)NC(C(=O)NC(C(=O)NC(C(=O)NC(C(=O)NC(C(=O)NC(C(=O)NC(C(=O)NC(C(=O)NC(C(=O)NC(C(=O)NC(C(=O)NC(C(=O)NC(C(=O)NC(C(=O)NC(C(=O)NC(C(=O)NC(C(=O)NC(C(=O)NC(C(=O)NC(C(=O)NC(C(=O)NC(C(=O)NC(C(=O)NC(C(=O)NC(C(=O)NC(C(=O)NC(C(=O)NC(C(=O)NC(C(=O)NC(C(=O)N5C(C(=O)NC(C(=O)NCC(=O)NC(C(=O)NC(C(=O)NC(C(=O)NCC(=O)NC(C(=O)NC(C(=O)NC(C(=O)NC(C(=O)NC(C(=O)NC(C(=O)NC(C(=O)NC(C(=O)NC(C(=O)NC(C(=O)NC(C(=O)NC(C(=O)NC(C(=O)NC(C(=O)NC(C(=O)NC(C(=O)NC(C(=O)NC(C(=O)NCC(=O)NC(C(=O)NC(C(=O)NC(C(=O)NC(C(=O)NC(C(=O)N6C(C(=O)NC(C(=O)NC(C(=O)NC(C(=O)NC(C(=O)NC(C(=O)NC(C(=O)NC(C(=O)NC(C(=O)NC(C(=O)NC(C(=O)NC(C(=O)NC(C(=O)NC(C(=O)NC(C(=O)NC(C(=O)NC(C(=O)NCC(=O)NC(C(=O)NC(C(=O)NC(C(=O)NC(C(=O)NC(C(=O)NC(C(=O)NC(C(=O)NC(C(=O)NC(C(=O)NC(C(=O)NC(C(=O)NC(C(=O)NC(C(=O)NC(C(=O)NC(C(=O)NC(C(=O)NC(C(=O)NC(C(=O)NC(C(=O)NC(C(=O)NC(C(=O)NC(C(=O)NC(C(=O)NC(C(=O)NC(C(=O)NC(C(=O)NC(C(=O)NC(C(=O)NC(C(=O)NC(C(=O)NC(C(=O)N7C(C(=O)NC(C(=O)NCC(=O)NC(C(=O)NC(C(=O)NC(C(=O)NC(C(=O)NC(C(=O)NC(C(=O)NC(C(=O)NC(C(=O)NC(C(=O)NC(C(=O)NC(C(=O)NC(C(=O)NC(C(=O)N8C(C(=O)NCC(=O)NC(C(=O)NC(C(=O)NC(C(=O)NC(C(=O)NC(C(=O)NC(C(=O)NC(C(=O)NC(C(=O)NC(C(=O)NC(C(=O)NC(C(=O)NC(C(=O)NC(C(=O)NC(C(=O)NC(C(=O)NC(C(=O)NC(C(=O)NC(C(=O)NC(C(=O)NC(C(=O)N9C(C(=O)NCC(=O)NC(C(=O)NC(C(=O)NC(C(=O)NC(C(=O)NC(C(=O)NC(C(=O)NC(C(=O)NC(C(=O)NC(C(=O)NC(C(=O)NC(C(=O)NCC(=O)NC(C(=O)NC(C(=O)NC(C(=O)NC(C(=O)NCC(=O)NC(C(=O)NC(C(=O)NC(C(=O)NCC(=O)NC(C(=O)NCC(=O)NC(C(=O)NC(C(=O)NC(C(=O)NC(C(=O)NC(C(=O)NC(C(=O)N%10C(C(=O)NC(C(=O)NC(C(=O)NC(C(=O)N%11C(C(=O)NC(C(=O)NC(C(=O)NC(C(=O)NC(C(=O)NC(C(=O)NC(C(=O)NC(C(=O)NCC(=O)NC(C(=O)NC(C(=O)NC(C(=O)NCC(=O)NC(C(=O)NC(C(=O)NC(C(=O)NC(C(=O)N%12C(C(=O)NC(C(=O)NCC(=O)NC(C(=O)NC(C(=O)NC(C(=O)NC(C(=O)NC)CC(=O)N)Cc%13ccc(O)cc%13)CO)CCCNC(=[NH2+])N)CC(=O)[O-])CCC%12)Cc%12ccc(O)cc%12)CC(C)C)Cc%12ccc(O)cc%12)Cc%12ccccc%12)CCC(=O)[O-])C)CO)CC(=O)[O-])C(CC)C)CC(C)C)C)CCC(=O)N)Cc%12ccccc%12)CC(C)C)CCC%11)CCCC[NH3+])CC(=O)N)Cc%11[nH]cnc%11)CCC%10)C(CC)C)C(O)C)CCC(=O)N)CC(C)C)C(CC)C)CC(=O)N)CC(=O)[O-])C(O)C)C(C)C)Cc%10ccc(O)cc%10)C(CC)C)C)Cc%10c%11c([nH]c%10)cccc%11)CCC(=O)N)CC(C)C)CCCNC(=[NH2+])N)C(O)C)CS)CO)CC(C)C)CCCNC(=[NH2+])N)Cc%10ccccc%10)C(CC)C)Cc%10ccc(O)cc%10)CO)CCC9)CCCC[NH3+])C(O)C)CO)Cc9ccc(O)cc9)CCCC[NH3+])CCC(=O)N)CC(C)C)CCCNC(=[NH2+])N)C)CCCC[NH3+])C(C)C)CCC(=O)[O-])CC(=O)[O-])Cc9ccc(O)cc9)C(O)C)CC(C)C)Cc9ccccc9)C)CCSC)Cc9ccc(O)cc9)CCC8)Cc8nc[nH]c8)C(O)C)C(C)C)C)CC(C)C)Cc8ccccc8)CC(=O)N)Cc8c9c([nH]c8)cccc9)CC(=O)N)CCCNC(=[NH2+])N)CC(C)C)C(CC)C)CO)Cc8c9c([nH]c8)cccc9)CCC7)CCC(=O)N)Cc7ccccc7)CC(C)C)CCCNC(=[NH2+])N)C(O)C)Cc7ccccc7)C(CC)C)CC(=O)[O-])Cc7ccccc7)CCC(=O)[O-])Cc7ccccc7)C(C)C)CO)C(CC)C)Cc7ccc(O)cc7)CC(=O)[O-])CC(=O)N)CS)C(O)C)CC(C)C)CC(=O)[O-])C(CC)C)C(O)C)CO)CCCC[NH3+])CC(C)C)C)CCSC)C)CCC(=O)[O-])CC(C)C)CO)CO)C(CC)C)CCC(=O)N)Cc7nc[nH]c7)C(C)C)CCC(=O)[O-])Cc7nc[nH]c7)CC(C)C)CS)CCC(=O)N)CCCNC(=[NH2+])N)Cc7ccccc7)C(C)C)CCCC[NH3+])Cc7c8c([nH]c7)cccc8)CCC6)C(C)C)C(CC)C)C(O)C)CCCC[NH3+])CC(=O)[O-])Cc6ccccc6)Cc6ccccc6)CCCC[NH3+])CCCNC(=[NH2+])N)Cc6c7c([nH]c6)cccc7)Cc6ccccc6)CCC(=O)[O-])C)C)CC(=O)[O-])C)CCCC[NH3+])C(O)C)C(CC)C)CCCNC(=[NH2+])N)Cc6ccccc6)CC(=O)N)CC(=O)[O-])CCC(=O)N)Cc6ccccc6)CCC(=O)N)CC(=O)N)CCC5)Cc5ccccc5)C(CC)C)C)CCCC[NH3+])C(CC)C)CCC(=O)[O-])C)CC(C)C)CCSC)Cc5nc[nH]c5)CO)Cc5ccccc5)C(CC)C)CC(C)C)CO)CC(C)C)CCCC[NH3+])C(O)C)CC(C)C)CC(=O)N)CCCNC(=[NH2+])N)CCCNC(=[NH2+])N)CC(=O)[O-])CCC(=O)N)CO)CCC(=O)N)CCC(=O)[O-])CCC(=O)[O-])Cc5ccc(O)cc5)CCSC)CCCNC(=[NH2+])N)CCC(=O)[O-])CCCC[NH3+])CCC(=O)[O-])CCCC[NH3+])Cc5ccccc5)CC(C)C)CCCNC(=[NH2+])N)C(CC)C)C)CCCNC(=[NH2+])N)CCCC[NH3+])CO)CCCC[NH3+])CCCC[NH3+])CCSC)CC(C)C)CO)CC(=O)[O-])C(CC)C)Cc5ccc(O)cc5)C(CC)C)CCCC[NH3+])Cc5ccccc5)Cc5ccc(O)cc5)CCC(=O)[O-])CC(=O)N)CCC(=O)[O-])CO)CC(C)C)CCC(=O)N)C)CC(C)C)CCCC[NH3+])CCC(=O)N)CC(=O)N)CC(=O)[O-])CC(=O)[O-])Cc5ccc(O)cc5)CCCC[NH3+])CO)CC(C)C)C(CC)C)CC(C)C)CCCNC(=[NH2+])N)CC(C)C)Cc5nc[nH]c5)CCC(=O)N)Cc5ccc(O)cc5)C(O)C)CC(=O)[O-])CCC4)CC(C)C)C(CC)C)CC(=O)[O-])CC(C)C)C(CC)C)Cc4ccc(O)cc4)CCC3)CCC2)CO)CC(=O)N)CCCC[NH3+])CC(C)C)CCC(=O)N)CC(C)C)CCCC[NH3+])CCC1)CC(=O)N)CCC(=O)N)CS)CC(C)C)CCCNC(=[NH2+])N)C(C)C)C(C)C)C)CC(=O)[O-])C.OCCO.[UH+3].[Zn+2].[Zn+2].O.O.O.O.O.O.O.O.O.O.O.O.O.O.O.O.O.O.O.O.O.O.O.O.O.O.O.O.O.O.O.O.O.O.O.O.O.O.O.O.O.O.O.O.O.O.O.O.O.O.O.O.O.O.O.O.O.O.O.O.O.O.O.O.O.O.O.O.O.O.O.O.O.O.O.O.O.O.O.O.O.O.O.O.O.O.O.O.O.O.O.O.O.O.O.O.O.O.O.O.O.O.O.O.O.O.O.O.O.O.O.O.O.O.O.O.O.O.O.O.O.O.O.O.O.O.O.O.O.O.O.O.O.O.O.O.O.O.O.O.O.O

>  <rseq>
1

>  <mseq>
95

>  <S>
-6.4108

>  <rmsd_refine>
1.6485943

>  <E_conf>
66.553551

>  <E_place>
-40.702381

>  <E_score1>
-12.320049

>  <E_refine>
-18.627146

>  <E_score2>
-6.4108

>  <Field_2>
VN05

>  <pseq>
95

>  <%C>
100

>  <a_heavy>
23

>  <h_logP>
4.5448718

>  <Weight>
447.095

>  <E_orig>
0

>  <PLIF_raw>
[[10,10,10,10,10,10],[5143,5141,5137,5134,5135,5139],[363,363,363,363,363,363],[10,10,10,10,10,10],[0.5,0.5,0.5,0.5,0.5,0.5]]

>  <FP:PLIF>
22

>  <PLIF_ligidx>
[[10,10,10,10,10,10]]

$$$$

  MOE2020           3D

 40 42  0  0  1  0  0  0  0  0999 V2000
    3.3350    5.4460   18.5820 C   0  0  0  0  0  0  0  0  0  0  0  0
    3.9020    5.7300   17.1260 C   0  0  2  0  0  0  0  0  0  0  0  0
    5.1860    4.9240   17.4290 C   0  0  3  0  0  0  0  0  0  0  0  0
    4.8350    5.1290   18.9210 C   0  0  0  0  0  0  0  0  0  0  0  0
    4.9410    4.0130   19.6870 F   0  0  0  0  0  0  0  0  0  0  0  0
    5.4570    6.1210   19.5890 F   0  0  0  0  0  0  0  0  0  0  0  0
    4.8980    3.5350   17.0130 C   0  0  0  0  0  0  0  0  0  0  0  0
    4.5960    2.4970   16.6780 N   0  0  0  0  0  0  0  0  0  0  0  0
    6.6160    5.3910   16.9050 C   0  0  0  0  0  0  0  0  0  0  0  0
    7.6950    4.5630   17.6320 C   0  0  0  0  0  0  0  0  0  0  0  0
    7.7160    4.7880   18.6990 H   0  0  0  0  0  0  0  0  0  0  0  0
    8.6820    4.7690   17.2300 H   0  0  0  0  0  0  0  0  0  0  0  0
    7.5230    3.5000   17.5160 H   0  0  0  0  0  0  0  0  0  0  0  0
    6.7350    5.1160   15.3840 C   0  0  0  0  0  0  0  0  0  0  0  0
    6.6530    4.0540   15.1480 H   0  0  0  0  0  0  0  0  0  0  0  0
    7.7020    5.4450   15.0030 H   0  0  0  0  0  0  0  0  0  0  0  0
    5.9620    5.6430   14.8250 H   0  0  0  0  0  0  0  0  0  0  0  0
    6.9950    6.8830   17.1290 C   0  0  0  0  0  0  0  0  0  0  0  0
    8.0200    7.0560   16.8000 H   0  0  0  0  0  0  0  0  0  0  0  0
    6.9720    7.1840   18.1720 H   0  0  0  0  0  0  0  0  0  0  0  0
    6.3810    7.5700   16.5580 H   0  0  0  0  0  0  0  0  0  0  0  0
    3.9470    7.2030   16.5430 B   0  0  0  0  0  0  0  0  0  0  0  0
    4.4220    7.3020   15.4830 H   0  0  0  0  0  0  0  0  0  0  0  0
    3.0180    7.8890   16.6610 H   0  0  0  0  0  0  0  0  0  0  0  0
    2.4580    7.1310   19.4850 I   0  0  0  0  0  0  0  0  0  0  0  0
    1.5310    8.7550   20.3390 C   0  0  0  0  0  0  0  0  0  0  0  0
    1.1850    8.6500   21.7030 C   0  0  0  0  0  0  0  0  0  0  0  0
    1.4490    7.8200   22.2950 H   0  0  0  0  0  0  0  0  0  0  0  0
    0.4670    9.7130   22.1870 C   0  0  0  0  0  0  0  0  0  0  0  0
    0.1390   10.8030   21.4530 C   0  0  0  0  0  0  0  0  0  0  0  0
    0.4530   11.0190   20.1370 C   0  0  0  0  0  0  0  0  0  0  0  0
    0.1770   11.8900   19.6020 H   0  0  0  0  0  0  0  0  0  0  0  0
    1.1850    9.9400   19.5680 C   0  0  0  0  0  0  0  0  0  0  0  0
    1.6620   10.0800   17.8930 S   0  0  0  0  0  0  0  0  0  0  0  0
    1.0310   11.2800   17.6330 H   0  0  0  0  0  0  0  0  0  0  0  0
   -0.5310   11.4460   22.5100 O   0  0  0  0  0  0  0  0  0  0  0  0
   -0.2480   10.2860   23.3750 C   0  0  0  0  0  0  0  0  0  0  0  0
    0.3760   10.5030   24.2270 H   0  0  0  0  0  0  0  0  0  0  0  0
   -1.1300    9.7480   23.6920 H   0  0  0  0  0  0  0  0  0  0  0  0
    3.2700    5.1950   16.4370 H   0  0  0  0  0  0  0  0  0  0  0  0
  1  2  1  0  0  0  0
  1  4  1  0  0  0  0
  1 25  1  0  0  0  0
  2  3  1  0  0  0  0
  2 22  1  0  0  0  0
  2 40  1  0  0  0  0
  3  4  1  0  0  0  0
  3  7  1  0  0  0  0
  3  9  1  0  0  0  0
  4  5  1  0  0  0  0
  4  6  1  0  0  0  0
  7  8  3  0  0  0  0
  9 10  1  0  0  0  0
  9 14  1  0  0  0  0
  9 18  1  0  0  0  0
 10 11  1  0  0  0  0
 10 12  1  0  0  0  0
 10 13  1  0  0  0  0
 14 15  1  0  0  0  0
 14 16  1  0  0  0  0
 14 17  1  0  0  0  0
 18 19  1  0  0  0  0
 18 20  1  0  0  0  0
 18 21  1  0  0  0  0
 22 23  1  0  0  0  0
 22 24  1  0  0  0  0
 25 26  1  0  0  0  0
 26 27  1  0  0  0  0
 26 33  2  0  0  0  0
 27 28  1  0  0  0  0
 27 29  2  0  0  0  0
 29 30  1  0  0  0  0
 29 37  1  0  0  0  0
 30 31  2  0  0  0  0
 30 36  1  0  0  0  0
 31 32  1  0  0  0  0
 31 33  1  0  0  0  0
 33 34  1  0  0  0  0
 34 35  1  0  0  0  0
 36 37  1  0  0  0  0
 37 38  1  0  0  0  0
 37 39  1  0  0  0  0
M  END
>  <receptor>
S(=O)(=O)([O-])[O-].S(CCC(NC(=O)C(NC(=O)C(NC(=O)CNC(=O)C(NC(=O)C1N(C(=O)C(NC(=O)C(NC(=O)C(NC(=O)C(NC(=O)C(NC(=O)C(NC(=O)C(NC(=O)C(NC(=O)C(NC(=O)C(NC(=O)C(NC(=O)C(NC(=O)C(NC(=O)C(NC(=O)C(NC(=O)C(NC(=O)C(NC(=O)C(NC(=O)C(NC(=O)CNC(=O)C(NC(=O)C(NC(=O)C(NC(=O)C(NC(=O)C(NC(=O)C(NC(=O)C(NC(=O)C(NC(=O)C(NC(=O)C(NC(=O)C(NC(=O)C(NC(=O)C(NC(=O)C)CCCC[NH3+])C(C)C)C(O)C)CCC(=O)N)CCC(=O)[O-])CCC(=O)N)Cc2ccccc2)CCC(=O)[O-])CC(C)C)Cc2ccc(O)cc2)CS)CCC(=O)[O-])CCSC)CO)C(O)C)Cc2ccccc2)CCC(=O)N)CC(C)C)C[S-])CCCC[NH3+])C(CC)C)C[S-])C)CCC(=O)[O-])CC(=O)N)CC(=O)[O-])CCCC[NH3+])CC(=O)[O-])C(C)C)CCCC[NH3+])C(CC)C)CCC(=O)[O-])CCC1)C[S-])Cc1nc[n-]c1)CC(C)C)C(=O)NC(C(=O)NC(C(=O)NC(C(=O)NC(C(=O)NC(C(=O)NC(C(=O)NC(C(=O)NC(C(=O)NC(C(=O)NC(C(=O)NC(C(=O)NC(C(=O)NCC(=O)NC(C(=O)NCC(=O)NC(C(=O)N1C(C(=O)NC(C(=O)NC(C(=O)NC(C(=O)NC(C(=O)NC(C(=O)NC(C(=O)NC(C(=O)NCC(=O)NC(C(=O)NC(C(=O)N2C(C(=O)NC(C(=O)NC(C(=O)NC(C(=O)NC(C(=O)N3C(C(=O)NC(C(=O)NC(C(=O)[O-])CC(=O)[O-])Cc4ccccc4)CCC3)CC(=O)[O-])C(C)C)C(CC)C)C(CC)C)CCC2)CCC(=O)[O-])C(O)C)CCCC[NH3+])C(CC)C)CCC(=O)[O-])CS)CCCNC(=[NH2+])N)C[S-])Cc2ccccc2)CCC1)C[S-])CCC(=O)N)CC(=O)[O-])CO)CCC(=O)[O-])CCC(=O)N)Cc1c2c([nH]c1)cccc2)C)C(O)C)CC(C)C)C[S-])CO)C(O)C)C[S-])C.S(CCC(NC(=O)C(NC(=O)C(NC(=O)C(NC(=O)C(NC(=O)C(NC(=O)C(NC(=O)C(NC(=O)C(NC(=O)C(NC(=O)C(NC(=O)C(NC(=O)C(NC(=O)C(NC(=O)C(NC(=O)C(NC(=O)C[NH3+])CCC(=O)N)C)C)C)CC(=O)[O-])CCCNC(=[NH2+])N)CCCNC(=[NH2+])N)C(O)C)C(C)C)CCC(=O)[O-])CCCC[NH3+])C(O)C)Cc1c2c([nH]c1)cccc2)C)CC(C)C)C(=O)NC(C(=O)NC(C(=O)NC(C(=O)NC(C(=O)NC(C(=O)NC(C(=O)NC(C(=O)NC(C(=O)NC(C(=O)N1C(C(=O)NC(C(=O)NC(C(=O)NC(C(=O)NC(C(=O)NC(C(=O)NC(C(=O)NC(C(=O)N2C(C(=O)N3C(C(=O)NC(C(=O)NC(C(=O)NC(C(=O)NC(C(=O)NC(C(=O)NC(C(=O)N4C(C(=O)NC(C(=O)NC(C(=O)NC(C(=O)NC(C(=O)NC(C(=O)NC(C(=O)NC(C(=O)NC(C(=O)NC(C(=O)NC(C(=O)NC(C(=O)NC(C(=O)NC(C(=O)NC(C(=O)NC(C(=O)NC(C(=O)NC(C(=O)NC(C(=O)NC(C(=O)NC(C(=O)NC(C(=O)NC(C(=O)NC(C(=O)NC(C(=O)NC(C(=O)NC(C(=O)NC(C(=O)NC(C(=O)NC(C(=O)NC(C(=O)NC(C(=O)NC(C(=O)NC(C(=O)NC(C(=O)NC(C(=O)NC(C(=O)NC(C(=O)NC(C(=O)NC(C(=O)NC(C(=O)NC(C(=O)NC(C(=O)NC(C(=O)NC(C(=O)NC(C(=O)NC(C(=O)NC(C(=O)NC(C(=O)NCC(=O)NC(C(=O)NC(C(=O)NC(C(=O)NC(C(=O)NC(C(=O)NC(C(=O)NC(C(=O)NC(C(=O)NC(C(=O)NC(C(=O)NC(C(=O)NC(C(=O)NC(C(=O)NC(C(=O)NC(C(=O)NC(C(=O)NC(C(=O)NC(C(=O)NC(C(=O)NC(C(=O)NC(C(=O)NC(C(=O)NC(C(=O)NC(C(=O)NC(C(=O)NC(C(=O)NC(C(=O)NC(C(=O)NC(C(=O)NC(C(=O)NC(C(=O)NC(C(=O)NC(C(=O)N5C(C(=O)NC(C(=O)NCC(=O)NC(C(=O)NC(C(=O)NC(C(=O)NCC(=O)NC(C(=O)NC(C(=O)NC(C(=O)NC(C(=O)NC(C(=O)NC(C(=O)NC(C(=O)NC(C(=O)NC(C(=O)NC(C(=O)NC(C(=O)NC(C(=O)NC(C(=O)NC(C(=O)NC(C(=O)NC(C(=O)NC(C(=O)NC(C(=O)NCC(=O)NC(C(=O)NC(C(=O)NC(C(=O)NC(C(=O)NC(C(=O)N6C(C(=O)NC(C(=O)NC(C(=O)NC(C(=O)NC(C(=O)NC(C(=O)NC(C(=O)NC(C(=O)NC(C(=O)NC(C(=O)NC(C(=O)NC(C(=O)NC(C(=O)NC(C(=O)NC(C(=O)NC(C(=O)NC(C(=O)NCC(=O)NC(C(=O)NC(C(=O)NC(C(=O)NC(C(=O)NC(C(=O)NC(C(=O)NC(C(=O)NC(C(=O)NC(C(=O)NC(C(=O)NC(C(=O)NC(C(=O)NC(C(=O)NC(C(=O)NC(C(=O)NC(C(=O)NC(C(=O)NC(C(=O)NC(C(=O)NC(C(=O)NC(C(=O)NC(C(=O)NC(C(=O)NC(C(=O)NC(C(=O)NC(C(=O)NC(C(=O)NC(C(=O)NC(C(=O)NC(C(=O)NC(C(=O)N7C(C(=O)NC(C(=O)NCC(=O)NC(C(=O)NC(C(=O)NC(C(=O)NC(C(=O)NC(C(=O)NC(C(=O)NC(C(=O)NC(C(=O)NC(C(=O)NC(C(=O)NC(C(=O)NC(C(=O)NC(C(=O)N8C(C(=O)NCC(=O)NC(C(=O)NC(C(=O)NC(C(=O)NC(C(=O)NC(C(=O)NC(C(=O)NC(C(=O)NC(C(=O)NC(C(=O)NC(C(=O)NC(C(=O)NC(C(=O)NC(C(=O)NC(C(=O)NC(C(=O)NC(C(=O)NC(C(=O)NC(C(=O)NC(C(=O)NC(C(=O)N9C(C(=O)NCC(=O)NC(C(=O)NC(C(=O)NC(C(=O)NC(C(=O)NC(C(=O)NC(C(=O)NC(C(=O)NC(C(=O)NC(C(=O)NC(C(=O)NC(C(=O)NCC(=O)NC(C(=O)NC(C(=O)NC(C(=O)NC(C(=O)NCC(=O)NC(C(=O)NC(C(=O)NC(C(=O)NCC(=O)NC(C(=O)NCC(=O)NC(C(=O)NC(C(=O)NC(C(=O)NC(C(=O)NC(C(=O)NC(C(=O)N%10C(C(=O)NC(C(=O)NC(C(=O)NC(C(=O)N%11C(C(=O)NC(C(=O)NC(C(=O)NC(C(=O)NC(C(=O)NC(C(=O)NC(C(=O)NC(C(=O)NCC(=O)NC(C(=O)NC(C(=O)NC(C(=O)NCC(=O)NC(C(=O)NC(C(=O)NC(C(=O)NC(C(=O)N%12C(C(=O)NC(C(=O)NCC(=O)NC(C(=O)NC(C(=O)NC(C(=O)NC(C(=O)NC)CC(=O)N)Cc%13ccc(O)cc%13)CO)CCCNC(=[NH2+])N)CC(=O)[O-])CCC%12)Cc%12ccc(O)cc%12)CC(C)C)Cc%12ccc(O)cc%12)Cc%12ccccc%12)CCC(=O)[O-])C)CO)CC(=O)[O-])C(CC)C)CC(C)C)C)CCC(=O)N)Cc%12ccccc%12)CC(C)C)CCC%11)CCCC[NH3+])CC(=O)N)Cc%11[nH]cnc%11)CCC%10)C(CC)C)C(O)C)CCC(=O)N)CC(C)C)C(CC)C)CC(=O)N)CC(=O)[O-])C(O)C)C(C)C)Cc%10ccc(O)cc%10)C(CC)C)C)Cc%10c%11c([nH]c%10)cccc%11)CCC(=O)N)CC(C)C)CCCNC(=[NH2+])N)C(O)C)CS)CO)CC(C)C)CCCNC(=[NH2+])N)Cc%10ccccc%10)C(CC)C)Cc%10ccc(O)cc%10)CO)CCC9)CCCC[NH3+])C(O)C)CO)Cc9ccc(O)cc9)CCCC[NH3+])CCC(=O)N)CC(C)C)CCCNC(=[NH2+])N)C)CCCC[NH3+])C(C)C)CCC(=O)[O-])CC(=O)[O-])Cc9ccc(O)cc9)C(O)C)CC(C)C)Cc9ccccc9)C)CCSC)Cc9ccc(O)cc9)CCC8)Cc8nc[nH]c8)C(O)C)C(C)C)C)CC(C)C)Cc8ccccc8)CC(=O)N)Cc8c9c([nH]c8)cccc9)CC(=O)N)CCCNC(=[NH2+])N)CC(C)C)C(CC)C)CO)Cc8c9c([nH]c8)cccc9)CCC7)CCC(=O)N)Cc7ccccc7)CC(C)C)CCCNC(=[NH2+])N)C(O)C)Cc7ccccc7)C(CC)C)CC(=O)[O-])Cc7ccccc7)CCC(=O)[O-])Cc7ccccc7)C(C)C)CO)C(CC)C)Cc7ccc(O)cc7)CC(=O)[O-])CC(=O)N)CS)C(O)C)CC(C)C)CC(=O)[O-])C(CC)C)C(O)C)CO)CCCC[NH3+])CC(C)C)C)CCSC)C)CCC(=O)[O-])CC(C)C)CO)CO)C(CC)C)CCC(=O)N)Cc7nc[nH]c7)C(C)C)CCC(=O)[O-])Cc7nc[nH]c7)CC(C)C)CS)CCC(=O)N)CCCNC(=[NH2+])N)Cc7ccccc7)C(C)C)CCCC[NH3+])Cc7c8c([nH]c7)cccc8)CCC6)C(C)C)C(CC)C)C(O)C)CCCC[NH3+])CC(=O)[O-])Cc6ccccc6)Cc6ccccc6)CCCC[NH3+])CCCNC(=[NH2+])N)Cc6c7c([nH]c6)cccc7)Cc6ccccc6)CCC(=O)[O-])C)C)CC(=O)[O-])C)CCCC[NH3+])C(O)C)C(CC)C)CCCNC(=[NH2+])N)Cc6ccccc6)CC(=O)N)CC(=O)[O-])CCC(=O)N)Cc6ccccc6)CCC(=O)N)CC(=O)N)CCC5)Cc5ccccc5)C(CC)C)C)CCCC[NH3+])C(CC)C)CCC(=O)[O-])C)CC(C)C)CCSC)Cc5nc[nH]c5)CO)Cc5ccccc5)C(CC)C)CC(C)C)CO)CC(C)C)CCCC[NH3+])C(O)C)CC(C)C)CC(=O)N)CCCNC(=[NH2+])N)CCCNC(=[NH2+])N)CC(=O)[O-])CCC(=O)N)CO)CCC(=O)N)CCC(=O)[O-])CCC(=O)[O-])Cc5ccc(O)cc5)CCSC)CCCNC(=[NH2+])N)CCC(=O)[O-])CCCC[NH3+])CCC(=O)[O-])CCCC[NH3+])Cc5ccccc5)CC(C)C)CCCNC(=[NH2+])N)C(CC)C)C)CCCNC(=[NH2+])N)CCCC[NH3+])CO)CCCC[NH3+])CCCC[NH3+])CCSC)CC(C)C)CO)CC(=O)[O-])C(CC)C)Cc5ccc(O)cc5)C(CC)C)CCCC[NH3+])Cc5ccccc5)Cc5ccc(O)cc5)CCC(=O)[O-])CC(=O)N)CCC(=O)[O-])CO)CC(C)C)CCC(=O)N)C)CC(C)C)CCCC[NH3+])CCC(=O)N)CC(=O)N)CC(=O)[O-])CC(=O)[O-])Cc5ccc(O)cc5)CCCC[NH3+])CO)CC(C)C)C(CC)C)CC(C)C)CCCNC(=[NH2+])N)CC(C)C)Cc5nc[nH]c5)CCC(=O)N)Cc5ccc(O)cc5)C(O)C)CC(=O)[O-])CCC4)CC(C)C)C(CC)C)CC(=O)[O-])CC(C)C)C(CC)C)Cc4ccc(O)cc4)CCC3)CCC2)CO)CC(=O)N)CCCC[NH3+])CC(C)C)CCC(=O)N)CC(C)C)CCCC[NH3+])CCC1)CC(=O)N)CCC(=O)N)CS)CC(C)C)CCCNC(=[NH2+])N)C(C)C)C(C)C)C)CC(=O)[O-])C.OCCO.[UH+3].[Zn+2].[Zn+2].O.O.O.O.O.O.O.O.O.O.O.O.O.O.O.O.O.O.O.O.O.O.O.O.O.O.O.O.O.O.O.O.O.O.O.O.O.O.O.O.O.O.O.O.O.O.O.O.O.O.O.O.O.O.O.O.O.O.O.O.O.O.O.O.O.O.O.O.O.O.O.O.O.O.O.O.O.O.O.O.O.O.O.O.O.O.O.O.O.O.O.O.O.O.O.O.O.O.O.O.O.O.O.O.O.O.O.O.O.O.O.O.O.O.O.O.O.O.O.O.O.O.O.O.O.O.O.O.O.O.O.O.O.O.O.O.O.O.O.O.O.O

>  <rseq>
1

>  <mseq>
96

>  <S>
-6.7259502

>  <rmsd_refine>
0.8777281

>  <E_conf>
105.20567

>  <E_place>
-73.103172

>  <E_score1>
-11.487337

>  <E_refine>
-23.848272

>  <E_score2>
-6.7259502

>  <Field_2>
VN06

>  <pseq>
96

>  <%C>
100

>  <a_heavy>
23

>  <h_logP>
-1.1688908

>  <Weight>
447.095

>  <E_orig>
0

>  <PLIF_raw>
[[34,1,8,34],[3756,6345,6162,3751],[263,220688,220627,263],[3,6,6,4],[0.8,10.8,0.9,1.1]]

>  <FP:PLIF>
14 15 51 3 5

>  <PLIF_ligidx>
[34,34,8,1,1]

$$$$

  MOE2020           3D

 40 42  0  0  1  0  0  0  0  0999 V2000
    3.9850    7.0270   17.9220 C   0  0  2  0  0  0  0  0  0  0  0  0
    4.2580    6.0780   16.7300 C   0  0  2  0  0  0  0  0  0  0  0  0
    5.1450    5.1390   17.5970 C   0  0  3  0  0  0  0  0  0  0  0  0
    4.3190    5.7680   18.7870 C   0  0  0  0  0  0  0  0  0  0  0  0
    3.2530    5.0160   19.1520 F   0  0  0  0  0  0  0  0  0  0  0  0
    4.9910    6.0090   19.9030 F   0  0  0  0  0  0  0  0  0  0  0  0
    4.7620    3.7410   17.3000 C   0  0  0  0  0  0  0  0  0  0  0  0
    4.4360    2.6910   17.0260 N   0  0  0  0  0  0  0  0  0  0  0  0
    6.7450    5.3270   17.5960 C   0  0  0  0  0  0  0  0  0  0  0  0
    7.3490    4.4700   18.7210 C   0  0  0  0  0  0  0  0  0  0  0  0
    6.9980    4.7530   19.7100 H   0  0  0  0  0  0  0  0  0  0  0  0
    8.4370    4.5440   18.7440 H   0  0  0  0  0  0  0  0  0  0  0  0
    7.0940    3.4310   18.5490 H   0  0  0  0  0  0  0  0  0  0  0  0
    7.3960    4.8070   16.2810 C   0  0  0  0  0  0  0  0  0  0  0  0
    6.8240    4.0100   15.8090 H   0  0  0  0  0  0  0  0  0  0  0  0
    8.3920    4.4100   16.4690 H   0  0  0  0  0  0  0  0  0  0  0  0
    7.5340    5.5960   15.5460 H   0  0  0  0  0  0  0  0  0  0  0  0
    7.2420    6.7760   17.8360 C   0  0  0  0  0  0  0  0  0  0  0  0
    8.3320    6.8100   17.8490 H   0  0  0  0  0  0  0  0  0  0  0  0
    6.9040    7.1590   18.7920 H   0  0  0  0  0  0  0  0  0  0  0  0
    6.9150    7.4690   17.0650 H   0  0  0  0  0  0  0  0  0  0  0  0
    4.9580    6.8540   14.8720 I   0  0  0  0  0  0  0  0  0  0  0  0
    2.5870    7.8060   17.7610 B   0  5  0  0  0  0  0  0  0  0  0  0
    2.4290    8.0610   16.6330 H   0  0  0  0  0  0  0  0  0  0  0  0
    2.0820    8.8690   18.6910 C   0  0  0  0  0  0  0  0  0  0  0  0
    1.8230   10.1710   18.1880 C   0  0  0  0  0  0  0  0  0  0  0  0
    1.9610   10.4280   17.1700 H   0  0  0  0  0  0  0  0  0  0  0  0
    1.3970   11.1080   19.1080 C   0  0  0  0  0  0  0  0  0  0  0  0
    1.2010   10.8590   20.4410 C   0  0  0  0  0  0  0  0  0  0  0  0
    1.3700    9.6610   21.0680 C   0  0  0  0  0  0  0  0  0  0  0  0
    1.1970    9.4850   22.0990 H   0  0  0  0  0  0  0  0  0  0  0  0
    1.7800    8.6280   20.1390 C   0  0  0  0  0  0  0  0  0  0  0  0
    1.8070    7.0440   20.7360 S   0  3  0  0  0  0  0  0  0  0  0  0
    1.5190    7.2760   22.0710 H   0  0  0  0  0  0  0  0  0  0  0  0
    0.8250   12.1570   20.7390 O   0  0  0  0  0  0  0  0  0  0  0  0
    0.9840   12.5340   19.3210 C   0  0  0  0  0  0  0  0  0  0  0  0
    0.0650   12.8370   18.8360 H   0  0  0  0  0  0  0  0  0  0  0  0
    1.7480   13.2790   19.1430 H   0  0  0  0  0  0  0  0  0  0  0  0
    4.7500    7.7810   18.0160 H   0  0  0  0  0  0  0  0  0  0  0  0
    3.3500    5.5710   16.4420 H   0  0  0  0  0  0  0  0  0  0  0  0
  1  2  1  0  0  0  0
  1  4  1  0  0  0  0
  1 23  1  0  0  0  0
  1 39  1  0  0  0  0
  2  3  1  0  0  0  0
  2 22  1  0  0  0  0
  2 40  1  0  0  0  0
  3  4  1  0  0  0  0
  3  7  1  0  0  0  0
  3  9  1  0  0  0  0
  4  5  1  0  0  0  0
  4  6  1  0  0  0  0
  7  8  3  0  0  0  0
  9 10  1  0  0  0  0
  9 14  1  0  0  0  0
  9 18  1  0  0  0  0
 10 11  1  0  0  0  0
 10 12  1  0  0  0  0
 10 13  1  0  0  0  0
 14 15  1  0  0  0  0
 14 16  1  0  0  0  0
 14 17  1  0  0  0  0
 18 19  1  0  0  0  0
 18 20  1  0  0  0  0
 18 21  1  0  0  0  0
 23 24  1  0  0  0  0
 23 25  2  0  0  0  0
 25 26  1  0  0  0  0
 25 32  1  0  0  0  0
 26 27  1  0  0  0  0
 26 28  2  0  0  0  0
 28 29  1  0  0  0  0
 28 36  1  0  0  0  0
 29 30  2  0  0  0  0
 29 35  1  0  0  0  0
 30 31  1  0  0  0  0
 30 32  1  0  0  0  0
 32 33  2  0  0  0  0
 33 34  1  0  0  0  0
 35 36  1  0  0  0  0
 36 37  1  0  0  0  0
 36 38  1  0  0  0  0
M  CHG  1  23  -1
M  CHG  1  33   1
M  END
>  <receptor>
S(=O)(=O)([O-])[O-].S(CCC(NC(=O)C(NC(=O)C(NC(=O)CNC(=O)C(NC(=O)C1N(C(=O)C(NC(=O)C(NC(=O)C(NC(=O)C(NC(=O)C(NC(=O)C(NC(=O)C(NC(=O)C(NC(=O)C(NC(=O)C(NC(=O)C(NC(=O)C(NC(=O)C(NC(=O)C(NC(=O)C(NC(=O)C(NC(=O)C(NC(=O)C(NC(=O)C(NC(=O)CNC(=O)C(NC(=O)C(NC(=O)C(NC(=O)C(NC(=O)C(NC(=O)C(NC(=O)C(NC(=O)C(NC(=O)C(NC(=O)C(NC(=O)C(NC(=O)C(NC(=O)C(NC(=O)C)CCCC[NH3+])C(C)C)C(O)C)CCC(=O)N)CCC(=O)[O-])CCC(=O)N)Cc2ccccc2)CCC(=O)[O-])CC(C)C)Cc2ccc(O)cc2)CS)CCC(=O)[O-])CCSC)CO)C(O)C)Cc2ccccc2)CCC(=O)N)CC(C)C)C[S-])CCCC[NH3+])C(CC)C)C[S-])C)CCC(=O)[O-])CC(=O)N)CC(=O)[O-])CCCC[NH3+])CC(=O)[O-])C(C)C)CCCC[NH3+])C(CC)C)CCC(=O)[O-])CCC1)C[S-])Cc1nc[n-]c1)CC(C)C)C(=O)NC(C(=O)NC(C(=O)NC(C(=O)NC(C(=O)NC(C(=O)NC(C(=O)NC(C(=O)NC(C(=O)NC(C(=O)NC(C(=O)NC(C(=O)NC(C(=O)NCC(=O)NC(C(=O)NCC(=O)NC(C(=O)N1C(C(=O)NC(C(=O)NC(C(=O)NC(C(=O)NC(C(=O)NC(C(=O)NC(C(=O)NC(C(=O)NCC(=O)NC(C(=O)NC(C(=O)N2C(C(=O)NC(C(=O)NC(C(=O)NC(C(=O)NC(C(=O)N3C(C(=O)NC(C(=O)NC(C(=O)[O-])CC(=O)[O-])Cc4ccccc4)CCC3)CC(=O)[O-])C(C)C)C(CC)C)C(CC)C)CCC2)CCC(=O)[O-])C(O)C)CCCC[NH3+])C(CC)C)CCC(=O)[O-])CS)CCCNC(=[NH2+])N)C[S-])Cc2ccccc2)CCC1)C[S-])CCC(=O)N)CC(=O)[O-])CO)CCC(=O)[O-])CCC(=O)N)Cc1c2c([nH]c1)cccc2)C)C(O)C)CC(C)C)C[S-])CO)C(O)C)C[S-])C.S(CCC(NC(=O)C(NC(=O)C(NC(=O)C(NC(=O)C(NC(=O)C(NC(=O)C(NC(=O)C(NC(=O)C(NC(=O)C(NC(=O)C(NC(=O)C(NC(=O)C(NC(=O)C(NC(=O)C(NC(=O)C(NC(=O)C[NH3+])CCC(=O)N)C)C)C)CC(=O)[O-])CCCNC(=[NH2+])N)CCCNC(=[NH2+])N)C(O)C)C(C)C)CCC(=O)[O-])CCCC[NH3+])C(O)C)Cc1c2c([nH]c1)cccc2)C)CC(C)C)C(=O)NC(C(=O)NC(C(=O)NC(C(=O)NC(C(=O)NC(C(=O)NC(C(=O)NC(C(=O)NC(C(=O)NC(C(=O)N1C(C(=O)NC(C(=O)NC(C(=O)NC(C(=O)NC(C(=O)NC(C(=O)NC(C(=O)NC(C(=O)N2C(C(=O)N3C(C(=O)NC(C(=O)NC(C(=O)NC(C(=O)NC(C(=O)NC(C(=O)NC(C(=O)N4C(C(=O)NC(C(=O)NC(C(=O)NC(C(=O)NC(C(=O)NC(C(=O)NC(C(=O)NC(C(=O)NC(C(=O)NC(C(=O)NC(C(=O)NC(C(=O)NC(C(=O)NC(C(=O)NC(C(=O)NC(C(=O)NC(C(=O)NC(C(=O)NC(C(=O)NC(C(=O)NC(C(=O)NC(C(=O)NC(C(=O)NC(C(=O)NC(C(=O)NC(C(=O)NC(C(=O)NC(C(=O)NC(C(=O)NC(C(=O)NC(C(=O)NC(C(=O)NC(C(=O)NC(C(=O)NC(C(=O)NC(C(=O)NC(C(=O)NC(C(=O)NC(C(=O)NC(C(=O)NC(C(=O)NC(C(=O)NC(C(=O)NC(C(=O)NC(C(=O)NC(C(=O)NC(C(=O)NC(C(=O)NC(C(=O)NCC(=O)NC(C(=O)NC(C(=O)NC(C(=O)NC(C(=O)NC(C(=O)NC(C(=O)NC(C(=O)NC(C(=O)NC(C(=O)NC(C(=O)NC(C(=O)NC(C(=O)NC(C(=O)NC(C(=O)NC(C(=O)NC(C(=O)NC(C(=O)NC(C(=O)NC(C(=O)NC(C(=O)NC(C(=O)NC(C(=O)NC(C(=O)NC(C(=O)NC(C(=O)NC(C(=O)NC(C(=O)NC(C(=O)NC(C(=O)NC(C(=O)NC(C(=O)NC(C(=O)NC(C(=O)N5C(C(=O)NC(C(=O)NCC(=O)NC(C(=O)NC(C(=O)NC(C(=O)NCC(=O)NC(C(=O)NC(C(=O)NC(C(=O)NC(C(=O)NC(C(=O)NC(C(=O)NC(C(=O)NC(C(=O)NC(C(=O)NC(C(=O)NC(C(=O)NC(C(=O)NC(C(=O)NC(C(=O)NC(C(=O)NC(C(=O)NC(C(=O)NC(C(=O)NCC(=O)NC(C(=O)NC(C(=O)NC(C(=O)NC(C(=O)NC(C(=O)N6C(C(=O)NC(C(=O)NC(C(=O)NC(C(=O)NC(C(=O)NC(C(=O)NC(C(=O)NC(C(=O)NC(C(=O)NC(C(=O)NC(C(=O)NC(C(=O)NC(C(=O)NC(C(=O)NC(C(=O)NC(C(=O)NC(C(=O)NCC(=O)NC(C(=O)NC(C(=O)NC(C(=O)NC(C(=O)NC(C(=O)NC(C(=O)NC(C(=O)NC(C(=O)NC(C(=O)NC(C(=O)NC(C(=O)NC(C(=O)NC(C(=O)NC(C(=O)NC(C(=O)NC(C(=O)NC(C(=O)NC(C(=O)NC(C(=O)NC(C(=O)NC(C(=O)NC(C(=O)NC(C(=O)NC(C(=O)NC(C(=O)NC(C(=O)NC(C(=O)NC(C(=O)NC(C(=O)NC(C(=O)NC(C(=O)N7C(C(=O)NC(C(=O)NCC(=O)NC(C(=O)NC(C(=O)NC(C(=O)NC(C(=O)NC(C(=O)NC(C(=O)NC(C(=O)NC(C(=O)NC(C(=O)NC(C(=O)NC(C(=O)NC(C(=O)NC(C(=O)N8C(C(=O)NCC(=O)NC(C(=O)NC(C(=O)NC(C(=O)NC(C(=O)NC(C(=O)NC(C(=O)NC(C(=O)NC(C(=O)NC(C(=O)NC(C(=O)NC(C(=O)NC(C(=O)NC(C(=O)NC(C(=O)NC(C(=O)NC(C(=O)NC(C(=O)NC(C(=O)NC(C(=O)NC(C(=O)N9C(C(=O)NCC(=O)NC(C(=O)NC(C(=O)NC(C(=O)NC(C(=O)NC(C(=O)NC(C(=O)NC(C(=O)NC(C(=O)NC(C(=O)NC(C(=O)NC(C(=O)NCC(=O)NC(C(=O)NC(C(=O)NC(C(=O)NC(C(=O)NCC(=O)NC(C(=O)NC(C(=O)NC(C(=O)NCC(=O)NC(C(=O)NCC(=O)NC(C(=O)NC(C(=O)NC(C(=O)NC(C(=O)NC(C(=O)NC(C(=O)N%10C(C(=O)NC(C(=O)NC(C(=O)NC(C(=O)N%11C(C(=O)NC(C(=O)NC(C(=O)NC(C(=O)NC(C(=O)NC(C(=O)NC(C(=O)NC(C(=O)NCC(=O)NC(C(=O)NC(C(=O)NC(C(=O)NCC(=O)NC(C(=O)NC(C(=O)NC(C(=O)NC(C(=O)N%12C(C(=O)NC(C(=O)NCC(=O)NC(C(=O)NC(C(=O)NC(C(=O)NC(C(=O)NC)CC(=O)N)Cc%13ccc(O)cc%13)CO)CCCNC(=[NH2+])N)CC(=O)[O-])CCC%12)Cc%12ccc(O)cc%12)CC(C)C)Cc%12ccc(O)cc%12)Cc%12ccccc%12)CCC(=O)[O-])C)CO)CC(=O)[O-])C(CC)C)CC(C)C)C)CCC(=O)N)Cc%12ccccc%12)CC(C)C)CCC%11)CCCC[NH3+])CC(=O)N)Cc%11[nH]cnc%11)CCC%10)C(CC)C)C(O)C)CCC(=O)N)CC(C)C)C(CC)C)CC(=O)N)CC(=O)[O-])C(O)C)C(C)C)Cc%10ccc(O)cc%10)C(CC)C)C)Cc%10c%11c([nH]c%10)cccc%11)CCC(=O)N)CC(C)C)CCCNC(=[NH2+])N)C(O)C)CS)CO)CC(C)C)CCCNC(=[NH2+])N)Cc%10ccccc%10)C(CC)C)Cc%10ccc(O)cc%10)CO)CCC9)CCCC[NH3+])C(O)C)CO)Cc9ccc(O)cc9)CCCC[NH3+])CCC(=O)N)CC(C)C)CCCNC(=[NH2+])N)C)CCCC[NH3+])C(C)C)CCC(=O)[O-])CC(=O)[O-])Cc9ccc(O)cc9)C(O)C)CC(C)C)Cc9ccccc9)C)CCSC)Cc9ccc(O)cc9)CCC8)Cc8nc[nH]c8)C(O)C)C(C)C)C)CC(C)C)Cc8ccccc8)CC(=O)N)Cc8c9c([nH]c8)cccc9)CC(=O)N)CCCNC(=[NH2+])N)CC(C)C)C(CC)C)CO)Cc8c9c([nH]c8)cccc9)CCC7)CCC(=O)N)Cc7ccccc7)CC(C)C)CCCNC(=[NH2+])N)C(O)C)Cc7ccccc7)C(CC)C)CC(=O)[O-])Cc7ccccc7)CCC(=O)[O-])Cc7ccccc7)C(C)C)CO)C(CC)C)Cc7ccc(O)cc7)CC(=O)[O-])CC(=O)N)CS)C(O)C)CC(C)C)CC(=O)[O-])C(CC)C)C(O)C)CO)CCCC[NH3+])CC(C)C)C)CCSC)C)CCC(=O)[O-])CC(C)C)CO)CO)C(CC)C)CCC(=O)N)Cc7nc[nH]c7)C(C)C)CCC(=O)[O-])Cc7nc[nH]c7)CC(C)C)CS)CCC(=O)N)CCCNC(=[NH2+])N)Cc7ccccc7)C(C)C)CCCC[NH3+])Cc7c8c([nH]c7)cccc8)CCC6)C(C)C)C(CC)C)C(O)C)CCCC[NH3+])CC(=O)[O-])Cc6ccccc6)Cc6ccccc6)CCCC[NH3+])CCCNC(=[NH2+])N)Cc6c7c([nH]c6)cccc7)Cc6ccccc6)CCC(=O)[O-])C)C)CC(=O)[O-])C)CCCC[NH3+])C(O)C)C(CC)C)CCCNC(=[NH2+])N)Cc6ccccc6)CC(=O)N)CC(=O)[O-])CCC(=O)N)Cc6ccccc6)CCC(=O)N)CC(=O)N)CCC5)Cc5ccccc5)C(CC)C)C)CCCC[NH3+])C(CC)C)CCC(=O)[O-])C)CC(C)C)CCSC)Cc5nc[nH]c5)CO)Cc5ccccc5)C(CC)C)CC(C)C)CO)CC(C)C)CCCC[NH3+])C(O)C)CC(C)C)CC(=O)N)CCCNC(=[NH2+])N)CCCNC(=[NH2+])N)CC(=O)[O-])CCC(=O)N)CO)CCC(=O)N)CCC(=O)[O-])CCC(=O)[O-])Cc5ccc(O)cc5)CCSC)CCCNC(=[NH2+])N)CCC(=O)[O-])CCCC[NH3+])CCC(=O)[O-])CCCC[NH3+])Cc5ccccc5)CC(C)C)CCCNC(=[NH2+])N)C(CC)C)C)CCCNC(=[NH2+])N)CCCC[NH3+])CO)CCCC[NH3+])CCCC[NH3+])CCSC)CC(C)C)CO)CC(=O)[O-])C(CC)C)Cc5ccc(O)cc5)C(CC)C)CCCC[NH3+])Cc5ccccc5)Cc5ccc(O)cc5)CCC(=O)[O-])CC(=O)N)CCC(=O)[O-])CO)CC(C)C)CCC(=O)N)C)CC(C)C)CCCC[NH3+])CCC(=O)N)CC(=O)N)CC(=O)[O-])CC(=O)[O-])Cc5ccc(O)cc5)CCCC[NH3+])CO)CC(C)C)C(CC)C)CC(C)C)CCCNC(=[NH2+])N)CC(C)C)Cc5nc[nH]c5)CCC(=O)N)Cc5ccc(O)cc5)C(O)C)CC(=O)[O-])CCC4)CC(C)C)C(CC)C)CC(=O)[O-])CC(C)C)C(CC)C)Cc4ccc(O)cc4)CCC3)CCC2)CO)CC(=O)N)CCCC[NH3+])CC(C)C)CCC(=O)N)CC(C)C)CCCC[NH3+])CCC1)CC(=O)N)CCC(=O)N)CS)CC(C)C)CCCNC(=[NH2+])N)C(C)C)C(C)C)C)CC(=O)[O-])C.OCCO.[UH+3].[Zn+2].[Zn+2].O.O.O.O.O.O.O.O.O.O.O.O.O.O.O.O.O.O.O.O.O.O.O.O.O.O.O.O.O.O.O.O.O.O.O.O.O.O.O.O.O.O.O.O.O.O.O.O.O.O.O.O.O.O.O.O.O.O.O.O.O.O.O.O.O.O.O.O.O.O.O.O.O.O.O.O.O.O.O.O.O.O.O.O.O.O.O.O.O.O.O.O.O.O.O.O.O.O.O.O.O.O.O.O.O.O.O.O.O.O.O.O.O.O.O.O.O.O.O.O.O.O.O.O.O.O.O.O.O.O.O.O.O.O.O.O.O.O.O.O.O.O

>  <rseq>
1

>  <mseq>
97

>  <S>
-6.4942927

>  <rmsd_refine>
1.8791409

>  <E_conf>
62.713306

>  <E_place>
-59.137814

>  <E_score1>
-13.182374

>  <E_refine>
-19.613556

>  <E_score2>
-6.4942927

>  <Field_2>
VN07

>  <pseq>
97

>  <%C>
100

>  <a_heavy>
23

>  <h_logP>
3.4007258

>  <Weight>
447.095

>  <E_orig>
0

>  <PLIF_raw>
[[8,18,18,18,18,18,18],[6162,5139,5143,5141,5137,5134,5135],[220627,363,363,363,363,363,363],[6,10,10,10,10,10,10],[0.6,0.6,0.6,0.6,0.6,0.6,0.6]]

>  <FP:PLIF>
22 51

>  <PLIF_ligidx>
[[18,18,18,18,18,18],8]

$$$$

  MOE2020           3D

 40 42  0  0  1  0  0  0  0  0999 V2000
    3.9020    7.2440   18.0170 C   0  0  2  0  0  0  0  0  0  0  0  0
    4.1030    6.3490   16.7540 C   0  0  2  0  0  0  0  0  0  0  0  0
    5.0130    5.3580   17.5510 C   0  0  3  0  0  0  0  0  0  0  0  0
    4.3150    5.9760   18.8270 C   0  0  0  0  0  0  0  0  0  0  0  0
    5.1100    6.1780   19.8650 F   0  0  0  0  0  0  0  0  0  0  0  0
    3.2600    5.2620   19.3030 F   0  0  0  0  0  0  0  0  0  0  0  0
    4.6070    3.9550   17.2900 C   0  0  0  0  0  0  0  0  0  0  0  0
    4.2850    2.8930   17.0570 N   0  0  0  0  0  0  0  0  0  0  0  0
    6.5930    5.5220   17.3800 C   0  0  0  0  0  0  0  0  0  0  0  0
    7.0380    5.0480   15.9700 C   0  0  0  0  0  0  0  0  0  0  0  0
    8.1220    5.0210   15.9040 H   0  0  0  0  0  0  0  0  0  0  0  0
    6.6920    5.7020   15.1750 H   0  0  0  0  0  0  0  0  0  0  0  0
    6.6920    4.0390   15.7450 H   0  0  0  0  0  0  0  0  0  0  0  0
    7.3370    4.6240   18.3910 C   0  0  0  0  0  0  0  0  0  0  0  0
    7.1260    4.8960   19.4230 H   0  0  0  0  0  0  0  0  0  0  0  0
    8.4170    4.6950   18.2590 H   0  0  0  0  0  0  0  0  0  0  0  0
    7.0660    3.5810   18.2520 H   0  0  0  0  0  0  0  0  0  0  0  0
    7.1140    6.9660   17.5880 C   0  0  0  0  0  0  0  0  0  0  0  0
    8.1920    7.0090   17.4270 H   0  0  0  0  0  0  0  0  0  0  0  0
    6.9360    7.3150   18.6020 H   0  0  0  0  0  0  0  0  0  0  0  0
    6.6620    7.6780   16.9050 H   0  0  0  0  0  0  0  0  0  0  0  0
    4.5150    6.9210   15.3180 B   0  0  0  0  0  0  0  0  0  0  0  0
    4.2950    6.2260   14.4120 H   0  0  0  0  0  0  0  0  0  0  0  0
    5.3740    7.6830   15.1700 H   0  0  0  0  0  0  0  0  0  0  0  0
    2.2190    7.9930   18.1570 S   0  0  0  0  0  0  0  0  0  0  0  0
    1.7860    8.8680   19.6370 C   0  0  0  0  0  0  0  0  0  0  0  0
    1.4280    8.1160   20.7920 C   0  0  0  0  0  0  0  0  0  0  0  0
    1.5240    7.0620   20.8460 H   0  0  0  0  0  0  0  0  0  0  0  0
    0.8840    8.8790   21.8030 C   0  0  0  0  0  0  0  0  0  0  0  0
    0.7350   10.2230   21.7520 C   0  0  0  0  0  0  0  0  0  0  0  0
    1.0920   11.0350   20.7160 C   0  0  0  0  0  0  0  0  0  0  0  0
    0.9580   12.0850   20.7310 H   0  0  0  0  0  0  0  0  0  0  0  0
    1.6370   10.3300   19.6220 C   0  0  0  0  0  0  0  0  0  0  0  0
    2.1790   11.5210   17.9920 I   0  0  0  0  0  0  0  0  0  0  0  0
    0.1440   10.3410   23.0170 O   0  0  0  0  0  0  0  0  0  0  0  0
    0.2400    8.8910   23.1630 C   0  0  0  0  0  0  0  0  0  0  0  0
    0.8650    8.5980   23.9890 H   0  0  0  0  0  0  0  0  0  0  0  0
   -0.7210    8.4000   23.2190 H   0  0  0  0  0  0  0  0  0  0  0  0
    4.6460    8.0220   18.0870 H   0  0  0  0  0  0  0  0  0  0  0  0
    3.1830    5.8270   16.5650 H   0  0  0  0  0  0  0  0  0  0  0  0
  1  2  1  0  0  0  0
  1  4  1  0  0  0  0
  1 25  1  0  0  0  0
  1 39  1  0  0  0  0
  2  3  1  0  0  0  0
  2 22  1  0  0  0  0
  2 40  1  0  0  0  0
  3  4  1  0  0  0  0
  3  7  1  0  0  0  0
  3  9  1  0  0  0  0
  4  5  1  0  0  0  0
  4  6  1  0  0  0  0
  7  8  3  0  0  0  0
  9 10  1  0  0  0  0
  9 14  1  0  0  0  0
  9 18  1  0  0  0  0
 10 11  1  0  0  0  0
 10 12  1  0  0  0  0
 10 13  1  0  0  0  0
 14 15  1  0  0  0  0
 14 16  1  0  0  0  0
 14 17  1  0  0  0  0
 18 19  1  0  0  0  0
 18 20  1  0  0  0  0
 18 21  1  0  0  0  0
 22 23  1  0  0  0  0
 22 24  1  0  0  0  0
 25 26  1  0  0  0  0
 26 27  1  0  0  0  0
 26 33  2  0  0  0  0
 27 28  1  0  0  0  0
 27 29  2  0  0  0  0
 29 30  1  0  0  0  0
 29 36  1  0  0  0  0
 30 31  2  0  0  0  0
 30 35  1  0  0  0  0
 31 32  1  0  0  0  0
 31 33  1  0  0  0  0
 33 34  1  0  0  0  0
 35 36  1  0  0  0  0
 36 37  1  0  0  0  0
 36 38  1  0  0  0  0
M  END
>  <receptor>
S(=O)(=O)([O-])[O-].S(CCC(NC(=O)C(NC(=O)C(NC(=O)CNC(=O)C(NC(=O)C1N(C(=O)C(NC(=O)C(NC(=O)C(NC(=O)C(NC(=O)C(NC(=O)C(NC(=O)C(NC(=O)C(NC(=O)C(NC(=O)C(NC(=O)C(NC(=O)C(NC(=O)C(NC(=O)C(NC(=O)C(NC(=O)C(NC(=O)C(NC(=O)C(NC(=O)C(NC(=O)CNC(=O)C(NC(=O)C(NC(=O)C(NC(=O)C(NC(=O)C(NC(=O)C(NC(=O)C(NC(=O)C(NC(=O)C(NC(=O)C(NC(=O)C(NC(=O)C(NC(=O)C(NC(=O)C)CCCC[NH3+])C(C)C)C(O)C)CCC(=O)N)CCC(=O)[O-])CCC(=O)N)Cc2ccccc2)CCC(=O)[O-])CC(C)C)Cc2ccc(O)cc2)CS)CCC(=O)[O-])CCSC)CO)C(O)C)Cc2ccccc2)CCC(=O)N)CC(C)C)C[S-])CCCC[NH3+])C(CC)C)C[S-])C)CCC(=O)[O-])CC(=O)N)CC(=O)[O-])CCCC[NH3+])CC(=O)[O-])C(C)C)CCCC[NH3+])C(CC)C)CCC(=O)[O-])CCC1)C[S-])Cc1nc[n-]c1)CC(C)C)C(=O)NC(C(=O)NC(C(=O)NC(C(=O)NC(C(=O)NC(C(=O)NC(C(=O)NC(C(=O)NC(C(=O)NC(C(=O)NC(C(=O)NC(C(=O)NC(C(=O)NCC(=O)NC(C(=O)NCC(=O)NC(C(=O)N1C(C(=O)NC(C(=O)NC(C(=O)NC(C(=O)NC(C(=O)NC(C(=O)NC(C(=O)NC(C(=O)NCC(=O)NC(C(=O)NC(C(=O)N2C(C(=O)NC(C(=O)NC(C(=O)NC(C(=O)NC(C(=O)N3C(C(=O)NC(C(=O)NC(C(=O)[O-])CC(=O)[O-])Cc4ccccc4)CCC3)CC(=O)[O-])C(C)C)C(CC)C)C(CC)C)CCC2)CCC(=O)[O-])C(O)C)CCCC[NH3+])C(CC)C)CCC(=O)[O-])CS)CCCNC(=[NH2+])N)C[S-])Cc2ccccc2)CCC1)C[S-])CCC(=O)N)CC(=O)[O-])CO)CCC(=O)[O-])CCC(=O)N)Cc1c2c([nH]c1)cccc2)C)C(O)C)CC(C)C)C[S-])CO)C(O)C)C[S-])C.S(CCC(NC(=O)C(NC(=O)C(NC(=O)C(NC(=O)C(NC(=O)C(NC(=O)C(NC(=O)C(NC(=O)C(NC(=O)C(NC(=O)C(NC(=O)C(NC(=O)C(NC(=O)C(NC(=O)C(NC(=O)C(NC(=O)C[NH3+])CCC(=O)N)C)C)C)CC(=O)[O-])CCCNC(=[NH2+])N)CCCNC(=[NH2+])N)C(O)C)C(C)C)CCC(=O)[O-])CCCC[NH3+])C(O)C)Cc1c2c([nH]c1)cccc2)C)CC(C)C)C(=O)NC(C(=O)NC(C(=O)NC(C(=O)NC(C(=O)NC(C(=O)NC(C(=O)NC(C(=O)NC(C(=O)NC(C(=O)N1C(C(=O)NC(C(=O)NC(C(=O)NC(C(=O)NC(C(=O)NC(C(=O)NC(C(=O)NC(C(=O)N2C(C(=O)N3C(C(=O)NC(C(=O)NC(C(=O)NC(C(=O)NC(C(=O)NC(C(=O)NC(C(=O)N4C(C(=O)NC(C(=O)NC(C(=O)NC(C(=O)NC(C(=O)NC(C(=O)NC(C(=O)NC(C(=O)NC(C(=O)NC(C(=O)NC(C(=O)NC(C(=O)NC(C(=O)NC(C(=O)NC(C(=O)NC(C(=O)NC(C(=O)NC(C(=O)NC(C(=O)NC(C(=O)NC(C(=O)NC(C(=O)NC(C(=O)NC(C(=O)NC(C(=O)NC(C(=O)NC(C(=O)NC(C(=O)NC(C(=O)NC(C(=O)NC(C(=O)NC(C(=O)NC(C(=O)NC(C(=O)NC(C(=O)NC(C(=O)NC(C(=O)NC(C(=O)NC(C(=O)NC(C(=O)NC(C(=O)NC(C(=O)NC(C(=O)NC(C(=O)NC(C(=O)NC(C(=O)NC(C(=O)NC(C(=O)NC(C(=O)NCC(=O)NC(C(=O)NC(C(=O)NC(C(=O)NC(C(=O)NC(C(=O)NC(C(=O)NC(C(=O)NC(C(=O)NC(C(=O)NC(C(=O)NC(C(=O)NC(C(=O)NC(C(=O)NC(C(=O)NC(C(=O)NC(C(=O)NC(C(=O)NC(C(=O)NC(C(=O)NC(C(=O)NC(C(=O)NC(C(=O)NC(C(=O)NC(C(=O)NC(C(=O)NC(C(=O)NC(C(=O)NC(C(=O)NC(C(=O)NC(C(=O)NC(C(=O)NC(C(=O)NC(C(=O)N5C(C(=O)NC(C(=O)NCC(=O)NC(C(=O)NC(C(=O)NC(C(=O)NCC(=O)NC(C(=O)NC(C(=O)NC(C(=O)NC(C(=O)NC(C(=O)NC(C(=O)NC(C(=O)NC(C(=O)NC(C(=O)NC(C(=O)NC(C(=O)NC(C(=O)NC(C(=O)NC(C(=O)NC(C(=O)NC(C(=O)NC(C(=O)NC(C(=O)NCC(=O)NC(C(=O)NC(C(=O)NC(C(=O)NC(C(=O)NC(C(=O)N6C(C(=O)NC(C(=O)NC(C(=O)NC(C(=O)NC(C(=O)NC(C(=O)NC(C(=O)NC(C(=O)NC(C(=O)NC(C(=O)NC(C(=O)NC(C(=O)NC(C(=O)NC(C(=O)NC(C(=O)NC(C(=O)NC(C(=O)NCC(=O)NC(C(=O)NC(C(=O)NC(C(=O)NC(C(=O)NC(C(=O)NC(C(=O)NC(C(=O)NC(C(=O)NC(C(=O)NC(C(=O)NC(C(=O)NC(C(=O)NC(C(=O)NC(C(=O)NC(C(=O)NC(C(=O)NC(C(=O)NC(C(=O)NC(C(=O)NC(C(=O)NC(C(=O)NC(C(=O)NC(C(=O)NC(C(=O)NC(C(=O)NC(C(=O)NC(C(=O)NC(C(=O)NC(C(=O)NC(C(=O)NC(C(=O)N7C(C(=O)NC(C(=O)NCC(=O)NC(C(=O)NC(C(=O)NC(C(=O)NC(C(=O)NC(C(=O)NC(C(=O)NC(C(=O)NC(C(=O)NC(C(=O)NC(C(=O)NC(C(=O)NC(C(=O)NC(C(=O)N8C(C(=O)NCC(=O)NC(C(=O)NC(C(=O)NC(C(=O)NC(C(=O)NC(C(=O)NC(C(=O)NC(C(=O)NC(C(=O)NC(C(=O)NC(C(=O)NC(C(=O)NC(C(=O)NC(C(=O)NC(C(=O)NC(C(=O)NC(C(=O)NC(C(=O)NC(C(=O)NC(C(=O)NC(C(=O)N9C(C(=O)NCC(=O)NC(C(=O)NC(C(=O)NC(C(=O)NC(C(=O)NC(C(=O)NC(C(=O)NC(C(=O)NC(C(=O)NC(C(=O)NC(C(=O)NC(C(=O)NCC(=O)NC(C(=O)NC(C(=O)NC(C(=O)NC(C(=O)NCC(=O)NC(C(=O)NC(C(=O)NC(C(=O)NCC(=O)NC(C(=O)NCC(=O)NC(C(=O)NC(C(=O)NC(C(=O)NC(C(=O)NC(C(=O)NC(C(=O)N%10C(C(=O)NC(C(=O)NC(C(=O)NC(C(=O)N%11C(C(=O)NC(C(=O)NC(C(=O)NC(C(=O)NC(C(=O)NC(C(=O)NC(C(=O)NC(C(=O)NCC(=O)NC(C(=O)NC(C(=O)NC(C(=O)NCC(=O)NC(C(=O)NC(C(=O)NC(C(=O)NC(C(=O)N%12C(C(=O)NC(C(=O)NCC(=O)NC(C(=O)NC(C(=O)NC(C(=O)NC(C(=O)NC)CC(=O)N)Cc%13ccc(O)cc%13)CO)CCCNC(=[NH2+])N)CC(=O)[O-])CCC%12)Cc%12ccc(O)cc%12)CC(C)C)Cc%12ccc(O)cc%12)Cc%12ccccc%12)CCC(=O)[O-])C)CO)CC(=O)[O-])C(CC)C)CC(C)C)C)CCC(=O)N)Cc%12ccccc%12)CC(C)C)CCC%11)CCCC[NH3+])CC(=O)N)Cc%11[nH]cnc%11)CCC%10)C(CC)C)C(O)C)CCC(=O)N)CC(C)C)C(CC)C)CC(=O)N)CC(=O)[O-])C(O)C)C(C)C)Cc%10ccc(O)cc%10)C(CC)C)C)Cc%10c%11c([nH]c%10)cccc%11)CCC(=O)N)CC(C)C)CCCNC(=[NH2+])N)C(O)C)CS)CO)CC(C)C)CCCNC(=[NH2+])N)Cc%10ccccc%10)C(CC)C)Cc%10ccc(O)cc%10)CO)CCC9)CCCC[NH3+])C(O)C)CO)Cc9ccc(O)cc9)CCCC[NH3+])CCC(=O)N)CC(C)C)CCCNC(=[NH2+])N)C)CCCC[NH3+])C(C)C)CCC(=O)[O-])CC(=O)[O-])Cc9ccc(O)cc9)C(O)C)CC(C)C)Cc9ccccc9)C)CCSC)Cc9ccc(O)cc9)CCC8)Cc8nc[nH]c8)C(O)C)C(C)C)C)CC(C)C)Cc8ccccc8)CC(=O)N)Cc8c9c([nH]c8)cccc9)CC(=O)N)CCCNC(=[NH2+])N)CC(C)C)C(CC)C)CO)Cc8c9c([nH]c8)cccc9)CCC7)CCC(=O)N)Cc7ccccc7)CC(C)C)CCCNC(=[NH2+])N)C(O)C)Cc7ccccc7)C(CC)C)CC(=O)[O-])Cc7ccccc7)CCC(=O)[O-])Cc7ccccc7)C(C)C)CO)C(CC)C)Cc7ccc(O)cc7)CC(=O)[O-])CC(=O)N)CS)C(O)C)CC(C)C)CC(=O)[O-])C(CC)C)C(O)C)CO)CCCC[NH3+])CC(C)C)C)CCSC)C)CCC(=O)[O-])CC(C)C)CO)CO)C(CC)C)CCC(=O)N)Cc7nc[nH]c7)C(C)C)CCC(=O)[O-])Cc7nc[nH]c7)CC(C)C)CS)CCC(=O)N)CCCNC(=[NH2+])N)Cc7ccccc7)C(C)C)CCCC[NH3+])Cc7c8c([nH]c7)cccc8)CCC6)C(C)C)C(CC)C)C(O)C)CCCC[NH3+])CC(=O)[O-])Cc6ccccc6)Cc6ccccc6)CCCC[NH3+])CCCNC(=[NH2+])N)Cc6c7c([nH]c6)cccc7)Cc6ccccc6)CCC(=O)[O-])C)C)CC(=O)[O-])C)CCCC[NH3+])C(O)C)C(CC)C)CCCNC(=[NH2+])N)Cc6ccccc6)CC(=O)N)CC(=O)[O-])CCC(=O)N)Cc6ccccc6)CCC(=O)N)CC(=O)N)CCC5)Cc5ccccc5)C(CC)C)C)CCCC[NH3+])C(CC)C)CCC(=O)[O-])C)CC(C)C)CCSC)Cc5nc[nH]c5)CO)Cc5ccccc5)C(CC)C)CC(C)C)CO)CC(C)C)CCCC[NH3+])C(O)C)CC(C)C)CC(=O)N)CCCNC(=[NH2+])N)CCCNC(=[NH2+])N)CC(=O)[O-])CCC(=O)N)CO)CCC(=O)N)CCC(=O)[O-])CCC(=O)[O-])Cc5ccc(O)cc5)CCSC)CCCNC(=[NH2+])N)CCC(=O)[O-])CCCC[NH3+])CCC(=O)[O-])CCCC[NH3+])Cc5ccccc5)CC(C)C)CCCNC(=[NH2+])N)C(CC)C)C)CCCNC(=[NH2+])N)CCCC[NH3+])CO)CCCC[NH3+])CCCC[NH3+])CCSC)CC(C)C)CO)CC(=O)[O-])C(CC)C)Cc5ccc(O)cc5)C(CC)C)CCCC[NH3+])Cc5ccccc5)Cc5ccc(O)cc5)CCC(=O)[O-])CC(=O)N)CCC(=O)[O-])CO)CC(C)C)CCC(=O)N)C)CC(C)C)CCCC[NH3+])CCC(=O)N)CC(=O)N)CC(=O)[O-])CC(=O)[O-])Cc5ccc(O)cc5)CCCC[NH3+])CO)CC(C)C)C(CC)C)CC(C)C)CCCNC(=[NH2+])N)CC(C)C)Cc5nc[nH]c5)CCC(=O)N)Cc5ccc(O)cc5)C(O)C)CC(=O)[O-])CCC4)CC(C)C)C(CC)C)CC(=O)[O-])CC(C)C)C(CC)C)Cc4ccc(O)cc4)CCC3)CCC2)CO)CC(=O)N)CCCC[NH3+])CC(C)C)CCC(=O)N)CC(C)C)CCCC[NH3+])CCC1)CC(=O)N)CCC(=O)N)CS)CC(C)C)CCCNC(=[NH2+])N)C(C)C)C(C)C)C)CC(=O)[O-])C.OCCO.[UH+3].[Zn+2].[Zn+2].O.O.O.O.O.O.O.O.O.O.O.O.O.O.O.O.O.O.O.O.O.O.O.O.O.O.O.O.O.O.O.O.O.O.O.O.O.O.O.O.O.O.O.O.O.O.O.O.O.O.O.O.O.O.O.O.O.O.O.O.O.O.O.O.O.O.O.O.O.O.O.O.O.O.O.O.O.O.O.O.O.O.O.O.O.O.O.O.O.O.O.O.O.O.O.O.O.O.O.O.O.O.O.O.O.O.O.O.O.O.O.O.O.O.O.O.O.O.O.O.O.O.O.O.O.O.O.O.O.O.O.O.O.O.O.O.O.O.O.O.O.O

>  <rseq>
1

>  <mseq>
98

>  <S>
-7.106638

>  <rmsd_refine>
1.7572137

>  <E_conf>
107.74313

>  <E_place>
-70.123192

>  <E_score1>
-10.251657

>  <E_refine>
-26.392544

>  <E_score2>
-7.106638

>  <Field_2>
VN08

>  <pseq>
98

>  <%C>
100

>  <a_heavy>
23

>  <h_logP>
5.1750159

>  <Weight>
447.095

>  <E_orig>
0.30575117

>  <PLIF_raw>
[[34,18,18,18,18,18,18],[3729,5143,5141,5137,5134,5135,5139],[261,363,363,363,363,363,363],[3,10,10,10,10,10,10],[1.7,0.6,0.6,0.6,0.6,0.6,0.6]]

>  <FP:PLIF>
52 53 22

>  <PLIF_ligidx>
[34,34,[18,18,18,18,18,18]]

$$$$

  MOE2020           3D

 39 41  0  0  1  0  0  0  0  0999 V2000
    1.5570   11.2780   18.2810 B   0  0  0  0  0  0  0  0  0  0  0  0
    2.6250   11.7240   18.0840 H   0  0  0  0  0  0  0  0  0  0  0  0
    0.3110   11.8310   18.3720 O   0  0  0  0  0  0  0  0  0  0  0  0
   -0.2570   10.4930   18.6270 C   0  0  2  0  0  0  0  0  0  0  0  0
    1.1180   10.0220   18.5540 N   0  0  0  0  0  0  0  0  0  0  0  0
    1.7630    8.7570   18.7450 C   0  0  0  0  0  0  0  0  0  0  0  0
    2.4810    8.2450   17.6670 C   0  0  0  0  0  0  0  0  0  0  0  0
    2.4490    8.7310   16.7350 H   0  0  0  0  0  0  0  0  0  0  0  0
    3.2610    7.1090   17.8470 C   0  0  0  0  0  0  0  0  0  0  0  0
    3.3010    6.4870   19.0730 C   0  0  0  0  0  0  0  0  0  0  0  0
    2.4980    6.9280   20.1230 C   0  0  0  0  0  0  0  0  0  0  0  0
    2.4800    6.3910   21.0330 H   0  0  0  0  0  0  0  0  0  0  0  0
    1.7430    8.1020   19.9930 C   0  0  0  0  0  0  0  0  0  0  0  0
    0.7140    8.8650   21.6750 I   0  0  0  0  0  0  0  0  0  0  0  0
    4.3310    5.3860   19.0900 C   0  0  0  0  0  0  0  0  0  0  0  0
    3.8580    4.4520   19.4030 H   0  0  0  0  0  0  0  0  0  0  0  0
    5.0960    5.6440   19.8180 H   0  0  0  0  0  0  0  0  0  0  0  0
    4.9210    5.3070   17.6340 C   0  0  3  0  0  0  0  0  0  0  0  0
    4.1480    6.4120   16.8480 C   0  0  0  0  0  0  0  0  0  0  0  0
    4.7980    7.1260   16.3600 H   0  0  0  0  0  0  0  0  0  0  0  0
    3.5530    5.9540   16.0680 H   0  0  0  0  0  0  0  0  0  0  0  0
    4.5410    3.9800   17.0780 C   0  0  0  0  0  0  0  0  0  0  0  0
    4.2430    2.9720   16.6520 N   0  0  0  0  0  0  0  0  0  0  0  0
    6.4960    5.5190   17.5110 C   0  0  0  0  0  0  0  0  0  0  0  0
    6.9650    6.9170   17.9710 C   0  0  0  0  0  0  0  0  0  0  0  0
    6.5920    7.7100   17.3260 H   0  0  0  0  0  0  0  0  0  0  0  0
    8.0550    6.9730   17.9620 H   0  0  0  0  0  0  0  0  0  0  0  0
    6.6250    7.0920   18.9840 H   0  0  0  0  0  0  0  0  0  0  0  0
    7.2760    4.5190   18.3830 C   0  0  0  0  0  0  0  0  0  0  0  0
    8.3490    4.6140   18.2100 H   0  0  0  0  0  0  0  0  0  0  0  0
    6.9840    3.5030   18.1420 H   0  0  0  0  0  0  0  0  0  0  0  0
    7.0880    4.7020   19.4410 H   0  0  0  0  0  0  0  0  0  0  0  0
    6.9760    5.3190   16.0520 C   0  0  0  0  0  0  0  0  0  0  0  0
    6.8500    4.2830   15.7360 H   0  0  0  0  0  0  0  0  0  0  0  0
    8.0320    5.5610   15.9760 H   0  0  0  0  0  0  0  0  0  0  0  0
    6.4320    5.9620   15.3630 H   0  0  0  0  0  0  0  0  0  0  0  0
   -1.4270    9.9100   17.3640 S   0  0  0  0  0  0  0  0  0  0  0  0
   -1.0390    8.6050   17.4320 H   0  0  0  0  0  0  0  0  0  0  0  0
   -0.7180   10.4010   19.6000 H   0  0  0  0  0  0  0  0  0  0  0  0
  1  2  1  0  0  0  0
  1  3  1  0  0  0  0
  1  5  1  0  0  0  0
  3  4  1  0  0  0  0
  4  5  1  0  0  0  0
  4 37  1  0  0  0  0
  4 39  1  0  0  0  0
  5  6  1  0  0  0  0
  6  7  1  0  0  0  0
  6 13  2  0  0  0  0
  7  8  1  0  0  0  0
  7  9  2  0  0  0  0
  9 10  1  0  0  0  0
  9 19  1  0  0  0  0
 10 11  2  0  0  0  0
 10 15  1  0  0  0  0
 11 12  1  0  0  0  0
 11 13  1  0  0  0  0
 13 14  1  0  0  0  0
 15 16  1  0  0  0  0
 15 17  1  0  0  0  0
 15 18  1  0  0  0  0
 18 19  1  0  0  0  0
 18 22  1  0  0  0  0
 18 24  1  0  0  0  0
 19 20  1  0  0  0  0
 19 21  1  0  0  0  0
 22 23  3  0  0  0  0
 24 25  1  0  0  0  0
 24 29  1  0  0  0  0
 24 33  1  0  0  0  0
 25 26  1  0  0  0  0
 25 27  1  0  0  0  0
 25 28  1  0  0  0  0
 29 30  1  0  0  0  0
 29 31  1  0  0  0  0
 29 32  1  0  0  0  0
 33 34  1  0  0  0  0
 33 35  1  0  0  0  0
 33 36  1  0  0  0  0
 37 38  1  0  0  0  0
M  END
>  <receptor>
S(=O)(=O)([O-])[O-].S(CCC(NC(=O)C(NC(=O)C(NC(=O)CNC(=O)C(NC(=O)C1N(C(=O)C(NC(=O)C(NC(=O)C(NC(=O)C(NC(=O)C(NC(=O)C(NC(=O)C(NC(=O)C(NC(=O)C(NC(=O)C(NC(=O)C(NC(=O)C(NC(=O)C(NC(=O)C(NC(=O)C(NC(=O)C(NC(=O)C(NC(=O)C(NC(=O)C(NC(=O)CNC(=O)C(NC(=O)C(NC(=O)C(NC(=O)C(NC(=O)C(NC(=O)C(NC(=O)C(NC(=O)C(NC(=O)C(NC(=O)C(NC(=O)C(NC(=O)C(NC(=O)C(NC(=O)C)CCCC[NH3+])C(C)C)C(O)C)CCC(=O)N)CCC(=O)[O-])CCC(=O)N)Cc2ccccc2)CCC(=O)[O-])CC(C)C)Cc2ccc(O)cc2)CS)CCC(=O)[O-])CCSC)CO)C(O)C)Cc2ccccc2)CCC(=O)N)CC(C)C)C[S-])CCCC[NH3+])C(CC)C)C[S-])C)CCC(=O)[O-])CC(=O)N)CC(=O)[O-])CCCC[NH3+])CC(=O)[O-])C(C)C)CCCC[NH3+])C(CC)C)CCC(=O)[O-])CCC1)C[S-])Cc1nc[n-]c1)CC(C)C)C(=O)NC(C(=O)NC(C(=O)NC(C(=O)NC(C(=O)NC(C(=O)NC(C(=O)NC(C(=O)NC(C(=O)NC(C(=O)NC(C(=O)NC(C(=O)NC(C(=O)NCC(=O)NC(C(=O)NCC(=O)NC(C(=O)N1C(C(=O)NC(C(=O)NC(C(=O)NC(C(=O)NC(C(=O)NC(C(=O)NC(C(=O)NC(C(=O)NCC(=O)NC(C(=O)NC(C(=O)N2C(C(=O)NC(C(=O)NC(C(=O)NC(C(=O)NC(C(=O)N3C(C(=O)NC(C(=O)NC(C(=O)[O-])CC(=O)[O-])Cc4ccccc4)CCC3)CC(=O)[O-])C(C)C)C(CC)C)C(CC)C)CCC2)CCC(=O)[O-])C(O)C)CCCC[NH3+])C(CC)C)CCC(=O)[O-])CS)CCCNC(=[NH2+])N)C[S-])Cc2ccccc2)CCC1)C[S-])CCC(=O)N)CC(=O)[O-])CO)CCC(=O)[O-])CCC(=O)N)Cc1c2c([nH]c1)cccc2)C)C(O)C)CC(C)C)C[S-])CO)C(O)C)C[S-])C.S(CCC(NC(=O)C(NC(=O)C(NC(=O)C(NC(=O)C(NC(=O)C(NC(=O)C(NC(=O)C(NC(=O)C(NC(=O)C(NC(=O)C(NC(=O)C(NC(=O)C(NC(=O)C(NC(=O)C(NC(=O)C(NC(=O)C[NH3+])CCC(=O)N)C)C)C)CC(=O)[O-])CCCNC(=[NH2+])N)CCCNC(=[NH2+])N)C(O)C)C(C)C)CCC(=O)[O-])CCCC[NH3+])C(O)C)Cc1c2c([nH]c1)cccc2)C)CC(C)C)C(=O)NC(C(=O)NC(C(=O)NC(C(=O)NC(C(=O)NC(C(=O)NC(C(=O)NC(C(=O)NC(C(=O)NC(C(=O)N1C(C(=O)NC(C(=O)NC(C(=O)NC(C(=O)NC(C(=O)NC(C(=O)NC(C(=O)NC(C(=O)N2C(C(=O)N3C(C(=O)NC(C(=O)NC(C(=O)NC(C(=O)NC(C(=O)NC(C(=O)NC(C(=O)N4C(C(=O)NC(C(=O)NC(C(=O)NC(C(=O)NC(C(=O)NC(C(=O)NC(C(=O)NC(C(=O)NC(C(=O)NC(C(=O)NC(C(=O)NC(C(=O)NC(C(=O)NC(C(=O)NC(C(=O)NC(C(=O)NC(C(=O)NC(C(=O)NC(C(=O)NC(C(=O)NC(C(=O)NC(C(=O)NC(C(=O)NC(C(=O)NC(C(=O)NC(C(=O)NC(C(=O)NC(C(=O)NC(C(=O)NC(C(=O)NC(C(=O)NC(C(=O)NC(C(=O)NC(C(=O)NC(C(=O)NC(C(=O)NC(C(=O)NC(C(=O)NC(C(=O)NC(C(=O)NC(C(=O)NC(C(=O)NC(C(=O)NC(C(=O)NC(C(=O)NC(C(=O)NC(C(=O)NC(C(=O)NC(C(=O)NCC(=O)NC(C(=O)NC(C(=O)NC(C(=O)NC(C(=O)NC(C(=O)NC(C(=O)NC(C(=O)NC(C(=O)NC(C(=O)NC(C(=O)NC(C(=O)NC(C(=O)NC(C(=O)NC(C(=O)NC(C(=O)NC(C(=O)NC(C(=O)NC(C(=O)NC(C(=O)NC(C(=O)NC(C(=O)NC(C(=O)NC(C(=O)NC(C(=O)NC(C(=O)NC(C(=O)NC(C(=O)NC(C(=O)NC(C(=O)NC(C(=O)NC(C(=O)NC(C(=O)NC(C(=O)N5C(C(=O)NC(C(=O)NCC(=O)NC(C(=O)NC(C(=O)NC(C(=O)NCC(=O)NC(C(=O)NC(C(=O)NC(C(=O)NC(C(=O)NC(C(=O)NC(C(=O)NC(C(=O)NC(C(=O)NC(C(=O)NC(C(=O)NC(C(=O)NC(C(=O)NC(C(=O)NC(C(=O)NC(C(=O)NC(C(=O)NC(C(=O)NC(C(=O)NCC(=O)NC(C(=O)NC(C(=O)NC(C(=O)NC(C(=O)NC(C(=O)N6C(C(=O)NC(C(=O)NC(C(=O)NC(C(=O)NC(C(=O)NC(C(=O)NC(C(=O)NC(C(=O)NC(C(=O)NC(C(=O)NC(C(=O)NC(C(=O)NC(C(=O)NC(C(=O)NC(C(=O)NC(C(=O)NC(C(=O)NCC(=O)NC(C(=O)NC(C(=O)NC(C(=O)NC(C(=O)NC(C(=O)NC(C(=O)NC(C(=O)NC(C(=O)NC(C(=O)NC(C(=O)NC(C(=O)NC(C(=O)NC(C(=O)NC(C(=O)NC(C(=O)NC(C(=O)NC(C(=O)NC(C(=O)NC(C(=O)NC(C(=O)NC(C(=O)NC(C(=O)NC(C(=O)NC(C(=O)NC(C(=O)NC(C(=O)NC(C(=O)NC(C(=O)NC(C(=O)NC(C(=O)NC(C(=O)N7C(C(=O)NC(C(=O)NCC(=O)NC(C(=O)NC(C(=O)NC(C(=O)NC(C(=O)NC(C(=O)NC(C(=O)NC(C(=O)NC(C(=O)NC(C(=O)NC(C(=O)NC(C(=O)NC(C(=O)NC(C(=O)N8C(C(=O)NCC(=O)NC(C(=O)NC(C(=O)NC(C(=O)NC(C(=O)NC(C(=O)NC(C(=O)NC(C(=O)NC(C(=O)NC(C(=O)NC(C(=O)NC(C(=O)NC(C(=O)NC(C(=O)NC(C(=O)NC(C(=O)NC(C(=O)NC(C(=O)NC(C(=O)NC(C(=O)NC(C(=O)N9C(C(=O)NCC(=O)NC(C(=O)NC(C(=O)NC(C(=O)NC(C(=O)NC(C(=O)NC(C(=O)NC(C(=O)NC(C(=O)NC(C(=O)NC(C(=O)NC(C(=O)NCC(=O)NC(C(=O)NC(C(=O)NC(C(=O)NC(C(=O)NCC(=O)NC(C(=O)NC(C(=O)NC(C(=O)NCC(=O)NC(C(=O)NCC(=O)NC(C(=O)NC(C(=O)NC(C(=O)NC(C(=O)NC(C(=O)NC(C(=O)N%10C(C(=O)NC(C(=O)NC(C(=O)NC(C(=O)N%11C(C(=O)NC(C(=O)NC(C(=O)NC(C(=O)NC(C(=O)NC(C(=O)NC(C(=O)NC(C(=O)NCC(=O)NC(C(=O)NC(C(=O)NC(C(=O)NCC(=O)NC(C(=O)NC(C(=O)NC(C(=O)NC(C(=O)N%12C(C(=O)NC(C(=O)NCC(=O)NC(C(=O)NC(C(=O)NC(C(=O)NC(C(=O)NC)CC(=O)N)Cc%13ccc(O)cc%13)CO)CCCNC(=[NH2+])N)CC(=O)[O-])CCC%12)Cc%12ccc(O)cc%12)CC(C)C)Cc%12ccc(O)cc%12)Cc%12ccccc%12)CCC(=O)[O-])C)CO)CC(=O)[O-])C(CC)C)CC(C)C)C)CCC(=O)N)Cc%12ccccc%12)CC(C)C)CCC%11)CCCC[NH3+])CC(=O)N)Cc%11[nH]cnc%11)CCC%10)C(CC)C)C(O)C)CCC(=O)N)CC(C)C)C(CC)C)CC(=O)N)CC(=O)[O-])C(O)C)C(C)C)Cc%10ccc(O)cc%10)C(CC)C)C)Cc%10c%11c([nH]c%10)cccc%11)CCC(=O)N)CC(C)C)CCCNC(=[NH2+])N)C(O)C)CS)CO)CC(C)C)CCCNC(=[NH2+])N)Cc%10ccccc%10)C(CC)C)Cc%10ccc(O)cc%10)CO)CCC9)CCCC[NH3+])C(O)C)CO)Cc9ccc(O)cc9)CCCC[NH3+])CCC(=O)N)CC(C)C)CCCNC(=[NH2+])N)C)CCCC[NH3+])C(C)C)CCC(=O)[O-])CC(=O)[O-])Cc9ccc(O)cc9)C(O)C)CC(C)C)Cc9ccccc9)C)CCSC)Cc9ccc(O)cc9)CCC8)Cc8nc[nH]c8)C(O)C)C(C)C)C)CC(C)C)Cc8ccccc8)CC(=O)N)Cc8c9c([nH]c8)cccc9)CC(=O)N)CCCNC(=[NH2+])N)CC(C)C)C(CC)C)CO)Cc8c9c([nH]c8)cccc9)CCC7)CCC(=O)N)Cc7ccccc7)CC(C)C)CCCNC(=[NH2+])N)C(O)C)Cc7ccccc7)C(CC)C)CC(=O)[O-])Cc7ccccc7)CCC(=O)[O-])Cc7ccccc7)C(C)C)CO)C(CC)C)Cc7ccc(O)cc7)CC(=O)[O-])CC(=O)N)CS)C(O)C)CC(C)C)CC(=O)[O-])C(CC)C)C(O)C)CO)CCCC[NH3+])CC(C)C)C)CCSC)C)CCC(=O)[O-])CC(C)C)CO)CO)C(CC)C)CCC(=O)N)Cc7nc[nH]c7)C(C)C)CCC(=O)[O-])Cc7nc[nH]c7)CC(C)C)CS)CCC(=O)N)CCCNC(=[NH2+])N)Cc7ccccc7)C(C)C)CCCC[NH3+])Cc7c8c([nH]c7)cccc8)CCC6)C(C)C)C(CC)C)C(O)C)CCCC[NH3+])CC(=O)[O-])Cc6ccccc6)Cc6ccccc6)CCCC[NH3+])CCCNC(=[NH2+])N)Cc6c7c([nH]c6)cccc7)Cc6ccccc6)CCC(=O)[O-])C)C)CC(=O)[O-])C)CCCC[NH3+])C(O)C)C(CC)C)CCCNC(=[NH2+])N)Cc6ccccc6)CC(=O)N)CC(=O)[O-])CCC(=O)N)Cc6ccccc6)CCC(=O)N)CC(=O)N)CCC5)Cc5ccccc5)C(CC)C)C)CCCC[NH3+])C(CC)C)CCC(=O)[O-])C)CC(C)C)CCSC)Cc5nc[nH]c5)CO)Cc5ccccc5)C(CC)C)CC(C)C)CO)CC(C)C)CCCC[NH3+])C(O)C)CC(C)C)CC(=O)N)CCCNC(=[NH2+])N)CCCNC(=[NH2+])N)CC(=O)[O-])CCC(=O)N)CO)CCC(=O)N)CCC(=O)[O-])CCC(=O)[O-])Cc5ccc(O)cc5)CCSC)CCCNC(=[NH2+])N)CCC(=O)[O-])CCCC[NH3+])CCC(=O)[O-])CCCC[NH3+])Cc5ccccc5)CC(C)C)CCCNC(=[NH2+])N)C(CC)C)C)CCCNC(=[NH2+])N)CCCC[NH3+])CO)CCCC[NH3+])CCCC[NH3+])CCSC)CC(C)C)CO)CC(=O)[O-])C(CC)C)Cc5ccc(O)cc5)C(CC)C)CCCC[NH3+])Cc5ccccc5)Cc5ccc(O)cc5)CCC(=O)[O-])CC(=O)N)CCC(=O)[O-])CO)CC(C)C)CCC(=O)N)C)CC(C)C)CCCC[NH3+])CCC(=O)N)CC(=O)N)CC(=O)[O-])CC(=O)[O-])Cc5ccc(O)cc5)CCCC[NH3+])CO)CC(C)C)C(CC)C)CC(C)C)CCCNC(=[NH2+])N)CC(C)C)Cc5nc[nH]c5)CCC(=O)N)Cc5ccc(O)cc5)C(O)C)CC(=O)[O-])CCC4)CC(C)C)C(CC)C)CC(=O)[O-])CC(C)C)C(CC)C)Cc4ccc(O)cc4)CCC3)CCC2)CO)CC(=O)N)CCCC[NH3+])CC(C)C)CCC(=O)N)CC(C)C)CCCC[NH3+])CCC1)CC(=O)N)CCC(=O)N)CS)CC(C)C)CCCNC(=[NH2+])N)C(C)C)C(C)C)C)CC(=O)[O-])C.OCCO.[UH+3].[Zn+2].[Zn+2].O.O.O.O.O.O.O.O.O.O.O.O.O.O.O.O.O.O.O.O.O.O.O.O.O.O.O.O.O.O.O.O.O.O.O.O.O.O.O.O.O.O.O.O.O.O.O.O.O.O.O.O.O.O.O.O.O.O.O.O.O.O.O.O.O.O.O.O.O.O.O.O.O.O.O.O.O.O.O.O.O.O.O.O.O.O.O.O.O.O.O.O.O.O.O.O.O.O.O.O.O.O.O.O.O.O.O.O.O.O.O.O.O.O.O.O.O.O.O.O.O.O.O.O.O.O.O.O.O.O.O.O.O.O.O.O.O.O.O.O.O.O

>  <rseq>
1

>  <mseq>
99

>  <S>
-6.9284267

>  <rmsd_refine>
1.9119806

>  <E_conf>
12.2387

>  <E_place>
-53.615246

>  <E_score1>
-12.659058

>  <E_refine>
-29.079634

>  <E_score2>
-6.9284267

>  <Field_2>
VN09

>  <pseq>
99

>  <%C>
89.932831

>  <a_heavy>
21

>  <h_logP>
4.8893757

>  <Weight>
412.103

>  <E_orig>
0.2

>  <PLIF_raw>
[[],[],[],[],[]]

>  <PLIF_ligidx>
[]

$$$$

  MOE2020           3D

 41 43  0  0  1  0  0  0  0  0999 V2000
    2.9010    6.6460   18.6870 C   0  0  2  0  0  0  0  0  0  0  0  0
    4.0340    5.7190   19.2500 C   0  0  2  0  0  0  0  0  0  0  0  0
    5.0020    6.0680   18.0360 C   0  0  3  0  0  0  0  0  0  0  0  0
    3.9770    7.2190   17.7420 C   0  0  0  0  0  0  0  0  0  0  0  0
    3.5790    7.3780   16.4740 F   0  0  0  0  0  0  0  0  0  0  0  0
    4.4070    8.3970   18.1350 F   0  0  0  0  0  0  0  0  0  0  0  0
    6.3220    6.5980   18.4550 C   0  0  0  0  0  0  0  0  0  0  0  0
    7.3640    6.9760   18.7030 N   0  0  0  0  0  0  0  0  0  0  0  0
    5.2850    5.0120   16.8780 C   0  0  0  0  0  0  0  0  0  0  0  0
    5.9430    5.6840   15.6390 C   0  0  0  0  0  0  0  0  0  0  0  0
    5.2920    6.4020   15.1470 H   0  0  0  0  0  0  0  0  0  0  0  0
    6.2010    4.9370   14.8860 H   0  0  0  0  0  0  0  0  0  0  0  0
    6.8710    6.1910   15.9020 H   0  0  0  0  0  0  0  0  0  0  0  0
    6.2810    3.9430   17.3650 C   0  0  0  0  0  0  0  0  0  0  0  0
    7.2710    4.3440   17.5860 H   0  0  0  0  0  0  0  0  0  0  0  0
    6.4110    3.2100   16.5730 H   0  0  0  0  0  0  0  0  0  0  0  0
    5.9130    3.4330   18.2540 H   0  0  0  0  0  0  0  0  0  0  0  0
    4.0390    4.2560   16.3980 C   0  0  0  0  0  0  0  0  0  0  0  0
    4.2370    3.7480   15.4540 H   0  0  0  0  0  0  0  0  0  0  0  0
    3.7390    3.4810   17.1010 H   0  0  0  0  0  0  0  0  0  0  0  0
    3.2130    4.9380   16.2530 H   0  0  0  0  0  0  0  0  0  0  0  0
    3.6540    4.3380   19.5010 N   0  0  0  0  0  0  0  0  0  0  0  0
    2.8970    4.3360   20.1930 H   0  0  0  0  0  0  0  0  0  0  0  0
    4.4450    3.8460   19.9250 H   0  0  0  0  0  0  0  0  0  0  0  0
    2.1200    7.6270   19.7260 B   0  5  0  0  0  0  0  0  0  0  0  0
    1.8640    7.1020   20.7420 H   0  0  0  0  0  0  0  0  0  0  0  0
    1.7770    9.1060   19.5400 C   0  0  0  0  0  0  0  0  0  0  0  0
    2.0250    9.8070   18.3250 C   0  0  0  0  0  0  0  0  0  0  0  0
    2.2650    9.3240   17.4160 H   0  0  0  0  0  0  0  0  0  0  0  0
    2.0060   11.1900   18.3990 C   0  0  0  0  0  0  0  0  0  0  0  0
    1.6470   11.9010   19.5120 C   0  0  0  0  0  0  0  0  0  0  0  0
    1.2280   11.3780   20.6940 C   0  0  0  0  0  0  0  0  0  0  0  0
    0.9130   11.9520   21.5270 H   0  0  0  0  0  0  0  0  0  0  0  0
    1.2240    9.9360   20.6780 C   0  0  0  0  0  0  0  0  0  0  0  0
    0.3060    9.0320   22.4010 I   0  3  0  0  0  0  0  0  0  0  0  0
    1.8720   13.1350   18.9400 O   0  0  0  0  0  0  0  0  0  0  0  0
    2.2760   12.4870   17.6890 C   0  0  0  0  0  0  0  0  0  0  0  0
    1.6430   12.7350   16.8530 H   0  0  0  0  0  0  0  0  0  0  0  0
    3.3070   12.6710   17.4200 H   0  0  0  0  0  0  0  0  0  0  0  0
    2.1620    6.0910   18.1330 H   0  0  0  0  0  0  0  0  0  0  0  0
    4.4270    6.1170   20.1740 H   0  0  0  0  0  0  0  0  0  0  0  0
  1  2  1  0  0  0  0
  1  4  1  0  0  0  0
  1 25  1  0  0  0  0
  1 40  1  0  0  0  0
  2  3  1  0  0  0  0
  2 22  1  0  0  0  0
  2 41  1  0  0  0  0
  3  4  1  0  0  0  0
  3  7  1  0  0  0  0
  3  9  1  0  0  0  0
  4  5  1  0  0  0  0
  4  6  1  0  0  0  0
  7  8  3  0  0  0  0
  9 10  1  0  0  0  0
  9 14  1  0  0  0  0
  9 18  1  0  0  0  0
 10 11  1  0  0  0  0
 10 12  1  0  0  0  0
 10 13  1  0  0  0  0
 14 15  1  0  0  0  0
 14 16  1  0  0  0  0
 14 17  1  0  0  0  0
 18 19  1  0  0  0  0
 18 20  1  0  0  0  0
 18 21  1  0  0  0  0
 22 23  1  0  0  0  0
 22 24  1  0  0  0  0
 25 26  1  0  0  0  0
 25 27  2  0  0  0  0
 27 28  1  0  0  0  0
 27 34  1  0  0  0  0
 28 29  1  0  0  0  0
 28 30  2  0  0  0  0
 30 31  1  0  0  0  0
 30 37  1  0  0  0  0
 31 32  2  0  0  0  0
 31 36  1  0  0  0  0
 32 33  1  0  0  0  0
 32 34  1  0  0  0  0
 34 35  2  0  0  0  0
 36 37  1  0  0  0  0
 37 38  1  0  0  0  0
 37 39  1  0  0  0  0
M  CHG  1  25  -1
M  CHG  1  35   1
M  END
>  <receptor>
S(=O)(=O)([O-])[O-].S(CCC(NC(=O)C(NC(=O)C(NC(=O)CNC(=O)C(NC(=O)C1N(C(=O)C(NC(=O)C(NC(=O)C(NC(=O)C(NC(=O)C(NC(=O)C(NC(=O)C(NC(=O)C(NC(=O)C(NC(=O)C(NC(=O)C(NC(=O)C(NC(=O)C(NC(=O)C(NC(=O)C(NC(=O)C(NC(=O)C(NC(=O)C(NC(=O)C(NC(=O)CNC(=O)C(NC(=O)C(NC(=O)C(NC(=O)C(NC(=O)C(NC(=O)C(NC(=O)C(NC(=O)C(NC(=O)C(NC(=O)C(NC(=O)C(NC(=O)C(NC(=O)C(NC(=O)C)CCCC[NH3+])C(C)C)C(O)C)CCC(=O)N)CCC(=O)[O-])CCC(=O)N)Cc2ccccc2)CCC(=O)[O-])CC(C)C)Cc2ccc(O)cc2)CS)CCC(=O)[O-])CCSC)CO)C(O)C)Cc2ccccc2)CCC(=O)N)CC(C)C)C[S-])CCCC[NH3+])C(CC)C)C[S-])C)CCC(=O)[O-])CC(=O)N)CC(=O)[O-])CCCC[NH3+])CC(=O)[O-])C(C)C)CCCC[NH3+])C(CC)C)CCC(=O)[O-])CCC1)C[S-])Cc1nc[n-]c1)CC(C)C)C(=O)NC(C(=O)NC(C(=O)NC(C(=O)NC(C(=O)NC(C(=O)NC(C(=O)NC(C(=O)NC(C(=O)NC(C(=O)NC(C(=O)NC(C(=O)NC(C(=O)NCC(=O)NC(C(=O)NCC(=O)NC(C(=O)N1C(C(=O)NC(C(=O)NC(C(=O)NC(C(=O)NC(C(=O)NC(C(=O)NC(C(=O)NC(C(=O)NCC(=O)NC(C(=O)NC(C(=O)N2C(C(=O)NC(C(=O)NC(C(=O)NC(C(=O)NC(C(=O)N3C(C(=O)NC(C(=O)NC(C(=O)[O-])CC(=O)[O-])Cc4ccccc4)CCC3)CC(=O)[O-])C(C)C)C(CC)C)C(CC)C)CCC2)CCC(=O)[O-])C(O)C)CCCC[NH3+])C(CC)C)CCC(=O)[O-])CS)CCCNC(=[NH2+])N)C[S-])Cc2ccccc2)CCC1)C[S-])CCC(=O)N)CC(=O)[O-])CO)CCC(=O)[O-])CCC(=O)N)Cc1c2c([nH]c1)cccc2)C)C(O)C)CC(C)C)C[S-])CO)C(O)C)C[S-])C.S(CCC(NC(=O)C(NC(=O)C(NC(=O)C(NC(=O)C(NC(=O)C(NC(=O)C(NC(=O)C(NC(=O)C(NC(=O)C(NC(=O)C(NC(=O)C(NC(=O)C(NC(=O)C(NC(=O)C(NC(=O)C(NC(=O)C[NH3+])CCC(=O)N)C)C)C)CC(=O)[O-])CCCNC(=[NH2+])N)CCCNC(=[NH2+])N)C(O)C)C(C)C)CCC(=O)[O-])CCCC[NH3+])C(O)C)Cc1c2c([nH]c1)cccc2)C)CC(C)C)C(=O)NC(C(=O)NC(C(=O)NC(C(=O)NC(C(=O)NC(C(=O)NC(C(=O)NC(C(=O)NC(C(=O)NC(C(=O)N1C(C(=O)NC(C(=O)NC(C(=O)NC(C(=O)NC(C(=O)NC(C(=O)NC(C(=O)NC(C(=O)N2C(C(=O)N3C(C(=O)NC(C(=O)NC(C(=O)NC(C(=O)NC(C(=O)NC(C(=O)NC(C(=O)N4C(C(=O)NC(C(=O)NC(C(=O)NC(C(=O)NC(C(=O)NC(C(=O)NC(C(=O)NC(C(=O)NC(C(=O)NC(C(=O)NC(C(=O)NC(C(=O)NC(C(=O)NC(C(=O)NC(C(=O)NC(C(=O)NC(C(=O)NC(C(=O)NC(C(=O)NC(C(=O)NC(C(=O)NC(C(=O)NC(C(=O)NC(C(=O)NC(C(=O)NC(C(=O)NC(C(=O)NC(C(=O)NC(C(=O)NC(C(=O)NC(C(=O)NC(C(=O)NC(C(=O)NC(C(=O)NC(C(=O)NC(C(=O)NC(C(=O)NC(C(=O)NC(C(=O)NC(C(=O)NC(C(=O)NC(C(=O)NC(C(=O)NC(C(=O)NC(C(=O)NC(C(=O)NC(C(=O)NC(C(=O)NC(C(=O)NCC(=O)NC(C(=O)NC(C(=O)NC(C(=O)NC(C(=O)NC(C(=O)NC(C(=O)NC(C(=O)NC(C(=O)NC(C(=O)NC(C(=O)NC(C(=O)NC(C(=O)NC(C(=O)NC(C(=O)NC(C(=O)NC(C(=O)NC(C(=O)NC(C(=O)NC(C(=O)NC(C(=O)NC(C(=O)NC(C(=O)NC(C(=O)NC(C(=O)NC(C(=O)NC(C(=O)NC(C(=O)NC(C(=O)NC(C(=O)NC(C(=O)NC(C(=O)NC(C(=O)NC(C(=O)N5C(C(=O)NC(C(=O)NCC(=O)NC(C(=O)NC(C(=O)NC(C(=O)NCC(=O)NC(C(=O)NC(C(=O)NC(C(=O)NC(C(=O)NC(C(=O)NC(C(=O)NC(C(=O)NC(C(=O)NC(C(=O)NC(C(=O)NC(C(=O)NC(C(=O)NC(C(=O)NC(C(=O)NC(C(=O)NC(C(=O)NC(C(=O)NC(C(=O)NCC(=O)NC(C(=O)NC(C(=O)NC(C(=O)NC(C(=O)NC(C(=O)N6C(C(=O)NC(C(=O)NC(C(=O)NC(C(=O)NC(C(=O)NC(C(=O)NC(C(=O)NC(C(=O)NC(C(=O)NC(C(=O)NC(C(=O)NC(C(=O)NC(C(=O)NC(C(=O)NC(C(=O)NC(C(=O)NC(C(=O)NCC(=O)NC(C(=O)NC(C(=O)NC(C(=O)NC(C(=O)NC(C(=O)NC(C(=O)NC(C(=O)NC(C(=O)NC(C(=O)NC(C(=O)NC(C(=O)NC(C(=O)NC(C(=O)NC(C(=O)NC(C(=O)NC(C(=O)NC(C(=O)NC(C(=O)NC(C(=O)NC(C(=O)NC(C(=O)NC(C(=O)NC(C(=O)NC(C(=O)NC(C(=O)NC(C(=O)NC(C(=O)NC(C(=O)NC(C(=O)NC(C(=O)NC(C(=O)N7C(C(=O)NC(C(=O)NCC(=O)NC(C(=O)NC(C(=O)NC(C(=O)NC(C(=O)NC(C(=O)NC(C(=O)NC(C(=O)NC(C(=O)NC(C(=O)NC(C(=O)NC(C(=O)NC(C(=O)NC(C(=O)N8C(C(=O)NCC(=O)NC(C(=O)NC(C(=O)NC(C(=O)NC(C(=O)NC(C(=O)NC(C(=O)NC(C(=O)NC(C(=O)NC(C(=O)NC(C(=O)NC(C(=O)NC(C(=O)NC(C(=O)NC(C(=O)NC(C(=O)NC(C(=O)NC(C(=O)NC(C(=O)NC(C(=O)NC(C(=O)N9C(C(=O)NCC(=O)NC(C(=O)NC(C(=O)NC(C(=O)NC(C(=O)NC(C(=O)NC(C(=O)NC(C(=O)NC(C(=O)NC(C(=O)NC(C(=O)NC(C(=O)NCC(=O)NC(C(=O)NC(C(=O)NC(C(=O)NC(C(=O)NCC(=O)NC(C(=O)NC(C(=O)NC(C(=O)NCC(=O)NC(C(=O)NCC(=O)NC(C(=O)NC(C(=O)NC(C(=O)NC(C(=O)NC(C(=O)NC(C(=O)N%10C(C(=O)NC(C(=O)NC(C(=O)NC(C(=O)N%11C(C(=O)NC(C(=O)NC(C(=O)NC(C(=O)NC(C(=O)NC(C(=O)NC(C(=O)NC(C(=O)NCC(=O)NC(C(=O)NC(C(=O)NC(C(=O)NCC(=O)NC(C(=O)NC(C(=O)NC(C(=O)NC(C(=O)N%12C(C(=O)NC(C(=O)NCC(=O)NC(C(=O)NC(C(=O)NC(C(=O)NC(C(=O)NC)CC(=O)N)Cc%13ccc(O)cc%13)CO)CCCNC(=[NH2+])N)CC(=O)[O-])CCC%12)Cc%12ccc(O)cc%12)CC(C)C)Cc%12ccc(O)cc%12)Cc%12ccccc%12)CCC(=O)[O-])C)CO)CC(=O)[O-])C(CC)C)CC(C)C)C)CCC(=O)N)Cc%12ccccc%12)CC(C)C)CCC%11)CCCC[NH3+])CC(=O)N)Cc%11[nH]cnc%11)CCC%10)C(CC)C)C(O)C)CCC(=O)N)CC(C)C)C(CC)C)CC(=O)N)CC(=O)[O-])C(O)C)C(C)C)Cc%10ccc(O)cc%10)C(CC)C)C)Cc%10c%11c([nH]c%10)cccc%11)CCC(=O)N)CC(C)C)CCCNC(=[NH2+])N)C(O)C)CS)CO)CC(C)C)CCCNC(=[NH2+])N)Cc%10ccccc%10)C(CC)C)Cc%10ccc(O)cc%10)CO)CCC9)CCCC[NH3+])C(O)C)CO)Cc9ccc(O)cc9)CCCC[NH3+])CCC(=O)N)CC(C)C)CCCNC(=[NH2+])N)C)CCCC[NH3+])C(C)C)CCC(=O)[O-])CC(=O)[O-])Cc9ccc(O)cc9)C(O)C)CC(C)C)Cc9ccccc9)C)CCSC)Cc9ccc(O)cc9)CCC8)Cc8nc[nH]c8)C(O)C)C(C)C)C)CC(C)C)Cc8ccccc8)CC(=O)N)Cc8c9c([nH]c8)cccc9)CC(=O)N)CCCNC(=[NH2+])N)CC(C)C)C(CC)C)CO)Cc8c9c([nH]c8)cccc9)CCC7)CCC(=O)N)Cc7ccccc7)CC(C)C)CCCNC(=[NH2+])N)C(O)C)Cc7ccccc7)C(CC)C)CC(=O)[O-])Cc7ccccc7)CCC(=O)[O-])Cc7ccccc7)C(C)C)CO)C(CC)C)Cc7ccc(O)cc7)CC(=O)[O-])CC(=O)N)CS)C(O)C)CC(C)C)CC(=O)[O-])C(CC)C)C(O)C)CO)CCCC[NH3+])CC(C)C)C)CCSC)C)CCC(=O)[O-])CC(C)C)CO)CO)C(CC)C)CCC(=O)N)Cc7nc[nH]c7)C(C)C)CCC(=O)[O-])Cc7nc[nH]c7)CC(C)C)CS)CCC(=O)N)CCCNC(=[NH2+])N)Cc7ccccc7)C(C)C)CCCC[NH3+])Cc7c8c([nH]c7)cccc8)CCC6)C(C)C)C(CC)C)C(O)C)CCCC[NH3+])CC(=O)[O-])Cc6ccccc6)Cc6ccccc6)CCCC[NH3+])CCCNC(=[NH2+])N)Cc6c7c([nH]c6)cccc7)Cc6ccccc6)CCC(=O)[O-])C)C)CC(=O)[O-])C)CCCC[NH3+])C(O)C)C(CC)C)CCCNC(=[NH2+])N)Cc6ccccc6)CC(=O)N)CC(=O)[O-])CCC(=O)N)Cc6ccccc6)CCC(=O)N)CC(=O)N)CCC5)Cc5ccccc5)C(CC)C)C)CCCC[NH3+])C(CC)C)CCC(=O)[O-])C)CC(C)C)CCSC)Cc5nc[nH]c5)CO)Cc5ccccc5)C(CC)C)CC(C)C)CO)CC(C)C)CCCC[NH3+])C(O)C)CC(C)C)CC(=O)N)CCCNC(=[NH2+])N)CCCNC(=[NH2+])N)CC(=O)[O-])CCC(=O)N)CO)CCC(=O)N)CCC(=O)[O-])CCC(=O)[O-])Cc5ccc(O)cc5)CCSC)CCCNC(=[NH2+])N)CCC(=O)[O-])CCCC[NH3+])CCC(=O)[O-])CCCC[NH3+])Cc5ccccc5)CC(C)C)CCCNC(=[NH2+])N)C(CC)C)C)CCCNC(=[NH2+])N)CCCC[NH3+])CO)CCCC[NH3+])CCCC[NH3+])CCSC)CC(C)C)CO)CC(=O)[O-])C(CC)C)Cc5ccc(O)cc5)C(CC)C)CCCC[NH3+])Cc5ccccc5)Cc5ccc(O)cc5)CCC(=O)[O-])CC(=O)N)CCC(=O)[O-])CO)CC(C)C)CCC(=O)N)C)CC(C)C)CCCC[NH3+])CCC(=O)N)CC(=O)N)CC(=O)[O-])CC(=O)[O-])Cc5ccc(O)cc5)CCCC[NH3+])CO)CC(C)C)C(CC)C)CC(C)C)CCCNC(=[NH2+])N)CC(C)C)Cc5nc[nH]c5)CCC(=O)N)Cc5ccc(O)cc5)C(O)C)CC(=O)[O-])CCC4)CC(C)C)C(CC)C)CC(=O)[O-])CC(C)C)C(CC)C)Cc4ccc(O)cc4)CCC3)CCC2)CO)CC(=O)N)CCCC[NH3+])CC(C)C)CCC(=O)N)CC(C)C)CCCC[NH3+])CCC1)CC(=O)N)CCC(=O)N)CS)CC(C)C)CCCNC(=[NH2+])N)C(C)C)C(C)C)C)CC(=O)[O-])C.OCCO.[UH+3].[Zn+2].[Zn+2].O.O.O.O.O.O.O.O.O.O.O.O.O.O.O.O.O.O.O.O.O.O.O.O.O.O.O.O.O.O.O.O.O.O.O.O.O.O.O.O.O.O.O.O.O.O.O.O.O.O.O.O.O.O.O.O.O.O.O.O.O.O.O.O.O.O.O.O.O.O.O.O.O.O.O.O.O.O.O.O.O.O.O.O.O.O.O.O.O.O.O.O.O.O.O.O.O.O.O.O.O.O.O.O.O.O.O.O.O.O.O.O.O.O.O.O.O.O.O.O.O.O.O.O.O.O.O.O.O.O.O.O.O.O.O.O.O.O.O.O.O.O

>  <rseq>
1

>  <mseq>
100

>  <S>
-6.1111088

>  <rmsd_refine>
1.6361285

>  <E_conf>
69.405579

>  <E_place>
-47.755581

>  <E_score1>
-11.386064

>  <E_refine>
-20.421352

>  <E_score2>
-6.1111088

>  <Field_2>
VN10

>  <pseq>
100

>  <%C>
100

>  <a_heavy>
23

>  <h_logP>
3.8575234

>  <Weight>
430.04401

>  <E_orig>
0

>  <PLIF_raw>
[35,1761,141,3,1.6]

>  <FP:PLIF>
49 54

>  <PLIF_ligidx>
[35,35]

$$$$
