=
 OpenBabel07192307433D

 56 60  0  0  1  0  0  0  0  0999 V2000
    4.5110    5.6960   17.3320 C   0  0  0  0  0  0  0  0  0  0  0  0
    4.3280    4.5810   18.1540 C   0  0  0  0  0  0  0  0  0  0  0  0
    3.4290    4.6450   19.2140 C   0  0  0  0  0  0  0  0  0  0  0  0
    3.2910    3.5010   20.0410 N   0  0  0  0  0  0  0  0  0  0  0  0
    2.7460    5.7710   19.4960 N   0  0  0  0  0  0  0  0  0  0  0  0
    2.9090    6.8620   18.7110 C   0  0  0  0  0  0  0  0  0  0  0  0
    3.7800    6.8540   17.6270 C   0  0  0  0  0  0  0  0  0  0  0  0
    4.8890    3.6680   17.9850 H   0  0  0  0  0  0  0  0  0  0  0  0
    3.1740    2.6850   19.4440 H   0  0  0  0  0  0  0  0  0  0  0  0
    3.9130    7.7340   17.0080 H   0  0  0  0  0  0  0  0  0  0  0  0
    2.1520    7.9950   19.0580 N   0  0  0  0  0  0  0  0  0  0  0  0
    1.5330    8.0660   20.3710 C   0  0  0  0  0  0  0  0  0  0  0  0
    0.8370    9.3900   20.3420 C   0  0  0  0  0  0  0  0  0  0  0  0
    1.0540   10.0030   19.1090 C   0  0  0  0  0  0  0  0  0  0  0  0
    0.5320   11.2410   18.7890 C   0  0  0  0  0  0  0  0  0  0  0  0
   -0.2430   11.8820   19.7570 C   0  0  0  0  0  0  0  0  0  0  0  0
   -0.4730   11.2770   21.0070 C   0  0  0  0  0  0  0  0  0  0  0  0
    0.0660   10.0140   21.3200 C   0  0  0  0  0  0  0  0  0  0  0  0
    1.8900    9.1170   18.2860 C   0  0  0  0  0  0  0  0  0  0  0  0
    2.2270    9.4050   17.1540 O   0  0  0  0  0  0  0  0  0  0  0  0
    0.8150    7.2480   20.4900 H   0  0  0  0  0  0  0  0  0  0  0  0
    2.3040    8.0460   21.1480 H   0  0  0  0  0  0  0  0  0  0  0  0
    0.7180   11.6920   17.8200 H   0  0  0  0  0  0  0  0  0  0  0  0
   -0.6720   12.8580   19.5440 H   0  0  0  0  0  0  0  0  0  0  0  0
   -1.0840   11.8050   21.7390 H   0  0  0  0  0  0  0  0  0  0  0  0
   -0.1780    9.3550   22.6510 C   0  0  0  0  0  0  0  0  0  0  0  0
    0.9550    9.1600   23.3820 F   0  0  0  0  0  0  0  0  0  0  0  0
   -0.7570    8.1300   22.5240 F   0  0  0  0  0  0  0  0  0  0  0  0
   -1.0140   10.0830   23.4410 F   0  0  0  0  0  0  0  0  0  0  0  0
    2.3510    3.5790   21.1650 C   0  0  0  0  0  0  0  0  0  0  0  0
    1.9610    2.3390   21.9200 C   0  0  0  0  0  0  0  0  0  0  0  0
    0.9530    3.0380   21.0530 C   0  0  0  0  0  0  0  0  0  0  0  0
    2.4890    4.4790   21.7600 H   0  0  0  0  0  0  0  0  0  0  0  0
    2.3480    1.3840   21.5850 H   0  0  0  0  0  0  0  0  0  0  0  0
    1.8490    2.4200   22.9940 H   0  0  0  0  0  0  0  0  0  0  0  0
    0.1620    3.6000   21.5350 H   0  0  0  0  0  0  0  0  0  0  0  0
    0.6580    2.5670   20.1230 H   0  0  0  0  0  0  0  0  0  0  0  0
    5.4940    5.6960   16.1690 C   0  0  2  0  0  0  0  0  0  0  0  0
    5.4430    6.6810   15.6810 H   0  0  0  0  0  0  0  0  0  0  0  0
    5.0990    4.6640   15.1010 C   0  0  0  0  0  0  0  0  0  0  0  0
    5.4540    3.6590   15.3520 H   0  0  0  0  0  0  0  0  0  0  0  0
    5.5210    4.9280   14.1250 H   0  0  0  0  0  0  0  0  0  0  0  0
    4.0100    4.6180   14.9840 H   0  0  0  0  0  0  0  0  0  0  0  0
    6.9280    5.4780   16.6930 C   0  0  0  0  0  0  0  0  0  0  0  0
    6.9340    4.6460   17.4110 H   0  0  0  0  0  0  0  0  0  0  0  0
    7.5860    5.1710   15.8720 H   0  0  0  0  0  0  0  0  0  0  0  0
    7.4700    6.6790   17.3910 C   0  0  0  0  0  0  0  0  0  0  0  0
    7.5440    7.8990   16.8980 N   0  0  0  0  0  0  0  0  0  0  0  0
    8.1040    8.7170   17.8510 N   0  0  0  0  0  0  0  0  0  0  0  0
    8.3560    7.9810   18.9060 C   0  0  0  0  0  0  0  0  0  0  0  0
    7.9760    6.6980   18.6660 N   0  0  0  0  0  0  0  0  0  0  0  0
    8.7980    8.3260   19.8310 H   0  0  0  0  0  0  0  0  0  0  0  0
    8.0950    5.5960   19.5820 C   0  0  0  0  0  0  0  0  0  0  0  0
    8.3400    5.9710   20.5780 H   0  0  0  0  0  0  0  0  0  0  0  0
    8.8920    4.9360   19.2310 H   0  0  0  0  0  0  0  0  0  0  0  0
    7.1400    5.0650   19.6140 H   0  0  0  0  0  0  0  0  0  0  0  0
  1  7  2  0  0  0  0
  1  2  1  0  0  0  0
  2  3  2  0  0  0  0
  3  5  1  0  0  0  0
  3  4  1  0  0  0  0
  4 30  1  0  0  0  0
  6 11  1  0  0  0  0
  6  5  2  0  0  0  0
  7  6  1  0  0  0  0
  8  2  1  0  0  0  0
  9  4  1  0  0  0  0
 10  7  1  0  0  0  0
 11 12  1  0  0  0  0
 12 21  1  0  0  0  0
 12 22  1  0  0  0  0
 13 12  1  0  0  0  0
 13 18  1  0  0  0  0
 14 13  2  0  0  0  0
 15 14  1  0  0  0  0
 15 16  2  0  0  0  0
 16 17  1  0  0  0  0
 17 18  2  0  0  0  0
 17 25  1  0  0  0  0
 18 26  1  0  0  0  0
 19 11  1  0  0  0  0
 19 14  1  0  0  0  0
 20 19  2  0  0  0  0
 23 15  1  0  0  0  0
 24 16  1  0  0  0  0
 26 27  1  0  0  0  0
 26 29  1  0  0  0  0
 28 26  1  0  0  0  0
 30 33  1  0  0  0  0
 30 31  1  0  0  0  0
 31 35  1  0  0  0  0
 32 30  1  0  0  0  0
 32 36  1  0  0  0  0
 32 31  1  0  0  0  0
 34 31  1  0  0  0  0
 37 32  1  0  0  0  0
 38 39  1  6  0  0  0
 38 44  1  0  0  0  0
 38  1  1  0  0  0  0
 40 41  1  0  0  0  0
 40 38  1  0  0  0  0
 42 40  1  0  0  0  0
 43 40  1  0  0  0  0
 44 47  1  0  0  0  0
 44 45  1  0  0  0  0
 46 44  1  0  0  0  0
 47 51  1  0  0  0  0
 48 47  2  0  0  0  0
 48 49  1  0  0  0  0
 49 50  2  0  0  0  0
 50 52  1  0  0  0  0
 51 50  1  0  0  0  0
 51 53  1  0  0  0  0
 53 56  1  0  0  0  0
 53 54  1  0  0  0  0
 55 53  1  0  0  0  0
M  END
>  <MODEL>
1

>  <REMARK>
 VINA RESULT:    -9.296      0.000      0.000
 INTER + INTRA:         -13.256
 INTER:                 -12.044
 INTRA:                  -1.212
 UNBOUND:                -0.157
  Name = 
  8 active torsions:
  status: ('A' for Active; 'I' for Inactive)
    1  A    between atoms: C_1  and  C_2
    2  A    between atoms: C_2  and  C_3
    3  A    between atoms: C_2  and  C_10
    4  A    between atoms: C_3  and  C_4
    5  A    between atoms: N_8  and  C_9
    6  A    between atoms: N_13  and  C_14
    7  A    between atoms: C_18  and  N_19
    8  A    between atoms: C_26  and  C_27
                            x       y       z     vdW  Elec       q    Type
                         _______ _______ _______ _____ _____    ______ ____

>  <TORSDO>
F 8

$$$$
=
 OpenBabel07192307433D

 56 60  0  0  1  0  0  0  0  0999 V2000
    4.3780    5.9280   17.3180 C   0  0  0  0  0  0  0  0  0  0  0  0
    4.1820    4.7800   18.0900 C   0  0  0  0  0  0  0  0  0  0  0  0
    3.2630    4.8010   19.1350 C   0  0  0  0  0  0  0  0  0  0  0  0
    3.1110    3.6240   19.9110 N   0  0  0  0  0  0  0  0  0  0  0  0
    2.5730    5.9150   19.4490 N   0  0  0  0  0  0  0  0  0  0  0  0
    2.7500    7.0360   18.7120 C   0  0  0  0  0  0  0  0  0  0  0  0
    3.6410    7.0730   17.6460 C   0  0  0  0  0  0  0  0  0  0  0  0
    4.7470    3.8760   17.8950 H   0  0  0  0  0  0  0  0  0  0  0  0
    3.0050    2.8330   19.2800 H   0  0  0  0  0  0  0  0  0  0  0  0
    3.7850    7.9780   17.0650 H   0  0  0  0  0  0  0  0  0  0  0  0
    1.9850    8.1550   19.0910 N   0  0  0  0  0  0  0  0  0  0  0  0
    1.3860    8.1960   20.4150 C   0  0  0  0  0  0  0  0  0  0  0  0
    0.6740    9.5110   20.4190 C   0  0  0  0  0  0  0  0  0  0  0  0
    0.8640   10.1470   19.1940 C   0  0  0  0  0  0  0  0  0  0  0  0
    0.3220   11.3840   18.9040 C   0  0  0  0  0  0  0  0  0  0  0  0
   -0.4440   11.9990   19.8950 C   0  0  0  0  0  0  0  0  0  0  0  0
   -0.6470   11.3700   21.1380 C   0  0  0  0  0  0  0  0  0  0  0  0
   -0.0880   10.1090   21.4200 C   0  0  0  0  0  0  0  0  0  0  0  0
    1.6970    9.2860   18.3430 C   0  0  0  0  0  0  0  0  0  0  0  0
    2.0120    9.5970   17.2100 O   0  0  0  0  0  0  0  0  0  0  0  0
    0.6800    7.3670   20.5310 H   0  0  0  0  0  0  0  0  0  0  0  0
    2.1700    8.1720   21.1790 H   0  0  0  0  0  0  0  0  0  0  0  0
    0.4870   11.8540   17.9390 H   0  0  0  0  0  0  0  0  0  0  0  0
   -0.8890   12.9740   19.7050 H   0  0  0  0  0  0  0  0  0  0  0  0
   -1.2530   11.8780   21.8880 H   0  0  0  0  0  0  0  0  0  0  0  0
   -0.3020    9.4240   22.7440 C   0  0  0  0  0  0  0  0  0  0  0  0
    0.8450    9.2260   23.4500 F   0  0  0  0  0  0  0  0  0  0  0  0
   -0.8750    8.1980   22.6050 F   0  0  0  0  0  0  0  0  0  0  0  0
   -1.1300   10.1320   23.5620 F   0  0  0  0  0  0  0  0  0  0  0  0
    2.1490    3.6560   21.0200 C   0  0  0  0  0  0  0  0  0  0  0  0
    1.9280    2.4380   21.8720 C   0  0  0  0  0  0  0  0  0  0  0  0
    0.8460    2.9110   20.9450 C   0  0  0  0  0  0  0  0  0  0  0  0
    2.1460    4.6120   21.5390 H   0  0  0  0  0  0  0  0  0  0  0  0
    2.4550    1.5260   21.6200 H   0  0  0  0  0  0  0  0  0  0  0  0
    1.7870    2.5890   22.9360 H   0  0  0  0  0  0  0  0  0  0  0  0
   -0.0260    3.3900   21.3740 H   0  0  0  0  0  0  0  0  0  0  0  0
    0.6380    2.3290   20.0550 H   0  0  0  0  0  0  0  0  0  0  0  0
    5.3830    5.9760   16.1750 C   0  0  2  0  0  0  0  0  0  0  0  0
    6.3560    6.2800   16.5890 H   0  0  0  0  0  0  0  0  0  0  0  0
    5.0030    7.0450   15.1380 C   0  0  0  0  0  0  0  0  0  0  0  0
    5.7370    7.1090   14.3280 H   0  0  0  0  0  0  0  0  0  0  0  0
    4.9370    8.0350   15.6020 H   0  0  0  0  0  0  0  0  0  0  0  0
    4.0260    6.8280   14.6910 H   0  0  0  0  0  0  0  0  0  0  0  0
    5.5310    4.5750   15.5450 C   0  0  0  0  0  0  0  0  0  0  0  0
    6.0050    3.8960   16.2670 H   0  0  0  0  0  0  0  0  0  0  0  0
    4.5420    4.1500   15.3380 H   0  0  0  0  0  0  0  0  0  0  0  0
    6.3750    4.5870   14.3160 C   0  0  0  0  0  0  0  0  0  0  0  0
    7.5630    5.1440   14.1930 N   0  0  0  0  0  0  0  0  0  0  0  0
    8.0070    4.9350   12.9090 N   0  0  0  0  0  0  0  0  0  0  0  0
    7.0830    4.2540   12.2760 C   0  0  0  0  0  0  0  0  0  0  0  0
    6.0420    4.0110   13.1170 N   0  0  0  0  0  0  0  0  0  0  0  0
    7.1260    3.9280   11.2460 H   0  0  0  0  0  0  0  0  0  0  0  0
    4.8390    3.2940   12.7880 C   0  0  0  0  0  0  0  0  0  0  0  0
    4.1220    3.3860   13.6070 H   0  0  0  0  0  0  0  0  0  0  0  0
    5.0910    2.2420   12.6360 H   0  0  0  0  0  0  0  0  0  0  0  0
    4.4150    3.7250   11.8780 H   0  0  0  0  0  0  0  0  0  0  0  0
  1  7  2  0  0  0  0
  1  2  1  0  0  0  0
  2  3  2  0  0  0  0
  3  5  1  0  0  0  0
  3  4  1  0  0  0  0
  4 30  1  0  0  0  0
  6 11  1  0  0  0  0
  6  5  2  0  0  0  0
  7  6  1  0  0  0  0
  8  2  1  0  0  0  0
  9  4  1  0  0  0  0
 10  7  1  0  0  0  0
 11 12  1  0  0  0  0
 12 13  1  0  0  0  0
 12 21  1  0  0  0  0
 12 22  1  0  0  0  0
 13 18  1  0  0  0  0
 14 13  2  0  0  0  0
 15 14  1  0  0  0  0
 15 16  2  0  0  0  0
 16 17  1  0  0  0  0
 17 18  2  0  0  0  0
 17 25  1  0  0  0  0
 18 26  1  0  0  0  0
 19 11  1  0  0  0  0
 19 14  1  0  0  0  0
 20 19  2  0  0  0  0
 23 15  1  0  0  0  0
 24 16  1  0  0  0  0
 26 27  1  0  0  0  0
 26 29  1  0  0  0  0
 28 26  1  0  0  0  0
 30 33  1  0  0  0  0
 30 31  1  0  0  0  0
 31 35  1  0  0  0  0
 32 30  1  0  0  0  0
 32 36  1  0  0  0  0
 32 31  1  0  0  0  0
 34 31  1  0  0  0  0
 37 32  1  0  0  0  0
 38 39  1  1  0  0  0
 38  1  1  0  0  0  0
 40 42  1  0  0  0  0
 40 38  1  0  0  0  0
 41 40  1  0  0  0  0
 43 40  1  0  0  0  0
 44 38  1  0  0  0  0
 44 45  1  0  0  0  0
 46 44  1  0  0  0  0
 47 44  1  0  0  0  0
 48 47  2  0  0  0  0
 49 48  1  0  0  0  0
 50 49  2  0  0  0  0
 50 51  1  0  0  0  0
 51 47  1  0  0  0  0
 52 50  1  0  0  0  0
 53 51  1  0  0  0  0
 53 54  1  0  0  0  0
 55 53  1  0  0  0  0
 56 53  1  0  0  0  0
M  END
>  <MODEL>
2

>  <REMARK>
 VINA RESULT:    -8.617      1.854      2.714
 INTER + INTRA:         -12.299
 INTER:                 -11.471
 INTRA:                  -0.829
 UNBOUND:                -0.157
  Name = 
  8 active torsions:
  status: ('A' for Active; 'I' for Inactive)
    1  A    between atoms: C_1  and  C_2
    2  A    between atoms: C_2  and  C_3
    3  A    between atoms: C_2  and  C_10
    4  A    between atoms: C_3  and  C_4
    5  A    between atoms: N_8  and  C_9
    6  A    between atoms: N_13  and  C_14
    7  A    between atoms: C_18  and  N_19
    8  A    between atoms: C_26  and  C_27
                            x       y       z     vdW  Elec       q    Type
                         _______ _______ _______ _____ _____    ______ ____

>  <TORSDO>
F 8

$$$$
=
 OpenBabel07192307433D

 56 60  0  0  1  0  0  0  0  0999 V2000
    5.5650    5.1000   18.9010 C   0  0  0  0  0  0  0  0  0  0  0  0
    4.9630    3.8850   19.2390 C   0  0  0  0  0  0  0  0  0  0  0  0
    3.6110    3.8540   19.5660 C   0  0  0  0  0  0  0  0  0  0  0  0
    3.0420    2.6060   19.9280 N   0  0  0  0  0  0  0  0  0  0  0  0
    2.8640    4.9750   19.6000 N   0  0  0  0  0  0  0  0  0  0  0  0
    3.4300    6.1610   19.2760 C   0  0  0  0  0  0  0  0  0  0  0  0
    4.7720    6.2540   18.9240 C   0  0  0  0  0  0  0  0  0  0  0  0
    5.5380    2.9670   19.2620 H   0  0  0  0  0  0  0  0  0  0  0  0
    3.3190    1.9140   19.2360 H   0  0  0  0  0  0  0  0  0  0  0  0
    5.2210    7.2090   18.6740 H   0  0  0  0  0  0  0  0  0  0  0  0
    2.5850    7.2850   19.3210 N   0  0  0  0  0  0  0  0  0  0  0  0
    1.8960    7.6120   20.5590 C   0  0  0  0  0  0  0  0  0  0  0  0
    1.1190    8.8380   20.1940 C   0  0  0  0  0  0  0  0  0  0  0  0
    1.3590    9.1610   18.8600 C   0  0  0  0  0  0  0  0  0  0  0  0
    0.7750   10.2490   18.2400 C   0  0  0  0  0  0  0  0  0  0  0  0
   -0.0870   11.0370   19.0030 C   0  0  0  0  0  0  0  0  0  0  0  0
   -0.3410   10.7240   20.3510 C   0  0  0  0  0  0  0  0  0  0  0  0
    0.2610    9.6120   20.9710 C   0  0  0  0  0  0  0  0  0  0  0  0
    2.2910    8.1730   18.2990 C   0  0  0  0  0  0  0  0  0  0  0  0
    2.6660    8.2150   17.1420 O   0  0  0  0  0  0  0  0  0  0  0  0
    1.2280    6.7930   20.8410 H   0  0  0  0  0  0  0  0  0  0  0  0
    2.6270    7.8310   21.3450 H   0  0  0  0  0  0  0  0  0  0  0  0
    0.9810   10.4750   17.1990 H   0  0  0  0  0  0  0  0  0  0  0  0
   -0.5680   11.9030   18.5510 H   0  0  0  0  0  0  0  0  0  0  0  0
   -1.0220   11.3600   20.9170 H   0  0  0  0  0  0  0  0  0  0  0  0
   -0.0080    9.2640   22.4110 C   0  0  0  0  0  0  0  0  0  0  0  0
    1.1220    9.0950   23.1530 F   0  0  0  0  0  0  0  0  0  0  0  0
   -0.7180    8.1110   22.5410 F   0  0  0  0  0  0  0  0  0  0  0  0
   -0.7350   10.2240   23.0460 F   0  0  0  0  0  0  0  0  0  0  0  0
    1.6190    2.5810   20.2850 C   0  0  0  0  0  0  0  0  0  0  0  0
    0.5850    2.1800   19.2710 C   0  0  0  0  0  0  0  0  0  0  0  0
    0.6600    3.6030   19.7430 C   0  0  0  0  0  0  0  0  0  0  0  0
    1.4520    2.2340   21.3030 H   0  0  0  0  0  0  0  0  0  0  0  0
    0.9080    1.9590   18.2610 H   0  0  0  0  0  0  0  0  0  0  0  0
   -0.2450    1.5740   19.6130 H   0  0  0  0  0  0  0  0  0  0  0  0
   -0.1130    3.9640   20.4110 H   0  0  0  0  0  0  0  0  0  0  0  0
    1.0400    4.3540   19.0610 H   0  0  0  0  0  0  0  0  0  0  0  0
    7.0440    5.2040   18.5520 C   0  0  2  0  0  0  0  0  0  0  0  0
    7.4360    4.1840   18.4220 H   0  0  0  0  0  0  0  0  0  0  0  0
    7.8480    5.8320   19.7010 C   0  0  0  0  0  0  0  0  0  0  0  0
    8.8210    5.3470   19.8330 H   0  0  0  0  0  0  0  0  0  0  0  0
    7.3070    5.7480   20.6500 H   0  0  0  0  0  0  0  0  0  0  0  0
    8.0250    6.8980   19.5190 H   0  0  0  0  0  0  0  0  0  0  0  0
    7.2190    5.9730   17.2260 C   0  0  0  0  0  0  0  0  0  0  0  0
    6.6750    6.9270   17.2800 H   0  0  0  0  0  0  0  0  0  0  0  0
    8.2730    6.2360   17.0790 H   0  0  0  0  0  0  0  0  0  0  0  0
    6.6890    5.2190   16.0540 C   0  0  0  0  0  0  0  0  0  0  0  0
    7.1100    4.0440   15.6290 N   0  0  0  0  0  0  0  0  0  0  0  0
    6.3680    3.6930   14.5260 N   0  0  0  0  0  0  0  0  0  0  0  0
    5.5090    4.6570   14.3030 C   0  0  0  0  0  0  0  0  0  0  0  0
    5.6700    5.6350   15.2350 N   0  0  0  0  0  0  0  0  0  0  0  0
    4.7780    4.6870   13.5060 H   0  0  0  0  0  0  0  0  0  0  0  0
    4.9150    6.8550   15.3190 C   0  0  0  0  0  0  0  0  0  0  0  0
    3.9160    6.6970   14.9050 H   0  0  0  0  0  0  0  0  0  0  0  0
    5.4330    7.6270   14.7450 H   0  0  0  0  0  0  0  0  0  0  0  0
    4.8350    7.1430   16.3700 H   0  0  0  0  0  0  0  0  0  0  0  0
  1  7  2  0  0  0  0
  1  2  1  0  0  0  0
  2  8  1  0  0  0  0
  2  3  2  0  0  0  0
  3  5  1  0  0  0  0
  3  4  1  0  0  0  0
  4 30  1  0  0  0  0
  6 11  1  0  0  0  0
  6  5  2  0  0  0  0
  7  6  1  0  0  0  0
  9  4  1  0  0  0  0
 10  7  1  0  0  0  0
 11 12  1  0  0  0  0
 12 21  1  0  0  0  0
 12 22  1  0  0  0  0
 13 12  1  0  0  0  0
 13 18  1  0  0  0  0
 14 13  2  0  0  0  0
 15 14  1  0  0  0  0
 15 16  2  0  0  0  0
 16 17  1  0  0  0  0
 17 25  1  0  0  0  0
 17 18  2  0  0  0  0
 18 26  1  0  0  0  0
 19 14  1  0  0  0  0
 19 11  1  0  0  0  0
 20 19  2  0  0  0  0
 23 15  1  0  0  0  0
 24 16  1  0  0  0  0
 26 28  1  0  0  0  0
 26 29  1  0  0  0  0
 26 27  1  0  0  0  0
 30 33  1  0  0  0  0
 31 35  1  0  0  0  0
 31 32  1  0  0  0  0
 31 30  1  0  0  0  0
 32 30  1  0  0  0  0
 32 36  1  0  0  0  0
 34 31  1  0  0  0  0
 37 32  1  0  0  0  0
 38 39  1  6  0  0  0
 38  1  1  0  0  0  0
 38 40  1  0  0  0  0
 40 41  1  0  0  0  0
 40 42  1  0  0  0  0
 43 40  1  0  0  0  0
 44 45  1  0  0  0  0
 44 38  1  0  0  0  0
 46 44  1  0  0  0  0
 47 44  1  0  0  0  0
 48 47  2  0  0  0  0
 49 48  1  0  0  0  0
 50 49  2  0  0  0  0
 50 51  1  0  0  0  0
 51 53  1  0  0  0  0
 51 47  1  0  0  0  0
 52 50  1  0  0  0  0
 53 56  1  0  0  0  0
 54 53  1  0  0  0  0
 55 53  1  0  0  0  0
M  END
>  <MODEL>
3

>  <REMARK>
 VINA RESULT:    -8.544      1.611      2.599
 INTER + INTRA:         -12.197
 INTER:                 -11.822
 INTRA:                  -0.375
 UNBOUND:                -0.157
  Name = 
  8 active torsions:
  status: ('A' for Active; 'I' for Inactive)
    1  A    between atoms: C_1  and  C_2
    2  A    between atoms: C_2  and  C_3
    3  A    between atoms: C_2  and  C_10
    4  A    between atoms: C_3  and  C_4
    5  A    between atoms: N_8  and  C_9
    6  A    between atoms: N_13  and  C_14
    7  A    between atoms: C_18  and  N_19
    8  A    between atoms: C_26  and  C_27
                            x       y       z     vdW  Elec       q    Type
                         _______ _______ _______ _____ _____    ______ ____

>  <TORSDO>
F 8

$$$$
=
 OpenBabel07192307433D

 56 60  0  0  1  0  0  0  0  0999 V2000
    0.2410   12.7640   19.9270 C   0  0  0  0  0  0  0  0  0  0  0  0
   -0.6940   12.8650   18.8940 C   0  0  0  0  0  0  0  0  0  0  0  0
   -1.0090   11.7410   18.1360 C   0  0  0  0  0  0  0  0  0  0  0  0
   -1.9440   11.8900   17.0800 N   0  0  0  0  0  0  0  0  0  0  0  0
   -0.4090   10.5530   18.3480 N   0  0  0  0  0  0  0  0  0  0  0  0
    0.5000   10.4360   19.3440 C   0  0  0  0  0  0  0  0  0  0  0  0
    0.8430   11.5180   20.1460 C   0  0  0  0  0  0  0  0  0  0  0  0
   -1.1700   13.8120   18.6650 H   0  0  0  0  0  0  0  0  0  0  0  0
   -2.7540   12.3920   17.4370 H   0  0  0  0  0  0  0  0  0  0  0  0
    1.5790   11.4200   20.9370 H   0  0  0  0  0  0  0  0  0  0  0  0
    1.0730    9.1630   19.5140 N   0  0  0  0  0  0  0  0  0  0  0  0
    2.0710    8.6960   18.5660 C   0  0  0  0  0  0  0  0  0  0  0  0
    2.4150    7.3350   19.0850 C   0  0  0  0  0  0  0  0  0  0  0  0
    1.6660    7.0710   20.2300 C   0  0  0  0  0  0  0  0  0  0  0  0
    1.7690    5.8860   20.9320 C   0  0  0  0  0  0  0  0  0  0  0  0
    2.6670    4.9310   20.4520 C   0  0  0  0  0  0  0  0  0  0  0  0
    3.4310    5.1810   19.2970 C   0  0  0  0  0  0  0  0  0  0  0  0
    3.3150    6.3950   18.5910 C   0  0  0  0  0  0  0  0  0  0  0  0
    0.8070    8.2320   20.5060 C   0  0  0  0  0  0  0  0  0  0  0  0
    0.0400    8.2650   21.4490 O   0  0  0  0  0  0  0  0  0  0  0  0
    1.6340    8.6350   17.5640 H   0  0  0  0  0  0  0  0  0  0  0  0
    2.9440    9.3560   18.5890 H   0  0  0  0  0  0  0  0  0  0  0  0
    1.1710    5.7090   21.8200 H   0  0  0  0  0  0  0  0  0  0  0  0
    2.7770    3.9840   20.9770 H   0  0  0  0  0  0  0  0  0  0  0  0
    4.1200    4.4130   18.9490 H   0  0  0  0  0  0  0  0  0  0  0  0
    4.1230    6.6710   17.3510 C   0  0  0  0  0  0  0  0  0  0  0  0
    3.5690    7.6100   16.5350 F   0  0  0  0  0  0  0  0  0  0  0  0
    4.2910    5.5600   16.5850 F   0  0  0  0  0  0  0  0  0  0  0  0
    5.3760    7.1180   17.6420 F   0  0  0  0  0  0  0  0  0  0  0  0
   -2.2620   10.7040   16.2760 C   0  0  0  0  0  0  0  0  0  0  0  0
   -3.3560   10.7530   15.2460 C   0  0  0  0  0  0  0  0  0  0  0  0
   -3.5330    9.9330   16.4910 C   0  0  0  0  0  0  0  0  0  0  0  0
   -1.3750   10.1350   16.0070 H   0  0  0  0  0  0  0  0  0  0  0  0
   -3.9340   11.6630   15.1460 H   0  0  0  0  0  0  0  0  0  0  0  0
   -3.1890   10.2290   14.3130 H   0  0  0  0  0  0  0  0  0  0  0  0
   -3.4810    8.8540   16.4080 H   0  0  0  0  0  0  0  0  0  0  0  0
   -4.2260   10.2850   17.2460 H   0  0  0  0  0  0  0  0  0  0  0  0
    0.6430   13.9600   20.7790 C   0  0  2  0  0  0  0  0  0  0  0  0
    0.2010   14.8620   20.3300 H   0  0  0  0  0  0  0  0  0  0  0  0
    2.1650   14.1720   20.7660 C   0  0  0  0  0  0  0  0  0  0  0  0
    2.5530   14.2930   19.7490 H   0  0  0  0  0  0  0  0  0  0  0  0
    2.6840   13.3190   21.2170 H   0  0  0  0  0  0  0  0  0  0  0  0
    2.4410   15.0640   21.3400 H   0  0  0  0  0  0  0  0  0  0  0  0
    0.0860   13.7980   22.2090 C   0  0  0  0  0  0  0  0  0  0  0  0
    0.5680   12.9390   22.6960 H   0  0  0  0  0  0  0  0  0  0  0  0
    0.3480   14.6720   22.8160 H   0  0  0  0  0  0  0  0  0  0  0  0
   -1.3850   13.5570   22.2260 C   0  0  0  0  0  0  0  0  0  0  0  0
   -2.3190   14.4180   21.8730 N   0  0  0  0  0  0  0  0  0  0  0  0
   -3.5440   13.8150   22.0320 N   0  0  0  0  0  0  0  0  0  0  0  0
   -3.3330   12.5990   22.4740 C   0  0  0  0  0  0  0  0  0  0  0  0
   -1.9960   12.3910   22.6100 N   0  0  0  0  0  0  0  0  0  0  0  0
   -4.0930   11.8630   22.7010 H   0  0  0  0  0  0  0  0  0  0  0  0
   -1.3720   11.1810   23.0730 C   0  0  0  0  0  0  0  0  0  0  0  0
   -1.8940   10.8140   23.9600 H   0  0  0  0  0  0  0  0  0  0  0  0
   -0.3310   11.3990   23.3230 H   0  0  0  0  0  0  0  0  0  0  0  0
   -1.4290   10.4330   22.2780 H   0  0  0  0  0  0  0  0  0  0  0  0
  1  7  1  0  0  0  0
  1 38  1  0  0  0  0
  2  1  2  0  0  0  0
  3  5  2  0  0  0  0
  3  2  1  0  0  0  0
  4  9  1  0  0  0  0
  4  3  1  0  0  0  0
  5  6  1  0  0  0  0
  6 11  1  0  0  0  0
  6  7  2  0  0  0  0
  7 10  1  0  0  0  0
  8  2  1  0  0  0  0
 11 19  1  0  0  0  0
 12 22  1  0  0  0  0
 12 13  1  0  0  0  0
 12 11  1  0  0  0  0
 13 14  1  0  0  0  0
 14 19  1  0  0  0  0
 14 15  2  0  0  0  0
 15 23  1  0  0  0  0
 16 15  1  0  0  0  0
 16 24  1  0  0  0  0
 17 16  2  0  0  0  0
 18 13  2  0  0  0  0
 18 17  1  0  0  0  0
 19 20  2  0  0  0  0
 21 12  1  0  0  0  0
 25 17  1  0  0  0  0
 26 29  1  0  0  0  0
 26 18  1  0  0  0  0
 27 26  1  0  0  0  0
 28 26  1  0  0  0  0
 30 32  1  0  0  0  0
 30  4  1  0  0  0  0
 31 30  1  0  0  0  0
 31 32  1  0  0  0  0
 32 37  1  0  0  0  0
 33 30  1  0  0  0  0
 34 31  1  0  0  0  0
 35 31  1  0  0  0  0
 36 32  1  0  0  0  0
 38 39  1  6  0  0  0
 38 44  1  0  0  0  0
 40 38  1  0  0  0  0
 40 42  1  0  0  0  0
 40 43  1  0  0  0  0
 41 40  1  0  0  0  0
 44 47  1  0  0  0  0
 44 45  1  0  0  0  0
 44 46  1  0  0  0  0
 47 51  1  0  0  0  0
 48 49  1  0  0  0  0
 48 47  2  0  0  0  0
 49 50  2  0  0  0  0
 50 51  1  0  0  0  0
 50 52  1  0  0  0  0
 51 53  1  0  0  0  0
 53 55  1  0  0  0  0
 53 54  1  0  0  0  0
 56 53  1  0  0  0  0
M  END
>  <MODEL>
4

>  <REMARK>
 VINA RESULT:    -8.084      4.209      8.868
 INTER + INTRA:         -11.548
 INTER:                 -10.367
 INTRA:                  -1.181
 UNBOUND:                -0.157
  Name = 
  8 active torsions:
  status: ('A' for Active; 'I' for Inactive)
    1  A    between atoms: C_1  and  C_2
    2  A    between atoms: C_2  and  C_3
    3  A    between atoms: C_2  and  C_10
    4  A    between atoms: C_3  and  C_4
    5  A    between atoms: N_8  and  C_9
    6  A    between atoms: N_13  and  C_14
    7  A    between atoms: C_18  and  N_19
    8  A    between atoms: C_26  and  C_27
                            x       y       z     vdW  Elec       q    Type
                         _______ _______ _______ _____ _____    ______ ____

>  <TORSDO>
F 8

$$$$
=
 OpenBabel07192307433D

 56 60  0  0  1  0  0  0  0  0999 V2000
   -0.7360   11.5130   21.0990 C   0  0  0  0  0  0  0  0  0  0  0  0
   -1.6200   11.8970   20.0870 C   0  0  0  0  0  0  0  0  0  0  0  0
   -1.5440   11.2900   18.8380 C   0  0  0  0  0  0  0  0  0  0  0  0
   -2.4410   11.7260   17.8300 N   0  0  0  0  0  0  0  0  0  0  0  0
   -0.6120   10.3570   18.5590 N   0  0  0  0  0  0  0  0  0  0  0  0
    0.2530    9.9720   19.5260 C   0  0  0  0  0  0  0  0  0  0  0  0
    0.2150   10.5290   20.7990 C   0  0  0  0  0  0  0  0  0  0  0  0
   -2.3580   12.6730   20.2590 H   0  0  0  0  0  0  0  0  0  0  0  0
   -3.3790   11.7510   18.2230 H   0  0  0  0  0  0  0  0  0  0  0  0
    0.9170   10.2230   21.5670 H   0  0  0  0  0  0  0  0  0  0  0  0
    1.1870    8.9840   19.1650 N   0  0  0  0  0  0  0  0  0  0  0  0
    1.1870    7.7100   19.8650 C   0  0  0  0  0  0  0  0  0  0  0  0
    2.3010    6.9640   19.2020 C   0  0  0  0  0  0  0  0  0  0  0  0
    2.8730    7.7630   18.2140 C   0  0  0  0  0  0  0  0  0  0  0  0
    3.9300    7.3400   17.4310 C   0  0  0  0  0  0  0  0  0  0  0  0
    4.4260    6.0560   17.6610 C   0  0  0  0  0  0  0  0  0  0  0  0
    3.8610    5.2360   18.6560 C   0  0  0  0  0  0  0  0  0  0  0  0
    2.7840    5.6810   19.4470 C   0  0  0  0  0  0  0  0  0  0  0  0
    2.1680    9.0530   18.1880 C   0  0  0  0  0  0  0  0  0  0  0  0
    2.4700    9.9460   17.4190 O   0  0  0  0  0  0  0  0  0  0  0  0
    1.3980    7.8680   20.9270 H   0  0  0  0  0  0  0  0  0  0  0  0
    0.2290    7.2020   19.7120 H   0  0  0  0  0  0  0  0  0  0  0  0
    4.3540    7.9860   16.6690 H   0  0  0  0  0  0  0  0  0  0  0  0
    5.2580    5.6860   17.0660 H   0  0  0  0  0  0  0  0  0  0  0  0
    4.2750    4.2400   18.8100 H   0  0  0  0  0  0  0  0  0  0  0  0
    2.1750    4.8150   20.5170 C   0  0  0  0  0  0  0  0  0  0  0  0
    0.8360    4.6200   20.3670 F   0  0  0  0  0  0  0  0  0  0  0  0
    2.3410    5.3380   21.7620 F   0  0  0  0  0  0  0  0  0  0  0  0
    2.7340    3.5740   20.5560 F   0  0  0  0  0  0  0  0  0  0  0  0
   -2.3470   11.0910   16.5100 C   0  0  0  0  0  0  0  0  0  0  0  0
   -3.5660   10.9570   15.6400 C   0  0  0  0  0  0  0  0  0  0  0  0
   -2.9410    9.7350   16.2510 C   0  0  0  0  0  0  0  0  0  0  0  0
   -1.4170   11.3310   15.9990 H   0  0  0  0  0  0  0  0  0  0  0  0
   -4.5200   11.2920   16.0280 H   0  0  0  0  0  0  0  0  0  0  0  0
   -3.4420   11.1120   14.5750 H   0  0  0  0  0  0  0  0  0  0  0  0
   -2.3880    9.0640   15.6060 H   0  0  0  0  0  0  0  0  0  0  0  0
   -3.4630    9.2400   17.0610 H   0  0  0  0  0  0  0  0  0  0  0  0
   -0.7550   12.1520   22.4810 C   0  0  2  0  0  0  0  0  0  0  0  0
    0.2110   11.9460   22.9650 H   0  0  0  0  0  0  0  0  0  0  0  0
   -1.8300   11.5180   23.3770 C   0  0  0  0  0  0  0  0  0  0  0  0
   -2.8410   11.7030   22.9980 H   0  0  0  0  0  0  0  0  0  0  0  0
   -1.7820   11.9230   24.3940 H   0  0  0  0  0  0  0  0  0  0  0  0
   -1.6910   10.4340   23.4500 H   0  0  0  0  0  0  0  0  0  0  0  0
   -0.9260   13.6800   22.3510 C   0  0  0  0  0  0  0  0  0  0  0  0
    0.0500   14.1700   22.4650 H   0  0  0  0  0  0  0  0  0  0  0  0
   -1.2750   13.9350   21.3440 H   0  0  0  0  0  0  0  0  0  0  0  0
   -1.8360   14.2440   23.3900 C   0  0  0  0  0  0  0  0  0  0  0  0
   -1.4920   14.6190   24.6050 N   0  0  0  0  0  0  0  0  0  0  0  0
   -2.6160   15.0800   25.2490 N   0  0  0  0  0  0  0  0  0  0  0  0
   -3.6210   14.9800   24.4130 C   0  0  0  0  0  0  0  0  0  0  0  0
   -3.1810   14.4620   23.2350 N   0  0  0  0  0  0  0  0  0  0  0  0
   -4.6450   15.2610   24.6140 H   0  0  0  0  0  0  0  0  0  0  0  0
   -3.9880   14.2000   22.0740 C   0  0  0  0  0  0  0  0  0  0  0  0
   -3.4150   13.6110   21.3540 H   0  0  0  0  0  0  0  0  0  0  0  0
   -4.2720   15.1550   21.6240 H   0  0  0  0  0  0  0  0  0  0  0  0
   -4.8740   13.6410   22.3840 H   0  0  0  0  0  0  0  0  0  0  0  0
  1 38  1  0  0  0  0
  2  8  1  0  0  0  0
  2  1  2  0  0  0  0
  3  2  1  0  0  0  0
  4  9  1  0  0  0  0
  4  3  1  0  0  0  0
  5  3  2  0  0  0  0
  5  6  1  0  0  0  0
  6  7  2  0  0  0  0
  7  1  1  0  0  0  0
  7 10  1  0  0  0  0
 11  6  1  0  0  0  0
 11 12  1  0  0  0  0
 12 21  1  0  0  0  0
 13 18  1  0  0  0  0
 13 12  1  0  0  0  0
 14 13  2  0  0  0  0
 15 16  2  0  0  0  0
 15 14  1  0  0  0  0
 16 17  1  0  0  0  0
 17 25  1  0  0  0  0
 17 18  2  0  0  0  0
 18 26  1  0  0  0  0
 19 14  1  0  0  0  0
 19 11  1  0  0  0  0
 20 19  2  0  0  0  0
 22 12  1  0  0  0  0
 23 15  1  0  0  0  0
 24 16  1  0  0  0  0
 26 29  1  0  0  0  0
 26 28  1  0  0  0  0
 27 26  1  0  0  0  0
 30  4  1  0  0  0  0
 31 34  1  0  0  0  0
 31 32  1  0  0  0  0
 31 30  1  0  0  0  0
 32 30  1  0  0  0  0
 32 37  1  0  0  0  0
 33 30  1  0  0  0  0
 35 31  1  0  0  0  0
 36 32  1  0  0  0  0
 38 39  1  1  0  0  0
 38 40  1  0  0  0  0
 40 43  1  0  0  0  0
 40 42  1  0  0  0  0
 41 40  1  0  0  0  0
 44 45  1  0  0  0  0
 44 38  1  0  0  0  0
 44 47  1  0  0  0  0
 46 44  1  0  0  0  0
 47 48  2  0  0  0  0
 48 49  1  0  0  0  0
 50 52  1  0  0  0  0
 50 49  2  0  0  0  0
 51 47  1  0  0  0  0
 51 50  1  0  0  0  0
 53 56  1  0  0  0  0
 53 51  1  0  0  0  0
 54 53  1  0  0  0  0
 55 53  1  0  0  0  0
M  END
>  <MODEL>
5

>  <REMARK>
 VINA RESULT:    -7.915      4.193      9.173
 INTER + INTRA:         -11.311
 INTER:                 -10.420
 INTRA:                  -0.891
 UNBOUND:                -0.157
  Name = 
  8 active torsions:
  status: ('A' for Active; 'I' for Inactive)
    1  A    between atoms: C_1  and  C_2
    2  A    between atoms: C_2  and  C_3
    3  A    between atoms: C_2  and  C_10
    4  A    between atoms: C_3  and  C_4
    5  A    between atoms: N_8  and  C_9
    6  A    between atoms: N_13  and  C_14
    7  A    between atoms: C_18  and  N_19
    8  A    between atoms: C_26  and  C_27
                            x       y       z     vdW  Elec       q    Type
                         _______ _______ _______ _____ _____    ______ ____

>  <TORSDO>
F 8

$$$$
=
 OpenBabel07192307433D

 56 60  0  0  1  0  0  0  0  0999 V2000
    0.7200   12.9250   19.3850 C   0  0  0  0  0  0  0  0  0  0  0  0
   -0.4040   12.9740   18.5560 C   0  0  0  0  0  0  0  0  0  0  0  0
   -0.9180   11.7970   18.0210 C   0  0  0  0  0  0  0  0  0  0  0  0
   -2.0440   11.8920   17.1640 N   0  0  0  0  0  0  0  0  0  0  0  0
   -0.3410   10.6020   18.2530 N   0  0  0  0  0  0  0  0  0  0  0  0
    0.7490   10.5350   19.0530 C   0  0  0  0  0  0  0  0  0  0  0  0
    1.2990   11.6730   19.6300 C   0  0  0  0  0  0  0  0  0  0  0  0
   -0.8740   13.9210   18.3120 H   0  0  0  0  0  0  0  0  0  0  0  0
   -2.7400   12.4840   17.6110 H   0  0  0  0  0  0  0  0  0  0  0  0
    2.1770   11.6130   20.2640 H   0  0  0  0  0  0  0  0  0  0  0  0
    1.2880    9.2510   19.2600 N   0  0  0  0  0  0  0  0  0  0  0  0
    2.2890    8.7400   18.3390 C   0  0  0  0  0  0  0  0  0  0  0  0
    2.5900    7.3830   18.8930 C   0  0  0  0  0  0  0  0  0  0  0  0
    1.8160    7.1630   20.0310 C   0  0  0  0  0  0  0  0  0  0  0  0
    1.8790    5.9910   20.7600 C   0  0  0  0  0  0  0  0  0  0  0  0
    2.7610    5.0040   20.3160 C   0  0  0  0  0  0  0  0  0  0  0  0
    3.5490    5.2100   19.1690 C   0  0  0  0  0  0  0  0  0  0  0  0
    3.4740    6.4100   18.4350 C   0  0  0  0  0  0  0  0  0  0  0  0
    0.9830    8.3500   20.2670 C   0  0  0  0  0  0  0  0  0  0  0  0
    0.2010    8.4230   21.1970 O   0  0  0  0  0  0  0  0  0  0  0  0
    1.8670    8.6670   17.3320 H   0  0  0  0  0  0  0  0  0  0  0  0
    3.1780    9.3790   18.3620 H   0  0  0  0  0  0  0  0  0  0  0  0
    1.2630    5.8480   21.6420 H   0  0  0  0  0  0  0  0  0  0  0  0
    2.8390    4.0670   20.8630 H   0  0  0  0  0  0  0  0  0  0  0  0
    4.2250    4.4170   18.8500 H   0  0  0  0  0  0  0  0  0  0  0  0
    4.3090    6.6390   17.2030 C   0  0  0  0  0  0  0  0  0  0  0  0
    3.7120    7.4410   16.2780 F   0  0  0  0  0  0  0  0  0  0  0  0
    4.6080    5.4800   16.5570 F   0  0  0  0  0  0  0  0  0  0  0  0
    5.5040    7.2240   17.4920 F   0  0  0  0  0  0  0  0  0  0  0  0
   -2.5740   10.6480   16.5920 C   0  0  0  0  0  0  0  0  0  0  0  0
   -2.8670   10.5500   15.1210 C   0  0  0  0  0  0  0  0  0  0  0  0
   -3.9950   10.5530   16.1120 C   0  0  0  0  0  0  0  0  0  0  0  0
   -2.1460    9.7620   17.0560 H   0  0  0  0  0  0  0  0  0  0  0  0
   -2.7260   11.4290   14.5040 H   0  0  0  0  0  0  0  0  0  0  0  0
   -2.6310    9.6170   14.6230 H   0  0  0  0  0  0  0  0  0  0  0  0
   -4.5210    9.6240   16.2950 H   0  0  0  0  0  0  0  0  0  0  0  0
   -4.6200   11.4350   16.1790 H   0  0  0  0  0  0  0  0  0  0  0  0
    1.3430   14.1780   19.9850 C   0  0  2  0  0  0  0  0  0  0  0  0
    1.7640   13.9130   20.9670 H   0  0  0  0  0  0  0  0  0  0  0  0
    0.2840   15.2590   20.2480 C   0  0  0  0  0  0  0  0  0  0  0  0
   -0.7110   14.9510   19.9080 H   0  0  0  0  0  0  0  0  0  0  0  0
    0.5350   16.1900   19.7270 H   0  0  0  0  0  0  0  0  0  0  0  0
    0.2170   15.4910   21.3170 H   0  0  0  0  0  0  0  0  0  0  0  0
    2.4840   14.6840   19.0790 C   0  0  0  0  0  0  0  0  0  0  0  0
    2.6450   13.9720   18.2580 H   0  0  0  0  0  0  0  0  0  0  0  0
    2.1980   15.6300   18.6050 H   0  0  0  0  0  0  0  0  0  0  0  0
    3.7760   14.8240   19.8110 C   0  0  0  0  0  0  0  0  0  0  0  0
    3.9280   14.8730   21.1200 N   0  0  0  0  0  0  0  0  0  0  0  0
    5.2680   15.0060   21.3940 N   0  0  0  0  0  0  0  0  0  0  0  0
    5.9070   15.0320   20.2490 C   0  0  0  0  0  0  0  0  0  0  0  0
    5.0140   14.9190   19.2290 N   0  0  0  0  0  0  0  0  0  0  0  0
    6.9760   15.1270   20.1190 H   0  0  0  0  0  0  0  0  0  0  0  0
    5.3310   14.9110   17.8260 C   0  0  0  0  0  0  0  0  0  0  0  0
    6.3610   15.2430   17.6810 H   0  0  0  0  0  0  0  0  0  0  0  0
    4.6490   15.5920   17.3110 H   0  0  0  0  0  0  0  0  0  0  0  0
    5.2160   13.8920   17.4500 H   0  0  0  0  0  0  0  0  0  0  0  0
  1  7  1  0  0  0  0
  1 38  1  0  0  0  0
  2  1  2  0  0  0  0
  3  5  2  0  0  0  0
  3  2  1  0  0  0  0
  4  9  1  0  0  0  0
  4  3  1  0  0  0  0
  5  6  1  0  0  0  0
  6 11  1  0  0  0  0
  6  7  2  0  0  0  0
  7 10  1  0  0  0  0
  8  2  1  0  0  0  0
 11 19  1  0  0  0  0
 12 22  1  0  0  0  0
 12 13  1  0  0  0  0
 12 11  1  0  0  0  0
 13 14  1  0  0  0  0
 14 19  1  0  0  0  0
 14 15  2  0  0  0  0
 15 23  1  0  0  0  0
 16 15  1  0  0  0  0
 16 24  1  0  0  0  0
 17 16  2  0  0  0  0
 18 13  2  0  0  0  0
 18 17  1  0  0  0  0
 19 20  2  0  0  0  0
 21 12  1  0  0  0  0
 25 17  1  0  0  0  0
 26 29  1  0  0  0  0
 26 18  1  0  0  0  0
 27 26  1  0  0  0  0
 28 26  1  0  0  0  0
 30 33  1  0  0  0  0
 30  4  1  0  0  0  0
 31 32  1  0  0  0  0
 31 30  1  0  0  0  0
 32 37  1  0  0  0  0
 32 36  1  0  0  0  0
 32 30  1  0  0  0  0
 34 31  1  0  0  0  0
 35 31  1  0  0  0  0
 38 40  1  0  0  0  0
 38 39  1  1  0  0  0
 40 43  1  0  0  0  0
 41 40  1  0  0  0  0
 42 40  1  0  0  0  0
 44 47  1  0  0  0  0
 44 38  1  0  0  0  0
 45 44  1  0  0  0  0
 46 44  1  0  0  0  0
 47 48  2  0  0  0  0
 48 49  1  0  0  0  0
 50 49  2  0  0  0  0
 51 47  1  0  0  0  0
 51 50  1  0  0  0  0
 52 50  1  0  0  0  0
 53 51  1  0  0  0  0
 54 53  1  0  0  0  0
 55 53  1  0  0  0  0
 56 53  1  0  0  0  0
M  END
>  <MODEL>
6

>  <REMARK>
 VINA RESULT:    -7.900      4.470      7.990
 INTER + INTRA:         -11.289
 INTER:                 -10.260
 INTRA:                  -1.029
 UNBOUND:                -0.157
  Name = 
  8 active torsions:
  status: ('A' for Active; 'I' for Inactive)
    1  A    between atoms: C_1  and  C_2
    2  A    between atoms: C_2  and  C_3
    3  A    between atoms: C_2  and  C_10
    4  A    between atoms: C_3  and  C_4
    5  A    between atoms: N_8  and  C_9
    6  A    between atoms: N_13  and  C_14
    7  A    between atoms: C_18  and  N_19
    8  A    between atoms: C_26  and  C_27
                            x       y       z     vdW  Elec       q    Type
                         _______ _______ _______ _____ _____    ______ ____

>  <TORSDO>
F 8

$$$$
=
 OpenBabel07192307433D

 56 60  0  0  1  0  0  0  0  0999 V2000
   -0.3560   11.3160   20.8030 C   0  0  0  0  0  0  0  0  0  0  0  0
   -1.3180   11.5610   19.8190 C   0  0  0  0  0  0  0  0  0  0  0  0
   -1.3400   10.7820   18.6670 C   0  0  0  0  0  0  0  0  0  0  0  0
   -2.3150   11.0790   17.6800 N   0  0  0  0  0  0  0  0  0  0  0  0
   -0.4320    9.8100   18.4520 N   0  0  0  0  0  0  0  0  0  0  0  0
    0.5070    9.5580   19.3930 C   0  0  0  0  0  0  0  0  0  0  0  0
    0.5690   10.2900   20.5730 C   0  0  0  0  0  0  0  0  0  0  0  0
   -2.0410   12.3610   19.9360 H   0  0  0  0  0  0  0  0  0  0  0  0
   -3.2180   11.1690   18.1380 H   0  0  0  0  0  0  0  0  0  0  0  0
    1.3300   10.0890   21.3200 H   0  0  0  0  0  0  0  0  0  0  0  0
    1.4110    8.5190   19.1050 N   0  0  0  0  0  0  0  0  0  0  0  0
    1.3310    7.2740   19.8500 C   0  0  0  0  0  0  0  0  0  0  0  0
    2.4370    6.4580   19.2580 C   0  0  0  0  0  0  0  0  0  0  0  0
    3.0780    7.1950   18.2640 C   0  0  0  0  0  0  0  0  0  0  0  0
    4.1440    6.7000   17.5380 C   0  0  0  0  0  0  0  0  0  0  0  0
    4.5770    5.4060   17.8340 C   0  0  0  0  0  0  0  0  0  0  0  0
    3.9410    4.6480   18.8350 C   0  0  0  0  0  0  0  0  0  0  0  0
    2.8550    5.1670   19.5670 C   0  0  0  0  0  0  0  0  0  0  0  0
    2.4300    8.5110   18.1640 C   0  0  0  0  0  0  0  0  0  0  0  0
    2.7980    9.3610   17.3760 O   0  0  0  0  0  0  0  0  0  0  0  0
    1.5090    7.4630   20.9130 H   0  0  0  0  0  0  0  0  0  0  0  0
    0.3590    6.8000   19.6780 H   0  0  0  0  0  0  0  0  0  0  0  0
    4.6230    7.2980   16.7700 H   0  0  0  0  0  0  0  0  0  0  0  0
    5.4140    4.9800   17.2840 H   0  0  0  0  0  0  0  0  0  0  0  0
    4.3060    3.6430   19.0410 H   0  0  0  0  0  0  0  0  0  0  0  0
    2.1710    4.3680   20.6440 C   0  0  0  0  0  0  0  0  0  0  0  0
    0.8260    4.2500   20.4670 F   0  0  0  0  0  0  0  0  0  0  0  0
    2.3410    4.9120   21.8800 F   0  0  0  0  0  0  0  0  0  0  0  0
    2.6520    3.0960   20.7270 F   0  0  0  0  0  0  0  0  0  0  0  0
   -2.3240   10.2630   16.4610 C   0  0  0  0  0  0  0  0  0  0  0  0
   -2.9270   10.7960   15.1910 C   0  0  0  0  0  0  0  0  0  0  0  0
   -3.5980    9.6710   15.9260 C   0  0  0  0  0  0  0  0  0  0  0  0
   -1.4170    9.6720   16.3500 H   0  0  0  0  0  0  0  0  0  0  0  0
   -3.3970   11.7720   15.2100 H   0  0  0  0  0  0  0  0  0  0  0  0
   -2.4230   10.5650   14.2600 H   0  0  0  0  0  0  0  0  0  0  0  0
   -3.5450    8.6760   15.5020 H   0  0  0  0  0  0  0  0  0  0  0  0
   -4.5210    9.8790   16.4540 H   0  0  0  0  0  0  0  0  0  0  0  0
   -0.2680   12.1450   22.0780 C   0  0  2  0  0  0  0  0  0  0  0  0
    0.6380   11.8380   22.6220 H   0  0  0  0  0  0  0  0  0  0  0  0
   -1.4520   11.8610   23.0150 C   0  0  0  0  0  0  0  0  0  0  0  0
   -2.2570   12.5930   22.8920 H   0  0  0  0  0  0  0  0  0  0  0  0
   -1.1370   11.8910   24.0640 H   0  0  0  0  0  0  0  0  0  0  0  0
   -1.8700   10.8650   22.8270 H   0  0  0  0  0  0  0  0  0  0  0  0
   -0.1470   13.6420   21.7230 C   0  0  0  0  0  0  0  0  0  0  0  0
   -1.0440   13.9640   21.1770 H   0  0  0  0  0  0  0  0  0  0  0  0
   -0.1210   14.2440   22.6390 H   0  0  0  0  0  0  0  0  0  0  0  0
    1.0340   13.9310   20.8600 C   0  0  0  0  0  0  0  0  0  0  0  0
    2.2930   13.6720   21.1510 N   0  0  0  0  0  0  0  0  0  0  0  0
    3.0740   14.0900   20.0990 N   0  0  0  0  0  0  0  0  0  0  0  0
    2.2760   14.5900   19.1870 C   0  0  0  0  0  0  0  0  0  0  0  0
    0.9880   14.5120   19.6180 N   0  0  0  0  0  0  0  0  0  0  0  0
    2.5780   15.0050   18.2350 H   0  0  0  0  0  0  0  0  0  0  0  0
   -0.1720   14.9610   18.8980 C   0  0  0  0  0  0  0  0  0  0  0  0
   -0.0540   16.0130   18.6310 H   0  0  0  0  0  0  0  0  0  0  0  0
   -1.0490   14.8410   19.5410 H   0  0  0  0  0  0  0  0  0  0  0  0
   -0.2740   14.3600   17.9910 H   0  0  0  0  0  0  0  0  0  0  0  0
  1 38  1  0  0  0  0
  2  8  1  0  0  0  0
  2  1  2  0  0  0  0
  3  2  1  0  0  0  0
  4  9  1  0  0  0  0
  4  3  1  0  0  0  0
  5  3  2  0  0  0  0
  5  6  1  0  0  0  0
  6  7  2  0  0  0  0
  7  1  1  0  0  0  0
  7 10  1  0  0  0  0
 11  6  1  0  0  0  0
 11 12  1  0  0  0  0
 12 21  1  0  0  0  0
 13 18  1  0  0  0  0
 13 12  1  0  0  0  0
 14 13  2  0  0  0  0
 15 16  2  0  0  0  0
 15 14  1  0  0  0  0
 16 17  1  0  0  0  0
 17 25  1  0  0  0  0
 17 18  2  0  0  0  0
 18 26  1  0  0  0  0
 19 14  1  0  0  0  0
 19 11  1  0  0  0  0
 20 19  2  0  0  0  0
 22 12  1  0  0  0  0
 23 15  1  0  0  0  0
 24 16  1  0  0  0  0
 26 29  1  0  0  0  0
 26 28  1  0  0  0  0
 27 26  1  0  0  0  0
 30  4  1  0  0  0  0
 31 34  1  0  0  0  0
 31 32  1  0  0  0  0
 31 30  1  0  0  0  0
 32 37  1  0  0  0  0
 32 30  1  0  0  0  0
 33 30  1  0  0  0  0
 35 31  1  0  0  0  0
 36 32  1  0  0  0  0
 38 39  1  1  0  0  0
 38 40  1  0  0  0  0
 40 42  1  0  0  0  0
 41 40  1  0  0  0  0
 43 40  1  0  0  0  0
 44 38  1  0  0  0  0
 44 46  1  0  0  0  0
 45 44  1  0  0  0  0
 47 48  2  0  0  0  0
 47 44  1  0  0  0  0
 49 48  1  0  0  0  0
 50 51  1  0  0  0  0
 50 49  2  0  0  0  0
 51 47  1  0  0  0  0
 52 50  1  0  0  0  0
 53 55  1  0  0  0  0
 53 51  1  0  0  0  0
 54 53  1  0  0  0  0
 56 53  1  0  0  0  0
M  END
>  <MODEL>
7

>  <REMARK>
 VINA RESULT:    -7.823      3.343      7.960
 INTER + INTRA:         -11.180
 INTER:                  -9.787
 INTRA:                  -1.394
 UNBOUND:                -0.157
  Name = 
  8 active torsions:
  status: ('A' for Active; 'I' for Inactive)
    1  A    between atoms: C_1  and  C_2
    2  A    between atoms: C_2  and  C_3
    3  A    between atoms: C_2  and  C_10
    4  A    between atoms: C_3  and  C_4
    5  A    between atoms: N_8  and  C_9
    6  A    between atoms: N_13  and  C_14
    7  A    between atoms: C_18  and  N_19
    8  A    between atoms: C_26  and  C_27
                            x       y       z     vdW  Elec       q    Type
                         _______ _______ _______ _____ _____    ______ ____

>  <TORSDO>
F 8

$$$$
=
 OpenBabel07192307433D

 56 60  0  0  1  0  0  0  0  0999 V2000
    2.6980    4.6470   17.7230 C   0  0  0  0  0  0  0  0  0  0  0  0
    4.0880    4.7400   17.6070 C   0  0  0  0  0  0  0  0  0  0  0  0
    4.7300    5.9280   17.9430 C   0  0  0  0  0  0  0  0  0  0  0  0
    6.1380    5.9920   17.7870 N   0  0  0  0  0  0  0  0  0  0  0  0
    4.0430    7.0140   18.3480 N   0  0  0  0  0  0  0  0  0  0  0  0
    2.6960    6.9430   18.4660 C   0  0  0  0  0  0  0  0  0  0  0  0
    2.0000    5.7790   18.1620 C   0  0  0  0  0  0  0  0  0  0  0  0
    4.6730    3.9020   17.2460 H   0  0  0  0  0  0  0  0  0  0  0  0
    6.5460    5.1630   18.2140 H   0  0  0  0  0  0  0  0  0  0  0  0
    0.9200    5.7320   18.2510 H   0  0  0  0  0  0  0  0  0  0  0  0
    2.0500    8.1120   18.9090 N   0  0  0  0  0  0  0  0  0  0  0  0
    1.4000    8.1210   20.2090 C   0  0  0  0  0  0  0  0  0  0  0  0
    0.8460    9.5090   20.2960 C   0  0  0  0  0  0  0  0  0  0  0  0
    1.1650   10.2100   19.1350 C   0  0  0  0  0  0  0  0  0  0  0  0
    0.7840   11.5220   18.9280 C   0  0  0  0  0  0  0  0  0  0  0  0
    0.0500   12.1450   19.9390 C   0  0  0  0  0  0  0  0  0  0  0  0
   -0.2810   11.4510   21.1170 C   0  0  0  0  0  0  0  0  0  0  0  0
    0.1140   10.1130   21.3140 C   0  0  0  0  0  0  0  0  0  0  0  0
    1.9300    9.3240   18.2460 C   0  0  0  0  0  0  0  0  0  0  0  0
    2.3310    9.6830   17.1550 O   0  0  0  0  0  0  0  0  0  0  0  0
    0.5980    7.3770   20.2300 H   0  0  0  0  0  0  0  0  0  0  0  0
    2.1400    7.9440   20.9960 H   0  0  0  0  0  0  0  0  0  0  0  0
    1.0470   12.0420   18.0130 H   0  0  0  0  0  0  0  0  0  0  0  0
   -0.2690   13.1780   19.8140 H   0  0  0  0  0  0  0  0  0  0  0  0
   -0.8570   11.9670   21.8840 H   0  0  0  0  0  0  0  0  0  0  0  0
   -0.2390    9.3580   22.5680 C   0  0  0  0  0  0  0  0  0  0  0  0
   -0.8640    8.1710   22.3350 F   0  0  0  0  0  0  0  0  0  0  0  0
   -1.0680   10.0660   23.3820 F   0  0  0  0  0  0  0  0  0  0  0  0
    0.8590    9.0640   23.3190 F   0  0  0  0  0  0  0  0  0  0  0  0
    6.8080    7.2520   18.1300 C   0  0  0  0  0  0  0  0  0  0  0  0
    7.8580    7.8280   17.2230 C   0  0  0  0  0  0  0  0  0  0  0  0
    8.2460    7.2780   18.5650 C   0  0  0  0  0  0  0  0  0  0  0  0
    6.1340    7.9660   18.5990 H   0  0  0  0  0  0  0  0  0  0  0  0
    8.1440    7.2700   16.3400 H   0  0  0  0  0  0  0  0  0  0  0  0
    7.8720    8.9040   17.0910 H   0  0  0  0  0  0  0  0  0  0  0  0
    8.5170    7.9770   19.3480 H   0  0  0  0  0  0  0  0  0  0  0  0
    8.7890    6.3420   18.6010 H   0  0  0  0  0  0  0  0  0  0  0  0
    1.9350    3.3830   17.3530 C   0  0  2  0  0  0  0  0  0  0  0  0
    2.1320    3.1640   16.2930 H   0  0  0  0  0  0  0  0  0  0  0  0
    0.4170    3.5870   17.4770 C   0  0  0  0  0  0  0  0  0  0  0  0
   -0.1460    2.8000   16.9640 H   0  0  0  0  0  0  0  0  0  0  0  0
    0.1130    4.5450   17.0420 H   0  0  0  0  0  0  0  0  0  0  0  0
    0.1070    3.5920   18.5280 H   0  0  0  0  0  0  0  0  0  0  0  0
    2.4390    2.1970   18.2020 C   0  0  0  0  0  0  0  0  0  0  0  0
    1.8900    1.2870   17.9240 H   0  0  0  0  0  0  0  0  0  0  0  0
    3.4920    1.9940   17.9770 H   0  0  0  0  0  0  0  0  0  0  0  0
    2.2370    2.4150   19.6640 C   0  0  0  0  0  0  0  0  0  0  0  0
    1.0840    2.6150   20.2690 N   0  0  0  0  0  0  0  0  0  0  0  0
    1.3240    2.7730   21.6140 N   0  0  0  0  0  0  0  0  0  0  0  0
    2.6160    2.6620   21.8010 C   0  0  0  0  0  0  0  0  0  0  0  0
    3.2310    2.4360   20.6090 N   0  0  0  0  0  0  0  0  0  0  0  0
    3.1300    2.7360   22.7500 H   0  0  0  0  0  0  0  0  0  0  0  0
    4.6430    2.2630   20.4060 C   0  0  0  0  0  0  0  0  0  0  0  0
    4.8630    1.2060   20.2390 H   0  0  0  0  0  0  0  0  0  0  0  0
    5.1690    2.6110   21.2980 H   0  0  0  0  0  0  0  0  0  0  0  0
    4.9430    2.8430   19.5300 H   0  0  0  0  0  0  0  0  0  0  0  0
  1  7  1  0  0  0  0
  2  1  2  0  0  0  0
  2  3  1  0  0  0  0
  3  5  2  0  0  0  0
  4  3  1  0  0  0  0
  4 30  1  0  0  0  0
  4  9  1  0  0  0  0
  5  6  1  0  0  0  0
  6 11  1  0  0  0  0
  7 10  1  0  0  0  0
  7  6  2  0  0  0  0
  8  2  1  0  0  0  0
 11 12  1  0  0  0  0
 12 21  1  0  0  0  0
 12 13  1  0  0  0  0
 12 22  1  0  0  0  0
 13 18  1  0  0  0  0
 14 13  2  0  0  0  0
 15 14  1  0  0  0  0
 15 16  2  0  0  0  0
 16 17  1  0  0  0  0
 17 18  2  0  0  0  0
 17 25  1  0  0  0  0
 18 26  1  0  0  0  0
 19 11  1  0  0  0  0
 19 14  1  0  0  0  0
 20 19  2  0  0  0  0
 23 15  1  0  0  0  0
 24 16  1  0  0  0  0
 26 29  1  0  0  0  0
 26 28  1  0  0  0  0
 27 26  1  0  0  0  0
 30 32  1  0  0  0  0
 30 33  1  0  0  0  0
 31 30  1  0  0  0  0
 31 32  1  0  0  0  0
 32 37  1  0  0  0  0
 32 36  1  0  0  0  0
 34 31  1  0  0  0  0
 35 31  1  0  0  0  0
 38 39  1  6  0  0  0
 38 40  1  0  0  0  0
 38  1  1  0  0  0  0
 38 44  1  0  0  0  0
 40 43  1  0  0  0  0
 41 40  1  0  0  0  0
 42 40  1  0  0  0  0
 44 47  1  0  0  0  0
 45 44  1  0  0  0  0
 46 44  1  0  0  0  0
 47 48  2  0  0  0  0
 47 51  1  0  0  0  0
 48 49  1  0  0  0  0
 49 50  2  0  0  0  0
 50 52  1  0  0  0  0
 51 50  1  0  0  0  0
 53 51  1  0  0  0  0
 53 55  1  0  0  0  0
 54 53  1  0  0  0  0
 56 53  1  0  0  0  0
M  END
>  <MODEL>
8

>  <REMARK>
 VINA RESULT:    -7.738      1.495      4.629
 INTER + INTRA:         -11.061
 INTER:                  -9.917
 INTRA:                  -1.144
 UNBOUND:                -0.157
  Name = 
  8 active torsions:
  status: ('A' for Active; 'I' for Inactive)
    1  A    between atoms: C_1  and  C_2
    2  A    between atoms: C_2  and  C_3
    3  A    between atoms: C_2  and  C_10
    4  A    between atoms: C_3  and  C_4
    5  A    between atoms: N_8  and  C_9
    6  A    between atoms: N_13  and  C_14
    7  A    between atoms: C_18  and  N_19
    8  A    between atoms: C_26  and  C_27
                            x       y       z     vdW  Elec       q    Type
                         _______ _______ _______ _____ _____    ______ ____

>  <TORSDO>
F 8

$$$$
=
 OpenBabel07192307433D

 56 60  0  0  1  0  0  0  0  0999 V2000
    0.2230   12.6430   19.6100 C   0  0  0  0  0  0  0  0  0  0  0  0
   -0.7770   12.6580   18.6340 C   0  0  0  0  0  0  0  0  0  0  0  0
   -1.0850   11.4890   17.9450 C   0  0  0  0  0  0  0  0  0  0  0  0
   -2.0880   11.5510   16.9440 N   0  0  0  0  0  0  0  0  0  0  0  0
   -0.4200   10.3390   18.1690 N   0  0  0  0  0  0  0  0  0  0  0  0
    0.5510   10.3050   19.1110 C   0  0  0  0  0  0  0  0  0  0  0  0
    0.8930   11.4350   19.8440 C   0  0  0  0  0  0  0  0  0  0  0  0
   -1.3070   13.5730   18.3950 H   0  0  0  0  0  0  0  0  0  0  0  0
   -2.8970   12.0330   17.3280 H   0  0  0  0  0  0  0  0  0  0  0  0
    1.6790   11.4040   20.5900 H   0  0  0  0  0  0  0  0  0  0  0  0
    1.1910    9.0660   19.2980 N   0  0  0  0  0  0  0  0  0  0  0  0
    2.1960    8.6290   18.3430 C   0  0  0  0  0  0  0  0  0  0  0  0
    2.6170    7.2990   18.8850 C   0  0  0  0  0  0  0  0  0  0  0  0
    1.8990    7.0230   20.0480 C   0  0  0  0  0  0  0  0  0  0  0  0
    2.0730    5.8600   20.7730 C   0  0  0  0  0  0  0  0  0  0  0  0
    3.0110    4.9410   20.2990 C   0  0  0  0  0  0  0  0  0  0  0  0
    3.7430    5.2040   19.1260 C   0  0  0  0  0  0  0  0  0  0  0  0
    3.5550    6.3940   18.3970 C   0  0  0  0  0  0  0  0  0  0  0  0
    0.9880    8.1450   20.3140 C   0  0  0  0  0  0  0  0  0  0  0  0
    0.2340    8.1610   21.2690 O   0  0  0  0  0  0  0  0  0  0  0  0
    1.7480    8.5240   17.3510 H   0  0  0  0  0  0  0  0  0  0  0  0
    3.0350    9.3330   18.3380 H   0  0  0  0  0  0  0  0  0  0  0  0
    1.4990    5.6730   21.6750 H   0  0  0  0  0  0  0  0  0  0  0  0
    3.1770    4.0130   20.8420 H   0  0  0  0  0  0  0  0  0  0  0  0
    4.4650    4.4640   18.7840 H   0  0  0  0  0  0  0  0  0  0  0  0
    4.3290    6.6840   17.1380 C   0  0  0  0  0  0  0  0  0  0  0  0
    3.6780    7.5100   16.2730 F   0  0  0  0  0  0  0  0  0  0  0  0
    4.6140    5.5540   16.4350 F   0  0  0  0  0  0  0  0  0  0  0  0
    5.5280    7.2770   17.3950 F   0  0  0  0  0  0  0  0  0  0  0  0
   -2.4000   10.3180   16.2120 C   0  0  0  0  0  0  0  0  0  0  0  0
   -2.9190   10.3790   14.8020 C   0  0  0  0  0  0  0  0  0  0  0  0
   -3.8190    9.9230   15.9150 C   0  0  0  0  0  0  0  0  0  0  0  0
   -1.6970    9.5160   16.4300 H   0  0  0  0  0  0  0  0  0  0  0  0
   -3.1040   11.3500   14.3590 H   0  0  0  0  0  0  0  0  0  0  0  0
   -2.5600    9.6340   14.1030 H   0  0  0  0  0  0  0  0  0  0  0  0
   -4.0670    8.8710   15.9770 H   0  0  0  0  0  0  0  0  0  0  0  0
   -4.6140   10.5840   16.2380 H   0  0  0  0  0  0  0  0  0  0  0  0
    0.6210   13.8920   20.3850 C   0  0  2  0  0  0  0  0  0  0  0  0
   -0.0860   14.6940   20.1240 H   0  0  0  0  0  0  0  0  0  0  0  0
    2.0130   14.3920   19.9670 C   0  0  0  0  0  0  0  0  0  0  0  0
    2.8140   13.8480   20.4780 H   0  0  0  0  0  0  0  0  0  0  0  0
    2.1350   15.4550   20.2010 H   0  0  0  0  0  0  0  0  0  0  0  0
    2.1630   14.2760   18.8870 H   0  0  0  0  0  0  0  0  0  0  0  0
    0.5260   13.6240   21.9010 C   0  0  0  0  0  0  0  0  0  0  0  0
    1.2410   12.8380   22.1800 H   0  0  0  0  0  0  0  0  0  0  0  0
    0.8270   14.5160   22.4610 H   0  0  0  0  0  0  0  0  0  0  0  0
   -0.8310   13.1650   22.3160 C   0  0  0  0  0  0  0  0  0  0  0  0
   -1.1360   11.9800   22.8060 N   0  0  0  0  0  0  0  0  0  0  0  0
   -2.4870   11.9530   23.0610 N   0  0  0  0  0  0  0  0  0  0  0  0
   -2.9770   13.1220   22.7250 C   0  0  0  0  0  0  0  0  0  0  0  0
   -1.9780   13.9150   22.2540 N   0  0  0  0  0  0  0  0  0  0  0  0
   -4.0120   13.4240   22.8040 H   0  0  0  0  0  0  0  0  0  0  0  0
   -2.1210   15.2670   21.7860 C   0  0  0  0  0  0  0  0  0  0  0  0
   -3.0860   15.3810   21.2860 H   0  0  0  0  0  0  0  0  0  0  0  0
   -1.3140   15.4790   21.0800 H   0  0  0  0  0  0  0  0  0  0  0  0
   -2.0700   15.9410   22.6440 H   0  0  0  0  0  0  0  0  0  0  0  0
  1  7  1  0  0  0  0
  1 38  1  0  0  0  0
  2  1  2  0  0  0  0
  3  5  2  0  0  0  0
  3  2  1  0  0  0  0
  4  9  1  0  0  0  0
  4  3  1  0  0  0  0
  5  6  1  0  0  0  0
  6 11  1  0  0  0  0
  6  7  2  0  0  0  0
  7 10  1  0  0  0  0
  8  2  1  0  0  0  0
 11 19  1  0  0  0  0
 12 13  1  0  0  0  0
 12 11  1  0  0  0  0
 13 14  1  0  0  0  0
 14 19  1  0  0  0  0
 14 15  2  0  0  0  0
 15 23  1  0  0  0  0
 16 15  1  0  0  0  0
 16 24  1  0  0  0  0
 17 16  2  0  0  0  0
 18 13  2  0  0  0  0
 18 17  1  0  0  0  0
 19 20  2  0  0  0  0
 21 12  1  0  0  0  0
 22 12  1  0  0  0  0
 25 17  1  0  0  0  0
 26 29  1  0  0  0  0
 26 18  1  0  0  0  0
 27 26  1  0  0  0  0
 28 26  1  0  0  0  0
 30 33  1  0  0  0  0
 30  4  1  0  0  0  0
 31 32  1  0  0  0  0
 31 30  1  0  0  0  0
 32 36  1  0  0  0  0
 32 30  1  0  0  0  0
 32 37  1  0  0  0  0
 34 31  1  0  0  0  0
 35 31  1  0  0  0  0
 38 39  1  6  0  0  0
 38 44  1  0  0  0  0
 40 42  1  0  0  0  0
 40 38  1  0  0  0  0
 40 41  1  0  0  0  0
 43 40  1  0  0  0  0
 44 45  1  0  0  0  0
 44 47  1  0  0  0  0
 44 46  1  0  0  0  0
 47 48  2  0  0  0  0
 48 49  1  0  0  0  0
 50 52  1  0  0  0  0
 50 49  2  0  0  0  0
 51 47  1  0  0  0  0
 51 50  1  0  0  0  0
 53 51  1  0  0  0  0
 53 56  1  0  0  0  0
 54 53  1  0  0  0  0
 55 53  1  0  0  0  0
M  END
>  <MODEL>
9

>  <REMARK>
 VINA RESULT:    -7.669      4.171      8.855
 INTER + INTRA:         -10.964
 INTER:                 -10.041
 INTRA:                  -0.923
 UNBOUND:                -0.157
  Name = 
  8 active torsions:
  status: ('A' for Active; 'I' for Inactive)
    1  A    between atoms: C_1  and  C_2
    2  A    between atoms: C_2  and  C_3
    3  A    between atoms: C_2  and  C_10
    4  A    between atoms: C_3  and  C_4
    5  A    between atoms: N_8  and  C_9
    6  A    between atoms: N_13  and  C_14
    7  A    between atoms: C_18  and  N_19
    8  A    between atoms: C_26  and  C_27
                            x       y       z     vdW  Elec       q    Type
                         _______ _______ _______ _____ _____    ______ ____

>  <TORSDO>
F 8

$$$$
=
 OpenBabel07192307433D

 56 60  0  0  1  0  0  0  0  0999 V2000
    4.6720    5.2010   16.7870 C   0  0  0  0  0  0  0  0  0  0  0  0
    4.2840    3.8890   17.0740 C   0  0  0  0  0  0  0  0  0  0  0  0
    3.2860    3.6550   18.0150 C   0  0  0  0  0  0  0  0  0  0  0  0
    2.9390    2.3100   18.2970 N   0  0  0  0  0  0  0  0  0  0  0  0
    2.6990    4.6630   18.6890 N   0  0  0  0  0  0  0  0  0  0  0  0
    3.0610    5.9400   18.4240 C   0  0  0  0  0  0  0  0  0  0  0  0
    4.0390    6.2380   17.4830 C   0  0  0  0  0  0  0  0  0  0  0  0
    4.7610    3.0480   16.5830 H   0  0  0  0  0  0  0  0  0  0  0  0
    2.8020    1.8210   17.4160 H   0  0  0  0  0  0  0  0  0  0  0  0
    4.3310    7.2630   17.2820 H   0  0  0  0  0  0  0  0  0  0  0  0
    2.3940    6.9390   19.1570 N   0  0  0  0  0  0  0  0  0  0  0  0
    2.2660    8.2730   18.5950 C   0  0  0  0  0  0  0  0  0  0  0  0
    1.5170    9.0130   19.6590 C   0  0  0  0  0  0  0  0  0  0  0  0
    1.2530    8.1550   20.7240 C   0  0  0  0  0  0  0  0  0  0  0  0
    0.5730    8.5600   21.8570 C   0  0  0  0  0  0  0  0  0  0  0  0
    0.1470    9.8880   21.9110 C   0  0  0  0  0  0  0  0  0  0  0  0
    0.4060   10.7680   20.8430 C   0  0  0  0  0  0  0  0  0  0  0  0
    1.1010   10.3410   19.6950 C   0  0  0  0  0  0  0  0  0  0  0  0
    1.8110    6.8320   20.4110 C   0  0  0  0  0  0  0  0  0  0  0  0
    1.7290    5.8910   21.1780 O   0  0  0  0  0  0  0  0  0  0  0  0
    3.2580    8.7080   18.4390 H   0  0  0  0  0  0  0  0  0  0  0  0
    1.6880    8.2320   17.6660 H   0  0  0  0  0  0  0  0  0  0  0  0
    0.3830    7.8690   22.6720 H   0  0  0  0  0  0  0  0  0  0  0  0
   -0.3910   10.2460   22.7860 H   0  0  0  0  0  0  0  0  0  0  0  0
    0.0610   11.7990   20.9200 H   0  0  0  0  0  0  0  0  0  0  0  0
    1.3890   11.2750   18.5490 C   0  0  0  0  0  0  0  0  0  0  0  0
    2.3330   12.2150   18.8330 F   0  0  0  0  0  0  0  0  0  0  0  0
    0.2840   11.9620   18.1510 F   0  0  0  0  0  0  0  0  0  0  0  0
    1.8350   10.6140   17.4450 F   0  0  0  0  0  0  0  0  0  0  0  0
    1.8950    2.0690   19.3000 C   0  0  0  0  0  0  0  0  0  0  0  0
    0.4740    1.8260   18.8770 C   0  0  0  0  0  0  0  0  0  0  0  0
    0.8380    3.0970   19.5890 C   0  0  0  0  0  0  0  0  0  0  0  0
    2.2540    1.4760   20.1390 H   0  0  0  0  0  0  0  0  0  0  0  0
    0.2290    1.8830   17.8230 H   0  0  0  0  0  0  0  0  0  0  0  0
   -0.0930    1.0820   19.4240 H   0  0  0  0  0  0  0  0  0  0  0  0
    0.5280    3.2150   20.6200 H   0  0  0  0  0  0  0  0  0  0  0  0
    0.8510    4.0200   19.0230 H   0  0  0  0  0  0  0  0  0  0  0  0
    5.7710    5.5220   15.7820 C   0  0  2  0  0  0  0  0  0  0  0  0
    5.6520    6.5710   15.4720 H   0  0  0  0  0  0  0  0  0  0  0  0
    5.6300    4.6760   14.5080 C   0  0  0  0  0  0  0  0  0  0  0  0
    6.6030    4.4300   14.0690 H   0  0  0  0  0  0  0  0  0  0  0  0
    5.0500    5.2090   13.7450 H   0  0  0  0  0  0  0  0  0  0  0  0
    5.1070    3.7360   14.7170 H   0  0  0  0  0  0  0  0  0  0  0  0
    7.1540    5.3570   16.4460 C   0  0  0  0  0  0  0  0  0  0  0  0
    7.1280    4.5080   17.1430 H   0  0  0  0  0  0  0  0  0  0  0  0
    7.9050    5.1010   15.6900 H   0  0  0  0  0  0  0  0  0  0  0  0
    7.5640    6.5630   17.2210 C   0  0  0  0  0  0  0  0  0  0  0  0
    7.6220    7.7980   16.7640 N   0  0  0  0  0  0  0  0  0  0  0  0
    8.0450    8.6160   17.7860 N   0  0  0  0  0  0  0  0  0  0  0  0
    8.2320    7.8640   18.8430 C   0  0  0  0  0  0  0  0  0  0  0  0
    7.9430    6.5710   18.5390 N   0  0  0  0  0  0  0  0  0  0  0  0
    8.5650    8.2040   19.8150 H   0  0  0  0  0  0  0  0  0  0  0  0
    8.0300    5.4510   19.4360 C   0  0  0  0  0  0  0  0  0  0  0  0
    8.9300    4.8730   19.2160 H   0  0  0  0  0  0  0  0  0  0  0  0
    7.1460    4.8230   19.2970 H   0  0  0  0  0  0  0  0  0  0  0  0
    8.0770    5.8290   20.4610 H   0  0  0  0  0  0  0  0  0  0  0  0
  1  2  2  0  0  0  0
  1  7  1  0  0  0  0
  2  3  1  0  0  0  0
  3  4  1  0  0  0  0
  3  5  2  0  0  0  0
  4 30  1  0  0  0  0
  6  5  1  0  0  0  0
  6 11  1  0  0  0  0
  7  6  2  0  0  0  0
  8  2  1  0  0  0  0
  9  4  1  0  0  0  0
 10  7  1  0  0  0  0
 11 19  1  0  0  0  0
 12 11  1  0  0  0  0
 12 13  1  0  0  0  0
 13 18  2  0  0  0  0
 13 14  1  0  0  0  0
 14 15  2  0  0  0  0
 15 16  1  0  0  0  0
 15 23  1  0  0  0  0
 16 24  1  0  0  0  0
 17 25  1  0  0  0  0
 17 16  2  0  0  0  0
 18 17  1  0  0  0  0
 19 14  1  0  0  0  0
 19 20  2  0  0  0  0
 21 12  1  0  0  0  0
 22 12  1  0  0  0  0
 26 27  1  0  0  0  0
 26 18  1  0  0  0  0
 28 26  1  0  0  0  0
 29 26  1  0  0  0  0
 30 32  1  0  0  0  0
 30 33  1  0  0  0  0
 31 30  1  0  0  0  0
 31 35  1  0  0  0  0
 31 32  1  0  0  0  0
 32 36  1  0  0  0  0
 34 31  1  0  0  0  0
 37 32  1  0  0  0  0
 38 39  1  6  0  0  0
 38 44  1  0  0  0  0
 38  1  1  0  0  0  0
 40 43  1  0  0  0  0
 40 38  1  0  0  0  0
 41 40  1  0  0  0  0
 42 40  1  0  0  0  0
 44 45  1  0  0  0  0
 44 47  1  0  0  0  0
 46 44  1  0  0  0  0
 47 51  1  0  0  0  0
 48 47  2  0  0  0  0
 48 49  1  0  0  0  0
 49 50  2  0  0  0  0
 50 52  1  0  0  0  0
 51 50  1  0  0  0  0
 51 53  1  0  0  0  0
 53 56  1  0  0  0  0
 54 53  1  0  0  0  0
 55 53  1  0  0  0  0
M  END
>  <MODEL>
10

>  <REMARK>
 VINA RESULT:    -7.581      2.258      2.745
 INTER + INTRA:         -10.840
 INTER:                 -11.146
 INTRA:                   0.306
 UNBOUND:                -0.157
  Name = 
  8 active torsions:
  status: ('A' for Active; 'I' for Inactive)
    1  A    between atoms: C_1  and  C_2
    2  A    between atoms: C_2  and  C_3
    3  A    between atoms: C_2  and  C_10
    4  A    between atoms: C_3  and  C_4
    5  A    between atoms: N_8  and  C_9
    6  A    between atoms: N_13  and  C_14
    7  A    between atoms: C_18  and  N_19
    8  A    between atoms: C_26  and  C_27
                            x       y       z     vdW  Elec       q    Type
                         _______ _______ _______ _____ _____    ______ ____

>  <TORSDO>
F 8

$$$$
=
 OpenBabel07192307433D

 56 60  0  0  1  0  0  0  0  0999 V2000
    3.8700    7.1850   17.6830 C   0  0  0  0  0  0  0  0  0  0  0  0
    3.8180    5.9070   18.2460 C   0  0  0  0  0  0  0  0  0  0  0  0
    2.9180    5.6420   19.2740 C   0  0  0  0  0  0  0  0  0  0  0  0
    2.9140    4.3410   19.8370 N   0  0  0  0  0  0  0  0  0  0  0  0
    2.1090    6.5990   19.7700 N   0  0  0  0  0  0  0  0  0  0  0  0
    2.1450    7.8430   19.2370 C   0  0  0  0  0  0  0  0  0  0  0  0
    3.0110    8.1630   18.1980 C   0  0  0  0  0  0  0  0  0  0  0  0
    4.4810    5.1200   17.9030 H   0  0  0  0  0  0  0  0  0  0  0  0
    2.8910    3.6630   19.0790 H   0  0  0  0  0  0  0  0  0  0  0  0
    3.0410    9.1640   17.7810 H   0  0  0  0  0  0  0  0  0  0  0  0
    1.2610    8.7830   19.7970 N   0  0  0  0  0  0  0  0  0  0  0  0
    0.3990    9.5620   18.9240 C   0  0  0  0  0  0  0  0  0  0  0  0
   -0.3600   10.4230   19.8850 C   0  0  0  0  0  0  0  0  0  0  0  0
    0.0520   10.1410   21.1860 C   0  0  0  0  0  0  0  0  0  0  0  0
   -0.4750   10.7840   22.2900 C   0  0  0  0  0  0  0  0  0  0  0  0
   -1.4560   11.7500   22.0640 C   0  0  0  0  0  0  0  0  0  0  0  0
   -1.8820   12.0470   20.7560 C   0  0  0  0  0  0  0  0  0  0  0  0
   -1.3360   11.3840   19.6400 C   0  0  0  0  0  0  0  0  0  0  0  0
    1.0870    9.0990   21.1360 C   0  0  0  0  0  0  0  0  0  0  0  0
    1.6280    8.6680   22.1360 O   0  0  0  0  0  0  0  0  0  0  0  0
    1.0060   10.1710   18.2470 H   0  0  0  0  0  0  0  0  0  0  0  0
   -0.2770    8.8960   18.3770 H   0  0  0  0  0  0  0  0  0  0  0  0
   -0.1330   10.5430   23.2920 H   0  0  0  0  0  0  0  0  0  0  0  0
   -1.8950   12.2790   22.9080 H   0  0  0  0  0  0  0  0  0  0  0  0
   -2.6480   12.8090   20.6170 H   0  0  0  0  0  0  0  0  0  0  0  0
   -1.7810   11.6970   18.2360 C   0  0  0  0  0  0  0  0  0  0  0  0
   -3.0680   12.1340   18.1540 F   0  0  0  0  0  0  0  0  0  0  0  0
   -1.6980   10.6160   17.4140 F   0  0  0  0  0  0  0  0  0  0  0  0
   -1.0180   12.6650   17.6570 F   0  0  0  0  0  0  0  0  0  0  0  0
    1.9710    4.0720   20.9290 C   0  0  0  0  0  0  0  0  0  0  0  0
    2.0410    2.7810   21.6960 C   0  0  0  0  0  0  0  0  0  0  0  0
    0.8780    3.0500   20.7840 C   0  0  0  0  0  0  0  0  0  0  0  0
    1.7430    4.9630   21.5100 H   0  0  0  0  0  0  0  0  0  0  0  0
    2.7670    2.0360   21.3930 H   0  0  0  0  0  0  0  0  0  0  0  0
    1.8680    2.8220   22.7640 H   0  0  0  0  0  0  0  0  0  0  0  0
   -0.0820    3.2810   21.2290 H   0  0  0  0  0  0  0  0  0  0  0  0
    0.8130    2.4970   19.8550 H   0  0  0  0  0  0  0  0  0  0  0  0
    4.8460    7.5430   16.5700 C   0  0  2  0  0  0  0  0  0  0  0  0
    4.6220    8.5670   16.2370 H   0  0  0  0  0  0  0  0  0  0  0  0
    4.6540    6.6390   15.3430 C   0  0  0  0  0  0  0  0  0  0  0  0
    3.7330    6.0490   15.4080 H   0  0  0  0  0  0  0  0  0  0  0  0
    5.4880    5.9350   15.2400 H   0  0  0  0  0  0  0  0  0  0  0  0
    4.6100    7.2310   14.4220 H   0  0  0  0  0  0  0  0  0  0  0  0
    6.2920    7.5030   17.1070 C   0  0  0  0  0  0  0  0  0  0  0  0
    6.9260    8.1690   16.5040 H   0  0  0  0  0  0  0  0  0  0  0  0
    6.3260    7.9000   18.1280 H   0  0  0  0  0  0  0  0  0  0  0  0
    6.8880    6.1380   17.0450 C   0  0  0  0  0  0  0  0  0  0  0  0
    6.9960    5.3840   15.9690 N   0  0  0  0  0  0  0  0  0  0  0  0
    7.5980    4.2010   16.3300 N   0  0  0  0  0  0  0  0  0  0  0  0
    7.8480    4.2600   17.6160 C   0  0  0  0  0  0  0  0  0  0  0  0
    7.4220    5.4540   18.1070 N   0  0  0  0  0  0  0  0  0  0  0  0
    8.3180    3.4870   18.2080 H   0  0  0  0  0  0  0  0  0  0  0  0
    7.5180    5.8880   19.4750 C   0  0  0  0  0  0  0  0  0  0  0  0
    6.5760    6.3490   19.7800 H   0  0  0  0  0  0  0  0  0  0  0  0
    8.3280    6.6180   19.5530 H   0  0  0  0  0  0  0  0  0  0  0  0
    7.7210    5.0170   20.1030 H   0  0  0  0  0  0  0  0  0  0  0  0
  1  7  2  0  0  0  0
  1  2  1  0  0  0  0
  2  3  2  0  0  0  0
  3  5  1  0  0  0  0
  3  4  1  0  0  0  0
  4 30  1  0  0  0  0
  6  5  2  0  0  0  0
  6 11  1  0  0  0  0
  7  6  1  0  0  0  0
  8  2  1  0  0  0  0
  9  4  1  0  0  0  0
 10  7  1  0  0  0  0
 11 19  1  0  0  0  0
 12 11  1  0  0  0  0
 12 13  1  0  0  0  0
 13 14  1  0  0  0  0
 14 15  2  0  0  0  0
 15 23  1  0  0  0  0
 16 15  1  0  0  0  0
 16 24  1  0  0  0  0
 17 16  2  0  0  0  0
 18 13  2  0  0  0  0
 18 17  1  0  0  0  0
 19 14  1  0  0  0  0
 19 20  2  0  0  0  0
 21 12  1  0  0  0  0
 22 12  1  0  0  0  0
 25 17  1  0  0  0  0
 26 18  1  0  0  0  0
 27 26  1  0  0  0  0
 28 26  1  0  0  0  0
 29 26  1  0  0  0  0
 30 33  1  0  0  0  0
 30 31  1  0  0  0  0
 31 35  1  0  0  0  0
 32 30  1  0  0  0  0
 32 36  1  0  0  0  0
 32 31  1  0  0  0  0
 34 31  1  0  0  0  0
 37 32  1  0  0  0  0
 38 39  1  6  0  0  0
 38 44  1  0  0  0  0
 38  1  1  0  0  0  0
 40 41  1  0  0  0  0
 40 38  1  0  0  0  0
 42 40  1  0  0  0  0
 43 40  1  0  0  0  0
 44 46  1  0  0  0  0
 45 44  1  0  0  0  0
 47 44  1  0  0  0  0
 47 51  1  0  0  0  0
 48 49  1  0  0  0  0
 48 47  2  0  0  0  0
 49 50  2  0  0  0  0
 50 51  1  0  0  0  0
 50 52  1  0  0  0  0
 51 53  1  0  0  0  0
 53 55  1  0  0  0  0
 53 54  1  0  0  0  0
 53 56  1  0  0  0  0
M  END
>  <MODEL>
11

>  <REMARK>
 VINA RESULT:    -7.482      2.457      3.058
 INTER + INTRA:         -10.701
 INTER:                 -10.657
 INTRA:                  -0.043
 UNBOUND:                -0.157
  Name = 
  8 active torsions:
  status: ('A' for Active; 'I' for Inactive)
    1  A    between atoms: C_1  and  C_2
    2  A    between atoms: C_2  and  C_3
    3  A    between atoms: C_2  and  C_10
    4  A    between atoms: C_3  and  C_4
    5  A    between atoms: N_8  and  C_9
    6  A    between atoms: N_13  and  C_14
    7  A    between atoms: C_18  and  N_19
    8  A    between atoms: C_26  and  C_27
                            x       y       z     vdW  Elec       q    Type
                         _______ _______ _______ _____ _____    ______ ____

>  <TORSDO>
F 8

$$$$
=
 OpenBabel07192307433D

 56 60  0  0  1  0  0  0  0  0999 V2000
    1.8530    9.3470   18.3960 C   0  0  0  0  0  0  0  0  0  0  0  0
    2.7440   10.3490   18.0010 C   0  0  0  0  0  0  0  0  0  0  0  0
    2.3810   11.6860   18.1360 C   0  0  0  0  0  0  0  0  0  0  0  0
    3.3020   12.6730   17.7000 N   0  0  0  0  0  0  0  0  0  0  0  0
    1.1720   12.0480   18.6080 N   0  0  0  0  0  0  0  0  0  0  0  0
    0.2960   11.0910   18.9950 C   0  0  0  0  0  0  0  0  0  0  0  0
    0.6080    9.7390   18.9010 C   0  0  0  0  0  0  0  0  0  0  0  0
    3.7100   10.0990   17.5780 H   0  0  0  0  0  0  0  0  0  0  0  0
    4.2170   12.4500   18.0830 H   0  0  0  0  0  0  0  0  0  0  0  0
   -0.1020    8.9780   19.2050 H   0  0  0  0  0  0  0  0  0  0  0  0
   -0.9390   11.5450   19.4920 N   0  0  0  0  0  0  0  0  0  0  0  0
   -1.1210   11.6980   20.9250 C   0  0  0  0  0  0  0  0  0  0  0  0
   -2.5320   12.1840   21.0330 C   0  0  0  0  0  0  0  0  0  0  0  0
   -3.0860   12.2910   19.7590 C   0  0  0  0  0  0  0  0  0  0  0  0
   -4.3820   12.7170   19.5430 C   0  0  0  0  0  0  0  0  0  0  0  0
   -5.1470   13.0460   20.6630 C   0  0  0  0  0  0  0  0  0  0  0  0
   -4.6030   12.9420   21.9580 C   0  0  0  0  0  0  0  0  0  0  0  0
   -3.2800   12.5060   22.1630 C   0  0  0  0  0  0  0  0  0  0  0  0
   -2.0750   11.8830   18.7730 C   0  0  0  0  0  0  0  0  0  0  0  0
   -2.2980   11.8740   17.5770 O   0  0  0  0  0  0  0  0  0  0  0  0
   -1.0010   10.7300   21.4220 H   0  0  0  0  0  0  0  0  0  0  0  0
   -0.4190   12.4430   21.3130 H   0  0  0  0  0  0  0  0  0  0  0  0
   -4.7860   12.7900   18.5380 H   0  0  0  0  0  0  0  0  0  0  0  0
   -6.1720   13.3850   20.5350 H   0  0  0  0  0  0  0  0  0  0  0  0
   -5.2290   13.2050   22.8100 H   0  0  0  0  0  0  0  0  0  0  0  0
   -2.6890   12.3860   23.5430 C   0  0  0  0  0  0  0  0  0  0  0  0
   -3.5950   12.5660   24.5440 F   0  0  0  0  0  0  0  0  0  0  0  0
   -1.7010   13.2950   23.7640 F   0  0  0  0  0  0  0  0  0  0  0  0
   -2.1270   11.1650   23.7590 F   0  0  0  0  0  0  0  0  0  0  0  0
    2.9080   14.0810   17.8320 C   0  0  0  0  0  0  0  0  0  0  0  0
    3.9390   15.1710   17.7460 C   0  0  0  0  0  0  0  0  0  0  0  0
    3.2630   14.8790   19.0540 C   0  0  0  0  0  0  0  0  0  0  0  0
    1.9480   14.2890   17.3640 H   0  0  0  0  0  0  0  0  0  0  0  0
    4.9800   14.8940   17.6350 H   0  0  0  0  0  0  0  0  0  0  0  0
    3.6650   16.0810   17.2250 H   0  0  0  0  0  0  0  0  0  0  0  0
    2.5250   15.5830   19.4210 H   0  0  0  0  0  0  0  0  0  0  0  0
    3.8370   14.3950   19.8350 H   0  0  0  0  0  0  0  0  0  0  0  0
    2.1820    7.8670   18.2560 C   0  0  2  0  0  0  0  0  0  0  0  0
    1.3390    7.3770   17.7470 H   0  0  0  0  0  0  0  0  0  0  0  0
    2.3110    7.1890   19.6290 C   0  0  0  0  0  0  0  0  0  0  0  0
    1.3900    6.6730   19.9200 H   0  0  0  0  0  0  0  0  0  0  0  0
    2.5360    7.9240   20.4100 H   0  0  0  0  0  0  0  0  0  0  0  0
    3.1240    6.4540   19.6290 H   0  0  0  0  0  0  0  0  0  0  0  0
    3.4490    7.6890   17.3930 C   0  0  0  0  0  0  0  0  0  0  0  0
    3.2120    7.9060   16.3430 H   0  0  0  0  0  0  0  0  0  0  0  0
    4.2100    8.4210   17.6860 H   0  0  0  0  0  0  0  0  0  0  0  0
    3.9920    6.3020   17.4540 C   0  0  0  0  0  0  0  0  0  0  0  0
    3.2850    5.1910   17.5150 N   0  0  0  0  0  0  0  0  0  0  0  0
    4.1550    4.1270   17.5580 N   0  0  0  0  0  0  0  0  0  0  0  0
    5.3730    4.6100   17.5190 C   0  0  0  0  0  0  0  0  0  0  0  0
    5.3220    5.9670   17.4530 N   0  0  0  0  0  0  0  0  0  0  0  0
    6.2880    4.0320   17.5360 H   0  0  0  0  0  0  0  0  0  0  0  0
    6.4530    6.8540   17.3980 C   0  0  0  0  0  0  0  0  0  0  0  0
    6.8920    6.8270   16.3980 H   0  0  0  0  0  0  0  0  0  0  0  0
    7.1910    6.5220   18.1330 H   0  0  0  0  0  0  0  0  0  0  0  0
    6.1120    7.8670   17.6240 H   0  0  0  0  0  0  0  0  0  0  0  0
  1  7  1  0  0  0  0
  2  3  1  0  0  0  0
  2  1  2  0  0  0  0
  3  5  2  0  0  0  0
  4 30  1  0  0  0  0
  4  9  1  0  0  0  0
  4  3  1  0  0  0  0
  5  6  1  0  0  0  0
  6 11  1  0  0  0  0
  7  6  2  0  0  0  0
  7 10  1  0  0  0  0
  8  2  1  0  0  0  0
 11 12  1  0  0  0  0
 12 13  1  0  0  0  0
 12 22  1  0  0  0  0
 12 21  1  0  0  0  0
 13 18  1  0  0  0  0
 14 13  2  0  0  0  0
 15 14  1  0  0  0  0
 15 16  2  0  0  0  0
 16 17  1  0  0  0  0
 17 18  2  0  0  0  0
 17 25  1  0  0  0  0
 18 26  1  0  0  0  0
 19 11  1  0  0  0  0
 19 14  1  0  0  0  0
 20 19  2  0  0  0  0
 23 15  1  0  0  0  0
 24 16  1  0  0  0  0
 26 29  1  0  0  0  0
 26 28  1  0  0  0  0
 26 27  1  0  0  0  0
 30 32  1  0  0  0  0
 31 30  1  0  0  0  0
 31 32  1  0  0  0  0
 32 36  1  0  0  0  0
 32 37  1  0  0  0  0
 33 30  1  0  0  0  0
 34 31  1  0  0  0  0
 35 31  1  0  0  0  0
 38 39  1  6  0  0  0
 38  1  1  0  0  0  0
 38 40  1  0  0  0  0
 40 41  1  0  0  0  0
 40 42  1  0  0  0  0
 43 40  1  0  0  0  0
 44 47  1  0  0  0  0
 44 46  1  0  0  0  0
 44 38  1  0  0  0  0
 45 44  1  0  0  0  0
 47 48  2  0  0  0  0
 48 49  1  0  0  0  0
 50 52  1  0  0  0  0
 50 49  2  0  0  0  0
 51 47  1  0  0  0  0
 51 50  1  0  0  0  0
 53 51  1  0  0  0  0
 53 56  1  0  0  0  0
 53 55  1  0  0  0  0
 54 53  1  0  0  0  0
M  END
>  <MODEL>
12

>  <REMARK>
 VINA RESULT:    -7.423      3.126      6.130
 INTER + INTRA:         -10.617
 INTER:                  -9.827
 INTRA:                  -0.791
 UNBOUND:                -0.157
  Name = 
  8 active torsions:
  status: ('A' for Active; 'I' for Inactive)
    1  A    between atoms: C_1  and  C_2
    2  A    between atoms: C_2  and  C_3
    3  A    between atoms: C_2  and  C_10
    4  A    between atoms: C_3  and  C_4
    5  A    between atoms: N_8  and  C_9
    6  A    between atoms: N_13  and  C_14
    7  A    between atoms: C_18  and  N_19
    8  A    between atoms: C_26  and  C_27
                            x       y       z     vdW  Elec       q    Type
                         _______ _______ _______ _____ _____    ______ ____

>  <TORSDO>
F 8

$$$$
=
 OpenBabel07192307433D

 56 60  0  0  1  0  0  0  0  0999 V2000
    1.1840    9.2360   18.7320 C   0  0  0  0  0  0  0  0  0  0  0  0
    0.2560    9.2220   17.6870 C   0  0  0  0  0  0  0  0  0  0  0  0
   -0.8100   10.1160   17.6990 C   0  0  0  0  0  0  0  0  0  0  0  0
   -1.7450   10.0530   16.6350 N   0  0  0  0  0  0  0  0  0  0  0  0
   -0.9950   10.9830   18.7140 N   0  0  0  0  0  0  0  0  0  0  0  0
   -0.1070   11.0120   19.7350 C   0  0  0  0  0  0  0  0  0  0  0  0
    0.9870   10.1550   19.7710 C   0  0  0  0  0  0  0  0  0  0  0  0
    0.3470    8.5120   16.8720 H   0  0  0  0  0  0  0  0  0  0  0  0
   -1.2310   10.0290   15.7570 H   0  0  0  0  0  0  0  0  0  0  0  0
    1.6900   10.1770   20.5960 H   0  0  0  0  0  0  0  0  0  0  0  0
   -0.3590   11.9530   20.7500 N   0  0  0  0  0  0  0  0  0  0  0  0
   -1.5450   11.8110   21.5770 C   0  0  0  0  0  0  0  0  0  0  0  0
   -1.4480   12.9810   22.5050 C   0  0  0  0  0  0  0  0  0  0  0  0
   -0.2980   13.7110   22.2130 C   0  0  0  0  0  0  0  0  0  0  0  0
    0.0590   14.8510   22.9070 C   0  0  0  0  0  0  0  0  0  0  0  0
   -0.7870   15.2670   23.9370 C   0  0  0  0  0  0  0  0  0  0  0  0
   -1.9530   14.5410   24.2450 C   0  0  0  0  0  0  0  0  0  0  0  0
   -2.3030   13.3800   23.5280 C   0  0  0  0  0  0  0  0  0  0  0  0
    0.3990   13.0620   21.0930 C   0  0  0  0  0  0  0  0  0  0  0  0
    1.4340   13.4990   20.6280 O   0  0  0  0  0  0  0  0  0  0  0  0
   -2.4440   11.8770   20.9560 H   0  0  0  0  0  0  0  0  0  0  0  0
   -1.5030   10.8670   22.1310 H   0  0  0  0  0  0  0  0  0  0  0  0
    0.9600   15.4000   22.6560 H   0  0  0  0  0  0  0  0  0  0  0  0
   -0.5420   16.1600   24.5080 H   0  0  0  0  0  0  0  0  0  0  0  0
   -2.5910   14.8950   25.0540 H   0  0  0  0  0  0  0  0  0  0  0  0
   -3.5510   12.5990   23.8450 C   0  0  0  0  0  0  0  0  0  0  0  0
   -3.3150   11.2950   24.1610 F   0  0  0  0  0  0  0  0  0  0  0  0
   -4.4270   12.5790   22.8040 F   0  0  0  0  0  0  0  0  0  0  0  0
   -4.2340   13.1240   24.8990 F   0  0  0  0  0  0  0  0  0  0  0  0
   -2.8740   10.9900   16.6590 C   0  0  0  0  0  0  0  0  0  0  0  0
   -4.2330   10.5350   17.1100 C   0  0  0  0  0  0  0  0  0  0  0  0
   -3.9990   10.8850   15.6690 C   0  0  0  0  0  0  0  0  0  0  0  0
   -2.5760   11.9910   16.9680 H   0  0  0  0  0  0  0  0  0  0  0  0
   -4.3720    9.4920   17.3670 H   0  0  0  0  0  0  0  0  0  0  0  0
   -4.8190   11.2200   17.7110 H   0  0  0  0  0  0  0  0  0  0  0  0
   -4.4170   11.8090   15.2900 H   0  0  0  0  0  0  0  0  0  0  0  0
   -3.9690   10.0820   14.9420 H   0  0  0  0  0  0  0  0  0  0  0  0
    2.3600    8.2700   18.7870 C   0  0  2  0  0  0  0  0  0  0  0  0
    3.1450    8.7250   19.4100 H   0  0  0  0  0  0  0  0  0  0  0  0
    2.9790    8.0610   17.3970 C   0  0  0  0  0  0  0  0  0  0  0  0
    3.6010    7.1600   17.3560 H   0  0  0  0  0  0  0  0  0  0  0  0
    3.6120    8.9100   17.1170 H   0  0  0  0  0  0  0  0  0  0  0  0
    2.2010    7.9670   16.6310 H   0  0  0  0  0  0  0  0  0  0  0  0
    1.9200    6.9430   19.4390 C   0  0  0  0  0  0  0  0  0  0  0  0
    1.8420    7.0760   20.5270 H   0  0  0  0  0  0  0  0  0  0  0  0
    0.9150    6.6700   19.0970 H   0  0  0  0  0  0  0  0  0  0  0  0
    2.8870    5.8360   19.1900 C   0  0  0  0  0  0  0  0  0  0  0  0
    4.1150    5.7540   19.6620 N   0  0  0  0  0  0  0  0  0  0  0  0
    4.6770    4.5860   19.2040 N   0  0  0  0  0  0  0  0  0  0  0  0
    3.7800    3.9780   18.4660 C   0  0  0  0  0  0  0  0  0  0  0  0
    2.6420    4.7220   18.4290 N   0  0  0  0  0  0  0  0  0  0  0  0
    3.9090    3.0310   17.9590 H   0  0  0  0  0  0  0  0  0  0  0  0
    1.4370    4.3870   17.7200 C   0  0  0  0  0  0  0  0  0  0  0  0
    0.8210    3.7280   18.3350 H   0  0  0  0  0  0  0  0  0  0  0  0
    1.7080    3.8770   16.7920 H   0  0  0  0  0  0  0  0  0  0  0  0
    0.8900    5.3090   17.5080 H   0  0  0  0  0  0  0  0  0  0  0  0
  1 38  1  0  0  0  0
  1  7  1  0  0  0  0
  2  3  1  0  0  0  0
  2  1  2  0  0  0  0
  3  5  2  0  0  0  0
  4 30  1  0  0  0  0
  4  3  1  0  0  0  0
  5  6  1  0  0  0  0
  6  7  2  0  0  0  0
  6 11  1  0  0  0  0
  7 10  1  0  0  0  0
  8  2  1  0  0  0  0
  9  4  1  0  0  0  0
 11 19  1  0  0  0  0
 11 12  1  0  0  0  0
 12 22  1  0  0  0  0
 12 13  1  0  0  0  0
 13 18  1  0  0  0  0
 14 13  2  0  0  0  0
 14 15  1  0  0  0  0
 15 16  2  0  0  0  0
 16 17  1  0  0  0  0
 16 24  1  0  0  0  0
 17 25  1  0  0  0  0
 18 26  1  0  0  0  0
 18 17  2  0  0  0  0
 19 14  1  0  0  0  0
 20 19  2  0  0  0  0
 21 12  1  0  0  0  0
 23 15  1  0  0  0  0
 26 27  1  0  0  0  0
 26 29  1  0  0  0  0
 28 26  1  0  0  0  0
 30 33  1  0  0  0  0
 30 31  1  0  0  0  0
 31 34  1  0  0  0  0
 31 35  1  0  0  0  0
 32 30  1  0  0  0  0
 32 31  1  0  0  0  0
 36 32  1  0  0  0  0
 37 32  1  0  0  0  0
 38 39  1  1  0  0  0
 38 44  1  0  0  0  0
 40 38  1  0  0  0  0
 41 40  1  0  0  0  0
 42 40  1  0  0  0  0
 43 40  1  0  0  0  0
 44 45  1  0  0  0  0
 46 44  1  0  0  0  0
 47 44  1  0  0  0  0
 47 48  2  0  0  0  0
 49 48  1  0  0  0  0
 50 49  2  0  0  0  0
 51 50  1  0  0  0  0
 51 47  1  0  0  0  0
 52 50  1  0  0  0  0
 53 54  1  0  0  0  0
 53 51  1  0  0  0  0
 55 53  1  0  0  0  0
 56 53  1  0  0  0  0
M  END
>  <MODEL>
13

>  <REMARK>
 VINA RESULT:    -7.361      3.323      6.203
 INTER + INTRA:         -10.530
 INTER:                  -9.475
 INTRA:                  -1.055
 UNBOUND:                -0.157
  Name = 
  8 active torsions:
  status: ('A' for Active; 'I' for Inactive)
    1  A    between atoms: C_1  and  C_2
    2  A    between atoms: C_2  and  C_3
    3  A    between atoms: C_2  and  C_10
    4  A    between atoms: C_3  and  C_4
    5  A    between atoms: N_8  and  C_9
    6  A    between atoms: N_13  and  C_14
    7  A    between atoms: C_18  and  N_19
    8  A    between atoms: C_26  and  C_27
                            x       y       z     vdW  Elec       q    Type
                         _______ _______ _______ _____ _____    ______ ____

>  <TORSDO>
F 8

$$$$
=
 OpenBabel07192307433D

 56 60  0  0  1  0  0  0  0  0999 V2000
   -0.6920   11.6320   18.5890 C   0  0  0  0  0  0  0  0  0  0  0  0
    0.1570   12.7410   18.5210 C   0  0  0  0  0  0  0  0  0  0  0  0
    1.5360   12.5550   18.5290 C   0  0  0  0  0  0  0  0  0  0  0  0
    2.3630   13.7050   18.4850 N   0  0  0  0  0  0  0  0  0  0  0  0
    2.0840   11.3280   18.6370 N   0  0  0  0  0  0  0  0  0  0  0  0
    1.2780   10.2430   18.7040 C   0  0  0  0  0  0  0  0  0  0  0  0
   -0.1070   10.3640   18.6820 C   0  0  0  0  0  0  0  0  0  0  0  0
   -0.2450   13.7470   18.4740 H   0  0  0  0  0  0  0  0  0  0  0  0
    2.0300   14.3120   17.7400 H   0  0  0  0  0  0  0  0  0  0  0  0
   -0.7470    9.4900   18.7450 H   0  0  0  0  0  0  0  0  0  0  0  0
    1.9230    8.9960   18.8000 N   0  0  0  0  0  0  0  0  0  0  0  0
    2.8860    8.6100   17.7820 C   0  0  0  0  0  0  0  0  0  0  0  0
    3.3260    7.2540   18.2370 C   0  0  0  0  0  0  0  0  0  0  0  0
    2.6590    6.9190   19.4130 C   0  0  0  0  0  0  0  0  0  0  0  0
    2.8620    5.7200   20.0700 C   0  0  0  0  0  0  0  0  0  0  0  0
    3.7770    4.8270   19.5100 C   0  0  0  0  0  0  0  0  0  0  0  0
    4.4590    5.1500   18.3220 C   0  0  0  0  0  0  0  0  0  0  0  0
    4.2410    6.3760   17.6630 C   0  0  0  0  0  0  0  0  0  0  0  0
    1.7610    8.0250   19.7750 C   0  0  0  0  0  0  0  0  0  0  0  0
    1.0500    7.9910   20.7610 O   0  0  0  0  0  0  0  0  0  0  0  0
    2.3950    8.5550   16.8050 H   0  0  0  0  0  0  0  0  0  0  0  0
    3.7250    9.3130   17.7770 H   0  0  0  0  0  0  0  0  0  0  0  0
    2.3270    5.4870   20.9850 H   0  0  0  0  0  0  0  0  0  0  0  0
    3.9640    3.8720   19.9970 H   0  0  0  0  0  0  0  0  0  0  0  0
    5.1640    4.4280   17.9120 H   0  0  0  0  0  0  0  0  0  0  0  0
    4.9610    6.7300   16.3890 C   0  0  0  0  0  0  0  0  0  0  0  0
    4.2040    7.4470   15.5130 F   0  0  0  0  0  0  0  0  0  0  0  0
    5.3800    5.6290   15.7080 F   0  0  0  0  0  0  0  0  0  0  0  0
    6.0780    7.4740   16.6180 F   0  0  0  0  0  0  0  0  0  0  0  0
    3.8170   13.5030   18.5080 C   0  0  0  0  0  0  0  0  0  0  0  0
    4.6980   14.4020   19.3290 C   0  0  0  0  0  0  0  0  0  0  0  0
    4.7500   14.4660   17.8300 C   0  0  0  0  0  0  0  0  0  0  0  0
    4.0900   12.4500   18.4890 H   0  0  0  0  0  0  0  0  0  0  0  0
    4.2440   15.2290   19.8610 H   0  0  0  0  0  0  0  0  0  0  0  0
    5.5350   13.9480   19.8470 H   0  0  0  0  0  0  0  0  0  0  0  0
    5.6150   14.0510   17.3270 H   0  0  0  0  0  0  0  0  0  0  0  0
    4.3250   15.3310   17.3360 H   0  0  0  0  0  0  0  0  0  0  0  0
   -2.2090   11.7700   18.6030 C   0  0  2  0  0  0  0  0  0  0  0  0
   -2.4870   12.5490   17.8760 H   0  0  0  0  0  0  0  0  0  0  0  0
   -2.7150   12.2560   19.9700 C   0  0  0  0  0  0  0  0  0  0  0  0
   -2.4840   11.5440   20.7690 H   0  0  0  0  0  0  0  0  0  0  0  0
   -3.8020   12.3960   19.9590 H   0  0  0  0  0  0  0  0  0  0  0  0
   -2.2640   13.2190   20.2360 H   0  0  0  0  0  0  0  0  0  0  0  0
   -2.8620   10.4400   18.1750 C   0  0  0  0  0  0  0  0  0  0  0  0
   -2.1980    9.6040   18.4350 H   0  0  0  0  0  0  0  0  0  0  0  0
   -3.7870   10.2750   18.7400 H   0  0  0  0  0  0  0  0  0  0  0  0
   -3.1150   10.3740   16.7060 C   0  0  0  0  0  0  0  0  0  0  0  0
   -2.4100    9.6910   15.8260 N   0  0  0  0  0  0  0  0  0  0  0  0
   -2.9640    9.8910   14.5830 N   0  0  0  0  0  0  0  0  0  0  0  0
   -3.9950   10.6870   14.7320 C   0  0  0  0  0  0  0  0  0  0  0  0
   -4.1300   11.0150   16.0450 N   0  0  0  0  0  0  0  0  0  0  0  0
   -4.6470   11.0370   13.9430 H   0  0  0  0  0  0  0  0  0  0  0  0
   -5.1420   11.8710   16.6020 C   0  0  0  0  0  0  0  0  0  0  0  0
   -6.1250   11.5630   16.2360 H   0  0  0  0  0  0  0  0  0  0  0  0
   -4.9390   12.8980   16.2910 H   0  0  0  0  0  0  0  0  0  0  0  0
   -5.1120   11.7830   17.6910 H   0  0  0  0  0  0  0  0  0  0  0  0
  1 38  1  0  0  0  0
  1  7  1  0  0  0  0
  2  3  1  0  0  0  0
  2  1  2  0  0  0  0
  3  5  2  0  0  0  0
  4 30  1  0  0  0  0
  4  3  1  0  0  0  0
  5  6  1  0  0  0  0
  6 11  1  0  0  0  0
  7  6  2  0  0  0  0
  7 10  1  0  0  0  0
  8  2  1  0  0  0  0
  9  4  1  0  0  0  0
 11 19  1  0  0  0  0
 12 13  1  0  0  0  0
 12 11  1  0  0  0  0
 13 14  1  0  0  0  0
 14 19  1  0  0  0  0
 14 15  2  0  0  0  0
 15 23  1  0  0  0  0
 16 24  1  0  0  0  0
 16 15  1  0  0  0  0
 17 16  2  0  0  0  0
 18 13  2  0  0  0  0
 18 17  1  0  0  0  0
 19 20  2  0  0  0  0
 21 12  1  0  0  0  0
 22 12  1  0  0  0  0
 25 17  1  0  0  0  0
 26 29  1  0  0  0  0
 26 18  1  0  0  0  0
 27 26  1  0  0  0  0
 28 26  1  0  0  0  0
 30 31  1  0  0  0  0
 31 35  1  0  0  0  0
 31 34  1  0  0  0  0
 32 30  1  0  0  0  0
 32 31  1  0  0  0  0
 33 30  1  0  0  0  0
 36 32  1  0  0  0  0
 37 32  1  0  0  0  0
 38 39  1  6  0  0  0
 38 40  1  0  0  0  0
 40 43  1  0  0  0  0
 40 41  1  0  0  0  0
 42 40  1  0  0  0  0
 44 45  1  0  0  0  0
 44 38  1  0  0  0  0
 44 46  1  0  0  0  0
 47 44  1  0  0  0  0
 48 47  2  0  0  0  0
 49 50  2  0  0  0  0
 49 48  1  0  0  0  0
 50 51  1  0  0  0  0
 51 53  1  0  0  0  0
 51 47  1  0  0  0  0
 52 50  1  0  0  0  0
 53 56  1  0  0  0  0
 54 53  1  0  0  0  0
 55 53  1  0  0  0  0
M  END
>  <MODEL>
14

>  <REMARK>
 VINA RESULT:    -7.353      4.418      9.111
 INTER + INTRA:         -10.519
 INTER:                  -9.456
 INTRA:                  -1.062
 UNBOUND:                -0.157
  Name = 
  8 active torsions:
  status: ('A' for Active; 'I' for Inactive)
    1  A    between atoms: C_1  and  C_2
    2  A    between atoms: C_2  and  C_3
    3  A    between atoms: C_2  and  C_10
    4  A    between atoms: C_3  and  C_4
    5  A    between atoms: N_8  and  C_9
    6  A    between atoms: N_13  and  C_14
    7  A    between atoms: C_18  and  N_19
    8  A    between atoms: C_26  and  C_27
                            x       y       z     vdW  Elec       q    Type
                         _______ _______ _______ _____ _____    ______ ____

>  <TORSDO>
F 8

$$$$
=
 OpenBabel07192307433D

 56 60  0  0  1  0  0  0  0  0999 V2000
   -1.4040   11.7170   19.4020 C   0  0  0  0  0  0  0  0  0  0  0  0
   -0.5760   12.8090   19.1280 C   0  0  0  0  0  0  0  0  0  0  0  0
    0.7910   12.6130   18.9560 C   0  0  0  0  0  0  0  0  0  0  0  0
    1.6000   13.7490   18.7050 N   0  0  0  0  0  0  0  0  0  0  0  0
    1.3520   11.3940   19.0810 N   0  0  0  0  0  0  0  0  0  0  0  0
    0.5660   10.3240   19.3470 C   0  0  0  0  0  0  0  0  0  0  0  0
   -0.8080   10.4540   19.5110 C   0  0  0  0  0  0  0  0  0  0  0  0
   -0.9830   13.8120   19.0590 H   0  0  0  0  0  0  0  0  0  0  0  0
    1.1640   14.2990   17.9680 H   0  0  0  0  0  0  0  0  0  0  0  0
   -1.4310    9.5940   19.7330 H   0  0  0  0  0  0  0  0  0  0  0  0
    1.2210    9.0840   19.4480 N   0  0  0  0  0  0  0  0  0  0  0  0
    2.1980    8.7060   18.4400 C   0  0  0  0  0  0  0  0  0  0  0  0
    2.6470    7.3540   18.8990 C   0  0  0  0  0  0  0  0  0  0  0  0
    1.9710    7.0120   20.0680 C   0  0  0  0  0  0  0  0  0  0  0  0
    2.1790    5.8150   20.7270 C   0  0  0  0  0  0  0  0  0  0  0  0
    3.1070    4.9310   20.1750 C   0  0  0  0  0  0  0  0  0  0  0  0
    3.7970    5.2610   18.9940 C   0  0  0  0  0  0  0  0  0  0  0  0
    3.5750    6.4850   18.3330 C   0  0  0  0  0  0  0  0  0  0  0  0
    1.0600    8.1100   20.4220 C   0  0  0  0  0  0  0  0  0  0  0  0
    0.3390    8.0690   21.4010 O   0  0  0  0  0  0  0  0  0  0  0  0
    1.7170    8.6470   17.4590 H   0  0  0  0  0  0  0  0  0  0  0  0
    3.0300    9.4170   18.4430 H   0  0  0  0  0  0  0  0  0  0  0  0
    1.6360    5.5770   21.6360 H   0  0  0  0  0  0  0  0  0  0  0  0
    3.2990    3.9780   20.6630 H   0  0  0  0  0  0  0  0  0  0  0  0
    4.5140    4.5460   18.5900 H   0  0  0  0  0  0  0  0  0  0  0  0
    4.3040    6.8460   17.0660 C   0  0  0  0  0  0  0  0  0  0  0  0
    3.6200    7.7130   16.2690 F   0  0  0  0  0  0  0  0  0  0  0  0
    4.5710    5.7570   16.2940 F   0  0  0  0  0  0  0  0  0  0  0  0
    5.5080    7.4320   17.3130 F   0  0  0  0  0  0  0  0  0  0  0  0
    3.0430   13.5370   18.5380 C   0  0  0  0  0  0  0  0  0  0  0  0
    4.0300   14.3660   19.3120 C   0  0  0  0  0  0  0  0  0  0  0  0
    3.9030   14.5430   17.8260 C   0  0  0  0  0  0  0  0  0  0  0  0
    3.2960   12.4870   18.4080 H   0  0  0  0  0  0  0  0  0  0  0  0
    3.6550   15.1530   19.9550 H   0  0  0  0  0  0  0  0  0  0  0  0
    4.9150   13.8690   19.6900 H   0  0  0  0  0  0  0  0  0  0  0  0
    4.6960   14.1620   17.1940 H   0  0  0  0  0  0  0  0  0  0  0  0
    3.4350   15.4460   17.4530 H   0  0  0  0  0  0  0  0  0  0  0  0
   -2.9040   11.8690   19.6190 C   0  0  2  0  0  0  0  0  0  0  0  0
   -3.2460   11.0230   20.2350 H   0  0  0  0  0  0  0  0  0  0  0  0
   -3.6740   11.7760   18.2940 C   0  0  0  0  0  0  0  0  0  0  0  0
   -3.1630   11.1370   17.5650 H   0  0  0  0  0  0  0  0  0  0  0  0
   -3.7910   12.7660   17.8370 H   0  0  0  0  0  0  0  0  0  0  0  0
   -4.6790   11.3690   18.4520 H   0  0  0  0  0  0  0  0  0  0  0  0
   -3.1950   13.1810   20.3770 C   0  0  0  0  0  0  0  0  0  0  0  0
   -2.2800   13.7870   20.4280 H   0  0  0  0  0  0  0  0  0  0  0  0
   -3.9230   13.7830   19.8200 H   0  0  0  0  0  0  0  0  0  0  0  0
   -3.6560   12.9440   21.7750 C   0  0  0  0  0  0  0  0  0  0  0  0
   -4.9080   12.8880   22.1830 N   0  0  0  0  0  0  0  0  0  0  0  0
   -4.9110   12.6540   23.5380 N   0  0  0  0  0  0  0  0  0  0  0  0
   -3.6620   12.5680   23.9270 C   0  0  0  0  0  0  0  0  0  0  0  0
   -2.8390   12.7410   22.8580 N   0  0  0  0  0  0  0  0  0  0  0  0
   -3.3220   12.3870   24.9380 H   0  0  0  0  0  0  0  0  0  0  0  0
   -1.4020   12.7190   22.8850 C   0  0  0  0  0  0  0  0  0  0  0  0
   -1.0110   13.5540   22.2990 H   0  0  0  0  0  0  0  0  0  0  0  0
   -1.0600   11.7750   22.4530 H   0  0  0  0  0  0  0  0  0  0  0  0
   -1.0720   12.8110   23.9220 H   0  0  0  0  0  0  0  0  0  0  0  0
  1  7  1  0  0  0  0
  1 38  1  0  0  0  0
  2  1  2  0  0  0  0
  3  5  2  0  0  0  0
  3  2  1  0  0  0  0
  4  3  1  0  0  0  0
  5  6  1  0  0  0  0
  6 11  1  0  0  0  0
  6  7  2  0  0  0  0
  7 10  1  0  0  0  0
  8  2  1  0  0  0  0
  9  4  1  0  0  0  0
 11 19  1  0  0  0  0
 12 22  1  0  0  0  0
 12 13  1  0  0  0  0
 12 11  1  0  0  0  0
 13 14  1  0  0  0  0
 14 19  1  0  0  0  0
 14 15  2  0  0  0  0
 15 23  1  0  0  0  0
 16 24  1  0  0  0  0
 16 15  1  0  0  0  0
 17 16  2  0  0  0  0
 18 13  2  0  0  0  0
 18 17  1  0  0  0  0
 19 20  2  0  0  0  0
 21 12  1  0  0  0  0
 25 17  1  0  0  0  0
 26 29  1  0  0  0  0
 26 18  1  0  0  0  0
 27 26  1  0  0  0  0
 28 26  1  0  0  0  0
 30  4  1  0  0  0  0
 30 31  1  0  0  0  0
 31 35  1  0  0  0  0
 31 34  1  0  0  0  0
 32 30  1  0  0  0  0
 32 31  1  0  0  0  0
 33 30  1  0  0  0  0
 36 32  1  0  0  0  0
 37 32  1  0  0  0  0
 38 39  1  1  0  0  0
 38 44  1  0  0  0  0
 40 43  1  0  0  0  0
 40 38  1  0  0  0  0
 41 40  1  0  0  0  0
 42 40  1  0  0  0  0
 44 45  1  0  0  0  0
 44 47  1  0  0  0  0
 46 44  1  0  0  0  0
 47 48  2  0  0  0  0
 47 51  1  0  0  0  0
 48 49  1  0  0  0  0
 49 50  2  0  0  0  0
 50 52  1  0  0  0  0
 51 53  1  0  0  0  0
 51 50  1  0  0  0  0
 53 56  1  0  0  0  0
 54 53  1  0  0  0  0
 55 53  1  0  0  0  0
M  END
>  <MODEL>
15

>  <REMARK>
 VINA RESULT:    -7.321      4.430      9.419
 INTER + INTRA:         -10.473
 INTER:                  -9.499
 INTRA:                  -0.974
 UNBOUND:                -0.157
  Name = 
  8 active torsions:
  status: ('A' for Active; 'I' for Inactive)
    1  A    between atoms: C_1  and  C_2
    2  A    between atoms: C_2  and  C_3
    3  A    between atoms: C_2  and  C_10
    4  A    between atoms: C_3  and  C_4
    5  A    between atoms: N_8  and  C_9
    6  A    between atoms: N_13  and  C_14
    7  A    between atoms: C_18  and  N_19
    8  A    between atoms: C_26  and  C_27
                            x       y       z     vdW  Elec       q    Type
                         _______ _______ _______ _____ _____    ______ ____

>  <TORSDO>
F 8

$$$$
=
 OpenBabel07192307433D

 56 60  0  0  1  0  0  0  0  0999 V2000
    4.1610    6.7740   17.7790 C   0  0  0  0  0  0  0  0  0  0  0  0
    4.0730    5.5350   18.4190 C   0  0  0  0  0  0  0  0  0  0  0  0
    3.1190    5.3370   19.4120 C   0  0  0  0  0  0  0  0  0  0  0  0
    3.0790    4.0740   20.0550 N   0  0  0  0  0  0  0  0  0  0  0  0
    2.2910    6.3240   19.8040 N   0  0  0  0  0  0  0  0  0  0  0  0
    2.3610    7.5320   19.1970 C   0  0  0  0  0  0  0  0  0  0  0  0
    3.2810    7.7850   18.1860 C   0  0  0  0  0  0  0  0  0  0  0  0
    4.7490    4.7270   18.1600 H   0  0  0  0  0  0  0  0  0  0  0  0
    3.0930    3.3490   19.3410 H   0  0  0  0  0  0  0  0  0  0  0  0
    3.3380    8.7580   17.7090 H   0  0  0  0  0  0  0  0  0  0  0  0
    1.4540    8.5080   19.6500 N   0  0  0  0  0  0  0  0  0  0  0  0
    0.5800    9.1690   18.6960 C   0  0  0  0  0  0  0  0  0  0  0  0
   -0.2020   10.1110   19.5560 C   0  0  0  0  0  0  0  0  0  0  0  0
    0.2080    9.9800   20.8810 C   0  0  0  0  0  0  0  0  0  0  0  0
   -0.3380   10.7250   21.9090 C   0  0  0  0  0  0  0  0  0  0  0  0
   -1.3380   11.6400   21.5770 C   0  0  0  0  0  0  0  0  0  0  0  0
   -1.7640   11.7860   20.2440 C   0  0  0  0  0  0  0  0  0  0  0  0
   -1.1980   11.0190   19.2070 C   0  0  0  0  0  0  0  0  0  0  0  0
    1.2660    8.9610   20.9460 C   0  0  0  0  0  0  0  0  0  0  0  0
    1.8100    8.6520   21.9890 O   0  0  0  0  0  0  0  0  0  0  0  0
    1.1770    9.7150   17.9590 H   0  0  0  0  0  0  0  0  0  0  0  0
   -0.0780    8.4340   18.2210 H   0  0  0  0  0  0  0  0  0  0  0  0
    0.0030   10.6010   22.9310 H   0  0  0  0  0  0  0  0  0  0  0  0
   -1.7930   12.2470   22.3580 H   0  0  0  0  0  0  0  0  0  0  0  0
   -2.5450   12.5110   20.0210 H   0  0  0  0  0  0  0  0  0  0  0  0
   -1.6410   11.1700   17.7760 C   0  0  0  0  0  0  0  0  0  0  0  0
   -1.3820   10.0780   17.0040 F   0  0  0  0  0  0  0  0  0  0  0  0
   -1.0390   12.2200   17.1550 F   0  0  0  0  0  0  0  0  0  0  0  0
   -2.9810   11.3940   17.6720 F   0  0  0  0  0  0  0  0  0  0  0  0
    2.0800    3.8750   21.1110 C   0  0  0  0  0  0  0  0  0  0  0  0
    1.9530    2.5460   21.8010 C   0  0  0  0  0  0  0  0  0  0  0  0
    0.8630    3.0230   20.8850 C   0  0  0  0  0  0  0  0  0  0  0  0
    1.9590    4.7560   21.7400 H   0  0  0  0  0  0  0  0  0  0  0  0
    2.5790    1.7270   21.4680 H   0  0  0  0  0  0  0  0  0  0  0  0
    1.7590    2.5500   22.8670 H   0  0  0  0  0  0  0  0  0  0  0  0
   -0.0690    3.3580   21.3250 H   0  0  0  0  0  0  0  0  0  0  0  0
    0.7480    2.5370   19.9240 H   0  0  0  0  0  0  0  0  0  0  0  0
    5.1950    7.0600   16.6990 C   0  0  2  0  0  0  0  0  0  0  0  0
    5.6250    8.0540   16.8930 H   0  0  0  0  0  0  0  0  0  0  0  0
    4.5470    7.1340   15.3080 C   0  0  0  0  0  0  0  0  0  0  0  0
    3.9260    8.0280   15.1920 H   0  0  0  0  0  0  0  0  0  0  0  0
    3.9080    6.2630   15.1260 H   0  0  0  0  0  0  0  0  0  0  0  0
    5.3100    7.1500   14.5200 H   0  0  0  0  0  0  0  0  0  0  0  0
    6.3260    6.0120   16.7630 C   0  0  0  0  0  0  0  0  0  0  0  0
    7.2930    6.5210   16.8750 H   0  0  0  0  0  0  0  0  0  0  0  0
    6.2100    5.3880   17.6570 H   0  0  0  0  0  0  0  0  0  0  0  0
    6.3990    5.1730   15.5320 C   0  0  0  0  0  0  0  0  0  0  0  0
    7.1710    5.3930   14.4860 N   0  0  0  0  0  0  0  0  0  0  0  0
    6.9430    4.3960   13.5660 N   0  0  0  0  0  0  0  0  0  0  0  0
    6.0420    3.5890   14.0710 C   0  0  0  0  0  0  0  0  0  0  0  0
    5.6720    4.0340   15.3020 N   0  0  0  0  0  0  0  0  0  0  0  0
    5.6440    2.7030   13.5950 H   0  0  0  0  0  0  0  0  0  0  0  0
    4.7030    3.4180   16.1670 C   0  0  0  0  0  0  0  0  0  0  0  0
    4.7100    2.3360   16.0140 H   0  0  0  0  0  0  0  0  0  0  0  0
    3.7150    3.8160   15.9240 H   0  0  0  0  0  0  0  0  0  0  0  0
    4.9670    3.6440   17.2030 H   0  0  0  0  0  0  0  0  0  0  0  0
  1  7  2  0  0  0  0
  1  2  1  0  0  0  0
  2  3  2  0  0  0  0
  3  5  1  0  0  0  0
  3  4  1  0  0  0  0
  4 30  1  0  0  0  0
  6 11  1  0  0  0  0
  6  5  2  0  0  0  0
  7  6  1  0  0  0  0
  8  2  1  0  0  0  0
  9  4  1  0  0  0  0
 10  7  1  0  0  0  0
 11 19  1  0  0  0  0
 12 13  1  0  0  0  0
 12 11  1  0  0  0  0
 13 14  1  0  0  0  0
 14 19  1  0  0  0  0
 14 15  2  0  0  0  0
 15 23  1  0  0  0  0
 16 15  1  0  0  0  0
 16 24  1  0  0  0  0
 17 16  2  0  0  0  0
 18 13  2  0  0  0  0
 18 17  1  0  0  0  0
 19 20  2  0  0  0  0
 21 12  1  0  0  0  0
 22 12  1  0  0  0  0
 25 17  1  0  0  0  0
 26 18  1  0  0  0  0
 27 26  1  0  0  0  0
 28 26  1  0  0  0  0
 29 26  1  0  0  0  0
 30 33  1  0  0  0  0
 30 31  1  0  0  0  0
 31 35  1  0  0  0  0
 32 30  1  0  0  0  0
 32 36  1  0  0  0  0
 32 31  1  0  0  0  0
 34 31  1  0  0  0  0
 37 32  1  0  0  0  0
 38 44  1  0  0  0  0
 38 39  1  1  0  0  0
 38  1  1  0  0  0  0
 40 38  1  0  0  0  0
 41 40  1  0  0  0  0
 42 40  1  0  0  0  0
 43 40  1  0  0  0  0
 44 45  1  0  0  0  0
 44 46  1  0  0  0  0
 47 44  1  0  0  0  0
 48 47  2  0  0  0  0
 49 50  2  0  0  0  0
 49 48  1  0  0  0  0
 50 51  1  0  0  0  0
 51 47  1  0  0  0  0
 51 53  1  0  0  0  0
 52 50  1  0  0  0  0
 53 56  1  0  0  0  0
 54 53  1  0  0  0  0
 55 53  1  0  0  0  0
M  END
>  <MODEL>
16

>  <REMARK>
 VINA RESULT:    -7.298      2.750      3.493
 INTER + INTRA:         -10.441
 INTER:                 -10.067
 INTRA:                  -0.374
 UNBOUND:                -0.157
  Name = 
  8 active torsions:
  status: ('A' for Active; 'I' for Inactive)
    1  A    between atoms: C_1  and  C_2
    2  A    between atoms: C_2  and  C_3
    3  A    between atoms: C_2  and  C_10
    4  A    between atoms: C_3  and  C_4
    5  A    between atoms: N_8  and  C_9
    6  A    between atoms: N_13  and  C_14
    7  A    between atoms: C_18  and  N_19
    8  A    between atoms: C_26  and  C_27
                            x       y       z     vdW  Elec       q    Type
                         _______ _______ _______ _____ _____    ______ ____

>  <TORSDO>
F 8

$$$$
=
 OpenBabel07192307433D

 56 60  0  0  1  0  0  0  0  0999 V2000
    4.7020    5.6430   16.9600 C   0  0  0  0  0  0  0  0  0  0  0  0
    4.4030    4.2970   17.1880 C   0  0  0  0  0  0  0  0  0  0  0  0
    3.4120    3.9570   18.1040 C   0  0  0  0  0  0  0  0  0  0  0  0
    3.1550    2.5800   18.3270 N   0  0  0  0  0  0  0  0  0  0  0  0
    2.7480    4.8940   18.8090 N   0  0  0  0  0  0  0  0  0  0  0  0
    3.0240    6.2030   18.6010 C   0  0  0  0  0  0  0  0  0  0  0  0
    3.9910    6.6050   17.6870 C   0  0  0  0  0  0  0  0  0  0  0  0
    4.9430    3.5120   16.6710 H   0  0  0  0  0  0  0  0  0  0  0  0
    3.0630    2.1200   17.4250 H   0  0  0  0  0  0  0  0  0  0  0  0
    4.2140    7.6550   17.5320 H   0  0  0  0  0  0  0  0  0  0  0  0
    2.2800    7.1220   19.3630 N   0  0  0  0  0  0  0  0  0  0  0  0
    1.9750    8.4300   18.8070 C   0  0  0  0  0  0  0  0  0  0  0  0
    1.1960    9.0860   19.9030 C   0  0  0  0  0  0  0  0  0  0  0  0
    1.0790    8.2090   20.9800 C   0  0  0  0  0  0  0  0  0  0  0  0
    0.4090    8.5390   22.1420 C   0  0  0  0  0  0  0  0  0  0  0  0
   -0.1640    9.8100   22.2140 C   0  0  0  0  0  0  0  0  0  0  0  0
   -0.0550   10.7080   21.1360 C   0  0  0  0  0  0  0  0  0  0  0  0
    0.6320   10.3570   19.9570 C   0  0  0  0  0  0  0  0  0  0  0  0
    1.7710    6.9570   20.6420 C   0  0  0  0  0  0  0  0  0  0  0  0
    1.8310    6.0170   21.4120 O   0  0  0  0  0  0  0  0  0  0  0  0
    2.9030    8.9750   18.6050 H   0  0  0  0  0  0  0  0  0  0  0  0
    1.3650    8.3180   17.9050 H   0  0  0  0  0  0  0  0  0  0  0  0
    0.3360    7.8350   22.9650 H   0  0  0  0  0  0  0  0  0  0  0  0
   -0.7000   10.1090   23.1130 H   0  0  0  0  0  0  0  0  0  0  0  0
   -0.5130   11.6930   21.2280 H   0  0  0  0  0  0  0  0  0  0  0  0
    0.7590   11.3120   18.8000 C   0  0  0  0  0  0  0  0  0  0  0  0
    2.0410   11.4920   18.3770 F   0  0  0  0  0  0  0  0  0  0  0  0
    0.2840   12.5520   19.0970 F   0  0  0  0  0  0  0  0  0  0  0  0
    0.0580   10.8950   17.7090 F   0  0  0  0  0  0  0  0  0  0  0  0
    2.1180    2.2280   19.3040 C   0  0  0  0  0  0  0  0  0  0  0  0
    0.7300    1.8750   18.8470 C   0  0  0  0  0  0  0  0  0  0  0  0
    0.9720    3.1550   19.5950 C   0  0  0  0  0  0  0  0  0  0  0  0
    2.5110    1.6480   20.1360 H   0  0  0  0  0  0  0  0  0  0  0  0
    0.5000    1.9360   17.7910 H   0  0  0  0  0  0  0  0  0  0  0  0
    0.2200    1.0730   19.3660 H   0  0  0  0  0  0  0  0  0  0  0  0
    0.6340    3.2220   20.6220 H   0  0  0  0  0  0  0  0  0  0  0  0
    0.9160    4.0890   19.0490 H   0  0  0  0  0  0  0  0  0  0  0  0
    5.7890    6.0800   15.9860 C   0  0  2  0  0  0  0  0  0  0  0  0
    6.3970    6.8530   16.4780 H   0  0  0  0  0  0  0  0  0  0  0  0
    5.1880    6.7360   14.7330 C   0  0  0  0  0  0  0  0  0  0  0  0
    5.5990    6.3110   13.8110 H   0  0  0  0  0  0  0  0  0  0  0  0
    5.3910    7.8120   14.7180 H   0  0  0  0  0  0  0  0  0  0  0  0
    4.1000    6.6080   14.7070 H   0  0  0  0  0  0  0  0  0  0  0  0
    6.6980    4.8820   15.6420 C   0  0  0  0  0  0  0  0  0  0  0  0
    7.7510    5.1800   15.7370 H   0  0  0  0  0  0  0  0  0  0  0  0
    6.5480    4.0740   16.3670 H   0  0  0  0  0  0  0  0  0  0  0  0
    6.4950    4.3920   14.2480 C   0  0  0  0  0  0  0  0  0  0  0  0
    5.5610    3.5520   13.8470 N   0  0  0  0  0  0  0  0  0  0  0  0
    5.7120    3.3540   12.4940 N   0  0  0  0  0  0  0  0  0  0  0  0
    6.7310    4.0770   12.0980 C   0  0  0  0  0  0  0  0  0  0  0  0
    7.2530    4.7470   13.1610 N   0  0  0  0  0  0  0  0  0  0  0  0
    7.1100    4.1440   11.0880 H   0  0  0  0  0  0  0  0  0  0  0  0
    8.3800    5.6390   13.1280 C   0  0  0  0  0  0  0  0  0  0  0  0
    8.3250    6.3310   13.9700 H   0  0  0  0  0  0  0  0  0  0  0  0
    8.3530    6.1980   12.1890 H   0  0  0  0  0  0  0  0  0  0  0  0
    9.2950    5.0460   13.1980 H   0  0  0  0  0  0  0  0  0  0  0  0
  1  2  2  0  0  0  0
  1  7  1  0  0  0  0
  2  3  1  0  0  0  0
  3  4  1  0  0  0  0
  3  5  2  0  0  0  0
  4 30  1  0  0  0  0
  6  5  1  0  0  0  0
  6 11  1  0  0  0  0
  7  6  2  0  0  0  0
  8  2  1  0  0  0  0
  9  4  1  0  0  0  0
 10  7  1  0  0  0  0
 11 19  1  0  0  0  0
 12 11  1  0  0  0  0
 12 13  1  0  0  0  0
 13 18  2  0  0  0  0
 13 14  1  0  0  0  0
 14 15  2  0  0  0  0
 15 16  1  0  0  0  0
 15 23  1  0  0  0  0
 16 24  1  0  0  0  0
 17 25  1  0  0  0  0
 17 16  2  0  0  0  0
 18 17  1  0  0  0  0
 19 14  1  0  0  0  0
 19 20  2  0  0  0  0
 21 12  1  0  0  0  0
 22 12  1  0  0  0  0
 26 28  1  0  0  0  0
 26 18  1  0  0  0  0
 27 26  1  0  0  0  0
 29 26  1  0  0  0  0
 30 32  1  0  0  0  0
 30 33  1  0  0  0  0
 31 30  1  0  0  0  0
 31 35  1  0  0  0  0
 31 32  1  0  0  0  0
 32 36  1  0  0  0  0
 34 31  1  0  0  0  0
 37 32  1  0  0  0  0
 38 39  1  1  0  0  0
 38  1  1  0  0  0  0
 40 38  1  0  0  0  0
 41 40  1  0  0  0  0
 42 40  1  0  0  0  0
 43 40  1  0  0  0  0
 44 45  1  0  0  0  0
 44 38  1  0  0  0  0
 44 46  1  0  0  0  0
 47 44  1  0  0  0  0
 48 47  2  0  0  0  0
 49 48  1  0  0  0  0
 50 49  2  0  0  0  0
 50 51  1  0  0  0  0
 51 47  1  0  0  0  0
 52 50  1  0  0  0  0
 53 51  1  0  0  0  0
 53 56  1  0  0  0  0
 53 54  1  0  0  0  0
 55 53  1  0  0  0  0
M  END
>  <MODEL>
17

>  <REMARK>
 VINA RESULT:    -7.210      2.950      3.838
 INTER + INTRA:         -10.318
 INTER:                 -10.467
 INTRA:                   0.149
 UNBOUND:                -0.157
  Name = 
  8 active torsions:
  status: ('A' for Active; 'I' for Inactive)
    1  A    between atoms: C_1  and  C_2
    2  A    between atoms: C_2  and  C_3
    3  A    between atoms: C_2  and  C_10
    4  A    between atoms: C_3  and  C_4
    5  A    between atoms: N_8  and  C_9
    6  A    between atoms: N_13  and  C_14
    7  A    between atoms: C_18  and  N_19
    8  A    between atoms: C_26  and  C_27
                            x       y       z     vdW  Elec       q    Type
                         _______ _______ _______ _____ _____    ______ ____

>  <TORSDO>
F 8

$$$$
=
 OpenBabel07192307433D

 56 60  0  0  1  0  0  0  0  0999 V2000
    2.1660    4.5530   20.5570 C   0  0  0  0  0  0  0  0  0  0  0  0
    3.4550    4.4370   20.0270 C   0  0  0  0  0  0  0  0  0  0  0  0
    4.0860    5.5590   19.4990 C   0  0  0  0  0  0  0  0  0  0  0  0
    5.3820    5.3960   18.9470 N   0  0  0  0  0  0  0  0  0  0  0  0
    3.4750    6.7590   19.4510 N   0  0  0  0  0  0  0  0  0  0  0  0
    2.2270    6.8900   19.9590 C   0  0  0  0  0  0  0  0  0  0  0  0
    1.5510    5.8100   20.5150 C   0  0  0  0  0  0  0  0  0  0  0  0
    3.9650    3.4810   20.0100 H   0  0  0  0  0  0  0  0  0  0  0  0
    5.9500    4.8730   19.6100 H   0  0  0  0  0  0  0  0  0  0  0  0
    0.5480    5.9200   20.9130 H   0  0  0  0  0  0  0  0  0  0  0  0
    1.6600    8.1750   19.8860 N   0  0  0  0  0  0  0  0  0  0  0  0
    0.9910    8.7290   21.0520 C   0  0  0  0  0  0  0  0  0  0  0  0
    0.5370   10.0710   20.5720 C   0  0  0  0  0  0  0  0  0  0  0  0
    0.9250   10.2450   19.2450 C   0  0  0  0  0  0  0  0  0  0  0  0
    0.6430   11.3940   18.5300 C   0  0  0  0  0  0  0  0  0  0  0  0
   -0.0600   12.4040   19.1880 C   0  0  0  0  0  0  0  0  0  0  0  0
   -0.4600   12.2440   20.5280 C   0  0  0  0  0  0  0  0  0  0  0  0
   -0.1660   11.0670   21.2440 C   0  0  0  0  0  0  0  0  0  0  0  0
    1.6380    9.0390   18.8020 C   0  0  0  0  0  0  0  0  0  0  0  0
    2.0810    8.9200   17.6750 O   0  0  0  0  0  0  0  0  0  0  0  0
    0.1370    8.1010   21.3260 H   0  0  0  0  0  0  0  0  0  0  0  0
    1.7040    8.8280   21.8780 H   0  0  0  0  0  0  0  0  0  0  0  0
    0.9570   11.5000   17.4970 H   0  0  0  0  0  0  0  0  0  0  0  0
   -0.3020   13.3240   18.6600 H   0  0  0  0  0  0  0  0  0  0  0  0
   -1.0090   13.0520   21.0100 H   0  0  0  0  0  0  0  0  0  0  0  0
   -0.5920   10.8820   22.6760 C   0  0  0  0  0  0  0  0  0  0  0  0
    0.2680   10.1240   23.4100 F   0  0  0  0  0  0  0  0  0  0  0  0
   -1.8070   10.2790   22.7800 F   0  0  0  0  0  0  0  0  0  0  0  0
   -0.7060   12.0670   23.3370 F   0  0  0  0  0  0  0  0  0  0  0  0
    6.0380    6.5800   18.3790 C   0  0  0  0  0  0  0  0  0  0  0  0
    6.6250    6.5370   16.9970 C   0  0  0  0  0  0  0  0  0  0  0  0
    7.5280    6.6340   18.1930 C   0  0  0  0  0  0  0  0  0  0  0  0
    5.5390    7.5050   18.6600 H   0  0  0  0  0  0  0  0  0  0  0  0
    6.5990    5.6020   16.4510 H   0  0  0  0  0  0  0  0  0  0  0  0
    6.5100    7.4160   16.3750 H   0  0  0  0  0  0  0  0  0  0  0  0
    8.0200    7.5780   18.3900 H   0  0  0  0  0  0  0  0  0  0  0  0
    8.1120    5.7650   18.4700 H   0  0  0  0  0  0  0  0  0  0  0  0
    1.4150    3.3590   21.1310 C   0  0  2  0  0  0  0  0  0  0  0  0
    0.5660    3.7420   21.7180 H   0  0  0  0  0  0  0  0  0  0  0  0
    2.2910    2.5620   22.1090 C   0  0  0  0  0  0  0  0  0  0  0  0
    2.2770    1.4890   21.8920 H   0  0  0  0  0  0  0  0  0  0  0  0
    1.9470    2.6930   23.1410 H   0  0  0  0  0  0  0  0  0  0  0  0
    3.3330    2.9000   22.0670 H   0  0  0  0  0  0  0  0  0  0  0  0
    0.8670    2.4820   19.9860 C   0  0  0  0  0  0  0  0  0  0  0  0
    0.5720    1.5010   20.3840 H   0  0  0  0  0  0  0  0  0  0  0  0
   -0.0470    2.9270   19.5750 H   0  0  0  0  0  0  0  0  0  0  0  0
    1.8760    2.2470   18.9130 C   0  0  0  0  0  0  0  0  0  0  0  0
    2.8190    1.3260   18.9200 N   0  0  0  0  0  0  0  0  0  0  0  0
    3.5390    1.4370   17.7540 N   0  0  0  0  0  0  0  0  0  0  0  0
    3.0190    2.4200   17.0590 C   0  0  0  0  0  0  0  0  0  0  0  0
    1.9740    2.9570   17.7440 N   0  0  0  0  0  0  0  0  0  0  0  0
    3.3560    2.7630   16.0910 H   0  0  0  0  0  0  0  0  0  0  0  0
    1.1530    4.0550   17.3090 C   0  0  0  0  0  0  0  0  0  0  0  0
    1.7890    4.8830   16.9880 H   0  0  0  0  0  0  0  0  0  0  0  0
    0.5270    4.3750   18.1460 H   0  0  0  0  0  0  0  0  0  0  0  0
    0.5370    3.7190   16.4720 H   0  0  0  0  0  0  0  0  0  0  0  0
  1 38  1  0  0  0  0
  2  1  2  0  0  0  0
  3  2  1  0  0  0  0
  4  3  1  0  0  0  0
  4  9  1  0  0  0  0
  5  3  2  0  0  0  0
  5  6  1  0  0  0  0
  6  7  2  0  0  0  0
  7  1  1  0  0  0  0
  7 10  1  0  0  0  0
  8  2  1  0  0  0  0
 11  6  1  0  0  0  0
 11 12  1  0  0  0  0
 12 21  1  0  0  0  0
 12 22  1  0  0  0  0
 13 12  1  0  0  0  0
 13 18  1  0  0  0  0
 14 13  2  0  0  0  0
 15 16  2  0  0  0  0
 15 14  1  0  0  0  0
 16 17  1  0  0  0  0
 17 25  1  0  0  0  0
 17 18  2  0  0  0  0
 18 26  1  0  0  0  0
 19 14  1  0  0  0  0
 19 11  1  0  0  0  0
 20 19  2  0  0  0  0
 23 15  1  0  0  0  0
 24 16  1  0  0  0  0
 26 28  1  0  0  0  0
 26 29  1  0  0  0  0
 26 27  1  0  0  0  0
 30 33  1  0  0  0  0
 30  4  1  0  0  0  0
 31 32  1  0  0  0  0
 31 30  1  0  0  0  0
 32 30  1  0  0  0  0
 32 36  1  0  0  0  0
 32 37  1  0  0  0  0
 34 31  1  0  0  0  0
 35 31  1  0  0  0  0
 38 39  1  1  0  0  0
 38 40  1  0  0  0  0
 40 42  1  0  0  0  0
 41 40  1  0  0  0  0
 43 40  1  0  0  0  0
 44 45  1  0  0  0  0
 44 38  1  0  0  0  0
 46 44  1  0  0  0  0
 47 48  2  0  0  0  0
 47 44  1  0  0  0  0
 49 48  1  0  0  0  0
 50 51  1  0  0  0  0
 50 49  2  0  0  0  0
 51 47  1  0  0  0  0
 52 50  1  0  0  0  0
 53 51  1  0  0  0  0
 53 55  1  0  0  0  0
 54 53  1  0  0  0  0
 56 53  1  0  0  0  0
M  END
>  <MODEL>
18

>  <REMARK>
 VINA RESULT:    -7.070      1.776      4.798
 INTER + INTRA:         -10.119
 INTER:                 -10.218
 INTRA:                   0.099
 UNBOUND:                -0.157
  Name = 
  8 active torsions:
  status: ('A' for Active; 'I' for Inactive)
    1  A    between atoms: C_1  and  C_2
    2  A    between atoms: C_2  and  C_3
    3  A    between atoms: C_2  and  C_10
    4  A    between atoms: C_3  and  C_4
    5  A    between atoms: N_8  and  C_9
    6  A    between atoms: N_13  and  C_14
    7  A    between atoms: C_18  and  N_19
    8  A    between atoms: C_26  and  C_27
                            x       y       z     vdW  Elec       q    Type
                         _______ _______ _______ _____ _____    ______ ____

>  <TORSDO>
F 8

$$$$
=
 OpenBabel07192307433D

 56 60  0  0  1  0  0  0  0  0999 V2000
   -0.1100   12.8400   19.9150 C   0  0  0  0  0  0  0  0  0  0  0  0
   -1.2810   12.8280   19.1530 C   0  0  0  0  0  0  0  0  0  0  0  0
   -1.5610   11.7360   18.3370 C   0  0  0  0  0  0  0  0  0  0  0  0
   -2.7470   11.7720   17.5590 N   0  0  0  0  0  0  0  0  0  0  0  0
   -0.7130   10.6950   18.2310 N   0  0  0  0  0  0  0  0  0  0  0  0
    0.4270   10.6900   18.9610 C   0  0  0  0  0  0  0  0  0  0  0  0
    0.7530   11.7430   19.8070 C   0  0  0  0  0  0  0  0  0  0  0  0
   -1.9710   13.6640   19.1790 H   0  0  0  0  0  0  0  0  0  0  0  0
   -3.5180   12.0490   18.1620 H   0  0  0  0  0  0  0  0  0  0  0  0
    1.6730   11.7360   20.3830 H   0  0  0  0  0  0  0  0  0  0  0  0
    1.2560    9.5630   18.8090 N   0  0  0  0  0  0  0  0  0  0  0  0
    1.0620    8.4110   19.6740 C   0  0  0  0  0  0  0  0  0  0  0  0
    2.1160    7.4590   19.2040 C   0  0  0  0  0  0  0  0  0  0  0  0
    2.8360    8.0390   18.1620 C   0  0  0  0  0  0  0  0  0  0  0  0
    3.8780    7.3930   17.5250 C   0  0  0  0  0  0  0  0  0  0  0  0
    4.2030    6.1090   17.9640 C   0  0  0  0  0  0  0  0  0  0  0  0
    3.4860    5.5090   19.0160 C   0  0  0  0  0  0  0  0  0  0  0  0
    2.4260    6.1790   19.6570 C   0  0  0  0  0  0  0  0  0  0  0  0
    2.2930    9.3810   17.9080 C   0  0  0  0  0  0  0  0  0  0  0  0
    2.7450   10.1150   17.0490 O   0  0  0  0  0  0  0  0  0  0  0  0
    1.2280    8.6960   20.7180 H   0  0  0  0  0  0  0  0  0  0  0  0
    0.0610    7.9940   19.5200 H   0  0  0  0  0  0  0  0  0  0  0  0
    4.4210    7.8720   16.7160 H   0  0  0  0  0  0  0  0  0  0  0  0
    5.0180    5.5670   17.4890 H   0  0  0  0  0  0  0  0  0  0  0  0
    3.7690    4.5060   19.3350 H   0  0  0  0  0  0  0  0  0  0  0  0
    1.6560    5.5490   20.7870 C   0  0  0  0  0  0  0  0  0  0  0  0
    2.4230    4.7840   21.6130 F   0  0  0  0  0  0  0  0  0  0  0  0
    0.6590    4.7370   20.3430 F   0  0  0  0  0  0  0  0  0  0  0  0
    1.0560    6.4770   21.5820 F   0  0  0  0  0  0  0  0  0  0  0  0
   -3.0300   10.6240   16.6900 C   0  0  0  0  0  0  0  0  0  0  0  0
   -2.9090   10.7500   15.1980 C   0  0  0  0  0  0  0  0  0  0  0  0
   -4.2610   10.5810   15.8300 C   0  0  0  0  0  0  0  0  0  0  0  0
   -2.6920    9.6840   17.1220 H   0  0  0  0  0  0  0  0  0  0  0  0
   -2.6580   11.7160   14.7770 H   0  0  0  0  0  0  0  0  0  0  0  0
   -2.4940    9.9090   14.6550 H   0  0  0  0  0  0  0  0  0  0  0  0
   -4.7620    9.6260   15.7250 H   0  0  0  0  0  0  0  0  0  0  0  0
   -4.9310   11.4320   15.8490 H   0  0  0  0  0  0  0  0  0  0  0  0
    0.2630   14.0130   20.8120 C   0  0  2  0  0  0  0  0  0  0  0  0
   -0.4300   14.8400   20.5970 H   0  0  0  0  0  0  0  0  0  0  0  0
    1.6720   14.5370   20.4940 C   0  0  0  0  0  0  0  0  0  0  0  0
    2.3340   14.4900   21.3650 H   0  0  0  0  0  0  0  0  0  0  0  0
    1.6380   15.5810   20.1630 H   0  0  0  0  0  0  0  0  0  0  0  0
    2.1340   13.9540   19.6890 H   0  0  0  0  0  0  0  0  0  0  0  0
    0.1080   13.6120   22.2940 C   0  0  0  0  0  0  0  0  0  0  0  0
    0.7070   12.7140   22.4960 H   0  0  0  0  0  0  0  0  0  0  0  0
    0.5150   14.3970   22.9410 H   0  0  0  0  0  0  0  0  0  0  0  0
   -1.3050   13.3010   22.6560 C   0  0  0  0  0  0  0  0  0  0  0  0
   -2.3030   14.1610   22.7070 N   0  0  0  0  0  0  0  0  0  0  0  0
   -3.4390   13.4830   23.0810 N   0  0  0  0  0  0  0  0  0  0  0  0
   -3.1120   12.2240   23.2470 C   0  0  0  0  0  0  0  0  0  0  0  0
   -1.7860   12.0610   22.9910 N   0  0  0  0  0  0  0  0  0  0  0  0
   -3.7810   11.4260   23.5410 H   0  0  0  0  0  0  0  0  0  0  0  0
   -1.0560   10.8250   23.0680 C   0  0  0  0  0  0  0  0  0  0  0  0
   -0.9160   10.5470   24.1150 H   0  0  0  0  0  0  0  0  0  0  0  0
   -0.0830   10.9640   22.5910 H   0  0  0  0  0  0  0  0  0  0  0  0
   -1.6300   10.0490   22.5560 H   0  0  0  0  0  0  0  0  0  0  0  0
  1 38  1  0  0  0  0
  2  8  1  0  0  0  0
  2  1  2  0  0  0  0
  3  2  1  0  0  0  0
  4  9  1  0  0  0  0
  4  3  1  0  0  0  0
  5  3  2  0  0  0  0
  5  6  1  0  0  0  0
  6  7  2  0  0  0  0
  7  1  1  0  0  0  0
  7 10  1  0  0  0  0
 11  6  1  0  0  0  0
 11 12  1  0  0  0  0
 12 21  1  0  0  0  0
 13 18  1  0  0  0  0
 13 12  1  0  0  0  0
 14 13  2  0  0  0  0
 15 16  2  0  0  0  0
 15 14  1  0  0  0  0
 16 17  1  0  0  0  0
 17 25  1  0  0  0  0
 17 18  2  0  0  0  0
 18 26  1  0  0  0  0
 19 14  1  0  0  0  0
 19 11  1  0  0  0  0
 20 19  2  0  0  0  0
 22 12  1  0  0  0  0
 23 15  1  0  0  0  0
 24 16  1  0  0  0  0
 26 29  1  0  0  0  0
 26 27  1  0  0  0  0
 28 26  1  0  0  0  0
 30 33  1  0  0  0  0
 30  4  1  0  0  0  0
 31 32  1  0  0  0  0
 31 30  1  0  0  0  0
 32 37  1  0  0  0  0
 32 30  1  0  0  0  0
 34 31  1  0  0  0  0
 35 31  1  0  0  0  0
 36 32  1  0  0  0  0
 38 39  1  6  0  0  0
 38 44  1  0  0  0  0
 40 38  1  0  0  0  0
 40 41  1  0  0  0  0
 42 40  1  0  0  0  0
 43 40  1  0  0  0  0
 44 45  1  0  0  0  0
 44 47  1  0  0  0  0
 44 46  1  0  0  0  0
 47 48  2  0  0  0  0
 47 51  1  0  0  0  0
 48 49  1  0  0  0  0
 49 50  2  0  0  0  0
 50 52  1  0  0  0  0
 51 53  1  0  0  0  0
 51 50  1  0  0  0  0
 53 54  1  0  0  0  0
 55 53  1  0  0  0  0
 56 53  1  0  0  0  0
M  END
>  <MODEL>
19

>  <REMARK>
 VINA RESULT:    -7.051      3.682      8.552
 INTER + INTRA:         -10.093
 INTER:                  -8.999
 INTRA:                  -1.094
 UNBOUND:                -0.157
  Name = 
  8 active torsions:
  status: ('A' for Active; 'I' for Inactive)
    1  A    between atoms: C_1  and  C_2
    2  A    between atoms: C_2  and  C_3
    3  A    between atoms: C_2  and  C_10
    4  A    between atoms: C_3  and  C_4
    5  A    between atoms: N_8  and  C_9
    6  A    between atoms: N_13  and  C_14
    7  A    between atoms: C_18  and  N_19
    8  A    between atoms: C_26  and  C_27
                            x       y       z     vdW  Elec       q    Type
                         _______ _______ _______ _____ _____    ______ ____

>  <TORSDO>
F 8

$$$$
=
 OpenBabel07192307433D

 56 60  0  0  1  0  0  0  0  0999 V2000
    1.3490    8.9910   19.2920 C   0  0  0  0  0  0  0  0  0  0  0  0
    2.0300    9.9380   18.5220 C   0  0  0  0  0  0  0  0  0  0  0  0
    1.7260   11.2890   18.6620 C   0  0  0  0  0  0  0  0  0  0  0  0
    2.4200   12.2160   17.8440 N   0  0  0  0  0  0  0  0  0  0  0  0
    0.7610   11.7140   19.5010 N   0  0  0  0  0  0  0  0  0  0  0  0
    0.0910   10.8120   20.2550 C   0  0  0  0  0  0  0  0  0  0  0  0
    0.3610    9.4510   20.1730 C   0  0  0  0  0  0  0  0  0  0  0  0
    2.7840    9.6330   17.8060 H   0  0  0  0  0  0  0  0  0  0  0  0
    3.4140   12.0060   17.8930 H   0  0  0  0  0  0  0  0  0  0  0  0
   -0.1860    8.7330   20.7740 H   0  0  0  0  0  0  0  0  0  0  0  0
   -0.8910   11.3320   21.1180 N   0  0  0  0  0  0  0  0  0  0  0  0
   -1.7990   12.3580   20.6320 C   0  0  0  0  0  0  0  0  0  0  0  0
   -2.6600   12.6350   21.8240 C   0  0  0  0  0  0  0  0  0  0  0  0
   -2.2590   11.8260   22.8850 C   0  0  0  0  0  0  0  0  0  0  0  0
   -2.8720   11.8600   24.1230 C   0  0  0  0  0  0  0  0  0  0  0  0
   -3.9320   12.7530   24.2900 C   0  0  0  0  0  0  0  0  0  0  0  0
   -4.3490   13.5780   23.2290 C   0  0  0  0  0  0  0  0  0  0  0  0
   -3.7140   13.5320   21.9720 C   0  0  0  0  0  0  0  0  0  0  0  0
   -1.1300   10.9950   22.4420 C   0  0  0  0  0  0  0  0  0  0  0  0
   -0.5790   10.1980   23.1760 O   0  0  0  0  0  0  0  0  0  0  0  0
   -1.2330   13.2490   20.3410 H   0  0  0  0  0  0  0  0  0  0  0  0
   -2.3940   11.9660   19.8010 H   0  0  0  0  0  0  0  0  0  0  0  0
   -2.5370   11.2180   24.9310 H   0  0  0  0  0  0  0  0  0  0  0  0
   -4.4420   12.8100   25.2500 H   0  0  0  0  0  0  0  0  0  0  0  0
   -5.1790   14.2640   23.3950 H   0  0  0  0  0  0  0  0  0  0  0  0
   -4.1480   14.4130   20.8310 C   0  0  0  0  0  0  0  0  0  0  0  0
   -4.6120   13.7240   19.7530 F   0  0  0  0  0  0  0  0  0  0  0  0
   -3.1360   15.1970   20.3690 F   0  0  0  0  0  0  0  0  0  0  0  0
   -5.1470   15.2670   21.1900 F   0  0  0  0  0  0  0  0  0  0  0  0
    2.0860   13.6380   17.9870 C   0  0  0  0  0  0  0  0  0  0  0  0
    3.1380   14.6920   17.7870 C   0  0  0  0  0  0  0  0  0  0  0  0
    2.5770   14.4420   19.1570 C   0  0  0  0  0  0  0  0  0  0  0  0
    1.0940   13.8710   17.6040 H   0  0  0  0  0  0  0  0  0  0  0  0
    4.1550   14.3780   17.5860 H   0  0  0  0  0  0  0  0  0  0  0  0
    2.8470   15.6020   17.2770 H   0  0  0  0  0  0  0  0  0  0  0  0
    1.8990   15.1760   19.5760 H   0  0  0  0  0  0  0  0  0  0  0  0
    3.2050   13.9510   19.8900 H   0  0  0  0  0  0  0  0  0  0  0  0
    1.6210    7.4980   19.1720 C   0  0  2  0  0  0  0  0  0  0  0  0
    0.7120    7.0160   18.7830 H   0  0  0  0  0  0  0  0  0  0  0  0
    1.8920    6.8650   20.5450 C   0  0  0  0  0  0  0  0  0  0  0  0
    2.1780    7.6130   21.2930 H   0  0  0  0  0  0  0  0  0  0  0  0
    2.7040    6.1310   20.4870 H   0  0  0  0  0  0  0  0  0  0  0  0
    1.0040    6.3400   20.9170 H   0  0  0  0  0  0  0  0  0  0  0  0
    2.7740    7.2530   18.1760 C   0  0  0  0  0  0  0  0  0  0  0  0
    2.3760    7.2280   17.1520 H   0  0  0  0  0  0  0  0  0  0  0  0
    3.4800    8.0900   18.2040 H   0  0  0  0  0  0  0  0  0  0  0  0
    3.4720    5.9570   18.4180 C   0  0  0  0  0  0  0  0  0  0  0  0
    4.6970    5.8080   18.8820 N   0  0  0  0  0  0  0  0  0  0  0  0
    4.9680    4.4630   18.9600 N   0  0  0  0  0  0  0  0  0  0  0  0
    3.9040    3.8190   18.5450 C   0  0  0  0  0  0  0  0  0  0  0  0
    2.9400    4.7130   18.1970 N   0  0  0  0  0  0  0  0  0  0  0  0
    3.7930    2.7450   18.4840 H   0  0  0  0  0  0  0  0  0  0  0  0
    1.6320    4.3920   17.6930 C   0  0  0  0  0  0  0  0  0  0  0  0
    0.8980    5.0880   18.1070 H   0  0  0  0  0  0  0  0  0  0  0  0
    1.3830    3.3720   17.9950 H   0  0  0  0  0  0  0  0  0  0  0  0
    1.6470    4.4790   16.6040 H   0  0  0  0  0  0  0  0  0  0  0  0
  1  7  1  0  0  0  0
  2  3  1  0  0  0  0
  2  1  2  0  0  0  0
  3  5  2  0  0  0  0
  4  9  1  0  0  0  0
  4 30  1  0  0  0  0
  4  3  1  0  0  0  0
  5  6  1  0  0  0  0
  6 11  1  0  0  0  0
  7  6  2  0  0  0  0
  7 10  1  0  0  0  0
  8  2  1  0  0  0  0
 11 19  1  0  0  0  0
 12 11  1  0  0  0  0
 12 13  1  0  0  0  0
 13 18  2  0  0  0  0
 13 14  1  0  0  0  0
 14 15  2  0  0  0  0
 15 16  1  0  0  0  0
 15 23  1  0  0  0  0
 16 24  1  0  0  0  0
 17 25  1  0  0  0  0
 17 16  2  0  0  0  0
 18 17  1  0  0  0  0
 19 14  1  0  0  0  0
 19 20  2  0  0  0  0
 21 12  1  0  0  0  0
 22 12  1  0  0  0  0
 26 29  1  0  0  0  0
 26 18  1  0  0  0  0
 27 26  1  0  0  0  0
 28 26  1  0  0  0  0
 30 32  1  0  0  0  0
 31 30  1  0  0  0  0
 31 32  1  0  0  0  0
 32 36  1  0  0  0  0
 32 37  1  0  0  0  0
 33 30  1  0  0  0  0
 34 31  1  0  0  0  0
 35 31  1  0  0  0  0
 38 39  1  6  0  0  0
 38  1  1  0  0  0  0
 38 40  1  0  0  0  0
 40 43  1  0  0  0  0
 40 41  1  0  0  0  0
 42 40  1  0  0  0  0
 44 46  1  0  0  0  0
 44 47  1  0  0  0  0
 44 38  1  0  0  0  0
 45 44  1  0  0  0  0
 47 48  2  0  0  0  0
 48 49  1  0  0  0  0
 50 49  2  0  0  0  0
 51 47  1  0  0  0  0
 51 50  1  0  0  0  0
 52 50  1  0  0  0  0
 53 55  1  0  0  0  0
 53 54  1  0  0  0  0
 53 51  1  0  0  0  0
 56 53  1  0  0  0  0
M  END
>  <MODEL>
20

>  <REMARK>
 VINA RESULT:    -6.757      3.629      6.735
 INTER + INTRA:          -9.679
 INTER:                  -8.937
 INTRA:                  -0.742
 UNBOUND:                -0.157
  Name = 
  8 active torsions:
  status: ('A' for Active; 'I' for Inactive)
    1  A    between atoms: C_1  and  C_2
    2  A    between atoms: C_2  and  C_3
    3  A    between atoms: C_2  and  C_10
    4  A    between atoms: C_3  and  C_4
    5  A    between atoms: N_8  and  C_9
    6  A    between atoms: N_13  and  C_14
    7  A    between atoms: C_18  and  N_19
    8  A    between atoms: C_26  and  C_27
                            x       y       z     vdW  Elec       q    Type
                         _______ _______ _______ _____ _____    ______ ____

>  <TORSDO>
F 8

$$$$
=
 OpenBabel07192307433D

 56 60  0  0  1  0  0  0  0  0999 V2000
   -1.3000   12.0160   20.1960 C   0  0  0  0  0  0  0  0  0  0  0  0
   -0.4790   13.0810   20.5780 C   0  0  0  0  0  0  0  0  0  0  0  0
    0.9040   12.9480   20.4970 C   0  0  0  0  0  0  0  0  0  0  0  0
    1.7030   14.0410   20.9180 N   0  0  0  0  0  0  0  0  0  0  0  0
    1.4820   11.8010   20.0900 N   0  0  0  0  0  0  0  0  0  0  0  0
    0.7030   10.7590   19.7160 C   0  0  0  0  0  0  0  0  0  0  0  0
   -0.6840   10.8370   19.7580 C   0  0  0  0  0  0  0  0  0  0  0  0
   -0.9050   14.0060   20.9490 H   0  0  0  0  0  0  0  0  0  0  0  0
    1.3410   14.8880   20.4880 H   0  0  0  0  0  0  0  0  0  0  0  0
   -1.3030    9.9960   19.4660 H   0  0  0  0  0  0  0  0  0  0  0  0
    1.3790    9.6010   19.2900 N   0  0  0  0  0  0  0  0  0  0  0  0
    1.2090    8.3610   20.0290 C   0  0  0  0  0  0  0  0  0  0  0  0
    2.0730    7.4010   19.2740 C   0  0  0  0  0  0  0  0  0  0  0  0
    2.6730    8.0590   18.2020 C   0  0  0  0  0  0  0  0  0  0  0  0
    3.5310    7.4250   17.3230 C   0  0  0  0  0  0  0  0  0  0  0  0
    3.7900    6.0710   17.5420 C   0  0  0  0  0  0  0  0  0  0  0  0
    3.1920    5.3920   18.6200 C   0  0  0  0  0  0  0  0  0  0  0  0
    2.3200    6.0510   19.5090 C   0  0  0  0  0  0  0  0  0  0  0  0
    2.2360    9.4620   18.2090 C   0  0  0  0  0  0  0  0  0  0  0  0
    2.6180   10.2680   17.3820 O   0  0  0  0  0  0  0  0  0  0  0  0
    1.5670    8.4870   21.0550 H   0  0  0  0  0  0  0  0  0  0  0  0
    0.1590    8.0510   19.9990 H   0  0  0  0  0  0  0  0  0  0  0  0
    3.9840    7.9650   16.4980 H   0  0  0  0  0  0  0  0  0  0  0  0
    4.4600    5.5360   16.8720 H   0  0  0  0  0  0  0  0  0  0  0  0
    3.4180    4.3360   18.7620 H   0  0  0  0  0  0  0  0  0  0  0  0
    1.6800    5.3360   20.6680 C   0  0  0  0  0  0  0  0  0  0  0  0
    2.5680    4.6770   21.4630 F   0  0  0  0  0  0  0  0  0  0  0  0
    0.7740    4.4050   20.2650 F   0  0  0  0  0  0  0  0  0  0  0  0
    1.0020    6.1870   21.4870 F   0  0  0  0  0  0  0  0  0  0  0  0
    3.1610   13.8900   20.8440 C   0  0  0  0  0  0  0  0  0  0  0  0
    4.0500   14.5660   21.8490 C   0  0  0  0  0  0  0  0  0  0  0  0
    4.0440   15.0300   20.4210 C   0  0  0  0  0  0  0  0  0  0  0  0
    3.4600   12.8900   20.5350 H   0  0  0  0  0  0  0  0  0  0  0  0
    3.5950   15.2050   22.5970 H   0  0  0  0  0  0  0  0  0  0  0  0
    4.9160   14.0190   22.2020 H   0  0  0  0  0  0  0  0  0  0  0  0
    4.9000   14.7940   19.8000 H   0  0  0  0  0  0  0  0  0  0  0  0
    3.5790   15.9810   20.1900 H   0  0  0  0  0  0  0  0  0  0  0  0
   -2.8190   12.0920   20.2790 C   0  0  2  0  0  0  0  0  0  0  0  0
   -3.1690   11.2500   20.8950 H   0  0  0  0  0  0  0  0  0  0  0  0
   -3.4660   11.9120   18.8970 C   0  0  0  0  0  0  0  0  0  0  0  0
   -2.7180   11.7670   18.1090 H   0  0  0  0  0  0  0  0  0  0  0  0
   -4.0630   12.7890   18.6250 H   0  0  0  0  0  0  0  0  0  0  0  0
   -4.1360   11.0450   18.8870 H   0  0  0  0  0  0  0  0  0  0  0  0
   -3.2440   13.4110   20.9570 C   0  0  0  0  0  0  0  0  0  0  0  0
   -2.3710   14.0720   21.0520 H   0  0  0  0  0  0  0  0  0  0  0  0
   -3.9590   13.9470   20.3230 H   0  0  0  0  0  0  0  0  0  0  0  0
   -3.7980   13.1970   22.3250 C   0  0  0  0  0  0  0  0  0  0  0  0
   -4.9860   12.7060   22.6150 N   0  0  0  0  0  0  0  0  0  0  0  0
   -5.1160   12.6710   23.9830 N   0  0  0  0  0  0  0  0  0  0  0  0
   -4.0050   13.1370   24.4990 C   0  0  0  0  0  0  0  0  0  0  0  0
   -3.1480   13.4780   23.4990 N   0  0  0  0  0  0  0  0  0  0  0  0
   -3.7860   13.2400   25.5530 H   0  0  0  0  0  0  0  0  0  0  0  0
   -1.8300   14.0290   23.6670 C   0  0  0  0  0  0  0  0  0  0  0  0
   -1.2780   13.4410   24.4040 H   0  0  0  0  0  0  0  0  0  0  0  0
   -1.9250   15.0600   24.0150 H   0  0  0  0  0  0  0  0  0  0  0  0
   -1.3130   13.9920   22.7050 H   0  0  0  0  0  0  0  0  0  0  0  0
  1 38  1  0  0  0  0
  1  2  1  0  0  0  0
  2  8  1  0  0  0  0
  3  2  2  0  0  0  0
  3  4  1  0  0  0  0
  5  3  1  0  0  0  0
  6  7  1  0  0  0  0
  6  5  2  0  0  0  0
  7  1  2  0  0  0  0
  9  4  1  0  0  0  0
 10  7  1  0  0  0  0
 11  6  1  0  0  0  0
 11 12  1  0  0  0  0
 12 21  1  0  0  0  0
 13 18  1  0  0  0  0
 13 12  1  0  0  0  0
 14 19  1  0  0  0  0
 14 13  2  0  0  0  0
 15 16  2  0  0  0  0
 15 14  1  0  0  0  0
 16 17  1  0  0  0  0
 17 25  1  0  0  0  0
 17 18  2  0  0  0  0
 18 26  1  0  0  0  0
 19 11  1  0  0  0  0
 20 19  2  0  0  0  0
 22 12  1  0  0  0  0
 23 15  1  0  0  0  0
 24 16  1  0  0  0  0
 26 27  1  0  0  0  0
 26 29  1  0  0  0  0
 28 26  1  0  0  0  0
 30  4  1  0  0  0  0
 30 31  1  0  0  0  0
 31 35  1  0  0  0  0
 31 34  1  0  0  0  0
 32 30  1  0  0  0  0
 32 31  1  0  0  0  0
 33 30  1  0  0  0  0
 36 32  1  0  0  0  0
 37 32  1  0  0  0  0
 38 39  1  1  0  0  0
 38 44  1  0  0  0  0
 40 38  1  0  0  0  0
 41 40  1  0  0  0  0
 42 40  1  0  0  0  0
 43 40  1  0  0  0  0
 44 45  1  0  0  0  0
 44 47  1  0  0  0  0
 46 44  1  0  0  0  0
 47 48  2  0  0  0  0
 47 51  1  0  0  0  0
 48 49  1  0  0  0  0
 49 50  2  0  0  0  0
 50 52  1  0  0  0  0
 51 53  1  0  0  0  0
 51 50  1  0  0  0  0
 53 55  1  0  0  0  0
 53 54  1  0  0  0  0
 56 53  1  0  0  0  0
M  END
>  <MODEL>
21

>  <REMARK>
 VINA RESULT:    -6.687      4.130      9.271
 INTER + INTRA:          -9.580
 INTER:                  -8.854
 INTRA:                  -0.725
 UNBOUND:                -0.157
  Name = 
  8 active torsions:
  status: ('A' for Active; 'I' for Inactive)
    1  A    between atoms: C_1  and  C_2
    2  A    between atoms: C_2  and  C_3
    3  A    between atoms: C_2  and  C_10
    4  A    between atoms: C_3  and  C_4
    5  A    between atoms: N_8  and  C_9
    6  A    between atoms: N_13  and  C_14
    7  A    between atoms: C_18  and  N_19
    8  A    between atoms: C_26  and  C_27
                            x       y       z     vdW  Elec       q    Type
                         _______ _______ _______ _____ _____    ______ ____

>  <TORSDO>
F 8

$$$$
=
 OpenBabel07192307433D

 56 60  0  0  1  0  0  0  0  0999 V2000
    0.7560   11.7850   19.7610 C   0  0  0  0  0  0  0  0  0  0  0  0
   -0.3620   11.9010   18.9310 C   0  0  0  0  0  0  0  0  0  0  0  0
   -0.7050   10.8500   18.0850 C   0  0  0  0  0  0  0  0  0  0  0  0
   -1.8320   11.0170   17.2390 N   0  0  0  0  0  0  0  0  0  0  0  0
    0.0340    9.7260   18.0170 N   0  0  0  0  0  0  0  0  0  0  0  0
    1.1210    9.5960   18.8130 C   0  0  0  0  0  0  0  0  0  0  0  0
    1.5040   10.6030   19.6910 C   0  0  0  0  0  0  0  0  0  0  0  0
   -0.9600   12.8050   18.9270 H   0  0  0  0  0  0  0  0  0  0  0  0
   -2.6040   11.3690   17.7990 H   0  0  0  0  0  0  0  0  0  0  0  0
    2.3810   10.4950   20.3200 H   0  0  0  0  0  0  0  0  0  0  0  0
    1.8340    8.3890   18.6960 N   0  0  0  0  0  0  0  0  0  0  0  0
    1.5710    7.3090   19.6320 C   0  0  0  0  0  0  0  0  0  0  0  0
    2.5120    6.2370   19.1790 C   0  0  0  0  0  0  0  0  0  0  0  0
    3.2380    6.6900   18.0790 C   0  0  0  0  0  0  0  0  0  0  0  0
    4.1880    5.9140   17.4420 C   0  0  0  0  0  0  0  0  0  0  0  0
    4.4110    4.6310   17.9430 C   0  0  0  0  0  0  0  0  0  0  0  0
    3.6870    4.1590   19.0540 C   0  0  0  0  0  0  0  0  0  0  0  0
    2.7220    4.9600   19.6940 C   0  0  0  0  0  0  0  0  0  0  0  0
    2.8110    8.0610   17.7680 C   0  0  0  0  0  0  0  0  0  0  0  0
    3.2920    8.7020   16.8530 O   0  0  0  0  0  0  0  0  0  0  0  0
    1.8070    7.6330   20.6510 H   0  0  0  0  0  0  0  0  0  0  0  0
    0.5310    6.9810   19.5400 H   0  0  0  0  0  0  0  0  0  0  0  0
    4.7380    6.2950   16.5880 H   0  0  0  0  0  0  0  0  0  0  0  0
    5.1510    3.9890   17.4700 H   0  0  0  0  0  0  0  0  0  0  0  0
    3.8880    3.1520   19.4200 H   0  0  0  0  0  0  0  0  0  0  0  0
    1.9450    4.4680   20.8860 C   0  0  0  0  0  0  0  0  0  0  0  0
    2.2980    3.2160   21.2910 F   0  0  0  0  0  0  0  0  0  0  0  0
    0.6060    4.4210   20.6480 F   0  0  0  0  0  0  0  0  0  0  0  0
    2.1030    5.2730   21.9730 F   0  0  0  0  0  0  0  0  0  0  0  0
   -2.1810    9.9110   16.3400 C   0  0  0  0  0  0  0  0  0  0  0  0
   -2.7460   10.1870   14.9750 C   0  0  0  0  0  0  0  0  0  0  0  0
   -3.6130    9.5730   16.0370 C   0  0  0  0  0  0  0  0  0  0  0  0
   -1.4790    9.0820   16.4100 H   0  0  0  0  0  0  0  0  0  0  0  0
   -2.9370   11.2150   14.6910 H   0  0  0  0  0  0  0  0  0  0  0  0
   -2.4180    9.5550   14.1590 H   0  0  0  0  0  0  0  0  0  0  0  0
   -3.8690    8.5240   15.9480 H   0  0  0  0  0  0  0  0  0  0  0  0
   -4.3890   10.1810   16.4840 H   0  0  0  0  0  0  0  0  0  0  0  0
    1.1950   12.9050   20.6940 C   0  0  2  0  0  0  0  0  0  0  0  0
    2.1840   12.6440   21.0990 H   0  0  0  0  0  0  0  0  0  0  0  0
    0.2530   13.0310   21.9020 C   0  0  0  0  0  0  0  0  0  0  0  0
    0.7550   13.4730   22.7690 H   0  0  0  0  0  0  0  0  0  0  0  0
   -0.1270   12.0490   22.2070 H   0  0  0  0  0  0  0  0  0  0  0  0
   -0.6140   13.6550   21.6590 H   0  0  0  0  0  0  0  0  0  0  0  0
    1.3180   14.2270   19.9070 C   0  0  0  0  0  0  0  0  0  0  0  0
    0.6270   14.2110   19.0530 H   0  0  0  0  0  0  0  0  0  0  0  0
    1.0020   15.0690   20.5340 H   0  0  0  0  0  0  0  0  0  0  0  0
    2.6920   14.4460   19.3700 C   0  0  0  0  0  0  0  0  0  0  0  0
    3.0260   14.5280   18.0980 N   0  0  0  0  0  0  0  0  0  0  0  0
    4.3840   14.7330   18.0210 N   0  0  0  0  0  0  0  0  0  0  0  0
    4.8480   14.7750   19.2460 C   0  0  0  0  0  0  0  0  0  0  0  0
    3.8260   14.6020   20.1260 N   0  0  0  0  0  0  0  0  0  0  0  0
    5.8810   14.9240   19.5300 H   0  0  0  0  0  0  0  0  0  0  0  0
    3.9380   14.5830   21.5590 C   0  0  0  0  0  0  0  0  0  0  0  0
    3.0930   14.0380   21.9860 H   0  0  0  0  0  0  0  0  0  0  0  0
    3.9330   15.6130   21.9230 H   0  0  0  0  0  0  0  0  0  0  0  0
    4.8720   14.0830   21.8290 H   0  0  0  0  0  0  0  0  0  0  0  0
  1 38  1  0  0  0  0
  2  1  2  0  0  0  0
  3  2  1  0  0  0  0
  4  9  1  0  0  0  0
  4  3  1  0  0  0  0
  5  3  2  0  0  0  0
  5  6  1  0  0  0  0
  6  7  2  0  0  0  0
  7  1  1  0  0  0  0
  7 10  1  0  0  0  0
  8  2  1  0  0  0  0
 11  6  1  0  0  0  0
 11 12  1  0  0  0  0
 12 21  1  0  0  0  0
 13 12  1  0  0  0  0
 13 18  1  0  0  0  0
 14 13  2  0  0  0  0
 15 16  2  0  0  0  0
 15 14  1  0  0  0  0
 16 17  1  0  0  0  0
 17 25  1  0  0  0  0
 17 18  2  0  0  0  0
 18 26  1  0  0  0  0
 19 14  1  0  0  0  0
 19 11  1  0  0  0  0
 20 19  2  0  0  0  0
 22 12  1  0  0  0  0
 23 15  1  0  0  0  0
 24 16  1  0  0  0  0
 26 27  1  0  0  0  0
 26 29  1  0  0  0  0
 28 26  1  0  0  0  0
 30 33  1  0  0  0  0
 30  4  1  0  0  0  0
 31 32  1  0  0  0  0
 31 30  1  0  0  0  0
 32 30  1  0  0  0  0
 32 37  1  0  0  0  0
 34 31  1  0  0  0  0
 35 31  1  0  0  0  0
 36 32  1  0  0  0  0
 38 39  1  1  0  0  0
 38 40  1  0  0  0  0
 40 42  1  0  0  0  0
 40 41  1  0  0  0  0
 43 40  1  0  0  0  0
 44 46  1  0  0  0  0
 44 38  1  0  0  0  0
 45 44  1  0  0  0  0
 47 44  1  0  0  0  0
 47 51  1  0  0  0  0
 48 47  2  0  0  0  0
 49 48  1  0  0  0  0
 49 50  2  0  0  0  0
 50 52  1  0  0  0  0
 50 51  1  0  0  0  0
 51 53  1  0  0  0  0
 53 56  1  0  0  0  0
 53 55  1  0  0  0  0
 53 54  1  0  0  0  0
M  END
>  <MODEL>
22

>  <REMARK>
 VINA RESULT:    -6.680      3.584      7.448
 INTER + INTRA:          -9.570
 INTER:                  -8.428
 INTRA:                  -1.142
 UNBOUND:                -0.157
  Name = 
  8 active torsions:
  status: ('A' for Active; 'I' for Inactive)
    1  A    between atoms: C_1  and  C_2
    2  A    between atoms: C_2  and  C_3
    3  A    between atoms: C_2  and  C_10
    4  A    between atoms: C_3  and  C_4
    5  A    between atoms: N_8  and  C_9
    6  A    between atoms: N_13  and  C_14
    7  A    between atoms: C_18  and  N_19
    8  A    between atoms: C_26  and  C_27
                            x       y       z     vdW  Elec       q    Type
                         _______ _______ _______ _____ _____    ______ ____

>  <TORSDO>
F 8

$$$$
=
 OpenBabel07192307433D

 56 60  0  0  1  0  0  0  0  0999 V2000
    2.7670    4.6020   17.6810 C   0  0  0  0  0  0  0  0  0  0  0  0
    4.1260    4.7790   17.4030 C   0  0  0  0  0  0  0  0  0  0  0  0
    4.7570    5.9620   17.7720 C   0  0  0  0  0  0  0  0  0  0  0  0
    6.1300    6.1140   17.4500 N   0  0  0  0  0  0  0  0  0  0  0  0
    4.0840    6.9680   18.3660 N   0  0  0  0  0  0  0  0  0  0  0  0
    2.7680    6.8150   18.6420 C   0  0  0  0  0  0  0  0  0  0  0  0
    2.0860    5.6490   18.3130 C   0  0  0  0  0  0  0  0  0  0  0  0
    4.6930    4.0100   16.8910 H   0  0  0  0  0  0  0  0  0  0  0  0
    6.6220    5.2720   17.7390 H   0  0  0  0  0  0  0  0  0  0  0  0
    1.0300    5.5370   18.5300 H   0  0  0  0  0  0  0  0  0  0  0  0
    2.1370    7.9020   19.2750 N   0  0  0  0  0  0  0  0  0  0  0  0
    2.2270    9.2250   18.6810 C   0  0  0  0  0  0  0  0  0  0  0  0
    1.4490   10.0740   19.6370 C   0  0  0  0  0  0  0  0  0  0  0  0
    0.9670    9.2820   20.6770 C   0  0  0  0  0  0  0  0  0  0  0  0
    0.2100    9.7920   21.7140 C   0  0  0  0  0  0  0  0  0  0  0  0
   -0.0660   11.1590   21.6960 C   0  0  0  0  0  0  0  0  0  0  0  0
    0.4130   11.9740   20.6530 C   0  0  0  0  0  0  0  0  0  0  0  0
    1.1840   11.4400   19.6020 C   0  0  0  0  0  0  0  0  0  0  0  0
    1.4050    7.8970   20.4520 C   0  0  0  0  0  0  0  0  0  0  0  0
    1.1280    6.9930   21.2190 O   0  0  0  0  0  0  0  0  0  0  0  0
    3.2730    9.5440   18.6360 H   0  0  0  0  0  0  0  0  0  0  0  0
    1.7600    9.2210   17.6910 H   0  0  0  0  0  0  0  0  0  0  0  0
   -0.1500    9.1490   22.5110 H   0  0  0  0  0  0  0  0  0  0  0  0
   -0.6590   11.5990   22.4950 H   0  0  0  0  0  0  0  0  0  0  0  0
    0.1790   13.0380   20.6720 H   0  0  0  0  0  0  0  0  0  0  0  0
    1.7060   12.3030   18.4840 C   0  0  0  0  0  0  0  0  0  0  0  0
    2.2590   11.5970   17.4600 F   0  0  0  0  0  0  0  0  0  0  0  0
    2.6680   13.1690   18.9050 F   0  0  0  0  0  0  0  0  0  0  0  0
    0.7300   13.0720   17.9270 F   0  0  0  0  0  0  0  0  0  0  0  0
    6.7860    7.3700   17.8310 C   0  0  0  0  0  0  0  0  0  0  0  0
    8.0160    7.8380   17.1040 C   0  0  0  0  0  0  0  0  0  0  0  0
    8.1170    7.3760   18.5290 C   0  0  0  0  0  0  0  0  0  0  0  0
    6.0740    8.1420   18.1140 H   0  0  0  0  0  0  0  0  0  0  0  0
    8.4330    7.2050   16.3300 H   0  0  0  0  0  0  0  0  0  0  0  0
    8.1090    8.8990   16.9060 H   0  0  0  0  0  0  0  0  0  0  0  0
    8.2710    8.1200   19.3010 H   0  0  0  0  0  0  0  0  0  0  0  0
    8.5950    6.4250   18.7300 H   0  0  0  0  0  0  0  0  0  0  0  0
    2.0150    3.3380   17.2850 C   0  0  2  0  0  0  0  0  0  0  0  0
    2.2440    3.1220   16.2300 H   0  0  0  0  0  0  0  0  0  0  0  0
    0.4940    3.5430   17.3640 C   0  0  0  0  0  0  0  0  0  0  0  0
   -0.0570    2.6590   17.0270 H   0  0  0  0  0  0  0  0  0  0  0  0
    0.1790    4.3860   16.7380 H   0  0  0  0  0  0  0  0  0  0  0  0
    0.1810    3.7640   18.3900 H   0  0  0  0  0  0  0  0  0  0  0  0
    2.4920    2.1510   18.1460 C   0  0  0  0  0  0  0  0  0  0  0  0
    1.9380    1.2450   17.8630 H   0  0  0  0  0  0  0  0  0  0  0  0
    3.5460    1.9350   17.9390 H   0  0  0  0  0  0  0  0  0  0  0  0
    2.2700    2.3760   19.6040 C   0  0  0  0  0  0  0  0  0  0  0  0
    1.1060    2.5590   20.1940 N   0  0  0  0  0  0  0  0  0  0  0  0
    1.3270    2.7320   21.5400 N   0  0  0  0  0  0  0  0  0  0  0  0
    2.6200    2.6470   21.7430 C   0  0  0  0  0  0  0  0  0  0  0  0
    3.2520    2.4240   20.5600 N   0  0  0  0  0  0  0  0  0  0  0  0
    3.1210    2.7380   22.6970 H   0  0  0  0  0  0  0  0  0  0  0  0
    4.6700    2.2760   20.3740 C   0  0  0  0  0  0  0  0  0  0  0  0
    4.9100    2.3530   19.3110 H   0  0  0  0  0  0  0  0  0  0  0  0
    4.9700    1.2940   20.7490 H   0  0  0  0  0  0  0  0  0  0  0  0
    5.1780    3.0710   20.9250 H   0  0  0  0  0  0  0  0  0  0  0  0
  1  7  1  0  0  0  0
  2  1  2  0  0  0  0
  2  3  1  0  0  0  0
  3  5  2  0  0  0  0
  4  9  1  0  0  0  0
  4  3  1  0  0  0  0
  4 30  1  0  0  0  0
  5  6  1  0  0  0  0
  6 11  1  0  0  0  0
  7 10  1  0  0  0  0
  7  6  2  0  0  0  0
  8  2  1  0  0  0  0
 11 19  1  0  0  0  0
 12 11  1  0  0  0  0
 12 13  1  0  0  0  0
 13 14  1  0  0  0  0
 14 15  2  0  0  0  0
 15 23  1  0  0  0  0
 16 15  1  0  0  0  0
 16 24  1  0  0  0  0
 17 25  1  0  0  0  0
 17 16  2  0  0  0  0
 18 13  2  0  0  0  0
 18 17  1  0  0  0  0
 19 14  1  0  0  0  0
 19 20  2  0  0  0  0
 21 12  1  0  0  0  0
 22 12  1  0  0  0  0
 26 28  1  0  0  0  0
 26 18  1  0  0  0  0
 27 26  1  0  0  0  0
 29 26  1  0  0  0  0
 30 33  1  0  0  0  0
 30 32  1  0  0  0  0
 31 30  1  0  0  0  0
 31 32  1  0  0  0  0
 32 37  1  0  0  0  0
 32 36  1  0  0  0  0
 34 31  1  0  0  0  0
 35 31  1  0  0  0  0
 38 39  1  6  0  0  0
 38 40  1  0  0  0  0
 38  1  1  0  0  0  0
 38 44  1  0  0  0  0
 40 43  1  0  0  0  0
 41 40  1  0  0  0  0
 42 40  1  0  0  0  0
 44 47  1  0  0  0  0
 45 44  1  0  0  0  0
 46 44  1  0  0  0  0
 47 48  2  0  0  0  0
 47 51  1  0  0  0  0
 48 49  1  0  0  0  0
 49 50  2  0  0  0  0
 50 52  1  0  0  0  0
 51 50  1  0  0  0  0
 53 51  1  0  0  0  0
 53 55  1  0  0  0  0
 53 56  1  0  0  0  0
 54 53  1  0  0  0  0
M  END
>  <MODEL>
23

>  <REMARK>
 VINA RESULT:    -6.649      2.631      5.288
 INTER + INTRA:          -9.526
 INTER:                  -8.857
 INTRA:                  -0.669
 UNBOUND:                -0.157
  Name = 
  8 active torsions:
  status: ('A' for Active; 'I' for Inactive)
    1  A    between atoms: C_1  and  C_2
    2  A    between atoms: C_2  and  C_3
    3  A    between atoms: C_2  and  C_10
    4  A    between atoms: C_3  and  C_4
    5  A    between atoms: N_8  and  C_9
    6  A    between atoms: N_13  and  C_14
    7  A    between atoms: C_18  and  N_19
    8  A    between atoms: C_26  and  C_27
                            x       y       z     vdW  Elec       q    Type
                         _______ _______ _______ _____ _____    ______ ____

>  <TORSDO>
F 8

$$$$
=
 OpenBabel07192307433D

 56 60  0  0  1  0  0  0  0  0999 V2000
   -1.5050   11.8940   19.2610 C   0  0  0  0  0  0  0  0  0  0  0  0
   -0.6840   12.9780   19.5850 C   0  0  0  0  0  0  0  0  0  0  0  0
    0.6450   12.7560   19.9340 C   0  0  0  0  0  0  0  0  0  0  0  0
    1.4390   13.8780   20.2810 N   0  0  0  0  0  0  0  0  0  0  0  0
    1.1610   11.5130   20.0010 N   0  0  0  0  0  0  0  0  0  0  0  0
    0.3800   10.4510   19.6910 C   0  0  0  0  0  0  0  0  0  0  0  0
   -0.9490   10.6100   19.3190 C   0  0  0  0  0  0  0  0  0  0  0  0
   -1.0720   13.9900   19.5820 H   0  0  0  0  0  0  0  0  0  0  0  0
    1.3090   14.5950   19.5720 H   0  0  0  0  0  0  0  0  0  0  0  0
   -1.5710    9.7550   19.0800 H   0  0  0  0  0  0  0  0  0  0  0  0
    0.9930    9.1870   19.7700 N   0  0  0  0  0  0  0  0  0  0  0  0
    1.9770    8.8050   18.7710 C   0  0  0  0  0  0  0  0  0  0  0  0
    2.3720    7.4270   19.2010 C   0  0  0  0  0  0  0  0  0  0  0  0
    1.6620    7.0760   20.3470 C   0  0  0  0  0  0  0  0  0  0  0  0
    1.8170    5.8550   20.9760 C   0  0  0  0  0  0  0  0  0  0  0  0
    2.7270    4.9560   20.4180 C   0  0  0  0  0  0  0  0  0  0  0  0
    3.4520    5.2950   19.2600 C   0  0  0  0  0  0  0  0  0  0  0  0
    3.2830    6.5430   18.6290 C   0  0  0  0  0  0  0  0  0  0  0  0
    0.7800    8.1930   20.7130 C   0  0  0  0  0  0  0  0  0  0  0  0
    0.0380    8.1500   21.6760 O   0  0  0  0  0  0  0  0  0  0  0  0
    1.5140    8.7890   17.7790 H   0  0  0  0  0  0  0  0  0  0  0  0
    2.8320    9.4880   18.8100 H   0  0  0  0  0  0  0  0  0  0  0  0
    1.2490    5.6100   21.8670 H   0  0  0  0  0  0  0  0  0  0  0  0
    2.8770    3.9840   20.8830 H   0  0  0  0  0  0  0  0  0  0  0  0
    4.1520    4.5680   18.8500 H   0  0  0  0  0  0  0  0  0  0  0  0
    4.0490    6.9140   17.3870 C   0  0  0  0  0  0  0  0  0  0  0  0
    5.2720    7.4560   17.6400 F   0  0  0  0  0  0  0  0  0  0  0  0
    3.3860    7.8250   16.6230 F   0  0  0  0  0  0  0  0  0  0  0  0
    4.2720    5.8410   16.5790 F   0  0  0  0  0  0  0  0  0  0  0  0
    2.8360   13.6360   20.6610 C   0  0  0  0  0  0  0  0  0  0  0  0
    3.5230   14.5340   21.6510 C   0  0  0  0  0  0  0  0  0  0  0  0
    3.9380   14.5520   20.2080 C   0  0  0  0  0  0  0  0  0  0  0  0
    3.0690   12.5760   20.7320 H   0  0  0  0  0  0  0  0  0  0  0  0
    2.9820   15.3890   22.0380 H   0  0  0  0  0  0  0  0  0  0  0  0
    4.1930   14.0730   22.3660 H   0  0  0  0  0  0  0  0  0  0  0  0
    4.8840   14.0970   19.9390 H   0  0  0  0  0  0  0  0  0  0  0  0
    3.6750   15.4130   19.6060 H   0  0  0  0  0  0  0  0  0  0  0  0
   -2.9720   12.0690   18.8900 C   0  0  2  0  0  0  0  0  0  0  0  0
   -3.0330   12.8190   18.0880 H   0  0  0  0  0  0  0  0  0  0  0  0
   -3.7850   12.6290   20.0680 C   0  0  0  0  0  0  0  0  0  0  0  0
   -3.8610   13.7210   20.0300 H   0  0  0  0  0  0  0  0  0  0  0  0
   -3.3220   12.3650   21.0250 H   0  0  0  0  0  0  0  0  0  0  0  0
   -4.8010   12.2200   20.0720 H   0  0  0  0  0  0  0  0  0  0  0  0
   -3.5440   10.7360   18.3650 C   0  0  0  0  0  0  0  0  0  0  0  0
   -2.9480    9.9010   18.7570 H   0  0  0  0  0  0  0  0  0  0  0  0
   -4.5600   10.5860   18.7470 H   0  0  0  0  0  0  0  0  0  0  0  0
   -3.5160   10.6490   16.8760 C   0  0  0  0  0  0  0  0  0  0  0  0
   -4.4020   11.1660   16.0500 N   0  0  0  0  0  0  0  0  0  0  0  0
   -4.0200   10.8660   14.7630 N   0  0  0  0  0  0  0  0  0  0  0  0
   -2.9070   10.1760   14.8320 C   0  0  0  0  0  0  0  0  0  0  0  0
   -2.5520   10.0150   16.1350 N   0  0  0  0  0  0  0  0  0  0  0  0
   -2.3470    9.7870   13.9920 H   0  0  0  0  0  0  0  0  0  0  0  0
   -1.3930    9.3120   16.6140 C   0  0  0  0  0  0  0  0  0  0  0  0
   -1.3800    8.3010   16.2000 H   0  0  0  0  0  0  0  0  0  0  0  0
   -1.4420    9.2620   17.7050 H   0  0  0  0  0  0  0  0  0  0  0  0
   -0.5000    9.8530   16.2920 H   0  0  0  0  0  0  0  0  0  0  0  0
  1  7  2  0  0  0  0
  1  2  1  0  0  0  0
  2  3  2  0  0  0  0
  3  5  1  0  0  0  0
  3  4  1  0  0  0  0
  4 30  1  0  0  0  0
  6 11  1  0  0  0  0
  6  5  2  0  0  0  0
  7  6  1  0  0  0  0
  8  2  1  0  0  0  0
  9  4  1  0  0  0  0
 10  7  1  0  0  0  0
 11 19  1  0  0  0  0
 12 22  1  0  0  0  0
 12 13  1  0  0  0  0
 12 11  1  0  0  0  0
 13 14  1  0  0  0  0
 14 19  1  0  0  0  0
 14 15  2  0  0  0  0
 15 23  1  0  0  0  0
 16 24  1  0  0  0  0
 16 15  1  0  0  0  0
 17 16  2  0  0  0  0
 18 13  2  0  0  0  0
 18 17  1  0  0  0  0
 19 20  2  0  0  0  0
 21 12  1  0  0  0  0
 25 17  1  0  0  0  0
 26 27  1  0  0  0  0
 26 18  1  0  0  0  0
 28 26  1  0  0  0  0
 29 26  1  0  0  0  0
 30 33  1  0  0  0  0
 30 31  1  0  0  0  0
 31 34  1  0  0  0  0
 31 35  1  0  0  0  0
 32 30  1  0  0  0  0
 32 31  1  0  0  0  0
 36 32  1  0  0  0  0
 37 32  1  0  0  0  0
 38 39  1  6  0  0  0
 38  1  1  0  0  0  0
 38 40  1  0  0  0  0
 40 43  1  0  0  0  0
 40 42  1  0  0  0  0
 41 40  1  0  0  0  0
 44 46  1  0  0  0  0
 44 45  1  0  0  0  0
 44 38  1  0  0  0  0
 47 44  1  0  0  0  0
 48 47  2  0  0  0  0
 49 50  2  0  0  0  0
 49 48  1  0  0  0  0
 50 51  1  0  0  0  0
 51 53  1  0  0  0  0
 51 47  1  0  0  0  0
 52 50  1  0  0  0  0
 53 55  1  0  0  0  0
 54 53  1  0  0  0  0
 56 53  1  0  0  0  0
M  END
>  <MODEL>
24

>  <REMARK>
 VINA RESULT:    -6.639      4.242      8.887
 INTER + INTRA:          -9.513
 INTER:                  -8.864
 INTRA:                  -0.649
 UNBOUND:                -0.157
  Name = 
  8 active torsions:
  status: ('A' for Active; 'I' for Inactive)
    1  A    between atoms: C_1  and  C_2
    2  A    between atoms: C_2  and  C_3
    3  A    between atoms: C_2  and  C_10
    4  A    between atoms: C_3  and  C_4
    5  A    between atoms: N_8  and  C_9
    6  A    between atoms: N_13  and  C_14
    7  A    between atoms: C_18  and  N_19
    8  A    between atoms: C_26  and  C_27
                            x       y       z     vdW  Elec       q    Type
                         _______ _______ _______ _____ _____    ______ ____

>  <TORSDO>
F 8

$$$$
=
 OpenBabel07192307433D

 56 60  0  0  1  0  0  0  0  0999 V2000
    4.3570    3.4760   19.7230 C   0  0  0  0  0  0  0  0  0  0  0  0
    5.0120    3.1710   18.5270 C   0  0  0  0  0  0  0  0  0  0  0  0
    4.9990    4.0890   17.4810 C   0  0  0  0  0  0  0  0  0  0  0  0
    5.6530    3.7320   16.2740 N   0  0  0  0  0  0  0  0  0  0  0  0
    4.3400    5.2600   17.5750 N   0  0  0  0  0  0  0  0  0  0  0  0
    3.7000    5.5730   18.7260 C   0  0  0  0  0  0  0  0  0  0  0  0
    3.6910    4.7050   19.8110 C   0  0  0  0  0  0  0  0  0  0  0  0
    5.5190    2.2220   18.3970 H   0  0  0  0  0  0  0  0  0  0  0  0
    6.5780    3.3750   16.5030 H   0  0  0  0  0  0  0  0  0  0  0  0
    3.1680    4.9570   20.7280 H   0  0  0  0  0  0  0  0  0  0  0  0
    3.0460    6.8180   18.7540 N   0  0  0  0  0  0  0  0  0  0  0  0
    2.1990    7.1560   19.8850 C   0  0  0  0  0  0  0  0  0  0  0  0
    1.7040    8.5240   19.5350 C   0  0  0  0  0  0  0  0  0  0  0  0
    2.2350    8.9110   18.3070 C   0  0  0  0  0  0  0  0  0  0  0  0
    1.9540   10.1320   17.7240 C   0  0  0  0  0  0  0  0  0  0  0  0
    1.0980   10.9910   18.4140 C   0  0  0  0  0  0  0  0  0  0  0  0
    0.5520   10.6160   19.6550 C   0  0  0  0  0  0  0  0  0  0  0  0
    0.8480    9.3680   20.2380 C   0  0  0  0  0  0  0  0  0  0  0  0
    3.0900    7.8270   17.8030 C   0  0  0  0  0  0  0  0  0  0  0  0
    3.6750    7.8990   16.7390 O   0  0  0  0  0  0  0  0  0  0  0  0
    1.3700    6.4450   19.9560 H   0  0  0  0  0  0  0  0  0  0  0  0
    2.7960    7.1780   20.8030 H   0  0  0  0  0  0  0  0  0  0  0  0
    2.3830   10.4050   16.7650 H   0  0  0  0  0  0  0  0  0  0  0  0
    0.8510   11.9620   17.9880 H   0  0  0  0  0  0  0  0  0  0  0  0
   -0.1140   11.3110   20.1650 H   0  0  0  0  0  0  0  0  0  0  0  0
    0.2650    8.9530   21.5630 C   0  0  0  0  0  0  0  0  0  0  0  0
    1.1980    8.7630   22.5360 F   0  0  0  0  0  0  0  0  0  0  0  0
   -0.4320    7.7870   21.4790 F   0  0  0  0  0  0  0  0  0  0  0  0
   -0.6080    9.8750   22.0530 F   0  0  0  0  0  0  0  0  0  0  0  0
    5.6250    4.6990   15.1700 C   0  0  0  0  0  0  0  0  0  0  0  0
    5.7270    4.2310   13.7450 C   0  0  0  0  0  0  0  0  0  0  0  0
    6.8580    5.0010   14.3660 C   0  0  0  0  0  0  0  0  0  0  0  0
    4.9400    5.5230   15.3570 H   0  0  0  0  0  0  0  0  0  0  0  0
    5.8720    3.1750   13.5550 H   0  0  0  0  0  0  0  0  0  0  0  0
    5.1150    4.7350   13.0070 H   0  0  0  0  0  0  0  0  0  0  0  0
    7.0110    6.0280   14.0560 H   0  0  0  0  0  0  0  0  0  0  0  0
    7.7710    4.4710   14.6070 H   0  0  0  0  0  0  0  0  0  0  0  0
    4.3170    2.5060   20.8970 C   0  0  2  0  0  0  0  0  0  0  0  0
    4.8670    2.9620   21.7340 H   0  0  0  0  0  0  0  0  0  0  0  0
    5.0440    1.1940   20.5660 C   0  0  0  0  0  0  0  0  0  0  0  0
    6.0160    1.3720   20.0930 H   0  0  0  0  0  0  0  0  0  0  0  0
    4.4520    0.5800   19.8780 H   0  0  0  0  0  0  0  0  0  0  0  0
    5.2140    0.6000   21.4710 H   0  0  0  0  0  0  0  0  0  0  0  0
    2.8570    2.2720   21.3370 C   0  0  0  0  0  0  0  0  0  0  0  0
    2.7720    1.2890   21.8200 H   0  0  0  0  0  0  0  0  0  0  0  0
    2.5700    3.0070   22.0980 H   0  0  0  0  0  0  0  0  0  0  0  0
    1.9040    2.2930   20.1900 C   0  0  0  0  0  0  0  0  0  0  0  0
    1.8380    1.4060   19.2170 N   0  0  0  0  0  0  0  0  0  0  0  0
    0.8320    1.7820   18.3580 N   0  0  0  0  0  0  0  0  0  0  0  0
    0.3020    2.8860   18.8270 C   0  0  0  0  0  0  0  0  0  0  0  0
    0.9400    3.2450   19.9730 N   0  0  0  0  0  0  0  0  0  0  0  0
   -0.5150    3.4380   18.3830 H   0  0  0  0  0  0  0  0  0  0  0  0
    0.6470    4.4000   20.7770 C   0  0  0  0  0  0  0  0  0  0  0  0
    1.3460    4.4510   21.6150 H   0  0  0  0  0  0  0  0  0  0  0  0
   -0.3740    4.3110   21.1560 H   0  0  0  0  0  0  0  0  0  0  0  0
    0.7520    5.2920   20.1560 H   0  0  0  0  0  0  0  0  0  0  0  0
  1  7  1  0  0  0  0
  1 38  1  0  0  0  0
  2  1  2  0  0  0  0
  3  5  2  0  0  0  0
  3  2  1  0  0  0  0
  4  9  1  0  0  0  0
  4  3  1  0  0  0  0
  5  6  1  0  0  0  0
  6 11  1  0  0  0  0
  6  7  2  0  0  0  0
  7 10  1  0  0  0  0
  8  2  1  0  0  0  0
 11 12  1  0  0  0  0
 12 21  1  0  0  0  0
 12 22  1  0  0  0  0
 13 12  1  0  0  0  0
 13 18  1  0  0  0  0
 14 13  2  0  0  0  0
 15 14  1  0  0  0  0
 15 16  2  0  0  0  0
 16 17  1  0  0  0  0
 17 25  1  0  0  0  0
 17 18  2  0  0  0  0
 18 26  1  0  0  0  0
 19 14  1  0  0  0  0
 19 11  1  0  0  0  0
 20 19  2  0  0  0  0
 23 15  1  0  0  0  0
 24 16  1  0  0  0  0
 26 29  1  0  0  0  0
 26 27  1  0  0  0  0
 28 26  1  0  0  0  0
 30 33  1  0  0  0  0
 30  4  1  0  0  0  0
 31 32  1  0  0  0  0
 31 30  1  0  0  0  0
 32 37  1  0  0  0  0
 32 30  1  0  0  0  0
 34 31  1  0  0  0  0
 35 31  1  0  0  0  0
 36 32  1  0  0  0  0
 38 44  1  0  0  0  0
 38 39  1  1  0  0  0
 40 38  1  0  0  0  0
 40 43  1  0  0  0  0
 41 40  1  0  0  0  0
 42 40  1  0  0  0  0
 44 45  1  0  0  0  0
 44 46  1  0  0  0  0
 47 44  1  0  0  0  0
 48 47  2  0  0  0  0
 49 50  2  0  0  0  0
 49 48  1  0  0  0  0
 50 51  1  0  0  0  0
 51 47  1  0  0  0  0
 51 53  1  0  0  0  0
 52 50  1  0  0  0  0
 53 55  1  0  0  0  0
 53 54  1  0  0  0  0
 56 53  1  0  0  0  0
M  END
>  <MODEL>
25

>  <REMARK>
 VINA RESULT:    -6.442      2.238      5.182
 INTER + INTRA:          -9.235
 INTER:                  -9.281
 INTRA:                   0.046
 UNBOUND:                -0.157
  Name = 
  8 active torsions:
  status: ('A' for Active; 'I' for Inactive)
    1  A    between atoms: C_1  and  C_2
    2  A    between atoms: C_2  and  C_3
    3  A    between atoms: C_2  and  C_10
    4  A    between atoms: C_3  and  C_4
    5  A    between atoms: N_8  and  C_9
    6  A    between atoms: N_13  and  C_14
    7  A    between atoms: C_18  and  N_19
    8  A    between atoms: C_26  and  C_27
                            x       y       z     vdW  Elec       q    Type
                         _______ _______ _______ _____ _____    ______ ____

>  <TORSDO>
F 8

$$$$
=
 OpenBabel07192307433D

 56 60  0  0  1  0  0  0  0  0999 V2000
   -1.3490   11.9550   19.3440 C   0  0  0  0  0  0  0  0  0  0  0  0
   -0.5940   13.0390   19.8000 C   0  0  0  0  0  0  0  0  0  0  0  0
    0.7840   12.9090   19.9440 C   0  0  0  0  0  0  0  0  0  0  0  0
    1.5110   14.0240   20.4330 N   0  0  0  0  0  0  0  0  0  0  0  0
    1.4150   11.7470   19.6870 N   0  0  0  0  0  0  0  0  0  0  0  0
    0.7010   10.6850   19.2450 C   0  0  0  0  0  0  0  0  0  0  0  0
   -0.6750   10.7590   19.0650 C   0  0  0  0  0  0  0  0  0  0  0  0
   -1.0700   13.9790   20.0560 H   0  0  0  0  0  0  0  0  0  0  0  0
    1.2230   14.8490   19.9120 H   0  0  0  0  0  0  0  0  0  0  0  0
   -1.2430    9.9020   18.7190 H   0  0  0  0  0  0  0  0  0  0  0  0
    1.4320    9.5120   18.9840 N   0  0  0  0  0  0  0  0  0  0  0  0
    1.2260    8.3410   19.8210 C   0  0  0  0  0  0  0  0  0  0  0  0
    2.1680    7.3390   19.2310 C   0  0  0  0  0  0  0  0  0  0  0  0
    2.8400    7.9110   18.1530 C   0  0  0  0  0  0  0  0  0  0  0  0
    3.7790    7.2220   17.4080 C   0  0  0  0  0  0  0  0  0  0  0  0
    4.0450    5.9020   17.7730 C   0  0  0  0  0  0  0  0  0  0  0  0
    3.3750    5.3090   18.8600 C   0  0  0  0  0  0  0  0  0  0  0  0
    2.4210    6.0230   19.6100 C   0  0  0  0  0  0  0  0  0  0  0  0
    2.3770    9.2960   17.9930 C   0  0  0  0  0  0  0  0  0  0  0  0
    2.8090   10.0330   17.1260 O   0  0  0  0  0  0  0  0  0  0  0  0
    1.4960    8.5710   20.8560 H   0  0  0  0  0  0  0  0  0  0  0  0
    0.1890    8.0010   19.7370 H   0  0  0  0  0  0  0  0  0  0  0  0
    4.2870    7.6950   16.5750 H   0  0  0  0  0  0  0  0  0  0  0  0
    4.7780    5.3250   17.2120 H   0  0  0  0  0  0  0  0  0  0  0  0
    3.6090    4.2760   19.1180 H   0  0  0  0  0  0  0  0  0  0  0  0
    1.7020    5.4010   20.7780 C   0  0  0  0  0  0  0  0  0  0  0  0
    2.5020    4.6310   21.5660 F   0  0  0  0  0  0  0  0  0  0  0  0
    0.6760    4.5980   20.3850 F   0  0  0  0  0  0  0  0  0  0  0  0
    1.1500    6.3360   21.6000 F   0  0  0  0  0  0  0  0  0  0  0  0
    2.9620   13.8760   20.5950 C   0  0  0  0  0  0  0  0  0  0  0  0
    3.6730   14.5390   21.7410 C   0  0  0  0  0  0  0  0  0  0  0  0
    3.8980   15.0230   20.3380 C   0  0  0  0  0  0  0  0  0  0  0  0
    3.3110   12.8810   20.3260 H   0  0  0  0  0  0  0  0  0  0  0  0
    3.1000   15.1670   22.4130 H   0  0  0  0  0  0  0  0  0  0  0  0
    4.4720   13.9880   22.2230 H   0  0  0  0  0  0  0  0  0  0  0  0
    4.8440   14.7970   19.8610 H   0  0  0  0  0  0  0  0  0  0  0  0
    3.4730   15.9760   20.0460 H   0  0  0  0  0  0  0  0  0  0  0  0
   -2.8610   12.0280   19.1850 C   0  0  2  0  0  0  0  0  0  0  0  0
   -3.0870   12.7830   18.4170 H   0  0  0  0  0  0  0  0  0  0  0  0
   -3.5390   12.5100   20.4770 C   0  0  0  0  0  0  0  0  0  0  0  0
   -3.7730   11.6800   21.1520 H   0  0  0  0  0  0  0  0  0  0  0  0
   -4.4790   13.0290   20.2570 H   0  0  0  0  0  0  0  0  0  0  0  0
   -2.8960   13.2130   21.0180 H   0  0  0  0  0  0  0  0  0  0  0  0
   -3.4070   10.6640   18.7110 C   0  0  0  0  0  0  0  0  0  0  0  0
   -2.8010    9.8560   19.1440 H   0  0  0  0  0  0  0  0  0  0  0  0
   -4.4240   10.5130   19.0900 H   0  0  0  0  0  0  0  0  0  0  0  0
   -3.3620   10.5150   17.2280 C   0  0  0  0  0  0  0  0  0  0  0  0
   -2.5770    9.7010   16.5510 N   0  0  0  0  0  0  0  0  0  0  0  0
   -2.8390    9.8630   15.2110 N   0  0  0  0  0  0  0  0  0  0  0  0
   -3.7800   10.7690   15.0980 C   0  0  0  0  0  0  0  0  0  0  0  0
   -4.1410   11.2060   16.3350 N   0  0  0  0  0  0  0  0  0  0  0  0
   -4.2140   11.1240   14.1730 H   0  0  0  0  0  0  0  0  0  0  0  0
   -5.1390   12.2000   16.6220 C   0  0  0  0  0  0  0  0  0  0  0  0
   -4.9790   13.0740   15.9870 H   0  0  0  0  0  0  0  0  0  0  0  0
   -5.0520   12.4870   17.6730 H   0  0  0  0  0  0  0  0  0  0  0  0
   -6.1240   11.7730   16.4190 H   0  0  0  0  0  0  0  0  0  0  0  0
  1  2  1  0  0  0  0
  2  3  2  0  0  0  0
  2  8  1  0  0  0  0
  3  4  1  0  0  0  0
  4 30  1  0  0  0  0
  5  3  1  0  0  0  0
  6  5  2  0  0  0  0
  7  6  1  0  0  0  0
  7  1  2  0  0  0  0
  9  4  1  0  0  0  0
 10  7  1  0  0  0  0
 11  6  1  0  0  0  0
 11 12  1  0  0  0  0
 12 21  1  0  0  0  0
 13 18  1  0  0  0  0
 13 12  1  0  0  0  0
 14 13  2  0  0  0  0
 15 16  2  0  0  0  0
 15 14  1  0  0  0  0
 16 17  1  0  0  0  0
 17 25  1  0  0  0  0
 17 18  2  0  0  0  0
 18 26  1  0  0  0  0
 19 14  1  0  0  0  0
 19 11  1  0  0  0  0
 20 19  2  0  0  0  0
 22 12  1  0  0  0  0
 23 15  1  0  0  0  0
 24 16  1  0  0  0  0
 26 27  1  0  0  0  0
 26 29  1  0  0  0  0
 28 26  1  0  0  0  0
 30 31  1  0  0  0  0
 31 35  1  0  0  0  0
 31 34  1  0  0  0  0
 32 30  1  0  0  0  0
 32 31  1  0  0  0  0
 33 30  1  0  0  0  0
 36 32  1  0  0  0  0
 37 32  1  0  0  0  0
 38 39  1  6  0  0  0
 38  1  1  0  0  0  0
 38 40  1  0  0  0  0
 40 43  1  0  0  0  0
 40 41  1  0  0  0  0
 42 40  1  0  0  0  0
 44 46  1  0  0  0  0
 44 45  1  0  0  0  0
 44 38  1  0  0  0  0
 47 44  1  0  0  0  0
 48 47  2  0  0  0  0
 49 48  1  0  0  0  0
 50 49  2  0  0  0  0
 50 51  1  0  0  0  0
 51 53  1  0  0  0  0
 51 47  1  0  0  0  0
 52 50  1  0  0  0  0
 53 55  1  0  0  0  0
 54 53  1  0  0  0  0
 56 53  1  0  0  0  0
M  END
>  <MODEL>
26

>  <REMARK>
 VINA RESULT:    -6.399      3.657      8.713
 INTER + INTRA:          -9.174
 INTER:                  -8.665
 INTRA:                  -0.510
 UNBOUND:                -0.157
  Name = 
  8 active torsions:
  status: ('A' for Active; 'I' for Inactive)
    1  A    between atoms: C_1  and  C_2
    2  A    between atoms: C_2  and  C_3
    3  A    between atoms: C_2  and  C_10
    4  A    between atoms: C_3  and  C_4
    5  A    between atoms: N_8  and  C_9
    6  A    between atoms: N_13  and  C_14
    7  A    between atoms: C_18  and  N_19
    8  A    between atoms: C_26  and  C_27
                            x       y       z     vdW  Elec       q    Type
                         _______ _______ _______ _____ _____    ______ ____

>  <TORSDO>
F 8

$$$$
