=
 OpenBabel07192307433D

 44 47  0  0  0  0  0  0  0  0999 V2000
    2.7970    5.9730   18.5100 C   0  0  0  0  0  0  0  0  0  0  0  0
    3.7950    6.0190   17.5350 C   0  0  0  0  0  0  0  0  0  0  0  0
    4.2280    4.8320   16.9720 C   0  0  0  0  0  0  0  0  0  0  0  0
    3.6850    3.6460   17.3420 N   0  0  0  0  0  0  0  0  0  0  0  0
    2.7520    3.5980   18.3080 C   0  0  0  0  0  0  0  0  0  0  0  0
    2.2550    2.3560   18.6830 C   0  0  0  0  0  0  0  0  0  0  0  0
    1.3000    2.2150   19.6920 C   0  0  0  0  0  0  0  0  0  0  0  0
    0.8280    3.3390   20.3550 C   0  0  0  0  0  0  0  0  0  0  0  0
    1.3070    4.5970   19.9930 C   0  0  0  0  0  0  0  0  0  0  0  0
    2.2630    4.7460   18.9550 C   0  0  0  0  0  0  0  0  0  0  0  0
    4.1970    6.9790   17.2220 H   0  0  0  0  0  0  0  0  0  0  0  0
    2.6320    1.4680   18.1810 H   0  0  0  0  0  0  0  0  0  0  0  0
    0.9400    1.2260   19.9640 H   0  0  0  0  0  0  0  0  0  0  0  0
    0.1000    3.2390   21.1550 H   0  0  0  0  0  0  0  0  0  0  0  0
    0.9440    5.4600   20.5480 H   0  0  0  0  0  0  0  0  0  0  0  0
    5.2700    4.7620   15.9320 C   0  0  0  0  0  0  0  0  0  0  0  0
    5.0900    4.1060   14.7050 C   0  0  0  0  0  0  0  0  0  0  0  0
    6.1170    4.0680   13.7600 C   0  0  0  0  0  0  0  0  0  0  0  0
    7.3130    4.6930   14.0630 C   0  0  0  0  0  0  0  0  0  0  0  0
    7.5400    5.3420   15.2210 N   0  0  0  0  0  0  0  0  0  0  0  0
    6.5170    5.3660   16.1140 C   0  0  0  0  0  0  0  0  0  0  0  0
    4.1450    3.6310   14.4550 H   0  0  0  0  0  0  0  0  0  0  0  0
    5.9830    3.5650   12.8090 H   0  0  0  0  0  0  0  0  0  0  0  0
    8.1430    4.6910   13.3610 H   0  0  0  0  0  0  0  0  0  0  0  0
    6.7450    5.9090   17.0310 H   0  0  0  0  0  0  0  0  0  0  0  0
    2.0140    8.1950   18.0440 N   0  0  0  0  0  0  0  0  0  0  0  0
    2.3330    7.2800   19.0290 C   0  0  0  0  0  0  0  0  0  0  0  0
    2.3310    7.4470   20.2410 O   0  0  0  0  0  0  0  0  0  0  0  0
    2.1660    7.9030   17.0850 H   0  0  0  0  0  0  0  0  0  0  0  0
    0.4160   12.0660   18.6050 C   0  0  0  0  0  0  0  0  0  0  0  0
    1.7880   11.9170   18.3800 C   0  0  0  0  0  0  0  0  0  0  0  0
    2.3420   10.6450   18.1850 C   0  0  0  0  0  0  0  0  0  0  0  0
    1.5330    9.5080   18.2220 C   0  0  0  0  0  0  0  0  0  0  0  0
    0.1610    9.6610   18.4650 C   0  0  0  0  0  0  0  0  0  0  0  0
   -0.3970   10.9290   18.6570 C   0  0  0  0  0  0  0  0  0  0  0  0
    2.4370   12.7910   18.3540 H   0  0  0  0  0  0  0  0  0  0  0  0
    3.4120   10.5820   18.0150 H   0  0  0  0  0  0  0  0  0  0  0  0
   -0.4930    8.7930   18.5150 H   0  0  0  0  0  0  0  0  0  0  0  0
   -1.4580   11.0090   18.8710 H   0  0  0  0  0  0  0  0  0  0  0  0
   -1.4280   13.5460   19.2060 N   0  0  0  0  0  0  0  0  0  0  0  0
   -0.1250   13.4360   18.8070 C   0  0  0  0  0  0  0  0  0  0  0  0
    0.5510   14.4340   18.5950 O   0  0  0  0  0  0  0  0  0  0  0  0
   -1.8050   14.4860   19.2010 H   0  0  0  0  0  0  0  0  0  0  0  0
   -2.0850   12.7880   19.0910 H   0  0  0  0  0  0  0  0  0  0  0  0
  1 10  1  0  0  0  0
  1 27  1  0  0  0  0
  2  1  2  0  0  0  0
  3  4  2  0  0  0  0
  3  2  1  0  0  0  0
  4  5  1  0  0  0  0
  5  6  2  0  0  0  0
  5 10  1  0  0  0  0
  6  7  1  0  0  0  0
  7 13  1  0  0  0  0
  7  8  2  0  0  0  0
  8 14  1  0  0  0  0
  9  8  1  0  0  0  0
  9 15  1  0  0  0  0
 10  9  2  0  0  0  0
 11  2  1  0  0  0  0
 12  6  1  0  0  0  0
 16 21  1  0  0  0  0
 16  3  1  0  0  0  0
 17 16  2  0  0  0  0
 18 19  2  0  0  0  0
 18 17  1  0  0  0  0
 19 20  1  0  0  0  0
 20 21  2  0  0  0  0
 21 25  1  0  0  0  0
 22 17  1  0  0  0  0
 23 18  1  0  0  0  0
 24 19  1  0  0  0  0
 26 33  1  0  0  0  0
 26 27  1  0  0  0  0
 27 28  2  0  0  0  0
 29 26  1  0  0  0  0
 30 35  1  0  0  0  0
 30 41  1  0  0  0  0
 31 30  2  0  0  0  0
 32 33  2  0  0  0  0
 32 31  1  0  0  0  0
 33 34  1  0  0  0  0
 34 38  1  0  0  0  0
 34 35  2  0  0  0  0
 35 39  1  0  0  0  0
 36 31  1  0  0  0  0
 37 32  1  0  0  0  0
 41 40  1  0  0  0  0
 42 41  2  0  0  0  0
 43 40  1  0  0  0  0
 44 40  1  0  0  0  0
M  END
>  <MODEL>
1

>  <REMARK>
 VINA RESULT:    -9.213      0.000      0.000
 INTER + INTRA:         -11.175
 INTER:                 -10.627
 INTRA:                  -0.548
 UNBOUND:                 0.192
  Name = 
  4 active torsions:
  status: ('A' for Active; 'I' for Inactive)
    1  A    between atoms: C_2  and  C_4
    2  A    between atoms: C_7  and  N_8
    3  A    between atoms: C_9  and  C_11
    4  A    between atoms: C_13  and  C_14
                            x       y       z     vdW  Elec       q    Type
                         _______ _______ _______ _____ _____    ______ ____

>  <TORSDO>
F 4

$$$$
=
 OpenBabel07192307433D

 44 47  0  0  0  0  0  0  0  0999 V2000
    2.9750    6.0970   18.7750 C   0  0  0  0  0  0  0  0  0  0  0  0
    3.8110    6.0810   17.6560 C   0  0  0  0  0  0  0  0  0  0  0  0
    4.4940    4.9160   17.3560 C   0  0  0  0  0  0  0  0  0  0  0  0
    4.3470    3.8050   18.1180 N   0  0  0  0  0  0  0  0  0  0  0  0
    3.5740    3.8320   19.2170 C   0  0  0  0  0  0  0  0  0  0  0  0
    3.4860    2.6810   19.9900 C   0  0  0  0  0  0  0  0  0  0  0  0
    2.7210    2.6310   21.1580 C   0  0  0  0  0  0  0  0  0  0  0  0
    2.0290    3.7580   21.5760 C   0  0  0  0  0  0  0  0  0  0  0  0
    2.0970    4.9230   20.8150 C   0  0  0  0  0  0  0  0  0  0  0  0
    2.8560    4.9720   19.6170 C   0  0  0  0  0  0  0  0  0  0  0  0
    3.8930    6.9670   17.0340 H   0  0  0  0  0  0  0  0  0  0  0  0
    4.0390    1.7970   19.6790 H   0  0  0  0  0  0  0  0  0  0  0  0
    2.6830    1.7140   21.7410 H   0  0  0  0  0  0  0  0  0  0  0  0
    1.4480    3.7350   22.4940 H   0  0  0  0  0  0  0  0  0  0  0  0
    1.5690    5.8020   21.1800 H   0  0  0  0  0  0  0  0  0  0  0  0
    5.3970    4.7830   16.1980 C   0  0  0  0  0  0  0  0  0  0  0  0
    5.0530    4.0850   15.0300 C   0  0  0  0  0  0  0  0  0  0  0  0
    5.9530    3.9880   13.9670 C   0  0  0  0  0  0  0  0  0  0  0  0
    7.1890    4.5970   14.0940 C   0  0  0  0  0  0  0  0  0  0  0  0
    7.5700    5.2840   15.1880 N   0  0  0  0  0  0  0  0  0  0  0  0
    6.6680    5.3650   16.2000 C   0  0  0  0  0  0  0  0  0  0  0  0
    4.0760    3.6230   14.9190 H   0  0  0  0  0  0  0  0  0  0  0  0
    5.6920    3.4540   13.0610 H   0  0  0  0  0  0  0  0  0  0  0  0
    7.9240    4.5500   13.2950 H   0  0  0  0  0  0  0  0  0  0  0  0
    7.0180    5.9360   17.0580 H   0  0  0  0  0  0  0  0  0  0  0  0
    1.8440    7.5440   20.3220 N   0  0  0  0  0  0  0  0  0  0  0  0
    2.2250    7.3520   19.0080 C   0  0  0  0  0  0  0  0  0  0  0  0
    1.9680    8.0540   18.0400 O   0  0  0  0  0  0  0  0  0  0  0  0
    2.0730    6.8030   20.9750 H   0  0  0  0  0  0  0  0  0  0  0  0
   -0.2820   10.7500   22.0690 C   0  0  0  0  0  0  0  0  0  0  0  0
    0.1620   10.8610   20.7480 C   0  0  0  0  0  0  0  0  0  0  0  0
    0.8630    9.8100   20.1440 C   0  0  0  0  0  0  0  0  0  0  0  0
    1.1380    8.6410   20.8550 C   0  0  0  0  0  0  0  0  0  0  0  0
    0.7070    8.5410   22.1850 C   0  0  0  0  0  0  0  0  0  0  0  0
    0.0020    9.5860   22.7920 C   0  0  0  0  0  0  0  0  0  0  0  0
   -0.0360   11.7670   20.1780 H   0  0  0  0  0  0  0  0  0  0  0  0
    1.1870    9.9450   19.1160 H   0  0  0  0  0  0  0  0  0  0  0  0
    0.9180    7.6490   22.7710 H   0  0  0  0  0  0  0  0  0  0  0  0
   -0.2930    9.4870   23.8320 H   0  0  0  0  0  0  0  0  0  0  0  0
   -2.1970   11.6150   23.3090 N   0  0  0  0  0  0  0  0  0  0  0  0
   -1.0220   11.8930   22.6680 C   0  0  0  0  0  0  0  0  0  0  0  0
   -0.6220   13.0450   22.5660 O   0  0  0  0  0  0  0  0  0  0  0  0
   -2.7430   12.4230   23.5830 H   0  0  0  0  0  0  0  0  0  0  0  0
   -2.7010   10.7540   23.1490 H   0  0  0  0  0  0  0  0  0  0  0  0
  1 27  1  0  0  0  0
  1 10  1  0  0  0  0
  2  1  2  0  0  0  0
  3  2  1  0  0  0  0
  3  4  2  0  0  0  0
  4  5  1  0  0  0  0
  5 10  2  0  0  0  0
  5  6  1  0  0  0  0
  6  7  2  0  0  0  0
  7  8  1  0  0  0  0
  7 13  1  0  0  0  0
  8 14  1  0  0  0  0
  9 15  1  0  0  0  0
  9  8  2  0  0  0  0
 10  9  1  0  0  0  0
 11  2  1  0  0  0  0
 12  6  1  0  0  0  0
 16 21  1  0  0  0  0
 16  3  1  0  0  0  0
 17 16  2  0  0  0  0
 18 19  2  0  0  0  0
 18 17  1  0  0  0  0
 19 20  1  0  0  0  0
 20 21  2  0  0  0  0
 21 25  1  0  0  0  0
 22 17  1  0  0  0  0
 23 18  1  0  0  0  0
 24 19  1  0  0  0  0
 26 33  1  0  0  0  0
 26 29  1  0  0  0  0
 27 26  1  0  0  0  0
 28 27  2  0  0  0  0
 30 41  1  0  0  0  0
 30 35  1  0  0  0  0
 31 30  2  0  0  0  0
 32 31  1  0  0  0  0
 32 33  2  0  0  0  0
 33 34  1  0  0  0  0
 34 38  1  0  0  0  0
 34 35  2  0  0  0  0
 35 39  1  0  0  0  0
 36 31  1  0  0  0  0
 37 32  1  0  0  0  0
 40 43  1  0  0  0  0
 41 40  1  0  0  0  0
 42 41  2  0  0  0  0
 44 40  1  0  0  0  0
M  END
>  <MODEL>
2

>  <REMARK>
 VINA RESULT:    -9.141      2.270      2.377
 INTER + INTRA:         -11.086
 INTER:                 -11.460
 INTRA:                   0.374
 UNBOUND:                 0.192
  Name = 
  4 active torsions:
  status: ('A' for Active; 'I' for Inactive)
    1  A    between atoms: C_2  and  C_4
    2  A    between atoms: C_7  and  N_8
    3  A    between atoms: C_9  and  C_11
    4  A    between atoms: C_13  and  C_14
                            x       y       z     vdW  Elec       q    Type
                         _______ _______ _______ _____ _____    ______ ____

>  <TORSDO>
F 4

$$$$
=
 OpenBabel07192307433D

 44 47  0  0  0  0  0  0  0  0999 V2000
    0.9100    9.3350   18.9290 C   0  0  0  0  0  0  0  0  0  0  0  0
   -0.0950    9.7080   18.0340 C   0  0  0  0  0  0  0  0  0  0  0  0
   -1.2850   10.1990   18.5400 C   0  0  0  0  0  0  0  0  0  0  0  0
   -1.4720   10.3340   19.8760 N   0  0  0  0  0  0  0  0  0  0  0  0
   -0.5200    9.9390   20.7390 C   0  0  0  0  0  0  0  0  0  0  0  0
   -0.7730   10.0590   22.0990 C   0  0  0  0  0  0  0  0  0  0  0  0
    0.1530    9.6530   23.0630 C   0  0  0  0  0  0  0  0  0  0  0  0
    1.3640    9.1050   22.6650 C   0  0  0  0  0  0  0  0  0  0  0  0
    1.6430    8.9780   21.3060 C   0  0  0  0  0  0  0  0  0  0  0  0
    0.7140    9.4080   20.3240 C   0  0  0  0  0  0  0  0  0  0  0  0
    0.0810    9.6270   16.9650 H   0  0  0  0  0  0  0  0  0  0  0  0
   -1.7270   10.4720   22.4200 H   0  0  0  0  0  0  0  0  0  0  0  0
   -0.0840    9.7550   24.1190 H   0  0  0  0  0  0  0  0  0  0  0  0
    2.0820    8.7670   23.4070 H   0  0  0  0  0  0  0  0  0  0  0  0
    2.5870    8.5180   21.0200 H   0  0  0  0  0  0  0  0  0  0  0  0
   -2.4100   10.6280   17.6900 C   0  0  0  0  0  0  0  0  0  0  0  0
   -2.4880   10.3470   16.3170 C   0  0  0  0  0  0  0  0  0  0  0  0
   -3.5780   10.7840   15.5610 C   0  0  0  0  0  0  0  0  0  0  0  0
   -4.5760   11.4990   16.1990 C   0  0  0  0  0  0  0  0  0  0  0  0
   -4.5570   11.7920   17.5130 N   0  0  0  0  0  0  0  0  0  0  0  0
   -3.4860   11.3450   18.2200 C   0  0  0  0  0  0  0  0  0  0  0  0
   -1.7160    9.7680   15.8170 H   0  0  0  0  0  0  0  0  0  0  0  0
   -3.6450   10.5670   14.5010 H   0  0  0  0  0  0  0  0  0  0  0  0
   -5.4440   11.8600   15.6540 H   0  0  0  0  0  0  0  0  0  0  0  0
   -3.5190   11.5990   19.2780 H   0  0  0  0  0  0  0  0  0  0  0  0
    2.4560    7.5380   18.5410 N   0  0  0  0  0  0  0  0  0  0  0  0
    2.1810    8.8750   18.3250 C   0  0  0  0  0  0  0  0  0  0  0  0
    2.8790    9.7050   17.7590 O   0  0  0  0  0  0  0  0  0  0  0  0
    1.7960    7.0250   19.1150 H   0  0  0  0  0  0  0  0  0  0  0  0
    5.7930    5.2590   17.3070 C   0  0  0  0  0  0  0  0  0  0  0  0
    5.3090    6.2730   16.4750 C   0  0  0  0  0  0  0  0  0  0  0  0
    4.2090    7.0480   16.8630 C   0  0  0  0  0  0  0  0  0  0  0  0
    3.5720    6.8110   18.0830 C   0  0  0  0  0  0  0  0  0  0  0  0
    4.0480    5.7810   18.9060 C   0  0  0  0  0  0  0  0  0  0  0  0
    5.1500    5.0080   18.5240 C   0  0  0  0  0  0  0  0  0  0  0  0
    5.7870    6.4700   15.5160 H   0  0  0  0  0  0  0  0  0  0  0  0
    3.8710    7.8230   16.1820 H   0  0  0  0  0  0  0  0  0  0  0  0
    3.5650    5.5620   19.8550 H   0  0  0  0  0  0  0  0  0  0  0  0
    5.4760    4.2000   19.1720 H   0  0  0  0  0  0  0  0  0  0  0  0
    7.9420    4.2020   17.7680 N   0  0  0  0  0  0  0  0  0  0  0  0
    6.9630    4.4640   16.8500 C   0  0  0  0  0  0  0  0  0  0  0  0
    7.0730    4.0850   15.6920 O   0  0  0  0  0  0  0  0  0  0  0  0
    8.7840    3.7810   17.3950 H   0  0  0  0  0  0  0  0  0  0  0  0
    8.0370    4.7440   18.6150 H   0  0  0  0  0  0  0  0  0  0  0  0
  1 10  1  0  0  0  0
  2  3  1  0  0  0  0
  2  1  2  0  0  0  0
  3  4  2  0  0  0  0
  4  5  1  0  0  0  0
  5  6  1  0  0  0  0
  6 12  1  0  0  0  0
  6  7  2  0  0  0  0
  7 13  1  0  0  0  0
  8  7  1  0  0  0  0
  8 14  1  0  0  0  0
  9  8  2  0  0  0  0
 10  5  2  0  0  0  0
 10  9  1  0  0  0  0
 11  2  1  0  0  0  0
 15  9  1  0  0  0  0
 16 21  1  0  0  0  0
 16  3  1  0  0  0  0
 17 16  2  0  0  0  0
 18 19  2  0  0  0  0
 18 17  1  0  0  0  0
 19 20  1  0  0  0  0
 20 21  2  0  0  0  0
 21 25  1  0  0  0  0
 22 17  1  0  0  0  0
 23 18  1  0  0  0  0
 24 19  1  0  0  0  0
 26 29  1  0  0  0  0
 27 26  1  0  0  0  0
 27  1  1  0  0  0  0
 28 27  2  0  0  0  0
 30 35  1  0  0  0  0
 31 32  1  0  0  0  0
 31 30  2  0  0  0  0
 32 33  2  0  0  0  0
 33 26  1  0  0  0  0
 33 34  1  0  0  0  0
 34 38  1  0  0  0  0
 35 34  2  0  0  0  0
 35 39  1  0  0  0  0
 36 31  1  0  0  0  0
 37 32  1  0  0  0  0
 40 44  1  0  0  0  0
 41 30  1  0  0  0  0
 41 40  1  0  0  0  0
 42 41  2  0  0  0  0
 43 40  1  0  0  0  0
M  END
>  <MODEL>
3

>  <REMARK>
 VINA RESULT:    -8.555      3.024      8.606
 INTER + INTRA:         -10.363
 INTER:                  -9.938
 INTRA:                  -0.425
 UNBOUND:                 0.192
  Name = 
  4 active torsions:
  status: ('A' for Active; 'I' for Inactive)
    1  A    between atoms: C_2  and  C_4
    2  A    between atoms: C_7  and  N_8
    3  A    between atoms: C_9  and  C_11
    4  A    between atoms: C_13  and  C_14
                            x       y       z     vdW  Elec       q    Type
                         _______ _______ _______ _____ _____    ______ ____

>  <TORSDO>
F 4

$$$$
=
 OpenBabel07192307433D

 44 47  0  0  0  0  0  0  0  0999 V2000
    0.0780   10.6120   18.8920 C   0  0  0  0  0  0  0  0  0  0  0  0
    0.2030   11.4600   19.9950 C   0  0  0  0  0  0  0  0  0  0  0  0
   -0.9100   12.1640   20.4190 C   0  0  0  0  0  0  0  0  0  0  0  0
   -2.1040   12.0260   19.7920 N   0  0  0  0  0  0  0  0  0  0  0  0
   -2.2150   11.2400   18.7080 C   0  0  0  0  0  0  0  0  0  0  0  0
   -3.4480   11.1620   18.0740 C   0  0  0  0  0  0  0  0  0  0  0  0
   -3.6450   10.3850   16.9300 C   0  0  0  0  0  0  0  0  0  0  0  0
   -2.5830    9.6710   16.3930 C   0  0  0  0  0  0  0  0  0  0  0  0
   -1.3370    9.7300   17.0130 C   0  0  0  0  0  0  0  0  0  0  0  0
   -1.1390   10.5010   18.1870 C   0  0  0  0  0  0  0  0  0  0  0  0
    1.1560   11.5360   20.5100 H   0  0  0  0  0  0  0  0  0  0  0  0
   -4.2820   11.7320   18.4780 H   0  0  0  0  0  0  0  0  0  0  0  0
   -4.6230   10.3550   16.4570 H   0  0  0  0  0  0  0  0  0  0  0  0
   -2.7210    9.0810   15.4910 H   0  0  0  0  0  0  0  0  0  0  0  0
   -0.5130    9.1840   16.5550 H   0  0  0  0  0  0  0  0  0  0  0  0
   -0.8950   13.0820   21.5730 C   0  0  0  0  0  0  0  0  0  0  0  0
   -1.7190   12.9180   22.6970 C   0  0  0  0  0  0  0  0  0  0  0  0
   -1.6650   13.8240   23.7580 C   0  0  0  0  0  0  0  0  0  0  0  0
   -0.7800   14.8830   23.6740 C   0  0  0  0  0  0  0  0  0  0  0  0
    0.0380   15.0870   22.6240 N   0  0  0  0  0  0  0  0  0  0  0  0
   -0.0350   14.1830   21.6120 C   0  0  0  0  0  0  0  0  0  0  0  0
   -2.4010   12.0760   22.7760 H   0  0  0  0  0  0  0  0  0  0  0  0
   -2.2970   13.7000   24.6310 H   0  0  0  0  0  0  0  0  0  0  0  0
   -0.7010   15.6150   24.4740 H   0  0  0  0  0  0  0  0  0  0  0  0
    0.6500   14.3840   20.7900 H   0  0  0  0  0  0  0  0  0  0  0  0
    1.3110    8.5570   19.0380 N   0  0  0  0  0  0  0  0  0  0  0  0
    1.2870    9.8400   18.5260 C   0  0  0  0  0  0  0  0  0  0  0  0
    2.1520   10.4070   17.8730 O   0  0  0  0  0  0  0  0  0  0  0  0
    0.5380    8.2910   19.6360 H   0  0  0  0  0  0  0  0  0  0  0  0
    4.2540    5.5540   18.6200 C   0  0  0  0  0  0  0  0  0  0  0  0
    4.1730    6.5720   17.6650 C   0  0  0  0  0  0  0  0  0  0  0  0
    3.2110    7.5830   17.7840 C   0  0  0  0  0  0  0  0  0  0  0  0
    2.3130    7.5830   18.8520 C   0  0  0  0  0  0  0  0  0  0  0  0
    2.3860    6.5510   19.7980 C   0  0  0  0  0  0  0  0  0  0  0  0
    3.3480    5.5410   19.6850 C   0  0  0  0  0  0  0  0  0  0  0  0
    4.8600    6.5870   16.8200 H   0  0  0  0  0  0  0  0  0  0  0  0
    3.1880    8.3510   17.0160 H   0  0  0  0  0  0  0  0  0  0  0  0
    1.6900    6.5140   20.6340 H   0  0  0  0  0  0  0  0  0  0  0  0
    3.3590    4.7410   20.4200 H   0  0  0  0  0  0  0  0  0  0  0  0
    5.2620    3.4440   19.3150 N   0  0  0  0  0  0  0  0  0  0  0  0
    5.2920    4.5030   18.4510 C   0  0  0  0  0  0  0  0  0  0  0  0
    6.1640    4.5900   17.5970 O   0  0  0  0  0  0  0  0  0  0  0  0
    6.0590    2.8200   19.2630 H   0  0  0  0  0  0  0  0  0  0  0  0
    4.7730    3.4910   20.1970 H   0  0  0  0  0  0  0  0  0  0  0  0
  1  2  1  0  0  0  0
  2  3  2  0  0  0  0
  2 11  1  0  0  0  0
  3 16  1  0  0  0  0
  4  3  1  0  0  0  0
  5  4  2  0  0  0  0
  6 12  1  0  0  0  0
  6  5  1  0  0  0  0
  7  6  2  0  0  0  0
  8  7  1  0  0  0  0
  8  9  2  0  0  0  0
  9 10  1  0  0  0  0
 10  5  1  0  0  0  0
 10  1  2  0  0  0  0
 13  7  1  0  0  0  0
 14  8  1  0  0  0  0
 15  9  1  0  0  0  0
 16 21  2  0  0  0  0
 16 17  1  0  0  0  0
 17 22  1  0  0  0  0
 17 18  2  0  0  0  0
 18 23  1  0  0  0  0
 19 18  1  0  0  0  0
 19 24  1  0  0  0  0
 20 19  2  0  0  0  0
 21 20  1  0  0  0  0
 25 21  1  0  0  0  0
 26 29  1  0  0  0  0
 27  1  1  0  0  0  0
 27 26  1  0  0  0  0
 28 27  2  0  0  0  0
 30 35  1  0  0  0  0
 31 32  1  0  0  0  0
 31 30  2  0  0  0  0
 32 33  2  0  0  0  0
 33 26  1  0  0  0  0
 33 34  1  0  0  0  0
 34 38  1  0  0  0  0
 35 34  2  0  0  0  0
 35 39  1  0  0  0  0
 36 31  1  0  0  0  0
 37 32  1  0  0  0  0
 40 44  1  0  0  0  0
 41 30  1  0  0  0  0
 41 40  1  0  0  0  0
 42 41  2  0  0  0  0
 43 40  1  0  0  0  0
M  END
>  <MODEL>
4

>  <REMARK>
 VINA RESULT:    -8.546      2.817      9.458
 INTER + INTRA:         -10.352
 INTER:                  -9.889
 INTRA:                  -0.463
 UNBOUND:                 0.192
  Name = 
  4 active torsions:
  status: ('A' for Active; 'I' for Inactive)
    1  A    between atoms: C_2  and  C_4
    2  A    between atoms: C_7  and  N_8
    3  A    between atoms: C_9  and  C_11
    4  A    between atoms: C_13  and  C_14
                            x       y       z     vdW  Elec       q    Type
                         _______ _______ _______ _____ _____    ______ ____

>  <TORSDO>
F 4

$$$$
=
 OpenBabel07192307433D

 44 47  0  0  0  0  0  0  0  0999 V2000
    3.8500    5.6960   17.5840 C   0  0  0  0  0  0  0  0  0  0  0  0
    4.6190    5.7170   16.4180 C   0  0  0  0  0  0  0  0  0  0  0  0
    4.9890    4.5140   15.8450 C   0  0  0  0  0  0  0  0  0  0  0  0
    4.6010    3.3340   16.3900 N   0  0  0  0  0  0  0  0  0  0  0  0
    3.8940    3.3120   17.5320 C   0  0  0  0  0  0  0  0  0  0  0  0
    3.5550    2.0800   18.0750 C   0  0  0  0  0  0  0  0  0  0  0  0
    2.8400    1.9680   19.2690 C   0  0  0  0  0  0  0  0  0  0  0  0
    2.4560    3.1130   19.9510 C   0  0  0  0  0  0  0  0  0  0  0  0
    2.7800    4.3620   19.4250 C   0  0  0  0  0  0  0  0  0  0  0  0
    3.4880    4.4800   18.2010 C   0  0  0  0  0  0  0  0  0  0  0  0
    4.8930    6.6690   15.9730 H   0  0  0  0  0  0  0  0  0  0  0  0
    3.8670    1.1750   17.5560 H   0  0  0  0  0  0  0  0  0  0  0  0
    2.6000    0.9850   19.6670 H   0  0  0  0  0  0  0  0  0  0  0  0
    1.9180    3.0370   20.8910 H   0  0  0  0  0  0  0  0  0  0  0  0
    2.4940    5.2450   19.9940 H   0  0  0  0  0  0  0  0  0  0  0  0
    5.7940    4.4170   14.6140 C   0  0  0  0  0  0  0  0  0  0  0  0
    5.4340    3.6150   13.5210 C   0  0  0  0  0  0  0  0  0  0  0  0
    6.2400    3.5590   12.3820 C   0  0  0  0  0  0  0  0  0  0  0  0
    7.3990    4.3130   12.3590 C   0  0  0  0  0  0  0  0  0  0  0  0
    7.7910    5.1050   13.3760 N   0  0  0  0  0  0  0  0  0  0  0  0
    6.9790    5.1410   14.4650 C   0  0  0  0  0  0  0  0  0  0  0  0
    4.5140    3.0360   13.5270 H   0  0  0  0  0  0  0  0  0  0  0  0
    5.9650    2.9440   11.5330 H   0  0  0  0  0  0  0  0  0  0  0  0
    8.0590    4.3040   11.4960 H   0  0  0  0  0  0  0  0  0  0  0  0
    7.3330    5.8000   15.2570 H   0  0  0  0  0  0  0  0  0  0  0  0
    2.3050    6.9710   18.9080 N   0  0  0  0  0  0  0  0  0  0  0  0
    3.4350    7.0150   18.1130 C   0  0  0  0  0  0  0  0  0  0  0  0
    4.0730    7.9990   17.7650 O   0  0  0  0  0  0  0  0  0  0  0  0
    1.8570    6.0680   19.0120 H   0  0  0  0  0  0  0  0  0  0  0  0
    0.4440   10.1220   21.0200 C   0  0  0  0  0  0  0  0  0  0  0  0
    0.7020   10.2710   19.6540 C   0  0  0  0  0  0  0  0  0  0  0  0
    1.3120    9.2390   18.9290 C   0  0  0  0  0  0  0  0  0  0  0  0
    1.6800    8.0510   19.5630 C   0  0  0  0  0  0  0  0  0  0  0  0
    1.4360    7.9130   20.9360 C   0  0  0  0  0  0  0  0  0  0  0  0
    0.8230    8.9390   21.6630 C   0  0  0  0  0  0  0  0  0  0  0  0
    0.4290   11.1920   19.1420 H   0  0  0  0  0  0  0  0  0  0  0  0
    1.4920    9.4030   17.8710 H   0  0  0  0  0  0  0  0  0  0  0  0
    1.7240    7.0050   21.4620 H   0  0  0  0  0  0  0  0  0  0  0  0
    0.6740    8.8100   22.7310 H   0  0  0  0  0  0  0  0  0  0  0  0
   -0.6400   11.0040   23.0200 N   0  0  0  0  0  0  0  0  0  0  0  0
   -0.2050   11.2450   21.7460 C   0  0  0  0  0  0  0  0  0  0  0  0
   -0.3800   12.3370   21.2220 O   0  0  0  0  0  0  0  0  0  0  0  0
   -1.1970   11.7410   23.4350 H   0  0  0  0  0  0  0  0  0  0  0  0
   -0.7940   10.0660   23.3610 H   0  0  0  0  0  0  0  0  0  0  0  0
  1 27  1  0  0  0  0
  1 10  1  0  0  0  0
  2  1  2  0  0  0  0
  3  4  2  0  0  0  0
  3  2  1  0  0  0  0
  4  5  1  0  0  0  0
  5  6  2  0  0  0  0
  5 10  1  0  0  0  0
  6  7  1  0  0  0  0
  7 13  1  0  0  0  0
  7  8  2  0  0  0  0
  8 14  1  0  0  0  0
  9  8  1  0  0  0  0
  9 15  1  0  0  0  0
 10  9  2  0  0  0  0
 11  2  1  0  0  0  0
 12  6  1  0  0  0  0
 16  3  1  0  0  0  0
 17 22  1  0  0  0  0
 17 16  2  0  0  0  0
 18 17  1  0  0  0  0
 19 18  2  0  0  0  0
 19 20  1  0  0  0  0
 20 21  2  0  0  0  0
 21 16  1  0  0  0  0
 21 25  1  0  0  0  0
 23 18  1  0  0  0  0
 24 19  1  0  0  0  0
 26 29  1  0  0  0  0
 26 33  1  0  0  0  0
 27 26  1  0  0  0  0
 28 27  2  0  0  0  0
 30 35  1  0  0  0  0
 30 41  1  0  0  0  0
 31 30  2  0  0  0  0
 32 33  2  0  0  0  0
 32 31  1  0  0  0  0
 33 34  1  0  0  0  0
 34 38  1  0  0  0  0
 34 35  2  0  0  0  0
 35 39  1  0  0  0  0
 36 31  1  0  0  0  0
 37 32  1  0  0  0  0
 40 44  1  0  0  0  0
 40 43  1  0  0  0  0
 41 40  1  0  0  0  0
 42 41  2  0  0  0  0
M  END
>  <MODEL>
5

>  <REMARK>
 VINA RESULT:    -8.409      1.951      2.290
 INTER + INTRA:         -10.183
 INTER:                 -10.241
 INTRA:                   0.058
 UNBOUND:                 0.192
  Name = 
  4 active torsions:
  status: ('A' for Active; 'I' for Inactive)
    1  A    between atoms: C_2  and  C_4
    2  A    between atoms: C_7  and  N_8
    3  A    between atoms: C_9  and  C_11
    4  A    between atoms: C_13  and  C_14
                            x       y       z     vdW  Elec       q    Type
                         _______ _______ _______ _____ _____    ______ ____

>  <TORSDO>
F 4

$$$$
=
 OpenBabel07192307433D

 44 47  0  0  0  0  0  0  0  0999 V2000
    0.4640   10.9310   19.3250 C   0  0  0  0  0  0  0  0  0  0  0  0
   -0.6480   10.9570   20.1690 C   0  0  0  0  0  0  0  0  0  0  0  0
   -1.0690   12.1730   20.6750 C   0  0  0  0  0  0  0  0  0  0  0  0
   -0.4300   13.3240   20.3480 N   0  0  0  0  0  0  0  0  0  0  0  0
    0.6630   13.2950   19.5680 C   0  0  0  0  0  0  0  0  0  0  0  0
    1.3090   14.4940   19.2930 C   0  0  0  0  0  0  0  0  0  0  0  0
    2.4630   14.5500   18.5090 C   0  0  0  0  0  0  0  0  0  0  0  0
    2.9980   13.3810   17.9860 C   0  0  0  0  0  0  0  0  0  0  0  0
    2.3650   12.1660   18.2430 C   0  0  0  0  0  0  0  0  0  0  0  0
    1.1810   12.1070   19.0220 C   0  0  0  0  0  0  0  0  0  0  0  0
   -1.1730   10.0330   20.3950 H   0  0  0  0  0  0  0  0  0  0  0  0
    0.9070   15.4130   19.7130 H   0  0  0  0  0  0  0  0  0  0  0  0
    2.9450   15.5070   18.3220 H   0  0  0  0  0  0  0  0  0  0  0  0
    3.9070   13.4120   17.3920 H   0  0  0  0  0  0  0  0  0  0  0  0
    2.8210   11.2600   17.8470 H   0  0  0  0  0  0  0  0  0  0  0  0
   -2.2330   12.3200   21.5690 C   0  0  0  0  0  0  0  0  0  0  0  0
   -2.1750   12.0870   22.9510 C   0  0  0  0  0  0  0  0  0  0  0  0
   -3.3130   12.2370   23.7470 C   0  0  0  0  0  0  0  0  0  0  0  0
   -4.4940   12.6200   23.1390 C   0  0  0  0  0  0  0  0  0  0  0  0
   -4.6070   12.8620   21.8190 N   0  0  0  0  0  0  0  0  0  0  0  0
   -3.4790   12.7150   21.0760 C   0  0  0  0  0  0  0  0  0  0  0  0
   -1.2440   11.8060   23.4350 H   0  0  0  0  0  0  0  0  0  0  0  0
   -3.2730   12.0620   24.8160 H   0  0  0  0  0  0  0  0  0  0  0  0
   -5.4070   12.7500   23.7150 H   0  0  0  0  0  0  0  0  0  0  0  0
   -3.6180   12.9290   20.0170 H   0  0  0  0  0  0  0  0  0  0  0  0
    1.7460    8.9110   19.5290 N   0  0  0  0  0  0  0  0  0  0  0  0
    0.8280    9.6080   18.7680 C   0  0  0  0  0  0  0  0  0  0  0  0
    0.3430    9.2870   17.6920 O   0  0  0  0  0  0  0  0  0  0  0  0
    2.1050    9.3810   20.3520 H   0  0  0  0  0  0  0  0  0  0  0  0
    3.2420    5.0110   18.8950 C   0  0  0  0  0  0  0  0  0  0  0  0
    3.5170    6.0110   17.9580 C   0  0  0  0  0  0  0  0  0  0  0  0
    3.0380    7.3130   18.1470 C   0  0  0  0  0  0  0  0  0  0  0  0
    2.2710    7.6290   19.2700 C   0  0  0  0  0  0  0  0  0  0  0  0
    1.9830    6.6190   20.1980 C   0  0  0  0  0  0  0  0  0  0  0  0
    2.4620    5.3170   20.0150 C   0  0  0  0  0  0  0  0  0  0  0  0
    4.1080    5.7840   17.0710 H   0  0  0  0  0  0  0  0  0  0  0  0
    3.2780    8.0550   17.3910 H   0  0  0  0  0  0  0  0  0  0  0  0
    1.3750    6.8290   21.0760 H   0  0  0  0  0  0  0  0  0  0  0  0
    2.1970    4.5530   20.7380 H   0  0  0  0  0  0  0  0  0  0  0  0
    4.9820    3.3280   19.2010 N   0  0  0  0  0  0  0  0  0  0  0  0
    3.7710    3.6430   18.6490 C   0  0  0  0  0  0  0  0  0  0  0  0
    3.1720    2.8350   17.9520 O   0  0  0  0  0  0  0  0  0  0  0  0
    5.3770    2.4450   18.9030 H   0  0  0  0  0  0  0  0  0  0  0  0
    5.6290    4.0410   19.5060 H   0  0  0  0  0  0  0  0  0  0  0  0
  1  2  1  0  0  0  0
  2 11  1  0  0  0  0
  2  3  2  0  0  0  0
  3 16  1  0  0  0  0
  4  3  1  0  0  0  0
  5  4  2  0  0  0  0
  6  5  1  0  0  0  0
  6 12  1  0  0  0  0
  7  6  2  0  0  0  0
  8  9  2  0  0  0  0
  8  7  1  0  0  0  0
  9 10  1  0  0  0  0
 10  1  2  0  0  0  0
 10  5  1  0  0  0  0
 13  7  1  0  0  0  0
 14  8  1  0  0  0  0
 15  9  1  0  0  0  0
 16 17  1  0  0  0  0
 17 22  1  0  0  0  0
 17 18  2  0  0  0  0
 18 23  1  0  0  0  0
 19 24  1  0  0  0  0
 19 18  1  0  0  0  0
 20 19  2  0  0  0  0
 21 16  2  0  0  0  0
 21 20  1  0  0  0  0
 25 21  1  0  0  0  0
 26 29  1  0  0  0  0
 27  1  1  0  0  0  0
 27 26  1  0  0  0  0
 28 27  2  0  0  0  0
 30 35  1  0  0  0  0
 31 32  1  0  0  0  0
 31 30  2  0  0  0  0
 32 33  2  0  0  0  0
 33 26  1  0  0  0  0
 33 34  1  0  0  0  0
 34 38  1  0  0  0  0
 35 34  2  0  0  0  0
 35 39  1  0  0  0  0
 36 31  1  0  0  0  0
 37 32  1  0  0  0  0
 40 44  1  0  0  0  0
 41 30  1  0  0  0  0
 41 40  1  0  0  0  0
 42 41  2  0  0  0  0
 43 40  1  0  0  0  0
M  END
>  <MODEL>
6

>  <REMARK>
 VINA RESULT:    -8.319      2.872     10.030
 INTER + INTRA:         -10.072
 INTER:                  -9.344
 INTRA:                  -0.728
 UNBOUND:                 0.192
  Name = 
  4 active torsions:
  status: ('A' for Active; 'I' for Inactive)
    1  A    between atoms: C_2  and  C_4
    2  A    between atoms: C_7  and  N_8
    3  A    between atoms: C_9  and  C_11
    4  A    between atoms: C_13  and  C_14
                            x       y       z     vdW  Elec       q    Type
                         _______ _______ _______ _____ _____    ______ ____

>  <TORSDO>
F 4

$$$$
=
 OpenBabel07192307433D

 44 47  0  0  0  0  0  0  0  0999 V2000
    0.5110   11.3960   19.8930 C   0  0  0  0  0  0  0  0  0  0  0  0
   -0.4280   11.5210   20.9200 C   0  0  0  0  0  0  0  0  0  0  0  0
   -0.6150   12.7630   21.4990 C   0  0  0  0  0  0  0  0  0  0  0  0
    0.0830   13.8440   21.0730 N   0  0  0  0  0  0  0  0  0  0  0  0
    1.0140   13.7170   20.1110 C   0  0  0  0  0  0  0  0  0  0  0  0
    1.7320   14.8440   19.7350 C   0  0  0  0  0  0  0  0  0  0  0  0
    2.7300   14.7940   18.7600 C   0  0  0  0  0  0  0  0  0  0  0  0
    3.0310   13.5880   18.1440 C   0  0  0  0  0  0  0  0  0  0  0  0
    2.3210   12.4440   18.5000 C   0  0  0  0  0  0  0  0  0  0  0  0
    1.2920   12.4940   19.4760 C   0  0  0  0  0  0  0  0  0  0  0  0
   -1.0050   10.6540   21.2280 H   0  0  0  0  0  0  0  0  0  0  0  0
    1.5150   15.7910   20.2260 H   0  0  0  0  0  0  0  0  0  0  0  0
    3.2770   15.6970   18.4980 H   0  0  0  0  0  0  0  0  0  0  0  0
    3.8200   13.5350   17.3990 H   0  0  0  0  0  0  0  0  0  0  0  0
    2.5950   11.5040   18.0240 H   0  0  0  0  0  0  0  0  0  0  0  0
   -1.5800   13.0120   22.5850 C   0  0  0  0  0  0  0  0  0  0  0  0
   -2.6940   12.1940   22.8270 C   0  0  0  0  0  0  0  0  0  0  0  0
   -3.5780   12.4840   23.8680 C   0  0  0  0  0  0  0  0  0  0  0  0
   -3.3280   13.5940   24.6540 C   0  0  0  0  0  0  0  0  0  0  0  0
   -2.2720   14.4100   24.4720 N   0  0  0  0  0  0  0  0  0  0  0  0
   -1.4280   14.0950   23.4550 C   0  0  0  0  0  0  0  0  0  0  0  0
   -2.8830   11.3090   22.2250 H   0  0  0  0  0  0  0  0  0  0  0  0
   -4.4390   11.8530   24.0620 H   0  0  0  0  0  0  0  0  0  0  0  0
   -3.9860   13.8620   25.4760 H   0  0  0  0  0  0  0  0  0  0  0  0
   -0.5870   14.7790   23.3520 H   0  0  0  0  0  0  0  0  0  0  0  0
    1.5190    9.2160   19.9010 N   0  0  0  0  0  0  0  0  0  0  0  0
    0.6200   10.0560   19.2710 C   0  0  0  0  0  0  0  0  0  0  0  0
   -0.0290    9.8410   18.2570 O   0  0  0  0  0  0  0  0  0  0  0  0
    2.0350    9.6050   20.6820 H   0  0  0  0  0  0  0  0  0  0  0  0
    2.3900    5.1760   19.0220 C   0  0  0  0  0  0  0  0  0  0  0  0
    2.6060    6.1530   18.0450 C   0  0  0  0  0  0  0  0  0  0  0  0
    2.3310    7.4990   18.3130 C   0  0  0  0  0  0  0  0  0  0  0  0
    1.8290    7.8850   19.5560 C   0  0  0  0  0  0  0  0  0  0  0  0
    1.5970    6.9020   20.5280 C   0  0  0  0  0  0  0  0  0  0  0  0
    1.8730    5.5560   20.2660 C   0  0  0  0  0  0  0  0  0  0  0  0
    2.9910    5.8720   17.0660 H   0  0  0  0  0  0  0  0  0  0  0  0
    2.5150    8.2200   17.5210 H   0  0  0  0  0  0  0  0  0  0  0  0
    1.1910    7.1680   21.5010 H   0  0  0  0  0  0  0  0  0  0  0  0
    1.6550    4.8160   21.0300 H   0  0  0  0  0  0  0  0  0  0  0  0
    2.1030    3.2320   17.5770 N   0  0  0  0  0  0  0  0  0  0  0  0
    2.6960    3.7600   18.6910 C   0  0  0  0  0  0  0  0  0  0  0  0
    3.4210    3.0740   19.3980 O   0  0  0  0  0  0  0  0  0  0  0  0
    2.2200    2.2340   17.4560 H   0  0  0  0  0  0  0  0  0  0  0  0
    1.2850    3.6520   17.1600 H   0  0  0  0  0  0  0  0  0  0  0  0
  1  2  1  0  0  0  0
  2 11  1  0  0  0  0
  2  3  2  0  0  0  0
  3 16  1  0  0  0  0
  4  3  1  0  0  0  0
  5  4  2  0  0  0  0
  6  5  1  0  0  0  0
  6 12  1  0  0  0  0
  7  6  2  0  0  0  0
  8  9  2  0  0  0  0
  8  7  1  0  0  0  0
  9 10  1  0  0  0  0
 10  1  2  0  0  0  0
 10  5  1  0  0  0  0
 13  7  1  0  0  0  0
 14  8  1  0  0  0  0
 15  9  1  0  0  0  0
 16 17  2  0  0  0  0
 16 21  1  0  0  0  0
 17 18  1  0  0  0  0
 18 23  1  0  0  0  0
 18 19  2  0  0  0  0
 19 24  1  0  0  0  0
 20 19  1  0  0  0  0
 21 20  2  0  0  0  0
 22 17  1  0  0  0  0
 25 21  1  0  0  0  0
 26 29  1  0  0  0  0
 27  1  1  0  0  0  0
 27 26  1  0  0  0  0
 28 27  2  0  0  0  0
 30 35  1  0  0  0  0
 31 32  1  0  0  0  0
 31 30  2  0  0  0  0
 32 33  2  0  0  0  0
 33 26  1  0  0  0  0
 33 34  1  0  0  0  0
 34 38  1  0  0  0  0
 35 34  2  0  0  0  0
 35 39  1  0  0  0  0
 36 31  1  0  0  0  0
 37 32  1  0  0  0  0
 40 41  1  0  0  0  0
 41 30  1  0  0  0  0
 41 42  2  0  0  0  0
 43 40  1  0  0  0  0
 44 40  1  0  0  0  0
M  END
>  <MODEL>
7

>  <REMARK>
 VINA RESULT:    -7.976      3.131     10.219
 INTER + INTRA:          -9.648
 INTER:                  -8.903
 INTRA:                  -0.746
 UNBOUND:                 0.192
  Name = 
  4 active torsions:
  status: ('A' for Active; 'I' for Inactive)
    1  A    between atoms: C_2  and  C_4
    2  A    between atoms: C_7  and  N_8
    3  A    between atoms: C_9  and  C_11
    4  A    between atoms: C_13  and  C_14
                            x       y       z     vdW  Elec       q    Type
                         _______ _______ _______ _____ _____    ______ ____

>  <TORSDO>
F 4

$$$$
=
 OpenBabel07192307433D

 44 47  0  0  0  0  0  0  0  0999 V2000
    0.8720   10.1940   18.7100 C   0  0  0  0  0  0  0  0  0  0  0  0
    1.5630   11.1310   19.4810 C   0  0  0  0  0  0  0  0  0  0  0  0
    0.9000   12.2760   19.8850 C   0  0  0  0  0  0  0  0  0  0  0  0
   -0.4000   12.4820   19.5580 N   0  0  0  0  0  0  0  0  0  0  0  0
   -1.0530   11.5990   18.7830 C   0  0  0  0  0  0  0  0  0  0  0  0
   -2.3710   11.8720   18.4400 C   0  0  0  0  0  0  0  0  0  0  0  0
   -3.1150   11.0190   17.6220 C   0  0  0  0  0  0  0  0  0  0  0  0
   -2.5320    9.8620   17.1240 C   0  0  0  0  0  0  0  0  0  0  0  0
   -1.2130    9.5630   17.4590 C   0  0  0  0  0  0  0  0  0  0  0  0
   -0.4600   10.4170   18.3050 C   0  0  0  0  0  0  0  0  0  0  0  0
    2.5930   10.9380   19.7660 H   0  0  0  0  0  0  0  0  0  0  0  0
   -2.8300   12.7860   18.8120 H   0  0  0  0  0  0  0  0  0  0  0  0
   -4.1420   11.2700   17.3680 H   0  0  0  0  0  0  0  0  0  0  0  0
   -3.0960    9.2020   16.4710 H   0  0  0  0  0  0  0  0  0  0  0  0
   -0.7690    8.6650   17.0310 H   0  0  0  0  0  0  0  0  0  0  0  0
    1.5270   13.3280   20.7050 C   0  0  0  0  0  0  0  0  0  0  0  0
    0.7940   14.2520   21.4640 C   0  0  0  0  0  0  0  0  0  0  0  0
    1.4440   15.2310   22.2180 C   0  0  0  0  0  0  0  0  0  0  0  0
    2.8270   15.2670   22.1970 C   0  0  0  0  0  0  0  0  0  0  0  0
    3.5820   14.4020   21.4920 N   0  0  0  0  0  0  0  0  0  0  0  0
    2.9170   13.4580   20.7770 C   0  0  0  0  0  0  0  0  0  0  0  0
   -0.2920   14.2150   21.4990 H   0  0  0  0  0  0  0  0  0  0  0  0
    0.8830   15.9460   22.8090 H   0  0  0  0  0  0  0  0  0  0  0  0
    3.3790   16.0090   22.7670 H   0  0  0  0  0  0  0  0  0  0  0  0
    3.5690   12.7790   20.2310 H   0  0  0  0  0  0  0  0  0  0  0  0
    1.5340    7.9660   19.3140 N   0  0  0  0  0  0  0  0  0  0  0  0
    1.6170    8.9630   18.3610 C   0  0  0  0  0  0  0  0  0  0  0  0
    2.2640    8.9600   17.3230 O   0  0  0  0  0  0  0  0  0  0  0  0
    1.0190    8.1860   20.1590 H   0  0  0  0  0  0  0  0  0  0  0  0
    3.2190    4.0920   19.3150 C   0  0  0  0  0  0  0  0  0  0  0  0
    3.3510    4.8970   18.1800 C   0  0  0  0  0  0  0  0  0  0  0  0
    2.8080    6.1870   18.1560 C   0  0  0  0  0  0  0  0  0  0  0  0
    2.1170    6.6840   19.2620 C   0  0  0  0  0  0  0  0  0  0  0  0
    1.9710    5.8680   20.3920 C   0  0  0  0  0  0  0  0  0  0  0  0
    2.5160    4.5790   20.4220 C   0  0  0  0  0  0  0  0  0  0  0  0
    3.8810    4.5250   17.3040 H   0  0  0  0  0  0  0  0  0  0  0  0
    2.9360    6.7730   17.2510 H   0  0  0  0  0  0  0  0  0  0  0  0
    1.4250    6.2200   21.2650 H   0  0  0  0  0  0  0  0  0  0  0  0
    2.3610    3.9630   21.3020 H   0  0  0  0  0  0  0  0  0  0  0  0
    5.0440    2.5690   19.8680 N   0  0  0  0  0  0  0  0  0  0  0  0
    3.8130    2.7290   19.2920 C   0  0  0  0  0  0  0  0  0  0  0  0
    3.2480    1.7880   18.7510 O   0  0  0  0  0  0  0  0  0  0  0  0
    5.4790    1.6670   19.7150 H   0  0  0  0  0  0  0  0  0  0  0  0
    5.6580    3.3520   20.0380 H   0  0  0  0  0  0  0  0  0  0  0  0
  1  2  1  0  0  0  0
  2 11  1  0  0  0  0
  2  3  2  0  0  0  0
  3 16  1  0  0  0  0
  4  3  1  0  0  0  0
  5  4  2  0  0  0  0
  6  5  1  0  0  0  0
  6 12  1  0  0  0  0
  7  6  2  0  0  0  0
  8  9  2  0  0  0  0
  8  7  1  0  0  0  0
  9 10  1  0  0  0  0
 10  1  2  0  0  0  0
 10  5  1  0  0  0  0
 13  7  1  0  0  0  0
 14  8  1  0  0  0  0
 15  9  1  0  0  0  0
 16 21  2  0  0  0  0
 16 17  1  0  0  0  0
 17 22  1  0  0  0  0
 17 18  2  0  0  0  0
 18 23  1  0  0  0  0
 19 18  1  0  0  0  0
 19 24  1  0  0  0  0
 20 19  2  0  0  0  0
 21 20  1  0  0  0  0
 25 21  1  0  0  0  0
 26 29  1  0  0  0  0
 27  1  1  0  0  0  0
 27 26  1  0  0  0  0
 28 27  2  0  0  0  0
 30 35  1  0  0  0  0
 31 30  2  0  0  0  0
 32 31  1  0  0  0  0
 32 33  2  0  0  0  0
 33 26  1  0  0  0  0
 33 34  1  0  0  0  0
 34 35  2  0  0  0  0
 34 38  1  0  0  0  0
 35 39  1  0  0  0  0
 36 31  1  0  0  0  0
 37 32  1  0  0  0  0
 40 44  1  0  0  0  0
 41 30  1  0  0  0  0
 41 40  1  0  0  0  0
 42 41  2  0  0  0  0
 43 40  1  0  0  0  0
M  END
>  <MODEL>
8

>  <REMARK>
 VINA RESULT:    -7.815      2.856      9.061
 INTER + INTRA:          -9.450
 INTER:                  -9.034
 INTRA:                  -0.416
 UNBOUND:                 0.192
  Name = 
  4 active torsions:
  status: ('A' for Active; 'I' for Inactive)
    1  A    between atoms: C_2  and  C_4
    2  A    between atoms: C_7  and  N_8
    3  A    between atoms: C_9  and  C_11
    4  A    between atoms: C_13  and  C_14
                            x       y       z     vdW  Elec       q    Type
                         _______ _______ _______ _____ _____    ______ ____

>  <TORSDO>
F 4

$$$$
=
 OpenBabel07192307433D

 44 47  0  0  0  0  0  0  0  0999 V2000
    0.4890   10.6350   19.6840 C   0  0  0  0  0  0  0  0  0  0  0  0
   -0.7460   10.4510   19.0580 C   0  0  0  0  0  0  0  0  0  0  0  0
   -1.4210   11.5610   18.5830 C   0  0  0  0  0  0  0  0  0  0  0  0
   -0.8920   12.8030   18.7030 N   0  0  0  0  0  0  0  0  0  0  0  0
    0.2780   12.9850   19.3400 C   0  0  0  0  0  0  0  0  0  0  0  0
    0.7610   14.2800   19.4750 C   0  0  0  0  0  0  0  0  0  0  0  0
    1.9570   14.5580   20.1400 C   0  0  0  0  0  0  0  0  0  0  0  0
    2.6930   13.5220   20.6950 C   0  0  0  0  0  0  0  0  0  0  0  0
    2.2330   12.2130   20.5680 C   0  0  0  0  0  0  0  0  0  0  0  0
    1.0290   11.9240   19.8750 C   0  0  0  0  0  0  0  0  0  0  0  0
   -1.1430    9.4470   18.9370 H   0  0  0  0  0  0  0  0  0  0  0  0
    0.1810   15.1010   19.0580 H   0  0  0  0  0  0  0  0  0  0  0  0
    2.2990   15.5870   20.2330 H   0  0  0  0  0  0  0  0  0  0  0  0
    3.6140   13.7300   21.2320 H   0  0  0  0  0  0  0  0  0  0  0  0
    2.8130   11.4200   21.0370 H   0  0  0  0  0  0  0  0  0  0  0  0
   -2.7260   11.4850   17.9020 C   0  0  0  0  0  0  0  0  0  0  0  0
   -3.9390   11.8120   18.5260 C   0  0  0  0  0  0  0  0  0  0  0  0
   -5.1470   11.7150   17.8310 C   0  0  0  0  0  0  0  0  0  0  0  0
   -5.1160   11.2900   16.5150 C   0  0  0  0  0  0  0  0  0  0  0  0
   -3.9810   10.9690   15.8640 N   0  0  0  0  0  0  0  0  0  0  0  0
   -2.8240   11.0820   16.5670 C   0  0  0  0  0  0  0  0  0  0  0  0
   -3.9660   12.1650   19.5530 H   0  0  0  0  0  0  0  0  0  0  0  0
   -6.0870   11.9700   18.3060 H   0  0  0  0  0  0  0  0  0  0  0  0
   -6.0280   11.1980   15.9320 H   0  0  0  0  0  0  0  0  0  0  0  0
   -1.9340   10.8190   15.9970 H   0  0  0  0  0  0  0  0  0  0  0  0
    1.6120    8.6020   19.0720 N   0  0  0  0  0  0  0  0  0  0  0  0
    1.1890    9.4040   20.1150 C   0  0  0  0  0  0  0  0  0  0  0  0
    1.2770    9.1850   21.3150 O   0  0  0  0  0  0  0  0  0  0  0  0
    1.3680    8.9070   18.1360 H   0  0  0  0  0  0  0  0  0  0  0  0
    3.8160    5.0000   19.2090 C   0  0  0  0  0  0  0  0  0  0  0  0
    2.8220    5.2320   20.1640 C   0  0  0  0  0  0  0  0  0  0  0  0
    2.0720    6.4150   20.1360 C   0  0  0  0  0  0  0  0  0  0  0  0
    2.3150    7.3840   19.1620 C   0  0  0  0  0  0  0  0  0  0  0  0
    3.3250    7.1560   18.2170 C   0  0  0  0  0  0  0  0  0  0  0  0
    4.0730    5.9740   18.2380 C   0  0  0  0  0  0  0  0  0  0  0  0
    2.6210    4.4920   20.9370 H   0  0  0  0  0  0  0  0  0  0  0  0
    1.3120    6.5480   20.9000 H   0  0  0  0  0  0  0  0  0  0  0  0
    3.5480    7.8980   17.4540 H   0  0  0  0  0  0  0  0  0  0  0  0
    4.8670    5.8410   17.5090 H   0  0  0  0  0  0  0  0  0  0  0  0
    5.8900    3.7610   18.8720 N   0  0  0  0  0  0  0  0  0  0  0  0
    4.5850    3.7300   19.2790 C   0  0  0  0  0  0  0  0  0  0  0  0
    4.0710    2.6840   19.6520 O   0  0  0  0  0  0  0  0  0  0  0  0
    6.3430    2.8580   18.8010 H   0  0  0  0  0  0  0  0  0  0  0  0
    6.2470    4.5000   18.2840 H   0  0  0  0  0  0  0  0  0  0  0  0
  1 10  1  0  0  0  0
  1 27  1  0  0  0  0
  2  1  2  0  0  0  0
  3  4  2  0  0  0  0
  3  2  1  0  0  0  0
  4  5  1  0  0  0  0
  5  6  2  0  0  0  0
  5 10  1  0  0  0  0
  6  7  1  0  0  0  0
  7 13  1  0  0  0  0
  7  8  2  0  0  0  0
  8 14  1  0  0  0  0
  9  8  1  0  0  0  0
  9 15  1  0  0  0  0
 10  9  2  0  0  0  0
 11  2  1  0  0  0  0
 12  6  1  0  0  0  0
 16 17  1  0  0  0  0
 16  3  1  0  0  0  0
 17 22  1  0  0  0  0
 18 23  1  0  0  0  0
 18 17  2  0  0  0  0
 19 18  1  0  0  0  0
 20 19  2  0  0  0  0
 20 21  1  0  0  0  0
 21 16  2  0  0  0  0
 24 19  1  0  0  0  0
 25 21  1  0  0  0  0
 26 33  1  0  0  0  0
 26 27  1  0  0  0  0
 27 28  2  0  0  0  0
 29 26  1  0  0  0  0
 30 41  1  0  0  0  0
 30 31  1  0  0  0  0
 31 36  1  0  0  0  0
 32 31  2  0  0  0  0
 32 37  1  0  0  0  0
 33 32  1  0  0  0  0
 34 35  1  0  0  0  0
 34 33  2  0  0  0  0
 35 30  2  0  0  0  0
 38 34  1  0  0  0  0
 39 35  1  0  0  0  0
 40 41  1  0  0  0  0
 41 42  2  0  0  0  0
 43 40  1  0  0  0  0
 44 40  1  0  0  0  0
M  END
>  <MODEL>
9

>  <REMARK>
 VINA RESULT:    -7.768      2.802      9.376
 INTER + INTRA:          -9.392
 INTER:                  -8.928
 INTRA:                  -0.464
 UNBOUND:                 0.192
  Name = 
  4 active torsions:
  status: ('A' for Active; 'I' for Inactive)
    1  A    between atoms: C_2  and  C_4
    2  A    between atoms: C_7  and  N_8
    3  A    between atoms: C_9  and  C_11
    4  A    between atoms: C_13  and  C_14
                            x       y       z     vdW  Elec       q    Type
                         _______ _______ _______ _____ _____    ______ ____

>  <TORSDO>
F 4

$$$$
=
 OpenBabel07192307433D

 44 47  0  0  0  0  0  0  0  0999 V2000
    3.0420    6.1730   18.8190 C   0  0  0  0  0  0  0  0  0  0  0  0
    2.4050    7.3500   19.2190 C   0  0  0  0  0  0  0  0  0  0  0  0
    1.6780    7.3440   20.3960 C   0  0  0  0  0  0  0  0  0  0  0  0
    1.5960    6.2260   21.1600 N   0  0  0  0  0  0  0  0  0  0  0  0
    2.1760    5.0830   20.7560 C   0  0  0  0  0  0  0  0  0  0  0  0
    2.0310    3.9540   21.5500 C   0  0  0  0  0  0  0  0  0  0  0  0
    2.5830    2.7220   21.1940 C   0  0  0  0  0  0  0  0  0  0  0  0
    3.2960    2.6040   20.0090 C   0  0  0  0  0  0  0  0  0  0  0  0
    3.4600    3.7240   19.1970 C   0  0  0  0  0  0  0  0  0  0  0  0
    2.9180    4.9820   19.5660 C   0  0  0  0  0  0  0  0  0  0  0  0
    2.5070    8.2470   18.6160 H   0  0  0  0  0  0  0  0  0  0  0  0
    1.4590    4.0320   22.4730 H   0  0  0  0  0  0  0  0  0  0  0  0
    2.4410    1.8570   21.8380 H   0  0  0  0  0  0  0  0  0  0  0  0
    3.7120    1.6450   19.7130 H   0  0  0  0  0  0  0  0  0  0  0  0
    3.9980    3.6000   18.2580 H   0  0  0  0  0  0  0  0  0  0  0  0
    0.9710    8.5280   20.9170 C   0  0  0  0  0  0  0  0  0  0  0  0
    0.4850    8.6180   22.2300 C   0  0  0  0  0  0  0  0  0  0  0  0
   -0.1820    9.7650   22.6650 C   0  0  0  0  0  0  0  0  0  0  0  0
   -0.3510   10.8070   21.7720 C   0  0  0  0  0  0  0  0  0  0  0  0
    0.0990   10.7780   20.5030 N   0  0  0  0  0  0  0  0  0  0  0  0
    0.7510    9.6510   20.1150 C   0  0  0  0  0  0  0  0  0  0  0  0
    0.6340    7.8100   22.9410 H   0  0  0  0  0  0  0  0  0  0  0  0
   -0.5570    9.8420   23.6800 H   0  0  0  0  0  0  0  0  0  0  0  0
   -0.8640   11.7200   22.0630 H   0  0  0  0  0  0  0  0  0  0  0  0
    1.1030    9.6770   19.0840 H   0  0  0  0  0  0  0  0  0  0  0  0
    4.2530    5.0340   17.0860 N   0  0  0  0  0  0  0  0  0  0  0  0
    3.8530    6.2600   17.5840 C   0  0  0  0  0  0  0  0  0  0  0  0
    4.1370    7.3720   17.1620 O   0  0  0  0  0  0  0  0  0  0  0  0
    3.9930    4.2170   17.6270 H   0  0  0  0  0  0  0  0  0  0  0  0
    6.4100    4.2090   13.5480 C   0  0  0  0  0  0  0  0  0  0  0  0
    6.9570    5.0750   14.4990 C   0  0  0  0  0  0  0  0  0  0  0  0
    6.2660    5.3600   15.6830 C   0  0  0  0  0  0  0  0  0  0  0  0
    5.0150    4.7910   15.9260 C   0  0  0  0  0  0  0  0  0  0  0  0
    4.4610    3.9380   14.9620 C   0  0  0  0  0  0  0  0  0  0  0  0
    5.1500    3.6470   13.7800 C   0  0  0  0  0  0  0  0  0  0  0  0
    7.9300    5.5350   14.3250 H   0  0  0  0  0  0  0  0  0  0  0  0
    6.7330    6.0400   16.3900 H   0  0  0  0  0  0  0  0  0  0  0  0
    3.4810    3.4900   15.1150 H   0  0  0  0  0  0  0  0  0  0  0  0
    4.6800    3.0040   13.0420 H   0  0  0  0  0  0  0  0  0  0  0  0
    7.1300    2.6690   11.7980 N   0  0  0  0  0  0  0  0  0  0  0  0
    7.1820    3.9380   12.3070 C   0  0  0  0  0  0  0  0  0  0  0  0
    7.8670    4.7990   11.7720 O   0  0  0  0  0  0  0  0  0  0  0  0
    7.7710    2.4820   11.0370 H   0  0  0  0  0  0  0  0  0  0  0  0
    6.8430    1.8820   12.3600 H   0  0  0  0  0  0  0  0  0  0  0  0
  1  2  2  0  0  0  0
  1 10  1  0  0  0  0
  2  3  1  0  0  0  0
  3 16  1  0  0  0  0
  3  4  2  0  0  0  0
  5  4  1  0  0  0  0
  5  6  1  0  0  0  0
  6 12  1  0  0  0  0
  7  6  2  0  0  0  0
  7 13  1  0  0  0  0
  8  7  1  0  0  0  0
  9 10  1  0  0  0  0
  9  8  2  0  0  0  0
 10  5  2  0  0  0  0
 11  2  1  0  0  0  0
 14  8  1  0  0  0  0
 15  9  1  0  0  0  0
 16 17  1  0  0  0  0
 17 18  2  0  0  0  0
 17 22  1  0  0  0  0
 18 23  1  0  0  0  0
 19 24  1  0  0  0  0
 19 18  1  0  0  0  0
 20 19  2  0  0  0  0
 21 20  1  0  0  0  0
 21 16  2  0  0  0  0
 25 21  1  0  0  0  0
 26 27  1  0  0  0  0
 26 29  1  0  0  0  0
 27  1  1  0  0  0  0
 28 27  2  0  0  0  0
 30 35  2  0  0  0  0
 30 31  1  0  0  0  0
 31 32  2  0  0  0  0
 32 33  1  0  0  0  0
 32 37  1  0  0  0  0
 33 26  1  0  0  0  0
 34 38  1  0  0  0  0
 34 33  2  0  0  0  0
 35 34  1  0  0  0  0
 36 31  1  0  0  0  0
 39 35  1  0  0  0  0
 40 41  1  0  0  0  0
 40 44  1  0  0  0  0
 41 30  1  0  0  0  0
 42 41  2  0  0  0  0
 43 40  1  0  0  0  0
M  END
>  <MODEL>
10

>  <REMARK>
 VINA RESULT:    -7.607      2.951      8.169
 INTER + INTRA:          -9.194
 INTER:                  -9.387
 INTRA:                   0.194
 UNBOUND:                 0.192
  Name = 
  4 active torsions:
  status: ('A' for Active; 'I' for Inactive)
    1  A    between atoms: C_2  and  C_4
    2  A    between atoms: C_7  and  N_8
    3  A    between atoms: C_9  and  C_11
    4  A    between atoms: C_13  and  C_14
                            x       y       z     vdW  Elec       q    Type
                         _______ _______ _______ _____ _____    ______ ____

>  <TORSDO>
F 4

$$$$
=
 OpenBabel07192307433D

 44 47  0  0  0  0  0  0  0  0999 V2000
   -1.1070   11.8120   19.9810 C   0  0  0  0  0  0  0  0  0  0  0  0
   -1.0370   12.4690   21.2110 C   0  0  0  0  0  0  0  0  0  0  0  0
   -2.1820   13.0610   21.7130 C   0  0  0  0  0  0  0  0  0  0  0  0
   -3.3560   12.9940   21.0380 N   0  0  0  0  0  0  0  0  0  0  0  0
   -3.4150   12.3950   19.8360 C   0  0  0  0  0  0  0  0  0  0  0  0
   -4.6300   12.3860   19.1630 C   0  0  0  0  0  0  0  0  0  0  0  0
   -4.7730   11.8040   17.9010 C   0  0  0  0  0  0  0  0  0  0  0  0
   -3.6760   11.2190   17.2850 C   0  0  0  0  0  0  0  0  0  0  0  0
   -2.4470   11.2110   17.9420 C   0  0  0  0  0  0  0  0  0  0  0  0
   -2.3020   11.7830   19.2320 C   0  0  0  0  0  0  0  0  0  0  0  0
   -0.0990   12.4860   21.7580 H   0  0  0  0  0  0  0  0  0  0  0  0
   -5.4910   12.8580   19.6310 H   0  0  0  0  0  0  0  0  0  0  0  0
   -5.7380   11.8240   17.4020 H   0  0  0  0  0  0  0  0  0  0  0  0
   -3.7720   10.7820   16.2950 H   0  0  0  0  0  0  0  0  0  0  0  0
   -1.5950   10.7720   17.4250 H   0  0  0  0  0  0  0  0  0  0  0  0
   -2.2250   13.7760   23.0010 C   0  0  0  0  0  0  0  0  0  0  0  0
   -3.3470   13.7750   23.8440 C   0  0  0  0  0  0  0  0  0  0  0  0
   -3.3310   14.4760   25.0520 C   0  0  0  0  0  0  0  0  0  0  0  0
   -2.1840   15.1680   25.3960 C   0  0  0  0  0  0  0  0  0  0  0  0
   -1.0770   15.1980   24.6300 N   0  0  0  0  0  0  0  0  0  0  0  0
   -1.1240   14.5000   23.4660 C   0  0  0  0  0  0  0  0  0  0  0  0
   -4.2430   13.2160   23.5870 H   0  0  0  0  0  0  0  0  0  0  0  0
   -4.1940   14.4760   25.7090 H   0  0  0  0  0  0  0  0  0  0  0  0
   -2.1230   15.7280   26.3250 H   0  0  0  0  0  0  0  0  0  0  0  0
   -0.2040   14.5480   22.8850 H   0  0  0  0  0  0  0  0  0  0  0  0
    0.1030    9.7680   19.6260 N   0  0  0  0  0  0  0  0  0  0  0  0
    0.1350   11.1460   19.5270 C   0  0  0  0  0  0  0  0  0  0  0  0
    1.0680   11.8540   19.1720 O   0  0  0  0  0  0  0  0  0  0  0  0
   -0.7320    9.3600   20.0300 H   0  0  0  0  0  0  0  0  0  0  0  0
    3.1590    7.1310   18.3780 C   0  0  0  0  0  0  0  0  0  0  0  0
    2.6430    7.0190   19.6730 C   0  0  0  0  0  0  0  0  0  0  0  0
    1.6250    7.8760   20.1090 C   0  0  0  0  0  0  0  0  0  0  0  0
    1.1190    8.8620   19.2600 C   0  0  0  0  0  0  0  0  0  0  0  0
    1.6510    8.9830   17.9700 C   0  0  0  0  0  0  0  0  0  0  0  0
    2.6650    8.1260   17.5280 C   0  0  0  0  0  0  0  0  0  0  0  0
    3.0290    6.2610   20.3530 H   0  0  0  0  0  0  0  0  0  0  0  0
    1.2580    7.7490   21.1230 H   0  0  0  0  0  0  0  0  0  0  0  0
    1.2880    9.7510   17.2890 H   0  0  0  0  0  0  0  0  0  0  0  0
    3.0750    8.2650   16.5320 H   0  0  0  0  0  0  0  0  0  0  0  0
    4.7500    5.3610   18.9150 N   0  0  0  0  0  0  0  0  0  0  0  0
    4.2390    6.1980   17.9620 C   0  0  0  0  0  0  0  0  0  0  0  0
    4.6850    6.1950   16.8220 O   0  0  0  0  0  0  0  0  0  0  0  0
    5.5730    4.8390   18.6370 H   0  0  0  0  0  0  0  0  0  0  0  0
    4.6350    5.5440   19.9010 H   0  0  0  0  0  0  0  0  0  0  0  0
  1  2  1  0  0  0  0
  2  3  2  0  0  0  0
  2 11  1  0  0  0  0
  3 16  1  0  0  0  0
  4  3  1  0  0  0  0
  5  4  2  0  0  0  0
  6 12  1  0  0  0  0
  6  5  1  0  0  0  0
  7  6  2  0  0  0  0
  8  7  1  0  0  0  0
  8  9  2  0  0  0  0
  9 10  1  0  0  0  0
 10  5  1  0  0  0  0
 10  1  2  0  0  0  0
 13  7  1  0  0  0  0
 14  8  1  0  0  0  0
 15  9  1  0  0  0  0
 16 21  2  0  0  0  0
 16 17  1  0  0  0  0
 17 18  2  0  0  0  0
 18 19  1  0  0  0  0
 18 23  1  0  0  0  0
 19 24  1  0  0  0  0
 20 19  2  0  0  0  0
 21 20  1  0  0  0  0
 22 17  1  0  0  0  0
 25 21  1  0  0  0  0
 26 29  1  0  0  0  0
 27 26  1  0  0  0  0
 27  1  1  0  0  0  0
 28 27  2  0  0  0  0
 30 31  1  0  0  0  0
 31 32  2  0  0  0  0
 31 36  1  0  0  0  0
 32 37  1  0  0  0  0
 33 26  1  0  0  0  0
 33 32  1  0  0  0  0
 34 33  2  0  0  0  0
 35 34  1  0  0  0  0
 35 30  2  0  0  0  0
 38 34  1  0  0  0  0
 39 35  1  0  0  0  0
 40 44  1  0  0  0  0
 41 30  1  0  0  0  0
 41 40  1  0  0  0  0
 42 41  2  0  0  0  0
 43 40  1  0  0  0  0
M  END
>  <MODEL>
11

>  <REMARK>
 VINA RESULT:    -7.597      3.650     10.331
 INTER + INTRA:          -9.181
 INTER:                  -8.606
 INTRA:                  -0.575
 UNBOUND:                 0.192
  Name = 
  4 active torsions:
  status: ('A' for Active; 'I' for Inactive)
    1  A    between atoms: C_2  and  C_4
    2  A    between atoms: C_7  and  N_8
    3  A    between atoms: C_9  and  C_11
    4  A    between atoms: C_13  and  C_14
                            x       y       z     vdW  Elec       q    Type
                         _______ _______ _______ _____ _____    ______ ____

>  <TORSDO>
F 4

$$$$
=
 OpenBabel07192307433D

 44 47  0  0  0  0  0  0  0  0999 V2000
    0.2840   10.2880   18.7360 C   0  0  0  0  0  0  0  0  0  0  0  0
    1.1070   11.1770   19.4310 C   0  0  0  0  0  0  0  0  0  0  0  0
    0.5490   12.3330   19.9460 C   0  0  0  0  0  0  0  0  0  0  0  0
   -0.7730   12.5970   19.7970 N   0  0  0  0  0  0  0  0  0  0  0  0
   -1.5570   11.7610   19.0950 C   0  0  0  0  0  0  0  0  0  0  0  0
   -2.8960   12.0920   18.9340 C   0  0  0  0  0  0  0  0  0  0  0  0
   -3.7740   11.2900   18.2020 C   0  0  0  0  0  0  0  0  0  0  0  0
   -3.3090   10.1280   17.6050 C   0  0  0  0  0  0  0  0  0  0  0  0
   -1.9710    9.7710   17.7560 C   0  0  0  0  0  0  0  0  0  0  0  0
   -1.0800   10.5720   18.5160 C   0  0  0  0  0  0  0  0  0  0  0  0
    2.1570   10.9380   19.5730 H   0  0  0  0  0  0  0  0  0  0  0  0
   -3.2660   13.0110   19.3850 H   0  0  0  0  0  0  0  0  0  0  0  0
   -4.8150   11.5870   18.0910 H   0  0  0  0  0  0  0  0  0  0  0  0
   -3.9800    9.5080   17.0160 H   0  0  0  0  0  0  0  0  0  0  0  0
   -1.6230    8.8700   17.2530 H   0  0  0  0  0  0  0  0  0  0  0  0
    1.3200   13.3380   20.7000 C   0  0  0  0  0  0  0  0  0  0  0  0
    2.7200   13.4290   20.6530 C   0  0  0  0  0  0  0  0  0  0  0  0
    3.3960   14.3990   21.3940 C   0  0  0  0  0  0  0  0  0  0  0  0
    2.6540   15.2670   22.1740 C   0  0  0  0  0  0  0  0  0  0  0  0
    1.3100   15.2310   22.2530 N   0  0  0  0  0  0  0  0  0  0  0  0
    0.6830   14.2790   21.5130 C   0  0  0  0  0  0  0  0  0  0  0  0
    3.3050   12.7620   20.0250 H   0  0  0  0  0  0  0  0  0  0  0  0
    4.4770   14.4760   21.3590 H   0  0  0  0  0  0  0  0  0  0  0  0
    3.1340   16.0390   22.7690 H   0  0  0  0  0  0  0  0  0  0  0  0
   -0.4020   14.2940   21.6040 H   0  0  0  0  0  0  0  0  0  0  0  0
    1.6760    8.3940   19.2270 N   0  0  0  0  0  0  0  0  0  0  0  0
    0.9260    9.0410   18.2630 C   0  0  0  0  0  0  0  0  0  0  0  0
    0.7890    8.7360   17.0870 O   0  0  0  0  0  0  0  0  0  0  0  0
    1.7460    8.8490   20.1300 H   0  0  0  0  0  0  0  0  0  0  0  0
    3.7100    4.7030   18.9290 C   0  0  0  0  0  0  0  0  0  0  0  0
    4.0610    5.7510   18.0720 C   0  0  0  0  0  0  0  0  0  0  0  0
    3.4070    6.9860   18.1540 C   0  0  0  0  0  0  0  0  0  0  0  0
    2.3880    7.1860   19.0870 C   0  0  0  0  0  0  0  0  0  0  0  0
    2.0270    6.1280   19.9320 C   0  0  0  0  0  0  0  0  0  0  0  0
    2.6800    4.8930   19.8560 C   0  0  0  0  0  0  0  0  0  0  0  0
    4.8490    5.6130   17.3320 H   0  0  0  0  0  0  0  0  0  0  0  0
    3.7150    7.7680   17.4670 H   0  0  0  0  0  0  0  0  0  0  0  0
    1.2260    6.2470   20.6600 H   0  0  0  0  0  0  0  0  0  0  0  0
    2.3570    4.0860   20.5060 H   0  0  0  0  0  0  0  0  0  0  0  0
    4.7270    2.9740   17.5390 N   0  0  0  0  0  0  0  0  0  0  0  0
    4.4330    3.4110   18.8020 C   0  0  0  0  0  0  0  0  0  0  0  0
    4.7290    2.7380   19.7800 O   0  0  0  0  0  0  0  0  0  0  0  0
    5.0930    2.0320   17.4810 H   0  0  0  0  0  0  0  0  0  0  0  0
    4.2420    3.3290   16.7280 H   0  0  0  0  0  0  0  0  0  0  0  0
  1  2  1  0  0  0  0
  2 11  1  0  0  0  0
  2  3  2  0  0  0  0
  3 16  1  0  0  0  0
  4  3  1  0  0  0  0
  5  4  2  0  0  0  0
  6  5  1  0  0  0  0
  6 12  1  0  0  0  0
  7  6  2  0  0  0  0
  8  9  2  0  0  0  0
  8  7  1  0  0  0  0
  9 10  1  0  0  0  0
 10  1  2  0  0  0  0
 10  5  1  0  0  0  0
 13  7  1  0  0  0  0
 14  8  1  0  0  0  0
 15  9  1  0  0  0  0
 16 21  1  0  0  0  0
 17 16  2  0  0  0  0
 17 18  1  0  0  0  0
 18 19  2  0  0  0  0
 19 20  1  0  0  0  0
 19 24  1  0  0  0  0
 21 25  1  0  0  0  0
 21 20  2  0  0  0  0
 22 17  1  0  0  0  0
 23 18  1  0  0  0  0
 26 29  1  0  0  0  0
 27  1  1  0  0  0  0
 27 26  1  0  0  0  0
 28 27  2  0  0  0  0
 30 35  1  0  0  0  0
 31 32  1  0  0  0  0
 31 30  2  0  0  0  0
 32 33  2  0  0  0  0
 33 26  1  0  0  0  0
 33 34  1  0  0  0  0
 34 38  1  0  0  0  0
 35 34  2  0  0  0  0
 35 39  1  0  0  0  0
 36 31  1  0  0  0  0
 37 32  1  0  0  0  0
 40 41  1  0  0  0  0
 41 30  1  0  0  0  0
 41 42  2  0  0  0  0
 43 40  1  0  0  0  0
 44 40  1  0  0  0  0
M  END
>  <MODEL>
12

>  <REMARK>
 VINA RESULT:    -7.394      2.677      9.082
 INTER + INTRA:          -8.930
 INTER:                  -8.457
 INTRA:                  -0.473
 UNBOUND:                 0.192
  Name = 
  4 active torsions:
  status: ('A' for Active; 'I' for Inactive)
    1  A    between atoms: C_2  and  C_4
    2  A    between atoms: C_7  and  N_8
    3  A    between atoms: C_9  and  C_11
    4  A    between atoms: C_13  and  C_14
                            x       y       z     vdW  Elec       q    Type
                         _______ _______ _______ _____ _____    ______ ____

>  <TORSDO>
F 4

$$$$
=
 OpenBabel07192307433D

 44 47  0  0  0  0  0  0  0  0999 V2000
   -0.1500   10.0040   19.6030 C   0  0  0  0  0  0  0  0  0  0  0  0
   -0.7670    9.8580   18.3590 C   0  0  0  0  0  0  0  0  0  0  0  0
   -1.8410   10.6730   18.0510 C   0  0  0  0  0  0  0  0  0  0  0  0
   -2.2800   11.6090   18.9270 N   0  0  0  0  0  0  0  0  0  0  0  0
   -1.7120   11.7250   20.1400 C   0  0  0  0  0  0  0  0  0  0  0  0
   -2.2220   12.6700   21.0200 C   0  0  0  0  0  0  0  0  0  0  0  0
   -1.7030   12.8400   22.3050 C   0  0  0  0  0  0  0  0  0  0  0  0
   -0.6520   12.0440   22.7340 C   0  0  0  0  0  0  0  0  0  0  0  0
   -0.1190   11.0910   21.8680 C   0  0  0  0  0  0  0  0  0  0  0  0
   -0.6290   10.9290   20.5540 C   0  0  0  0  0  0  0  0  0  0  0  0
   -0.3830    9.1280   17.6520 H   0  0  0  0  0  0  0  0  0  0  0  0
   -3.0580   13.2880   20.6980 H   0  0  0  0  0  0  0  0  0  0  0  0
   -2.1350   13.5860   22.9690 H   0  0  0  0  0  0  0  0  0  0  0  0
   -0.2550   12.1540   23.7390 H   0  0  0  0  0  0  0  0  0  0  0  0
    0.6860   10.4580   22.2380 H   0  0  0  0  0  0  0  0  0  0  0  0
   -2.5630   10.6100   16.7670 C   0  0  0  0  0  0  0  0  0  0  0  0
   -2.1920    9.7570   15.7160 C   0  0  0  0  0  0  0  0  0  0  0  0
   -2.9120    9.7450   14.5200 C   0  0  0  0  0  0  0  0  0  0  0  0
   -3.9990   10.5920   14.3990 C   0  0  0  0  0  0  0  0  0  0  0  0
   -4.4040   11.4260   15.3750 N   0  0  0  0  0  0  0  0  0  0  0  0
   -3.6860   11.4070   16.5280 C   0  0  0  0  0  0  0  0  0  0  0  0
   -1.3520    9.0750   15.8160 H   0  0  0  0  0  0  0  0  0  0  0  0
   -2.6330    9.0850   13.7070 H   0  0  0  0  0  0  0  0  0  0  0  0
   -4.5920   10.6190   13.4880 H   0  0  0  0  0  0  0  0  0  0  0  0
   -4.0560   12.0920   17.2890 H   0  0  0  0  0  0  0  0  0  0  0  0
    1.3720    8.3380   18.7800 N   0  0  0  0  0  0  0  0  0  0  0  0
    1.0320    9.1460   19.8480 C   0  0  0  0  0  0  0  0  0  0  0  0
    1.5480    9.1860   20.9570 O   0  0  0  0  0  0  0  0  0  0  0  0
    0.7670    8.3800   17.9680 H   0  0  0  0  0  0  0  0  0  0  0  0
    4.5310    5.5350   18.6880 C   0  0  0  0  0  0  0  0  0  0  0  0
    4.4730    6.5340   17.7120 C   0  0  0  0  0  0  0  0  0  0  0  0
    3.4400    7.4800   17.7240 C   0  0  0  0  0  0  0  0  0  0  0  0
    2.4480    7.4310   18.7050 C   0  0  0  0  0  0  0  0  0  0  0  0
    2.5000    6.4170   19.6710 C   0  0  0  0  0  0  0  0  0  0  0  0
    3.5320    5.4730   19.6650 C   0  0  0  0  0  0  0  0  0  0  0  0
    5.2330    6.5860   16.9340 H   0  0  0  0  0  0  0  0  0  0  0  0
    3.4380    8.2360   16.9450 H   0  0  0  0  0  0  0  0  0  0  0  0
    1.7330    6.3430   20.4390 H   0  0  0  0  0  0  0  0  0  0  0  0
    3.5270    4.6840   20.4110 H   0  0  0  0  0  0  0  0  0  0  0  0
    5.4350    3.3270   19.1980 N   0  0  0  0  0  0  0  0  0  0  0  0
    5.6470    4.5540   18.6330 C   0  0  0  0  0  0  0  0  0  0  0  0
    6.7290    4.8350   18.1360 O   0  0  0  0  0  0  0  0  0  0  0  0
    6.2530    2.7340   19.2670 H   0  0  0  0  0  0  0  0  0  0  0  0
    4.6980    3.1710   19.8700 H   0  0  0  0  0  0  0  0  0  0  0  0
  1 27  1  0  0  0  0
  1 10  1  0  0  0  0
  2  1  2  0  0  0  0
  3  2  1  0  0  0  0
  3  4  2  0  0  0  0
  4  5  1  0  0  0  0
  5 10  2  0  0  0  0
  5  6  1  0  0  0  0
  6  7  2  0  0  0  0
  7  8  1  0  0  0  0
  7 13  1  0  0  0  0
  8 14  1  0  0  0  0
  9 15  1  0  0  0  0
  9  8  2  0  0  0  0
 10  9  1  0  0  0  0
 11  2  1  0  0  0  0
 12  6  1  0  0  0  0
 16  3  1  0  0  0  0
 17 22  1  0  0  0  0
 17 16  2  0  0  0  0
 18 17  1  0  0  0  0
 19 18  2  0  0  0  0
 19 20  1  0  0  0  0
 20 21  2  0  0  0  0
 21 16  1  0  0  0  0
 21 25  1  0  0  0  0
 23 18  1  0  0  0  0
 24 19  1  0  0  0  0
 26 27  1  0  0  0  0
 27 28  2  0  0  0  0
 29 26  1  0  0  0  0
 30 35  1  0  0  0  0
 31 32  1  0  0  0  0
 31 30  2  0  0  0  0
 32 33  2  0  0  0  0
 33 26  1  0  0  0  0
 33 34  1  0  0  0  0
 34 38  1  0  0  0  0
 35 34  2  0  0  0  0
 35 39  1  0  0  0  0
 36 31  1  0  0  0  0
 37 32  1  0  0  0  0
 40 43  1  0  0  0  0
 40 44  1  0  0  0  0
 41 30  1  0  0  0  0
 41 40  1  0  0  0  0
 42 41  2  0  0  0  0
M  END
>  <MODEL>
13

>  <REMARK>
 VINA RESULT:    -7.392      2.992      8.718
 INTER + INTRA:          -8.928
 INTER:                  -8.913
 INTRA:                  -0.015
 UNBOUND:                 0.192
  Name = 
  4 active torsions:
  status: ('A' for Active; 'I' for Inactive)
    1  A    between atoms: C_2  and  C_4
    2  A    between atoms: C_7  and  N_8
    3  A    between atoms: C_9  and  C_11
    4  A    between atoms: C_13  and  C_14
                            x       y       z     vdW  Elec       q    Type
                         _______ _______ _______ _____ _____    ______ ____

>  <TORSDO>
F 4

$$$$
=
 OpenBabel07192307433D

 44 47  0  0  0  0  0  0  0  0999 V2000
    0.9700   10.1490   18.4300 C   0  0  0  0  0  0  0  0  0  0  0  0
    2.0210   11.0240   18.7110 C   0  0  0  0  0  0  0  0  0  0  0  0
    1.7270   12.3450   18.9970 C   0  0  0  0  0  0  0  0  0  0  0  0
    0.4440   12.7840   19.0230 N   0  0  0  0  0  0  0  0  0  0  0  0
   -0.5650   11.9520   18.7150 C   0  0  0  0  0  0  0  0  0  0  0  0
   -1.8590   12.4560   18.7150 C   0  0  0  0  0  0  0  0  0  0  0  0
   -2.9620   11.6650   18.3860 C   0  0  0  0  0  0  0  0  0  0  0  0
   -2.7750   10.3350   18.0390 C   0  0  0  0  0  0  0  0  0  0  0  0
   -1.4870    9.8030   18.0370 C   0  0  0  0  0  0  0  0  0  0  0  0
   -0.3670   10.5980   18.3900 C   0  0  0  0  0  0  0  0  0  0  0  0
    3.0420   10.6520   18.7210 H   0  0  0  0  0  0  0  0  0  0  0  0
   -2.0130   13.5030   18.9680 H   0  0  0  0  0  0  0  0  0  0  0  0
   -3.9590   12.0980   18.3890 H   0  0  0  0  0  0  0  0  0  0  0  0
   -3.6250    9.7160   17.7620 H   0  0  0  0  0  0  0  0  0  0  0  0
   -1.3640    8.7650   17.7330 H   0  0  0  0  0  0  0  0  0  0  0  0
    2.7540   13.3530   19.3140 C   0  0  0  0  0  0  0  0  0  0  0  0
    3.0260   13.7920   20.6180 C   0  0  0  0  0  0  0  0  0  0  0  0
    4.0090   14.7550   20.8560 C   0  0  0  0  0  0  0  0  0  0  0  0
    4.7070   15.2630   19.7750 C   0  0  0  0  0  0  0  0  0  0  0  0
    4.4930   14.8750   18.5030 N   0  0  0  0  0  0  0  0  0  0  0  0
    3.5350   13.9310   18.3090 C   0  0  0  0  0  0  0  0  0  0  0  0
    2.4940   13.3810   21.4720 H   0  0  0  0  0  0  0  0  0  0  0  0
    4.2260   15.0960   21.8620 H   0  0  0  0  0  0  0  0  0  0  0  0
    5.4810   16.0140   19.9080 H   0  0  0  0  0  0  0  0  0  0  0  0
    3.4040   13.6440   17.2670 H   0  0  0  0  0  0  0  0  0  0  0  0
    1.9150    8.1140   19.2860 N   0  0  0  0  0  0  0  0  0  0  0  0
    1.3450    8.7360   18.1920 C   0  0  0  0  0  0  0  0  0  0  0  0
    1.1750    8.2800   17.0700 O   0  0  0  0  0  0  0  0  0  0  0  0
    2.0570    8.6850   20.1120 H   0  0  0  0  0  0  0  0  0  0  0  0
    3.3480    4.1420   19.4190 C   0  0  0  0  0  0  0  0  0  0  0  0
    2.4170    4.5670   20.3710 C   0  0  0  0  0  0  0  0  0  0  0  0
    1.9220    5.8760   20.3460 C   0  0  0  0  0  0  0  0  0  0  0  0
    2.3580    6.7790   19.3740 C   0  0  0  0  0  0  0  0  0  0  0  0
    3.3040    6.3550   18.4320 C   0  0  0  0  0  0  0  0  0  0  0  0
    3.7990    5.0460   18.4520 C   0  0  0  0  0  0  0  0  0  0  0  0
    2.0690    3.8800   21.1420 H   0  0  0  0  0  0  0  0  0  0  0  0
    1.2010    6.1590   21.1070 H   0  0  0  0  0  0  0  0  0  0  0  0
    3.6760    7.0380   17.6720 H   0  0  0  0  0  0  0  0  0  0  0  0
    4.5520    4.7580   17.7240 H   0  0  0  0  0  0  0  0  0  0  0  0
    5.1820    2.5590   19.7100 N   0  0  0  0  0  0  0  0  0  0  0  0
    3.8450    2.7420   19.4880 C   0  0  0  0  0  0  0  0  0  0  0  0
    3.1020    1.7850   19.3180 O   0  0  0  0  0  0  0  0  0  0  0  0
    5.5100    1.6060   19.6140 H   0  0  0  0  0  0  0  0  0  0  0  0
    5.8540    3.2950   19.5470 H   0  0  0  0  0  0  0  0  0  0  0  0
  1  2  1  0  0  0  0
  2 11  1  0  0  0  0
  2  3  2  0  0  0  0
  3  4  1  0  0  0  0
  3 16  1  0  0  0  0
  5  4  2  0  0  0  0
  6  5  1  0  0  0  0
  6 12  1  0  0  0  0
  7 13  1  0  0  0  0
  7  6  2  0  0  0  0
  8  7  1  0  0  0  0
  9  8  2  0  0  0  0
  9 10  1  0  0  0  0
 10  1  2  0  0  0  0
 10  5  1  0  0  0  0
 14  8  1  0  0  0  0
 15  9  1  0  0  0  0
 16 17  1  0  0  0  0
 17 18  2  0  0  0  0
 17 22  1  0  0  0  0
 18 23  1  0  0  0  0
 19 24  1  0  0  0  0
 19 18  1  0  0  0  0
 20 19  2  0  0  0  0
 21 20  1  0  0  0  0
 21 16  2  0  0  0  0
 25 21  1  0  0  0  0
 26 33  1  0  0  0  0
 26 29  1  0  0  0  0
 27  1  1  0  0  0  0
 27 26  1  0  0  0  0
 28 27  2  0  0  0  0
 30 41  1  0  0  0  0
 30 31  1  0  0  0  0
 31 36  1  0  0  0  0
 32 31  2  0  0  0  0
 32 37  1  0  0  0  0
 33 32  1  0  0  0  0
 34 35  1  0  0  0  0
 34 33  2  0  0  0  0
 35 30  2  0  0  0  0
 38 34  1  0  0  0  0
 39 35  1  0  0  0  0
 41 40  1  0  0  0  0
 42 41  2  0  0  0  0
 43 40  1  0  0  0  0
 44 40  1  0  0  0  0
M  END
>  <MODEL>
14

>  <REMARK>
 VINA RESULT:    -7.325      2.858      8.729
 INTER + INTRA:          -8.845
 INTER:                  -8.355
 INTRA:                  -0.490
 UNBOUND:                 0.192
  Name = 
  4 active torsions:
  status: ('A' for Active; 'I' for Inactive)
    1  A    between atoms: C_2  and  C_4
    2  A    between atoms: C_7  and  N_8
    3  A    between atoms: C_9  and  C_11
    4  A    between atoms: C_13  and  C_14
                            x       y       z     vdW  Elec       q    Type
                         _______ _______ _______ _____ _____    ______ ____

>  <TORSDO>
F 4

$$$$
=
 OpenBabel07192307433D

 44 47  0  0  0  0  0  0  0  0999 V2000
    1.4200    9.4030   19.6450 C   0  0  0  0  0  0  0  0  0  0  0  0
    1.9080   10.5060   18.9410 C   0  0  0  0  0  0  0  0  0  0  0  0
    1.6590   11.7720   19.4390 C   0  0  0  0  0  0  0  0  0  0  0  0
    0.9700   11.9460   20.5940 N   0  0  0  0  0  0  0  0  0  0  0  0
    0.4670   10.8870   21.2500 C   0  0  0  0  0  0  0  0  0  0  0  0
   -0.2670   11.1150   22.4070 C   0  0  0  0  0  0  0  0  0  0  0  0
   -0.8410   10.0730   23.1370 C   0  0  0  0  0  0  0  0  0  0  0  0
   -0.6910    8.7640   22.7030 C   0  0  0  0  0  0  0  0  0  0  0  0
    0.0450    8.5080   21.5480 C   0  0  0  0  0  0  0  0  0  0  0  0
    0.6480    9.5620   20.8140 C   0  0  0  0  0  0  0  0  0  0  0  0
    2.4880   10.3520   18.0360 H   0  0  0  0  0  0  0  0  0  0  0  0
   -0.4040   12.1400   22.7450 H   0  0  0  0  0  0  0  0  0  0  0  0
   -1.4160   10.2920   24.0340 H   0  0  0  0  0  0  0  0  0  0  0  0
   -1.1520    7.9480   23.2520 H   0  0  0  0  0  0  0  0  0  0  0  0
    0.1240    7.4750   21.2110 H   0  0  0  0  0  0  0  0  0  0  0  0
    2.1300   13.0060   18.7830 C   0  0  0  0  0  0  0  0  0  0  0  0
    1.2990   14.1070   18.5270 C   0  0  0  0  0  0  0  0  0  0  0  0
    1.8010   15.2480   17.8980 C   0  0  0  0  0  0  0  0  0  0  0  0
    3.1350   15.2650   17.5350 C   0  0  0  0  0  0  0  0  0  0  0  0
    3.9810   14.2420   17.7620 N   0  0  0  0  0  0  0  0  0  0  0  0
    3.4610   13.1510   18.3820 C   0  0  0  0  0  0  0  0  0  0  0  0
    0.2550   14.1050   18.8290 H   0  0  0  0  0  0  0  0  0  0  0  0
    1.1640   16.1030   17.7010 H   0  0  0  0  0  0  0  0  0  0  0  0
    3.5730   16.1300   17.0430 H   0  0  0  0  0  0  0  0  0  0  0  0
    4.1830   12.3530   18.5500 H   0  0  0  0  0  0  0  0  0  0  0  0
    2.4240    7.2490   19.9920 N   0  0  0  0  0  0  0  0  0  0  0  0
    1.7720    8.0730   19.0950 C   0  0  0  0  0  0  0  0  0  0  0  0
    1.5140    7.8530   17.9200 O   0  0  0  0  0  0  0  0  0  0  0  0
    2.6310    7.6420   20.9030 H   0  0  0  0  0  0  0  0  0  0  0  0
    3.6150    3.2380   19.4080 C   0  0  0  0  0  0  0  0  0  0  0  0
    4.4090    4.2700   18.8990 C   0  0  0  0  0  0  0  0  0  0  0  0
    4.0410    5.6080   19.0850 C   0  0  0  0  0  0  0  0  0  0  0  0
    2.8690    5.9300   19.7720 C   0  0  0  0  0  0  0  0  0  0  0  0
    2.0660    4.8920   20.2640 C   0  0  0  0  0  0  0  0  0  0  0  0
    2.4330    3.5540   20.0850 C   0  0  0  0  0  0  0  0  0  0  0  0
    5.3240    4.0400   18.3550 H   0  0  0  0  0  0  0  0  0  0  0  0
    4.6900    6.3730   18.6700 H   0  0  0  0  0  0  0  0  0  0  0  0
    1.1390    5.1100   20.7910 H   0  0  0  0  0  0  0  0  0  0  0  0
    1.7740    2.7740   20.4550 H   0  0  0  0  0  0  0  0  0  0  0  0
    5.0770    1.3620   19.9540 N   0  0  0  0  0  0  0  0  0  0  0  0
    4.0490    1.8330   19.1850 C   0  0  0  0  0  0  0  0  0  0  0  0
    3.5360    1.1280   18.3270 O   0  0  0  0  0  0  0  0  0  0  0  0
    5.4390    0.4550   19.6850 H   0  0  0  0  0  0  0  0  0  0  0  0
    5.7110    1.9850   20.4340 H   0  0  0  0  0  0  0  0  0  0  0  0
  1 10  1  0  0  0  0
  2  3  1  0  0  0  0
  2  1  2  0  0  0  0
  3  4  2  0  0  0  0
  4  5  1  0  0  0  0
  5  6  1  0  0  0  0
  6 12  1  0  0  0  0
  6  7  2  0  0  0  0
  7 13  1  0  0  0  0
  8  7  1  0  0  0  0
  8 14  1  0  0  0  0
  9  8  2  0  0  0  0
 10  5  2  0  0  0  0
 10  9  1  0  0  0  0
 11  2  1  0  0  0  0
 15  9  1  0  0  0  0
 16  3  1  0  0  0  0
 17 16  1  0  0  0  0
 17 22  1  0  0  0  0
 18 17  2  0  0  0  0
 19 20  2  0  0  0  0
 19 18  1  0  0  0  0
 20 21  1  0  0  0  0
 21 25  1  0  0  0  0
 21 16  2  0  0  0  0
 23 18  1  0  0  0  0
 24 19  1  0  0  0  0
 26 29  1  0  0  0  0
 27  1  1  0  0  0  0
 27 26  1  0  0  0  0
 28 27  2  0  0  0  0
 30 35  1  0  0  0  0
 31 32  1  0  0  0  0
 31 30  2  0  0  0  0
 32 33  2  0  0  0  0
 33 26  1  0  0  0  0
 33 34  1  0  0  0  0
 34 38  1  0  0  0  0
 35 34  2  0  0  0  0
 35 39  1  0  0  0  0
 36 31  1  0  0  0  0
 37 32  1  0  0  0  0
 40 44  1  0  0  0  0
 41 30  1  0  0  0  0
 41 40  1  0  0  0  0
 42 41  2  0  0  0  0
 43 40  1  0  0  0  0
M  END
>  <MODEL>
15

>  <REMARK>
 VINA RESULT:    -7.312      3.087      8.541
 INTER + INTRA:          -8.829
 INTER:                  -8.280
 INTRA:                  -0.549
 UNBOUND:                 0.192
  Name = 
  4 active torsions:
  status: ('A' for Active; 'I' for Inactive)
    1  A    between atoms: C_2  and  C_4
    2  A    between atoms: C_7  and  N_8
    3  A    between atoms: C_9  and  C_11
    4  A    between atoms: C_13  and  C_14
                            x       y       z     vdW  Elec       q    Type
                         _______ _______ _______ _____ _____    ______ ____

>  <TORSDO>
F 4

$$$$
=
 OpenBabel07192307433D

 44 47  0  0  0  0  0  0  0  0999 V2000
    2.2480    5.5790   19.7840 C   0  0  0  0  0  0  0  0  0  0  0  0
    3.4870    6.1840   19.5610 C   0  0  0  0  0  0  0  0  0  0  0  0
    4.4650    5.4680   18.8960 C   0  0  0  0  0  0  0  0  0  0  0  0
    4.2280    4.2090   18.4510 N   0  0  0  0  0  0  0  0  0  0  0  0
    3.0500    3.6120   18.7000 C   0  0  0  0  0  0  0  0  0  0  0  0
    2.8670    2.3070   18.2610 C   0  0  0  0  0  0  0  0  0  0  0  0
    1.6810    1.6070   18.4960 C   0  0  0  0  0  0  0  0  0  0  0  0
    0.6490    2.2160   19.1940 C   0  0  0  0  0  0  0  0  0  0  0  0
    0.8060    3.5270   19.6400 C   0  0  0  0  0  0  0  0  0  0  0  0
    2.0000    4.2490   19.3860 C   0  0  0  0  0  0  0  0  0  0  0  0
    3.6530    7.2060   19.8910 H   0  0  0  0  0  0  0  0  0  0  0  0
    3.6780    1.8150   17.7280 H   0  0  0  0  0  0  0  0  0  0  0  0
    1.5780    0.5830   18.1440 H   0  0  0  0  0  0  0  0  0  0  0  0
   -0.2690    1.6730   19.3990 H   0  0  0  0  0  0  0  0  0  0  0  0
   -0.0070    3.9730   20.2110 H   0  0  0  0  0  0  0  0  0  0  0  0
    5.8050    6.0080   18.6010 C   0  0  0  0  0  0  0  0  0  0  0  0
    6.0570    6.9160   17.5610 C   0  0  0  0  0  0  0  0  0  0  0  0
    7.3500    7.3890   17.3260 C   0  0  0  0  0  0  0  0  0  0  0  0
    8.3720    6.9420   18.1430 C   0  0  0  0  0  0  0  0  0  0  0  0
    8.1880    6.0770   19.1590 N   0  0  0  0  0  0  0  0  0  0  0  0
    6.9170    5.6420   19.3640 C   0  0  0  0  0  0  0  0  0  0  0  0
    5.2530    7.2850   16.9300 H   0  0  0  0  0  0  0  0  0  0  0  0
    7.5500    8.0930   16.5270 H   0  0  0  0  0  0  0  0  0  0  0  0
    9.3950    7.2810   18.0010 H   0  0  0  0  0  0  0  0  0  0  0  0
    6.8170    4.9520   20.2000 H   0  0  0  0  0  0  0  0  0  0  0  0
    1.6220    7.7230   20.6670 N   0  0  0  0  0  0  0  0  0  0  0  0
    1.2240    6.4180   20.4450 C   0  0  0  0  0  0  0  0  0  0  0  0
    0.1740    5.8860   20.7770 O   0  0  0  0  0  0  0  0  0  0  0  0
    2.5710    7.9600   20.4000 H   0  0  0  0  0  0  0  0  0  0  0  0
   -0.5990   10.9230   22.3030 C   0  0  0  0  0  0  0  0  0  0  0  0
   -0.5580    9.7000   22.9800 C   0  0  0  0  0  0  0  0  0  0  0  0
    0.1770    8.6260   22.4620 C   0  0  0  0  0  0  0  0  0  0  0  0
    0.8690    8.7570   21.2580 C   0  0  0  0  0  0  0  0  0  0  0  0
    0.8110    9.9780   20.5730 C   0  0  0  0  0  0  0  0  0  0  0  0
    0.0820   11.0560   21.0880 C   0  0  0  0  0  0  0  0  0  0  0  0
   -1.0960    9.5750   23.9180 H   0  0  0  0  0  0  0  0  0  0  0  0
    0.1770    7.6970   23.0250 H   0  0  0  0  0  0  0  0  0  0  0  0
    1.3270   10.1080   19.6240 H   0  0  0  0  0  0  0  0  0  0  0  0
    0.0340   11.9790   20.5180 H   0  0  0  0  0  0  0  0  0  0  0  0
   -0.8860   13.2980   22.7770 N   0  0  0  0  0  0  0  0  0  0  0  0
   -1.3930   12.0330   22.8920 C   0  0  0  0  0  0  0  0  0  0  0  0
   -2.4420   11.8310   23.4890 O   0  0  0  0  0  0  0  0  0  0  0  0
   -1.3760   14.0110   23.3050 H   0  0  0  0  0  0  0  0  0  0  0  0
    0.0900   13.4650   22.5790 H   0  0  0  0  0  0  0  0  0  0  0  0
  1 27  1  0  0  0  0
  2  1  1  0  0  0  0
  2 11  1  0  0  0  0
  3  2  2  0  0  0  0
  4  5  2  0  0  0  0
  4  3  1  0  0  0  0
  5 10  1  0  0  0  0
  6  7  2  0  0  0  0
  6  5  1  0  0  0  0
  7  8  1  0  0  0  0
  8 14  1  0  0  0  0
  8  9  2  0  0  0  0
  9 15  1  0  0  0  0
 10  9  1  0  0  0  0
 10  1  2  0  0  0  0
 12  6  1  0  0  0  0
 13  7  1  0  0  0  0
 16  3  1  0  0  0  0
 16 21  1  0  0  0  0
 17 16  2  0  0  0  0
 18 17  1  0  0  0  0
 18 19  2  0  0  0  0
 19 20  1  0  0  0  0
 20 21  2  0  0  0  0
 21 25  1  0  0  0  0
 22 17  1  0  0  0  0
 23 18  1  0  0  0  0
 24 19  1  0  0  0  0
 26 33  1  0  0  0  0
 27 26  1  0  0  0  0
 27 28  2  0  0  0  0
 29 26  1  0  0  0  0
 30 41  1  0  0  0  0
 30 31  1  0  0  0  0
 31 36  1  0  0  0  0
 32 31  2  0  0  0  0
 32 37  1  0  0  0  0
 33 32  1  0  0  0  0
 34 35  1  0  0  0  0
 34 33  2  0  0  0  0
 35 30  2  0  0  0  0
 38 34  1  0  0  0  0
 39 35  1  0  0  0  0
 40 41  1  0  0  0  0
 40 43  1  0  0  0  0
 41 42  2  0  0  0  0
 44 40  1  0  0  0  0
M  END
>  <MODEL>
16

>  <REMARK>
 VINA RESULT:    -7.094      2.843      3.320
 INTER + INTRA:          -8.561
 INTER:                  -8.579
 INTRA:                   0.018
 UNBOUND:                 0.192
  Name = 
  4 active torsions:
  status: ('A' for Active; 'I' for Inactive)
    1  A    between atoms: C_2  and  C_4
    2  A    between atoms: C_7  and  N_8
    3  A    between atoms: C_9  and  C_11
    4  A    between atoms: C_13  and  C_14
                            x       y       z     vdW  Elec       q    Type
                         _______ _______ _______ _____ _____    ______ ____

>  <TORSDO>
F 4

$$$$
=
 OpenBabel07192307433D

 44 47  0  0  0  0  0  0  0  0999 V2000
    0.5860   10.9780   20.9940 C   0  0  0  0  0  0  0  0  0  0  0  0
    1.5810   11.6340   20.2660 C   0  0  0  0  0  0  0  0  0  0  0  0
    1.7110   13.0040   20.4050 C   0  0  0  0  0  0  0  0  0  0  0  0
    0.9030   13.7000   21.2430 N   0  0  0  0  0  0  0  0  0  0  0  0
   -0.0790   13.0750   21.9140 C   0  0  0  0  0  0  0  0  0  0  0  0
   -0.9080   13.8360   22.7290 C   0  0  0  0  0  0  0  0  0  0  0  0
   -1.9650   13.2690   23.4440 C   0  0  0  0  0  0  0  0  0  0  0  0
   -2.2120   11.9080   23.3430 C   0  0  0  0  0  0  0  0  0  0  0  0
   -1.3920   11.1230   22.5360 C   0  0  0  0  0  0  0  0  0  0  0  0
   -0.3050   11.6910   21.8240 C   0  0  0  0  0  0  0  0  0  0  0  0
    2.2440   11.0600   19.6250 H   0  0  0  0  0  0  0  0  0  0  0  0
   -0.7310   14.9070   22.8010 H   0  0  0  0  0  0  0  0  0  0  0  0
   -2.5970   13.8990   24.0660 H   0  0  0  0  0  0  0  0  0  0  0  0
   -3.0450   11.4610   23.8800 H   0  0  0  0  0  0  0  0  0  0  0  0
   -1.6260   10.0620   22.4500 H   0  0  0  0  0  0  0  0  0  0  0  0
    2.7280   13.7970   19.6910 C   0  0  0  0  0  0  0  0  0  0  0  0
    3.7840   14.4560   20.3370 C   0  0  0  0  0  0  0  0  0  0  0  0
    4.7150   15.1980   19.6080 C   0  0  0  0  0  0  0  0  0  0  0  0
    4.5690   15.2670   18.2340 C   0  0  0  0  0  0  0  0  0  0  0  0
    3.5800   14.6500   17.5600 N   0  0  0  0  0  0  0  0  0  0  0  0
    2.6960   13.9310   18.3000 C   0  0  0  0  0  0  0  0  0  0  0  0
    3.9130   14.3880   21.4140 H   0  0  0  0  0  0  0  0  0  0  0  0
    5.5350   15.7060   20.1020 H   0  0  0  0  0  0  0  0  0  0  0  0
    5.2680   15.8310   17.6220 H   0  0  0  0  0  0  0  0  0  0  0  0
    1.9200   13.4450   17.7100 H   0  0  0  0  0  0  0  0  0  0  0  0
    1.5750    8.9790   20.1030 N   0  0  0  0  0  0  0  0  0  0  0  0
    0.5380    9.5060   20.8500 C   0  0  0  0  0  0  0  0  0  0  0  0
   -0.4140    8.9130   21.3380 O   0  0  0  0  0  0  0  0  0  0  0  0
    2.2280    9.6420   19.7010 H   0  0  0  0  0  0  0  0  0  0  0  0
    2.3380    4.9580   19.0560 C   0  0  0  0  0  0  0  0  0  0  0  0
    1.8460    5.2530   20.3320 C   0  0  0  0  0  0  0  0  0  0  0  0
    1.5790    6.5770   20.7010 C   0  0  0  0  0  0  0  0  0  0  0  0
    1.8090    7.6220   19.8050 C   0  0  0  0  0  0  0  0  0  0  0  0
    2.3190    7.3240   18.5340 C   0  0  0  0  0  0  0  0  0  0  0  0
    2.5840    6.0020   18.1590 C   0  0  0  0  0  0  0  0  0  0  0  0
    1.6660    4.4530   21.0480 H   0  0  0  0  0  0  0  0  0  0  0  0
    1.1980    6.7550   21.7030 H   0  0  0  0  0  0  0  0  0  0  0  0
    2.5240    8.1170   17.8190 H   0  0  0  0  0  0  0  0  0  0  0  0
    3.0050    5.8090   17.1770 H   0  0  0  0  0  0  0  0  0  0  0  0
    1.6640    2.8810   17.9690 N   0  0  0  0  0  0  0  0  0  0  0  0
    2.6060    3.5370   18.7110 C   0  0  0  0  0  0  0  0  0  0  0  0
    3.6120    2.9570   19.1000 O   0  0  0  0  0  0  0  0  0  0  0  0
    1.8090    1.8830   17.8680 H   0  0  0  0  0  0  0  0  0  0  0  0
    0.7140    3.2150   17.8990 H   0  0  0  0  0  0  0  0  0  0  0  0
  1 10  1  0  0  0  0
  2  3  1  0  0  0  0
  2  1  2  0  0  0  0
  3  4  2  0  0  0  0
  4  5  1  0  0  0  0
  5  6  1  0  0  0  0
  6 12  1  0  0  0  0
  6  7  2  0  0  0  0
  7 13  1  0  0  0  0
  8  7  1  0  0  0  0
  8 14  1  0  0  0  0
  9  8  2  0  0  0  0
 10  5  2  0  0  0  0
 10  9  1  0  0  0  0
 11  2  1  0  0  0  0
 15  9  1  0  0  0  0
 16 17  1  0  0  0  0
 16  3  1  0  0  0  0
 17 22  1  0  0  0  0
 18 23  1  0  0  0  0
 18 17  2  0  0  0  0
 19 18  1  0  0  0  0
 20 19  2  0  0  0  0
 20 21  1  0  0  0  0
 21 16  2  0  0  0  0
 24 19  1  0  0  0  0
 25 21  1  0  0  0  0
 26 27  1  0  0  0  0
 27  1  1  0  0  0  0
 27 28  2  0  0  0  0
 29 26  1  0  0  0  0
 30 31  1  0  0  0  0
 31 32  2  0  0  0  0
 31 36  1  0  0  0  0
 32 37  1  0  0  0  0
 33 26  1  0  0  0  0
 33 32  1  0  0  0  0
 34 33  2  0  0  0  0
 35 34  1  0  0  0  0
 35 30  2  0  0  0  0
 38 34  1  0  0  0  0
 39 35  1  0  0  0  0
 40 41  1  0  0  0  0
 41 30  1  0  0  0  0
 41 42  2  0  0  0  0
 43 40  1  0  0  0  0
 44 40  1  0  0  0  0
M  END
>  <MODEL>
17

>  <REMARK>
 VINA RESULT:    -7.073      3.311      8.926
 INTER + INTRA:          -8.535
 INTER:                  -8.630
 INTRA:                   0.095
 UNBOUND:                 0.192
  Name = 
  4 active torsions:
  status: ('A' for Active; 'I' for Inactive)
    1  A    between atoms: C_2  and  C_4
    2  A    between atoms: C_7  and  N_8
    3  A    between atoms: C_9  and  C_11
    4  A    between atoms: C_13  and  C_14
                            x       y       z     vdW  Elec       q    Type
                         _______ _______ _______ _____ _____    ______ ____

>  <TORSDO>
F 4

$$$$
=
 OpenBabel07192307433D

 44 47  0  0  0  0  0  0  0  0999 V2000
    3.1340    6.8320   18.1220 C   0  0  0  0  0  0  0  0  0  0  0  0
    2.6730    5.9820   19.1300 C   0  0  0  0  0  0  0  0  0  0  0  0
    3.1830    4.6980   19.1990 C   0  0  0  0  0  0  0  0  0  0  0  0
    4.1240    4.2730   18.3200 N   0  0  0  0  0  0  0  0  0  0  0  0
    4.5390    5.0770   17.3270 C   0  0  0  0  0  0  0  0  0  0  0  0
    5.4740    4.5840   16.4260 C   0  0  0  0  0  0  0  0  0  0  0  0
    5.9420    5.3460   15.3530 C   0  0  0  0  0  0  0  0  0  0  0  0
    5.4630    6.6350   15.1640 C   0  0  0  0  0  0  0  0  0  0  0  0
    4.5290    7.1540   16.0580 C   0  0  0  0  0  0  0  0  0  0  0  0
    4.0660    6.3910   17.1600 C   0  0  0  0  0  0  0  0  0  0  0  0
    1.9460    6.3460   19.8490 H   0  0  0  0  0  0  0  0  0  0  0  0
    5.8420    3.5680   16.5560 H   0  0  0  0  0  0  0  0  0  0  0  0
    6.6680    4.9230   14.6640 H   0  0  0  0  0  0  0  0  0  0  0  0
    5.8060    7.2280   14.3210 H   0  0  0  0  0  0  0  0  0  0  0  0
    4.1470    8.1570   15.8710 H   0  0  0  0  0  0  0  0  0  0  0  0
    2.7740    3.7190   20.2220 C   0  0  0  0  0  0  0  0  0  0  0  0
    1.5180    3.7380   20.8470 C   0  0  0  0  0  0  0  0  0  0  0  0
    1.1890    2.7860   21.8140 C   0  0  0  0  0  0  0  0  0  0  0  0
    2.1300    1.8260   22.1390 C   0  0  0  0  0  0  0  0  0  0  0  0
    3.3480    1.7550   21.5680 N   0  0  0  0  0  0  0  0  0  0  0  0
    3.6320    2.6920   20.6260 C   0  0  0  0  0  0  0  0  0  0  0  0
    0.7690    4.4780   20.5800 H   0  0  0  0  0  0  0  0  0  0  0  0
    0.2190    2.7940   22.2980 H   0  0  0  0  0  0  0  0  0  0  0  0
    1.9210    1.0640   22.8850 H   0  0  0  0  0  0  0  0  0  0  0  0
    4.6240    2.5900   20.1870 H   0  0  0  0  0  0  0  0  0  0  0  0
    1.5360    8.3920   19.0060 N   0  0  0  0  0  0  0  0  0  0  0  0
    2.5970    8.2120   18.1390 C   0  0  0  0  0  0  0  0  0  0  0  0
    3.0860    9.0260   17.3680 O   0  0  0  0  0  0  0  0  0  0  0  0
    1.2100    7.5700   19.5020 H   0  0  0  0  0  0  0  0  0  0  0  0
   -0.6640   11.9500   19.5980 C   0  0  0  0  0  0  0  0  0  0  0  0
    0.2020   11.5040   20.6010 C   0  0  0  0  0  0  0  0  0  0  0  0
    0.9470   10.3320   20.4270 C   0  0  0  0  0  0  0  0  0  0  0  0
    0.8290    9.5860   19.2540 C   0  0  0  0  0  0  0  0  0  0  0  0
   -0.0530   10.0260   18.2580 C   0  0  0  0  0  0  0  0  0  0  0  0
   -0.7970   11.1990   18.4250 C   0  0  0  0  0  0  0  0  0  0  0  0
    0.3040   12.0690   21.5270 H   0  0  0  0  0  0  0  0  0  0  0  0
    1.6050   10.0270   21.2360 H   0  0  0  0  0  0  0  0  0  0  0  0
   -0.1790    9.4590   17.3380 H   0  0  0  0  0  0  0  0  0  0  0  0
   -1.4920   11.4970   17.6460 H   0  0  0  0  0  0  0  0  0  0  0  0
   -1.0410   14.3180   19.1440 N   0  0  0  0  0  0  0  0  0  0  0  0
   -1.4340   13.2010   19.8290 C   0  0  0  0  0  0  0  0  0  0  0  0
   -2.3620   13.2490   20.6250 O   0  0  0  0  0  0  0  0  0  0  0  0
   -1.4940   15.1790   19.4250 H   0  0  0  0  0  0  0  0  0  0  0  0
   -0.1220   14.3950   18.7340 H   0  0  0  0  0  0  0  0  0  0  0  0
  1 27  1  0  0  0  0
  1  2  1  0  0  0  0
  2  3  2  0  0  0  0
  2 11  1  0  0  0  0
  3 16  1  0  0  0  0
  4  3  1  0  0  0  0
  5  4  2  0  0  0  0
  6 12  1  0  0  0  0
  6  5  1  0  0  0  0
  7  6  2  0  0  0  0
  8  7  1  0  0  0  0
  8  9  2  0  0  0  0
  9 10  1  0  0  0  0
 10  5  1  0  0  0  0
 10  1  2  0  0  0  0
 13  7  1  0  0  0  0
 14  8  1  0  0  0  0
 15  9  1  0  0  0  0
 16 21  2  0  0  0  0
 16 17  1  0  0  0  0
 17 18  2  0  0  0  0
 18 19  1  0  0  0  0
 18 23  1  0  0  0  0
 19 24  1  0  0  0  0
 20 19  2  0  0  0  0
 21 20  1  0  0  0  0
 22 17  1  0  0  0  0
 25 21  1  0  0  0  0
 26 33  1  0  0  0  0
 26 29  1  0  0  0  0
 27 26  1  0  0  0  0
 28 27  2  0  0  0  0
 30 41  1  0  0  0  0
 30 31  1  0  0  0  0
 31 36  1  0  0  0  0
 32 31  2  0  0  0  0
 32 37  1  0  0  0  0
 33 32  1  0  0  0  0
 34 35  1  0  0  0  0
 34 33  2  0  0  0  0
 35 30  2  0  0  0  0
 38 34  1  0  0  0  0
 39 35  1  0  0  0  0
 40 43  1  0  0  0  0
 40 41  1  0  0  0  0
 41 42  2  0  0  0  0
 44 40  1  0  0  0  0
M  END
>  <MODEL>
18

>  <REMARK>
 VINA RESULT:    -6.477      1.876      4.686
 INTER + INTRA:          -7.799
 INTER:                  -7.663
 INTRA:                  -0.135
 UNBOUND:                 0.192
  Name = 
  4 active torsions:
  status: ('A' for Active; 'I' for Inactive)
    1  A    between atoms: C_2  and  C_4
    2  A    between atoms: C_7  and  N_8
    3  A    between atoms: C_9  and  C_11
    4  A    between atoms: C_13  and  C_14
                            x       y       z     vdW  Elec       q    Type
                         _______ _______ _______ _____ _____    ______ ____

>  <TORSDO>
F 4

$$$$
