=
 OpenBabel07192307433D

 54 57  0  0  1  0  0  0  0  0999 V2000
    6.0130    4.3410   14.2430 C   0  0  0  0  0  0  0  0  0  0  0  0
    7.2630    4.8070   14.6700 C   0  0  0  0  0  0  0  0  0  0  0  0
    7.5330    4.9460   16.0290 C   0  0  0  0  0  0  0  0  0  0  0  0
    6.5580    4.6220   16.9780 C   0  0  0  0  0  0  0  0  0  0  0  0
    5.2940    4.1260   16.6000 C   0  0  0  0  0  0  0  0  0  0  0  0
    5.0490    4.0120   15.2160 C   0  0  0  0  0  0  0  0  0  0  0  0
    4.2850    3.7240   17.6810 C   0  0  2  0  0  0  0  0  0  0  0  0
    4.9350    3.6230   19.0480 C   0  0  0  0  0  0  0  0  0  0  0  0
    5.8580    4.8170   19.2250 C   0  0  0  0  0  0  0  0  0  0  0  0
    6.9450    4.7800   18.2900 O   0  0  0  0  0  0  0  0  0  0  0  0
    3.1690    2.7380   17.3940 C   0  0  0  0  0  0  0  0  0  0  0  0
    2.8390    4.2080   17.5460 C   0  0  1  0  0  0  0  0  0  0  0  0
    8.0400    5.0580   13.9510 H   0  0  0  0  0  0  0  0  0  0  0  0
    8.5080    5.3060   16.3560 H   0  0  0  0  0  0  0  0  0  0  0  0
    4.0820    3.6510   14.8790 H   0  0  0  0  0  0  0  0  0  0  0  0
    5.5120    2.6950   19.0920 H   0  0  0  0  0  0  0  0  0  0  0  0
    4.2010    3.5860   19.8590 H   0  0  0  0  0  0  0  0  0  0  0  0
    6.2960    4.7970   20.2290 H   0  0  0  0  0  0  0  0  0  0  0  0
    5.3290    5.7690   19.1200 H   0  0  0  0  0  0  0  0  0  0  0  0
    3.0930    2.2890   16.4120 H   0  0  0  0  0  0  0  0  0  0  0  0
    2.8840    2.0540   18.1890 H   0  0  0  0  0  0  0  0  0  0  0  0
    2.5950    4.7550   16.6390 H   0  0  0  0  0  0  0  0  0  0  0  0
    2.0610    4.6950   18.7130 C   0  0  0  0  0  0  0  0  0  0  0  0
    1.1600    4.0230   19.1910 O   0  0  0  0  0  0  0  0  0  0  0  0
    2.4870    5.9050   19.1930 N   0  0  0  0  0  0  0  0  0  0  0  0
    3.3340    6.3000   18.8100 H   0  0  0  0  0  0  0  0  0  0  0  0
    1.9720    6.4470   20.4260 C   0  0  0  0  0  0  0  0  0  0  0  0
    2.7500    6.4050   21.1910 H   0  0  0  0  0  0  0  0  0  0  0  0
    1.1490    5.8070   20.7600 H   0  0  0  0  0  0  0  0  0  0  0  0
    1.4820    7.8610   20.2400 C   0  0  0  0  0  0  0  0  0  0  0  0
    1.6760    8.5330   19.0270 C   0  0  0  0  0  0  0  0  0  0  0  0
    1.2750    9.8670   18.8850 C   0  0  0  0  0  0  0  0  0  0  0  0
    0.6590   10.5320   19.9430 C   0  0  0  0  0  0  0  0  0  0  0  0
    0.4360    9.8680   21.1540 C   0  0  0  0  0  0  0  0  0  0  0  0
    0.8680    8.5440   21.3060 C   0  0  0  0  0  0  0  0  0  0  0  0
    2.1630    8.0270   18.1930 H   0  0  0  0  0  0  0  0  0  0  0  0
    1.4510   10.3910   17.9530 H   0  0  0  0  0  0  0  0  0  0  0  0
    0.3500   11.5700   19.8280 H   0  0  0  0  0  0  0  0  0  0  0  0
    0.7690    8.0410   22.2630 H   0  0  0  0  0  0  0  0  0  0  0  0
   -0.2440   10.6180   22.2570 C   0  0  0  0  0  0  0  0  0  0  0  0
   -0.5610    9.9290   23.3990 N   0  0  0  0  0  0  0  0  0  0  0  0
   -0.5430   11.8010   22.1460 O   0  0  0  0  0  0  0  0  0  0  0  0
   -0.4600    8.9260   23.4870 H   0  0  0  0  0  0  0  0  0  0  0  0
   -1.1120   10.4150   24.0970 H   0  0  0  0  0  0  0  0  0  0  0  0
    5.6840    4.1700   12.7700 C   0  0  0  0  0  0  0  0  0  0  0  0
    5.4270    5.1540   12.3510 H   0  0  0  0  0  0  0  0  0  0  0  0
    6.8810    3.6480   11.9720 C   0  0  0  0  0  0  0  0  0  0  0  0
    7.2530    2.6920   12.3630 H   0  0  0  0  0  0  0  0  0  0  0  0
    6.6060    3.4930   10.9200 H   0  0  0  0  0  0  0  0  0  0  0  0
    7.7110    4.3640   11.9960 H   0  0  0  0  0  0  0  0  0  0  0  0
    4.4620    3.2660   12.5720 C   0  0  0  0  0  0  0  0  0  0  0  0
    4.7110    2.2190   12.7780 H   0  0  0  0  0  0  0  0  0  0  0  0
    4.0750    3.3220   11.5490 H   0  0  0  0  0  0  0  0  0  0  0  0
    3.6530    3.5580   13.2510 H   0  0  0  0  0  0  0  0  0  0  0  0
  1  2  2  0  0  0  0
  1  6  1  0  0  0  0
  2  3  1  0  0  0  0
  3 14  1  0  0  0  0
  3  4  2  0  0  0  0
  4 10  1  0  0  0  0
  5  4  1  0  0  0  0
  6  5  2  0  0  0  0
  7  5  1  6  0  0  0
  7  8  1  0  0  0  0
  8 16  1  0  0  0  0
  8  9  1  0  0  0  0
  8 17  1  0  0  0  0
  9 18  1  0  0  0  0
 10  9  1  0  0  0  0
 11 12  1  0  0  0  0
 11  7  1  0  0  0  0
 11 21  1  0  0  0  0
 12 22  1  6  0  0  0
 12  7  1  0  0  0  0
 12 23  1  0  0  0  0
 13  2  1  0  0  0  0
 15  6  1  0  0  0  0
 19  9  1  0  0  0  0
 20 11  1  0  0  0  0
 23 24  2  0  0  0  0
 23 25  1  0  0  0  0
 25 27  1  0  0  0  0
 26 25  1  0  0  0  0
 27 29  1  0  0  0  0
 27 28  1  0  0  0  0
 30 27  1  0  0  0  0
 30 35  1  0  0  0  0
 31 30  2  0  0  0  0
 32 31  1  0  0  0  0
 32 33  2  0  0  0  0
 33 34  1  0  0  0  0
 34 35  2  0  0  0  0
 34 40  1  0  0  0  0
 35 39  1  0  0  0  0
 36 31  1  0  0  0  0
 37 32  1  0  0  0  0
 38 33  1  0  0  0  0
 40 41  1  0  0  0  0
 41 43  1  0  0  0  0
 41 44  1  0  0  0  0
 42 40  2  0  0  0  0
 45  1  1  0  0  0  0
 46 45  1  0  0  0  0
 47 50  1  0  0  0  0
 47 48  1  0  0  0  0
 47 45  1  0  0  0  0
 49 47  1  0  0  0  0
 51 45  1  0  0  0  0
 51 52  1  0  0  0  0
 51 54  1  0  0  0  0
 53 51  1  0  0  0  0
M  END
>  <MODEL>
1

>  <REMARK>
 VINA RESULT:    -8.245      0.000      0.000
 INTER + INTRA:         -11.622
 INTER:                 -11.065
 INTRA:                  -0.557
 UNBOUND:                -0.484
  Name = 
  7 active torsions:
  status: ('A' for Active; 'I' for Inactive)
    1  A    between atoms: C_1  and  C_2
    2  A    between atoms: C_2  and  C_3
    3  A    between atoms: C_2  and  C_4
    4  A    between atoms: C_15  and  C_16
    5  A    between atoms: N_18  and  C_19
    6  A    between atoms: C_19  and  C_20
    7  A    between atoms: C_24  and  C_25
                            x       y       z     vdW  Elec       q    Type
                         _______ _______ _______ _____ _____    ______ ____

>  <TORSDO>
F 7

$$$$
=
 OpenBabel07192307433D

 54 57  0  0  1  0  0  0  0  0999 V2000
    5.9890    4.4960   14.5470 C   0  0  0  0  0  0  0  0  0  0  0  0
    7.2180    4.9240   15.0640 C   0  0  0  0  0  0  0  0  0  0  0  0
    7.4310    4.9490   16.4400 C   0  0  0  0  0  0  0  0  0  0  0  0
    6.4190    4.5450   17.3160 C   0  0  0  0  0  0  0  0  0  0  0  0
    5.1740    4.0810   16.8460 C   0  0  0  0  0  0  0  0  0  0  0  0
    4.9870    4.0850   15.4480 C   0  0  0  0  0  0  0  0  0  0  0  0
    4.1230    3.5890   17.8460 C   0  0  2  0  0  0  0  0  0  0  0  0
    4.7160    3.3730   19.2250 C   0  0  0  0  0  0  0  0  0  0  0  0
    5.6260    4.5480   19.5410 C   0  0  0  0  0  0  0  0  0  0  0  0
    6.7510    4.5910   18.6520 O   0  0  0  0  0  0  0  0  0  0  0  0
    3.0240    2.6300   17.4310 C   0  0  0  0  0  0  0  0  0  0  0  0
    2.6820    4.0820   17.6920 C   0  0  1  0  0  0  0  0  0  0  0  0
    8.0230    5.2360   14.4020 H   0  0  0  0  0  0  0  0  0  0  0  0
    8.3900    5.2800   16.8360 H   0  0  0  0  0  0  0  0  0  0  0  0
    4.0360    3.7520   15.0420 H   0  0  0  0  0  0  0  0  0  0  0  0
    5.2950    2.4450   19.2150 H   0  0  0  0  0  0  0  0  0  0  0  0
    3.9490    3.2670   19.9990 H   0  0  0  0  0  0  0  0  0  0  0  0
    6.0220    4.4450   20.5570 H   0  0  0  0  0  0  0  0  0  0  0  0
    5.0980    5.5060   19.4940 H   0  0  0  0  0  0  0  0  0  0  0  0
    2.9900    2.2650   16.4120 H   0  0  0  0  0  0  0  0  0  0  0  0
    2.7090    1.8810   18.1520 H   0  0  0  0  0  0  0  0  0  0  0  0
    2.4730    4.7030   16.8250 H   0  0  0  0  0  0  0  0  0  0  0  0
    1.8540    4.4680   18.8630 C   0  0  0  0  0  0  0  0  0  0  0  0
    0.9320    3.7610   19.2400 O   0  0  0  0  0  0  0  0  0  0  0  0
    2.2600    5.6280   19.4660 N   0  0  0  0  0  0  0  0  0  0  0  0
    3.1220    6.0520   19.1560 H   0  0  0  0  0  0  0  0  0  0  0  0
    1.6920    6.0620   20.7190 C   0  0  0  0  0  0  0  0  0  0  0  0
    2.4380    5.9560   21.5080 H   0  0  0  0  0  0  0  0  0  0  0  0
    0.8590    5.3950   20.9620 H   0  0  0  0  0  0  0  0  0  0  0  0
    1.2030    7.4870   20.6340 C   0  0  0  0  0  0  0  0  0  0  0  0
    0.2860    7.9870   21.5660 C   0  0  0  0  0  0  0  0  0  0  0  0
   -0.2100    9.2890   21.4420 C   0  0  0  0  0  0  0  0  0  0  0  0
    0.2210   10.1090   20.4010 C   0  0  0  0  0  0  0  0  0  0  0  0
    1.1550    9.6340   19.4750 C   0  0  0  0  0  0  0  0  0  0  0  0
    1.6260    8.3190   19.5800 C   0  0  0  0  0  0  0  0  0  0  0  0
   -0.0650    7.3540   22.3820 H   0  0  0  0  0  0  0  0  0  0  0  0
   -0.9400    9.6630   22.1500 H   0  0  0  0  0  0  0  0  0  0  0  0
   -0.1700   11.1220   20.3080 H   0  0  0  0  0  0  0  0  0  0  0  0
    2.2930    7.9130   18.8270 H   0  0  0  0  0  0  0  0  0  0  0  0
    1.6010   10.5570   18.3830 C   0  0  0  0  0  0  0  0  0  0  0  0
    2.2200   10.0040   17.2920 N   0  0  0  0  0  0  0  0  0  0  0  0
    1.4540   11.7700   18.4620 O   0  0  0  0  0  0  0  0  0  0  0  0
    2.4860    9.0290   17.2400 H   0  0  0  0  0  0  0  0  0  0  0  0
    2.6120   10.6410   16.6070 H   0  0  0  0  0  0  0  0  0  0  0  0
    5.7210    4.4500   13.0520 C   0  0  0  0  0  0  0  0  0  0  0  0
    5.1820    5.3640   12.7640 H   0  0  0  0  0  0  0  0  0  0  0  0
    7.0180    4.4250   12.2390 C   0  0  0  0  0  0  0  0  0  0  0  0
    7.9070    4.3590   12.8800 H   0  0  0  0  0  0  0  0  0  0  0  0
    7.0310    3.5610   11.5610 H   0  0  0  0  0  0  0  0  0  0  0  0
    7.1150    5.3280   11.6270 H   0  0  0  0  0  0  0  0  0  0  0  0
    4.8240    3.2640   12.6820 C   0  0  0  0  0  0  0  0  0  0  0  0
    3.7980    3.5940   12.4840 H   0  0  0  0  0  0  0  0  0  0  0  0
    4.7850    2.5160   13.4830 H   0  0  0  0  0  0  0  0  0  0  0  0
    5.1970    2.7660   11.7790 H   0  0  0  0  0  0  0  0  0  0  0  0
  1  2  2  0  0  0  0
  1  6  1  0  0  0  0
  2  3  1  0  0  0  0
  3 14  1  0  0  0  0
  3  4  2  0  0  0  0
  4 10  1  0  0  0  0
  5  4  1  0  0  0  0
  6  5  2  0  0  0  0
  7  5  1  6  0  0  0
  7  8  1  0  0  0  0
  8  9  1  0  0  0  0
  8 17  1  0  0  0  0
  9 18  1  0  0  0  0
 10  9  1  0  0  0  0
 11 12  1  0  0  0  0
 11  7  1  0  0  0  0
 11 21  1  0  0  0  0
 12 22  1  6  0  0  0
 12  7  1  0  0  0  0
 12 23  1  0  0  0  0
 13  2  1  0  0  0  0
 15  6  1  0  0  0  0
 16  8  1  0  0  0  0
 19  9  1  0  0  0  0
 20 11  1  0  0  0  0
 23 24  2  0  0  0  0
 23 25  1  0  0  0  0
 25 27  1  0  0  0  0
 26 25  1  0  0  0  0
 27 29  1  0  0  0  0
 27 28  1  0  0  0  0
 30 27  1  0  0  0  0
 30 31  1  0  0  0  0
 31 36  1  0  0  0  0
 32 31  2  0  0  0  0
 32 37  1  0  0  0  0
 33 32  1  0  0  0  0
 34 35  1  0  0  0  0
 34 33  2  0  0  0  0
 35 30  2  0  0  0  0
 38 33  1  0  0  0  0
 39 35  1  0  0  0  0
 40 42  2  0  0  0  0
 40 34  1  0  0  0  0
 41 40  1  0  0  0  0
 43 41  1  0  0  0  0
 44 41  1  0  0  0  0
 45  1  1  0  0  0  0
 46 45  1  0  0  0  0
 47 48  1  0  0  0  0
 47 45  1  0  0  0  0
 49 47  1  0  0  0  0
 50 47  1  0  0  0  0
 51 45  1  0  0  0  0
 51 53  1  0  0  0  0
 52 51  1  0  0  0  0
 54 51  1  0  0  0  0
M  END
>  <MODEL>
2

>  <REMARK>
 VINA RESULT:    -7.660      1.561      1.982
 INTER + INTRA:         -10.831
 INTER:                 -10.189
 INTRA:                  -0.643
 UNBOUND:                -0.484
  Name = 
  7 active torsions:
  status: ('A' for Active; 'I' for Inactive)
    1  A    between atoms: C_1  and  C_2
    2  A    between atoms: C_2  and  C_3
    3  A    between atoms: C_2  and  C_4
    4  A    between atoms: C_15  and  C_16
    5  A    between atoms: N_18  and  C_19
    6  A    between atoms: C_19  and  C_20
    7  A    between atoms: C_24  and  C_25
                            x       y       z     vdW  Elec       q    Type
                         _______ _______ _______ _____ _____    ______ ____

>  <TORSDO>
F 7

$$$$
=
 OpenBabel07192307433D

 54 57  0  0  1  0  0  0  0  0999 V2000
   -2.2390   11.0070   17.5600 C   0  0  0  0  0  0  0  0  0  0  0  0
   -2.7850   11.6900   18.6540 C   0  0  0  0  0  0  0  0  0  0  0  0
   -2.1190   11.7040   19.8770 C   0  0  0  0  0  0  0  0  0  0  0  0
   -0.8990   11.0350   20.0220 C   0  0  0  0  0  0  0  0  0  0  0  0
   -0.2960   10.3550   18.9450 C   0  0  0  0  0  0  0  0  0  0  0  0
   -1.0050   10.3480   17.7260 C   0  0  0  0  0  0  0  0  0  0  0  0
    1.0730    9.6940   19.1400 C   0  0  2  0  0  0  0  0  0  0  0  0
    1.7430   10.1530   20.4210 C   0  0  0  0  0  0  0  0  0  0  0  0
    0.7000   10.1640   21.5260 C   0  0  0  0  0  0  0  0  0  0  0  0
   -0.3230   11.1360   21.2690 O   0  0  0  0  0  0  0  0  0  0  0  0
    1.9910    9.4160   17.9660 C   0  0  0  0  0  0  0  0  0  0  0  0
    1.2710    8.2630   18.6340 C   0  0  1  0  0  0  0  0  0  0  0  0
   -3.7290   12.2240   18.5640 H   0  0  0  0  0  0  0  0  0  0  0  0
   -2.5470   12.2390   20.7230 H   0  0  0  0  0  0  0  0  0  0  0  0
   -0.5850    9.8200   16.8750 H   0  0  0  0  0  0  0  0  0  0  0  0
    2.1340   11.1630   20.2680 H   0  0  0  0  0  0  0  0  0  0  0  0
    2.5890    9.5190   20.7020 H   0  0  0  0  0  0  0  0  0  0  0  0
    1.1730   10.4370   22.4750 H   0  0  0  0  0  0  0  0  0  0  0  0
    0.2340    9.1830   21.6650 H   0  0  0  0  0  0  0  0  0  0  0  0
    1.6870    9.7080   16.9680 H   0  0  0  0  0  0  0  0  0  0  0  0
    3.0600    9.5260   18.1240 H   0  0  0  0  0  0  0  0  0  0  0  0
    0.4380    7.8220   18.0930 H   0  0  0  0  0  0  0  0  0  0  0  0
    2.0230    7.2500   19.4160 C   0  0  0  0  0  0  0  0  0  0  0  0
    1.6970    6.9720   20.5600 O   0  0  0  0  0  0  0  0  0  0  0  0
    3.0420    6.6600   18.7180 N   0  0  0  0  0  0  0  0  0  0  0  0
    3.1280    6.8630   17.7330 H   0  0  0  0  0  0  0  0  0  0  0  0
    3.7630    5.5300   19.2520 C   0  0  0  0  0  0  0  0  0  0  0  0
    3.1320    4.6410   19.1940 H   0  0  0  0  0  0  0  0  0  0  0  0
    3.9600    5.7240   20.3110 H   0  0  0  0  0  0  0  0  0  0  0  0
    5.0620    5.3120   18.5170 C   0  0  0  0  0  0  0  0  0  0  0  0
    6.2820    5.3040   19.2030 C   0  0  0  0  0  0  0  0  0  0  0  0
    7.4860    5.1650   18.5050 C   0  0  0  0  0  0  0  0  0  0  0  0
    7.4810    5.0110   17.1200 C   0  0  0  0  0  0  0  0  0  0  0  0
    6.2710    4.9930   16.4210 C   0  0  0  0  0  0  0  0  0  0  0  0
    5.0670    5.1660   17.1170 C   0  0  0  0  0  0  0  0  0  0  0  0
    6.3010    5.4300   20.2860 H   0  0  0  0  0  0  0  0  0  0  0  0
    8.4300    5.1860   19.0380 H   0  0  0  0  0  0  0  0  0  0  0  0
    8.4220    4.9050   16.5800 H   0  0  0  0  0  0  0  0  0  0  0  0
    4.1260    5.2280   16.5800 H   0  0  0  0  0  0  0  0  0  0  0  0
    6.3140    4.8090   14.9350 C   0  0  0  0  0  0  0  0  0  0  0  0
    7.4450    5.2110   14.2730 N   0  0  0  0  0  0  0  0  0  0  0  0
    5.3650    4.3460   14.3130 O   0  0  0  0  0  0  0  0  0  0  0  0
    8.1960    5.7220   14.7200 H   0  0  0  0  0  0  0  0  0  0  0  0
    7.4260    5.1820   13.2600 H   0  0  0  0  0  0  0  0  0  0  0  0
   -2.9330   10.9750   16.2090 C   0  0  0  0  0  0  0  0  0  0  0  0
   -2.4680   11.7280   15.5580 H   0  0  0  0  0  0  0  0  0  0  0  0
   -2.7650    9.6220   15.5110 C   0  0  0  0  0  0  0  0  0  0  0  0
   -2.5480    8.8140   16.2220 H   0  0  0  0  0  0  0  0  0  0  0  0
   -3.6820    9.3520   14.9700 H   0  0  0  0  0  0  0  0  0  0  0  0
   -1.9470    9.6550   14.7830 H   0  0  0  0  0  0  0  0  0  0  0  0
   -4.4150   11.3420   16.3340 C   0  0  0  0  0  0  0  0  0  0  0  0
   -4.7760   11.1790   17.3560 H   0  0  0  0  0  0  0  0  0  0  0  0
   -5.0420   10.7470   15.6600 H   0  0  0  0  0  0  0  0  0  0  0  0
   -4.5720   12.3990   16.0880 H   0  0  0  0  0  0  0  0  0  0  0  0
  1  6  2  0  0  0  0
  1  2  1  0  0  0  0
  2  3  2  0  0  0  0
  3  4  1  0  0  0  0
  3 14  1  0  0  0  0
  4 10  1  0  0  0  0
  5  4  2  0  0  0  0
  6  5  1  0  0  0  0
  7  5  1  6  0  0  0
  7  8  1  0  0  0  0
  8 17  1  0  0  0  0
  8  9  1  0  0  0  0
  9 19  1  0  0  0  0
  9 18  1  0  0  0  0
 10  9  1  0  0  0  0
 11 21  1  0  0  0  0
 11 12  1  0  0  0  0
 11  7  1  0  0  0  0
 12 22  1  6  0  0  0
 12  7  1  0  0  0  0
 12 23  1  0  0  0  0
 13  2  1  0  0  0  0
 15  6  1  0  0  0  0
 16  8  1  0  0  0  0
 20 11  1  0  0  0  0
 23 24  2  0  0  0  0
 25 27  1  0  0  0  0
 25 23  1  0  0  0  0
 26 25  1  0  0  0  0
 27 29  1  0  0  0  0
 28 27  1  0  0  0  0
 30 31  1  0  0  0  0
 30 27  1  0  0  0  0
 31 36  1  0  0  0  0
 32 37  1  0  0  0  0
 32 31  2  0  0  0  0
 33 32  1  0  0  0  0
 34 35  1  0  0  0  0
 34 33  2  0  0  0  0
 35 30  2  0  0  0  0
 38 33  1  0  0  0  0
 39 35  1  0  0  0  0
 40 34  1  0  0  0  0
 41 43  1  0  0  0  0
 41 40  1  0  0  0  0
 42 40  2  0  0  0  0
 44 41  1  0  0  0  0
 45 51  1  0  0  0  0
 45  1  1  0  0  0  0
 46 45  1  0  0  0  0
 47 45  1  0  0  0  0
 47 48  1  0  0  0  0
 49 47  1  0  0  0  0
 50 47  1  0  0  0  0
 51 52  1  0  0  0  0
 53 51  1  0  0  0  0
 54 51  1  0  0  0  0
M  END
>  <MODEL>
3

>  <REMARK>
 VINA RESULT:    -7.489      2.939      9.009
 INTER + INTRA:         -10.600
 INTER:                 -10.189
 INTRA:                  -0.411
 UNBOUND:                -0.484
  Name = 
  7 active torsions:
  status: ('A' for Active; 'I' for Inactive)
    1  A    between atoms: C_1  and  C_2
    2  A    between atoms: C_2  and  C_3
    3  A    between atoms: C_2  and  C_4
    4  A    between atoms: C_15  and  C_16
    5  A    between atoms: N_18  and  C_19
    6  A    between atoms: C_19  and  C_20
    7  A    between atoms: C_24  and  C_25
                            x       y       z     vdW  Elec       q    Type
                         _______ _______ _______ _____ _____    ______ ____

>  <TORSDO>
F 7

$$$$
=
 OpenBabel07192307433D

 54 57  0  0  1  0  0  0  0  0999 V2000
    3.0120    4.1030   19.4380 C   0  0  0  0  0  0  0  0  0  0  0  0
    2.5630    3.2960   18.3850 C   0  0  0  0  0  0  0  0  0  0  0  0
    3.3600    3.1050   17.2590 C   0  0  0  0  0  0  0  0  0  0  0  0
    4.6150    3.7170   17.1720 C   0  0  0  0  0  0  0  0  0  0  0  0
    5.1220    4.5170   18.2160 C   0  0  0  0  0  0  0  0  0  0  0  0
    4.2820    4.7020   19.3340 C   0  0  0  0  0  0  0  0  0  0  0  0
    6.5290    5.1110   18.0980 C   0  0  2  0  0  0  0  0  0  0  0  0
    7.3190    4.4710   16.9720 C   0  0  0  0  0  0  0  0  0  0  0  0
    6.4060    4.3420   15.7650 C   0  0  0  0  0  0  0  0  0  0  0  0
    5.3220    3.4390   16.0230 O   0  0  0  0  0  0  0  0  0  0  0  0
    7.3210    5.5170   19.3260 C   0  0  0  0  0  0  0  0  0  0  0  0
    6.7280    6.5900   18.4380 C   0  0  1  0  0  0  0  0  0  0  0  0
    1.5940    2.8040   18.4320 H   0  0  0  0  0  0  0  0  0  0  0  0
    3.0080    2.4750   16.4440 H   0  0  0  0  0  0  0  0  0  0  0  0
    4.6250    5.3250   20.1540 H   0  0  0  0  0  0  0  0  0  0  0  0
    7.6490    3.4790   17.2970 H   0  0  0  0  0  0  0  0  0  0  0  0
    8.2160    5.0410   16.7130 H   0  0  0  0  0  0  0  0  0  0  0  0
    6.9700    3.9350   14.9190 H   0  0  0  0  0  0  0  0  0  0  0  0
    5.9980    5.3080   15.4490 H   0  0  0  0  0  0  0  0  0  0  0  0
    6.8960    5.3660   20.3100 H   0  0  0  0  0  0  0  0  0  0  0  0
    8.3960    5.3590   19.3080 H   0  0  0  0  0  0  0  0  0  0  0  0
    5.8590    7.1200   18.8180 H   0  0  0  0  0  0  0  0  0  0  0  0
    7.6020    7.4720   17.6250 C   0  0  0  0  0  0  0  0  0  0  0  0
    7.6180    7.3900   16.4060 O   0  0  0  0  0  0  0  0  0  0  0  0
    8.3170    8.3750   18.3670 N   0  0  0  0  0  0  0  0  0  0  0  0
    8.1150    8.4490   19.3530 H   0  0  0  0  0  0  0  0  0  0  0  0
    9.0770    9.4280   17.7400 C   0  0  0  0  0  0  0  0  0  0  0  0
    8.5860    9.7240   16.8110 H   0  0  0  0  0  0  0  0  0  0  0  0
   10.0610    9.0250   17.4770 H   0  0  0  0  0  0  0  0  0  0  0  0
    9.2350   10.6120   18.6610 C   0  0  0  0  0  0  0  0  0  0  0  0
    9.4670   10.4300   20.0290 C   0  0  0  0  0  0  0  0  0  0  0  0
    9.5480   11.5340   20.8870 C   0  0  0  0  0  0  0  0  0  0  0  0
    9.4220   12.8260   20.3820 C   0  0  0  0  0  0  0  0  0  0  0  0
    9.2140   13.0270   19.0130 C   0  0  0  0  0  0  0  0  0  0  0  0
    9.0990   11.9210   18.1610 C   0  0  0  0  0  0  0  0  0  0  0  0
    9.5610    9.4240   20.4390 H   0  0  0  0  0  0  0  0  0  0  0  0
    9.7010   11.3860   21.9490 H   0  0  0  0  0  0  0  0  0  0  0  0
    9.4840   13.6820   21.0530 H   0  0  0  0  0  0  0  0  0  0  0  0
    8.8640   12.0590   17.1110 H   0  0  0  0  0  0  0  0  0  0  0  0
    9.1000   14.4340   18.5140 C   0  0  0  0  0  0  0  0  0  0  0  0
    9.8320   14.7830   17.4090 N   0  0  0  0  0  0  0  0  0  0  0  0
    8.4040   15.2670   19.0830 O   0  0  0  0  0  0  0  0  0  0  0  0
   10.5220   14.1750   16.9880 H   0  0  0  0  0  0  0  0  0  0  0  0
    9.8320   15.7600   17.1410 H   0  0  0  0  0  0  0  0  0  0  0  0
    2.1730    4.3300   20.6850 C   0  0  0  0  0  0  0  0  0  0  0  0
    2.8180    4.2130   21.5670 H   0  0  0  0  0  0  0  0  0  0  0  0
    1.6010    5.7490   20.7400 C   0  0  0  0  0  0  0  0  0  0  0  0
    2.1110    6.4270   20.0430 H   0  0  0  0  0  0  0  0  0  0  0  0
    0.5340    5.7440   20.4790 H   0  0  0  0  0  0  0  0  0  0  0  0
    1.6950    6.1710   21.7460 H   0  0  0  0  0  0  0  0  0  0  0  0
    1.0560    3.2870   20.8030 C   0  0  0  0  0  0  0  0  0  0  0  0
    1.4600    2.2700   20.7530 H   0  0  0  0  0  0  0  0  0  0  0  0
    0.3150    3.3910   20.0030 H   0  0  0  0  0  0  0  0  0  0  0  0
    0.5310    3.3930   21.7590 H   0  0  0  0  0  0  0  0  0  0  0  0
  1 45  1  0  0  0  0
  2 13  1  0  0  0  0
  2  1  2  0  0  0  0
  3  2  1  0  0  0  0
  4  3  2  0  0  0  0
  4  5  1  0  0  0  0
  5  6  2  0  0  0  0
  6  1  1  0  0  0  0
  6 15  1  0  0  0  0
  7  5  1  1  0  0  0
  7 12  1  0  0  0  0
  7 11  1  0  0  0  0
  8 16  1  0  0  0  0
  8  7  1  0  0  0  0
  9 10  1  0  0  0  0
  9  8  1  0  0  0  0
 10  4  1  0  0  0  0
 11 20  1  0  0  0  0
 12 22  1  1  0  0  0
 12 11  1  0  0  0  0
 14  3  1  0  0  0  0
 17  8  1  0  0  0  0
 18  9  1  0  0  0  0
 19  9  1  0  0  0  0
 21 11  1  0  0  0  0
 23 25  1  0  0  0  0
 23 12  1  0  0  0  0
 24 23  2  0  0  0  0
 25 26  1  0  0  0  0
 27 25  1  0  0  0  0
 27 30  1  0  0  0  0
 28 27  1  0  0  0  0
 29 27  1  0  0  0  0
 30 31  1  0  0  0  0
 31 36  1  0  0  0  0
 31 32  2  0  0  0  0
 32 37  1  0  0  0  0
 33 32  1  0  0  0  0
 33 38  1  0  0  0  0
 34 33  2  0  0  0  0
 35 30  2  0  0  0  0
 35 34  1  0  0  0  0
 39 35  1  0  0  0  0
 40 34  1  0  0  0  0
 40 42  2  0  0  0  0
 41 40  1  0  0  0  0
 43 41  1  0  0  0  0
 44 41  1  0  0  0  0
 45 47  1  0  0  0  0
 45 51  1  0  0  0  0
 45 46  1  0  0  0  0
 47 50  1  0  0  0  0
 48 47  1  0  0  0  0
 49 47  1  0  0  0  0
 51 54  1  0  0  0  0
 52 51  1  0  0  0  0
 53 51  1  0  0  0  0
M  END
>  <MODEL>
4

>  <REMARK>
 VINA RESULT:    -7.399      5.345      7.420
 INTER + INTRA:         -10.478
 INTER:                 -10.433
 INTRA:                  -0.045
 UNBOUND:                -0.484
  Name = 
  7 active torsions:
  status: ('A' for Active; 'I' for Inactive)
    1  A    between atoms: C_1  and  C_2
    2  A    between atoms: C_2  and  C_3
    3  A    between atoms: C_2  and  C_4
    4  A    between atoms: C_15  and  C_16
    5  A    between atoms: N_18  and  C_19
    6  A    between atoms: C_19  and  C_20
    7  A    between atoms: C_24  and  C_25
                            x       y       z     vdW  Elec       q    Type
                         _______ _______ _______ _____ _____    ______ ____

>  <TORSDO>
F 7

$$$$
=
 OpenBabel07192307433D

 54 57  0  0  1  0  0  0  0  0999 V2000
   -2.8380   11.4990   17.9330 C   0  0  0  0  0  0  0  0  0  0  0  0
   -3.3770   12.1970   19.0210 C   0  0  0  0  0  0  0  0  0  0  0  0
   -2.6740   12.2780   20.2210 C   0  0  0  0  0  0  0  0  0  0  0  0
   -1.4240   11.6640   20.3470 C   0  0  0  0  0  0  0  0  0  0  0  0
   -0.8270   10.9720   19.2740 C   0  0  0  0  0  0  0  0  0  0  0  0
   -1.5740   10.8960   18.0790 C   0  0  0  0  0  0  0  0  0  0  0  0
    0.5720   10.3730   19.4440 C   0  0  2  0  0  0  0  0  0  0  0  0
    1.2630   10.9010   20.6870 C   0  0  0  0  0  0  0  0  0  0  0  0
    0.2560   10.9070   21.8250 C   0  0  0  0  0  0  0  0  0  0  0  0
   -0.8140   11.8290   21.5710 O   0  0  0  0  0  0  0  0  0  0  0  0
    1.4640   10.0930   18.2500 C   0  0  0  0  0  0  0  0  0  0  0  0
    0.8130    8.9350   18.9780 C   0  0  1  0  0  0  0  0  0  0  0  0
   -4.3450   12.6880   18.9450 H   0  0  0  0  0  0  0  0  0  0  0  0
   -3.0970   12.8240   21.0630 H   0  0  0  0  0  0  0  0  0  0  0  0
   -1.1600   10.3580   17.2320 H   0  0  0  0  0  0  0  0  0  0  0  0
    1.6080   11.9210   20.4880 H   0  0  0  0  0  0  0  0  0  0  0  0
    2.1430   10.3110   20.9600 H   0  0  0  0  0  0  0  0  0  0  0  0
    0.7470   11.2310   22.7490 H   0  0  0  0  0  0  0  0  0  0  0  0
   -0.1650    9.9140   22.0100 H   0  0  0  0  0  0  0  0  0  0  0  0
    1.1160   10.3390   17.2540 H   0  0  0  0  0  0  0  0  0  0  0  0
    2.5320   10.2510   18.3690 H   0  0  0  0  0  0  0  0  0  0  0  0
   -0.0180    8.4430   18.4790 H   0  0  0  0  0  0  0  0  0  0  0  0
    1.6300    7.9800   19.7670 C   0  0  0  0  0  0  0  0  0  0  0  0
    1.3440    7.7180   20.9260 O   0  0  0  0  0  0  0  0  0  0  0  0
    2.6600    7.4200   19.0600 N   0  0  0  0  0  0  0  0  0  0  0  0
    2.7130    7.6010   18.0680 H   0  0  0  0  0  0  0  0  0  0  0  0
    3.4460    6.3400   19.6050 C   0  0  0  0  0  0  0  0  0  0  0  0
    2.8650    5.8230   20.3700 H   0  0  0  0  0  0  0  0  0  0  0  0
    4.3240    6.7730   20.0950 H   0  0  0  0  0  0  0  0  0  0  0  0
    3.8790    5.3800   18.5250 C   0  0  0  0  0  0  0  0  0  0  0  0
    3.0080    4.3910   18.0530 C   0  0  0  0  0  0  0  0  0  0  0  0
    3.4400    3.4650   17.0960 C   0  0  0  0  0  0  0  0  0  0  0  0
    4.7350    3.5320   16.5890 C   0  0  0  0  0  0  0  0  0  0  0  0
    5.6120    4.5280   17.0320 C   0  0  0  0  0  0  0  0  0  0  0  0
    5.1890    5.4330   18.0130 C   0  0  0  0  0  0  0  0  0  0  0  0
    1.9930    4.3230   18.4460 H   0  0  0  0  0  0  0  0  0  0  0  0
    2.7700    2.6840   16.7540 H   0  0  0  0  0  0  0  0  0  0  0  0
    5.0680    2.8070   15.8460 H   0  0  0  0  0  0  0  0  0  0  0  0
    5.8810    6.1640   18.4200 H   0  0  0  0  0  0  0  0  0  0  0  0
    6.9890    4.5700   16.4460 C   0  0  0  0  0  0  0  0  0  0  0  0
    8.0400    4.2310   17.2580 N   0  0  0  0  0  0  0  0  0  0  0  0
    7.1900    4.9250   15.2910 O   0  0  0  0  0  0  0  0  0  0  0  0
    7.9420    4.0650   18.2520 H   0  0  0  0  0  0  0  0  0  0  0  0
    8.9750    4.3630   16.8890 H   0  0  0  0  0  0  0  0  0  0  0  0
   -3.5730   11.3940   16.6070 C   0  0  0  0  0  0  0  0  0  0  0  0
   -3.2860   12.2490   15.9780 H   0  0  0  0  0  0  0  0  0  0  0  0
   -3.1860   10.1280   15.8370 C   0  0  0  0  0  0  0  0  0  0  0  0
   -2.6790   10.3590   14.8910 H   0  0  0  0  0  0  0  0  0  0  0  0
   -2.5090    9.5050   16.4350 H   0  0  0  0  0  0  0  0  0  0  0  0
   -4.0720    9.5260   15.6030 H   0  0  0  0  0  0  0  0  0  0  0  0
   -5.0910   11.4700   16.8030 C   0  0  0  0  0  0  0  0  0  0  0  0
   -5.4840   12.4330   16.4590 H   0  0  0  0  0  0  0  0  0  0  0  0
   -5.3730   11.3510   17.8550 H   0  0  0  0  0  0  0  0  0  0  0  0
   -5.5930   10.6800   16.2320 H   0  0  0  0  0  0  0  0  0  0  0  0
  1  6  2  0  0  0  0
  1  2  1  0  0  0  0
  2  3  2  0  0  0  0
  3  4  1  0  0  0  0
  3 14  1  0  0  0  0
  4 10  1  0  0  0  0
  5  4  2  0  0  0  0
  6  5  1  0  0  0  0
  7  5  1  6  0  0  0
  7  8  1  0  0  0  0
  8 17  1  0  0  0  0
  8  9  1  0  0  0  0
  9 19  1  0  0  0  0
  9 18  1  0  0  0  0
 10  9  1  0  0  0  0
 11 21  1  0  0  0  0
 11 12  1  0  0  0  0
 11  7  1  0  0  0  0
 12 22  1  6  0  0  0
 12  7  1  0  0  0  0
 12 23  1  0  0  0  0
 13  2  1  0  0  0  0
 15  6  1  0  0  0  0
 16  8  1  0  0  0  0
 20 11  1  0  0  0  0
 23 24  2  0  0  0  0
 25 27  1  0  0  0  0
 25 23  1  0  0  0  0
 26 25  1  0  0  0  0
 27 29  1  0  0  0  0
 27 28  1  0  0  0  0
 30 27  1  0  0  0  0
 31 36  1  0  0  0  0
 31 30  1  0  0  0  0
 32 31  2  0  0  0  0
 33 34  2  0  0  0  0
 33 32  1  0  0  0  0
 34 35  1  0  0  0  0
 35 39  1  0  0  0  0
 35 30  2  0  0  0  0
 37 32  1  0  0  0  0
 38 33  1  0  0  0  0
 40 34  1  0  0  0  0
 40 41  1  0  0  0  0
 41 43  1  0  0  0  0
 42 40  2  0  0  0  0
 44 41  1  0  0  0  0
 45 51  1  0  0  0  0
 45  1  1  0  0  0  0
 46 45  1  0  0  0  0
 47 49  1  0  0  0  0
 47 45  1  0  0  0  0
 48 47  1  0  0  0  0
 50 47  1  0  0  0  0
 51 53  1  0  0  0  0
 52 51  1  0  0  0  0
 54 51  1  0  0  0  0
M  END
>  <MODEL>
5

>  <REMARK>
 VINA RESULT:    -7.300      2.991      9.350
 INTER + INTRA:         -10.345
 INTER:                  -9.963
 INTRA:                  -0.382
 UNBOUND:                -0.484
  Name = 
  7 active torsions:
  status: ('A' for Active; 'I' for Inactive)
    1  A    between atoms: C_1  and  C_2
    2  A    between atoms: C_2  and  C_3
    3  A    between atoms: C_2  and  C_4
    4  A    between atoms: C_15  and  C_16
    5  A    between atoms: N_18  and  C_19
    6  A    between atoms: C_19  and  C_20
    7  A    between atoms: C_24  and  C_25
                            x       y       z     vdW  Elec       q    Type
                         _______ _______ _______ _____ _____    ______ ____

>  <TORSDO>
F 7

$$$$
=
 OpenBabel07192307433D

 54 57  0  0  1  0  0  0  0  0999 V2000
   -1.8710   13.1960   22.0550 C   0  0  0  0  0  0  0  0  0  0  0  0
   -2.8930   13.7480   21.2720 C   0  0  0  0  0  0  0  0  0  0  0  0
   -3.1710   13.2250   20.0120 C   0  0  0  0  0  0  0  0  0  0  0  0
   -2.4340   12.1440   19.5190 C   0  0  0  0  0  0  0  0  0  0  0  0
   -1.4130   11.5370   20.2780 C   0  0  0  0  0  0  0  0  0  0  0  0
   -1.1470   12.1020   21.5430 C   0  0  0  0  0  0  0  0  0  0  0  0
   -0.6790   10.3140   19.7180 C   0  0  2  0  0  0  0  0  0  0  0  0
   -1.3980    9.7260   18.5190 C   0  0  0  0  0  0  0  0  0  0  0  0
   -1.8390   10.8700   17.6210 C   0  0  0  0  0  0  0  0  0  0  0  0
   -2.8120   11.6990   18.2720 O   0  0  0  0  0  0  0  0  0  0  0  0
    0.0220    9.3260   20.6310 C   0  0  0  0  0  0  0  0  0  0  0  0
    0.8490   10.2810   19.7960 C   0  0  1  0  0  0  0  0  0  0  0  0
   -3.4850   14.5850   21.6370 H   0  0  0  0  0  0  0  0  0  0  0  0
   -3.9680   13.6570   19.4080 H   0  0  0  0  0  0  0  0  0  0  0  0
   -0.3570   11.6760   22.1550 H   0  0  0  0  0  0  0  0  0  0  0  0
   -2.2730    9.1720   18.8740 H   0  0  0  0  0  0  0  0  0  0  0  0
   -0.7740    9.0220   17.9610 H   0  0  0  0  0  0  0  0  0  0  0  0
   -2.3110   10.4680   16.7180 H   0  0  0  0  0  0  0  0  0  0  0  0
   -0.9980   11.4910   17.2990 H   0  0  0  0  0  0  0  0  0  0  0  0
   -0.0120    9.4720   21.7030 H   0  0  0  0  0  0  0  0  0  0  0  0
   -0.0040    8.2770   20.3520 H   0  0  0  0  0  0  0  0  0  0  0  0
    1.3250   11.1070   20.3180 H   0  0  0  0  0  0  0  0  0  0  0  0
    1.6820    9.7820   18.6730 C   0  0  0  0  0  0  0  0  0  0  0  0
    2.0750   10.5390   17.7990 O   0  0  0  0  0  0  0  0  0  0  0  0
    1.9810    8.4490   18.7600 N   0  0  0  0  0  0  0  0  0  0  0  0
    1.7250    7.9540   19.6010 H   0  0  0  0  0  0  0  0  0  0  0  0
    2.9260    7.8310   17.8610 C   0  0  0  0  0  0  0  0  0  0  0  0
    3.8800    8.3560   17.9240 H   0  0  0  0  0  0  0  0  0  0  0  0
    2.5510    7.9530   16.8390 H   0  0  0  0  0  0  0  0  0  0  0  0
    3.1010    6.3660   18.1740 C   0  0  0  0  0  0  0  0  0  0  0  0
    3.9460    5.5630   17.3980 C   0  0  0  0  0  0  0  0  0  0  0  0
    4.0530    4.1920   17.6560 C   0  0  0  0  0  0  0  0  0  0  0  0
    3.3370    3.6160   18.7030 C   0  0  0  0  0  0  0  0  0  0  0  0
    2.5060    4.4070   19.5030 C   0  0  0  0  0  0  0  0  0  0  0  0
    2.3730    5.7730   19.2230 C   0  0  0  0  0  0  0  0  0  0  0  0
    4.5080    5.9990   16.5710 H   0  0  0  0  0  0  0  0  0  0  0  0
    4.6880    3.5700   17.0360 H   0  0  0  0  0  0  0  0  0  0  0  0
    3.4220    2.5470   18.8990 H   0  0  0  0  0  0  0  0  0  0  0  0
    1.6770    6.3850   19.7880 H   0  0  0  0  0  0  0  0  0  0  0  0
    1.7670    3.7480   20.6270 C   0  0  0  0  0  0  0  0  0  0  0  0
    0.5080    3.2720   20.3720 N   0  0  0  0  0  0  0  0  0  0  0  0
    2.2470    3.6570   21.7500 O   0  0  0  0  0  0  0  0  0  0  0  0
    0.0160    3.4420   19.5040 H   0  0  0  0  0  0  0  0  0  0  0  0
   -0.0260    2.9220   21.1600 H   0  0  0  0  0  0  0  0  0  0  0  0
   -1.5420   13.7350   23.4370 C   0  0  0  0  0  0  0  0  0  0  0  0
   -0.9630   12.9750   23.9820 H   0  0  0  0  0  0  0  0  0  0  0  0
   -0.6690   14.9920   23.3690 C   0  0  0  0  0  0  0  0  0  0  0  0
    0.2110   14.9190   24.0220 H   0  0  0  0  0  0  0  0  0  0  0  0
   -0.3120   15.1570   22.3440 H   0  0  0  0  0  0  0  0  0  0  0  0
   -1.2360   15.8790   23.6700 H   0  0  0  0  0  0  0  0  0  0  0  0
   -2.8140   13.9990   24.2510 C   0  0  0  0  0  0  0  0  0  0  0  0
   -3.0140   13.1750   24.9440 H   0  0  0  0  0  0  0  0  0  0  0  0
   -3.6930   14.1150   23.6070 H   0  0  0  0  0  0  0  0  0  0  0  0
   -2.7100   14.9170   24.8410 H   0  0  0  0  0  0  0  0  0  0  0  0
  1 45  1  0  0  0  0
  2 13  1  0  0  0  0
  2  1  2  0  0  0  0
  3  2  1  0  0  0  0
  4  3  2  0  0  0  0
  4  5  1  0  0  0  0
  5  6  2  0  0  0  0
  6  1  1  0  0  0  0
  6 15  1  0  0  0  0
  7 12  1  0  0  0  0
  7  5  1  1  0  0  0
  7 11  1  0  0  0  0
  8 16  1  0  0  0  0
  8  7  1  0  0  0  0
  9 10  1  0  0  0  0
  9  8  1  0  0  0  0
 10  4  1  0  0  0  0
 11 20  1  0  0  0  0
 12 22  1  1  0  0  0
 12 11  1  0  0  0  0
 14  3  1  0  0  0  0
 17  8  1  0  0  0  0
 18  9  1  0  0  0  0
 19  9  1  0  0  0  0
 21 11  1  0  0  0  0
 23 25  1  0  0  0  0
 23 12  1  0  0  0  0
 24 23  2  0  0  0  0
 25 26  1  0  0  0  0
 27 28  1  0  0  0  0
 27 30  1  0  0  0  0
 27 25  1  0  0  0  0
 29 27  1  0  0  0  0
 30 35  1  0  0  0  0
 31 32  1  0  0  0  0
 31 30  2  0  0  0  0
 32 33  2  0  0  0  0
 33 38  1  0  0  0  0
 33 34  1  0  0  0  0
 34 40  1  0  0  0  0
 35 34  2  0  0  0  0
 35 39  1  0  0  0  0
 36 31  1  0  0  0  0
 37 32  1  0  0  0  0
 40 42  2  0  0  0  0
 41 40  1  0  0  0  0
 41 44  1  0  0  0  0
 43 41  1  0  0  0  0
 45 46  1  0  0  0  0
 45 51  1  0  0  0  0
 47 45  1  0  0  0  0
 47 50  1  0  0  0  0
 47 48  1  0  0  0  0
 49 47  1  0  0  0  0
 51 54  1  0  0  0  0
 51 52  1  0  0  0  0
 53 51  1  0  0  0  0
M  END
>  <MODEL>
6

>  <REMARK>
 VINA RESULT:    -7.277      3.213     10.093
 INTER + INTRA:         -10.313
 INTER:                  -9.564
 INTRA:                  -0.749
 UNBOUND:                -0.484
  Name = 
  7 active torsions:
  status: ('A' for Active; 'I' for Inactive)
    1  A    between atoms: C_1  and  C_2
    2  A    between atoms: C_2  and  C_3
    3  A    between atoms: C_2  and  C_4
    4  A    between atoms: C_15  and  C_16
    5  A    between atoms: N_18  and  C_19
    6  A    between atoms: C_19  and  C_20
    7  A    between atoms: C_24  and  C_25
                            x       y       z     vdW  Elec       q    Type
                         _______ _______ _______ _____ _____    ______ ____

>  <TORSDO>
F 7

$$$$
=
 OpenBabel07192307433D

 54 57  0  0  1  0  0  0  0  0999 V2000
    3.1560    4.3460   19.4550 C   0  0  0  0  0  0  0  0  0  0  0  0
    2.7270    3.6180   18.3380 C   0  0  0  0  0  0  0  0  0  0  0  0
    3.5650    3.4650   17.2360 C   0  0  0  0  0  0  0  0  0  0  0  0
    4.8420    4.0370   17.2370 C   0  0  0  0  0  0  0  0  0  0  0  0
    5.3290    4.7570   18.3470 C   0  0  0  0  0  0  0  0  0  0  0  0
    4.4490    4.9050   19.4380 C   0  0  0  0  0  0  0  0  0  0  0  0
    6.7590    5.3070   18.3220 C   0  0  2  0  0  0  0  0  0  0  0  0
    7.5740    4.7060   17.1930 C   0  0  0  0  0  0  0  0  0  0  0  0
    6.7110    4.6800   15.9440 C   0  0  0  0  0  0  0  0  0  0  0  0
    5.5870    3.8020   16.1030 O   0  0  0  0  0  0  0  0  0  0  0  0
    7.5110    5.6120   19.6030 C   0  0  0  0  0  0  0  0  0  0  0  0
    6.9910    6.7560   18.7570 C   0  0  1  0  0  0  0  0  0  0  0  0
    1.7420    3.1590   18.3160 H   0  0  0  0  0  0  0  0  0  0  0  0
    3.2280    2.8970   16.3710 H   0  0  0  0  0  0  0  0  0  0  0  0
    4.7770    5.4680   20.3080 H   0  0  0  0  0  0  0  0  0  0  0  0
    7.8580    3.6860   17.4720 H   0  0  0  0  0  0  0  0  0  0  0  0
    8.5000    5.2580   17.0050 H   0  0  0  0  0  0  0  0  0  0  0  0
    7.2970    4.3030   15.0990 H   0  0  0  0  0  0  0  0  0  0  0  0
    6.3490    5.6760   15.6700 H   0  0  0  0  0  0  0  0  0  0  0  0
    7.0390    5.4190   20.5590 H   0  0  0  0  0  0  0  0  0  0  0  0
    8.5800    5.4190   19.6200 H   0  0  0  0  0  0  0  0  0  0  0  0
    6.1240    7.2930   19.1330 H   0  0  0  0  0  0  0  0  0  0  0  0
    7.9280    7.6530   18.0350 C   0  0  0  0  0  0  0  0  0  0  0  0
    7.9650    7.6700   16.8140 O   0  0  0  0  0  0  0  0  0  0  0  0
    8.6730    8.4520   18.8610 N   0  0  0  0  0  0  0  0  0  0  0  0
    8.4550    8.4560   19.8470 H   0  0  0  0  0  0  0  0  0  0  0  0
    9.5010    9.5100   18.3360 C   0  0  0  0  0  0  0  0  0  0  0  0
    9.3320    9.6000   17.2620 H   0  0  0  0  0  0  0  0  0  0  0  0
   10.5480    9.2230   18.4800 H   0  0  0  0  0  0  0  0  0  0  0  0
    9.2240   10.8190   19.0320 C   0  0  0  0  0  0  0  0  0  0  0  0
    9.0770   12.0030   18.3000 C   0  0  0  0  0  0  0  0  0  0  0  0
    8.8840   13.2230   18.9590 C   0  0  0  0  0  0  0  0  0  0  0  0
    8.8130   13.2670   20.3490 C   0  0  0  0  0  0  0  0  0  0  0  0
    8.9350   12.0900   21.0950 C   0  0  0  0  0  0  0  0  0  0  0  0
    9.1620   10.8750   20.4370 C   0  0  0  0  0  0  0  0  0  0  0  0
    9.1360   11.9840   17.2110 H   0  0  0  0  0  0  0  0  0  0  0  0
    8.7970   14.1410   18.3890 H   0  0  0  0  0  0  0  0  0  0  0  0
    8.6650   14.2190   20.8580 H   0  0  0  0  0  0  0  0  0  0  0  0
    9.3320    9.9650   21.0060 H   0  0  0  0  0  0  0  0  0  0  0  0
    8.8370   12.1840   22.5870 C   0  0  0  0  0  0  0  0  0  0  0  0
    8.5230   11.0450   23.2800 N   0  0  0  0  0  0  0  0  0  0  0  0
    8.9990   13.2440   23.1790 O   0  0  0  0  0  0  0  0  0  0  0  0
    8.2470   10.1810   22.8310 H   0  0  0  0  0  0  0  0  0  0  0  0
    8.3550   11.1380   24.2760 H   0  0  0  0  0  0  0  0  0  0  0  0
    2.2730    4.5290   20.6780 C   0  0  0  0  0  0  0  0  0  0  0  0
    2.8980    4.4390   21.5780 H   0  0  0  0  0  0  0  0  0  0  0  0
    1.6340    5.9200   20.7190 C   0  0  0  0  0  0  0  0  0  0  0  0
    2.0620    6.5480   21.5120 H   0  0  0  0  0  0  0  0  0  0  0  0
    1.7820    6.4410   19.7640 H   0  0  0  0  0  0  0  0  0  0  0  0
    0.5550    5.8500   20.8960 H   0  0  0  0  0  0  0  0  0  0  0  0
    1.2030    3.4360   20.7620 C   0  0  0  0  0  0  0  0  0  0  0  0
    1.5890    2.4790   20.3930 H   0  0  0  0  0  0  0  0  0  0  0  0
    0.3150    3.6880   20.1720 H   0  0  0  0  0  0  0  0  0  0  0  0
    0.8820    3.2900   21.8000 H   0  0  0  0  0  0  0  0  0  0  0  0
  1 45  1  0  0  0  0
  2  1  2  0  0  0  0
  3  4  2  0  0  0  0
  3  2  1  0  0  0  0
  4  5  1  0  0  0  0
  5  6  2  0  0  0  0
  6  1  1  0  0  0  0
  6 15  1  0  0  0  0
  7  5  1  1  0  0  0
  7 12  1  0  0  0  0
  7 11  1  0  0  0  0
  8 16  1  0  0  0  0
  8  7  1  0  0  0  0
  9 10  1  0  0  0  0
  9  8  1  0  0  0  0
 10  4  1  0  0  0  0
 11 21  1  0  0  0  0
 11 20  1  0  0  0  0
 12 22  1  1  0  0  0
 12 11  1  0  0  0  0
 13  2  1  0  0  0  0
 14  3  1  0  0  0  0
 17  8  1  0  0  0  0
 18  9  1  0  0  0  0
 19  9  1  0  0  0  0
 23 12  1  0  0  0  0
 23 25  1  0  0  0  0
 24 23  2  0  0  0  0
 25 26  1  0  0  0  0
 27 29  1  0  0  0  0
 27 25  1  0  0  0  0
 27 30  1  0  0  0  0
 28 27  1  0  0  0  0
 30 35  1  0  0  0  0
 31 32  1  0  0  0  0
 31 30  2  0  0  0  0
 32 33  2  0  0  0  0
 33 38  1  0  0  0  0
 33 34  1  0  0  0  0
 34 40  1  0  0  0  0
 35 39  1  0  0  0  0
 35 34  2  0  0  0  0
 36 31  1  0  0  0  0
 37 32  1  0  0  0  0
 40 42  2  0  0  0  0
 40 41  1  0  0  0  0
 41 44  1  0  0  0  0
 43 41  1  0  0  0  0
 45 47  1  0  0  0  0
 45 51  1  0  0  0  0
 45 46  1  0  0  0  0
 47 50  1  0  0  0  0
 47 48  1  0  0  0  0
 49 47  1  0  0  0  0
 51 54  1  0  0  0  0
 52 51  1  0  0  0  0
 53 51  1  0  0  0  0
M  END
>  <MODEL>
7

>  <REMARK>
 VINA RESULT:    -7.221      5.150      7.056
 INTER + INTRA:         -10.239
 INTER:                 -10.105
 INTRA:                  -0.134
 UNBOUND:                -0.484
  Name = 
  7 active torsions:
  status: ('A' for Active; 'I' for Inactive)
    1  A    between atoms: C_1  and  C_2
    2  A    between atoms: C_2  and  C_3
    3  A    between atoms: C_2  and  C_4
    4  A    between atoms: C_15  and  C_16
    5  A    between atoms: N_18  and  C_19
    6  A    between atoms: C_19  and  C_20
    7  A    between atoms: C_24  and  C_25
                            x       y       z     vdW  Elec       q    Type
                         _______ _______ _______ _____ _____    ______ ____

>  <TORSDO>
F 7

$$$$
=
 OpenBabel07192307433D

 54 57  0  0  1  0  0  0  0  0999 V2000
   -2.2970   13.2410   22.3440 C   0  0  0  0  0  0  0  0  0  0  0  0
   -3.3360   13.7850   21.5770 C   0  0  0  0  0  0  0  0  0  0  0  0
   -3.5690   13.3250   20.2840 C   0  0  0  0  0  0  0  0  0  0  0  0
   -2.7690   12.3150   19.7410 C   0  0  0  0  0  0  0  0  0  0  0  0
   -1.7280   11.7170   20.4800 C   0  0  0  0  0  0  0  0  0  0  0  0
   -1.5100   12.2190   21.7800 C   0  0  0  0  0  0  0  0  0  0  0  0
   -0.9240   10.5690   19.8620 C   0  0  2  0  0  0  0  0  0  0  0  0
   -1.5940   10.0170   18.6190 C   0  0  0  0  0  0  0  0  0  0  0  0
   -2.0830   11.1880   17.7820 C   0  0  0  0  0  0  0  0  0  0  0  0
   -3.1070   11.9260   18.4640 O   0  0  0  0  0  0  0  0  0  0  0  0
   -0.1840    9.5660   20.7260 C   0  0  0  0  0  0  0  0  0  0  0  0
    0.6030   10.6110   19.9630 C   0  0  1  0  0  0  0  0  0  0  0  0
   -3.9760   14.5670   21.9810 H   0  0  0  0  0  0  0  0  0  0  0  0
   -4.3790   13.7500   19.6940 H   0  0  0  0  0  0  0  0  0  0  0  0
   -0.7070   11.7990   22.3790 H   0  0  0  0  0  0  0  0  0  0  0  0
   -2.4430    9.3980   18.9250 H   0  0  0  0  0  0  0  0  0  0  0  0
   -0.9270    9.3810   18.0300 H   0  0  0  0  0  0  0  0  0  0  0  0
   -2.5200   10.8160   16.8490 H   0  0  0  0  0  0  0  0  0  0  0  0
   -1.2710   11.8700   17.5110 H   0  0  0  0  0  0  0  0  0  0  0  0
   -0.2410    9.6460   21.8050 H   0  0  0  0  0  0  0  0  0  0  0  0
   -0.1510    8.5350   20.3860 H   0  0  0  0  0  0  0  0  0  0  0  0
    1.0270   11.4280   20.5410 H   0  0  0  0  0  0  0  0  0  0  0  0
    1.4770   10.2230   18.8270 C   0  0  0  0  0  0  0  0  0  0  0  0
    2.0040   11.0710   18.1230 O   0  0  0  0  0  0  0  0  0  0  0  0
    1.6490    8.8700   18.7010 N   0  0  0  0  0  0  0  0  0  0  0  0
    1.2830    8.2720   19.4270 H   0  0  0  0  0  0  0  0  0  0  0  0
    2.6040    8.3180   17.7720 C   0  0  0  0  0  0  0  0  0  0  0  0
    3.4300    9.0200   17.6450 H   0  0  0  0  0  0  0  0  0  0  0  0
    2.1100    8.2140   16.8010 H   0  0  0  0  0  0  0  0  0  0  0  0
    3.1100    6.9770   18.2400 C   0  0  0  0  0  0  0  0  0  0  0  0
    2.5160    6.3260   19.3280 C   0  0  0  0  0  0  0  0  0  0  0  0
    3.0330    5.1120   19.7960 C   0  0  0  0  0  0  0  0  0  0  0  0
    4.1310    4.5280   19.1680 C   0  0  0  0  0  0  0  0  0  0  0  0
    4.7230    5.1530   18.0650 C   0  0  0  0  0  0  0  0  0  0  0  0
    4.2260    6.3840   17.6190 C   0  0  0  0  0  0  0  0  0  0  0  0
    1.6600    6.7750   19.8330 H   0  0  0  0  0  0  0  0  0  0  0  0
    2.5860    4.6260   20.6550 H   0  0  0  0  0  0  0  0  0  0  0  0
    4.5310    3.5840   19.5370 H   0  0  0  0  0  0  0  0  0  0  0  0
    4.7200    6.9160   16.8120 H   0  0  0  0  0  0  0  0  0  0  0  0
    5.8910    4.4800   17.4130 C   0  0  0  0  0  0  0  0  0  0  0  0
    7.0430    4.3480   18.1440 N   0  0  0  0  0  0  0  0  0  0  0  0
    5.8450    4.0850   16.2540 O   0  0  0  0  0  0  0  0  0  0  0  0
    7.1760    4.7760   19.0510 H   0  0  0  0  0  0  0  0  0  0  0  0
    7.8600    3.9880   17.6640 H   0  0  0  0  0  0  0  0  0  0  0  0
   -2.0160   13.7130   23.7600 C   0  0  0  0  0  0  0  0  0  0  0  0
   -1.5400   12.8920   24.3160 H   0  0  0  0  0  0  0  0  0  0  0  0
   -1.0380   14.8910   23.7880 C   0  0  0  0  0  0  0  0  0  0  0  0
   -0.9520   15.3790   22.8080 H   0  0  0  0  0  0  0  0  0  0  0  0
   -1.3690   15.6500   24.5100 H   0  0  0  0  0  0  0  0  0  0  0  0
   -0.0360   14.5630   24.0870 H   0  0  0  0  0  0  0  0  0  0  0  0
   -3.3120   14.0650   24.4990 C   0  0  0  0  0  0  0  0  0  0  0  0
   -4.1500   13.4650   24.1280 H   0  0  0  0  0  0  0  0  0  0  0  0
   -3.5770   15.1210   24.3780 H   0  0  0  0  0  0  0  0  0  0  0  0
   -3.2080   13.8690   25.5730 H   0  0  0  0  0  0  0  0  0  0  0  0
  1 45  1  0  0  0  0
  2 13  1  0  0  0  0
  2  1  2  0  0  0  0
  3  2  1  0  0  0  0
  4  3  2  0  0  0  0
  4  5  1  0  0  0  0
  5  6  2  0  0  0  0
  6  1  1  0  0  0  0
  6 15  1  0  0  0  0
  7 12  1  0  0  0  0
  7  5  1  1  0  0  0
  7 11  1  0  0  0  0
  8 16  1  0  0  0  0
  8  7  1  0  0  0  0
  9 10  1  0  0  0  0
  9  8  1  0  0  0  0
 10  4  1  0  0  0  0
 11 20  1  0  0  0  0
 12 22  1  1  0  0  0
 12 11  1  0  0  0  0
 14  3  1  0  0  0  0
 17  8  1  0  0  0  0
 18  9  1  0  0  0  0
 19  9  1  0  0  0  0
 21 11  1  0  0  0  0
 23 12  1  0  0  0  0
 24 23  2  0  0  0  0
 25 23  1  0  0  0  0
 25 26  1  0  0  0  0
 27 30  1  0  0  0  0
 27 25  1  0  0  0  0
 28 27  1  0  0  0  0
 29 27  1  0  0  0  0
 30 31  1  0  0  0  0
 31 32  2  0  0  0  0
 31 36  1  0  0  0  0
 32 37  1  0  0  0  0
 33 38  1  0  0  0  0
 33 32  1  0  0  0  0
 34 33  2  0  0  0  0
 35 34  1  0  0  0  0
 35 30  2  0  0  0  0
 39 35  1  0  0  0  0
 40 34  1  0  0  0  0
 40 41  1  0  0  0  0
 41 43  1  0  0  0  0
 42 40  2  0  0  0  0
 44 41  1  0  0  0  0
 45 47  1  0  0  0  0
 45 46  1  0  0  0  0
 45 51  1  0  0  0  0
 47 50  1  0  0  0  0
 47 49  1  0  0  0  0
 48 47  1  0  0  0  0
 51 54  1  0  0  0  0
 52 51  1  0  0  0  0
 53 51  1  0  0  0  0
M  END
>  <MODEL>
8

>  <REMARK>
 VINA RESULT:    -7.203      3.109     10.652
 INTER + INTRA:         -10.214
 INTER:                  -9.620
 INTRA:                  -0.595
 UNBOUND:                -0.484
  Name = 
  7 active torsions:
  status: ('A' for Active; 'I' for Inactive)
    1  A    between atoms: C_1  and  C_2
    2  A    between atoms: C_2  and  C_3
    3  A    between atoms: C_2  and  C_4
    4  A    between atoms: C_15  and  C_16
    5  A    between atoms: N_18  and  C_19
    6  A    between atoms: C_19  and  C_20
    7  A    between atoms: C_24  and  C_25
                            x       y       z     vdW  Elec       q    Type
                         _______ _______ _______ _____ _____    ______ ____

>  <TORSDO>
F 7

$$$$
=
 OpenBabel07192307433D

 54 57  0  0  1  0  0  0  0  0999 V2000
    6.3420    5.5750   17.5970 C   0  0  0  0  0  0  0  0  0  0  0  0
    6.2050    4.2760   17.0900 C   0  0  0  0  0  0  0  0  0  0  0  0
    4.9460    3.6860   17.0040 C   0  0  0  0  0  0  0  0  0  0  0  0
    3.8100    4.3860   17.4230 C   0  0  0  0  0  0  0  0  0  0  0  0
    3.8930    5.7040   17.9170 C   0  0  0  0  0  0  0  0  0  0  0  0
    5.1840    6.2640   18.0050 C   0  0  0  0  0  0  0  0  0  0  0  0
    2.6110    6.4500   18.3010 C   0  0  2  0  0  0  0  0  0  0  0  0
    1.3720    5.7460   17.7810 C   0  0  0  0  0  0  0  0  0  0  0  0
    1.5320    4.2560   18.0320 C   0  0  0  0  0  0  0  0  0  0  0  0
    2.6190    3.7110   17.2710 O   0  0  0  0  0  0  0  0  0  0  0  0
    2.5570    7.9650   18.3330 C   0  0  0  0  0  0  0  0  0  0  0  0
    2.5730    7.1950   19.6370 C   0  0  1  0  0  0  0  0  0  0  0  0
    7.0730    3.7150   16.7510 H   0  0  0  0  0  0  0  0  0  0  0  0
    4.8440    2.6780   16.6060 H   0  0  0  0  0  0  0  0  0  0  0  0
    5.2960    7.2710   18.3960 H   0  0  0  0  0  0  0  0  0  0  0  0
    1.2880    5.9360   16.7070 H   0  0  0  0  0  0  0  0  0  0  0  0
    0.4540    6.1140   18.2470 H   0  0  0  0  0  0  0  0  0  0  0  0
    0.6240    3.7300   17.7170 H   0  0  0  0  0  0  0  0  0  0  0  0
    1.6880    4.0280   19.0910 H   0  0  0  0  0  0  0  0  0  0  0  0
    3.4340    8.5370   18.0590 H   0  0  0  0  0  0  0  0  0  0  0  0
    1.6330    8.4440   18.0210 H   0  0  0  0  0  0  0  0  0  0  0  0
    3.4970    7.2110   20.2080 H   0  0  0  0  0  0  0  0  0  0  0  0
    1.3780    7.1690   20.5180 C   0  0  0  0  0  0  0  0  0  0  0  0
    0.9930    6.1240   21.0220 O   0  0  0  0  0  0  0  0  0  0  0  0
    0.8190    8.4010   20.7250 N   0  0  0  0  0  0  0  0  0  0  0  0
    1.3070    9.2130   20.3760 H   0  0  0  0  0  0  0  0  0  0  0  0
   -0.2340    8.5960   21.6920 C   0  0  0  0  0  0  0  0  0  0  0  0
    0.0950    8.2210   22.6630 H   0  0  0  0  0  0  0  0  0  0  0  0
   -1.0940    7.9930   21.3830 H   0  0  0  0  0  0  0  0  0  0  0  0
   -0.6290   10.0480   21.7860 C   0  0  0  0  0  0  0  0  0  0  0  0
   -1.0010   10.6120   23.0130 C   0  0  0  0  0  0  0  0  0  0  0  0
   -1.4280   11.9430   23.0790 C   0  0  0  0  0  0  0  0  0  0  0  0
   -1.4650   12.7270   21.9280 C   0  0  0  0  0  0  0  0  0  0  0  0
   -1.0750   12.1870   20.6990 C   0  0  0  0  0  0  0  0  0  0  0  0
   -0.6800   10.8450   20.6270 C   0  0  0  0  0  0  0  0  0  0  0  0
   -0.9830   10.0080   23.9210 H   0  0  0  0  0  0  0  0  0  0  0  0
   -1.7400   12.3670   24.0270 H   0  0  0  0  0  0  0  0  0  0  0  0
   -1.8000   13.7630   21.9850 H   0  0  0  0  0  0  0  0  0  0  0  0
   -0.4460   10.3920   19.6690 H   0  0  0  0  0  0  0  0  0  0  0  0
   -1.1170   13.0720   19.4910 C   0  0  0  0  0  0  0  0  0  0  0  0
   -1.6800   12.5680   18.3480 N   0  0  0  0  0  0  0  0  0  0  0  0
   -0.6390   14.2000   19.5000 O   0  0  0  0  0  0  0  0  0  0  0  0
   -1.9640   11.6020   18.2490 H   0  0  0  0  0  0  0  0  0  0  0  0
   -1.6110   13.1310   17.5080 H   0  0  0  0  0  0  0  0  0  0  0  0
    7.6980    6.2540   17.7010 C   0  0  0  0  0  0  0  0  0  0  0  0
    8.3730    5.8030   16.9600 H   0  0  0  0  0  0  0  0  0  0  0  0
    7.6170    7.7480   17.3750 C   0  0  0  0  0  0  0  0  0  0  0  0
    8.2190    8.3540   18.0650 H   0  0  0  0  0  0  0  0  0  0  0  0
    7.9810    7.9410   16.3580 H   0  0  0  0  0  0  0  0  0  0  0  0
    6.5830    8.1050   17.4320 H   0  0  0  0  0  0  0  0  0  0  0  0
    8.3300    6.0310   19.0790 C   0  0  0  0  0  0  0  0  0  0  0  0
    8.0300    6.8160   19.7810 H   0  0  0  0  0  0  0  0  0  0  0  0
    9.4250    6.0280   19.0300 H   0  0  0  0  0  0  0  0  0  0  0  0
    8.0130    5.0680   19.4970 H   0  0  0  0  0  0  0  0  0  0  0  0
  1 45  1  0  0  0  0
  1  6  1  0  0  0  0
  2  1  2  0  0  0  0
  3  2  1  0  0  0  0
  3  4  2  0  0  0  0
  4  5  1  0  0  0  0
  5  6  2  0  0  0  0
  6 15  1  0  0  0  0
  7  5  1  6  0  0  0
  7 11  1  0  0  0  0
  7 12  1  0  0  0  0
  8  9  1  0  0  0  0
  8 17  1  0  0  0  0
  8  7  1  0  0  0  0
  9 19  1  0  0  0  0
 10  4  1  0  0  0  0
 10  9  1  0  0  0  0
 11 12  1  0  0  0  0
 12 22  1  1  0  0  0
 12 23  1  0  0  0  0
 13  2  1  0  0  0  0
 14  3  1  0  0  0  0
 16  8  1  0  0  0  0
 18  9  1  0  0  0  0
 20 11  1  0  0  0  0
 21 11  1  0  0  0  0
 23 25  1  0  0  0  0
 23 24  2  0  0  0  0
 25 27  1  0  0  0  0
 26 25  1  0  0  0  0
 27 30  1  0  0  0  0
 27 28  1  0  0  0  0
 29 27  1  0  0  0  0
 30 31  1  0  0  0  0
 31 32  2  0  0  0  0
 31 36  1  0  0  0  0
 32 37  1  0  0  0  0
 33 38  1  0  0  0  0
 33 32  1  0  0  0  0
 34 33  2  0  0  0  0
 35 34  1  0  0  0  0
 35 30  2  0  0  0  0
 39 35  1  0  0  0  0
 40 42  2  0  0  0  0
 40 34  1  0  0  0  0
 41 40  1  0  0  0  0
 43 41  1  0  0  0  0
 44 41  1  0  0  0  0
 45 51  1  0  0  0  0
 46 45  1  0  0  0  0
 47 50  1  0  0  0  0
 47 45  1  0  0  0  0
 47 48  1  0  0  0  0
 49 47  1  0  0  0  0
 51 54  1  0  0  0  0
 51 52  1  0  0  0  0
 53 51  1  0  0  0  0
M  END
>  <MODEL>
9

>  <REMARK>
 VINA RESULT:    -7.165      2.528      4.275
 INTER + INTRA:         -10.163
 INTER:                  -9.593
 INTRA:                  -0.569
 UNBOUND:                -0.484
  Name = 
  7 active torsions:
  status: ('A' for Active; 'I' for Inactive)
    1  A    between atoms: C_1  and  C_2
    2  A    between atoms: C_2  and  C_3
    3  A    between atoms: C_2  and  C_4
    4  A    between atoms: C_15  and  C_16
    5  A    between atoms: N_18  and  C_19
    6  A    between atoms: C_19  and  C_20
    7  A    between atoms: C_24  and  C_25
                            x       y       z     vdW  Elec       q    Type
                         _______ _______ _______ _____ _____    ______ ____

>  <TORSDO>
F 7

$$$$
=
 OpenBabel07192307433D

 54 57  0  0  1  0  0  0  0  0999 V2000
   -2.3750   11.1770   17.7080 C   0  0  0  0  0  0  0  0  0  0  0  0
   -2.8680   11.7240   18.9000 C   0  0  0  0  0  0  0  0  0  0  0  0
   -2.1390   11.6080   20.0800 C   0  0  0  0  0  0  0  0  0  0  0  0
   -0.9080   10.9450   20.0850 C   0  0  0  0  0  0  0  0  0  0  0  0
   -0.3560   10.4000   18.9080 C   0  0  0  0  0  0  0  0  0  0  0  0
   -1.1290   10.5220   17.7340 C   0  0  0  0  0  0  0  0  0  0  0  0
    1.0260    9.7410   18.9550 C   0  0  2  0  0  0  0  0  0  0  0  0
    1.7590   10.0610   20.2440 C   0  0  0  0  0  0  0  0  0  0  0  0
    0.7760    9.9300   21.3950 C   0  0  0  0  0  0  0  0  0  0  0  0
   -0.2680   10.9110   21.3040 O   0  0  0  0  0  0  0  0  0  0  0  0
    1.8840    9.6120   17.7110 C   0  0  0  0  0  0  0  0  0  0  0  0
    1.2100    8.3800   18.2790 C   0  0  1  0  0  0  0  0  0  0  0  0
   -3.8200   12.2510   18.9190 H   0  0  0  0  0  0  0  0  0  0  0  0
   -2.5260   12.0370   21.0030 H   0  0  0  0  0  0  0  0  0  0  0  0
   -0.7490   10.1010   16.8070 H   0  0  0  0  0  0  0  0  0  0  0  0
    2.1330   11.0870   20.1880 H   0  0  0  0  0  0  0  0  0  0  0  0
    2.6240    9.4110   20.4070 H   0  0  0  0  0  0  0  0  0  0  0  0
    1.2950   10.1000   22.3440 H   0  0  0  0  0  0  0  0  0  0  0  0
    0.3260    8.9340   21.4450 H   0  0  0  0  0  0  0  0  0  0  0  0
    1.5250   10.0110   16.7710 H   0  0  0  0  0  0  0  0  0  0  0  0
    2.9590    9.7180   17.8260 H   0  0  0  0  0  0  0  0  0  0  0  0
    0.3530    7.9920   17.7340 H   0  0  0  0  0  0  0  0  0  0  0  0
    2.0100    7.2950   18.9000 C   0  0  0  0  0  0  0  0  0  0  0  0
    2.3150    7.3380   20.0820 O   0  0  0  0  0  0  0  0  0  0  0  0
    2.3080    6.2700   18.0430 N   0  0  0  0  0  0  0  0  0  0  0  0
    1.8810    6.2720   17.1280 H   0  0  0  0  0  0  0  0  0  0  0  0
    2.9190    5.0510   18.5140 C   0  0  0  0  0  0  0  0  0  0  0  0
    2.3280    4.1980   18.1750 H   0  0  0  0  0  0  0  0  0  0  0  0
    2.8880    5.0570   19.6080 H   0  0  0  0  0  0  0  0  0  0  0  0
    4.3460    4.9350   18.0380 C   0  0  0  0  0  0  0  0  0  0  0  0
    4.6580    4.2270   16.8710 C   0  0  0  0  0  0  0  0  0  0  0  0
    5.9900    4.0710   16.4730 C   0  0  0  0  0  0  0  0  0  0  0  0
    7.0180    4.6380   17.2230 C   0  0  0  0  0  0  0  0  0  0  0  0
    6.7230    5.3680   18.3790 C   0  0  0  0  0  0  0  0  0  0  0  0
    5.3920    5.4950   18.7950 C   0  0  0  0  0  0  0  0  0  0  0  0
    3.8630    3.7730   16.2780 H   0  0  0  0  0  0  0  0  0  0  0  0
    6.2280    3.5000   15.5830 H   0  0  0  0  0  0  0  0  0  0  0  0
    8.0550    4.5120   16.9100 H   0  0  0  0  0  0  0  0  0  0  0  0
    5.1540    5.9950   19.7290 H   0  0  0  0  0  0  0  0  0  0  0  0
    7.8600    5.9710   19.1440 C   0  0  0  0  0  0  0  0  0  0  0  0
    8.2790    5.3290   20.2800 N   0  0  0  0  0  0  0  0  0  0  0  0
    8.3870    7.0210   18.7980 O   0  0  0  0  0  0  0  0  0  0  0  0
    7.7920    4.5380   20.6820 H   0  0  0  0  0  0  0  0  0  0  0  0
    8.9760    5.7960   20.8490 H   0  0  0  0  0  0  0  0  0  0  0  0
   -3.1380   11.2900   16.4000 C   0  0  0  0  0  0  0  0  0  0  0  0
   -2.7760   12.1740   15.8560 H   0  0  0  0  0  0  0  0  0  0  0  0
   -2.8970   10.0820   15.4900 C   0  0  0  0  0  0  0  0  0  0  0  0
   -2.4110   10.3660   14.5470 H   0  0  0  0  0  0  0  0  0  0  0  0
   -2.2520    9.3460   15.9890 H   0  0  0  0  0  0  0  0  0  0  0  0
   -3.8400    9.5830   15.2430 H   0  0  0  0  0  0  0  0  0  0  0  0
   -4.6370   11.4950   16.6440 C   0  0  0  0  0  0  0  0  0  0  0  0
   -5.0050   12.3790   16.1110 H   0  0  0  0  0  0  0  0  0  0  0  0
   -4.8620   11.6310   17.7080 H   0  0  0  0  0  0  0  0  0  0  0  0
   -5.2080   10.6290   16.2910 H   0  0  0  0  0  0  0  0  0  0  0  0
  1  6  2  0  0  0  0
  1  2  1  0  0  0  0
  2 13  1  0  0  0  0
  2  3  2  0  0  0  0
  3  4  1  0  0  0  0
  3 14  1  0  0  0  0
  4 10  1  0  0  0  0
  5  4  2  0  0  0  0
  6  5  1  0  0  0  0
  7  5  1  6  0  0  0
  7  8  1  0  0  0  0
  8 17  1  0  0  0  0
  8  9  1  0  0  0  0
  9 19  1  0  0  0  0
  9 18  1  0  0  0  0
 10  9  1  0  0  0  0
 11 21  1  0  0  0  0
 11 12  1  0  0  0  0
 11  7  1  0  0  0  0
 12 22  1  6  0  0  0
 12 23  1  0  0  0  0
 12  7  1  0  0  0  0
 15  6  1  0  0  0  0
 16  8  1  0  0  0  0
 20 11  1  0  0  0  0
 23 24  2  0  0  0  0
 25 27  1  0  0  0  0
 25 23  1  0  0  0  0
 26 25  1  0  0  0  0
 27 29  1  0  0  0  0
 28 27  1  0  0  0  0
 30 27  1  0  0  0  0
 30 35  1  0  0  0  0
 31 30  2  0  0  0  0
 32 31  1  0  0  0  0
 32 33  2  0  0  0  0
 33 34  1  0  0  0  0
 34 35  2  0  0  0  0
 34 40  1  0  0  0  0
 35 39  1  0  0  0  0
 36 31  1  0  0  0  0
 37 32  1  0  0  0  0
 38 33  1  0  0  0  0
 40 41  1  0  0  0  0
 41 43  1  0  0  0  0
 41 44  1  0  0  0  0
 42 40  2  0  0  0  0
 45 51  1  0  0  0  0
 45  1  1  0  0  0  0
 46 45  1  0  0  0  0
 47 49  1  0  0  0  0
 47 45  1  0  0  0  0
 48 47  1  0  0  0  0
 50 47  1  0  0  0  0
 51 53  1  0  0  0  0
 52 51  1  0  0  0  0
 54 51  1  0  0  0  0
M  END
>  <MODEL>
10

>  <REMARK>
 VINA RESULT:    -7.104      2.826      8.772
 INTER + INTRA:         -10.080
 INTER:                 -10.295
 INTRA:                   0.215
 UNBOUND:                -0.484
  Name = 
  7 active torsions:
  status: ('A' for Active; 'I' for Inactive)
    1  A    between atoms: C_1  and  C_2
    2  A    between atoms: C_2  and  C_3
    3  A    between atoms: C_2  and  C_4
    4  A    between atoms: C_15  and  C_16
    5  A    between atoms: N_18  and  C_19
    6  A    between atoms: C_19  and  C_20
    7  A    between atoms: C_24  and  C_25
                            x       y       z     vdW  Elec       q    Type
                         _______ _______ _______ _____ _____    ______ ____

>  <TORSDO>
F 7

$$$$
=
 OpenBabel07192307433D

 54 57  0  0  1  0  0  0  0  0999 V2000
    5.9700    5.2250   17.9920 C   0  0  0  0  0  0  0  0  0  0  0  0
    6.0350    3.9940   18.6570 C   0  0  0  0  0  0  0  0  0  0  0  0
    4.9600    3.5530   19.4250 C   0  0  0  0  0  0  0  0  0  0  0  0
    3.8070    4.3360   19.5370 C   0  0  0  0  0  0  0  0  0  0  0  0
    3.6820    5.5700   18.8670 C   0  0  0  0  0  0  0  0  0  0  0  0
    4.7960    5.9930   18.1110 C   0  0  0  0  0  0  0  0  0  0  0  0
    2.3720    6.3580   18.9710 C   0  0  2  0  0  0  0  0  0  0  0  0
    1.2510    5.5140   19.5460 C   0  0  0  0  0  0  0  0  0  0  0  0
    1.8030    4.7300   20.7250 C   0  0  0  0  0  0  0  0  0  0  0  0
    2.8020    3.7890   20.3040 O   0  0  0  0  0  0  0  0  0  0  0  0
    1.9740    7.3720   17.9160 C   0  0  0  0  0  0  0  0  0  0  0  0
    2.4440    7.8570   19.2720 C   0  0  1  0  0  0  0  0  0  0  0  0
    6.9190    3.3640   18.5790 H   0  0  0  0  0  0  0  0  0  0  0  0
    5.0150    2.5940   19.9380 H   0  0  0  0  0  0  0  0  0  0  0  0
    4.7490    6.9460   17.5930 H   0  0  0  0  0  0  0  0  0  0  0  0
    0.9000    4.8250   18.7720 H   0  0  0  0  0  0  0  0  0  0  0  0
    0.3920    6.1150   19.8580 H   0  0  0  0  0  0  0  0  0  0  0  0
    0.9980    4.1550   21.1940 H   0  0  0  0  0  0  0  0  0  0  0  0
    2.2280    5.3820   21.4940 H   0  0  0  0  0  0  0  0  0  0  0  0
    2.6150    7.5320   17.0580 H   0  0  0  0  0  0  0  0  0  0  0  0
    0.9190    7.4550   17.6690 H   0  0  0  0  0  0  0  0  0  0  0  0
    3.4380    8.2930   19.3220 H   0  0  0  0  0  0  0  0  0  0  0  0
    1.5020    8.5160   20.2110 C   0  0  0  0  0  0  0  0  0  0  0  0
    1.4180    8.1520   21.3740 O   0  0  0  0  0  0  0  0  0  0  0  0
    0.8090    9.5590   19.6560 N   0  0  0  0  0  0  0  0  0  0  0  0
    1.0650    9.8630   18.7280 H   0  0  0  0  0  0  0  0  0  0  0  0
   -0.0130   10.4280   20.4620 C   0  0  0  0  0  0  0  0  0  0  0  0
    0.5970   11.2470   20.8450 H   0  0  0  0  0  0  0  0  0  0  0  0
   -0.3700    9.8540   21.3230 H   0  0  0  0  0  0  0  0  0  0  0  0
   -1.1840   10.9590   19.6740 C   0  0  0  0  0  0  0  0  0  0  0  0
   -2.0780   11.8720   20.2450 C   0  0  0  0  0  0  0  0  0  0  0  0
   -3.1980   12.3100   19.5290 C   0  0  0  0  0  0  0  0  0  0  0  0
   -3.4220   11.8570   18.2300 C   0  0  0  0  0  0  0  0  0  0  0  0
   -2.5260   10.9630   17.6350 C   0  0  0  0  0  0  0  0  0  0  0  0
   -1.4240   10.4990   18.3650 C   0  0  0  0  0  0  0  0  0  0  0  0
   -1.9190   12.2300   21.2630 H   0  0  0  0  0  0  0  0  0  0  0  0
   -3.9010   12.9960   19.9850 H   0  0  0  0  0  0  0  0  0  0  0  0
   -4.2960   12.1990   17.6770 H   0  0  0  0  0  0  0  0  0  0  0  0
   -0.7620    9.7490   17.9440 H   0  0  0  0  0  0  0  0  0  0  0  0
   -2.8000   10.5160   16.2320 C   0  0  0  0  0  0  0  0  0  0  0  0
   -3.2940   11.4410   15.3510 N   0  0  0  0  0  0  0  0  0  0  0  0
   -2.6230    9.3560   15.8780 O   0  0  0  0  0  0  0  0  0  0  0  0
   -3.5850   12.3700   15.6270 H   0  0  0  0  0  0  0  0  0  0  0  0
   -3.5750   11.1080   14.4360 H   0  0  0  0  0  0  0  0  0  0  0  0
    7.1200    5.7360   17.1400 C   0  0  0  0  0  0  0  0  0  0  0  0
    8.0290    5.1800   17.4090 H   0  0  0  0  0  0  0  0  0  0  0  0
    6.8780    5.4960   15.6480 C   0  0  0  0  0  0  0  0  0  0  0  0
    5.9970    6.0380   15.2790 H   0  0  0  0  0  0  0  0  0  0  0  0
    7.7440    5.8260   15.0590 H   0  0  0  0  0  0  0  0  0  0  0  0
    6.7240    4.4300   15.4420 H   0  0  0  0  0  0  0  0  0  0  0  0
    7.4010    7.2170   17.4140 C   0  0  0  0  0  0  0  0  0  0  0  0
    6.9730    7.8500   16.6290 H   0  0  0  0  0  0  0  0  0  0  0  0
    8.4760    7.4260   17.4620 H   0  0  0  0  0  0  0  0  0  0  0  0
    6.9600    7.5240   18.3700 H   0  0  0  0  0  0  0  0  0  0  0  0
  1  6  2  0  0  0  0
  1  2  1  0  0  0  0
  2  3  2  0  0  0  0
  3  4  1  0  0  0  0
  3 14  1  0  0  0  0
  4 10  1  0  0  0  0
  5  4  2  0  0  0  0
  6  5  1  0  0  0  0
  7  5  1  6  0  0  0
  7 12  1  0  0  0  0
  7  8  1  0  0  0  0
  8 17  1  0  0  0  0
  8  9  1  0  0  0  0
  9 18  1  0  0  0  0
  9 19  1  0  0  0  0
 10  9  1  0  0  0  0
 11  7  1  0  0  0  0
 11 12  1  0  0  0  0
 12 22  1  1  0  0  0
 12 23  1  0  0  0  0
 13  2  1  0  0  0  0
 15  6  1  0  0  0  0
 16  8  1  0  0  0  0
 20 11  1  0  0  0  0
 21 11  1  0  0  0  0
 23 24  2  0  0  0  0
 25 23  1  0  0  0  0
 25 27  1  0  0  0  0
 26 25  1  0  0  0  0
 27 28  1  0  0  0  0
 27 29  1  0  0  0  0
 30 31  1  0  0  0  0
 30 27  1  0  0  0  0
 31 36  1  0  0  0  0
 32 37  1  0  0  0  0
 32 31  2  0  0  0  0
 33 32  1  0  0  0  0
 34 33  2  0  0  0  0
 34 35  1  0  0  0  0
 35 30  2  0  0  0  0
 38 33  1  0  0  0  0
 39 35  1  0  0  0  0
 40 34  1  0  0  0  0
 41 43  1  0  0  0  0
 41 40  1  0  0  0  0
 42 40  2  0  0  0  0
 44 41  1  0  0  0  0
 45 46  1  0  0  0  0
 45 51  1  0  0  0  0
 45  1  1  0  0  0  0
 47 45  1  0  0  0  0
 48 47  1  0  0  0  0
 49 47  1  0  0  0  0
 50 47  1  0  0  0  0
 51 53  1  0  0  0  0
 51 54  1  0  0  0  0
 52 51  1  0  0  0  0
M  END
>  <MODEL>
11

>  <REMARK>
 VINA RESULT:    -7.077      3.243      4.861
 INTER + INTRA:         -10.043
 INTER:                  -9.516
 INTRA:                  -0.528
 UNBOUND:                -0.484
  Name = 
  7 active torsions:
  status: ('A' for Active; 'I' for Inactive)
    1  A    between atoms: C_1  and  C_2
    2  A    between atoms: C_2  and  C_3
    3  A    between atoms: C_2  and  C_4
    4  A    between atoms: C_15  and  C_16
    5  A    between atoms: N_18  and  C_19
    6  A    between atoms: C_19  and  C_20
    7  A    between atoms: C_24  and  C_25
                            x       y       z     vdW  Elec       q    Type
                         _______ _______ _______ _____ _____    ______ ____

>  <TORSDO>
F 7

$$$$
=
 OpenBabel07192307433D

 54 57  0  0  1  0  0  0  0  0999 V2000
   -2.8290   11.4840   17.8090 C   0  0  0  0  0  0  0  0  0  0  0  0
   -3.3400   12.0230   18.9960 C   0  0  0  0  0  0  0  0  0  0  0  0
   -2.5650   12.0330   20.1540 C   0  0  0  0  0  0  0  0  0  0  0  0
   -1.2700   11.5050   20.1380 C   0  0  0  0  0  0  0  0  0  0  0  0
   -0.7010   10.9740   18.9630 C   0  0  0  0  0  0  0  0  0  0  0  0
   -1.5200   10.9660   17.8140 C   0  0  0  0  0  0  0  0  0  0  0  0
    0.7450   10.4680   18.9840 C   0  0  2  0  0  0  0  0  0  0  0  0
    1.4800   10.9160   20.2330 C   0  0  0  0  0  0  0  0  0  0  0  0
    0.5540   10.7300   21.4230 C   0  0  0  0  0  0  0  0  0  0  0  0
   -0.5920   11.5890   21.3340 O   0  0  0  0  0  0  0  0  0  0  0  0
    1.5710   10.3800   17.7160 C   0  0  0  0  0  0  0  0  0  0  0  0
    1.0510    9.1080   18.3530 C   0  0  1  0  0  0  0  0  0  0  0  0
   -4.3420   12.4460   19.0310 H   0  0  0  0  0  0  0  0  0  0  0  0
   -2.9670   12.4560   21.0730 H   0  0  0  0  0  0  0  0  0  0  0  0
   -1.1280   10.5500   16.8910 H   0  0  0  0  0  0  0  0  0  0  0  0
    1.7390   11.9740   20.1250 H   0  0  0  0  0  0  0  0  0  0  0  0
    2.4140   10.3690   20.3880 H   0  0  0  0  0  0  0  0  0  0  0  0
    1.0820   10.9920   22.3460 H   0  0  0  0  0  0  0  0  0  0  0  0
    0.2150    9.6940   21.5260 H   0  0  0  0  0  0  0  0  0  0  0  0
    1.1410   10.7000   16.7750 H   0  0  0  0  0  0  0  0  0  0  0  0
    2.6310   10.6050   17.7870 H   0  0  0  0  0  0  0  0  0  0  0  0
    0.2250    8.6090   17.8550 H   0  0  0  0  0  0  0  0  0  0  0  0
    1.9830    8.1400   18.9850 C   0  0  0  0  0  0  0  0  0  0  0  0
    1.9050    7.8810   20.1760 O   0  0  0  0  0  0  0  0  0  0  0  0
    2.8630    7.5680   18.1060 N   0  0  0  0  0  0  0  0  0  0  0  0
    2.7400    7.7490   17.1200 H   0  0  0  0  0  0  0  0  0  0  0  0
    3.7180    6.4760   18.5030 C   0  0  0  0  0  0  0  0  0  0  0  0
    4.2620    6.7550   19.4070 H   0  0  0  0  0  0  0  0  0  0  0  0
    4.4570    6.3200   17.7100 H   0  0  0  0  0  0  0  0  0  0  0  0
    2.9250    5.2120   18.7250 C   0  0  0  0  0  0  0  0  0  0  0  0
    2.0380    4.7420   17.7490 C   0  0  0  0  0  0  0  0  0  0  0  0
    1.2590    3.6040   17.9900 C   0  0  0  0  0  0  0  0  0  0  0  0
    1.3750    2.9160   19.1960 C   0  0  0  0  0  0  0  0  0  0  0  0
    2.2730    3.3590   20.1720 C   0  0  0  0  0  0  0  0  0  0  0  0
    3.0270    4.5170   19.9440 C   0  0  0  0  0  0  0  0  0  0  0  0
    1.9330    5.2740   16.8030 H   0  0  0  0  0  0  0  0  0  0  0  0
    0.5550    3.2590   17.2420 H   0  0  0  0  0  0  0  0  0  0  0  0
    0.7650    2.0320   19.3790 H   0  0  0  0  0  0  0  0  0  0  0  0
    3.6730    4.9140   20.7210 H   0  0  0  0  0  0  0  0  0  0  0  0
    2.3740    2.5780   21.4470 C   0  0  0  0  0  0  0  0  0  0  0  0
    1.2730    2.5380   22.2610 N   0  0  0  0  0  0  0  0  0  0  0  0
    3.4110    2.0160   21.7790 O   0  0  0  0  0  0  0  0  0  0  0  0
    0.4440    3.0940   22.1000 H   0  0  0  0  0  0  0  0  0  0  0  0
    1.3820    2.0980   23.1680 H   0  0  0  0  0  0  0  0  0  0  0  0
   -3.6420   11.4600   16.5260 C   0  0  0  0  0  0  0  0  0  0  0  0
   -3.4050   12.3620   15.9440 H   0  0  0  0  0  0  0  0  0  0  0  0
   -3.2890   10.2590   15.6450 C   0  0  0  0  0  0  0  0  0  0  0  0
   -4.1790    9.8030   15.1920 H   0  0  0  0  0  0  0  0  0  0  0  0
   -2.6180   10.5620   14.8300 H   0  0  0  0  0  0  0  0  0  0  0  0
   -2.7760    9.4840   16.2260 H   0  0  0  0  0  0  0  0  0  0  0  0
   -5.1470   11.4970   16.8170 C   0  0  0  0  0  0  0  0  0  0  0  0
   -5.4050   10.8170   17.6370 H   0  0  0  0  0  0  0  0  0  0  0  0
   -5.7390   11.2060   15.9430 H   0  0  0  0  0  0  0  0  0  0  0  0
   -5.4580   12.5070   17.1090 H   0  0  0  0  0  0  0  0  0  0  0  0
  1  6  2  0  0  0  0
  1  2  1  0  0  0  0
  2 13  1  0  0  0  0
  2  3  2  0  0  0  0
  3 14  1  0  0  0  0
  4  3  1  0  0  0  0
  4 10  1  0  0  0  0
  5  4  2  0  0  0  0
  6  5  1  0  0  0  0
  7  5  1  6  0  0  0
  7  8  1  0  0  0  0
  8 17  1  0  0  0  0
  8  9  1  0  0  0  0
  9 19  1  0  0  0  0
  9 18  1  0  0  0  0
 10  9  1  0  0  0  0
 11 21  1  0  0  0  0
 11 12  1  0  0  0  0
 11  7  1  0  0  0  0
 12 22  1  6  0  0  0
 12  7  1  0  0  0  0
 12 23  1  0  0  0  0
 15  6  1  0  0  0  0
 16  8  1  0  0  0  0
 20 11  1  0  0  0  0
 23 24  2  0  0  0  0
 25 27  1  0  0  0  0
 25 23  1  0  0  0  0
 26 25  1  0  0  0  0
 27 30  1  0  0  0  0
 27 28  1  0  0  0  0
 29 27  1  0  0  0  0
 30 35  1  0  0  0  0
 31 32  1  0  0  0  0
 31 30  2  0  0  0  0
 32 33  2  0  0  0  0
 33 38  1  0  0  0  0
 33 34  1  0  0  0  0
 34 40  1  0  0  0  0
 35 34  2  0  0  0  0
 35 39  1  0  0  0  0
 36 31  1  0  0  0  0
 37 32  1  0  0  0  0
 40 42  2  0  0  0  0
 40 41  1  0  0  0  0
 41 44  1  0  0  0  0
 43 41  1  0  0  0  0
 45 51  1  0  0  0  0
 45  1  1  0  0  0  0
 46 45  1  0  0  0  0
 47 50  1  0  0  0  0
 47 45  1  0  0  0  0
 48 47  1  0  0  0  0
 49 47  1  0  0  0  0
 51 54  1  0  0  0  0
 51 52  1  0  0  0  0
 53 51  1  0  0  0  0
M  END
>  <MODEL>
12

>  <REMARK>
 VINA RESULT:    -7.042      3.743      8.796
 INTER + INTRA:          -9.997
 INTER:                  -9.745
 INTRA:                  -0.252
 UNBOUND:                -0.484
  Name = 
  7 active torsions:
  status: ('A' for Active; 'I' for Inactive)
    1  A    between atoms: C_1  and  C_2
    2  A    between atoms: C_2  and  C_3
    3  A    between atoms: C_2  and  C_4
    4  A    between atoms: C_15  and  C_16
    5  A    between atoms: N_18  and  C_19
    6  A    between atoms: C_19  and  C_20
    7  A    between atoms: C_24  and  C_25
                            x       y       z     vdW  Elec       q    Type
                         _______ _______ _______ _____ _____    ______ ____

>  <TORSDO>
F 7

$$$$
=
 OpenBabel07192307433D

 54 57  0  0  1  0  0  0  0  0999 V2000
    5.9120    4.7680   16.6850 C   0  0  0  0  0  0  0  0  0  0  0  0
    5.6360    3.4150   16.4550 C   0  0  0  0  0  0  0  0  0  0  0  0
    4.3850    2.8900   16.7710 C   0  0  0  0  0  0  0  0  0  0  0  0
    3.3950    3.7120   17.3190 C   0  0  0  0  0  0  0  0  0  0  0  0
    3.6150    5.0860   17.5450 C   0  0  0  0  0  0  0  0  0  0  0  0
    4.8980    5.5790   17.2290 C   0  0  0  0  0  0  0  0  0  0  0  0
    2.4760    5.9550   18.0860 C   0  0  2  0  0  0  0  0  0  0  0  0
    1.1370    5.2470   18.0020 C   0  0  0  0  0  0  0  0  0  0  0  0
    1.3290    3.8110   18.4600 C   0  0  0  0  0  0  0  0  0  0  0  0
    2.1930    3.0890   17.5700 O   0  0  0  0  0  0  0  0  0  0  0  0
    2.4540    7.4560   17.8700 C   0  0  0  0  0  0  0  0  0  0  0  0
    2.7730    6.9100   19.2460 C   0  0  1  0  0  0  0  0  0  0  0  0
    6.3880    2.7570   16.0230 H   0  0  0  0  0  0  0  0  0  0  0  0
    4.1750    1.8380   16.5880 H   0  0  0  0  0  0  0  0  0  0  0  0
    5.1170    6.6290   17.4040 H   0  0  0  0  0  0  0  0  0  0  0  0
    0.7980    5.2640   16.9610 H   0  0  0  0  0  0  0  0  0  0  0  0
    0.3650    5.7370   18.6010 H   0  0  0  0  0  0  0  0  0  0  0  0
    0.3640    3.2930   18.4630 H   0  0  0  0  0  0  0  0  0  0  0  0
    1.7340    3.7510   19.4750 H   0  0  0  0  0  0  0  0  0  0  0  0
    3.2480    7.9250   17.3030 H   0  0  0  0  0  0  0  0  0  0  0  0
    1.4900    7.9280   17.7060 H   0  0  0  0  0  0  0  0  0  0  0  0
    3.8080    6.9670   19.5710 H   0  0  0  0  0  0  0  0  0  0  0  0
    1.8260    7.0940   20.3740 C   0  0  0  0  0  0  0  0  0  0  0  0
    1.5670    6.1730   21.1330 O   0  0  0  0  0  0  0  0  0  0  0  0
    1.3420    8.3700   20.4840 N   0  0  0  0  0  0  0  0  0  0  0  0
    1.7370    9.0850   19.8900 H   0  0  0  0  0  0  0  0  0  0  0  0
    0.5550    8.7800   21.6210 C   0  0  0  0  0  0  0  0  0  0  0  0
    1.2130    8.9300   22.4790 H   0  0  0  0  0  0  0  0  0  0  0  0
   -0.1290    7.9630   21.8720 H   0  0  0  0  0  0  0  0  0  0  0  0
   -0.2260   10.0350   21.3230 C   0  0  0  0  0  0  0  0  0  0  0  0
   -0.6730   10.8650   22.3580 C   0  0  0  0  0  0  0  0  0  0  0  0
   -1.4520   11.9930   22.0750 C   0  0  0  0  0  0  0  0  0  0  0  0
   -1.7720   12.3130   20.7580 C   0  0  0  0  0  0  0  0  0  0  0  0
   -1.3150   11.5080   19.7090 C   0  0  0  0  0  0  0  0  0  0  0  0
   -0.5640   10.3610   19.9960 C   0  0  0  0  0  0  0  0  0  0  0  0
   -0.4350   10.6240   23.3940 H   0  0  0  0  0  0  0  0  0  0  0  0
   -1.8170   12.6180   22.8820 H   0  0  0  0  0  0  0  0  0  0  0  0
   -2.3810   13.1910   20.5430 H   0  0  0  0  0  0  0  0  0  0  0  0
   -0.2650    9.6870   19.1990 H   0  0  0  0  0  0  0  0  0  0  0  0
   -1.6720   11.9000   18.3080 C   0  0  0  0  0  0  0  0  0  0  0  0
   -0.9620   12.9190   17.7290 N   0  0  0  0  0  0  0  0  0  0  0  0
   -2.5860   11.3580   17.6990 O   0  0  0  0  0  0  0  0  0  0  0  0
   -0.2940   13.4860   18.2350 H   0  0  0  0  0  0  0  0  0  0  0  0
   -1.2770   13.2490   16.8240 H   0  0  0  0  0  0  0  0  0  0  0  0
    7.2630    5.3780   16.3480 C   0  0  0  0  0  0  0  0  0  0  0  0
    8.0510    4.7450   16.7800 H   0  0  0  0  0  0  0  0  0  0  0  0
    7.5100    5.4230   14.8370 C   0  0  0  0  0  0  0  0  0  0  0  0
    6.5880    5.2630   14.2630 H   0  0  0  0  0  0  0  0  0  0  0  0
    7.9210    6.3980   14.5430 H   0  0  0  0  0  0  0  0  0  0  0  0
    8.2300    4.6540   14.5350 H   0  0  0  0  0  0  0  0  0  0  0  0
    7.4160    6.7710   16.9660 C   0  0  0  0  0  0  0  0  0  0  0  0
    8.3080    6.8240   17.6000 H   0  0  0  0  0  0  0  0  0  0  0  0
    6.5520    7.0410   17.5840 H   0  0  0  0  0  0  0  0  0  0  0  0
    7.5160    7.5320   16.1830 H   0  0  0  0  0  0  0  0  0  0  0  0
  1  6  1  0  0  0  0
  2  1  2  0  0  0  0
  2  3  1  0  0  0  0
  3  4  2  0  0  0  0
  4  5  1  0  0  0  0
  4 10  1  0  0  0  0
  6 15  1  0  0  0  0
  6  5  2  0  0  0  0
  7  5  1  6  0  0  0
  7 12  1  0  0  0  0
  8  7  1  0  0  0  0
  8  9  1  0  0  0  0
  8 17  1  0  0  0  0
  9 18  1  0  0  0  0
  9 19  1  0  0  0  0
 10  9  1  0  0  0  0
 11  7  1  0  0  0  0
 11 12  1  0  0  0  0
 12 22  1  1  0  0  0
 12 23  1  0  0  0  0
 13  2  1  0  0  0  0
 14  3  1  0  0  0  0
 16  8  1  0  0  0  0
 20 11  1  0  0  0  0
 21 11  1  0  0  0  0
 23 25  1  0  0  0  0
 23 24  2  0  0  0  0
 25 27  1  0  0  0  0
 26 25  1  0  0  0  0
 27 29  1  0  0  0  0
 27 28  1  0  0  0  0
 30 27  1  0  0  0  0
 30 31  1  0  0  0  0
 31 36  1  0  0  0  0
 32 31  2  0  0  0  0
 32 37  1  0  0  0  0
 33 32  1  0  0  0  0
 34 35  1  0  0  0  0
 34 33  2  0  0  0  0
 35 30  2  0  0  0  0
 38 33  1  0  0  0  0
 39 35  1  0  0  0  0
 40 34  1  0  0  0  0
 41 43  1  0  0  0  0
 41 40  1  0  0  0  0
 42 40  2  0  0  0  0
 44 41  1  0  0  0  0
 45  1  1  0  0  0  0
 45 46  1  0  0  0  0
 45 51  1  0  0  0  0
 47 45  1  0  0  0  0
 48 47  1  0  0  0  0
 49 47  1  0  0  0  0
 50 47  1  0  0  0  0
 51 53  1  0  0  0  0
 51 52  1  0  0  0  0
 54 51  1  0  0  0  0
M  END
>  <MODEL>
13

>  <REMARK>
 VINA RESULT:    -7.042      2.316      3.895
 INTER + INTRA:          -9.996
 INTER:                  -9.377
 INTRA:                  -0.619
 UNBOUND:                -0.484
  Name = 
  7 active torsions:
  status: ('A' for Active; 'I' for Inactive)
    1  A    between atoms: C_1  and  C_2
    2  A    between atoms: C_2  and  C_3
    3  A    between atoms: C_2  and  C_4
    4  A    between atoms: C_15  and  C_16
    5  A    between atoms: N_18  and  C_19
    6  A    between atoms: C_19  and  C_20
    7  A    between atoms: C_24  and  C_25
                            x       y       z     vdW  Elec       q    Type
                         _______ _______ _______ _____ _____    ______ ____

>  <TORSDO>
F 7

$$$$
=
 OpenBabel07192307433D

 54 57  0  0  1  0  0  0  0  0999 V2000
   -2.6440   12.8990   22.5420 C   0  0  0  0  0  0  0  0  0  0  0  0
   -1.8310   13.8290   23.2010 C   0  0  0  0  0  0  0  0  0  0  0  0
   -0.5450   14.0930   22.7340 C   0  0  0  0  0  0  0  0  0  0  0  0
   -0.0580   13.4310   21.6030 C   0  0  0  0  0  0  0  0  0  0  0  0
   -0.8460   12.5050   20.8890 C   0  0  0  0  0  0  0  0  0  0  0  0
   -2.1370   12.2510   21.4000 C   0  0  0  0  0  0  0  0  0  0  0  0
   -0.2880   11.8560   19.6190 C   0  0  2  0  0  0  0  0  0  0  0  0
    0.9580   12.5670   19.1250 C   0  0  0  0  0  0  0  0  0  0  0  0
    1.8440   12.8620   20.3230 C   0  0  0  0  0  0  0  0  0  0  0  0
    1.2170   13.7870   21.2220 O   0  0  0  0  0  0  0  0  0  0  0  0
   -1.2040   11.2900   18.5520 C   0  0  0  0  0  0  0  0  0  0  0  0
   -0.4340   10.3420   19.4480 C   0  0  1  0  0  0  0  0  0  0  0  0
   -2.1900   14.3620   24.0790 H   0  0  0  0  0  0  0  0  0  0  0  0
    0.0820   14.8190   23.2480 H   0  0  0  0  0  0  0  0  0  0  0  0
   -2.7720   11.5310   20.8910 H   0  0  0  0  0  0  0  0  0  0  0  0
    0.6580   13.5020   18.6430 H   0  0  0  0  0  0  0  0  0  0  0  0
    1.5060   11.9810   18.3810 H   0  0  0  0  0  0  0  0  0  0  0  0
    2.7780   13.3230   19.9850 H   0  0  0  0  0  0  0  0  0  0  0  0
    2.1110   11.9550   20.8740 H   0  0  0  0  0  0  0  0  0  0  0  0
   -2.2780   11.3620   18.6760 H   0  0  0  0  0  0  0  0  0  0  0  0
   -0.8970   11.3940   17.5150 H   0  0  0  0  0  0  0  0  0  0  0  0
   -0.9990    9.8210   20.2160 H   0  0  0  0  0  0  0  0  0  0  0  0
    0.6630    9.5040   18.9010 C   0  0  0  0  0  0  0  0  0  0  0  0
    1.0150    9.6120   17.7370 O   0  0  0  0  0  0  0  0  0  0  0  0
    1.2330    8.6720   19.8270 N   0  0  0  0  0  0  0  0  0  0  0  0
    0.9590    8.7710   20.7930 H   0  0  0  0  0  0  0  0  0  0  0  0
    2.4260    7.9190   19.5260 C   0  0  0  0  0  0  0  0  0  0  0  0
    3.2170    8.2030   20.2220 H   0  0  0  0  0  0  0  0  0  0  0  0
    2.7580    8.1980   18.5200 H   0  0  0  0  0  0  0  0  0  0  0  0
    2.1670    6.4340   19.5900 C   0  0  0  0  0  0  0  0  0  0  0  0
    1.5520    5.8620   20.7100 C   0  0  0  0  0  0  0  0  0  0  0  0
    1.3730    4.4760   20.7880 C   0  0  0  0  0  0  0  0  0  0  0  0
    1.7870    3.6540   19.7420 C   0  0  0  0  0  0  0  0  0  0  0  0
    2.3820    4.2110   18.6050 C   0  0  0  0  0  0  0  0  0  0  0  0
    2.5910    5.5950   18.5420 C   0  0  0  0  0  0  0  0  0  0  0  0
    1.2290    6.4920   21.5390 H   0  0  0  0  0  0  0  0  0  0  0  0
    0.9210    4.0350   21.6690 H   0  0  0  0  0  0  0  0  0  0  0  0
    1.6480    2.5750   19.8080 H   0  0  0  0  0  0  0  0  0  0  0  0
    3.1180    6.0340   17.7010 H   0  0  0  0  0  0  0  0  0  0  0  0
    2.7960    3.2910   17.4990 C   0  0  0  0  0  0  0  0  0  0  0  0
    2.2250    2.0460   17.4560 N   0  0  0  0  0  0  0  0  0  0  0  0
    3.6410    3.6130   16.6730 O   0  0  0  0  0  0  0  0  0  0  0  0
    1.6280    1.6840   18.1890 H   0  0  0  0  0  0  0  0  0  0  0  0
    2.5860    1.3920   16.7700 H   0  0  0  0  0  0  0  0  0  0  0  0
   -4.0540   12.5900   23.0180 C   0  0  0  0  0  0  0  0  0  0  0  0
   -4.3200   11.5740   22.6920 H   0  0  0  0  0  0  0  0  0  0  0  0
   -4.1580   12.6050   24.5460 C   0  0  0  0  0  0  0  0  0  0  0  0
   -5.1840   12.4180   24.8910 H   0  0  0  0  0  0  0  0  0  0  0  0
   -3.5130   11.8330   24.9840 H   0  0  0  0  0  0  0  0  0  0  0  0
   -3.8410   13.5730   24.9510 H   0  0  0  0  0  0  0  0  0  0  0  0
   -5.0760   13.5450   22.3930 C   0  0  0  0  0  0  0  0  0  0  0  0
   -4.6670   14.0290   21.4990 H   0  0  0  0  0  0  0  0  0  0  0  0
   -5.3770   14.3340   23.0910 H   0  0  0  0  0  0  0  0  0  0  0  0
   -5.9800   13.0010   22.0960 H   0  0  0  0  0  0  0  0  0  0  0  0
  1 45  1  0  0  0  0
  1  2  1  0  0  0  0
  2 13  1  0  0  0  0
  3  2  2  0  0  0  0
  3 14  1  0  0  0  0
  4  3  1  0  0  0  0
  5  6  1  0  0  0  0
  5  4  2  0  0  0  0
  6  1  2  0  0  0  0
  7  5  1  1  0  0  0
  8  7  1  0  0  0  0
  8  9  1  0  0  0  0
  9 19  1  0  0  0  0
  9 10  1  0  0  0  0
 10  4  1  0  0  0  0
 11 20  1  0  0  0  0
 11 12  1  0  0  0  0
 11  7  1  0  0  0  0
 12  7  1  0  0  0  0
 12 22  1  1  0  0  0
 15  6  1  0  0  0  0
 16  8  1  0  0  0  0
 17  8  1  0  0  0  0
 18  9  1  0  0  0  0
 21 11  1  0  0  0  0
 23 12  1  0  0  0  0
 23 25  1  0  0  0  0
 24 23  2  0  0  0  0
 25 26  1  0  0  0  0
 27 30  1  0  0  0  0
 27 25  1  0  0  0  0
 27 28  1  0  0  0  0
 29 27  1  0  0  0  0
 30 31  1  0  0  0  0
 31 32  2  0  0  0  0
 31 36  1  0  0  0  0
 32 37  1  0  0  0  0
 33 38  1  0  0  0  0
 33 32  1  0  0  0  0
 34 33  2  0  0  0  0
 35 34  1  0  0  0  0
 35 30  2  0  0  0  0
 39 35  1  0  0  0  0
 40 34  1  0  0  0  0
 41 40  1  0  0  0  0
 41 43  1  0  0  0  0
 42 40  2  0  0  0  0
 44 41  1  0  0  0  0
 45 47  1  0  0  0  0
 46 45  1  0  0  0  0
 47 48  1  0  0  0  0
 47 50  1  0  0  0  0
 47 49  1  0  0  0  0
 51 45  1  0  0  0  0
 51 53  1  0  0  0  0
 52 51  1  0  0  0  0
 54 51  1  0  0  0  0
M  END
>  <MODEL>
14

>  <REMARK>
 VINA RESULT:    -6.993      3.416     10.467
 INTER + INTRA:          -9.930
 INTER:                  -9.412
 INTRA:                  -0.518
 UNBOUND:                -0.484
  Name = 
  7 active torsions:
  status: ('A' for Active; 'I' for Inactive)
    1  A    between atoms: C_1  and  C_2
    2  A    between atoms: C_2  and  C_3
    3  A    between atoms: C_2  and  C_4
    4  A    between atoms: C_15  and  C_16
    5  A    between atoms: N_18  and  C_19
    6  A    between atoms: C_19  and  C_20
    7  A    between atoms: C_24  and  C_25
                            x       y       z     vdW  Elec       q    Type
                         _______ _______ _______ _____ _____    ______ ____

>  <TORSDO>
F 7

$$$$
=
 OpenBabel07192307433D

 54 57  0  0  1  0  0  0  0  0999 V2000
   -1.9810   12.8470   22.4230 C   0  0  0  0  0  0  0  0  0  0  0  0
   -1.1500   13.8750   22.8880 C   0  0  0  0  0  0  0  0  0  0  0  0
    0.0620   14.1380   22.2560 C   0  0  0  0  0  0  0  0  0  0  0  0
    0.4600   13.3790   21.1510 C   0  0  0  0  0  0  0  0  0  0  0  0
   -0.3520   12.3520   20.6280 C   0  0  0  0  0  0  0  0  0  0  0  0
   -1.5650   12.1020   21.3030 C   0  0  0  0  0  0  0  0  0  0  0  0
    0.1000   11.5940   19.3760 C   0  0  2  0  0  0  0  0  0  0  0  0
    1.2480   12.2960   18.6760 C   0  0  0  0  0  0  0  0  0  0  0  0
    2.2410   12.7530   19.7310 C   0  0  0  0  0  0  0  0  0  0  0  0
    1.6660   13.7440   20.5960 O   0  0  0  0  0  0  0  0  0  0  0  0
   -0.8950   10.8800   18.4810 C   0  0  0  0  0  0  0  0  0  0  0  0
    0.0150   10.0650   19.3770 C   0  0  1  0  0  0  0  0  0  0  0  0
   -1.4410   14.4830   23.7420 H   0  0  0  0  0  0  0  0  0  0  0  0
    0.7030   14.9390   22.6210 H   0  0  0  0  0  0  0  0  0  0  0  0
   -2.2130   11.3070   20.9440 H   0  0  0  0  0  0  0  0  0  0  0  0
    0.8510   13.1630   18.1380 H   0  0  0  0  0  0  0  0  0  0  0  0
    1.7430   11.6580   17.9380 H   0  0  0  0  0  0  0  0  0  0  0  0
    3.1080   13.2130   19.2460 H   0  0  0  0  0  0  0  0  0  0  0  0
    2.6110   11.9220   20.3390 H   0  0  0  0  0  0  0  0  0  0  0  0
   -1.9510   10.9220   18.7160 H   0  0  0  0  0  0  0  0  0  0  0  0
   -0.7050   10.8860   17.4110 H   0  0  0  0  0  0  0  0  0  0  0  0
   -0.4370    9.6070   20.2520 H   0  0  0  0  0  0  0  0  0  0  0  0
    1.0890    9.2180   18.8000 C   0  0  0  0  0  0  0  0  0  0  0  0
    1.5140    9.4250   17.6740 O   0  0  0  0  0  0  0  0  0  0  0  0
    1.5530    8.2560   19.6570 N   0  0  0  0  0  0  0  0  0  0  0  0
    1.2280    8.2710   20.6130 H   0  0  0  0  0  0  0  0  0  0  0  0
    2.7130    7.4620   19.3370 C   0  0  0  0  0  0  0  0  0  0  0  0
    3.4690    7.6000   20.1120 H   0  0  0  0  0  0  0  0  0  0  0  0
    3.1330    7.8370   18.3980 H   0  0  0  0  0  0  0  0  0  0  0  0
    2.3550    6.0030   19.1950 C   0  0  0  0  0  0  0  0  0  0  0  0
    2.0110    5.4680   17.9480 C   0  0  0  0  0  0  0  0  0  0  0  0
    1.6180    4.1290   17.8360 C   0  0  0  0  0  0  0  0  0  0  0  0
    1.5880    3.3100   18.9630 C   0  0  0  0  0  0  0  0  0  0  0  0
    1.9500    3.8220   20.2120 C   0  0  0  0  0  0  0  0  0  0  0  0
    2.3110    5.1710   20.3290 C   0  0  0  0  0  0  0  0  0  0  0  0
    2.0250    6.0990   17.0590 H   0  0  0  0  0  0  0  0  0  0  0  0
    1.3280    3.7260   16.8730 H   0  0  0  0  0  0  0  0  0  0  0  0
    1.2790    2.2690   18.8710 H   0  0  0  0  0  0  0  0  0  0  0  0
    2.5230    5.6000   21.3030 H   0  0  0  0  0  0  0  0  0  0  0  0
    1.9170    2.9000   21.3920 C   0  0  0  0  0  0  0  0  0  0  0  0
    3.1060    2.3780   21.8310 N   0  0  0  0  0  0  0  0  0  0  0  0
    0.8650    2.5870   21.9380 O   0  0  0  0  0  0  0  0  0  0  0  0
    3.9790    2.4960   21.3340 H   0  0  0  0  0  0  0  0  0  0  0  0
    3.0640    1.6760   22.5600 H   0  0  0  0  0  0  0  0  0  0  0  0
   -3.3130   12.5340   23.0820 C   0  0  0  0  0  0  0  0  0  0  0  0
   -3.3050   11.4850   23.4100 H   0  0  0  0  0  0  0  0  0  0  0  0
   -3.5480   13.3870   24.3320 C   0  0  0  0  0  0  0  0  0  0  0  0
   -4.2380   12.9050   25.0370 H   0  0  0  0  0  0  0  0  0  0  0  0
   -2.6020   13.5660   24.8600 H   0  0  0  0  0  0  0  0  0  0  0  0
   -3.9690   14.3640   24.0670 H   0  0  0  0  0  0  0  0  0  0  0  0
   -4.4750   12.6860   22.0940 C   0  0  0  0  0  0  0  0  0  0  0  0
   -5.1830   11.8560   22.1900 H   0  0  0  0  0  0  0  0  0  0  0  0
   -4.1260   12.7090   21.0550 H   0  0  0  0  0  0  0  0  0  0  0  0
   -5.0210   13.6180   22.2820 H   0  0  0  0  0  0  0  0  0  0  0  0
  1  2  1  0  0  0  0
  1 45  1  0  0  0  0
  2 13  1  0  0  0  0
  3 14  1  0  0  0  0
  3  2  2  0  0  0  0
  4  3  1  0  0  0  0
  5  4  2  0  0  0  0
  5  6  1  0  0  0  0
  6  1  2  0  0  0  0
  7 12  1  0  0  0  0
  7  5  1  1  0  0  0
  8  7  1  0  0  0  0
  8  9  1  0  0  0  0
  9 19  1  0  0  0  0
  9 10  1  0  0  0  0
 10  4  1  0  0  0  0
 11 20  1  0  0  0  0
 11  7  1  0  0  0  0
 11 12  1  0  0  0  0
 12 22  1  1  0  0  0
 15  6  1  0  0  0  0
 16  8  1  0  0  0  0
 17  8  1  0  0  0  0
 18  9  1  0  0  0  0
 21 11  1  0  0  0  0
 23 12  1  0  0  0  0
 23 25  1  0  0  0  0
 24 23  2  0  0  0  0
 25 26  1  0  0  0  0
 27 25  1  0  0  0  0
 27 28  1  0  0  0  0
 29 27  1  0  0  0  0
 30 27  1  0  0  0  0
 30 35  1  0  0  0  0
 31 30  2  0  0  0  0
 32 31  1  0  0  0  0
 32 33  2  0  0  0  0
 33 34  1  0  0  0  0
 34 35  2  0  0  0  0
 34 40  1  0  0  0  0
 35 39  1  0  0  0  0
 36 31  1  0  0  0  0
 37 32  1  0  0  0  0
 38 33  1  0  0  0  0
 40 41  1  0  0  0  0
 40 42  2  0  0  0  0
 41 44  1  0  0  0  0
 43 41  1  0  0  0  0
 45 46  1  0  0  0  0
 45 47  1  0  0  0  0
 47 49  1  0  0  0  0
 47 48  1  0  0  0  0
 50 47  1  0  0  0  0
 51 52  1  0  0  0  0
 51 54  1  0  0  0  0
 51 45  1  0  0  0  0
 53 51  1  0  0  0  0
M  END
>  <MODEL>
15

>  <REMARK>
 VINA RESULT:    -6.985      4.056     10.009
 INTER + INTRA:          -9.919
 INTER:                  -9.639
 INTRA:                  -0.280
 UNBOUND:                -0.484
  Name = 
  7 active torsions:
  status: ('A' for Active; 'I' for Inactive)
    1  A    between atoms: C_1  and  C_2
    2  A    between atoms: C_2  and  C_3
    3  A    between atoms: C_2  and  C_4
    4  A    between atoms: C_15  and  C_16
    5  A    between atoms: N_18  and  C_19
    6  A    between atoms: C_19  and  C_20
    7  A    between atoms: C_24  and  C_25
                            x       y       z     vdW  Elec       q    Type
                         _______ _______ _______ _____ _____    ______ ____

>  <TORSDO>
F 7

$$$$
=
 OpenBabel07192307433D

 54 57  0  0  1  0  0  0  0  0999 V2000
    5.9880    4.4470   14.3990 C   0  0  0  0  0  0  0  0  0  0  0  0
    7.3080    4.5920   14.8420 C   0  0  0  0  0  0  0  0  0  0  0  0
    7.5830    4.7120   16.2020 C   0  0  0  0  0  0  0  0  0  0  0  0
    6.5430    4.6880   17.1350 C   0  0  0  0  0  0  0  0  0  0  0  0
    5.1990    4.5180   16.7420 C   0  0  0  0  0  0  0  0  0  0  0  0
    4.9560    4.4160   15.3570 C   0  0  0  0  0  0  0  0  0  0  0  0
    4.1040    4.4320   17.8100 C   0  0  2  0  0  0  0  0  0  0  0  0
    4.6830    4.2230   19.1960 C   0  0  0  0  0  0  0  0  0  0  0  0
    5.8800    5.1450   19.3560 C   0  0  0  0  0  0  0  0  0  0  0  0
    6.9360    4.7930   18.4510 O   0  0  0  0  0  0  0  0  0  0  0  0
    2.7770    3.7550   17.5290 C   0  0  0  0  0  0  0  0  0  0  0  0
    2.8340    5.2650   17.6210 C   0  0  1  0  0  0  0  0  0  0  0  0
    8.1350    4.6070   14.1350 H   0  0  0  0  0  0  0  0  0  0  0  0
    8.6120    4.8220   16.5410 H   0  0  0  0  0  0  0  0  0  0  0  0
    3.9340    4.3010   15.0080 H   0  0  0  0  0  0  0  0  0  0  0  0
    5.0020    3.1800   19.2870 H   0  0  0  0  0  0  0  0  0  0  0  0
    3.9520    4.4070   19.9880 H   0  0  0  0  0  0  0  0  0  0  0  0
    6.2820    5.0540   20.3710 H   0  0  0  0  0  0  0  0  0  0  0  0
    5.6160    6.1960   19.2040 H   0  0  0  0  0  0  0  0  0  0  0  0
    2.6020    3.3010   16.5610 H   0  0  0  0  0  0  0  0  0  0  0  0
    2.3120    3.2000   18.3380 H   0  0  0  0  0  0  0  0  0  0  0  0
    2.7530    5.8200   16.6900 H   0  0  0  0  0  0  0  0  0  0  0  0
    2.1890    5.9820   18.7490 C   0  0  0  0  0  0  0  0  0  0  0  0
    1.6870    5.3670   19.6780 O   0  0  0  0  0  0  0  0  0  0  0  0
    2.2640    7.3460   18.6510 N   0  0  0  0  0  0  0  0  0  0  0  0
    2.8290    7.7420   17.9140 H   0  0  0  0  0  0  0  0  0  0  0  0
    1.8550    8.2010   19.7390 C   0  0  0  0  0  0  0  0  0  0  0  0
    2.7320    8.4880   20.3200 H   0  0  0  0  0  0  0  0  0  0  0  0
    1.2000    7.6210   20.3970 H   0  0  0  0  0  0  0  0  0  0  0  0
    1.1270    9.4210   19.2310 C   0  0  0  0  0  0  0  0  0  0  0  0
    1.6010   10.7070   19.5140 C   0  0  0  0  0  0  0  0  0  0  0  0
    0.8840   11.8340   19.0940 C   0  0  0  0  0  0  0  0  0  0  0  0
   -0.2970   11.6850   18.3700 C   0  0  0  0  0  0  0  0  0  0  0  0
   -0.7720   10.4080   18.0590 C   0  0  0  0  0  0  0  0  0  0  0  0
   -0.0720    9.2810   18.5090 C   0  0  0  0  0  0  0  0  0  0  0  0
    2.5210   10.8390   20.0850 H   0  0  0  0  0  0  0  0  0  0  0  0
    1.2410   12.8280   19.3390 H   0  0  0  0  0  0  0  0  0  0  0  0
   -0.8520   12.5650   18.0470 H   0  0  0  0  0  0  0  0  0  0  0  0
   -0.4680    8.2840   18.3380 H   0  0  0  0  0  0  0  0  0  0  0  0
   -2.0380   10.2970   17.2660 C   0  0  0  0  0  0  0  0  0  0  0  0
   -2.2240   11.1780   16.2320 N   0  0  0  0  0  0  0  0  0  0  0  0
   -2.9020    9.4730   17.5390 O   0  0  0  0  0  0  0  0  0  0  0  0
   -1.6080   11.9600   16.0530 H   0  0  0  0  0  0  0  0  0  0  0  0
   -3.1250   11.1670   15.7690 H   0  0  0  0  0  0  0  0  0  0  0  0
    5.6490    4.3080   12.9240 C   0  0  0  0  0  0  0  0  0  0  0  0
    5.2370    5.2620   12.5670 H   0  0  0  0  0  0  0  0  0  0  0  0
    6.8910    4.0160   12.0760 C   0  0  0  0  0  0  0  0  0  0  0  0
    6.8350    3.0360   11.5860 H   0  0  0  0  0  0  0  0  0  0  0  0
    7.0080    4.7760   11.2920 H   0  0  0  0  0  0  0  0  0  0  0  0
    7.7970    4.0310   12.6910 H   0  0  0  0  0  0  0  0  0  0  0  0
    4.5730    3.2400   12.6970 C   0  0  0  0  0  0  0  0  0  0  0  0
    3.6090    3.7000   12.4530 H   0  0  0  0  0  0  0  0  0  0  0  0
    4.4290    2.6120   13.5830 H   0  0  0  0  0  0  0  0  0  0  0  0
    4.8510    2.5840   11.8640 H   0  0  0  0  0  0  0  0  0  0  0  0
  1  2  2  0  0  0  0
  1  6  1  0  0  0  0
  2  3  1  0  0  0  0
  3 14  1  0  0  0  0
  3  4  2  0  0  0  0
  4 10  1  0  0  0  0
  5  4  1  0  0  0  0
  6  5  2  0  0  0  0
  7  5  1  6  0  0  0
  7  8  1  0  0  0  0
  8 16  1  0  0  0  0
  8  9  1  0  0  0  0
  8 17  1  0  0  0  0
  9 18  1  0  0  0  0
 10  9  1  0  0  0  0
 11 12  1  0  0  0  0
 11  7  1  0  0  0  0
 11 21  1  0  0  0  0
 12 22  1  6  0  0  0
 12  7  1  0  0  0  0
 12 23  1  0  0  0  0
 13  2  1  0  0  0  0
 15  6  1  0  0  0  0
 19  9  1  0  0  0  0
 20 11  1  0  0  0  0
 23 24  2  0  0  0  0
 25 23  1  0  0  0  0
 25 27  1  0  0  0  0
 26 25  1  0  0  0  0
 27 28  1  0  0  0  0
 27 29  1  0  0  0  0
 30 31  1  0  0  0  0
 30 27  1  0  0  0  0
 31 36  1  0  0  0  0
 32 37  1  0  0  0  0
 32 31  2  0  0  0  0
 33 32  1  0  0  0  0
 34 33  2  0  0  0  0
 34 35  1  0  0  0  0
 35 30  2  0  0  0  0
 38 33  1  0  0  0  0
 39 35  1  0  0  0  0
 40 42  2  0  0  0  0
 40 34  1  0  0  0  0
 41 40  1  0  0  0  0
 43 41  1  0  0  0  0
 44 41  1  0  0  0  0
 45  1  1  0  0  0  0
 46 45  1  0  0  0  0
 47 50  1  0  0  0  0
 47 45  1  0  0  0  0
 48 47  1  0  0  0  0
 49 47  1  0  0  0  0
 51 45  1  0  0  0  0
 51 53  1  0  0  0  0
 52 51  1  0  0  0  0
 54 51  1  0  0  0  0
M  END
>  <MODEL>
16

>  <REMARK>
 VINA RESULT:    -6.983      2.138      2.452
 INTER + INTRA:          -9.917
 INTER:                  -9.416
 INTRA:                  -0.501
 UNBOUND:                -0.484
  Name = 
  7 active torsions:
  status: ('A' for Active; 'I' for Inactive)
    1  A    between atoms: C_1  and  C_2
    2  A    between atoms: C_2  and  C_3
    3  A    between atoms: C_2  and  C_4
    4  A    between atoms: C_15  and  C_16
    5  A    between atoms: N_18  and  C_19
    6  A    between atoms: C_19  and  C_20
    7  A    between atoms: C_24  and  C_25
                            x       y       z     vdW  Elec       q    Type
                         _______ _______ _______ _____ _____    ______ ____

>  <TORSDO>
F 7

$$$$
=
 OpenBabel07192307433D

 54 57  0  0  1  0  0  0  0  0999 V2000
    2.4960   14.0740   20.1630 C   0  0  0  0  0  0  0  0  0  0  0  0
    3.1810   14.0400   18.9420 C   0  0  0  0  0  0  0  0  0  0  0  0
    3.0000   12.9750   18.0640 C   0  0  0  0  0  0  0  0  0  0  0  0
    2.1310   11.9300   18.3950 C   0  0  0  0  0  0  0  0  0  0  0  0
    1.3980   11.9300   19.5990 C   0  0  0  0  0  0  0  0  0  0  0  0
    1.6190   13.0160   20.4710 C   0  0  0  0  0  0  0  0  0  0  0  0
    0.4110   10.7940   19.8830 C   0  0  2  0  0  0  0  0  0  0  0  0
    0.1260    9.9710   18.6410 C   0  0  0  0  0  0  0  0  0  0  0  0
    1.4430    9.7200   17.9250 C   0  0  0  0  0  0  0  0  0  0  0  0
    2.0150   10.9430   17.4410 O   0  0  0  0  0  0  0  0  0  0  0  0
   -0.7460   10.9740   20.8470 C   0  0  0  0  0  0  0  0  0  0  0  0
    0.4400   10.1280   21.2620 C   0  0  1  0  0  0  0  0  0  0  0  0
    3.8570   14.8450   18.6600 H   0  0  0  0  0  0  0  0  0  0  0  0
    3.5330   12.9550   17.1150 H   0  0  0  0  0  0  0  0  0  0  0  0
    1.0880   13.0470   21.4190 H   0  0  0  0  0  0  0  0  0  0  0  0
   -0.5480   10.5380   17.9930 H   0  0  0  0  0  0  0  0  0  0  0  0
   -0.3690    9.0220   18.8710 H   0  0  0  0  0  0  0  0  0  0  0  0
    1.2720    9.0780   17.0550 H   0  0  0  0  0  0  0  0  0  0  0  0
    2.1720    9.2130   18.5650 H   0  0  0  0  0  0  0  0  0  0  0  0
   -0.8940   11.9310   21.3320 H   0  0  0  0  0  0  0  0  0  0  0  0
   -1.6830   10.4780   20.6090 H   0  0  0  0  0  0  0  0  0  0  0  0
    1.1210   10.5580   21.9910 H   0  0  0  0  0  0  0  0  0  0  0  0
    0.3040    8.6600   21.4280 C   0  0  0  0  0  0  0  0  0  0  0  0
   -0.7590    8.1620   21.7670 O   0  0  0  0  0  0  0  0  0  0  0  0
    1.4430    7.9630   21.1250 N   0  0  0  0  0  0  0  0  0  0  0  0
    2.2170    8.4660   20.7170 H   0  0  0  0  0  0  0  0  0  0  0  0
    1.4460    6.5220   21.0540 C   0  0  0  0  0  0  0  0  0  0  0  0
    0.4260    6.1670   20.9030 H   0  0  0  0  0  0  0  0  0  0  0  0
    1.7880    6.1360   22.0200 H   0  0  0  0  0  0  0  0  0  0  0  0
    2.3520    6.0300   19.9520 C   0  0  0  0  0  0  0  0  0  0  0  0
    2.8130    6.9030   18.9610 C   0  0  0  0  0  0  0  0  0  0  0  0
    3.6010    6.4250   17.9070 C   0  0  0  0  0  0  0  0  0  0  0  0
    3.9510    5.0780   17.8470 C   0  0  0  0  0  0  0  0  0  0  0  0
    3.5170    4.1960   18.8420 C   0  0  0  0  0  0  0  0  0  0  0  0
    2.7020    4.6690   19.8780 C   0  0  0  0  0  0  0  0  0  0  0  0
    2.5420    7.9590   18.9920 H   0  0  0  0  0  0  0  0  0  0  0  0
    3.9340    7.1000   17.1270 H   0  0  0  0  0  0  0  0  0  0  0  0
    4.5620    4.7100   17.0230 H   0  0  0  0  0  0  0  0  0  0  0  0
    2.2970    3.9830   20.6160 H   0  0  0  0  0  0  0  0  0  0  0  0
    3.9310    2.7600   18.7440 C   0  0  0  0  0  0  0  0  0  0  0  0
    4.9780    2.3410   19.5230 N   0  0  0  0  0  0  0  0  0  0  0  0
    3.3830    1.9810   17.9740 O   0  0  0  0  0  0  0  0  0  0  0  0
    5.5490    2.9730   20.0700 H   0  0  0  0  0  0  0  0  0  0  0  0
    5.3200    1.3990   19.3750 H   0  0  0  0  0  0  0  0  0  0  0  0
    2.6630   15.2220   21.1430 C   0  0  0  0  0  0  0  0  0  0  0  0
    2.6170   16.1690   20.5860 H   0  0  0  0  0  0  0  0  0  0  0  0
    1.5340   15.2620   22.1770 C   0  0  0  0  0  0  0  0  0  0  0  0
    0.7490   14.5260   21.9600 H   0  0  0  0  0  0  0  0  0  0  0  0
    1.9240   15.0470   23.1810 H   0  0  0  0  0  0  0  0  0  0  0  0
    1.0660   16.2520   22.2080 H   0  0  0  0  0  0  0  0  0  0  0  0
    4.0310   15.1720   21.8330 C   0  0  0  0  0  0  0  0  0  0  0  0
    4.7330   14.5490   21.2680 H   0  0  0  0  0  0  0  0  0  0  0  0
    3.9620   14.7630   22.8470 H   0  0  0  0  0  0  0  0  0  0  0  0
    4.4610   16.1780   21.9090 H   0  0  0  0  0  0  0  0  0  0  0  0
  1  6  1  0  0  0  0
  1 45  1  0  0  0  0
  2  1  2  0  0  0  0
  3  4  2  0  0  0  0
  3  2  1  0  0  0  0
  4  5  1  0  0  0  0
  5  6  2  0  0  0  0
  6 15  1  0  0  0  0
  7  5  1  6  0  0  0
  7 11  1  0  0  0  0
  7 12  1  0  0  0  0
  8 17  1  0  0  0  0
  8  7  1  0  0  0  0
  9 19  1  0  0  0  0
  9  8  1  0  0  0  0
 10  9  1  0  0  0  0
 10  4  1  0  0  0  0
 11 12  1  0  0  0  0
 11 20  1  0  0  0  0
 12 23  1  0  0  0  0
 12 22  1  1  0  0  0
 13  2  1  0  0  0  0
 14  3  1  0  0  0  0
 16  8  1  0  0  0  0
 18  9  1  0  0  0  0
 21 11  1  0  0  0  0
 23 24  2  0  0  0  0
 25 23  1  0  0  0  0
 26 25  1  0  0  0  0
 27 25  1  0  0  0  0
 27 29  1  0  0  0  0
 28 27  1  0  0  0  0
 30 27  1  0  0  0  0
 31 36  1  0  0  0  0
 31 30  2  0  0  0  0
 32 31  1  0  0  0  0
 33 32  2  0  0  0  0
 33 34  1  0  0  0  0
 34 35  2  0  0  0  0
 35 30  1  0  0  0  0
 35 39  1  0  0  0  0
 37 32  1  0  0  0  0
 38 33  1  0  0  0  0
 40 34  1  0  0  0  0
 40 41  1  0  0  0  0
 41 43  1  0  0  0  0
 42 40  2  0  0  0  0
 44 41  1  0  0  0  0
 45 51  1  0  0  0  0
 45 47  1  0  0  0  0
 46 45  1  0  0  0  0
 47 50  1  0  0  0  0
 47 49  1  0  0  0  0
 48 47  1  0  0  0  0
 51 54  1  0  0  0  0
 51 53  1  0  0  0  0
 52 51  1  0  0  0  0
M  END
>  <MODEL>
17

>  <REMARK>
 VINA RESULT:    -6.956      3.127      8.957
 INTER + INTRA:          -9.880
 INTER:                  -9.232
 INTRA:                  -0.648
 UNBOUND:                -0.484
  Name = 
  7 active torsions:
  status: ('A' for Active; 'I' for Inactive)
    1  A    between atoms: C_1  and  C_2
    2  A    between atoms: C_2  and  C_3
    3  A    between atoms: C_2  and  C_4
    4  A    between atoms: C_15  and  C_16
    5  A    between atoms: N_18  and  C_19
    6  A    between atoms: C_19  and  C_20
    7  A    between atoms: C_24  and  C_25
                            x       y       z     vdW  Elec       q    Type
                         _______ _______ _______ _____ _____    ______ ____

>  <TORSDO>
F 7

$$$$
=
 OpenBabel07192307433D

 54 57  0  0  1  0  0  0  0  0999 V2000
    1.6540    4.7050   19.7850 C   0  0  0  0  0  0  0  0  0  0  0  0
    2.1930    4.6840   18.4920 C   0  0  0  0  0  0  0  0  0  0  0  0
    2.4520    5.8760   17.8200 C   0  0  0  0  0  0  0  0  0  0  0  0
    2.1750    7.1030   18.4310 C   0  0  0  0  0  0  0  0  0  0  0  0
    1.6570    7.1780   19.7400 C   0  0  0  0  0  0  0  0  0  0  0  0
    1.3930    5.9520   20.3840 C   0  0  0  0  0  0  0  0  0  0  0  0
    1.4340    8.5480   20.3870 C   0  0  2  0  0  0  0  0  0  0  0  0
    2.1210    9.6560   19.6120 C   0  0  0  0  0  0  0  0  0  0  0  0
    1.8720    9.4260   18.1310 C   0  0  0  0  0  0  0  0  0  0  0  0
    2.4910    8.2130   17.6800 O   0  0  0  0  0  0  0  0  0  0  0  0
    1.3880    8.7130   21.8940 C   0  0  0  0  0  0  0  0  0  0  0  0
    0.1040    8.8120   21.0970 C   0  0  1  0  0  0  0  0  0  0  0  0
    2.4230    3.7420   17.9990 H   0  0  0  0  0  0  0  0  0  0  0  0
    2.8730    5.8530   16.8160 H   0  0  0  0  0  0  0  0  0  0  0  0
    0.9760    5.9630   21.3870 H   0  0  0  0  0  0  0  0  0  0  0  0
    3.1950    9.6140   19.8210 H   0  0  0  0  0  0  0  0  0  0  0  0
    1.7740   10.6510   19.9070 H   0  0  0  0  0  0  0  0  0  0  0  0
    2.3110   10.2460   17.5530 H   0  0  0  0  0  0  0  0  0  0  0  0
    0.8050    9.3930   17.8910 H   0  0  0  0  0  0  0  0  0  0  0  0
    1.5370    7.8500   22.5310 H   0  0  0  0  0  0  0  0  0  0  0  0
    1.8120    9.6200   22.3160 H   0  0  0  0  0  0  0  0  0  0  0  0
   -0.5840    7.9730   21.1640 H   0  0  0  0  0  0  0  0  0  0  0  0
   -0.6120   10.1060   20.9690 C   0  0  0  0  0  0  0  0  0  0  0  0
   -0.7160   10.8630   21.9230 O   0  0  0  0  0  0  0  0  0  0  0  0
   -1.0760   10.3570   19.7060 N   0  0  0  0  0  0  0  0  0  0  0  0
   -0.8060    9.7280   18.9640 H   0  0  0  0  0  0  0  0  0  0  0  0
   -1.6340   11.6390   19.3510 C   0  0  0  0  0  0  0  0  0  0  0  0
   -0.8470   12.2740   18.9430 H   0  0  0  0  0  0  0  0  0  0  0  0
   -1.9980   12.1150   20.2670 H   0  0  0  0  0  0  0  0  0  0  0  0
   -2.7650   11.4890   18.3630 C   0  0  0  0  0  0  0  0  0  0  0  0
   -4.0640   11.8890   18.6950 C   0  0  0  0  0  0  0  0  0  0  0  0
   -5.1180   11.6880   17.7970 C   0  0  0  0  0  0  0  0  0  0  0  0
   -4.8800   11.1060   16.5530 C   0  0  0  0  0  0  0  0  0  0  0  0
   -3.5840   10.7220   16.1960 C   0  0  0  0  0  0  0  0  0  0  0  0
   -2.5350   10.8930   17.1090 C   0  0  0  0  0  0  0  0  0  0  0  0
   -4.2670   12.3400   19.6670 H   0  0  0  0  0  0  0  0  0  0  0  0
   -6.1270   11.9750   18.0690 H   0  0  0  0  0  0  0  0  0  0  0  0
   -5.7040   10.9490   15.8580 H   0  0  0  0  0  0  0  0  0  0  0  0
   -1.5380   10.5320   16.8750 H   0  0  0  0  0  0  0  0  0  0  0  0
   -3.3730   10.1150   14.8430 C   0  0  0  0  0  0  0  0  0  0  0  0
   -4.4530   10.0320   14.0040 N   0  0  0  0  0  0  0  0  0  0  0  0
   -2.2840    9.6730   14.4960 O   0  0  0  0  0  0  0  0  0  0  0  0
   -5.3970   10.2550   14.2920 H   0  0  0  0  0  0  0  0  0  0  0  0
   -4.3290    9.5260   13.1340 H   0  0  0  0  0  0  0  0  0  0  0  0
    1.3650    3.4260   20.5520 C   0  0  0  0  0  0  0  0  0  0  0  0
    0.3270    3.4610   20.9140 H   0  0  0  0  0  0  0  0  0  0  0  0
    1.4810    2.1850   19.6620 C   0  0  0  0  0  0  0  0  0  0  0  0
    2.5000    1.7770   19.6530 H   0  0  0  0  0  0  0  0  0  0  0  0
    0.8080    1.3930   20.0150 H   0  0  0  0  0  0  0  0  0  0  0  0
    1.2050    2.4180   18.6270 H   0  0  0  0  0  0  0  0  0  0  0  0
    2.2670    3.2970   21.7840 C   0  0  0  0  0  0  0  0  0  0  0  0
    2.9900    4.1190   21.8290 H   0  0  0  0  0  0  0  0  0  0  0  0
    2.8300    2.3570   21.7810 H   0  0  0  0  0  0  0  0  0  0  0  0
    1.6700    3.3250   22.7030 H   0  0  0  0  0  0  0  0  0  0  0  0
  1  6  1  0  0  0  0
  1 45  1  0  0  0  0
  2  1  2  0  0  0  0
  3  4  2  0  0  0  0
  3  2  1  0  0  0  0
  4  5  1  0  0  0  0
  5  6  2  0  0  0  0
  6 15  1  0  0  0  0
  7  5  1  6  0  0  0
  7 12  1  0  0  0  0
  7 11  1  0  0  0  0
  8 16  1  0  0  0  0
  8 17  1  0  0  0  0
  8  7  1  0  0  0  0
  9  8  1  0  0  0  0
 10  9  1  0  0  0  0
 10  4  1  0  0  0  0
 11 21  1  0  0  0  0
 11 20  1  0  0  0  0
 12 22  1  1  0  0  0
 12 11  1  0  0  0  0
 13  2  1  0  0  0  0
 14  3  1  0  0  0  0
 18  9  1  0  0  0  0
 19  9  1  0  0  0  0
 23 12  1  0  0  0  0
 23 24  2  0  0  0  0
 25 23  1  0  0  0  0
 26 25  1  0  0  0  0
 27 25  1  0  0  0  0
 27 29  1  0  0  0  0
 28 27  1  0  0  0  0
 30 31  1  0  0  0  0
 30 27  1  0  0  0  0
 31 36  1  0  0  0  0
 32 37  1  0  0  0  0
 32 31  2  0  0  0  0
 33 32  1  0  0  0  0
 34 33  2  0  0  0  0
 34 35  1  0  0  0  0
 35 30  2  0  0  0  0
 38 33  1  0  0  0  0
 39 35  1  0  0  0  0
 40 34  1  0  0  0  0
 41 43  1  0  0  0  0
 41 40  1  0  0  0  0
 42 40  2  0  0  0  0
 44 41  1  0  0  0  0
 45 46  1  0  0  0  0
 45 51  1  0  0  0  0
 47 49  1  0  0  0  0
 47 45  1  0  0  0  0
 48 47  1  0  0  0  0
 50 47  1  0  0  0  0
 51 52  1  0  0  0  0
 51 54  1  0  0  0  0
 53 51  1  0  0  0  0
M  END
>  <MODEL>
18

>  <REMARK>
 VINA RESULT:    -6.916      4.007      7.042
 INTER + INTRA:          -9.826
 INTER:                  -9.341
 INTRA:                  -0.485
 UNBOUND:                -0.484
  Name = 
  7 active torsions:
  status: ('A' for Active; 'I' for Inactive)
    1  A    between atoms: C_1  and  C_2
    2  A    between atoms: C_2  and  C_3
    3  A    between atoms: C_2  and  C_4
    4  A    between atoms: C_15  and  C_16
    5  A    between atoms: N_18  and  C_19
    6  A    between atoms: C_19  and  C_20
    7  A    between atoms: C_24  and  C_25
                            x       y       z     vdW  Elec       q    Type
                         _______ _______ _______ _____ _____    ______ ____

>  <TORSDO>
F 7

$$$$
=
 OpenBabel07192307433D

 54 57  0  0  1  0  0  0  0  0999 V2000
    0.8370    9.0260   21.1760 C   0  0  0  0  0  0  0  0  0  0  0  0
    0.8370   10.0640   20.2350 C   0  0  0  0  0  0  0  0  0  0  0  0
    1.3770    9.8610   18.9670 C   0  0  0  0  0  0  0  0  0  0  0  0
    1.9230    8.6200   18.6240 C   0  0  0  0  0  0  0  0  0  0  0  0
    1.9230    7.5370   19.5270 C   0  0  0  0  0  0  0  0  0  0  0  0
    1.3830    7.7820   20.8070 C   0  0  0  0  0  0  0  0  0  0  0  0
    2.4740    6.1790   19.0790 C   0  0  2  0  0  0  0  0  0  0  0  0
    2.6580    6.1140   17.5750 C   0  0  0  0  0  0  0  0  0  0  0  0
    3.2870    7.4190   17.1160 C   0  0  0  0  0  0  0  0  0  0  0  0
    2.4070    8.5300   17.3380 O   0  0  0  0  0  0  0  0  0  0  0  0
    2.0510    4.8910   19.7590 C   0  0  0  0  0  0  0  0  0  0  0  0
    3.4400    5.4410   20.0090 C   0  0  1  0  0  0  0  0  0  0  0  0
    0.4120   11.0360   20.4760 H   0  0  0  0  0  0  0  0  0  0  0  0
    1.3730   10.6700   18.2390 H   0  0  0  0  0  0  0  0  0  0  0  0
    1.3790    6.9810   21.5400 H   0  0  0  0  0  0  0  0  0  0  0  0
    1.6760    5.9900   17.1080 H   0  0  0  0  0  0  0  0  0  0  0  0
    3.2730    5.2650   17.2640 H   0  0  0  0  0  0  0  0  0  0  0  0
    3.4830    7.3740   16.0390 H   0  0  0  0  0  0  0  0  0  0  0  0
    4.2420    7.6150   17.6130 H   0  0  0  0  0  0  0  0  0  0  0  0
    1.3290    4.9240   20.5650 H   0  0  0  0  0  0  0  0  0  0  0  0
    1.9440    4.0050   19.1390 H   0  0  0  0  0  0  0  0  0  0  0  0
    3.6230    5.8970   20.9770 H   0  0  0  0  0  0  0  0  0  0  0  0
    4.6400    4.7340   19.4940 C   0  0  0  0  0  0  0  0  0  0  0  0
    4.7560    3.5240   19.6150 O   0  0  0  0  0  0  0  0  0  0  0  0
    5.5320    5.5560   18.8570 N   0  0  0  0  0  0  0  0  0  0  0  0
    5.2640    6.5140   18.6900 H   0  0  0  0  0  0  0  0  0  0  0  0
    6.6630    5.0220   18.1380 C   0  0  0  0  0  0  0  0  0  0  0  0
    7.0230    4.1260   18.6460 H   0  0  0  0  0  0  0  0  0  0  0  0
    7.4670    5.7640   18.1730 H   0  0  0  0  0  0  0  0  0  0  0  0
    6.3050    4.7160   16.7050 C   0  0  0  0  0  0  0  0  0  0  0  0
    5.1260    4.0320   16.3910 C   0  0  0  0  0  0  0  0  0  0  0  0
    4.8330    3.6960   15.0640 C   0  0  0  0  0  0  0  0  0  0  0  0
    5.7040    4.0610   14.0390 C   0  0  0  0  0  0  0  0  0  0  0  0
    6.8760    4.7660   14.3330 C   0  0  0  0  0  0  0  0  0  0  0  0
    7.1840    5.0710   15.6650 C   0  0  0  0  0  0  0  0  0  0  0  0
    4.4380    3.7350   17.1830 H   0  0  0  0  0  0  0  0  0  0  0  0
    3.9320    3.1430   14.8290 H   0  0  0  0  0  0  0  0  0  0  0  0
    5.4740    3.7960   13.0080 H   0  0  0  0  0  0  0  0  0  0  0  0
    8.1250    5.5520   15.9140 H   0  0  0  0  0  0  0  0  0  0  0  0
    7.7740    5.1490   13.1970 C   0  0  0  0  0  0  0  0  0  0  0  0
    8.8540    5.9460   13.4770 N   0  0  0  0  0  0  0  0  0  0  0  0
    7.5460    4.7980   12.0460 O   0  0  0  0  0  0  0  0  0  0  0  0
    9.0080    6.3730   14.3810 H   0  0  0  0  0  0  0  0  0  0  0  0
    9.3960    6.2870   12.6910 H   0  0  0  0  0  0  0  0  0  0  0  0
    0.2510    9.2080   22.5660 C   0  0  0  0  0  0  0  0  0  0  0  0
   -0.3800    8.3380   22.7980 H   0  0  0  0  0  0  0  0  0  0  0  0
    1.3390    9.2650   23.6430 C   0  0  0  0  0  0  0  0  0  0  0  0
    2.1740    9.9160   23.3520 H   0  0  0  0  0  0  0  0  0  0  0  0
    0.9280    9.6500   24.5860 H   0  0  0  0  0  0  0  0  0  0  0  0
    1.7470    8.2680   23.8410 H   0  0  0  0  0  0  0  0  0  0  0  0
   -0.6480   10.4470   22.6360 C   0  0  0  0  0  0  0  0  0  0  0  0
   -1.3280   10.4870   21.7770 H   0  0  0  0  0  0  0  0  0  0  0  0
   -0.0650   11.3740   22.6440 H   0  0  0  0  0  0  0  0  0  0  0  0
   -1.2580   10.4290   23.5460 H   0  0  0  0  0  0  0  0  0  0  0  0
  1 45  1  0  0  0  0
  2 13  1  0  0  0  0
  2  1  2  0  0  0  0
  3  2  1  0  0  0  0
  4  3  2  0  0  0  0
  4  5  1  0  0  0  0
  5  6  2  0  0  0  0
  6  1  1  0  0  0  0
  6 15  1  0  0  0  0
  7  5  1  1  0  0  0
  7 11  1  0  0  0  0
  7 12  1  0  0  0  0
  8  7  1  0  0  0  0
  9 10  1  0  0  0  0
  9  8  1  0  0  0  0
  9 19  1  0  0  0  0
 10  4  1  0  0  0  0
 11 12  1  0  0  0  0
 11 20  1  0  0  0  0
 12 22  1  1  0  0  0
 14  3  1  0  0  0  0
 16  8  1  0  0  0  0
 17  8  1  0  0  0  0
 18  9  1  0  0  0  0
 21 11  1  0  0  0  0
 23 24  2  0  0  0  0
 23 12  1  0  0  0  0
 25 23  1  0  0  0  0
 26 25  1  0  0  0  0
 27 29  1  0  0  0  0
 27 28  1  0  0  0  0
 27 25  1  0  0  0  0
 30 27  1  0  0  0  0
 31 30  1  0  0  0  0
 31 36  1  0  0  0  0
 32 31  2  0  0  0  0
 33 34  2  0  0  0  0
 33 32  1  0  0  0  0
 34 35  1  0  0  0  0
 35 39  1  0  0  0  0
 35 30  2  0  0  0  0
 37 32  1  0  0  0  0
 38 33  1  0  0  0  0
 40 41  1  0  0  0  0
 40 34  1  0  0  0  0
 41 43  1  0  0  0  0
 42 40  2  0  0  0  0
 44 41  1  0  0  0  0
 45 51  1  0  0  0  0
 45 46  1  0  0  0  0
 45 47  1  0  0  0  0
 47 50  1  0  0  0  0
 47 49  1  0  0  0  0
 48 47  1  0  0  0  0
 51 53  1  0  0  0  0
 51 54  1  0  0  0  0
 52 51  1  0  0  0  0
M  END
>  <MODEL>
19

>  <REMARK>
 VINA RESULT:    -6.884      2.611      8.720
 INTER + INTRA:          -9.783
 INTER:                  -9.505
 INTRA:                  -0.278
 UNBOUND:                -0.484
  Name = 
  7 active torsions:
  status: ('A' for Active; 'I' for Inactive)
    1  A    between atoms: C_1  and  C_2
    2  A    between atoms: C_2  and  C_3
    3  A    between atoms: C_2  and  C_4
    4  A    between atoms: C_15  and  C_16
    5  A    between atoms: N_18  and  C_19
    6  A    between atoms: C_19  and  C_20
    7  A    between atoms: C_24  and  C_25
                            x       y       z     vdW  Elec       q    Type
                         _______ _______ _______ _____ _____    ______ ____

>  <TORSDO>
F 7

$$$$
=
 OpenBabel07192307433D

 54 57  0  0  1  0  0  0  0  0999 V2000
    1.7210    5.0150   19.9590 C   0  0  0  0  0  0  0  0  0  0  0  0
    2.5680    4.8260   18.8590 C   0  0  0  0  0  0  0  0  0  0  0  0
    2.9740    5.9150   18.0920 C   0  0  0  0  0  0  0  0  0  0  0  0
    2.5400    7.2050   18.4130 C   0  0  0  0  0  0  0  0  0  0  0  0
    1.7090    7.4500   19.5250 C   0  0  0  0  0  0  0  0  0  0  0  0
    1.3040    6.3230   20.2700 C   0  0  0  0  0  0  0  0  0  0  0  0
    1.3150    8.8890   19.8730 C   0  0  2  0  0  0  0  0  0  0  0  0
    2.1630    9.9010   19.1260 C   0  0  0  0  0  0  0  0  0  0  0  0
    2.2980    9.4390   17.6850 C   0  0  0  0  0  0  0  0  0  0  0  0
    3.0230    8.2040   17.5980 O   0  0  0  0  0  0  0  0  0  0  0  0
    0.8900    9.2760   21.2760 C   0  0  0  0  0  0  0  0  0  0  0  0
   -0.1540    9.1900   20.1820 C   0  0  1  0  0  0  0  0  0  0  0  0
    2.9240    3.8340   18.5930 H   0  0  0  0  0  0  0  0  0  0  0  0
    3.6350    5.7630   17.2390 H   0  0  0  0  0  0  0  0  0  0  0  0
    0.6480    6.4640   21.1250 H   0  0  0  0  0  0  0  0  0  0  0  0
    3.1500    9.9440   19.5970 H   0  0  0  0  0  0  0  0  0  0  0  0
    1.7430   10.9100   19.1650 H   0  0  0  0  0  0  0  0  0  0  0  0
    2.8590   10.1830   17.1100 H   0  0  0  0  0  0  0  0  0  0  0  0
    1.3250    9.3160   17.1970 H   0  0  0  0  0  0  0  0  0  0  0  0
    0.8830    8.5270   22.0580 H   0  0  0  0  0  0  0  0  0  0  0  0
    1.1850   10.2560   21.6400 H   0  0  0  0  0  0  0  0  0  0  0  0
   -0.8260    8.3370   20.2080 H   0  0  0  0  0  0  0  0  0  0  0  0
   -0.8280   10.4130   19.6780 C   0  0  0  0  0  0  0  0  0  0  0  0
   -1.5190   10.3790   18.6720 O   0  0  0  0  0  0  0  0  0  0  0  0
   -0.6310   11.5150   20.4660 N   0  0  0  0  0  0  0  0  0  0  0  0
   -0.1610   11.3930   21.3510 H   0  0  0  0  0  0  0  0  0  0  0  0
   -1.3520   12.7430   20.2350 C   0  0  0  0  0  0  0  0  0  0  0  0
   -1.4930   12.8810   19.1620 H   0  0  0  0  0  0  0  0  0  0  0  0
   -0.7340   13.5720   20.5940 H   0  0  0  0  0  0  0  0  0  0  0  0
   -2.6790   12.7410   20.9520 C   0  0  0  0  0  0  0  0  0  0  0  0
   -3.8810   12.6860   20.2360 C   0  0  0  0  0  0  0  0  0  0  0  0
   -5.1080   12.7490   20.9070 C   0  0  0  0  0  0  0  0  0  0  0  0
   -5.1450   12.8450   22.2960 C   0  0  0  0  0  0  0  0  0  0  0  0
   -3.9540   12.8760   23.0290 C   0  0  0  0  0  0  0  0  0  0  0  0
   -2.7260   12.8470   22.3550 C   0  0  0  0  0  0  0  0  0  0  0  0
   -3.8670   12.6180   19.1480 H   0  0  0  0  0  0  0  0  0  0  0  0
   -6.0350   12.7340   20.3460 H   0  0  0  0  0  0  0  0  0  0  0  0
   -6.1030   12.8950   22.8130 H   0  0  0  0  0  0  0  0  0  0  0  0
   -1.7960   12.9460   22.9040 H   0  0  0  0  0  0  0  0  0  0  0  0
   -4.0430   12.9640   24.5210 C   0  0  0  0  0  0  0  0  0  0  0  0
   -4.8200   12.0400   25.1700 N   0  0  0  0  0  0  0  0  0  0  0  0
   -3.4730   13.8460   25.1520 O   0  0  0  0  0  0  0  0  0  0  0  0
   -5.4160   11.3800   24.6880 H   0  0  0  0  0  0  0  0  0  0  0  0
   -4.9600   12.1680   26.1660 H   0  0  0  0  0  0  0  0  0  0  0  0
    1.2620    3.8530   20.8230 C   0  0  0  0  0  0  0  0  0  0  0  0
    0.4000    4.1800   21.4220 H   0  0  0  0  0  0  0  0  0  0  0  0
    0.7900    2.6640   19.9810 C   0  0  0  0  0  0  0  0  0  0  0  0
    0.1060    2.9720   19.1780 H   0  0  0  0  0  0  0  0  0  0  0  0
    1.6450    2.1580   19.5150 H   0  0  0  0  0  0  0  0  0  0  0  0
    0.2660    1.9280   20.6010 H   0  0  0  0  0  0  0  0  0  0  0  0
    2.3550    3.4220   21.8070 C   0  0  0  0  0  0  0  0  0  0  0  0
    2.5510    2.3470   21.7310 H   0  0  0  0  0  0  0  0  0  0  0  0
    2.0780    3.6380   22.8450 H   0  0  0  0  0  0  0  0  0  0  0  0
    3.2930    3.9490   21.5960 H   0  0  0  0  0  0  0  0  0  0  0  0
  1  6  1  0  0  0  0
  1 45  1  0  0  0  0
  2  1  2  0  0  0  0
  3  4  2  0  0  0  0
  3  2  1  0  0  0  0
  4  5  1  0  0  0  0
  5  6  2  0  0  0  0
  6 15  1  0  0  0  0
  7  5  1  6  0  0  0
  7 12  1  0  0  0  0
  7 11  1  0  0  0  0
  8 17  1  0  0  0  0
  8 16  1  0  0  0  0
  8  7  1  0  0  0  0
  9  8  1  0  0  0  0
 10  9  1  0  0  0  0
 10  4  1  0  0  0  0
 11 21  1  0  0  0  0
 11 20  1  0  0  0  0
 12 22  1  1  0  0  0
 12 11  1  0  0  0  0
 13  2  1  0  0  0  0
 14  3  1  0  0  0  0
 18  9  1  0  0  0  0
 19  9  1  0  0  0  0
 23 12  1  0  0  0  0
 23 25  1  0  0  0  0
 24 23  2  0  0  0  0
 25 26  1  0  0  0  0
 27 25  1  0  0  0  0
 27 29  1  0  0  0  0
 27 30  1  0  0  0  0
 28 27  1  0  0  0  0
 30 35  1  0  0  0  0
 31 32  1  0  0  0  0
 31 30  2  0  0  0  0
 32 33  2  0  0  0  0
 33 38  1  0  0  0  0
 33 34  1  0  0  0  0
 34 40  1  0  0  0  0
 35 39  1  0  0  0  0
 35 34  2  0  0  0  0
 36 31  1  0  0  0  0
 37 32  1  0  0  0  0
 40 42  2  0  0  0  0
 40 41  1  0  0  0  0
 41 44  1  0  0  0  0
 43 41  1  0  0  0  0
 45 46  1  0  0  0  0
 45 51  1  0  0  0  0
 47 50  1  0  0  0  0
 47 45  1  0  0  0  0
 48 47  1  0  0  0  0
 49 47  1  0  0  0  0
 51 53  1  0  0  0  0
 52 51  1  0  0  0  0
 54 51  1  0  0  0  0
M  END
>  <MODEL>
20

>  <REMARK>
 VINA RESULT:    -6.814      3.901      6.709
 INTER + INTRA:          -9.688
 INTER:                  -8.980
 INTRA:                  -0.708
 UNBOUND:                -0.484
  Name = 
  7 active torsions:
  status: ('A' for Active; 'I' for Inactive)
    1  A    between atoms: C_1  and  C_2
    2  A    between atoms: C_2  and  C_3
    3  A    between atoms: C_2  and  C_4
    4  A    between atoms: C_15  and  C_16
    5  A    between atoms: N_18  and  C_19
    6  A    between atoms: C_19  and  C_20
    7  A    between atoms: C_24  and  C_25
                            x       y       z     vdW  Elec       q    Type
                         _______ _______ _______ _____ _____    ______ ____

>  <TORSDO>
F 7

$$$$
=
 OpenBabel07192307433D

 54 57  0  0  1  0  0  0  0  0999 V2000
   -1.8880   13.5220   22.9950 C   0  0  0  0  0  0  0  0  0  0  0  0
   -0.9070   14.4920   23.2360 C   0  0  0  0  0  0  0  0  0  0  0  0
    0.0860   14.7370   22.2910 C   0  0  0  0  0  0  0  0  0  0  0  0
    0.1110   14.0160   21.0930 C   0  0  0  0  0  0  0  0  0  0  0  0
   -0.8690   13.0480   20.7910 C   0  0  0  0  0  0  0  0  0  0  0  0
   -1.8500   12.8150   21.7780 C   0  0  0  0  0  0  0  0  0  0  0  0
   -0.8340   12.3330   19.4370 C   0  0  2  0  0  0  0  0  0  0  0  0
    0.1010   13.0210   18.4610 C   0  0  0  0  0  0  0  0  0  0  0  0
    1.3770   13.3870   19.2000 C   0  0  0  0  0  0  0  0  0  0  0  0
    1.1250   14.3580   20.2270 O   0  0  0  0  0  0  0  0  0  0  0  0
   -2.0790   11.7030   18.8430 C   0  0  0  0  0  0  0  0  0  0  0  0
   -0.9950   10.8110   19.4110 C   0  0  1  0  0  0  0  0  0  0  0  0
   -0.9090   15.0710   24.1580 H   0  0  0  0  0  0  0  0  0  0  0  0
    0.8450   15.4930   22.4830 H   0  0  0  0  0  0  0  0  0  0  0  0
   -2.6140   12.0650   21.5940 H   0  0  0  0  0  0  0  0  0  0  0  0
   -0.3880   13.9270   18.0900 H   0  0  0  0  0  0  0  0  0  0  0  0
    0.3300   12.3990   17.5910 H   0  0  0  0  0  0  0  0  0  0  0  0
    2.0920   13.8340   18.5020 H   0  0  0  0  0  0  0  0  0  0  0  0
    1.8610   12.5130   19.6470 H   0  0  0  0  0  0  0  0  0  0  0  0
   -3.0200   11.7760   19.3730 H   0  0  0  0  0  0  0  0  0  0  0  0
   -2.2030   11.7520   17.7650 H   0  0  0  0  0  0  0  0  0  0  0  0
   -1.2010   10.3300   20.3630 H   0  0  0  0  0  0  0  0  0  0  0  0
   -0.1770    9.9490   18.5200 C   0  0  0  0  0  0  0  0  0  0  0  0
   -0.5660    9.6550   17.4010 O   0  0  0  0  0  0  0  0  0  0  0  0
    1.0270    9.5840   19.0610 N   0  0  0  0  0  0  0  0  0  0  0  0
    1.3060   10.0050   19.9350 H   0  0  0  0  0  0  0  0  0  0  0  0
    2.0270    8.9020   18.2770 C   0  0  0  0  0  0  0  0  0  0  0  0
    2.9290    9.5150   18.2300 H   0  0  0  0  0  0  0  0  0  0  0  0
    1.6460    8.8020   17.2550 H   0  0  0  0  0  0  0  0  0  0  0  0
    2.3360    7.5410   18.8480 C   0  0  0  0  0  0  0  0  0  0  0  0
    1.7490    7.1150   20.0450 C   0  0  0  0  0  0  0  0  0  0  0  0
    2.0910    5.8770   20.6000 C   0  0  0  0  0  0  0  0  0  0  0  0
    3.0030    5.0450   19.9540 C   0  0  0  0  0  0  0  0  0  0  0  0
    3.5810    5.4440   18.7450 C   0  0  0  0  0  0  0  0  0  0  0  0
    3.2640    6.6980   18.2070 C   0  0  0  0  0  0  0  0  0  0  0  0
    1.0390    7.7590   20.5650 H   0  0  0  0  0  0  0  0  0  0  0  0
    1.6540    5.5640   21.5410 H   0  0  0  0  0  0  0  0  0  0  0  0
    3.2670    4.0830   20.3910 H   0  0  0  0  0  0  0  0  0  0  0  0
    3.7610    7.0520   17.3090 H   0  0  0  0  0  0  0  0  0  0  0  0
    4.5450    4.5100   18.0790 C   0  0  0  0  0  0  0  0  0  0  0  0
    5.3250    3.7180   18.8800 N   0  0  0  0  0  0  0  0  0  0  0  0
    4.6650    4.4680   16.8610 O   0  0  0  0  0  0  0  0  0  0  0  0
    5.3610    3.8130   19.8870 H   0  0  0  0  0  0  0  0  0  0  0  0
    6.0460    3.1670   18.4280 H   0  0  0  0  0  0  0  0  0  0  0  0
   -2.9910   13.2320   23.9990 C   0  0  0  0  0  0  0  0  0  0  0  0
   -2.6700   12.4010   24.6420 H   0  0  0  0  0  0  0  0  0  0  0  0
   -3.2570   14.4270   24.9190 C   0  0  0  0  0  0  0  0  0  0  0  0
   -4.3160   14.5070   25.1960 H   0  0  0  0  0  0  0  0  0  0  0  0
   -2.6750   14.3360   25.8460 H   0  0  0  0  0  0  0  0  0  0  0  0
   -2.9660   15.3670   24.4350 H   0  0  0  0  0  0  0  0  0  0  0  0
   -4.2800   12.7870   23.3000 C   0  0  0  0  0  0  0  0  0  0  0  0
   -5.0860   13.5110   23.4630 H   0  0  0  0  0  0  0  0  0  0  0  0
   -4.6270   11.8140   23.6650 H   0  0  0  0  0  0  0  0  0  0  0  0
   -4.1210   12.7000   22.2180 H   0  0  0  0  0  0  0  0  0  0  0  0
  1  2  1  0  0  0  0
  1 45  1  0  0  0  0
  2 13  1  0  0  0  0
  3 14  1  0  0  0  0
  3  2  2  0  0  0  0
  4  3  1  0  0  0  0
  5  4  2  0  0  0  0
  5  6  1  0  0  0  0
  6  1  2  0  0  0  0
  7  5  1  1  0  0  0
  8  9  1  0  0  0  0
  8  7  1  0  0  0  0
  9 19  1  0  0  0  0
  9 10  1  0  0  0  0
 10  4  1  0  0  0  0
 11 20  1  0  0  0  0
 11 12  1  0  0  0  0
 11  7  1  0  0  0  0
 12  7  1  0  0  0  0
 12 22  1  1  0  0  0
 15  6  1  0  0  0  0
 16  8  1  0  0  0  0
 17  8  1  0  0  0  0
 18  9  1  0  0  0  0
 21 11  1  0  0  0  0
 23 25  1  0  0  0  0
 23 12  1  0  0  0  0
 24 23  2  0  0  0  0
 25 26  1  0  0  0  0
 27 30  1  0  0  0  0
 27 25  1  0  0  0  0
 28 27  1  0  0  0  0
 29 27  1  0  0  0  0
 30 31  1  0  0  0  0
 31 36  1  0  0  0  0
 31 32  2  0  0  0  0
 32 37  1  0  0  0  0
 33 38  1  0  0  0  0
 33 32  1  0  0  0  0
 34 33  2  0  0  0  0
 35 34  1  0  0  0  0
 35 30  2  0  0  0  0
 39 35  1  0  0  0  0
 40 34  1  0  0  0  0
 40 41  1  0  0  0  0
 41 43  1  0  0  0  0
 42 40  2  0  0  0  0
 44 41  1  0  0  0  0
 45 46  1  0  0  0  0
 45 47  1  0  0  0  0
 47 48  1  0  0  0  0
 47 49  1  0  0  0  0
 50 47  1  0  0  0  0
 51 52  1  0  0  0  0
 51 53  1  0  0  0  0
 51 45  1  0  0  0  0
 54 51  1  0  0  0  0
M  END
>  <MODEL>
21

>  <REMARK>
 VINA RESULT:    -6.800      3.195     10.610
 INTER + INTRA:          -9.669
 INTER:                  -8.960
 INTRA:                  -0.709
 UNBOUND:                -0.484
  Name = 
  7 active torsions:
  status: ('A' for Active; 'I' for Inactive)
    1  A    between atoms: C_1  and  C_2
    2  A    between atoms: C_2  and  C_3
    3  A    between atoms: C_2  and  C_4
    4  A    between atoms: C_15  and  C_16
    5  A    between atoms: N_18  and  C_19
    6  A    between atoms: C_19  and  C_20
    7  A    between atoms: C_24  and  C_25
                            x       y       z     vdW  Elec       q    Type
                         _______ _______ _______ _____ _____    ______ ____

>  <TORSDO>
F 7

$$$$
=
 OpenBabel07192307433D

 54 57  0  0  1  0  0  0  0  0999 V2000
   -3.1070   13.5650   20.6420 C   0  0  0  0  0  0  0  0  0  0  0  0
   -2.4650   14.8000   20.7900 C   0  0  0  0  0  0  0  0  0  0  0  0
   -1.0770   14.8840   20.7080 C   0  0  0  0  0  0  0  0  0  0  0  0
   -0.3150   13.7340   20.4760 C   0  0  0  0  0  0  0  0  0  0  0  0
   -0.9150   12.4720   20.2950 C   0  0  0  0  0  0  0  0  0  0  0  0
   -2.3210   12.4220   20.4000 C   0  0  0  0  0  0  0  0  0  0  0  0
   -0.0390   11.2560   19.9790 C   0  0  2  0  0  0  0  0  0  0  0  0
    1.3680   11.6620   19.5850 C   0  0  0  0  0  0  0  0  0  0  0  0
    1.8320   12.7520   20.5370 C   0  0  0  0  0  0  0  0  0  0  0  0
    1.0440   13.9420   20.3930 O   0  0  0  0  0  0  0  0  0  0  0  0
   -0.6040   10.0340   19.2800 C   0  0  0  0  0  0  0  0  0  0  0  0
   -0.2800    9.9600   20.7580 C   0  0  1  0  0  0  0  0  0  0  0  0
   -3.0360   15.7090   20.9640 H   0  0  0  0  0  0  0  0  0  0  0  0
   -0.5820   15.8470   20.8210 H   0  0  0  0  0  0  0  0  0  0  0  0
   -2.8250   11.4660   20.2850 H   0  0  0  0  0  0  0  0  0  0  0  0
    1.3460   12.0470   18.5610 H   0  0  0  0  0  0  0  0  0  0  0  0
    2.0670   10.8210   19.6000 H   0  0  0  0  0  0  0  0  0  0  0  0
    2.8690   13.0220   20.3090 H   0  0  0  0  0  0  0  0  0  0  0  0
    1.8030   12.4280   21.5820 H   0  0  0  0  0  0  0  0  0  0  0  0
   -1.6440   10.0250   18.9770 H   0  0  0  0  0  0  0  0  0  0  0  0
    0.0390    9.5120   18.5780 H   0  0  0  0  0  0  0  0  0  0  0  0
   -1.1200    9.9600   21.4470 H   0  0  0  0  0  0  0  0  0  0  0  0
    0.8400    9.1180   21.2480 C   0  0  0  0  0  0  0  0  0  0  0  0
    1.4220    9.3920   22.2870 O   0  0  0  0  0  0  0  0  0  0  0  0
    1.0950    8.0270   20.4610 N   0  0  0  0  0  0  0  0  0  0  0  0
    0.4560    7.8220   19.7070 H   0  0  0  0  0  0  0  0  0  0  0  0
    2.0220    7.0030   20.8750 C   0  0  0  0  0  0  0  0  0  0  0  0
    1.5830    6.4290   21.6930 H   0  0  0  0  0  0  0  0  0  0  0  0
    2.9190    7.4950   21.2640 H   0  0  0  0  0  0  0  0  0  0  0  0
    2.3870    6.0980   19.7240 C   0  0  0  0  0  0  0  0  0  0  0  0
    3.1970    6.5590   18.6790 C   0  0  0  0  0  0  0  0  0  0  0  0
    3.4780    5.7340   17.5850 C   0  0  0  0  0  0  0  0  0  0  0  0
    2.9730    4.4360   17.5350 C   0  0  0  0  0  0  0  0  0  0  0  0
    2.1820    3.9520   18.5820 C   0  0  0  0  0  0  0  0  0  0  0  0
    1.8730    4.7900   19.6610 C   0  0  0  0  0  0  0  0  0  0  0  0
    3.5940    7.5750   18.7020 H   0  0  0  0  0  0  0  0  0  0  0  0
    4.0830    6.1050   16.7650 H   0  0  0  0  0  0  0  0  0  0  0  0
    3.1930    3.7980   16.6800 H   0  0  0  0  0  0  0  0  0  0  0  0
    1.2010    4.4530   20.4430 H   0  0  0  0  0  0  0  0  0  0  0  0
    1.6740    2.5460   18.4920 C   0  0  0  0  0  0  0  0  0  0  0  0
    2.5360    1.5820   18.0380 N   0  0  0  0  0  0  0  0  0  0  0  0
    0.5190    2.2560   18.7820 O   0  0  0  0  0  0  0  0  0  0  0  0
    3.4510    1.7900   17.6590 H   0  0  0  0  0  0  0  0  0  0  0  0
    2.1560    0.6550   17.8800 H   0  0  0  0  0  0  0  0  0  0  0  0
   -4.6190   13.4350   20.7190 C   0  0  0  0  0  0  0  0  0  0  0  0
   -5.0710   14.3670   20.3490 H   0  0  0  0  0  0  0  0  0  0  0  0
   -5.1440   12.3050   19.8300 C   0  0  0  0  0  0  0  0  0  0  0  0
   -6.2370   12.2150   19.8770 H   0  0  0  0  0  0  0  0  0  0  0  0
   -4.8690   12.4800   18.7810 H   0  0  0  0  0  0  0  0  0  0  0  0
   -4.7170   11.3410   20.1280 H   0  0  0  0  0  0  0  0  0  0  0  0
   -5.0910   13.2520   22.1660 C   0  0  0  0  0  0  0  0  0  0  0  0
   -4.7650   12.2850   22.5660 H   0  0  0  0  0  0  0  0  0  0  0  0
   -6.1820   13.2970   22.2480 H   0  0  0  0  0  0  0  0  0  0  0  0
   -4.6760   14.0380   22.8090 H   0  0  0  0  0  0  0  0  0  0  0  0
  1 45  1  0  0  0  0
  1  2  1  0  0  0  0
  2 13  1  0  0  0  0
  3  2  2  0  0  0  0
  3 14  1  0  0  0  0
  4  3  1  0  0  0  0
  5  6  1  0  0  0  0
  5  4  2  0  0  0  0
  6  1  2  0  0  0  0
  7  5  1  1  0  0  0
  7 12  1  0  0  0  0
  8 17  1  0  0  0  0
  8  7  1  0  0  0  0
  8  9  1  0  0  0  0
  9 19  1  0  0  0  0
 10  4  1  0  0  0  0
 10  9  1  0  0  0  0
 11  7  1  0  0  0  0
 11 12  1  0  0  0  0
 12 23  1  0  0  0  0
 12 22  1  1  0  0  0
 15  6  1  0  0  0  0
 16  8  1  0  0  0  0
 18  9  1  0  0  0  0
 20 11  1  0  0  0  0
 21 11  1  0  0  0  0
 23 24  2  0  0  0  0
 25 27  1  0  0  0  0
 25 23  1  0  0  0  0
 26 25  1  0  0  0  0
 27 29  1  0  0  0  0
 27 28  1  0  0  0  0
 30 27  1  0  0  0  0
 31 36  1  0  0  0  0
 31 30  2  0  0  0  0
 32 31  1  0  0  0  0
 33 32  2  0  0  0  0
 33 34  1  0  0  0  0
 34 35  2  0  0  0  0
 35 30  1  0  0  0  0
 35 39  1  0  0  0  0
 37 32  1  0  0  0  0
 38 33  1  0  0  0  0
 40 34  1  0  0  0  0
 40 42  2  0  0  0  0
 41 40  1  0  0  0  0
 43 41  1  0  0  0  0
 44 41  1  0  0  0  0
 45 51  1  0  0  0  0
 46 45  1  0  0  0  0
 47 48  1  0  0  0  0
 47 50  1  0  0  0  0
 47 45  1  0  0  0  0
 49 47  1  0  0  0  0
 51 53  1  0  0  0  0
 51 52  1  0  0  0  0
 51 54  1  0  0  0  0
M  END
>  <MODEL>
22

>  <REMARK>
 VINA RESULT:    -6.797      3.368     10.128
 INTER + INTRA:          -9.666
 INTER:                  -8.999
 INTRA:                  -0.667
 UNBOUND:                -0.484
  Name = 
  7 active torsions:
  status: ('A' for Active; 'I' for Inactive)
    1  A    between atoms: C_1  and  C_2
    2  A    between atoms: C_2  and  C_3
    3  A    between atoms: C_2  and  C_4
    4  A    between atoms: C_15  and  C_16
    5  A    between atoms: N_18  and  C_19
    6  A    between atoms: C_19  and  C_20
    7  A    between atoms: C_24  and  C_25
                            x       y       z     vdW  Elec       q    Type
                         _______ _______ _______ _____ _____    ______ ____

>  <TORSDO>
F 7

$$$$
=
 OpenBabel07192307433D

 54 57  0  0  1  0  0  0  0  0999 V2000
    6.2480    5.4680   17.5690 C   0  0  0  0  0  0  0  0  0  0  0  0
    6.0490    4.1610   17.1060 C   0  0  0  0  0  0  0  0  0  0  0  0
    4.7660    3.6220   17.0540 C   0  0  0  0  0  0  0  0  0  0  0  0
    3.6660    4.3830   17.4640 C   0  0  0  0  0  0  0  0  0  0  0  0
    3.8100    5.7110   17.9130 C   0  0  0  0  0  0  0  0  0  0  0  0
    5.1250    6.2190   17.9680 C   0  0  0  0  0  0  0  0  0  0  0  0
    2.5660    6.5220   18.2880 C   0  0  2  0  0  0  0  0  0  0  0  0
    1.2920    5.8540   17.8060 C   0  0  0  0  0  0  0  0  0  0  0  0
    1.3920    4.3680   18.1030 C   0  0  0  0  0  0  0  0  0  0  0  0
    2.4460    3.7540   17.3480 O   0  0  0  0  0  0  0  0  0  0  0  0
    2.5750    8.0380   18.2720 C   0  0  0  0  0  0  0  0  0  0  0  0
    2.5760    7.3110   19.6000 C   0  0  1  0  0  0  0  0  0  0  0  0
    6.8880    3.5530   16.7760 H   0  0  0  0  0  0  0  0  0  0  0  0
    4.6170    2.6070   16.6910 H   0  0  0  0  0  0  0  0  0  0  0  0
    5.2840    7.2320   18.3250 H   0  0  0  0  0  0  0  0  0  0  0  0
    1.2010    6.0130   16.7270 H   0  0  0  0  0  0  0  0  0  0  0  0
    0.3960    6.2760   18.2710 H   0  0  0  0  0  0  0  0  0  0  0  0
    0.4590    3.8710   17.8170 H   0  0  0  0  0  0  0  0  0  0  0  0
    1.5530    4.1680   19.1670 H   0  0  0  0  0  0  0  0  0  0  0  0
    3.4720    8.5640   17.9690 H   0  0  0  0  0  0  0  0  0  0  0  0
    1.6680    8.5450   17.9550 H   0  0  0  0  0  0  0  0  0  0  0  0
    3.5080    7.3070   20.1590 H   0  0  0  0  0  0  0  0  0  0  0  0
    1.3930    7.3630   20.4950 C   0  0  0  0  0  0  0  0  0  0  0  0
    0.9770    6.3550   21.0450 O   0  0  0  0  0  0  0  0  0  0  0  0
    0.8800    8.6220   20.6580 N   0  0  0  0  0  0  0  0  0  0  0  0
    1.3930    9.4010   20.2700 H   0  0  0  0  0  0  0  0  0  0  0  0
   -0.1510    8.8940   21.6290 C   0  0  0  0  0  0  0  0  0  0  0  0
    0.1180    8.4310   22.5800 H   0  0  0  0  0  0  0  0  0  0  0  0
   -1.0750    8.4180   21.2830 H   0  0  0  0  0  0  0  0  0  0  0  0
   -0.3670   10.3770   21.7980 C   0  0  0  0  0  0  0  0  0  0  0  0
    0.4700   11.3010   21.1620 C   0  0  0  0  0  0  0  0  0  0  0  0
    0.3020   12.6730   21.3760 C   0  0  0  0  0  0  0  0  0  0  0  0
   -0.7150   13.1350   22.2080 C   0  0  0  0  0  0  0  0  0  0  0  0
   -1.5760   12.2270   22.8330 C   0  0  0  0  0  0  0  0  0  0  0  0
   -1.3860   10.8520   22.6450 C   0  0  0  0  0  0  0  0  0  0  0  0
    1.2750   10.9530   20.5120 H   0  0  0  0  0  0  0  0  0  0  0  0
    0.9700   13.3830   20.9010 H   0  0  0  0  0  0  0  0  0  0  0  0
   -0.8410   14.2050   22.3730 H   0  0  0  0  0  0  0  0  0  0  0  0
   -1.9980   10.1340   23.1820 H   0  0  0  0  0  0  0  0  0  0  0  0
   -2.6650   12.7700   23.7070 C   0  0  0  0  0  0  0  0  0  0  0  0
   -3.7360   11.9580   23.9740 N   0  0  0  0  0  0  0  0  0  0  0  0
   -2.6290   13.9120   24.1490 O   0  0  0  0  0  0  0  0  0  0  0  0
   -3.8780   11.0630   23.5250 H   0  0  0  0  0  0  0  0  0  0  0  0
   -4.5150   12.3670   24.4770 H   0  0  0  0  0  0  0  0  0  0  0  0
    7.6310    6.0920   17.6350 C   0  0  0  0  0  0  0  0  0  0  0  0
    8.2580    5.6400   16.8530 H   0  0  0  0  0  0  0  0  0  0  0  0
    7.5950    7.5980   17.3560 C   0  0  0  0  0  0  0  0  0  0  0  0
    8.5580    7.9730   16.9850 H   0  0  0  0  0  0  0  0  0  0  0  0
    6.8330    7.8310   16.6000 H   0  0  0  0  0  0  0  0  0  0  0  0
    7.3450    8.1580   18.2630 H   0  0  0  0  0  0  0  0  0  0  0  0
    8.3110    5.8040   18.9780 C   0  0  0  0  0  0  0  0  0  0  0  0
    8.5670    6.7350   19.4960 H   0  0  0  0  0  0  0  0  0  0  0  0
    9.2340    5.2280   18.8520 H   0  0  0  0  0  0  0  0  0  0  0  0
    7.6450    5.2290   19.6310 H   0  0  0  0  0  0  0  0  0  0  0  0
  1 45  1  0  0  0  0
  1  6  1  0  0  0  0
  2  1  2  0  0  0  0
  3  2  1  0  0  0  0
  3  4  2  0  0  0  0
  4  5  1  0  0  0  0
  5  6  2  0  0  0  0
  6 15  1  0  0  0  0
  7  5  1  6  0  0  0
  7 12  1  0  0  0  0
  8  9  1  0  0  0  0
  8 17  1  0  0  0  0
  8  7  1  0  0  0  0
  9 19  1  0  0  0  0
 10  4  1  0  0  0  0
 10  9  1  0  0  0  0
 11  7  1  0  0  0  0
 11 12  1  0  0  0  0
 12 22  1  1  0  0  0
 12 23  1  0  0  0  0
 13  2  1  0  0  0  0
 14  3  1  0  0  0  0
 16  8  1  0  0  0  0
 18  9  1  0  0  0  0
 20 11  1  0  0  0  0
 21 11  1  0  0  0  0
 23 25  1  0  0  0  0
 23 24  2  0  0  0  0
 25 27  1  0  0  0  0
 26 25  1  0  0  0  0
 27 30  1  0  0  0  0
 27 28  1  0  0  0  0
 29 27  1  0  0  0  0
 30 35  1  0  0  0  0
 31 32  1  0  0  0  0
 31 30  2  0  0  0  0
 32 33  2  0  0  0  0
 33 38  1  0  0  0  0
 33 34  1  0  0  0  0
 34 40  1  0  0  0  0
 35 34  2  0  0  0  0
 35 39  1  0  0  0  0
 36 31  1  0  0  0  0
 37 32  1  0  0  0  0
 40 41  1  0  0  0  0
 40 42  2  0  0  0  0
 41 44  1  0  0  0  0
 43 41  1  0  0  0  0
 45 51  1  0  0  0  0
 46 45  1  0  0  0  0
 47 45  1  0  0  0  0
 47 50  1  0  0  0  0
 48 47  1  0  0  0  0
 49 47  1  0  0  0  0
 51 52  1  0  0  0  0
 51 54  1  0  0  0  0
 53 51  1  0  0  0  0
M  END
>  <MODEL>
23

>  <REMARK>
 VINA RESULT:    -6.771      2.542      4.129
 INTER + INTRA:          -9.630
 INTER:                  -9.079
 INTRA:                  -0.551
 UNBOUND:                -0.484
  Name = 
  7 active torsions:
  status: ('A' for Active; 'I' for Inactive)
    1  A    between atoms: C_1  and  C_2
    2  A    between atoms: C_2  and  C_3
    3  A    between atoms: C_2  and  C_4
    4  A    between atoms: C_15  and  C_16
    5  A    between atoms: N_18  and  C_19
    6  A    between atoms: C_19  and  C_20
    7  A    between atoms: C_24  and  C_25
                            x       y       z     vdW  Elec       q    Type
                         _______ _______ _______ _____ _____    ______ ____

>  <TORSDO>
F 7

$$$$
=
 OpenBabel07192307433D

 54 57  0  0  1  0  0  0  0  0999 V2000
    5.5360    5.5770   17.7190 C   0  0  0  0  0  0  0  0  0  0  0  0
    5.8150    4.3010   18.2250 C   0  0  0  0  0  0  0  0  0  0  0  0
    4.9590    3.7110   19.1520 C   0  0  0  0  0  0  0  0  0  0  0  0
    3.8150    4.3880   19.5840 C   0  0  0  0  0  0  0  0  0  0  0  0
    3.4770    5.6630   19.0860 C   0  0  0  0  0  0  0  0  0  0  0  0
    4.3740    6.2370   18.1610 C   0  0  0  0  0  0  0  0  0  0  0  0
    2.1770    6.3330   19.5440 C   0  0  2  0  0  0  0  0  0  0  0  0
    1.2590    5.3560   20.2520 C   0  0  0  0  0  0  0  0  0  0  0  0
    2.0970    4.5160   21.2010 C   0  0  0  0  0  0  0  0  0  0  0  0
    3.0340    3.6980   20.4850 O   0  0  0  0  0  0  0  0  0  0  0  0
    1.5020    7.4030   18.7080 C   0  0  0  0  0  0  0  0  0  0  0  0
    2.2270    7.8010   19.9770 C   0  0  1  0  0  0  0  0  0  0  0  0
    6.6960    3.7510   17.8980 H   0  0  0  0  0  0  0  0  0  0  0  0
    5.1800    2.7170   19.5400 H   0  0  0  0  0  0  0  0  0  0  0  0
    4.1610    7.2260   17.7650 H   0  0  0  0  0  0  0  0  0  0  0  0
    0.7880    4.7140   19.5020 H   0  0  0  0  0  0  0  0  0  0  0  0
    0.4540    5.8580   20.7980 H   0  0  0  0  0  0  0  0  0  0  0  0
    1.4470    3.8410   21.7670 H   0  0  0  0  0  0  0  0  0  0  0  0
    2.6410    5.1290   21.9260 H   0  0  0  0  0  0  0  0  0  0  0  0
    1.9320    7.6870   17.7550 H   0  0  0  0  0  0  0  0  0  0  0  0
    0.4160    7.4250   18.6980 H   0  0  0  0  0  0  0  0  0  0  0  0
    3.1810    8.3070   19.8620 H   0  0  0  0  0  0  0  0  0  0  0  0
    1.4740    8.2980   21.1560 C   0  0  0  0  0  0  0  0  0  0  0  0
    2.0270    8.4500   22.2340 O   0  0  0  0  0  0  0  0  0  0  0  0
    0.1650    8.5950   20.8890 N   0  0  0  0  0  0  0  0  0  0  0  0
   -0.1460    8.5680   19.9290 H   0  0  0  0  0  0  0  0  0  0  0  0
   -0.6690    9.2580   21.8620 C   0  0  0  0  0  0  0  0  0  0  0  0
   -0.2910    9.0470   22.8640 H   0  0  0  0  0  0  0  0  0  0  0  0
   -1.6750    8.8310   21.7940 H   0  0  0  0  0  0  0  0  0  0  0  0
   -0.7220   10.7450   21.6150 C   0  0  0  0  0  0  0  0  0  0  0  0
   -0.9350   11.6400   22.6700 C   0  0  0  0  0  0  0  0  0  0  0  0
   -1.0470   13.0130   22.4220 C   0  0  0  0  0  0  0  0  0  0  0  0
   -0.9250   13.5050   21.1240 C   0  0  0  0  0  0  0  0  0  0  0  0
   -0.6880   12.6270   20.0610 C   0  0  0  0  0  0  0  0  0  0  0  0
   -0.6100   11.2500   20.3060 C   0  0  0  0  0  0  0  0  0  0  0  0
   -1.0390   11.2690   23.6900 H   0  0  0  0  0  0  0  0  0  0  0  0
   -1.2380   13.6990   23.2390 H   0  0  0  0  0  0  0  0  0  0  0  0
   -1.0150   14.5740   20.9360 H   0  0  0  0  0  0  0  0  0  0  0  0
   -0.5010   10.5510   19.4820 H   0  0  0  0  0  0  0  0  0  0  0  0
   -0.5490   13.2030   18.6860 C   0  0  0  0  0  0  0  0  0  0  0  0
   -1.2400   12.6000   17.6670 N   0  0  0  0  0  0  0  0  0  0  0  0
    0.1800   14.1600   18.4570 O   0  0  0  0  0  0  0  0  0  0  0  0
   -1.7440   11.7300   17.7780 H   0  0  0  0  0  0  0  0  0  0  0  0
   -1.0600   12.9280   16.7250 H   0  0  0  0  0  0  0  0  0  0  0  0
    6.4430    6.2500   16.7020 C   0  0  0  0  0  0  0  0  0  0  0  0
    5.8410    6.9510   16.1060 H   0  0  0  0  0  0  0  0  0  0  0  0
    7.5450    7.0740   17.3740 C   0  0  0  0  0  0  0  0  0  0  0  0
    7.3540    7.2240   18.4450 H   0  0  0  0  0  0  0  0  0  0  0  0
    8.5160    6.5700   17.2770 H   0  0  0  0  0  0  0  0  0  0  0  0
    7.6350    8.0610   16.9090 H   0  0  0  0  0  0  0  0  0  0  0  0
    7.0430    5.2300   15.7280 C   0  0  0  0  0  0  0  0  0  0  0  0
    6.9320    4.2100   16.1100 H   0  0  0  0  0  0  0  0  0  0  0  0
    8.1100    5.4090   15.5570 H   0  0  0  0  0  0  0  0  0  0  0  0
    6.5370    5.2820   14.7570 H   0  0  0  0  0  0  0  0  0  0  0  0
  1  6  2  0  0  0  0
  1  2  1  0  0  0  0
  2  3  2  0  0  0  0
  3 14  1  0  0  0  0
  3  4  1  0  0  0  0
  4 10  1  0  0  0  0
  5  4  2  0  0  0  0
  6  5  1  0  0  0  0
  7  5  1  6  0  0  0
  7 12  1  0  0  0  0
  7  8  1  0  0  0  0
  8 17  1  0  0  0  0
  8  9  1  0  0  0  0
  9 18  1  0  0  0  0
  9 19  1  0  0  0  0
 10  9  1  0  0  0  0
 11  7  1  0  0  0  0
 11 12  1  0  0  0  0
 12 22  1  6  0  0  0
 12 23  1  0  0  0  0
 13  2  1  0  0  0  0
 15  6  1  0  0  0  0
 16  8  1  0  0  0  0
 20 11  1  0  0  0  0
 21 11  1  0  0  0  0
 23 24  2  0  0  0  0
 25 23  1  0  0  0  0
 25 27  1  0  0  0  0
 26 25  1  0  0  0  0
 27 28  1  0  0  0  0
 29 27  1  0  0  0  0
 30 27  1  0  0  0  0
 30 31  1  0  0  0  0
 31 36  1  0  0  0  0
 32 31  2  0  0  0  0
 32 37  1  0  0  0  0
 33 32  1  0  0  0  0
 34 35  1  0  0  0  0
 34 33  2  0  0  0  0
 35 30  2  0  0  0  0
 38 33  1  0  0  0  0
 39 35  1  0  0  0  0
 40 34  1  0  0  0  0
 41 43  1  0  0  0  0
 41 40  1  0  0  0  0
 42 40  2  0  0  0  0
 44 41  1  0  0  0  0
 45 47  1  0  0  0  0
 45  1  1  0  0  0  0
 46 45  1  0  0  0  0
 47 48  1  0  0  0  0
 49 47  1  0  0  0  0
 50 47  1  0  0  0  0
 51 52  1  0  0  0  0
 51 45  1  0  0  0  0
 53 51  1  0  0  0  0
 54 51  1  0  0  0  0
M  END
>  <MODEL>
24

>  <REMARK>
 VINA RESULT:    -6.755      2.447      4.447
 INTER + INTRA:          -9.608
 INTER:                  -8.898
 INTRA:                  -0.710
 UNBOUND:                -0.484
  Name = 
  7 active torsions:
  status: ('A' for Active; 'I' for Inactive)
    1  A    between atoms: C_1  and  C_2
    2  A    between atoms: C_2  and  C_3
    3  A    between atoms: C_2  and  C_4
    4  A    between atoms: C_15  and  C_16
    5  A    between atoms: N_18  and  C_19
    6  A    between atoms: C_19  and  C_20
    7  A    between atoms: C_24  and  C_25
                            x       y       z     vdW  Elec       q    Type
                         _______ _______ _______ _____ _____    ______ ____

>  <TORSDO>
F 7

$$$$
=
 OpenBabel07192307433D

 54 57  0  0  1  0  0  0  0  0999 V2000
   -2.7250   11.4500   17.9730 C   0  0  0  0  0  0  0  0  0  0  0  0
   -3.1930   11.9450   19.1970 C   0  0  0  0  0  0  0  0  0  0  0  0
   -2.3920   11.8770   20.3340 C   0  0  0  0  0  0  0  0  0  0  0  0
   -1.1130   11.3150   20.2620 C   0  0  0  0  0  0  0  0  0  0  0  0
   -0.5870   10.8270   19.0490 C   0  0  0  0  0  0  0  0  0  0  0  0
   -1.4320   10.8970   17.9210 C   0  0  0  0  0  0  0  0  0  0  0  0
    0.8440   10.2800   19.0110 C   0  0  2  0  0  0  0  0  0  0  0  0
    1.6200   10.6460   20.2610 C   0  0  0  0  0  0  0  0  0  0  0  0
    0.7170   10.4270   21.4630 C   0  0  0  0  0  0  0  0  0  0  0  0
   -0.4050   11.3220   21.4430 O   0  0  0  0  0  0  0  0  0  0  0  0
    1.6380   10.2310   17.7190 C   0  0  0  0  0  0  0  0  0  0  0  0
    1.0970    8.9440   18.3070 C   0  0  1  0  0  0  0  0  0  0  0  0
   -4.1810   12.3930   19.2770 H   0  0  0  0  0  0  0  0  0  0  0  0
   -2.7600   12.2660   21.2820 H   0  0  0  0  0  0  0  0  0  0  0  0
   -1.0730   10.5150   16.9700 H   0  0  0  0  0  0  0  0  0  0  0  0
    1.9070   11.7000   20.1980 H   0  0  0  0  0  0  0  0  0  0  0  0
    2.5420   10.0660   20.3670 H   0  0  0  0  0  0  0  0  0  0  0  0
    1.2730   10.6300   22.3840 H   0  0  0  0  0  0  0  0  0  0  0  0
    0.3510    9.3980   21.5240 H   0  0  0  0  0  0  0  0  0  0  0  0
    1.1960   10.6090   16.8060 H   0  0  0  0  0  0  0  0  0  0  0  0
    2.7050   10.4230   17.7760 H   0  0  0  0  0  0  0  0  0  0  0  0
    0.2450    8.4930   17.8060 H   0  0  0  0  0  0  0  0  0  0  0  0
    2.0140    7.9220   18.8690 C   0  0  0  0  0  0  0  0  0  0  0  0
    3.1410    7.7760   18.4210 O   0  0  0  0  0  0  0  0  0  0  0  0
    1.4880    7.2310   19.9270 N   0  0  0  0  0  0  0  0  0  0  0  0
    0.6020    7.5350   20.3040 H   0  0  0  0  0  0  0  0  0  0  0  0
    2.2950    6.3290   20.7120 C   0  0  0  0  0  0  0  0  0  0  0  0
    2.0410    6.4430   21.7670 H   0  0  0  0  0  0  0  0  0  0  0  0
    3.3430    6.6220   20.5930 H   0  0  0  0  0  0  0  0  0  0  0  0
    2.1060    4.9000   20.2700 C   0  0  0  0  0  0  0  0  0  0  0  0
    1.0600    4.1230   20.7820 C   0  0  0  0  0  0  0  0  0  0  0  0
    0.9310    2.7780   20.4140 C   0  0  0  0  0  0  0  0  0  0  0  0
    1.8300    2.2060   19.5170 C   0  0  0  0  0  0  0  0  0  0  0  0
    2.8670    2.9740   18.9770 C   0  0  0  0  0  0  0  0  0  0  0  0
    3.0160    4.3100   19.3720 C   0  0  0  0  0  0  0  0  0  0  0  0
    0.3530    4.5560   21.4900 H   0  0  0  0  0  0  0  0  0  0  0  0
    0.1350    2.1740   20.8330 H   0  0  0  0  0  0  0  0  0  0  0  0
    1.7260    1.1590   19.2350 H   0  0  0  0  0  0  0  0  0  0  0  0
    3.8580    4.8960   19.0190 H   0  0  0  0  0  0  0  0  0  0  0  0
    3.8000    2.3210   18.0050 C   0  0  0  0  0  0  0  0  0  0  0  0
    4.0100    0.9720   18.1280 N   0  0  0  0  0  0  0  0  0  0  0  0
    4.3890    2.9620   17.1430 O   0  0  0  0  0  0  0  0  0  0  0  0
    3.6570    0.4240   18.9020 H   0  0  0  0  0  0  0  0  0  0  0  0
    4.7200    0.5560   17.5360 H   0  0  0  0  0  0  0  0  0  0  0  0
   -3.5680   11.5120   16.7100 C   0  0  0  0  0  0  0  0  0  0  0  0
   -3.3550   12.4580   16.1920 H   0  0  0  0  0  0  0  0  0  0  0  0
   -3.2220   10.3840   15.7350 C   0  0  0  0  0  0  0  0  0  0  0  0
   -3.0400   10.7580   14.7180 H   0  0  0  0  0  0  0  0  0  0  0  0
   -2.3170    9.8550   16.0620 H   0  0  0  0  0  0  0  0  0  0  0  0
   -4.0340    9.6500   15.6800 H   0  0  0  0  0  0  0  0  0  0  0  0
   -5.0650   11.5080   17.0380 C   0  0  0  0  0  0  0  0  0  0  0  0
   -5.2530   11.9440   18.0250 H   0  0  0  0  0  0  0  0  0  0  0  0
   -5.4800   10.4930   17.0380 H   0  0  0  0  0  0  0  0  0  0  0  0
   -5.6230   12.0950   16.2990 H   0  0  0  0  0  0  0  0  0  0  0  0
  1  2  1  0  0  0  0
  2 13  1  0  0  0  0
  2  3  2  0  0  0  0
  3 14  1  0  0  0  0
  4  3  1  0  0  0  0
  4 10  1  0  0  0  0
  5  4  2  0  0  0  0
  6  1  2  0  0  0  0
  6  5  1  0  0  0  0
  7  5  1  6  0  0  0
  7  8  1  0  0  0  0
  8 17  1  0  0  0  0
  8  9  1  0  0  0  0
  9 19  1  0  0  0  0
  9 18  1  0  0  0  0
 10  9  1  0  0  0  0
 11 21  1  0  0  0  0
 11 12  1  0  0  0  0
 11  7  1  0  0  0  0
 12 22  1  6  0  0  0
 12 23  1  0  0  0  0
 12  7  1  0  0  0  0
 15  6  1  0  0  0  0
 16  8  1  0  0  0  0
 20 11  1  0  0  0  0
 23 25  1  0  0  0  0
 24 23  2  0  0  0  0
 25 26  1  0  0  0  0
 25 27  1  0  0  0  0
 27 28  1  0  0  0  0
 29 27  1  0  0  0  0
 30 27  1  0  0  0  0
 30 31  1  0  0  0  0
 31 36  1  0  0  0  0
 32 31  2  0  0  0  0
 32 37  1  0  0  0  0
 33 32  1  0  0  0  0
 34 35  1  0  0  0  0
 34 33  2  0  0  0  0
 35 30  2  0  0  0  0
 38 33  1  0  0  0  0
 39 35  1  0  0  0  0
 40 41  1  0  0  0  0
 40 34  1  0  0  0  0
 41 43  1  0  0  0  0
 42 40  2  0  0  0  0
 44 41  1  0  0  0  0
 45 51  1  0  0  0  0
 45  1  1  0  0  0  0
 46 45  1  0  0  0  0
 47 49  1  0  0  0  0
 47 45  1  0  0  0  0
 48 47  1  0  0  0  0
 50 47  1  0  0  0  0
 51 53  1  0  0  0  0
 51 52  1  0  0  0  0
 54 51  1  0  0  0  0
M  END
>  <MODEL>
25

>  <REMARK>
 VINA RESULT:    -6.754      3.320      9.031
 INTER + INTRA:          -9.607
 INTER:                  -8.949
 INTRA:                  -0.658
 UNBOUND:                -0.484
  Name = 
  7 active torsions:
  status: ('A' for Active; 'I' for Inactive)
    1  A    between atoms: C_1  and  C_2
    2  A    between atoms: C_2  and  C_3
    3  A    between atoms: C_2  and  C_4
    4  A    between atoms: C_15  and  C_16
    5  A    between atoms: N_18  and  C_19
    6  A    between atoms: C_19  and  C_20
    7  A    between atoms: C_24  and  C_25
                            x       y       z     vdW  Elec       q    Type
                         _______ _______ _______ _____ _____    ______ ____

>  <TORSDO>
F 7

$$$$
=
 OpenBabel07192307433D

 54 57  0  0  1  0  0  0  0  0999 V2000
   -3.0730   12.9180   20.0150 C   0  0  0  0  0  0  0  0  0  0  0  0
   -2.5710   14.1410   20.4760 C   0  0  0  0  0  0  0  0  0  0  0  0
   -1.1970   14.3650   20.5150 C   0  0  0  0  0  0  0  0  0  0  0  0
   -0.3090   13.3710   20.0940 C   0  0  0  0  0  0  0  0  0  0  0  0
   -0.7650   12.1330   19.5970 C   0  0  0  0  0  0  0  0  0  0  0  0
   -2.1620   11.9340   19.5860 C   0  0  0  0  0  0  0  0  0  0  0  0
    0.2470   11.1030   19.0860 C   0  0  2  0  0  0  0  0  0  0  0  0
    1.6230   11.7120   18.8940 C   0  0  0  0  0  0  0  0  0  0  0  0
    1.9230   12.5960   20.0930 C   0  0  0  0  0  0  0  0  0  0  0  0
    1.0240   13.7130   20.1570 O   0  0  0  0  0  0  0  0  0  0  0  0
   -0.1520   10.0240   18.0980 C   0  0  0  0  0  0  0  0  0  0  0  0
    0.1030    9.6490   19.5430 C   0  0  1  0  0  0  0  0  0  0  0  0
   -3.2420   14.9320   20.8030 H   0  0  0  0  0  0  0  0  0  0  0  0
   -0.8120   15.3190   20.8730 H   0  0  0  0  0  0  0  0  0  0  0  0
   -2.5560   10.9880   19.2280 H   0  0  0  0  0  0  0  0  0  0  0  0
    1.6140   12.3140   17.9800 H   0  0  0  0  0  0  0  0  0  0  0  0
    2.4040   10.9550   18.7750 H   0  0  0  0  0  0  0  0  0  0  0  0
    2.9360   13.0030   20.0060 H   0  0  0  0  0  0  0  0  0  0  0  0
    1.8740   12.0450   21.0370 H   0  0  0  0  0  0  0  0  0  0  0  0
   -1.1680    9.9900   17.7250 H   0  0  0  0  0  0  0  0  0  0  0  0
    0.5780    9.7340   17.3470 H   0  0  0  0  0  0  0  0  0  0  0  0
   -0.7660    9.4180   20.1520 H   0  0  0  0  0  0  0  0  0  0  0  0
    1.2780    8.8220   19.9170 C   0  0  0  0  0  0  0  0  0  0  0  0
    1.5970    8.6790   21.0870 O   0  0  0  0  0  0  0  0  0  0  0  0
    1.8990    8.2320   18.8480 N   0  0  0  0  0  0  0  0  0  0  0  0
    1.4620    8.3030   17.9410 H   0  0  0  0  0  0  0  0  0  0  0  0
    2.9420    7.2530   19.0330 C   0  0  0  0  0  0  0  0  0  0  0  0
    3.4610    7.4520   19.9720 H   0  0  0  0  0  0  0  0  0  0  0  0
    3.6700    7.3770   18.2240 H   0  0  0  0  0  0  0  0  0  0  0  0
    2.3860    5.8510   19.0160 C   0  0  0  0  0  0  0  0  0  0  0  0
    1.7990    5.3260   17.8590 C   0  0  0  0  0  0  0  0  0  0  0  0
    1.2290    4.0480   17.8710 C   0  0  0  0  0  0  0  0  0  0  0  0
    1.2590    3.2770   19.0310 C   0  0  0  0  0  0  0  0  0  0  0  0
    1.8620    3.7760   20.1900 C   0  0  0  0  0  0  0  0  0  0  0  0
    2.4030    5.0680   20.1860 C   0  0  0  0  0  0  0  0  0  0  0  0
    1.7630    5.9210   16.9460 H   0  0  0  0  0  0  0  0  0  0  0  0
    0.7520    3.6570   16.9800 H   0  0  0  0  0  0  0  0  0  0  0  0
    0.8120    2.2830   19.0360 H   0  0  0  0  0  0  0  0  0  0  0  0
    2.8070    5.4970   21.0980 H   0  0  0  0  0  0  0  0  0  0  0  0
    1.8840    2.9050   21.4080 C   0  0  0  0  0  0  0  0  0  0  0  0
    3.1050    2.5180   21.8950 N   0  0  0  0  0  0  0  0  0  0  0  0
    0.8530    2.5170   21.9430 O   0  0  0  0  0  0  0  0  0  0  0  0
    3.9760    2.6970   21.4130 H   0  0  0  0  0  0  0  0  0  0  0  0
    3.1110    1.8450   22.6530 H   0  0  0  0  0  0  0  0  0  0  0  0
   -4.5660   12.6390   19.9520 C   0  0  0  0  0  0  0  0  0  0  0  0
   -5.0740   13.5330   19.5650 H   0  0  0  0  0  0  0  0  0  0  0  0
   -4.8940   11.4920   18.9910 C   0  0  0  0  0  0  0  0  0  0  0  0
   -4.9030   10.5180   19.4980 H   0  0  0  0  0  0  0  0  0  0  0  0
   -5.8830   11.6410   18.5380 H   0  0  0  0  0  0  0  0  0  0  0  0
   -4.1610   11.4390   18.1790 H   0  0  0  0  0  0  0  0  0  0  0  0
   -5.1410   12.3630   21.3450 C   0  0  0  0  0  0  0  0  0  0  0  0
   -4.3410   12.2400   22.0840 H   0  0  0  0  0  0  0  0  0  0  0  0
   -5.7520   11.4530   21.3610 H   0  0  0  0  0  0  0  0  0  0  0  0
   -5.7750   13.1950   21.6720 H   0  0  0  0  0  0  0  0  0  0  0  0
  1  2  1  0  0  0  0
  2  3  2  0  0  0  0
  2 13  1  0  0  0  0
  3 14  1  0  0  0  0
  4 10  1  0  0  0  0
  4  3  1  0  0  0  0
  5  4  2  0  0  0  0
  6  5  1  0  0  0  0
  6  1  2  0  0  0  0
  7 12  1  0  0  0  0
  7  5  1  1  0  0  0
  8  7  1  0  0  0  0
  8  9  1  0  0  0  0
  9 10  1  0  0  0  0
  9 19  1  0  0  0  0
 11  7  1  0  0  0  0
 11 12  1  0  0  0  0
 12 23  1  0  0  0  0
 12 22  1  1  0  0  0
 15  6  1  0  0  0  0
 16  8  1  0  0  0  0
 17  8  1  0  0  0  0
 18  9  1  0  0  0  0
 20 11  1  0  0  0  0
 21 11  1  0  0  0  0
 23 24  2  0  0  0  0
 25 27  1  0  0  0  0
 25 23  1  0  0  0  0
 26 25  1  0  0  0  0
 27 28  1  0  0  0  0
 29 27  1  0  0  0  0
 30 27  1  0  0  0  0
 30 35  1  0  0  0  0
 31 32  1  0  0  0  0
 31 30  2  0  0  0  0
 32 33  2  0  0  0  0
 33 38  1  0  0  0  0
 33 34  1  0  0  0  0
 34 40  1  0  0  0  0
 35 34  2  0  0  0  0
 35 39  1  0  0  0  0
 36 31  1  0  0  0  0
 37 32  1  0  0  0  0
 40 41  1  0  0  0  0
 40 42  2  0  0  0  0
 41 44  1  0  0  0  0
 43 41  1  0  0  0  0
 45  1  1  0  0  0  0
 45 51  1  0  0  0  0
 46 45  1  0  0  0  0
 47 48  1  0  0  0  0
 47 45  1  0  0  0  0
 49 47  1  0  0  0  0
 50 47  1  0  0  0  0
 51 53  1  0  0  0  0
 51 54  1  0  0  0  0
 51 52  1  0  0  0  0
M  END
>  <MODEL>
26

>  <REMARK>
 VINA RESULT:    -6.685      4.134      9.615
 INTER + INTRA:          -9.515
 INTER:                  -8.789
 INTRA:                  -0.725
 UNBOUND:                -0.484
  Name = 
  7 active torsions:
  status: ('A' for Active; 'I' for Inactive)
    1  A    between atoms: C_1  and  C_2
    2  A    between atoms: C_2  and  C_3
    3  A    between atoms: C_2  and  C_4
    4  A    between atoms: C_15  and  C_16
    5  A    between atoms: N_18  and  C_19
    6  A    between atoms: C_19  and  C_20
    7  A    between atoms: C_24  and  C_25
                            x       y       z     vdW  Elec       q    Type
                         _______ _______ _______ _____ _____    ______ ____

>  <TORSDO>
F 7

$$$$
=
 OpenBabel07192307433D

 54 57  0  0  1  0  0  0  0  0999 V2000
    3.4420    6.4730   18.1410 C   0  0  0  0  0  0  0  0  0  0  0  0
    3.4020    5.7390   19.3330 C   0  0  0  0  0  0  0  0  0  0  0  0
    2.6480    6.1930   20.4120 C   0  0  0  0  0  0  0  0  0  0  0  0
    1.9230    7.3850   20.3130 C   0  0  0  0  0  0  0  0  0  0  0  0
    1.9100    8.1460   19.1260 C   0  0  0  0  0  0  0  0  0  0  0  0
    2.6970    7.6650   18.0600 C   0  0  0  0  0  0  0  0  0  0  0  0
    1.0470    9.4100   19.0480 C   0  0  2  0  0  0  0  0  0  0  0  0
    0.0570    9.4880   20.1940 C   0  0  0  0  0  0  0  0  0  0  0  0
    0.7770    9.0940   21.4730 C   0  0  0  0  0  0  0  0  0  0  0  0
    1.1980    7.7230   21.4340 O   0  0  0  0  0  0  0  0  0  0  0  0
    0.5780    9.9660   17.7180 C   0  0  0  0  0  0  0  0  0  0  0  0
    1.6720   10.6860   18.4780 C   0  0  1  0  0  0  0  0  0  0  0  0
    3.9520    4.8050   19.4320 H   0  0  0  0  0  0  0  0  0  0  0  0
    2.6190    5.6180   21.3360 H   0  0  0  0  0  0  0  0  0  0  0  0
    2.7300    8.2300   17.1320 H   0  0  0  0  0  0  0  0  0  0  0  0
   -0.7610    8.7890   19.9970 H   0  0  0  0  0  0  0  0  0  0  0  0
   -0.3860   10.4830   20.2980 H   0  0  0  0  0  0  0  0  0  0  0  0
    0.0980    9.1980   22.3250 H   0  0  0  0  0  0  0  0  0  0  0  0
    1.6470    9.7290   21.6710 H   0  0  0  0  0  0  0  0  0  0  0  0
    0.8370    9.4510   16.8020 H   0  0  0  0  0  0  0  0  0  0  0  0
   -0.4120   10.4130   17.6790 H   0  0  0  0  0  0  0  0  0  0  0  0
    2.6830   10.5980   18.0900 H   0  0  0  0  0  0  0  0  0  0  0  0
    1.4260   12.0190   19.0830 C   0  0  0  0  0  0  0  0  0  0  0  0
    2.2790   12.5660   19.7650 O   0  0  0  0  0  0  0  0  0  0  0  0
    0.2080   12.5550   18.7590 N   0  0  0  0  0  0  0  0  0  0  0  0
   -0.3560   12.0790   18.0700 H   0  0  0  0  0  0  0  0  0  0  0  0
   -0.1310   13.9140   19.1040 C   0  0  0  0  0  0  0  0  0  0  0  0
   -0.9190   14.2690   18.4380 H   0  0  0  0  0  0  0  0  0  0  0  0
    0.7520   14.5380   18.9290 H   0  0  0  0  0  0  0  0  0  0  0  0
   -0.5620   14.0210   20.5450 C   0  0  0  0  0  0  0  0  0  0  0  0
   -0.3160   15.1860   21.2820 C   0  0  0  0  0  0  0  0  0  0  0  0
   -0.6620   15.2530   22.6370 C   0  0  0  0  0  0  0  0  0  0  0  0
   -1.2740   14.1680   23.2600 C   0  0  0  0  0  0  0  0  0  0  0  0
   -1.5490   13.0050   22.5330 C   0  0  0  0  0  0  0  0  0  0  0  0
   -1.1720   12.9260   21.1860 C   0  0  0  0  0  0  0  0  0  0  0  0
    0.1690   16.0410   20.8090 H   0  0  0  0  0  0  0  0  0  0  0  0
   -0.4450   16.1470   23.2100 H   0  0  0  0  0  0  0  0  0  0  0  0
   -1.5400   14.2240   24.3150 H   0  0  0  0  0  0  0  0  0  0  0  0
   -1.3110   12.0050   20.6290 H   0  0  0  0  0  0  0  0  0  0  0  0
   -2.2220   11.8700   23.2410 C   0  0  0  0  0  0  0  0  0  0  0  0
   -3.4770   12.0870   23.7480 N   0  0  0  0  0  0  0  0  0  0  0  0
   -1.6700   10.7880   23.3970 O   0  0  0  0  0  0  0  0  0  0  0  0
   -3.9180   12.9970   23.7650 H   0  0  0  0  0  0  0  0  0  0  0  0
   -3.8830   11.3510   24.3150 H   0  0  0  0  0  0  0  0  0  0  0  0
    4.2480    6.0060   16.9410 C   0  0  0  0  0  0  0  0  0  0  0  0
    3.7250    6.3160   16.0240 H   0  0  0  0  0  0  0  0  0  0  0  0
    5.6360    6.6500   16.8980 C   0  0  0  0  0  0  0  0  0  0  0  0
    5.8250    7.2840   17.7740 H   0  0  0  0  0  0  0  0  0  0  0  0
    6.4180    5.8790   16.8700 H   0  0  0  0  0  0  0  0  0  0  0  0
    5.7530    7.2730   16.0040 H   0  0  0  0  0  0  0  0  0  0  0  0
    4.3560    4.4780   16.9010 C   0  0  0  0  0  0  0  0  0  0  0  0
    4.1730    4.0450   17.8910 H   0  0  0  0  0  0  0  0  0  0  0  0
    5.3470    4.1470   16.5700 H   0  0  0  0  0  0  0  0  0  0  0  0
    3.6160    4.0570   16.2090 H   0  0  0  0  0  0  0  0  0  0  0  0
  1  2  1  0  0  0  0
  2 13  1  0  0  0  0
  2  3  2  0  0  0  0
  3 14  1  0  0  0  0
  4  3  1  0  0  0  0
  4 10  1  0  0  0  0
  5  4  2  0  0  0  0
  6  1  2  0  0  0  0
  6  5  1  0  0  0  0
  7  5  1  6  0  0  0
  7  8  1  0  0  0  0
  8 17  1  0  0  0  0
  8  9  1  0  0  0  0
  9 19  1  0  0  0  0
  9 18  1  0  0  0  0
 10  9  1  0  0  0  0
 11 12  1  0  0  0  0
 11  7  1  0  0  0  0
 12 22  1  6  0  0  0
 12  7  1  0  0  0  0
 12 23  1  0  0  0  0
 15  6  1  0  0  0  0
 16  8  1  0  0  0  0
 20 11  1  0  0  0  0
 21 11  1  0  0  0  0
 23 24  2  0  0  0  0
 25 23  1  0  0  0  0
 25 27  1  0  0  0  0
 26 25  1  0  0  0  0
 27 30  1  0  0  0  0
 28 27  1  0  0  0  0
 29 27  1  0  0  0  0
 30 35  2  0  0  0  0
 30 31  1  0  0  0  0
 31 32  2  0  0  0  0
 32 37  1  0  0  0  0
 32 33  1  0  0  0  0
 33 38  1  0  0  0  0
 34 40  1  0  0  0  0
 34 33  2  0  0  0  0
 35 34  1  0  0  0  0
 36 31  1  0  0  0  0
 39 35  1  0  0  0  0
 40 42  2  0  0  0  0
 40 41  1  0  0  0  0
 41 43  1  0  0  0  0
 41 44  1  0  0  0  0
 45  1  1  0  0  0  0
 46 45  1  0  0  0  0
 47 45  1  0  0  0  0
 47 48  1  0  0  0  0
 49 47  1  0  0  0  0
 50 47  1  0  0  0  0
 51 45  1  0  0  0  0
 51 52  1  0  0  0  0
 53 51  1  0  0  0  0
 54 51  1  0  0  0  0
M  END
>  <MODEL>
27

>  <REMARK>
 VINA RESULT:    -6.676      3.150      6.179
 INTER + INTRA:          -9.503
 INTER:                  -8.670
 INTRA:                  -0.832
 UNBOUND:                -0.484
  Name = 
  7 active torsions:
  status: ('A' for Active; 'I' for Inactive)
    1  A    between atoms: C_1  and  C_2
    2  A    between atoms: C_2  and  C_3
    3  A    between atoms: C_2  and  C_4
    4  A    between atoms: C_15  and  C_16
    5  A    between atoms: N_18  and  C_19
    6  A    between atoms: C_19  and  C_20
    7  A    between atoms: C_24  and  C_25
                            x       y       z     vdW  Elec       q    Type
                         _______ _______ _______ _____ _____    ______ ____

>  <TORSDO>
F 7

$$$$
=
 OpenBabel07192307433D

 54 57  0  0  1  0  0  0  0  0999 V2000
   -2.3810   13.5640   22.4700 C   0  0  0  0  0  0  0  0  0  0  0  0
   -2.8460   12.7830   23.5360 C   0  0  0  0  0  0  0  0  0  0  0  0
   -2.3430   11.5000   23.7370 C   0  0  0  0  0  0  0  0  0  0  0  0
   -1.3710   10.9810   22.8760 C   0  0  0  0  0  0  0  0  0  0  0  0
   -0.8530   11.7360   21.8050 C   0  0  0  0  0  0  0  0  0  0  0  0
   -1.3950   13.0250   21.6210 C   0  0  0  0  0  0  0  0  0  0  0  0
    0.2580   11.1460   20.9310 C   0  0  2  0  0  0  0  0  0  0  0  0
    0.8770    9.9130   21.5630 C   0  0  0  0  0  0  0  0  0  0  0  0
   -0.2440    9.0490   22.1170 C   0  0  0  0  0  0  0  0  0  0  0  0
   -0.9350    9.7120   23.1850 O   0  0  0  0  0  0  0  0  0  0  0  0
    1.1960   12.0340   20.1360 C   0  0  0  0  0  0  0  0  0  0  0  0
    0.1240   11.2500   19.4100 C   0  0  1  0  0  0  0  0  0  0  0  0
   -3.5960   13.1670   24.2240 H   0  0  0  0  0  0  0  0  0  0  0  0
   -2.7060   10.8980   24.5690 H   0  0  0  0  0  0  0  0  0  0  0  0
   -1.0370   13.6350   20.7970 H   0  0  0  0  0  0  0  0  0  0  0  0
    1.5380   10.2310   22.3740 H   0  0  0  0  0  0  0  0  0  0  0  0
    1.4850    9.3400   20.8560 H   0  0  0  0  0  0  0  0  0  0  0  0
    0.1730    8.1240   22.5280 H   0  0  0  0  0  0  0  0  0  0  0  0
   -0.9680    8.7660   21.3460 H   0  0  0  0  0  0  0  0  0  0  0  0
    1.0960   13.1100   20.2010 H   0  0  0  0  0  0  0  0  0  0  0  0
    2.2310   11.7160   20.0400 H   0  0  0  0  0  0  0  0  0  0  0  0
   -0.7300   11.8100   19.0370 H   0  0  0  0  0  0  0  0  0  0  0  0
    0.4840   10.1250   18.5100 C   0  0  0  0  0  0  0  0  0  0  0  0
   -0.3450    9.6300   17.7620 O   0  0  0  0  0  0  0  0  0  0  0  0
    1.8020    9.7610   18.5830 N   0  0  0  0  0  0  0  0  0  0  0  0
    2.4270   10.3350   19.1290 H   0  0  0  0  0  0  0  0  0  0  0  0
    2.3720    8.8140   17.6560 C   0  0  0  0  0  0  0  0  0  0  0  0
    3.2800    9.2360   17.2230 H   0  0  0  0  0  0  0  0  0  0  0  0
    1.6570    8.6660   16.8400 H   0  0  0  0  0  0  0  0  0  0  0  0
    2.6640    7.4970   18.3310 C   0  0  0  0  0  0  0  0  0  0  0  0
    2.0700    7.1710   19.5560 C   0  0  0  0  0  0  0  0  0  0  0  0
    2.3960    5.9740   20.2050 C   0  0  0  0  0  0  0  0  0  0  0  0
    3.3000    5.0860   19.6270 C   0  0  0  0  0  0  0  0  0  0  0  0
    3.8860    5.3850   18.3930 C   0  0  0  0  0  0  0  0  0  0  0  0
    3.5840    6.5970   17.7600 C   0  0  0  0  0  0  0  0  0  0  0  0
    1.3650    7.8600   20.0220 H   0  0  0  0  0  0  0  0  0  0  0  0
    1.9530    5.7390   21.1660 H   0  0  0  0  0  0  0  0  0  0  0  0
    3.5520    4.1570   20.1380 H   0  0  0  0  0  0  0  0  0  0  0  0
    4.0870    6.8760   16.8390 H   0  0  0  0  0  0  0  0  0  0  0  0
    4.8400    4.3920   17.8030 C   0  0  0  0  0  0  0  0  0  0  0  0
    5.9490    4.0580   18.5360 N   0  0  0  0  0  0  0  0  0  0  0  0
    4.6650    3.9100   16.6910 O   0  0  0  0  0  0  0  0  0  0  0  0
    6.2080    4.5270   19.3940 H   0  0  0  0  0  0  0  0  0  0  0  0
    6.6420    3.4690   18.0880 H   0  0  0  0  0  0  0  0  0  0  0  0
   -2.9000   14.9700   22.2230 C   0  0  0  0  0  0  0  0  0  0  0  0
   -2.1230   15.6890   22.5200 H   0  0  0  0  0  0  0  0  0  0  0  0
   -3.1910   15.2210   20.7410 C   0  0  0  0  0  0  0  0  0  0  0  0
   -3.8620   16.0780   20.5910 H   0  0  0  0  0  0  0  0  0  0  0  0
   -2.2610   15.4260   20.1950 H   0  0  0  0  0  0  0  0  0  0  0  0
   -3.6610   14.3450   20.2800 H   0  0  0  0  0  0  0  0  0  0  0  0
   -4.1370   15.2670   23.0780 C   0  0  0  0  0  0  0  0  0  0  0  0
   -4.6650   14.3430   23.3390 H   0  0  0  0  0  0  0  0  0  0  0  0
   -4.8460   15.9200   22.5570 H   0  0  0  0  0  0  0  0  0  0  0  0
   -3.8500   15.7650   24.0120 H   0  0  0  0  0  0  0  0  0  0  0  0
  1  2  1  0  0  0  0
  2  3  2  0  0  0  0
  2 13  1  0  0  0  0
  3 14  1  0  0  0  0
  4 10  1  0  0  0  0
  4  3  1  0  0  0  0
  5  4  2  0  0  0  0
  6  5  1  0  0  0  0
  6  1  2  0  0  0  0
  7  8  1  0  0  0  0
  7  5  1  1  0  0  0
  8  9  1  0  0  0  0
  8 16  1  0  0  0  0
  9 18  1  0  0  0  0
  9 10  1  0  0  0  0
 11 20  1  0  0  0  0
 11  7  1  0  0  0  0
 12 22  1  6  0  0  0
 12 11  1  0  0  0  0
 12  7  1  0  0  0  0
 15  6  1  0  0  0  0
 17  8  1  0  0  0  0
 19  9  1  0  0  0  0
 21 11  1  0  0  0  0
 23 25  1  0  0  0  0
 23 12  1  0  0  0  0
 24 23  2  0  0  0  0
 25 26  1  0  0  0  0
 27 30  1  0  0  0  0
 27 25  1  0  0  0  0
 28 27  1  0  0  0  0
 29 27  1  0  0  0  0
 30 31  1  0  0  0  0
 31 36  1  0  0  0  0
 31 32  2  0  0  0  0
 32 37  1  0  0  0  0
 33 38  1  0  0  0  0
 33 32  1  0  0  0  0
 34 33  2  0  0  0  0
 35 30  2  0  0  0  0
 35 34  1  0  0  0  0
 39 35  1  0  0  0  0
 40 34  1  0  0  0  0
 40 41  1  0  0  0  0
 41 43  1  0  0  0  0
 42 40  2  0  0  0  0
 44 41  1  0  0  0  0
 45  1  1  0  0  0  0
 45 46  1  0  0  0  0
 45 51  1  0  0  0  0
 47 45  1  0  0  0  0
 48 47  1  0  0  0  0
 49 47  1  0  0  0  0
 50 47  1  0  0  0  0
 51 52  1  0  0  0  0
 51 54  1  0  0  0  0
 53 51  1  0  0  0  0
M  END
>  <MODEL>
28

>  <REMARK>
 VINA RESULT:    -6.674      2.996     10.378
 INTER + INTRA:          -9.499
 INTER:                  -9.063
 INTRA:                  -0.436
 UNBOUND:                -0.484
  Name = 
  7 active torsions:
  status: ('A' for Active; 'I' for Inactive)
    1  A    between atoms: C_1  and  C_2
    2  A    between atoms: C_2  and  C_3
    3  A    between atoms: C_2  and  C_4
    4  A    between atoms: C_15  and  C_16
    5  A    between atoms: N_18  and  C_19
    6  A    between atoms: C_19  and  C_20
    7  A    between atoms: C_24  and  C_25
                            x       y       z     vdW  Elec       q    Type
                         _______ _______ _______ _____ _____    ______ ____

>  <TORSDO>
F 7

$$$$
=
 OpenBabel07192307433D

 54 57  0  0  1  0  0  0  0  0999 V2000
   -3.2940   11.3520   18.1840 C   0  0  0  0  0  0  0  0  0  0  0  0
   -3.7290   12.1880   19.2190 C   0  0  0  0  0  0  0  0  0  0  0  0
   -2.8860   12.4750   20.2910 C   0  0  0  0  0  0  0  0  0  0  0  0
   -1.5990   11.9290   20.3400 C   0  0  0  0  0  0  0  0  0  0  0  0
   -1.1060   11.1030   19.3100 C   0  0  0  0  0  0  0  0  0  0  0  0
   -1.9910   10.8210   18.2490 C   0  0  0  0  0  0  0  0  0  0  0  0
    0.3340   10.5840   19.3810 C   0  0  2  0  0  0  0  0  0  0  0  0
    1.1460   11.3180   20.4310 C   0  0  0  0  0  0  0  0  0  0  0  0
    0.2910   11.4630   21.6780 C   0  0  0  0  0  0  0  0  0  0  0  0
   -0.8500   12.2990   21.4350 O   0  0  0  0  0  0  0  0  0  0  0  0
    1.0820   10.1550   18.1340 C   0  0  0  0  0  0  0  0  0  0  0  0
    0.5900    9.1010   19.1030 C   0  0  1  0  0  0  0  0  0  0  0  0
   -4.7230   12.6300   19.2000 H   0  0  0  0  0  0  0  0  0  0  0  0
   -3.2280   13.1280   21.0920 H   0  0  0  0  0  0  0  0  0  0  0  0
   -1.6580   10.1740   17.4430 H   0  0  0  0  0  0  0  0  0  0  0  0
    1.4080   12.3070   20.0410 H   0  0  0  0  0  0  0  0  0  0  0  0
    2.0830   10.8060   20.6690 H   0  0  0  0  0  0  0  0  0  0  0  0
    0.8750   11.9400   22.4720 H   0  0  0  0  0  0  0  0  0  0  0  0
   -0.0510   10.4970   22.0610 H   0  0  0  0  0  0  0  0  0  0  0  0
    0.6010   10.2350   17.1670 H   0  0  0  0  0  0  0  0  0  0  0  0
    2.1470   10.3650   18.0870 H   0  0  0  0  0  0  0  0  0  0  0  0
   -0.2690    8.5110   18.7950 H   0  0  0  0  0  0  0  0  0  0  0  0
    1.5490    8.3040   19.9090 C   0  0  0  0  0  0  0  0  0  0  0  0
    1.4500    8.2480   21.1250 O   0  0  0  0  0  0  0  0  0  0  0  0
    2.4790    7.6370   19.1580 N   0  0  0  0  0  0  0  0  0  0  0  0
    2.3760    7.6410   18.1540 H   0  0  0  0  0  0  0  0  0  0  0  0
    3.3740    6.6740   19.7530 C   0  0  0  0  0  0  0  0  0  0  0  0
    2.8800    6.1990   20.6020 H   0  0  0  0  0  0  0  0  0  0  0  0
    4.2440    7.2150   20.1400 H   0  0  0  0  0  0  0  0  0  0  0  0
    3.8150    5.6420   18.7460 C   0  0  0  0  0  0  0  0  0  0  0  0
    4.6260    5.9990   17.6620 C   0  0  0  0  0  0  0  0  0  0  0  0
    4.9780    5.0470   16.6970 C   0  0  0  0  0  0  0  0  0  0  0  0
    4.5420    3.7300   16.8190 C   0  0  0  0  0  0  0  0  0  0  0  0
    3.7500    3.3510   17.9080 C   0  0  0  0  0  0  0  0  0  0  0  0
    3.3710    4.3110   18.8540 C   0  0  0  0  0  0  0  0  0  0  0  0
    4.9700    7.0280   17.5510 H   0  0  0  0  0  0  0  0  0  0  0  0
    5.5840    5.3350   15.8460 H   0  0  0  0  0  0  0  0  0  0  0  0
    4.8160    2.9930   16.0640 H   0  0  0  0  0  0  0  0  0  0  0  0
    2.6970    4.0480   19.6640 H   0  0  0  0  0  0  0  0  0  0  0  0
    3.3180    1.9200   18.0040 C   0  0  0  0  0  0  0  0  0  0  0  0
    4.2250    1.0080   18.4770 N   0  0  0  0  0  0  0  0  0  0  0  0
    2.2040    1.5560   17.6460 O   0  0  0  0  0  0  0  0  0  0  0  0
    5.1950    1.2330   18.6570 H   0  0  0  0  0  0  0  0  0  0  0  0
    3.9630    0.0300   18.4410 H   0  0  0  0  0  0  0  0  0  0  0  0
   -4.1820   11.0220   16.9960 C   0  0  0  0  0  0  0  0  0  0  0  0
   -4.7990   10.1480   17.2510 H   0  0  0  0  0  0  0  0  0  0  0  0
   -5.1470   12.1640   16.6670 C   0  0  0  0  0  0  0  0  0  0  0  0
   -4.6210   13.0580   16.3070 H   0  0  0  0  0  0  0  0  0  0  0  0
   -5.8550   11.8580   15.8860 H   0  0  0  0  0  0  0  0  0  0  0  0
   -5.7290   12.4520   17.5490 H   0  0  0  0  0  0  0  0  0  0  0  0
   -3.3510   10.6410   15.7660 C   0  0  0  0  0  0  0  0  0  0  0  0
   -2.2810   10.6230   16.0050 H   0  0  0  0  0  0  0  0  0  0  0  0
   -3.4960   11.3460   14.9400 H   0  0  0  0  0  0  0  0  0  0  0  0
   -3.6300    9.6440   15.4050 H   0  0  0  0  0  0  0  0  0  0  0  0
  1  6  2  0  0  0  0
  1  2  1  0  0  0  0
  2  3  2  0  0  0  0
  3  4  1  0  0  0  0
  3 14  1  0  0  0  0
  4 10  1  0  0  0  0
  5  4  2  0  0  0  0
  6  5  1  0  0  0  0
  7  5  1  6  0  0  0
  7  8  1  0  0  0  0
  8 17  1  0  0  0  0
  8  9  1  0  0  0  0
  9 19  1  0  0  0  0
  9 18  1  0  0  0  0
 10  9  1  0  0  0  0
 11 12  1  0  0  0  0
 11  7  1  0  0  0  0
 12 22  1  6  0  0  0
 12  7  1  0  0  0  0
 12 23  1  0  0  0  0
 13  2  1  0  0  0  0
 15  6  1  0  0  0  0
 16  8  1  0  0  0  0
 20 11  1  0  0  0  0
 21 11  1  0  0  0  0
 23 24  2  0  0  0  0
 25 27  1  0  0  0  0
 25 23  1  0  0  0  0
 26 25  1  0  0  0  0
 27 29  1  0  0  0  0
 27 28  1  0  0  0  0
 30 35  1  0  0  0  0
 30 27  1  0  0  0  0
 31 30  2  0  0  0  0
 32 33  2  0  0  0  0
 32 31  1  0  0  0  0
 33 34  1  0  0  0  0
 34 40  1  0  0  0  0
 34 35  2  0  0  0  0
 35 39  1  0  0  0  0
 36 31  1  0  0  0  0
 37 32  1  0  0  0  0
 38 33  1  0  0  0  0
 40 41  1  0  0  0  0
 41 43  1  0  0  0  0
 42 40  2  0  0  0  0
 44 41  1  0  0  0  0
 45 46  1  0  0  0  0
 45  1  1  0  0  0  0
 47 45  1  0  0  0  0
 47 50  1  0  0  0  0
 48 47  1  0  0  0  0
 49 47  1  0  0  0  0
 51 52  1  0  0  0  0
 51 45  1  0  0  0  0
 53 51  1  0  0  0  0
 54 51  1  0  0  0  0
M  END
>  <MODEL>
29

>  <REMARK>
 VINA RESULT:    -6.621      3.097      9.404
 INTER + INTRA:          -9.428
 INTER:                  -9.091
 INTRA:                  -0.337
 UNBOUND:                -0.484
  Name = 
  7 active torsions:
  status: ('A' for Active; 'I' for Inactive)
    1  A    between atoms: C_1  and  C_2
    2  A    between atoms: C_2  and  C_3
    3  A    between atoms: C_2  and  C_4
    4  A    between atoms: C_15  and  C_16
    5  A    between atoms: N_18  and  C_19
    6  A    between atoms: C_19  and  C_20
    7  A    between atoms: C_24  and  C_25
                            x       y       z     vdW  Elec       q    Type
                         _______ _______ _______ _____ _____    ______ ____

>  <TORSDO>
F 7

$$$$
=
 OpenBabel07192307433D

 54 57  0  0  1  0  0  0  0  0999 V2000
   -3.1300   14.0700   20.7910 C   0  0  0  0  0  0  0  0  0  0  0  0
   -2.3990   15.2630   20.8480 C   0  0  0  0  0  0  0  0  0  0  0  0
   -1.0190   15.2510   20.6640 C   0  0  0  0  0  0  0  0  0  0  0  0
   -0.3520   14.0460   20.4190 C   0  0  0  0  0  0  0  0  0  0  0  0
   -1.0460   12.8220   20.3260 C   0  0  0  0  0  0  0  0  0  0  0  0
   -2.4400   12.8700   20.5340 C   0  0  0  0  0  0  0  0  0  0  0  0
   -0.2760   11.5400   19.9920 C   0  0  2  0  0  0  0  0  0  0  0  0
    1.1210   11.8380   19.4840 C   0  0  0  0  0  0  0  0  0  0  0  0
    1.7250   12.9220   20.3610 C   0  0  0  0  0  0  0  0  0  0  0  0
    1.0080   14.1580   20.2320 O   0  0  0  0  0  0  0  0  0  0  0  0
   -0.9700   10.3380   19.3790 C   0  0  0  0  0  0  0  0  0  0  0  0
   -0.5430   10.2880   20.8320 C   0  0  1  0  0  0  0  0  0  0  0  0
   -2.8960   16.2140   21.0300 H   0  0  0  0  0  0  0  0  0  0  0  0
   -0.4560   16.1810   20.7070 H   0  0  0  0  0  0  0  0  0  0  0  0
   -3.0120   11.9470   20.4890 H   0  0  0  0  0  0  0  0  0  0  0  0
    1.0490   12.1910   18.4510 H   0  0  0  0  0  0  0  0  0  0  0  0
    1.7630   10.9520   19.4780 H   0  0  0  0  0  0  0  0  0  0  0  0
    2.7570   13.1150   20.0500 H   0  0  0  0  0  0  0  0  0  0  0  0
    1.7520   12.6340   21.4160 H   0  0  0  0  0  0  0  0  0  0  0  0
   -2.0270   10.3900   19.1520 H   0  0  0  0  0  0  0  0  0  0  0  0
   -0.4150    9.7520   18.6520 H   0  0  0  0  0  0  0  0  0  0  0  0
   -1.3280   10.3660   21.5790 H   0  0  0  0  0  0  0  0  0  0  0  0
    0.5530    9.3880   21.2700 C   0  0  0  0  0  0  0  0  0  0  0  0
    1.1760    9.6120   22.2970 O   0  0  0  0  0  0  0  0  0  0  0  0
    0.7390    8.3060   20.4510 N   0  0  0  0  0  0  0  0  0  0  0  0
    0.0710    8.1460   19.7110 H   0  0  0  0  0  0  0  0  0  0  0  0
    1.6320    7.2340   20.8150 C   0  0  0  0  0  0  0  0  0  0  0  0
    1.0490    6.3910   21.1890 H   0  0  0  0  0  0  0  0  0  0  0  0
    2.2670    7.5850   21.6350 H   0  0  0  0  0  0  0  0  0  0  0  0
    2.4870    6.8140   19.6450 C   0  0  0  0  0  0  0  0  0  0  0  0
    2.6850    7.6710   18.5560 C   0  0  0  0  0  0  0  0  0  0  0  0
    3.4270    7.2490   17.4480 C   0  0  0  0  0  0  0  0  0  0  0  0
    3.9940    5.9770   17.4260 C   0  0  0  0  0  0  0  0  0  0  0  0
    3.8270    5.1150   18.5150 C   0  0  0  0  0  0  0  0  0  0  0  0
    3.0560    5.5270   19.6100 C   0  0  0  0  0  0  0  0  0  0  0  0
    2.2410    8.6680   18.5570 H   0  0  0  0  0  0  0  0  0  0  0  0
    3.5550    7.9070   16.5960 H   0  0  0  0  0  0  0  0  0  0  0  0
    4.5700    5.6520   16.5590 H   0  0  0  0  0  0  0  0  0  0  0  0
    2.8550    4.8420   20.4280 H   0  0  0  0  0  0  0  0  0  0  0  0
    4.4680    3.7630   18.4530 C   0  0  0  0  0  0  0  0  0  0  0  0
    5.7490    3.6410   18.9250 N   0  0  0  0  0  0  0  0  0  0  0  0
    3.8920    2.7960   17.9700 O   0  0  0  0  0  0  0  0  0  0  0  0
    6.3140    4.4320   19.2070 H   0  0  0  0  0  0  0  0  0  0  0  0
    6.2130    2.7510   18.7850 H   0  0  0  0  0  0  0  0  0  0  0  0
   -4.6370   14.0450   20.9810 C   0  0  0  0  0  0  0  0  0  0  0  0
   -5.1160   14.3250   20.0310 H   0  0  0  0  0  0  0  0  0  0  0  0
   -5.1470   12.6460   21.3380 C   0  0  0  0  0  0  0  0  0  0  0  0
   -5.7280   12.6440   22.2700 H   0  0  0  0  0  0  0  0  0  0  0  0
   -5.7940   12.2570   20.5410 H   0  0  0  0  0  0  0  0  0  0  0  0
   -4.3140   11.9450   21.4620 H   0  0  0  0  0  0  0  0  0  0  0  0
   -5.0850   15.0710   22.0280 C   0  0  0  0  0  0  0  0  0  0  0  0
   -6.1650   15.2440   21.9720 H   0  0  0  0  0  0  0  0  0  0  0  0
   -4.5850   16.0370   21.8930 H   0  0  0  0  0  0  0  0  0  0  0  0
   -4.8540   14.7150   23.0390 H   0  0  0  0  0  0  0  0  0  0  0  0
  1  2  1  0  0  0  0
  1 45  1  0  0  0  0
  2 13  1  0  0  0  0
  3 14  1  0  0  0  0
  3  2  2  0  0  0  0
  4  3  1  0  0  0  0
  5  4  2  0  0  0  0
  5  6  1  0  0  0  0
  6  1  2  0  0  0  0
  7  5  1  1  0  0  0
  7 12  1  0  0  0  0
  8  7  1  0  0  0  0
  8  9  1  0  0  0  0
  9 19  1  0  0  0  0
 10  9  1  0  0  0  0
 10  4  1  0  0  0  0
 11  7  1  0  0  0  0
 11 12  1  0  0  0  0
 12 23  1  0  0  0  0
 12 22  1  1  0  0  0
 15  6  1  0  0  0  0
 16  8  1  0  0  0  0
 17  8  1  0  0  0  0
 18  9  1  0  0  0  0
 20 11  1  0  0  0  0
 21 11  1  0  0  0  0
 23 24  2  0  0  0  0
 25 27  1  0  0  0  0
 25 23  1  0  0  0  0
 26 25  1  0  0  0  0
 27 28  1  0  0  0  0
 27 29  1  0  0  0  0
 30 27  1  0  0  0  0
 31 36  1  0  0  0  0
 31 30  2  0  0  0  0
 32 31  1  0  0  0  0
 33 32  2  0  0  0  0
 33 34  1  0  0  0  0
 34 35  2  0  0  0  0
 35 30  1  0  0  0  0
 35 39  1  0  0  0  0
 37 32  1  0  0  0  0
 38 33  1  0  0  0  0
 40 34  1  0  0  0  0
 40 41  1  0  0  0  0
 41 43  1  0  0  0  0
 42 40  2  0  0  0  0
 44 41  1  0  0  0  0
 45 47  1  0  0  0  0
 45 51  1  0  0  0  0
 46 45  1  0  0  0  0
 47 50  1  0  0  0  0
 47 48  1  0  0  0  0
 49 47  1  0  0  0  0
 51 54  1  0  0  0  0
 52 51  1  0  0  0  0
 53 51  1  0  0  0  0
M  END
>  <MODEL>
30

>  <REMARK>
 VINA RESULT:    -6.594      3.316     10.394
 INTER + INTRA:          -9.391
 INTER:                  -8.592
 INTRA:                  -0.799
 UNBOUND:                -0.484
  Name = 
  7 active torsions:
  status: ('A' for Active; 'I' for Inactive)
    1  A    between atoms: C_1  and  C_2
    2  A    between atoms: C_2  and  C_3
    3  A    between atoms: C_2  and  C_4
    4  A    between atoms: C_15  and  C_16
    5  A    between atoms: N_18  and  C_19
    6  A    between atoms: C_19  and  C_20
    7  A    between atoms: C_24  and  C_25
                            x       y       z     vdW  Elec       q    Type
                         _______ _______ _______ _____ _____    ______ ____

>  <TORSDO>
F 7

$$$$
=
 OpenBabel07192307433D

 54 57  0  0  1  0  0  0  0  0999 V2000
    5.9330    5.2440   17.9310 C   0  0  0  0  0  0  0  0  0  0  0  0
    5.9630    4.0180   18.6090 C   0  0  0  0  0  0  0  0  0  0  0  0
    4.8760    3.6150   19.3800 C   0  0  0  0  0  0  0  0  0  0  0  0
    3.7450    4.4320   19.4830 C   0  0  0  0  0  0  0  0  0  0  0  0
    3.6550    5.6620   18.8000 C   0  0  0  0  0  0  0  0  0  0  0  0
    4.7810    6.0450   18.0420 C   0  0  0  0  0  0  0  0  0  0  0  0
    2.3680    6.4870   18.8950 C   0  0  2  0  0  0  0  0  0  0  0  0
    1.2240    5.6810   19.4780 C   0  0  0  0  0  0  0  0  0  0  0  0
    1.7530    4.8930   20.6650 C   0  0  0  0  0  0  0  0  0  0  0  0
    2.7250    3.9210   20.2550 O   0  0  0  0  0  0  0  0  0  0  0  0
    1.9990    7.5020   17.8300 C   0  0  0  0  0  0  0  0  0  0  0  0
    2.4820    7.9870   19.1810 C   0  0  1  0  0  0  0  0  0  0  0  0
    6.8290    3.3630   18.5380 H   0  0  0  0  0  0  0  0  0  0  0  0
    4.9040    2.6610   19.9020 H   0  0  0  0  0  0  0  0  0  0  0  0
    4.7620    6.9940   17.5130 H   0  0  0  0  0  0  0  0  0  0  0  0
    0.8530    4.9950   18.7100 H   0  0  0  0  0  0  0  0  0  0  0  0
    0.3810    6.3090   19.7830 H   0  0  0  0  0  0  0  0  0  0  0  0
    0.9310    4.3460   21.1400 H   0  0  0  0  0  0  0  0  0  0  0  0
    2.1950    5.5410   21.4280 H   0  0  0  0  0  0  0  0  0  0  0  0
    2.6450    7.6340   16.9710 H   0  0  0  0  0  0  0  0  0  0  0  0
    0.9470    7.6120   17.5810 H   0  0  0  0  0  0  0  0  0  0  0  0
    3.4880    8.3950   19.2280 H   0  0  0  0  0  0  0  0  0  0  0  0
    1.5580    8.6810   20.1130 C   0  0  0  0  0  0  0  0  0  0  0  0
    1.4510    8.3210   21.2750 O   0  0  0  0  0  0  0  0  0  0  0  0
    0.9110    9.7500   19.5530 N   0  0  0  0  0  0  0  0  0  0  0  0
    1.1870   10.0450   18.6270 H   0  0  0  0  0  0  0  0  0  0  0  0
    0.1170   10.6510   20.3520 C   0  0  0  0  0  0  0  0  0  0  0  0
    0.6920   11.5560   20.5550 H   0  0  0  0  0  0  0  0  0  0  0  0
   -0.0810   10.1650   21.3130 H   0  0  0  0  0  0  0  0  0  0  0  0
   -1.1840   10.9870   19.6670 C   0  0  0  0  0  0  0  0  0  0  0  0
   -1.4660   10.5030   18.3840 C   0  0  0  0  0  0  0  0  0  0  0  0
   -2.6470   10.8720   17.7310 C   0  0  0  0  0  0  0  0  0  0  0  0
   -3.5650   11.7090   18.3610 C   0  0  0  0  0  0  0  0  0  0  0  0
   -3.3110   12.1840   19.6520 C   0  0  0  0  0  0  0  0  0  0  0  0
   -2.1130   11.8400   20.2920 C   0  0  0  0  0  0  0  0  0  0  0  0
   -0.7530    9.8520   17.8770 H   0  0  0  0  0  0  0  0  0  0  0  0
   -2.8480   10.5160   16.7280 H   0  0  0  0  0  0  0  0  0  0  0  0
   -4.4830   11.9960   17.8480 H   0  0  0  0  0  0  0  0  0  0  0  0
   -1.8690   12.2600   21.2620 H   0  0  0  0  0  0  0  0  0  0  0  0
   -4.3350   13.0680   20.2950 C   0  0  0  0  0  0  0  0  0  0  0  0
   -5.1460   13.8080   19.4760 N   0  0  0  0  0  0  0  0  0  0  0  0
   -4.4330   13.1630   21.5130 O   0  0  0  0  0  0  0  0  0  0  0  0
   -5.0150   13.8700   18.4740 H   0  0  0  0  0  0  0  0  0  0  0  0
   -5.7630   14.4810   19.9170 H   0  0  0  0  0  0  0  0  0  0  0  0
    7.0970    5.7130   17.0750 C   0  0  0  0  0  0  0  0  0  0  0  0
    7.9940    5.1460   17.3610 H   0  0  0  0  0  0  0  0  0  0  0  0
    6.8590    5.4450   15.5870 C   0  0  0  0  0  0  0  0  0  0  0  0
    7.6840    5.8140   14.9630 H   0  0  0  0  0  0  0  0  0  0  0  0
    6.7560    4.3680   15.4010 H   0  0  0  0  0  0  0  0  0  0  0  0
    5.9390    5.9310   15.2430 H   0  0  0  0  0  0  0  0  0  0  0  0
    7.4070    7.1950   17.3180 C   0  0  0  0  0  0  0  0  0  0  0  0
    8.4440    7.4280   17.0550 H   0  0  0  0  0  0  0  0  0  0  0  0
    7.2580    7.4750   18.3670 H   0  0  0  0  0  0  0  0  0  0  0  0
    6.7540    7.8300   16.7080 H   0  0  0  0  0  0  0  0  0  0  0  0
  1  6  2  0  0  0  0
  1  2  1  0  0  0  0
  2  3  2  0  0  0  0
  3  4  1  0  0  0  0
  3 14  1  0  0  0  0
  4 10  1  0  0  0  0
  5  4  2  0  0  0  0
  6  5  1  0  0  0  0
  7  5  1  6  0  0  0
  7 12  1  0  0  0  0
  7  8  1  0  0  0  0
  8 17  1  0  0  0  0
  8  9  1  0  0  0  0
  9 18  1  0  0  0  0
  9 19  1  0  0  0  0
 10  9  1  0  0  0  0
 11  7  1  0  0  0  0
 11 12  1  0  0  0  0
 12 22  1  1  0  0  0
 12 23  1  0  0  0  0
 13  2  1  0  0  0  0
 15  6  1  0  0  0  0
 16  8  1  0  0  0  0
 20 11  1  0  0  0  0
 21 11  1  0  0  0  0
 23 24  2  0  0  0  0
 25 23  1  0  0  0  0
 25 27  1  0  0  0  0
 26 25  1  0  0  0  0
 27 28  1  0  0  0  0
 27 29  1  0  0  0  0
 30 35  1  0  0  0  0
 30 27  1  0  0  0  0
 31 30  2  0  0  0  0
 32 33  2  0  0  0  0
 32 31  1  0  0  0  0
 33 34  1  0  0  0  0
 34 35  2  0  0  0  0
 34 40  1  0  0  0  0
 35 39  1  0  0  0  0
 36 31  1  0  0  0  0
 37 32  1  0  0  0  0
 38 33  1  0  0  0  0
 40 42  2  0  0  0  0
 41 44  1  0  0  0  0
 41 40  1  0  0  0  0
 43 41  1  0  0  0  0
 45 51  1  0  0  0  0
 45 46  1  0  0  0  0
 45  1  1  0  0  0  0
 47 45  1  0  0  0  0
 48 47  1  0  0  0  0
 49 47  1  0  0  0  0
 50 47  1  0  0  0  0
 51 53  1  0  0  0  0
 52 51  1  0  0  0  0
 54 51  1  0  0  0  0
M  END
>  <MODEL>
31

>  <REMARK>
 VINA RESULT:    -6.474      2.941      4.537
 INTER + INTRA:          -9.228
 INTER:                  -8.744
 INTRA:                  -0.484
 UNBOUND:                -0.484
  Name = 
  7 active torsions:
  status: ('A' for Active; 'I' for Inactive)
    1  A    between atoms: C_1  and  C_2
    2  A    between atoms: C_2  and  C_3
    3  A    between atoms: C_2  and  C_4
    4  A    between atoms: C_15  and  C_16
    5  A    between atoms: N_18  and  C_19
    6  A    between atoms: C_19  and  C_20
    7  A    between atoms: C_24  and  C_25
                            x       y       z     vdW  Elec       q    Type
                         _______ _______ _______ _____ _____    ______ ____

>  <TORSDO>
F 7

$$$$
=
 OpenBabel07192307433D

 54 57  0  0  1  0  0  0  0  0999 V2000
    1.5390   14.3130   19.8170 C   0  0  0  0  0  0  0  0  0  0  0  0
    0.6710   14.7400   18.8030 C   0  0  0  0  0  0  0  0  0  0  0  0
   -0.2550   13.8570   18.2540 C   0  0  0  0  0  0  0  0  0  0  0  0
   -0.3260   12.5370   18.7100 C   0  0  0  0  0  0  0  0  0  0  0  0
    0.5070   12.0660   19.7460 C   0  0  0  0  0  0  0  0  0  0  0  0
    1.4430   12.9820   20.2680 C   0  0  0  0  0  0  0  0  0  0  0  0
    0.3430   10.6300   20.2540 C   0  0  2  0  0  0  0  0  0  0  0  0
   -0.9480   10.0020   19.7640 C   0  0  0  0  0  0  0  0  0  0  0  0
   -1.1180   10.3500   18.2950 C   0  0  0  0  0  0  0  0  0  0  0  0
   -1.2930   11.7620   18.1090 O   0  0  0  0  0  0  0  0  0  0  0  0
    0.8000   10.2250   21.6420 C   0  0  0  0  0  0  0  0  0  0  0  0
    1.5980    9.7730   20.4380 C   0  0  1  0  0  0  0  0  0  0  0  0
    0.7030   15.7630   18.4360 H   0  0  0  0  0  0  0  0  0  0  0  0
   -0.9280   14.1940   17.4680 H   0  0  0  0  0  0  0  0  0  0  0  0
    2.1170   12.6560   21.0550 H   0  0  0  0  0  0  0  0  0  0  0  0
   -1.7790   10.4150   20.3430 H   0  0  0  0  0  0  0  0  0  0  0  0
   -0.9650    8.9170   19.9020 H   0  0  0  0  0  0  0  0  0  0  0  0
   -2.0150    9.8600   17.9020 H   0  0  0  0  0  0  0  0  0  0  0  0
   -0.2710   10.0140   17.6880 H   0  0  0  0  0  0  0  0  0  0  0  0
    1.2320   10.9690   22.3000 H   0  0  0  0  0  0  0  0  0  0  0  0
    0.2020    9.4930   22.1770 H   0  0  0  0  0  0  0  0  0  0  0  0
    2.5500   10.2670   20.2630 H   0  0  0  0  0  0  0  0  0  0  0  0
    1.6370    8.3420   20.0460 C   0  0  0  0  0  0  0  0  0  0  0  0
    1.2420    7.4720   20.8080 O   0  0  0  0  0  0  0  0  0  0  0  0
    2.1000    8.1300   18.7750 N   0  0  0  0  0  0  0  0  0  0  0  0
    2.2610    8.9330   18.1850 H   0  0  0  0  0  0  0  0  0  0  0  0
    2.0380    6.8270   18.1600 C   0  0  0  0  0  0  0  0  0  0  0  0
    1.7560    6.9360   17.1120 H   0  0  0  0  0  0  0  0  0  0  0  0
    1.2460    6.2560   18.6550 H   0  0  0  0  0  0  0  0  0  0  0  0
    3.3530    6.0990   18.2860 C   0  0  0  0  0  0  0  0  0  0  0  0
    3.4690    4.9620   19.0940 C   0  0  0  0  0  0  0  0  0  0  0  0
    4.7080    4.3310   19.2550 C   0  0  0  0  0  0  0  0  0  0  0  0
    5.8340    4.8160   18.5940 C   0  0  0  0  0  0  0  0  0  0  0  0
    5.7320    5.9370   17.7640 C   0  0  0  0  0  0  0  0  0  0  0  0
    4.4990    6.5880   17.6300 C   0  0  0  0  0  0  0  0  0  0  0  0
    2.5970    4.5750   19.6230 H   0  0  0  0  0  0  0  0  0  0  0  0
    4.7980    3.4670   19.9040 H   0  0  0  0  0  0  0  0  0  0  0  0
    6.7970    4.3230   18.7240 H   0  0  0  0  0  0  0  0  0  0  0  0
    4.4200    7.5010   17.0480 H   0  0  0  0  0  0  0  0  0  0  0  0
    6.9660    6.4130   17.0620 C   0  0  0  0  0  0  0  0  0  0  0  0
    7.3290    5.7760   15.9040 N   0  0  0  0  0  0  0  0  0  0  0  0
    7.6570    7.3190   17.5120 O   0  0  0  0  0  0  0  0  0  0  0  0
    6.8720    4.9400   15.5650 H   0  0  0  0  0  0  0  0  0  0  0  0
    8.2190    6.0320   15.4910 H   0  0  0  0  0  0  0  0  0  0  0  0
    2.5580   15.2490   20.4440 C   0  0  0  0  0  0  0  0  0  0  0  0
    2.1550   16.2710   20.4240 H   0  0  0  0  0  0  0  0  0  0  0  0
    2.8220   14.9060   21.9130 C   0  0  0  0  0  0  0  0  0  0  0  0
    1.9260   14.5140   22.4130 H   0  0  0  0  0  0  0  0  0  0  0  0
    3.6090   14.1450   21.9960 H   0  0  0  0  0  0  0  0  0  0  0  0
    3.1540   15.7900   22.4680 H   0  0  0  0  0  0  0  0  0  0  0  0
    3.8660   15.2660   19.6460 C   0  0  0  0  0  0  0  0  0  0  0  0
    4.5710   15.9930   20.0630 H   0  0  0  0  0  0  0  0  0  0  0  0
    3.6990   15.5270   18.5950 H   0  0  0  0  0  0  0  0  0  0  0  0
    4.3460   14.2800   19.6720 H   0  0  0  0  0  0  0  0  0  0  0  0
  1  6  1  0  0  0  0
  1 45  1  0  0  0  0
  2  1  2  0  0  0  0
  3  4  2  0  0  0  0
  3  2  1  0  0  0  0
  4  5  1  0  0  0  0
  5  6  2  0  0  0  0
  6 15  1  0  0  0  0
  7  5  1  6  0  0  0
  7 12  1  0  0  0  0
  7 11  1  0  0  0  0
  8 17  1  0  0  0  0
  8  7  1  0  0  0  0
  8 16  1  0  0  0  0
  9  8  1  0  0  0  0
 10  9  1  0  0  0  0
 10  4  1  0  0  0  0
 11 21  1  0  0  0  0
 11 20  1  0  0  0  0
 12 22  1  6  0  0  0
 12 11  1  0  0  0  0
 13  2  1  0  0  0  0
 14  3  1  0  0  0  0
 18  9  1  0  0  0  0
 19  9  1  0  0  0  0
 23 12  1  0  0  0  0
 23 24  2  0  0  0  0
 25 23  1  0  0  0  0
 26 25  1  0  0  0  0
 27 30  1  0  0  0  0
 27 29  1  0  0  0  0
 27 25  1  0  0  0  0
 28 27  1  0  0  0  0
 30 31  1  0  0  0  0
 31 32  2  0  0  0  0
 31 36  1  0  0  0  0
 32 37  1  0  0  0  0
 33 38  1  0  0  0  0
 33 32  1  0  0  0  0
 34 33  2  0  0  0  0
 35 34  1  0  0  0  0
 35 30  2  0  0  0  0
 39 35  1  0  0  0  0
 40 42  2  0  0  0  0
 40 34  1  0  0  0  0
 41 40  1  0  0  0  0
 43 41  1  0  0  0  0
 44 41  1  0  0  0  0
 45 47  1  0  0  0  0
 46 45  1  0  0  0  0
 47 49  1  0  0  0  0
 47 48  1  0  0  0  0
 47 50  1  0  0  0  0
 51 54  1  0  0  0  0
 51 52  1  0  0  0  0
 51 45  1  0  0  0  0
 53 51  1  0  0  0  0
M  END
>  <MODEL>
32

>  <REMARK>
 VINA RESULT:    -6.446      3.081      9.394
 INTER + INTRA:          -9.192
 INTER:                  -8.455
 INTRA:                  -0.737
 UNBOUND:                -0.484
  Name = 
  7 active torsions:
  status: ('A' for Active; 'I' for Inactive)
    1  A    between atoms: C_1  and  C_2
    2  A    between atoms: C_2  and  C_3
    3  A    between atoms: C_2  and  C_4
    4  A    between atoms: C_15  and  C_16
    5  A    between atoms: N_18  and  C_19
    6  A    between atoms: C_19  and  C_20
    7  A    between atoms: C_24  and  C_25
                            x       y       z     vdW  Elec       q    Type
                         _______ _______ _______ _____ _____    ______ ____

>  <TORSDO>
F 7

$$$$
=
 OpenBabel07192307433D

 54 57  0  0  1  0  0  0  0  0999 V2000
    1.5970   14.2910   19.8600 C   0  0  0  0  0  0  0  0  0  0  0  0
    0.7150   14.7520   18.8740 C   0  0  0  0  0  0  0  0  0  0  0  0
   -0.2330   13.8930   18.3230 C   0  0  0  0  0  0  0  0  0  0  0  0
   -0.3120   12.5640   18.7500 C   0  0  0  0  0  0  0  0  0  0  0  0
    0.5360   12.0580   19.7570 C   0  0  0  0  0  0  0  0  0  0  0  0
    1.4940   12.9510   20.2810 C   0  0  0  0  0  0  0  0  0  0  0  0
    0.3650   10.6130   20.2350 C   0  0  2  0  0  0  0  0  0  0  0  0
   -0.9430   10.0130   19.7560 C   0  0  0  0  0  0  0  0  0  0  0  0
   -1.1380   10.3970   18.2990 C   0  0  0  0  0  0  0  0  0  0  0  0
   -1.3000   11.8150   18.1510 O   0  0  0  0  0  0  0  0  0  0  0  0
    0.8450   10.1700   21.6040 C   0  0  0  0  0  0  0  0  0  0  0  0
    1.6130    9.7370   20.3730 C   0  0  1  0  0  0  0  0  0  0  0  0
    0.7520   15.7830   18.5310 H   0  0  0  0  0  0  0  0  0  0  0  0
   -0.9180   14.2570   17.5590 H   0  0  0  0  0  0  0  0  0  0  0  0
    2.1800   12.5990   21.0470 H   0  0  0  0  0  0  0  0  0  0  0  0
   -1.7570   10.4210   20.3620 H   0  0  0  0  0  0  0  0  0  0  0  0
   -0.9710    8.9250   19.8700 H   0  0  0  0  0  0  0  0  0  0  0  0
   -2.0490    9.9270   17.9130 H   0  0  0  0  0  0  0  0  0  0  0  0
   -0.3080   10.0650   17.6680 H   0  0  0  0  0  0  0  0  0  0  0  0
    1.2990   10.8920   22.2700 H   0  0  0  0  0  0  0  0  0  0  0  0
    0.2480    9.4330   22.1330 H   0  0  0  0  0  0  0  0  0  0  0  0
    2.5680   10.2240   20.1900 H   0  0  0  0  0  0  0  0  0  0  0  0
    1.6260    8.3150   19.9470 C   0  0  0  0  0  0  0  0  0  0  0  0
    1.2430    7.4310   20.6990 O   0  0  0  0  0  0  0  0  0  0  0  0
    2.0520    8.1290   18.6590 N   0  0  0  0  0  0  0  0  0  0  0  0
    2.2050    8.9440   18.0830 H   0  0  0  0  0  0  0  0  0  0  0  0
    1.9590    6.8410   18.0160 C   0  0  0  0  0  0  0  0  0  0  0  0
    1.8440    6.9830   16.9400 H   0  0  0  0  0  0  0  0  0  0  0  0
    1.0540    6.3450   18.3800 H   0  0  0  0  0  0  0  0  0  0  0  0
    3.1700    5.9920   18.3150 C   0  0  0  0  0  0  0  0  0  0  0  0
    4.4310    6.3410   17.8180 C   0  0  0  0  0  0  0  0  0  0  0  0
    5.5360    5.5130   18.0470 C   0  0  0  0  0  0  0  0  0  0  0  0
    5.3950    4.3440   18.7910 C   0  0  0  0  0  0  0  0  0  0  0  0
    4.1470    3.9920   19.3150 C   0  0  0  0  0  0  0  0  0  0  0  0
    3.0350    4.8040   19.0570 C   0  0  0  0  0  0  0  0  0  0  0  0
    4.5550    7.2510   17.2280 H   0  0  0  0  0  0  0  0  0  0  0  0
    6.5050    5.7750   17.6370 H   0  0  0  0  0  0  0  0  0  0  0  0
    6.2580    3.7020   18.9650 H   0  0  0  0  0  0  0  0  0  0  0  0
    2.0470    4.5050   19.3930 H   0  0  0  0  0  0  0  0  0  0  0  0
    4.0480    2.7340   20.1210 C   0  0  0  0  0  0  0  0  0  0  0  0
    5.0020    1.7700   19.9240 N   0  0  0  0  0  0  0  0  0  0  0  0
    3.1310    2.5440   20.9110 O   0  0  0  0  0  0  0  0  0  0  0  0
    5.6960    1.8200   19.1890 H   0  0  0  0  0  0  0  0  0  0  0  0
    4.8690    0.8820   20.3930 H   0  0  0  0  0  0  0  0  0  0  0  0
    2.6400   15.1990   20.4880 C   0  0  0  0  0  0  0  0  0  0  0  0
    2.2750   16.2360   20.4440 H   0  0  0  0  0  0  0  0  0  0  0  0
    2.8680   14.8730   21.9670 C   0  0  0  0  0  0  0  0  0  0  0  0
    3.2200   13.8430   22.1130 H   0  0  0  0  0  0  0  0  0  0  0  0
    3.6190   15.5470   22.3990 H   0  0  0  0  0  0  0  0  0  0  0  0
    1.9430   14.9940   22.5420 H   0  0  0  0  0  0  0  0  0  0  0  0
    3.9610   15.1540   19.7120 C   0  0  0  0  0  0  0  0  0  0  0  0
    3.7890   15.2800   18.6370 H   0  0  0  0  0  0  0  0  0  0  0  0
    4.4870   14.2040   19.8570 H   0  0  0  0  0  0  0  0  0  0  0  0
    4.6290   15.9580   20.0410 H   0  0  0  0  0  0  0  0  0  0  0  0
  1  6  1  0  0  0  0
  1 45  1  0  0  0  0
  2  1  2  0  0  0  0
  3  4  2  0  0  0  0
  3  2  1  0  0  0  0
  4  5  1  0  0  0  0
  5  6  2  0  0  0  0
  6 15  1  0  0  0  0
  7  5  1  6  0  0  0
  7 12  1  0  0  0  0
  7 11  1  0  0  0  0
  8 17  1  0  0  0  0
  8  7  1  0  0  0  0
  8 16  1  0  0  0  0
  9  8  1  0  0  0  0
 10  9  1  0  0  0  0
 10  4  1  0  0  0  0
 11 21  1  0  0  0  0
 11 20  1  0  0  0  0
 12 22  1  6  0  0  0
 12 11  1  0  0  0  0
 13  2  1  0  0  0  0
 14  3  1  0  0  0  0
 18  9  1  0  0  0  0
 19  9  1  0  0  0  0
 23 12  1  0  0  0  0
 23 24  2  0  0  0  0
 25 23  1  0  0  0  0
 26 25  1  0  0  0  0
 27 30  1  0  0  0  0
 27 29  1  0  0  0  0
 27 25  1  0  0  0  0
 28 27  1  0  0  0  0
 30 35  1  0  0  0  0
 31 32  1  0  0  0  0
 31 30  2  0  0  0  0
 32 33  2  0  0  0  0
 33 38  1  0  0  0  0
 33 34  1  0  0  0  0
 34 40  1  0  0  0  0
 35 34  2  0  0  0  0
 35 39  1  0  0  0  0
 36 31  1  0  0  0  0
 37 32  1  0  0  0  0
 40 42  2  0  0  0  0
 41 40  1  0  0  0  0
 41 44  1  0  0  0  0
 43 41  1  0  0  0  0
 45 47  1  0  0  0  0
 46 45  1  0  0  0  0
 47 48  1  0  0  0  0
 47 49  1  0  0  0  0
 47 50  1  0  0  0  0
 51 53  1  0  0  0  0
 51 54  1  0  0  0  0
 51 45  1  0  0  0  0
 52 51  1  0  0  0  0
M  END
>  <MODEL>
33

>  <REMARK>
 VINA RESULT:    -6.383      3.170      9.266
 INTER + INTRA:          -9.107
 INTER:                  -8.381
 INTRA:                  -0.725
 UNBOUND:                -0.484
  Name = 
  7 active torsions:
  status: ('A' for Active; 'I' for Inactive)
    1  A    between atoms: C_1  and  C_2
    2  A    between atoms: C_2  and  C_3
    3  A    between atoms: C_2  and  C_4
    4  A    between atoms: C_15  and  C_16
    5  A    between atoms: N_18  and  C_19
    6  A    between atoms: C_19  and  C_20
    7  A    between atoms: C_24  and  C_25
                            x       y       z     vdW  Elec       q    Type
                         _______ _______ _______ _____ _____    ______ ____

>  <TORSDO>
F 7

$$$$
