=
 OpenBabel07192307433D

 50 52  0  0  1  0  0  0  0  0999 V2000
    2.3420    6.7750   18.5430 C   0  0  0  0  0  0  0  0  0  0  0  0
    2.2170    7.1710   20.0220 C   0  0  0  0  0  0  0  0  0  0  0  0
    1.2320    8.3220   20.2050 C   0  0  0  0  0  0  0  0  0  0  0  0
    1.6330    9.4680   19.3630 N   0  0  0  0  0  0  0  0  0  0  0  0
    1.7540    9.1500   17.9330 C   0  0  0  0  0  0  0  0  0  0  0  0
    2.7490    8.0100   17.7300 C   0  0  0  0  0  0  0  0  0  0  0  0
    1.3580    6.4110   18.2260 H   0  0  0  0  0  0  0  0  0  0  0  0
    1.8900    6.3090   20.6150 H   0  0  0  0  0  0  0  0  0  0  0  0
    3.1980    7.4720   20.4170 H   0  0  0  0  0  0  0  0  0  0  0  0
    0.2190    7.9970   19.9300 H   0  0  0  0  0  0  0  0  0  0  0  0
    1.2130    8.5760   21.2700 H   0  0  0  0  0  0  0  0  0  0  0  0
    0.7780    8.8670   17.5180 H   0  0  0  0  0  0  0  0  0  0  0  0
    2.1240   10.0210   17.3770 H   0  0  0  0  0  0  0  0  0  0  0  0
    2.8190    7.7800   16.6630 H   0  0  0  0  0  0  0  0  0  0  0  0
    3.7510    8.3370   18.0380 H   0  0  0  0  0  0  0  0  0  0  0  0
    1.2750    2.9050   18.8900 C   0  0  2  0  0  0  0  0  0  0  0  0
    2.3180    1.7780   18.7830 C   0  0  0  0  0  0  0  0  0  0  0  0
    3.7550    2.3040   18.7240 C   0  0  0  0  0  0  0  0  0  0  0  0
    3.8990    3.3720   17.6430 C   0  0  0  0  0  0  0  0  0  0  0  0
    2.9200    4.4380   17.8470 N   0  0  0  0  0  0  0  0  0  0  0  0
    3.3640    5.6530   18.3600 C   0  0  0  0  0  0  0  0  0  0  0  0
    4.5510    5.8420   18.6340 O   0  0  0  0  0  0  0  0  0  0  0  0
    1.5290    3.9810   17.8190 C   0  0  0  0  0  0  0  0  0  0  0  0
    0.2850    2.4700   18.7040 H   0  0  0  0  0  0  0  0  0  0  0  0
    2.1200    1.2030   17.8680 H   0  0  0  0  0  0  0  0  0  0  0  0
    2.2130    1.0760   19.6190 H   0  0  0  0  0  0  0  0  0  0  0  0
    4.0330    2.7230   19.6980 H   0  0  0  0  0  0  0  0  0  0  0  0
    4.4440    1.4760   18.5230 H   0  0  0  0  0  0  0  0  0  0  0  0
    4.9210    3.7620   17.6360 H   0  0  0  0  0  0  0  0  0  0  0  0
    3.7130    2.9390   16.6530 H   0  0  0  0  0  0  0  0  0  0  0  0
    1.3540    3.5570   16.8220 H   0  0  0  0  0  0  0  0  0  0  0  0
    0.8210    4.8010   17.9400 H   0  0  0  0  0  0  0  0  0  0  0  0
    1.2420    3.5070   20.2970 C   0  0  0  0  0  0  0  0  0  0  0  0
    1.9440    2.9850   20.9550 H   0  0  0  0  0  0  0  0  0  0  0  0
    0.2480    3.4440   20.7520 H   0  0  0  0  0  0  0  0  0  0  0  0
    1.5330    4.5620   20.2720 H   0  0  0  0  0  0  0  0  0  0  0  0
    1.0060   10.6770   19.7190 C   0  0  0  0  0  0  0  0  0  0  0  0
    0.9280   11.7180   18.7850 C   0  0  0  0  0  0  0  0  0  0  0  0
    0.3140   12.9130   19.1280 C   0  0  0  0  0  0  0  0  0  0  0  0
   -0.2400   13.1490   20.3300 N   0  0  0  0  0  0  0  0  0  0  0  0
   -0.1830   12.1350   21.2240 C   0  0  0  0  0  0  0  0  0  0  0  0
    0.4180   10.9030   20.9650 C   0  0  0  0  0  0  0  0  0  0  0  0
    1.3230   11.5970   17.7810 H   0  0  0  0  0  0  0  0  0  0  0  0
    0.2450   13.7300   18.4170 H   0  0  0  0  0  0  0  0  0  0  0  0
    0.4510   10.1590   21.7510 H   0  0  0  0  0  0  0  0  0  0  0  0
   -0.8180   12.3930   22.5560 C   0  0  0  0  0  0  0  0  0  0  0  0
   -1.1200   11.2890   23.3190 N   0  0  0  0  0  0  0  0  0  0  0  0
   -1.0880   13.5160   22.9630 O   0  0  0  0  0  0  0  0  0  0  0  0
   -1.7040   11.4860   24.1240 H   0  0  0  0  0  0  0  0  0  0  0  0
   -1.2440   10.3870   22.8800 H   0  0  0  0  0  0  0  0  0  0  0  0
  1  2  1  0  0  0  0
  2  3  1  0  0  0  0
  2  9  1  0  0  0  0
  2  8  1  0  0  0  0
  3 11  1  0  0  0  0
  4 37  1  0  0  0  0
  4  3  1  0  0  0  0
  5  4  1  0  0  0  0
  6  5  1  0  0  0  0
  6 15  1  0  0  0  0
  6  1  1  0  0  0  0
  7  1  1  0  0  0  0
 10  3  1  0  0  0  0
 12  5  1  0  0  0  0
 13  5  1  0  0  0  0
 14  6  1  0  0  0  0
 16 24  1  6  0  0  0
 16 33  1  0  0  0  0
 17 16  1  0  0  0  0
 17 26  1  0  0  0  0
 18 17  1  0  0  0  0
 18 27  1  0  0  0  0
 19 20  1  0  0  0  0
 19 18  1  0  0  0  0
 20 21  1  0  0  0  0
 21  1  1  0  0  0  0
 21 22  2  0  0  0  0
 23 20  1  0  0  0  0
 23 32  1  0  0  0  0
 23 16  1  0  0  0  0
 25 17  1  0  0  0  0
 28 18  1  0  0  0  0
 29 19  1  0  0  0  0
 30 19  1  0  0  0  0
 31 23  1  0  0  0  0
 33 35  1  0  0  0  0
 33 34  1  0  0  0  0
 36 33  1  0  0  0  0
 37 42  1  0  0  0  0
 38 39  1  0  0  0  0
 38 37  2  0  0  0  0
 39 40  2  0  0  0  0
 40 41  1  0  0  0  0
 41 46  1  0  0  0  0
 42 41  2  0  0  0  0
 42 45  1  0  0  0  0
 43 38  1  0  0  0  0
 44 39  1  0  0  0  0
 46 48  2  0  0  0  0
 46 47  1  0  0  0  0
 47 49  1  0  0  0  0
 50 47  1  0  0  0  0
M  END
>  <MODEL>
1

>  <REMARK>
 VINA RESULT:    -7.553      0.000      0.000
 INTER + INTRA:          -9.717
 INTER:                  -9.019
 INTRA:                  -0.698
 UNBOUND:                -0.618
  Name = 
  4 active torsions:
  status: ('A' for Active; 'I' for Inactive)
    1  A    between atoms: C_1  and  C_2
    2  A    between atoms: C_7  and  C_9
    3  A    between atoms: N_12  and  C_13
    4  A    between atoms: C_17  and  C_18
                            x       y       z     vdW  Elec       q    Type
                         _______ _______ _______ _____ _____    ______ ____

>  <TORSDO>
F 4

$$$$
=
 OpenBabel07192307433D

 50 52  0  0  1  0  0  0  0  0999 V2000
    2.2630    6.8580   18.5250 C   0  0  0  0  0  0  0  0  0  0  0  0
    2.1720    7.2190   20.0150 C   0  0  0  0  0  0  0  0  0  0  0  0
    1.1810    8.3570   20.2480 C   0  0  0  0  0  0  0  0  0  0  0  0
    1.5510    9.5250   19.4230 N   0  0  0  0  0  0  0  0  0  0  0  0
    1.6400    9.2420   17.9840 C   0  0  0  0  0  0  0  0  0  0  0  0
    2.6400    8.1150   17.7310 C   0  0  0  0  0  0  0  0  0  0  0  0
    1.2750    6.4930   18.2240 H   0  0  0  0  0  0  0  0  0  0  0  0
    1.8660    6.3410   20.5950 H   0  0  0  0  0  0  0  0  0  0  0  0
    3.1580    7.5200   20.3930 H   0  0  0  0  0  0  0  0  0  0  0  0
    0.1650    8.0290   19.9900 H   0  0  0  0  0  0  0  0  0  0  0  0
    1.1860    8.5860   21.3190 H   0  0  0  0  0  0  0  0  0  0  0  0
    0.6570    8.9580   17.5860 H   0  0  0  0  0  0  0  0  0  0  0  0
    1.9890   10.1280   17.4390 H   0  0  0  0  0  0  0  0  0  0  0  0
    2.6860    7.9100   16.6570 H   0  0  0  0  0  0  0  0  0  0  0  0
    3.6460    8.4450   18.0220 H   0  0  0  0  0  0  0  0  0  0  0  0
    1.2500    2.9730   18.8530 C   0  0  2  0  0  0  0  0  0  0  0  0
    2.3000    1.8580   18.6940 C   0  0  0  0  0  0  0  0  0  0  0  0
    3.7290    2.4010   18.5950 C   0  0  0  0  0  0  0  0  0  0  0  0
    3.8250    3.4860   17.5250 C   0  0  0  0  0  0  0  0  0  0  0  0
    2.8420    4.5380   17.7770 N   0  0  0  0  0  0  0  0  0  0  0  0
    3.2910    5.7510   18.2920 C   0  0  0  0  0  0  0  0  0  0  0  0
    4.4840    5.9480   18.5270 O   0  0  0  0  0  0  0  0  0  0  0  0
    1.4560    4.0650   17.7890 C   0  0  0  0  0  0  0  0  0  0  0  0
    0.2590    2.5290   18.6950 H   0  0  0  0  0  0  0  0  0  0  0  0
    2.0770    1.2950   17.7790 H   0  0  0  0  0  0  0  0  0  0  0  0
    2.2320    1.1440   19.5240 H   0  0  0  0  0  0  0  0  0  0  0  0
    4.0360    2.8100   19.5650 H   0  0  0  0  0  0  0  0  0  0  0  0
    4.4190    1.5840   18.3580 H   0  0  0  0  0  0  0  0  0  0  0  0
    4.8420    3.8870   17.4880 H   0  0  0  0  0  0  0  0  0  0  0  0
    3.6090    3.0640   16.5350 H   0  0  0  0  0  0  0  0  0  0  0  0
    1.2510    3.6540   16.7930 H   0  0  0  0  0  0  0  0  0  0  0  0
    0.7430    4.8760   17.9460 H   0  0  0  0  0  0  0  0  0  0  0  0
    1.2580    3.5550   20.2690 C   0  0  0  0  0  0  0  0  0  0  0  0
    2.2660    3.8830   20.5430 H   0  0  0  0  0  0  0  0  0  0  0  0
    0.9280    2.8280   21.0190 H   0  0  0  0  0  0  0  0  0  0  0  0
    0.5980    4.4250   20.3310 H   0  0  0  0  0  0  0  0  0  0  0  0
    0.9230   10.7190   19.8230 C   0  0  0  0  0  0  0  0  0  0  0  0
    0.1090   10.7270   20.9630 C   0  0  0  0  0  0  0  0  0  0  0  0
   -0.5140   11.8990   21.3630 C   0  0  0  0  0  0  0  0  0  0  0  0
   -0.3810   13.0720   20.7200 N   0  0  0  0  0  0  0  0  0  0  0  0
    0.4230   13.0690   19.6310 C   0  0  0  0  0  0  0  0  0  0  0  0
    1.0850   11.9360   19.1570 C   0  0  0  0  0  0  0  0  0  0  0  0
   -0.0250    9.8290   21.5570 H   0  0  0  0  0  0  0  0  0  0  0  0
   -1.1490   11.9220   22.2440 H   0  0  0  0  0  0  0  0  0  0  0  0
    1.6800   12.0150   18.2560 H   0  0  0  0  0  0  0  0  0  0  0  0
    0.5850   14.3810   18.9270 C   0  0  0  0  0  0  0  0  0  0  0  0
   -0.5620   15.1060   18.7020 N   0  0  0  0  0  0  0  0  0  0  0  0
    1.6670   14.8040   18.5390 O   0  0  0  0  0  0  0  0  0  0  0  0
   -0.4410   15.8920   18.0740 H   0  0  0  0  0  0  0  0  0  0  0  0
   -1.4600   14.6410   18.6800 H   0  0  0  0  0  0  0  0  0  0  0  0
  1  2  1  0  0  0  0
  2  3  1  0  0  0  0
  2  9  1  0  0  0  0
  2  8  1  0  0  0  0
  3 11  1  0  0  0  0
  4 37  1  0  0  0  0
  4  3  1  0  0  0  0
  5  4  1  0  0  0  0
  6  5  1  0  0  0  0
  6 15  1  0  0  0  0
  6  1  1  0  0  0  0
  7  1  1  0  0  0  0
 10  3  1  0  0  0  0
 12  5  1  0  0  0  0
 13  5  1  0  0  0  0
 14  6  1  0  0  0  0
 16 24  1  6  0  0  0
 16 33  1  0  0  0  0
 17 16  1  0  0  0  0
 17 26  1  0  0  0  0
 18 17  1  0  0  0  0
 18 27  1  0  0  0  0
 19 20  1  0  0  0  0
 19 18  1  0  0  0  0
 20 23  1  0  0  0  0
 20 21  1  0  0  0  0
 21  1  1  0  0  0  0
 21 22  2  0  0  0  0
 23 32  1  0  0  0  0
 23 16  1  0  0  0  0
 25 17  1  0  0  0  0
 28 18  1  0  0  0  0
 29 19  1  0  0  0  0
 30 19  1  0  0  0  0
 31 23  1  0  0  0  0
 33 36  1  0  0  0  0
 33 34  1  0  0  0  0
 33 35  1  0  0  0  0
 37 38  1  0  0  0  0
 38 39  2  0  0  0  0
 38 43  1  0  0  0  0
 39 44  1  0  0  0  0
 40 39  1  0  0  0  0
 41 40  2  0  0  0  0
 42 41  1  0  0  0  0
 42 37  2  0  0  0  0
 45 42  1  0  0  0  0
 46 41  1  0  0  0  0
 47 46  1  0  0  0  0
 48 46  2  0  0  0  0
 49 47  1  0  0  0  0
 50 47  1  0  0  0  0
M  END
>  <MODEL>
2

>  <REMARK>
 VINA RESULT:    -7.490      1.328      2.104
 INTER + INTRA:          -9.640
 INTER:                  -8.948
 INTRA:                  -0.693
 UNBOUND:                -0.618
  Name = 
  4 active torsions:
  status: ('A' for Active; 'I' for Inactive)
    1  A    between atoms: C_1  and  C_2
    2  A    between atoms: C_7  and  C_9
    3  A    between atoms: N_12  and  C_13
    4  A    between atoms: C_17  and  C_18
                            x       y       z     vdW  Elec       q    Type
                         _______ _______ _______ _____ _____    ______ ____

>  <TORSDO>
F 4

$$$$
=
 OpenBabel07192307433D

 50 52  0  0  1  0  0  0  0  0999 V2000
    2.2920    6.8090   18.7220 C   0  0  0  0  0  0  0  0  0  0  0  0
    2.0480    7.4130   20.1130 C   0  0  0  0  0  0  0  0  0  0  0  0
    1.0230    8.5420   20.0540 C   0  0  0  0  0  0  0  0  0  0  0  0
    1.4550    9.5650   19.0810 N   0  0  0  0  0  0  0  0  0  0  0  0
    1.6900    9.0460   17.7260 C   0  0  0  0  0  0  0  0  0  0  0  0
    2.7270    7.9250   17.7650 C   0  0  0  0  0  0  0  0  0  0  0  0
    1.3440    6.3670   18.3960 H   0  0  0  0  0  0  0  0  0  0  0  0
    1.7010    6.6360   20.8040 H   0  0  0  0  0  0  0  0  0  0  0  0
    2.9890    7.8030   20.5260 H   0  0  0  0  0  0  0  0  0  0  0  0
    0.0420    8.1430   19.7610 H   0  0  0  0  0  0  0  0  0  0  0  0
    0.9190    8.9480   21.0660 H   0  0  0  0  0  0  0  0  0  0  0  0
    0.7560    8.6690   17.2910 H   0  0  0  0  0  0  0  0  0  0  0  0
    2.0780    9.8380   17.0740 H   0  0  0  0  0  0  0  0  0  0  0  0
    2.8810    7.5440   16.7510 H   0  0  0  0  0  0  0  0  0  0  0  0
    3.6940    8.3300   18.0900 H   0  0  0  0  0  0  0  0  0  0  0  0
    1.2600    2.9160   18.8280 C   0  0  2  0  0  0  0  0  0  0  0  0
    2.3240    1.8120   18.9640 C   0  0  0  0  0  0  0  0  0  0  0  0
    3.7250    2.3700   19.2320 C   0  0  0  0  0  0  0  0  0  0  0  0
    4.0880    3.4430   18.2090 C   0  0  0  0  0  0  0  0  0  0  0  0
    3.0650    4.4870   18.1820 N   0  0  0  0  0  0  0  0  0  0  0  0
    3.3540    5.7110   18.7800 C   0  0  0  0  0  0  0  0  0  0  0  0
    4.4430    5.9240   19.3150 O   0  0  0  0  0  0  0  0  0  0  0  0
    1.7270    3.9990   17.8400 C   0  0  0  0  0  0  0  0  0  0  0  0
    0.3480    2.4590   18.4230 H   0  0  0  0  0  0  0  0  0  0  0  0
    2.3520    1.2350   18.0300 H   0  0  0  0  0  0  0  0  0  0  0  0
    2.0480    1.1060   19.7570 H   0  0  0  0  0  0  0  0  0  0  0  0
    3.7650    2.7930   20.2430 H   0  0  0  0  0  0  0  0  0  0  0  0
    4.4600    1.5580   19.1950 H   0  0  0  0  0  0  0  0  0  0  0  0
    5.0760    3.8560   18.4340 H   0  0  0  0  0  0  0  0  0  0  0  0
    4.1410    3.0090   17.2040 H   0  0  0  0  0  0  0  0  0  0  0  0
    1.7920    3.5740   16.8310 H   0  0  0  0  0  0  0  0  0  0  0  0
    0.9920    4.8030   17.7950 H   0  0  0  0  0  0  0  0  0  0  0  0
    0.8940    3.5140   20.1900 C   0  0  0  0  0  0  0  0  0  0  0  0
    0.3900    2.7680   20.8130 H   0  0  0  0  0  0  0  0  0  0  0  0
    0.2280    4.3780   20.0980 H   0  0  0  0  0  0  0  0  0  0  0  0
    1.7940    3.8380   20.7220 H   0  0  0  0  0  0  0  0  0  0  0  0
    0.7740   10.7900   19.2090 C   0  0  0  0  0  0  0  0  0  0  0  0
    1.4980   11.9890   19.2080 C   0  0  0  0  0  0  0  0  0  0  0  0
    0.8340   13.2010   19.3350 C   0  0  0  0  0  0  0  0  0  0  0  0
   -0.5000   13.3110   19.4530 N   0  0  0  0  0  0  0  0  0  0  0  0
   -1.2000   12.1530   19.4320 C   0  0  0  0  0  0  0  0  0  0  0  0
   -0.6150   10.8930   19.3120 C   0  0  0  0  0  0  0  0  0  0  0  0
    2.5760   11.9890   19.0850 H   0  0  0  0  0  0  0  0  0  0  0  0
    1.3810   14.1390   19.3360 H   0  0  0  0  0  0  0  0  0  0  0  0
   -1.2480   10.0150   19.3410 H   0  0  0  0  0  0  0  0  0  0  0  0
   -2.6880   12.2810   19.5440 C   0  0  0  0  0  0  0  0  0  0  0  0
   -3.4180   11.9990   18.4120 N   0  0  0  0  0  0  0  0  0  0  0  0
   -3.2550   12.6370   20.5690 O   0  0  0  0  0  0  0  0  0  0  0  0
   -4.3940   12.2650   18.4700 H   0  0  0  0  0  0  0  0  0  0  0  0
   -2.9840   12.0590   17.5010 H   0  0  0  0  0  0  0  0  0  0  0  0
  1 21  1  0  0  0  0
  1  2  1  0  0  0  0
  2  9  1  0  0  0  0
  2  8  1  0  0  0  0
  3  2  1  0  0  0  0
  3 11  1  0  0  0  0
  4 37  1  0  0  0  0
  4  3  1  0  0  0  0
  5  6  1  0  0  0  0
  5  4  1  0  0  0  0
  6 15  1  0  0  0  0
  6  1  1  0  0  0  0
  7  1  1  0  0  0  0
 10  3  1  0  0  0  0
 12  5  1  0  0  0  0
 13  5  1  0  0  0  0
 14  6  1  0  0  0  0
 16 24  1  6  0  0  0
 16 17  1  0  0  0  0
 16 33  1  0  0  0  0
 17 18  1  0  0  0  0
 17 26  1  0  0  0  0
 18 27  1  0  0  0  0
 19 29  1  0  0  0  0
 19 18  1  0  0  0  0
 20 19  1  0  0  0  0
 20 21  1  0  0  0  0
 21 22  2  0  0  0  0
 23 20  1  0  0  0  0
 23 16  1  0  0  0  0
 25 17  1  0  0  0  0
 28 18  1  0  0  0  0
 30 19  1  0  0  0  0
 31 23  1  0  0  0  0
 32 23  1  0  0  0  0
 33 36  1  0  0  0  0
 33 34  1  0  0  0  0
 35 33  1  0  0  0  0
 37 42  1  0  0  0  0
 38 37  2  0  0  0  0
 38 39  1  0  0  0  0
 39 44  1  0  0  0  0
 39 40  2  0  0  0  0
 41 40  1  0  0  0  0
 41 46  1  0  0  0  0
 42 45  1  0  0  0  0
 42 41  2  0  0  0  0
 43 38  1  0  0  0  0
 46 48  2  0  0  0  0
 47 49  1  0  0  0  0
 47 46  1  0  0  0  0
 50 47  1  0  0  0  0
M  END
>  <MODEL>
3

>  <REMARK>
 VINA RESULT:    -7.480      1.476      1.657
 INTER + INTRA:          -9.629
 INTER:                  -8.998
 INTRA:                  -0.631
 UNBOUND:                -0.618
  Name = 
  4 active torsions:
  status: ('A' for Active; 'I' for Inactive)
    1  A    between atoms: C_1  and  C_2
    2  A    between atoms: C_7  and  C_9
    3  A    between atoms: N_12  and  C_13
    4  A    between atoms: C_17  and  C_18
                            x       y       z     vdW  Elec       q    Type
                         _______ _______ _______ _____ _____    ______ ____

>  <TORSDO>
F 4

$$$$
=
 OpenBabel07192307433D

 50 52  0  0  1  0  0  0  0  0999 V2000
    0.9310    9.7480   19.1850 C   0  0  0  0  0  0  0  0  0  0  0  0
    0.7410    8.5210   20.0880 C   0  0  0  0  0  0  0  0  0  0  0  0
    1.9990    7.6580   20.1200 C   0  0  0  0  0  0  0  0  0  0  0  0
    2.3820    7.2730   18.7470 N   0  0  0  0  0  0  0  0  0  0  0  0
    2.5920    8.4100   17.8400 C   0  0  0  0  0  0  0  0  0  0  0  0
    1.3350    9.2760   17.7830 C   0  0  0  0  0  0  0  0  0  0  0  0
    1.7260   10.3540   19.6330 H   0  0  0  0  0  0  0  0  0  0  0  0
    0.4870    8.8400   21.1060 H   0  0  0  0  0  0  0  0  0  0  0  0
   -0.1010    7.9140   19.7290 H   0  0  0  0  0  0  0  0  0  0  0  0
    2.8230    8.2110   20.5930 H   0  0  0  0  0  0  0  0  0  0  0  0
    1.7890    6.7890   20.7520 H   0  0  0  0  0  0  0  0  0  0  0  0
    3.4440    9.0160   18.1730 H   0  0  0  0  0  0  0  0  0  0  0  0
    2.8010    8.0550   16.8220 H   0  0  0  0  0  0  0  0  0  0  0  0
    1.5130   10.1220   17.1120 H   0  0  0  0  0  0  0  0  0  0  0  0
    0.5120    8.7010   17.3380 H   0  0  0  0  0  0  0  0  0  0  0  0
   -0.4130   11.7590   22.4070 C   0  0  2  0  0  0  0  0  0  0  0  0
   -1.7400   12.5380   22.3650 C   0  0  0  0  0  0  0  0  0  0  0  0
   -2.5260   12.2980   21.0730 C   0  0  0  0  0  0  0  0  0  0  0  0
   -1.6440   12.5310   19.8490 C   0  0  0  0  0  0  0  0  0  0  0  0
   -0.4360   11.7120   19.9290 N   0  0  0  0  0  0  0  0  0  0  0  0
   -0.3470   10.5840   19.1190 C   0  0  0  0  0  0  0  0  0  0  0  0
   -1.2540   10.2750   18.3440 O   0  0  0  0  0  0  0  0  0  0  0  0
    0.3860   11.9810   21.1110 C   0  0  0  0  0  0  0  0  0  0  0  0
    0.1820   12.1480   23.2430 H   0  0  0  0  0  0  0  0  0  0  0  0
   -1.5190   13.6100   22.4450 H   0  0  0  0  0  0  0  0  0  0  0  0
   -2.3630   12.2830   23.2310 H   0  0  0  0  0  0  0  0  0  0  0  0
   -2.9120   11.2720   21.0610 H   0  0  0  0  0  0  0  0  0  0  0  0
   -3.3930   12.9670   21.0380 H   0  0  0  0  0  0  0  0  0  0  0  0
   -2.2090   12.3240   18.9350 H   0  0  0  0  0  0  0  0  0  0  0  0
   -1.3280   13.5800   19.8010 H   0  0  0  0  0  0  0  0  0  0  0  0
    0.7010   13.0300   21.0470 H   0  0  0  0  0  0  0  0  0  0  0  0
    1.2970   11.3810   21.1280 H   0  0  0  0  0  0  0  0  0  0  0  0
   -0.6440   10.2700   22.6790 C   0  0  0  0  0  0  0  0  0  0  0  0
   -1.1170    9.7910   21.8160 H   0  0  0  0  0  0  0  0  0  0  0  0
   -1.2880   10.1010   23.5490 H   0  0  0  0  0  0  0  0  0  0  0  0
    0.3070    9.7590   22.8620 H   0  0  0  0  0  0  0  0  0  0  0  0
    3.3020    6.2090   18.6950 C   0  0  0  0  0  0  0  0  0  0  0  0
    4.4280    6.3060   17.8670 C   0  0  0  0  0  0  0  0  0  0  0  0
    5.3390    5.2620   17.8080 C   0  0  0  0  0  0  0  0  0  0  0  0
    5.2200    4.1280   18.5210 N   0  0  0  0  0  0  0  0  0  0  0  0
    4.1440    4.0440   19.3360 C   0  0  0  0  0  0  0  0  0  0  0  0
    3.1780    5.0440   19.4540 C   0  0  0  0  0  0  0  0  0  0  0  0
    4.6140    7.2020   17.2830 H   0  0  0  0  0  0  0  0  0  0  0  0
    6.2160    5.3210   17.1710 H   0  0  0  0  0  0  0  0  0  0  0  0
    2.3280    4.8790   20.1040 H   0  0  0  0  0  0  0  0  0  0  0  0
    4.0240    2.7880   20.1440 C   0  0  0  0  0  0  0  0  0  0  0  0
    5.0540    1.8830   20.0300 N   0  0  0  0  0  0  0  0  0  0  0  0
    3.0620    2.5400   20.8590 O   0  0  0  0  0  0  0  0  0  0  0  0
    4.8600    0.9780   20.4430 H   0  0  0  0  0  0  0  0  0  0  0  0
    5.6480    1.8890   19.2120 H   0  0  0  0  0  0  0  0  0  0  0  0
  1  7  1  0  0  0  0
  1  2  1  0  0  0  0
  2  3  1  0  0  0  0
  2  8  1  0  0  0  0
  3 10  1  0  0  0  0
  3 11  1  0  0  0  0
  4  3  1  0  0  0  0
  5 12  1  0  0  0  0
  5  4  1  0  0  0  0
  6  5  1  0  0  0  0
  6  1  1  0  0  0  0
  9  2  1  0  0  0  0
 13  5  1  0  0  0  0
 14  6  1  0  0  0  0
 15  6  1  0  0  0  0
 16 33  1  0  0  0  0
 16 24  1  1  0  0  0
 17 16  1  0  0  0  0
 17 25  1  0  0  0  0
 17 26  1  0  0  0  0
 18 17  1  0  0  0  0
 19 20  1  0  0  0  0
 19 18  1  0  0  0  0
 20 23  1  0  0  0  0
 21  1  1  0  0  0  0
 21 20  1  0  0  0  0
 22 21  2  0  0  0  0
 23 32  1  0  0  0  0
 23 16  1  0  0  0  0
 27 18  1  0  0  0  0
 28 18  1  0  0  0  0
 29 19  1  0  0  0  0
 30 19  1  0  0  0  0
 31 23  1  0  0  0  0
 33 36  1  0  0  0  0
 33 35  1  0  0  0  0
 34 33  1  0  0  0  0
 37  4  1  0  0  0  0
 37 42  1  0  0  0  0
 38 37  2  0  0  0  0
 39 38  1  0  0  0  0
 39 40  2  0  0  0  0
 40 41  1  0  0  0  0
 41 42  2  0  0  0  0
 41 46  1  0  0  0  0
 42 45  1  0  0  0  0
 43 38  1  0  0  0  0
 44 39  1  0  0  0  0
 46 48  2  0  0  0  0
 47 46  1  0  0  0  0
 47 49  1  0  0  0  0
 50 47  1  0  0  0  0
M  END
>  <MODEL>
4

>  <REMARK>
 VINA RESULT:    -7.292      2.262      8.224
 INTER + INTRA:          -9.402
 INTER:                  -8.839
 INTRA:                  -0.563
 UNBOUND:                -0.618
  Name = 
  4 active torsions:
  status: ('A' for Active; 'I' for Inactive)
    1  A    between atoms: C_1  and  C_2
    2  A    between atoms: C_7  and  C_9
    3  A    between atoms: N_12  and  C_13
    4  A    between atoms: C_17  and  C_18
                            x       y       z     vdW  Elec       q    Type
                         _______ _______ _______ _____ _____    ______ ____

>  <TORSDO>
F 4

$$$$
=
 OpenBabel07192307433D

 50 52  0  0  1  0  0  0  0  0999 V2000
    1.0220    9.6770   19.1490 C   0  0  0  0  0  0  0  0  0  0  0  0
    0.7480    8.5010   20.0980 C   0  0  0  0  0  0  0  0  0  0  0  0
    1.9730    7.6000   20.2290 C   0  0  0  0  0  0  0  0  0  0  0  0
    2.4060    7.1380   18.8940 N   0  0  0  0  0  0  0  0  0  0  0  0
    2.6960    8.2240   17.9470 C   0  0  0  0  0  0  0  0  0  0  0  0
    1.4740    9.1260   17.7910 C   0  0  0  0  0  0  0  0  0  0  0  0
    1.8160   10.2780   19.6070 H   0  0  0  0  0  0  0  0  0  0  0  0
    0.4590    8.8750   21.0860 H   0  0  0  0  0  0  0  0  0  0  0  0
   -0.0970    7.9050   19.7270 H   0  0  0  0  0  0  0  0  0  0  0  0
    2.7930    8.1480   20.7140 H   0  0  0  0  0  0  0  0  0  0  0  0
    1.7040    6.7680   20.8890 H   0  0  0  0  0  0  0  0  0  0  0  0
    3.5520    8.8180   18.2930 H   0  0  0  0  0  0  0  0  0  0  0  0
    2.9390    7.8150   16.9580 H   0  0  0  0  0  0  0  0  0  0  0  0
    1.7110    9.9340   17.0920 H   0  0  0  0  0  0  0  0  0  0  0  0
    0.6530    8.5580   17.3350 H   0  0  0  0  0  0  0  0  0  0  0  0
   -0.3280   11.9730   22.1730 C   0  0  2  0  0  0  0  0  0  0  0  0
   -1.6240   12.7920   22.0350 C   0  0  0  0  0  0  0  0  0  0  0  0
   -2.3850   12.4830   20.7430 C   0  0  0  0  0  0  0  0  0  0  0  0
   -1.4640   12.5910   19.5300 C   0  0  0  0  0  0  0  0  0  0  0  0
   -0.2890   11.7390   19.7060 N   0  0  0  0  0  0  0  0  0  0  0  0
   -0.2220   10.5500   18.9850 C   0  0  0  0  0  0  0  0  0  0  0  0
   -1.1200   10.2150   18.2100 O   0  0  0  0  0  0  0  0  0  0  0  0
    0.5110   12.0680   20.8870 C   0  0  0  0  0  0  0  0  0  0  0  0
    0.2600   12.4040   22.9930 H   0  0  0  0  0  0  0  0  0  0  0  0
   -1.3660   13.8600   22.0400 H   0  0  0  0  0  0  0  0  0  0  0  0
   -2.2780   12.6270   22.8990 H   0  0  0  0  0  0  0  0  0  0  0  0
   -2.8080   11.4730   20.7970 H   0  0  0  0  0  0  0  0  0  0  0  0
   -3.2260   13.1770   20.6330 H   0  0  0  0  0  0  0  0  0  0  0  0
   -2.0130   12.3340   18.6190 H   0  0  0  0  0  0  0  0  0  0  0  0
   -1.1090   13.6220   19.4120 H   0  0  0  0  0  0  0  0  0  0  0  0
    0.8670   13.0970   20.7530 H   0  0  0  0  0  0  0  0  0  0  0  0
    1.3980   11.4390   20.9740 H   0  0  0  0  0  0  0  0  0  0  0  0
   -0.6210   10.5180   22.5490 C   0  0  0  0  0  0  0  0  0  0  0  0
   -1.4330   10.1180   21.9330 H   0  0  0  0  0  0  0  0  0  0  0  0
   -0.9140   10.4120   23.5990 H   0  0  0  0  0  0  0  0  0  0  0  0
    0.2610    9.8920   22.3820 H   0  0  0  0  0  0  0  0  0  0  0  0
    3.2890    6.0440   18.9340 C   0  0  0  0  0  0  0  0  0  0  0  0
    2.9870    4.9390   19.7410 C   0  0  0  0  0  0  0  0  0  0  0  0
    3.8530    3.8560   19.7870 C   0  0  0  0  0  0  0  0  0  0  0  0
    4.9950    3.7830   19.0810 N   0  0  0  0  0  0  0  0  0  0  0  0
    5.2750    4.8420   18.2860 C   0  0  0  0  0  0  0  0  0  0  0  0
    4.4630    5.9720   18.1820 C   0  0  0  0  0  0  0  0  0  0  0  0
    2.0690    4.9040   20.3180 H   0  0  0  0  0  0  0  0  0  0  0  0
    3.6340    2.9920   20.4080 H   0  0  0  0  0  0  0  0  0  0  0  0
    4.7820    6.7900   17.5480 H   0  0  0  0  0  0  0  0  0  0  0  0
    6.5380    4.7500   17.4870 C   0  0  0  0  0  0  0  0  0  0  0  0
    7.6740    4.3840   18.1690 N   0  0  0  0  0  0  0  0  0  0  0  0
    6.5940    5.0050   16.2900 O   0  0  0  0  0  0  0  0  0  0  0  0
    8.5330    4.5040   17.6440 H   0  0  0  0  0  0  0  0  0  0  0  0
    7.7320    4.5200   19.1700 H   0  0  0  0  0  0  0  0  0  0  0  0
  1  7  1  0  0  0  0
  1  2  1  0  0  0  0
  2  3  1  0  0  0  0
  2  8  1  0  0  0  0
  3 10  1  0  0  0  0
  3 11  1  0  0  0  0
  4 37  1  0  0  0  0
  4  3  1  0  0  0  0
  5 12  1  0  0  0  0
  5  4  1  0  0  0  0
  6  5  1  0  0  0  0
  6  1  1  0  0  0  0
  9  2  1  0  0  0  0
 13  5  1  0  0  0  0
 14  6  1  0  0  0  0
 15  6  1  0  0  0  0
 16 33  1  0  0  0  0
 16 24  1  1  0  0  0
 17 25  1  0  0  0  0
 17 16  1  0  0  0  0
 17 26  1  0  0  0  0
 18 27  1  0  0  0  0
 18 17  1  0  0  0  0
 19 20  1  0  0  0  0
 19 18  1  0  0  0  0
 20 23  1  0  0  0  0
 21  1  1  0  0  0  0
 21 20  1  0  0  0  0
 22 21  2  0  0  0  0
 23 32  1  0  0  0  0
 23 16  1  0  0  0  0
 28 18  1  0  0  0  0
 29 19  1  0  0  0  0
 30 19  1  0  0  0  0
 31 23  1  0  0  0  0
 33 35  1  0  0  0  0
 34 33  1  0  0  0  0
 36 33  1  0  0  0  0
 37 38  1  0  0  0  0
 38 39  2  0  0  0  0
 38 43  1  0  0  0  0
 39 44  1  0  0  0  0
 40 39  1  0  0  0  0
 41 40  2  0  0  0  0
 42 41  1  0  0  0  0
 42 37  2  0  0  0  0
 45 42  1  0  0  0  0
 46 47  1  0  0  0  0
 46 41  1  0  0  0  0
 47 50  1  0  0  0  0
 48 46  2  0  0  0  0
 49 47  1  0  0  0  0
M  END
>  <MODEL>
5

>  <REMARK>
 VINA RESULT:    -7.192      2.247      8.459
 INTER + INTRA:          -9.282
 INTER:                  -8.702
 INTRA:                  -0.580
 UNBOUND:                -0.618
  Name = 
  4 active torsions:
  status: ('A' for Active; 'I' for Inactive)
    1  A    between atoms: C_1  and  C_2
    2  A    between atoms: C_7  and  C_9
    3  A    between atoms: N_12  and  C_13
    4  A    between atoms: C_17  and  C_18
                            x       y       z     vdW  Elec       q    Type
                         _______ _______ _______ _____ _____    ______ ____

>  <TORSDO>
F 4

$$$$
=
 OpenBabel07192307433D

 50 52  0  0  1  0  0  0  0  0999 V2000
    2.8220    6.6020   19.0980 C   0  0  0  0  0  0  0  0  0  0  0  0
    2.2440    7.5520   18.0400 C   0  0  0  0  0  0  0  0  0  0  0  0
    1.9640    8.9320   18.6300 C   0  0  0  0  0  0  0  0  0  0  0  0
    1.0710    8.8070   19.8010 N   0  0  0  0  0  0  0  0  0  0  0  0
    1.5810    7.9190   20.8540 C   0  0  0  0  0  0  0  0  0  0  0  0
    1.8520    6.5280   20.2830 C   0  0  0  0  0  0  0  0  0  0  0  0
    3.7850    7.0200   19.4110 H   0  0  0  0  0  0  0  0  0  0  0  0
    2.9420    7.6470   17.1990 H   0  0  0  0  0  0  0  0  0  0  0  0
    1.3120    7.1410   17.6300 H   0  0  0  0  0  0  0  0  0  0  0  0
    2.9050    9.4100   18.9320 H   0  0  0  0  0  0  0  0  0  0  0  0
    1.5260    9.5490   17.8380 H   0  0  0  0  0  0  0  0  0  0  0  0
    2.5030    8.3260   21.2880 H   0  0  0  0  0  0  0  0  0  0  0  0
    0.8410    7.8120   21.6580 H   0  0  0  0  0  0  0  0  0  0  0  0
    2.2410    5.8840   21.0780 H   0  0  0  0  0  0  0  0  0  0  0  0
    0.9080    6.0740   19.9570 H   0  0  0  0  0  0  0  0  0  0  0  0
    6.0160    5.8340   16.7640 C   0  0  2  0  0  0  0  0  0  0  0  0
    6.2130    4.4540   16.1110 C   0  0  0  0  0  0  0  0  0  0  0  0
    5.0060    3.5310   16.3010 C   0  0  0  0  0  0  0  0  0  0  0  0
    4.6030    3.4570   17.7720 C   0  0  0  0  0  0  0  0  0  0  0  0
    4.3720    4.7990   18.3040 N   0  0  0  0  0  0  0  0  0  0  0  0
    3.0580    5.2090   18.5130 C   0  0  0  0  0  0  0  0  0  0  0  0
    2.1050    4.4670   18.2680 O   0  0  0  0  0  0  0  0  0  0  0  0
    5.5380    5.6810   18.2190 C   0  0  0  0  0  0  0  0  0  0  0  0
    6.9870    6.3440   16.7780 H   0  0  0  0  0  0  0  0  0  0  0  0
    7.0920    3.9750   16.5640 H   0  0  0  0  0  0  0  0  0  0  0  0
    6.4340    4.5610   15.0420 H   0  0  0  0  0  0  0  0  0  0  0  0
    4.1630    3.9000   15.7040 H   0  0  0  0  0  0  0  0  0  0  0  0
    5.2460    2.5280   15.9310 H   0  0  0  0  0  0  0  0  0  0  0  0
    3.7200    2.8230   17.8870 H   0  0  0  0  0  0  0  0  0  0  0  0
    5.4070    3.0030   18.3640 H   0  0  0  0  0  0  0  0  0  0  0  0
    6.3300    5.2200   18.8200 H   0  0  0  0  0  0  0  0  0  0  0  0
    5.3470    6.6630   18.6530 H   0  0  0  0  0  0  0  0  0  0  0  0
    5.0630    6.7100   15.9460 C   0  0  0  0  0  0  0  0  0  0  0  0
    5.6090    7.5320   15.4710 H   0  0  0  0  0  0  0  0  0  0  0  0
    4.2700    7.1480   16.5610 H   0  0  0  0  0  0  0  0  0  0  0  0
    4.5880    6.1260   15.1520 H   0  0  0  0  0  0  0  0  0  0  0  0
    0.4800   10.0230   20.1920 C   0  0  0  0  0  0  0  0  0  0  0  0
    0.1480   10.2310   21.5370 C   0  0  0  0  0  0  0  0  0  0  0  0
   -0.4350   11.4250   21.9320 C   0  0  0  0  0  0  0  0  0  0  0  0
   -0.7050   12.4370   21.0890 N   0  0  0  0  0  0  0  0  0  0  0  0
   -0.3650   12.2440   19.7940 C   0  0  0  0  0  0  0  0  0  0  0  0
    0.2220   11.0750   19.3100 C   0  0  0  0  0  0  0  0  0  0  0  0
    0.3630    9.4760   22.2870 H   0  0  0  0  0  0  0  0  0  0  0  0
   -0.6990   11.6020   22.9700 H   0  0  0  0  0  0  0  0  0  0  0  0
    0.4290   10.9900   18.2510 H   0  0  0  0  0  0  0  0  0  0  0  0
   -0.6490   13.3800   18.8600 C   0  0  0  0  0  0  0  0  0  0  0  0
   -0.9850   13.0480   17.5680 N   0  0  0  0  0  0  0  0  0  0  0  0
   -0.5720   14.5560   19.1930 O   0  0  0  0  0  0  0  0  0  0  0  0
   -0.9950   13.8310   16.9260 H   0  0  0  0  0  0  0  0  0  0  0  0
   -0.7110   12.1520   17.1870 H   0  0  0  0  0  0  0  0  0  0  0  0
  1  7  1  0  0  0  0
  1  6  1  0  0  0  0
  2  3  1  0  0  0  0
  2  1  1  0  0  0  0
  3 10  1  0  0  0  0
  3  4  1  0  0  0  0
  4 37  1  0  0  0  0
  4  5  1  0  0  0  0
  5 12  1  0  0  0  0
  5 13  1  0  0  0  0
  6  5  1  0  0  0  0
  6 14  1  0  0  0  0
  8  2  1  0  0  0  0
  9  2  1  0  0  0  0
 11  3  1  0  0  0  0
 15  6  1  0  0  0  0
 16 24  1  1  0  0  0
 16 23  1  0  0  0  0
 17 18  1  0  0  0  0
 17 25  1  0  0  0  0
 17 16  1  0  0  0  0
 18 19  1  0  0  0  0
 19 29  1  0  0  0  0
 19 20  1  0  0  0  0
 19 30  1  0  0  0  0
 20 21  1  0  0  0  0
 21  1  1  0  0  0  0
 22 21  2  0  0  0  0
 23 20  1  0  0  0  0
 23 32  1  0  0  0  0
 23 31  1  0  0  0  0
 26 17  1  0  0  0  0
 27 18  1  0  0  0  0
 28 18  1  0  0  0  0
 33 35  1  0  0  0  0
 33 16  1  0  0  0  0
 34 33  1  0  0  0  0
 36 33  1  0  0  0  0
 37 38  1  0  0  0  0
 38 39  2  0  0  0  0
 38 43  1  0  0  0  0
 39 44  1  0  0  0  0
 40 39  1  0  0  0  0
 41 40  2  0  0  0  0
 42 41  1  0  0  0  0
 42 37  2  0  0  0  0
 45 42  1  0  0  0  0
 46 48  2  0  0  0  0
 46 41  1  0  0  0  0
 47 46  1  0  0  0  0
 49 47  1  0  0  0  0
 50 47  1  0  0  0  0
M  END
>  <MODEL>
6

>  <REMARK>
 VINA RESULT:    -7.191      1.857      3.362
 INTER + INTRA:          -9.280
 INTER:                  -8.606
 INTRA:                  -0.675
 UNBOUND:                -0.618
  Name = 
  4 active torsions:
  status: ('A' for Active; 'I' for Inactive)
    1  A    between atoms: C_1  and  C_2
    2  A    between atoms: C_7  and  C_9
    3  A    between atoms: N_12  and  C_13
    4  A    between atoms: C_17  and  C_18
                            x       y       z     vdW  Elec       q    Type
                         _______ _______ _______ _____ _____    ______ ____

>  <TORSDO>
F 4

$$$$
=
 OpenBabel07192307433D

 50 52  0  0  1  0  0  0  0  0999 V2000
    2.9510    6.7920   18.9170 C   0  0  0  0  0  0  0  0  0  0  0  0
    2.2800    7.5770   17.7800 C   0  0  0  0  0  0  0  0  0  0  0  0
    1.8810    8.9780   18.2370 C   0  0  0  0  0  0  0  0  0  0  0  0
    1.0130    8.8910   19.4300 N   0  0  0  0  0  0  0  0  0  0  0  0
    1.6110    8.1610   20.5560 C   0  0  0  0  0  0  0  0  0  0  0  0
    2.0020    6.7510   20.1210 C   0  0  0  0  0  0  0  0  0  0  0  0
    3.8750    7.3240   19.1710 H   0  0  0  0  0  0  0  0  0  0  0  0
    2.9590    7.6500   16.9230 H   0  0  0  0  0  0  0  0  0  0  0  0
    1.3850    7.0450   17.4300 H   0  0  0  0  0  0  0  0  0  0  0  0
    2.7770    9.5660   18.4740 H   0  0  0  0  0  0  0  0  0  0  0  0
    1.3820    9.4710   17.3960 H   0  0  0  0  0  0  0  0  0  0  0  0
    2.4960    8.6910   20.9310 H   0  0  0  0  0  0  0  0  0  0  0  0
    0.8910    8.0700   21.3790 H   0  0  0  0  0  0  0  0  0  0  0  0
    2.4540    6.2260   20.9680 H   0  0  0  0  0  0  0  0  0  0  0  0
    1.0990    6.1840   19.8570 H   0  0  0  0  0  0  0  0  0  0  0  0
    6.1320    6.0940   16.5450 C   0  0  2  0  0  0  0  0  0  0  0  0
    6.4470    4.6780   16.0290 C   0  0  0  0  0  0  0  0  0  0  0  0
    5.3450    3.6680   16.3610 C   0  0  0  0  0  0  0  0  0  0  0  0
    4.9960    3.7120   17.8460 C   0  0  0  0  0  0  0  0  0  0  0  0
    4.6480    5.0740   18.2480 N   0  0  0  0  0  0  0  0  0  0  0  0
    3.3070    5.3750   18.4680 C   0  0  0  0  0  0  0  0  0  0  0  0
    2.4260    4.5220   18.3380 O   0  0  0  0  0  0  0  0  0  0  0  0
    5.7170    6.0500   18.0260 C   0  0  0  0  0  0  0  0  0  0  0  0
    7.0480    6.6940   16.4680 H   0  0  0  0  0  0  0  0  0  0  0  0
    7.3830    4.3360   16.4920 H   0  0  0  0  0  0  0  0  0  0  0  0
    6.6230    4.6930   14.9470 H   0  0  0  0  0  0  0  0  0  0  0  0
    4.4510    3.8890   15.7650 H   0  0  0  0  0  0  0  0  0  0  0  0
    5.6720    2.6590   16.0860 H   0  0  0  0  0  0  0  0  0  0  0  0
    4.1850    3.0100   18.0620 H   0  0  0  0  0  0  0  0  0  0  0  0
    5.8590    3.4010   18.4490 H   0  0  0  0  0  0  0  0  0  0  0  0
    6.5690    5.7330   18.6390 H   0  0  0  0  0  0  0  0  0  0  0  0
    5.4420    7.0490   18.3650 H   0  0  0  0  0  0  0  0  0  0  0  0
    5.0720    6.7830   15.6820 C   0  0  0  0  0  0  0  0  0  0  0  0
    5.0340    7.8550   15.9040 H   0  0  0  0  0  0  0  0  0  0  0  0
    4.0710    6.3720   15.8460 H   0  0  0  0  0  0  0  0  0  0  0  0
    5.3100    6.6730   14.6190 H   0  0  0  0  0  0  0  0  0  0  0  0
    0.3180   10.0820   19.7090 C   0  0  0  0  0  0  0  0  0  0  0  0
    0.8820   11.0260   20.5780 C   0  0  0  0  0  0  0  0  0  0  0  0
    0.2030   12.2020   20.8610 C   0  0  0  0  0  0  0  0  0  0  0  0
   -0.9930   12.5180   20.3350 N   0  0  0  0  0  0  0  0  0  0  0  0
   -1.5270   11.6150   19.4790 C   0  0  0  0  0  0  0  0  0  0  0  0
   -0.9160   10.4080   19.1420 C   0  0  0  0  0  0  0  0  0  0  0  0
    1.8590   10.8620   21.0200 H   0  0  0  0  0  0  0  0  0  0  0  0
    0.6260   12.9430   21.5320 H   0  0  0  0  0  0  0  0  0  0  0  0
   -1.4310    9.7260   18.4760 H   0  0  0  0  0  0  0  0  0  0  0  0
   -2.8510   11.9780   18.8800 C   0  0  0  0  0  0  0  0  0  0  0  0
   -2.9450   11.9130   17.5090 N   0  0  0  0  0  0  0  0  0  0  0  0
   -3.8110   12.3400   19.5460 O   0  0  0  0  0  0  0  0  0  0  0  0
   -3.7860   12.3310   17.1290 H   0  0  0  0  0  0  0  0  0  0  0  0
   -2.1120   11.9730   16.9390 H   0  0  0  0  0  0  0  0  0  0  0  0
  1  7  1  0  0  0  0
  1  6  1  0  0  0  0
  2  3  1  0  0  0  0
  2  1  1  0  0  0  0
  3 10  1  0  0  0  0
  3  4  1  0  0  0  0
  4 37  1  0  0  0  0
  4  5  1  0  0  0  0
  5 12  1  0  0  0  0
  5 13  1  0  0  0  0
  6  5  1  0  0  0  0
  6 14  1  0  0  0  0
  8  2  1  0  0  0  0
  9  2  1  0  0  0  0
 11  3  1  0  0  0  0
 15  6  1  0  0  0  0
 16 24  1  6  0  0  0
 16 23  1  0  0  0  0
 17 18  1  0  0  0  0
 17 25  1  0  0  0  0
 17 16  1  0  0  0  0
 18 19  1  0  0  0  0
 19 29  1  0  0  0  0
 19 20  1  0  0  0  0
 19 30  1  0  0  0  0
 20 21  1  0  0  0  0
 21  1  1  0  0  0  0
 22 21  2  0  0  0  0
 23 20  1  0  0  0  0
 23 32  1  0  0  0  0
 23 31  1  0  0  0  0
 26 17  1  0  0  0  0
 27 18  1  0  0  0  0
 28 18  1  0  0  0  0
 33 35  1  0  0  0  0
 33 34  1  0  0  0  0
 33 16  1  0  0  0  0
 36 33  1  0  0  0  0
 37 38  1  0  0  0  0
 38 39  2  0  0  0  0
 38 43  1  0  0  0  0
 39 44  1  0  0  0  0
 40 39  1  0  0  0  0
 41 40  2  0  0  0  0
 42 41  1  0  0  0  0
 42 37  2  0  0  0  0
 45 42  1  0  0  0  0
 46 41  1  0  0  0  0
 46 48  2  0  0  0  0
 47 46  1  0  0  0  0
 49 47  1  0  0  0  0
 50 47  1  0  0  0  0
M  END
>  <MODEL>
7

>  <REMARK>
 VINA RESULT:    -7.090      2.201      3.442
 INTER + INTRA:          -9.159
 INTER:                  -8.526
 INTRA:                  -0.633
 UNBOUND:                -0.618
  Name = 
  4 active torsions:
  status: ('A' for Active; 'I' for Inactive)
    1  A    between atoms: C_1  and  C_2
    2  A    between atoms: C_7  and  C_9
    3  A    between atoms: N_12  and  C_13
    4  A    between atoms: C_17  and  C_18
                            x       y       z     vdW  Elec       q    Type
                         _______ _______ _______ _____ _____    ______ ____

>  <TORSDO>
F 4

$$$$
=
 OpenBabel07192307433D

 50 52  0  0  1  0  0  0  0  0999 V2000
    2.0490    6.7620   19.0280 C   0  0  0  0  0  0  0  0  0  0  0  0
    1.9840    6.7620   20.5620 C   0  0  0  0  0  0  0  0  0  0  0  0
    0.9440    7.7550   21.0720 C   0  0  0  0  0  0  0  0  0  0  0  0
    1.2280    9.1020   20.5370 N   0  0  0  0  0  0  0  0  0  0  0  0
    1.2880    9.1660   19.0700 C   0  0  0  0  0  0  0  0  0  0  0  0
    2.3360    8.1890   18.5440 C   0  0  0  0  0  0  0  0  0  0  0  0
    1.0720    6.4210   18.6670 H   0  0  0  0  0  0  0  0  0  0  0  0
    1.7430    5.7570   20.9270 H   0  0  0  0  0  0  0  0  0  0  0  0
    2.9650    7.0220   20.9830 H   0  0  0  0  0  0  0  0  0  0  0  0
   -0.0610    7.4390   20.7630 H   0  0  0  0  0  0  0  0  0  0  0  0
    0.9700    7.7290   22.1670 H   0  0  0  0  0  0  0  0  0  0  0  0
    0.3090    8.9280   18.6350 H   0  0  0  0  0  0  0  0  0  0  0  0
    1.5740   10.1730   18.7420 H   0  0  0  0  0  0  0  0  0  0  0  0
    2.3600    8.2420   17.4510 H   0  0  0  0  0  0  0  0  0  0  0  0
    3.3330    8.4980   18.8860 H   0  0  0  0  0  0  0  0  0  0  0  0
    1.2780    2.8350   18.5620 C   0  0  2  0  0  0  0  0  0  0  0  0
    2.3810    1.8520   18.1290 C   0  0  0  0  0  0  0  0  0  0  0  0
    3.7690    2.4980   18.0910 C   0  0  0  0  0  0  0  0  0  0  0  0
    3.7460    3.7870   17.2730 C   0  0  0  0  0  0  0  0  0  0  0  0
    2.7190    4.6940   17.7810 N   0  0  0  0  0  0  0  0  0  0  0  0
    3.1240    5.8000   18.5240 C   0  0  0  0  0  0  0  0  0  0  0  0
    4.3150    6.0230   18.7490 O   0  0  0  0  0  0  0  0  0  0  0  0
    1.3650    4.1380   17.7480 C   0  0  0  0  0  0  0  0  0  0  0  0
    0.3070    2.3690   18.3530 H   0  0  0  0  0  0  0  0  0  0  0  0
    2.1430    1.4790   17.1240 H   0  0  0  0  0  0  0  0  0  0  0  0
    2.3980    0.9770   18.7900 H   0  0  0  0  0  0  0  0  0  0  0  0
    4.1030    2.7140   19.1130 H   0  0  0  0  0  0  0  0  0  0  0  0
    4.4920    1.7970   17.6590 H   0  0  0  0  0  0  0  0  0  0  0  0
    4.7350    4.2540   17.2830 H   0  0  0  0  0  0  0  0  0  0  0  0
    3.5030    3.5690   16.2260 H   0  0  0  0  0  0  0  0  0  0  0  0
    1.1320    3.9320   16.6970 H   0  0  0  0  0  0  0  0  0  0  0  0
    0.6170    4.8480   18.1020 H   0  0  0  0  0  0  0  0  0  0  0  0
    1.3280    3.1070   20.0690 C   0  0  0  0  0  0  0  0  0  0  0  0
    1.4530    4.1770   20.2620 H   0  0  0  0  0  0  0  0  0  0  0  0
    2.1540    2.5810   20.5580 H   0  0  0  0  0  0  0  0  0  0  0  0
    0.3970    2.7900   20.5480 H   0  0  0  0  0  0  0  0  0  0  0  0
    0.5520   10.1330   21.2150 C   0  0  0  0  0  0  0  0  0  0  0  0
   -0.2120    9.8320   22.3500 C   0  0  0  0  0  0  0  0  0  0  0  0
   -0.8820   10.8410   23.0250 C   0  0  0  0  0  0  0  0  0  0  0  0
   -0.8410   12.1350   22.6610 N   0  0  0  0  0  0  0  0  0  0  0  0
   -0.0860   12.4290   21.5780 C   0  0  0  0  0  0  0  0  0  0  0  0
    0.6180   11.4770   20.8400 C   0  0  0  0  0  0  0  0  0  0  0  0
   -0.2710    8.8160   22.7280 H   0  0  0  0  0  0  0  0  0  0  0  0
   -1.4790   10.6240   23.9050 H   0  0  0  0  0  0  0  0  0  0  0  0
    1.1690   11.7940   19.9640 H   0  0  0  0  0  0  0  0  0  0  0  0
   -0.0260   13.8730   21.1870 C   0  0  0  0  0  0  0  0  0  0  0  0
    0.3390   14.7630   22.1700 N   0  0  0  0  0  0  0  0  0  0  0  0
   -0.3060   14.2760   20.0650 O   0  0  0  0  0  0  0  0  0  0  0  0
    0.1970   15.7360   21.9250 H   0  0  0  0  0  0  0  0  0  0  0  0
    0.2220   14.5200   23.1450 H   0  0  0  0  0  0  0  0  0  0  0  0
  1  2  1  0  0  0  0
  2  8  1  0  0  0  0
  2  9  1  0  0  0  0
  2  3  1  0  0  0  0
  3 11  1  0  0  0  0
  4  3  1  0  0  0  0
  4 37  1  0  0  0  0
  5  4  1  0  0  0  0
  6 15  1  0  0  0  0
  6  1  1  0  0  0  0
  6  5  1  0  0  0  0
  7  1  1  0  0  0  0
 10  3  1  0  0  0  0
 12  5  1  0  0  0  0
 13  5  1  0  0  0  0
 14  6  1  0  0  0  0
 16 24  1  6  0  0  0
 16 33  1  0  0  0  0
 17 16  1  0  0  0  0
 17 26  1  0  0  0  0
 18 17  1  0  0  0  0
 18 27  1  0  0  0  0
 19 29  1  0  0  0  0
 19 20  1  0  0  0  0
 19 18  1  0  0  0  0
 20 21  1  0  0  0  0
 21 22  2  0  0  0  0
 21  1  1  0  0  0  0
 23 20  1  0  0  0  0
 23 32  1  0  0  0  0
 23 16  1  0  0  0  0
 25 17  1  0  0  0  0
 28 18  1  0  0  0  0
 30 19  1  0  0  0  0
 31 23  1  0  0  0  0
 33 34  1  0  0  0  0
 33 36  1  0  0  0  0
 33 35  1  0  0  0  0
 37 38  1  0  0  0  0
 38 43  1  0  0  0  0
 38 39  2  0  0  0  0
 39 44  1  0  0  0  0
 40 39  1  0  0  0  0
 41 40  2  0  0  0  0
 42 37  2  0  0  0  0
 42 41  1  0  0  0  0
 45 42  1  0  0  0  0
 46 41  1  0  0  0  0
 46 47  1  0  0  0  0
 47 50  1  0  0  0  0
 48 46  2  0  0  0  0
 49 47  1  0  0  0  0
M  END
>  <MODEL>
8

>  <REMARK>
 VINA RESULT:    -7.078      1.270      1.897
 INTER + INTRA:          -9.144
 INTER:                  -8.456
 INTRA:                  -0.689
 UNBOUND:                -0.618
  Name = 
  4 active torsions:
  status: ('A' for Active; 'I' for Inactive)
    1  A    between atoms: C_1  and  C_2
    2  A    between atoms: C_7  and  C_9
    3  A    between atoms: N_12  and  C_13
    4  A    between atoms: C_17  and  C_18
                            x       y       z     vdW  Elec       q    Type
                         _______ _______ _______ _____ _____    ______ ____

>  <TORSDO>
F 4

$$$$
=
 OpenBabel07192307433D

 50 52  0  0  1  0  0  0  0  0999 V2000
    1.2530   10.0070   19.2070 C   0  0  0  0  0  0  0  0  0  0  0  0
    0.8720    8.9100   20.2120 C   0  0  0  0  0  0  0  0  0  0  0  0
    1.9560    7.8390   20.3000 C   0  0  0  0  0  0  0  0  0  0  0  0
    2.2230    7.2830   18.9580 N   0  0  0  0  0  0  0  0  0  0  0  0
    2.6080    8.2860   17.9560 C   0  0  0  0  0  0  0  0  0  0  0  0
    1.5260    9.3580   17.8440 C   0  0  0  0  0  0  0  0  0  0  0  0
    2.1570   10.4930   19.5920 H   0  0  0  0  0  0  0  0  0  0  0  0
    0.7090    9.3500   21.2030 H   0  0  0  0  0  0  0  0  0  0  0  0
   -0.0760    8.4390   19.9170 H   0  0  0  0  0  0  0  0  0  0  0  0
    2.8780    8.2700   20.7120 H   0  0  0  0  0  0  0  0  0  0  0  0
    1.6100    7.0750   21.0050 H   0  0  0  0  0  0  0  0  0  0  0  0
    3.5630    8.7530   18.2260 H   0  0  0  0  0  0  0  0  0  0  0  0
    2.7200    7.8200   16.9690 H   0  0  0  0  0  0  0  0  0  0  0  0
    1.8320   10.1020   17.1020 H   0  0  0  0  0  0  0  0  0  0  0  0
    0.6000    8.9080   17.4610 H   0  0  0  0  0  0  0  0  0  0  0  0
    2.0770   13.9470   19.3710 C   0  0  2  0  0  0  0  0  0  0  0  0
    0.9540   15.0000   19.3300 C   0  0  0  0  0  0  0  0  0  0  0  0
   -0.4430   14.3770   19.4100 C   0  0  0  0  0  0  0  0  0  0  0  0
   -0.6060   13.2720   18.3700 C   0  0  0  0  0  0  0  0  0  0  0  0
    0.4580   12.2790   18.5110 N   0  0  0  0  0  0  0  0  0  0  0  0
    0.1440   11.0520   19.0890 C   0  0  0  0  0  0  0  0  0  0  0  0
   -0.9990   10.7930   19.4700 O   0  0  0  0  0  0  0  0  0  0  0  0
    1.8060   12.8270   18.3510 C   0  0  0  0  0  0  0  0  0  0  0  0
    3.0150   14.4420   19.0890 H   0  0  0  0  0  0  0  0  0  0  0  0
    1.0320   15.5590   18.3890 H   0  0  0  0  0  0  0  0  0  0  0  0
    1.0810   15.7300   20.1380 H   0  0  0  0  0  0  0  0  0  0  0  0
   -0.6070   13.9680   20.4140 H   0  0  0  0  0  0  0  0  0  0  0  0
   -1.2020   15.1510   19.2510 H   0  0  0  0  0  0  0  0  0  0  0  0
   -1.5960   12.8140   18.4620 H   0  0  0  0  0  0  0  0  0  0  0  0
   -0.5360   13.6880   17.3580 H   0  0  0  0  0  0  0  0  0  0  0  0
    1.8660   13.2330   17.3340 H   0  0  0  0  0  0  0  0  0  0  0  0
    2.5770   12.0600   18.4280 H   0  0  0  0  0  0  0  0  0  0  0  0
    2.2730   13.3890   20.7830 C   0  0  0  0  0  0  0  0  0  0  0  0
    3.3090   13.5240   21.1090 H   0  0  0  0  0  0  0  0  0  0  0  0
    2.0400   12.3210   20.8440 H   0  0  0  0  0  0  0  0  0  0  0  0
    1.6300   13.9140   21.4970 H   0  0  0  0  0  0  0  0  0  0  0  0
    2.9350    6.0690   18.9820 C   0  0  0  0  0  0  0  0  0  0  0  0
    2.4650    5.0050   19.7640 C   0  0  0  0  0  0  0  0  0  0  0  0
    3.1600    3.8060   19.7950 C   0  0  0  0  0  0  0  0  0  0  0  0
    4.2870    3.5780   19.0960 N   0  0  0  0  0  0  0  0  0  0  0  0
    4.7280    4.5990   18.3250 C   0  0  0  0  0  0  0  0  0  0  0  0
    4.0940    5.8380   18.2370 C   0  0  0  0  0  0  0  0  0  0  0  0
    1.5450    5.0960   20.3330 H   0  0  0  0  0  0  0  0  0  0  0  0
    2.8100    2.9720   20.3960 H   0  0  0  0  0  0  0  0  0  0  0  0
    4.5360    6.6120   17.6230 H   0  0  0  0  0  0  0  0  0  0  0  0
    5.9720    4.3370   17.5330 C   0  0  0  0  0  0  0  0  0  0  0  0
    7.1580    4.3340   18.2310 N   0  0  0  0  0  0  0  0  0  0  0  0
    5.9700    4.1540   16.3230 O   0  0  0  0  0  0  0  0  0  0  0  0
    7.9850    4.3330   17.6460 H   0  0  0  0  0  0  0  0  0  0  0  0
    7.2280    4.8210   19.1150 H   0  0  0  0  0  0  0  0  0  0  0  0
  1  7  1  0  0  0  0
  1  2  1  0  0  0  0
  2  3  1  0  0  0  0
  2  8  1  0  0  0  0
  3 10  1  0  0  0  0
  3 11  1  0  0  0  0
  4 37  1  0  0  0  0
  4  3  1  0  0  0  0
  5 12  1  0  0  0  0
  5  4  1  0  0  0  0
  6  5  1  0  0  0  0
  6  1  1  0  0  0  0
  9  2  1  0  0  0  0
 13  5  1  0  0  0  0
 14  6  1  0  0  0  0
 15  6  1  0  0  0  0
 16 24  1  6  0  0  0
 16 33  1  0  0  0  0
 17 16  1  0  0  0  0
 17 18  1  0  0  0  0
 17 26  1  0  0  0  0
 18 27  1  0  0  0  0
 19 29  1  0  0  0  0
 19 20  1  0  0  0  0
 19 18  1  0  0  0  0
 20 21  1  0  0  0  0
 21  1  1  0  0  0  0
 21 22  2  0  0  0  0
 23 32  1  0  0  0  0
 23 20  1  0  0  0  0
 23 16  1  0  0  0  0
 25 17  1  0  0  0  0
 28 18  1  0  0  0  0
 30 19  1  0  0  0  0
 31 23  1  0  0  0  0
 33 35  1  0  0  0  0
 33 34  1  0  0  0  0
 33 36  1  0  0  0  0
 37 38  1  0  0  0  0
 38 39  2  0  0  0  0
 38 43  1  0  0  0  0
 39 44  1  0  0  0  0
 40 39  1  0  0  0  0
 41 40  2  0  0  0  0
 42 41  1  0  0  0  0
 42 37  2  0  0  0  0
 45 42  1  0  0  0  0
 46 47  1  0  0  0  0
 46 41  1  0  0  0  0
 47 50  1  0  0  0  0
 48 46  2  0  0  0  0
 49 47  1  0  0  0  0
M  END
>  <MODEL>
9

>  <REMARK>
 VINA RESULT:    -7.055      2.302      8.726
 INTER + INTRA:          -9.117
 INTER:                  -8.582
 INTRA:                  -0.535
 UNBOUND:                -0.618
  Name = 
  4 active torsions:
  status: ('A' for Active; 'I' for Inactive)
    1  A    between atoms: C_1  and  C_2
    2  A    between atoms: C_7  and  C_9
    3  A    between atoms: N_12  and  C_13
    4  A    between atoms: C_17  and  C_18
                            x       y       z     vdW  Elec       q    Type
                         _______ _______ _______ _____ _____    ______ ____

>  <TORSDO>
F 4

$$$$
=
 OpenBabel07192307433D

 50 52  0  0  1  0  0  0  0  0999 V2000
    2.7250    6.8660   18.9530 C   0  0  0  0  0  0  0  0  0  0  0  0
    2.0400    7.7250   17.8790 C   0  0  0  0  0  0  0  0  0  0  0  0
    1.7650    9.1350   18.3930 C   0  0  0  0  0  0  0  0  0  0  0  0
    0.9680    9.0730   19.6340 N   0  0  0  0  0  0  0  0  0  0  0  0
    1.5820    8.2750   20.7040 C   0  0  0  0  0  0  0  0  0  0  0  0
    1.8500    6.8540   20.2120 C   0  0  0  0  0  0  0  0  0  0  0  0
    3.6960    7.3290   19.1610 H   0  0  0  0  0  0  0  0  0  0  0  0
    2.6690    7.7760   16.9830 H   0  0  0  0  0  0  0  0  0  0  0  0
    1.0920    7.2630   17.5730 H   0  0  0  0  0  0  0  0  0  0  0  0
    2.7120    9.6560   18.5870 H   0  0  0  0  0  0  0  0  0  0  0  0
    1.2510    9.6830   17.5960 H   0  0  0  0  0  0  0  0  0  0  0  0
    2.5220    8.7340   21.0360 H   0  0  0  0  0  0  0  0  0  0  0  0
    0.9080    8.2080   21.5680 H   0  0  0  0  0  0  0  0  0  0  0  0
    2.3160    6.2770   21.0170 H   0  0  0  0  0  0  0  0  0  0  0  0
    0.8970    6.3550   19.9920 H   0  0  0  0  0  0  0  0  0  0  0  0
    5.9520    5.9400   16.7260 C   0  0  2  0  0  0  0  0  0  0  0  0
    6.1470    4.5250   16.1530 C   0  0  0  0  0  0  0  0  0  0  0  0
    4.9270    3.6250   16.3700 C   0  0  0  0  0  0  0  0  0  0  0  0
    4.4960    3.6370   17.8340 C   0  0  0  0  0  0  0  0  0  0  0  0
    4.2690    5.0080   18.2880 N   0  0  0  0  0  0  0  0  0  0  0  0
    2.9560    5.4410   18.4490 C   0  0  0  0  0  0  0  0  0  0  0  0
    2.0000    4.6960   18.2270 O   0  0  0  0  0  0  0  0  0  0  0  0
    5.4460    5.8720   18.1770 C   0  0  0  0  0  0  0  0  0  0  0  0
    6.9280    6.4410   16.7300 H   0  0  0  0  0  0  0  0  0  0  0  0
    7.0120    4.0630   16.6480 H   0  0  0  0  0  0  0  0  0  0  0  0
    6.3890    4.5710   15.0840 H   0  0  0  0  0  0  0  0  0  0  0  0
    4.0990    3.9690   15.7380 H   0  0  0  0  0  0  0  0  0  0  0  0
    5.1620    2.6010   16.0600 H   0  0  0  0  0  0  0  0  0  0  0  0
    3.6040    3.0180   17.9670 H   0  0  0  0  0  0  0  0  0  0  0  0
    5.2830    3.2070   18.4660 H   0  0  0  0  0  0  0  0  0  0  0  0
    6.2220    5.4370   18.8180 H   0  0  0  0  0  0  0  0  0  0  0  0
    5.2570    6.8790   18.5530 H   0  0  0  0  0  0  0  0  0  0  0  0
    5.0240    6.7800   15.8430 C   0  0  0  0  0  0  0  0  0  0  0  0
    4.5790    6.1610   15.0570 H   0  0  0  0  0  0  0  0  0  0  0  0
    5.5500    7.6090   15.3580 H   0  0  0  0  0  0  0  0  0  0  0  0
    4.2070    7.2020   16.4360 H   0  0  0  0  0  0  0  0  0  0  0  0
    0.3730   10.2990   19.9850 C   0  0  0  0  0  0  0  0  0  0  0  0
    0.3010   11.3310   19.0390 C   0  0  0  0  0  0  0  0  0  0  0  0
   -0.2830   12.5430   19.3760 C   0  0  0  0  0  0  0  0  0  0  0  0
   -0.8130   12.8050   20.5840 N   0  0  0  0  0  0  0  0  0  0  0  0
   -0.7620   11.8010   21.4890 C   0  0  0  0  0  0  0  0  0  0  0  0
   -0.1920   10.5540   21.2370 C   0  0  0  0  0  0  0  0  0  0  0  0
    0.6770   11.1890   18.0310 H   0  0  0  0  0  0  0  0  0  0  0  0
   -0.3450   13.3520   18.6550 H   0  0  0  0  0  0  0  0  0  0  0  0
   -0.1620    9.8190   22.0320 H   0  0  0  0  0  0  0  0  0  0  0  0
   -1.3710   12.0890   22.8270 C   0  0  0  0  0  0  0  0  0  0  0  0
   -1.0260   13.2840   23.4170 N   0  0  0  0  0  0  0  0  0  0  0  0
   -2.1200   11.3120   23.4040 O   0  0  0  0  0  0  0  0  0  0  0  0
   -1.3080   13.3660   24.3860 H   0  0  0  0  0  0  0  0  0  0  0  0
   -0.1700   13.7520   23.1520 H   0  0  0  0  0  0  0  0  0  0  0  0
  1  7  1  0  0  0  0
  1  6  1  0  0  0  0
  2  3  1  0  0  0  0
  2  1  1  0  0  0  0
  3 10  1  0  0  0  0
  3  4  1  0  0  0  0
  4 37  1  0  0  0  0
  4  5  1  0  0  0  0
  5 12  1  0  0  0  0
  5 13  1  0  0  0  0
  6  5  1  0  0  0  0
  6 14  1  0  0  0  0
  8  2  1  0  0  0  0
  9  2  1  0  0  0  0
 11  3  1  0  0  0  0
 15  6  1  0  0  0  0
 16 24  1  1  0  0  0
 16 23  1  0  0  0  0
 17 18  1  0  0  0  0
 17 25  1  0  0  0  0
 17 16  1  0  0  0  0
 18 19  1  0  0  0  0
 19 29  1  0  0  0  0
 19 20  1  0  0  0  0
 19 30  1  0  0  0  0
 20 21  1  0  0  0  0
 21  1  1  0  0  0  0
 22 21  2  0  0  0  0
 23 20  1  0  0  0  0
 23 32  1  0  0  0  0
 23 31  1  0  0  0  0
 26 17  1  0  0  0  0
 27 18  1  0  0  0  0
 28 18  1  0  0  0  0
 33 36  1  0  0  0  0
 33 16  1  0  0  0  0
 34 33  1  0  0  0  0
 35 33  1  0  0  0  0
 37 42  1  0  0  0  0
 38 39  1  0  0  0  0
 38 37  2  0  0  0  0
 39 40  2  0  0  0  0
 40 41  1  0  0  0  0
 41 46  1  0  0  0  0
 42 41  2  0  0  0  0
 42 45  1  0  0  0  0
 43 38  1  0  0  0  0
 44 39  1  0  0  0  0
 46 48  2  0  0  0  0
 46 47  1  0  0  0  0
 47 49  1  0  0  0  0
 50 47  1  0  0  0  0
M  END
>  <MODEL>
10

>  <REMARK>
 VINA RESULT:    -7.045      1.630      2.809
 INTER + INTRA:          -9.104
 INTER:                  -8.411
 INTRA:                  -0.693
 UNBOUND:                -0.618
  Name = 
  4 active torsions:
  status: ('A' for Active; 'I' for Inactive)
    1  A    between atoms: C_1  and  C_2
    2  A    between atoms: C_7  and  C_9
    3  A    between atoms: N_12  and  C_13
    4  A    between atoms: C_17  and  C_18
                            x       y       z     vdW  Elec       q    Type
                         _______ _______ _______ _____ _____    ______ ____

>  <TORSDO>
F 4

$$$$
=
 OpenBabel07192307433D

 50 52  0  0  1  0  0  0  0  0999 V2000
    3.4790    6.6440   19.0680 C   0  0  0  0  0  0  0  0  0  0  0  0
    2.9330    7.3010   17.7920 C   0  0  0  0  0  0  0  0  0  0  0  0
    2.3450    8.6780   18.0870 C   0  0  0  0  0  0  0  0  0  0  0  0
    1.3090    8.5710   19.1330 N   0  0  0  0  0  0  0  0  0  0  0  0
    1.7790    7.9620   20.3850 C   0  0  0  0  0  0  0  0  0  0  0  0
    2.3560    6.5740   20.1100 C   0  0  0  0  0  0  0  0  0  0  0  0
    4.3000    7.2750   19.4260 H   0  0  0  0  0  0  0  0  0  0  0  0
    3.7320    7.3930   17.0470 H   0  0  0  0  0  0  0  0  0  0  0  0
    2.1550    6.6670   17.3430 H   0  0  0  0  0  0  0  0  0  0  0  0
    3.1380    9.3620   18.4200 H   0  0  0  0  0  0  0  0  0  0  0  0
    1.9470    9.0770   17.1470 H   0  0  0  0  0  0  0  0  0  0  0  0
    2.5430    8.5920   20.8570 H   0  0  0  0  0  0  0  0  0  0  0  0
    0.9470    7.8440   21.0910 H   0  0  0  0  0  0  0  0  0  0  0  0
    2.7100    6.1400   21.0500 H   0  0  0  0  0  0  0  0  0  0  0  0
    1.5600    5.9100   19.7480 H   0  0  0  0  0  0  0  0  0  0  0  0
    1.0160    3.4700   18.7570 C   0  0  2  0  0  0  0  0  0  0  0  0
    1.5700    2.0500   18.5390 C   0  0  0  0  0  0  0  0  0  0  0  0
    3.0960    1.9860   18.6450 C   0  0  0  0  0  0  0  0  0  0  0  0
    3.7470    3.0370   17.7500 C   0  0  0  0  0  0  0  0  0  0  0  0
    3.2190    4.3650   18.0580 N   0  0  0  0  0  0  0  0  0  0  0  0
    4.0240    5.2460   18.7750 C   0  0  0  0  0  0  0  0  0  0  0  0
    5.1570    4.9290   19.1420 O   0  0  0  0  0  0  0  0  0  0  0  0
    1.7700    4.4850   17.8800 C   0  0  0  0  0  0  0  0  0  0  0  0
   -0.0370    3.4740   18.4510 H   0  0  0  0  0  0  0  0  0  0  0  0
    1.2750    1.7090   17.5370 H   0  0  0  0  0  0  0  0  0  0  0  0
    1.1190    1.3480   19.2510 H   0  0  0  0  0  0  0  0  0  0  0  0
    3.4000    2.1470   19.6860 H   0  0  0  0  0  0  0  0  0  0  0  0
    3.4450    0.9880   18.3590 H   0  0  0  0  0  0  0  0  0  0  0  0
    4.8350    3.0030   17.8620 H   0  0  0  0  0  0  0  0  0  0  0  0
    3.5250    2.8310   16.6960 H   0  0  0  0  0  0  0  0  0  0  0  0
    1.5620    4.2840   16.8220 H   0  0  0  0  0  0  0  0  0  0  0  0
    1.4100    5.4930   18.0840 H   0  0  0  0  0  0  0  0  0  0  0  0
    1.0530    3.8660   20.2360 C   0  0  0  0  0  0  0  0  0  0  0  0
    0.5940    4.8490   20.3820 H   0  0  0  0  0  0  0  0  0  0  0  0
    2.0740    3.9120   20.6280 H   0  0  0  0  0  0  0  0  0  0  0  0
    0.4930    3.1460   20.8410 H   0  0  0  0  0  0  0  0  0  0  0  0
    0.4770    9.7020   19.2220 C   0  0  0  0  0  0  0  0  0  0  0  0
    0.7160   10.6620   20.2150 C   0  0  0  0  0  0  0  0  0  0  0  0
   -0.1000   11.7790   20.3110 C   0  0  0  0  0  0  0  0  0  0  0  0
   -1.1320   12.0220   19.4840 N   0  0  0  0  0  0  0  0  0  0  0  0
   -1.3480   11.1060   18.5120 C   0  0  0  0  0  0  0  0  0  0  0  0
   -0.5810    9.9530   18.3460 C   0  0  0  0  0  0  0  0  0  0  0  0
    1.5490   10.5560   20.9020 H   0  0  0  0  0  0  0  0  0  0  0  0
    0.0710   12.5320   21.0750 H   0  0  0  0  0  0  0  0  0  0  0  0
   -0.8470    9.2540   17.5630 H   0  0  0  0  0  0  0  0  0  0  0  0
   -2.4870   11.3890   17.5810 C   0  0  0  0  0  0  0  0  0  0  0  0
   -2.1760   11.5090   16.2470 N   0  0  0  0  0  0  0  0  0  0  0  0
   -3.6420   11.5340   17.9600 O   0  0  0  0  0  0  0  0  0  0  0  0
   -2.9300   11.8730   15.6750 H   0  0  0  0  0  0  0  0  0  0  0  0
   -1.2360   11.7500   15.9640 H   0  0  0  0  0  0  0  0  0  0  0  0
  1  7  1  0  0  0  0
  1  6  1  0  0  0  0
  2  3  1  0  0  0  0
  2  1  1  0  0  0  0
  3 10  1  0  0  0  0
  3  4  1  0  0  0  0
  4 37  1  0  0  0  0
  4  5  1  0  0  0  0
  5 12  1  0  0  0  0
  5 13  1  0  0  0  0
  6  5  1  0  0  0  0
  6 14  1  0  0  0  0
  8  2  1  0  0  0  0
  9  2  1  0  0  0  0
 11  3  1  0  0  0  0
 15  6  1  0  0  0  0
 16 24  1  6  0  0  0
 16 33  1  0  0  0  0
 17 18  1  0  0  0  0
 17 16  1  0  0  0  0
 17 26  1  0  0  0  0
 18 27  1  0  0  0  0
 19 29  1  0  0  0  0
 19 20  1  0  0  0  0
 19 18  1  0  0  0  0
 20 21  1  0  0  0  0
 21  1  1  0  0  0  0
 21 22  2  0  0  0  0
 23 20  1  0  0  0  0
 23 32  1  0  0  0  0
 23 16  1  0  0  0  0
 25 17  1  0  0  0  0
 28 18  1  0  0  0  0
 30 19  1  0  0  0  0
 31 23  1  0  0  0  0
 33 34  1  0  0  0  0
 33 35  1  0  0  0  0
 33 36  1  0  0  0  0
 37 38  1  0  0  0  0
 38 39  2  0  0  0  0
 38 43  1  0  0  0  0
 39 44  1  0  0  0  0
 40 39  1  0  0  0  0
 41 40  2  0  0  0  0
 42 41  1  0  0  0  0
 42 37  2  0  0  0  0
 45 42  1  0  0  0  0
 46 48  2  0  0  0  0
 46 41  1  0  0  0  0
 47 46  1  0  0  0  0
 49 47  1  0  0  0  0
 50 47  1  0  0  0  0
M  END
>  <MODEL>
11

>  <REMARK>
 VINA RESULT:    -6.998      2.004      2.723
 INTER + INTRA:          -9.048
 INTER:                  -9.654
 INTRA:                   0.606
 UNBOUND:                -0.618
  Name = 
  4 active torsions:
  status: ('A' for Active; 'I' for Inactive)
    1  A    between atoms: C_1  and  C_2
    2  A    between atoms: C_7  and  C_9
    3  A    between atoms: N_12  and  C_13
    4  A    between atoms: C_17  and  C_18
                            x       y       z     vdW  Elec       q    Type
                         _______ _______ _______ _____ _____    ______ ____

>  <TORSDO>
F 4

$$$$
=
 OpenBabel07192307433D

 50 52  0  0  1  0  0  0  0  0999 V2000
    1.2290    9.7650   19.2180 C   0  0  0  0  0  0  0  0  0  0  0  0
    0.9850    8.5580   20.1350 C   0  0  0  0  0  0  0  0  0  0  0  0
    2.1430    7.5660   20.0630 C   0  0  0  0  0  0  0  0  0  0  0  0
    2.3670    7.1540   18.6620 N   0  0  0  0  0  0  0  0  0  0  0  0
    2.6200    8.2690   17.7400 C   0  0  0  0  0  0  0  0  0  0  0  0
    1.4630    9.2640   17.7880 C   0  0  0  0  0  0  0  0  0  0  0  0
    2.1190   10.2800   19.5980 H   0  0  0  0  0  0  0  0  0  0  0  0
    0.8520    8.8930   21.1700 H   0  0  0  0  0  0  0  0  0  0  0  0
    0.0560    8.0460   19.8480 H   0  0  0  0  0  0  0  0  0  0  0  0
    3.0560    8.0240   20.4640 H   0  0  0  0  0  0  0  0  0  0  0  0
    1.8940    6.7180   20.7110 H   0  0  0  0  0  0  0  0  0  0  0  0
    3.5560    8.7790   18.0010 H   0  0  0  0  0  0  0  0  0  0  0  0
    2.7050    7.9030   16.7090 H   0  0  0  0  0  0  0  0  0  0  0  0
    1.6730   10.0920   17.1040 H   0  0  0  0  0  0  0  0  0  0  0  0
    0.5490    8.7840   17.4140 H   0  0  0  0  0  0  0  0  0  0  0  0
    1.7990   13.7530   19.3220 C   0  0  2  0  0  0  0  0  0  0  0  0
    0.6120   14.7250   19.4410 C   0  0  0  0  0  0  0  0  0  0  0  0
   -0.7170   14.0090   19.6950 C   0  0  0  0  0  0  0  0  0  0  0  0
   -0.9400   12.8980   18.6720 C   0  0  0  0  0  0  0  0  0  0  0  0
    0.1980   11.9800   18.6610 N   0  0  0  0  0  0  0  0  0  0  0  0
    0.0460   10.7330   19.2590 C   0  0  0  0  0  0  0  0  0  0  0  0
   -1.0180   10.3940   19.7820 O   0  0  0  0  0  0  0  0  0  0  0  0
    1.4730   12.6200   18.3330 C   0  0  0  0  0  0  0  0  0  0  0  0
    2.6570   14.3120   18.9270 H   0  0  0  0  0  0  0  0  0  0  0  0
    0.5280   15.2920   18.5050 H   0  0  0  0  0  0  0  0  0  0  0  0
    0.7940   15.4600   20.2350 H   0  0  0  0  0  0  0  0  0  0  0  0
   -0.7210   13.5860   20.7070 H   0  0  0  0  0  0  0  0  0  0  0  0
   -1.5420   14.7290   19.6460 H   0  0  0  0  0  0  0  0  0  0  0  0
   -1.8760   12.3730   18.8860 H   0  0  0  0  0  0  0  0  0  0  0  0
   -1.0310   13.3210   17.6640 H   0  0  0  0  0  0  0  0  0  0  0  0
    1.3720   13.0320   17.3210 H   0  0  0  0  0  0  0  0  0  0  0  0
    2.2980   11.9070   18.2990 H   0  0  0  0  0  0  0  0  0  0  0  0
    2.2150   13.2040   20.6900 C   0  0  0  0  0  0  0  0  0  0  0  0
    3.2950   13.3130   20.8350 H   0  0  0  0  0  0  0  0  0  0  0  0
    1.9670   12.1440   20.8050 H   0  0  0  0  0  0  0  0  0  0  0  0
    1.7170   13.7550   21.4940 H   0  0  0  0  0  0  0  0  0  0  0  0
    3.1600    5.9980   18.5340 C   0  0  0  0  0  0  0  0  0  0  0  0
    4.0470    5.8830   17.4560 C   0  0  0  0  0  0  0  0  0  0  0  0
    4.8320    4.7480   17.3210 C   0  0  0  0  0  0  0  0  0  0  0  0
    4.8100    3.7180   18.1850 N   0  0  0  0  0  0  0  0  0  0  0  0
    3.9680    3.8400   19.2380 C   0  0  0  0  0  0  0  0  0  0  0  0
    3.1420    4.9440   19.4490 C   0  0  0  0  0  0  0  0  0  0  0  0
    4.1490    6.6840   16.7300 H   0  0  0  0  0  0  0  0  0  0  0  0
    5.5240    4.6420   16.4900 H   0  0  0  0  0  0  0  0  0  0  0  0
    2.4720    4.9430   20.3000 H   0  0  0  0  0  0  0  0  0  0  0  0
    3.9600    2.7010   20.2100 C   0  0  0  0  0  0  0  0  0  0  0  0
    4.9930    1.7980   20.1110 N   0  0  0  0  0  0  0  0  0  0  0  0
    3.0800    2.5400   21.0470 O   0  0  0  0  0  0  0  0  0  0  0  0
    4.8620    0.9540   20.6560 H   0  0  0  0  0  0  0  0  0  0  0  0
    5.5020    1.7020   19.2420 H   0  0  0  0  0  0  0  0  0  0  0  0
  1 21  1  0  0  0  0
  1  7  1  0  0  0  0
  1  2  1  0  0  0  0
  2  8  1  0  0  0  0
  3  2  1  0  0  0  0
  3 10  1  0  0  0  0
  3 11  1  0  0  0  0
  4  3  1  0  0  0  0
  5  6  1  0  0  0  0
  5 12  1  0  0  0  0
  5  4  1  0  0  0  0
  6  1  1  0  0  0  0
  9  2  1  0  0  0  0
 13  5  1  0  0  0  0
 14  6  1  0  0  0  0
 15  6  1  0  0  0  0
 16 24  1  6  0  0  0
 16 17  1  0  0  0  0
 16 33  1  0  0  0  0
 17 18  1  0  0  0  0
 17 26  1  0  0  0  0
 18 27  1  0  0  0  0
 19 29  1  0  0  0  0
 19 18  1  0  0  0  0
 20 19  1  0  0  0  0
 20 21  1  0  0  0  0
 21 22  2  0  0  0  0
 23 20  1  0  0  0  0
 23 16  1  0  0  0  0
 25 17  1  0  0  0  0
 28 18  1  0  0  0  0
 30 19  1  0  0  0  0
 31 23  1  0  0  0  0
 32 23  1  0  0  0  0
 33 35  1  0  0  0  0
 33 34  1  0  0  0  0
 33 36  1  0  0  0  0
 37  4  1  0  0  0  0
 37 42  1  0  0  0  0
 38 37  2  0  0  0  0
 39 38  1  0  0  0  0
 39 40  2  0  0  0  0
 40 41  1  0  0  0  0
 41 42  2  0  0  0  0
 41 46  1  0  0  0  0
 42 45  1  0  0  0  0
 43 38  1  0  0  0  0
 44 39  1  0  0  0  0
 46 48  2  0  0  0  0
 47 46  1  0  0  0  0
 47 49  1  0  0  0  0
 50 47  1  0  0  0  0
M  END
>  <MODEL>
12

>  <REMARK>
 VINA RESULT:    -6.983      2.370      8.501
 INTER + INTRA:          -9.030
 INTER:                  -8.537
 INTRA:                  -0.493
 UNBOUND:                -0.618
  Name = 
  4 active torsions:
  status: ('A' for Active; 'I' for Inactive)
    1  A    between atoms: C_1  and  C_2
    2  A    between atoms: C_7  and  C_9
    3  A    between atoms: N_12  and  C_13
    4  A    between atoms: C_17  and  C_18
                            x       y       z     vdW  Elec       q    Type
                         _______ _______ _______ _____ _____    ______ ____

>  <TORSDO>
F 4

$$$$
=
 OpenBabel07192307433D

 50 52  0  0  1  0  0  0  0  0999 V2000
    1.2300   10.0280   19.1580 C   0  0  0  0  0  0  0  0  0  0  0  0
    0.8700    8.9330   20.1730 C   0  0  0  0  0  0  0  0  0  0  0  0
    1.9320    7.8370   20.2020 C   0  0  0  0  0  0  0  0  0  0  0  0
    2.1240    7.2840   18.8460 N   0  0  0  0  0  0  0  0  0  0  0  0
    2.4850    8.2870   17.8340 C   0  0  0  0  0  0  0  0  0  0  0  0
    1.4240    9.3840   17.7800 C   0  0  0  0  0  0  0  0  0  0  0  0
    2.1620   10.4900   19.5040 H   0  0  0  0  0  0  0  0  0  0  0  0
    0.7640    9.3690   21.1730 H   0  0  0  0  0  0  0  0  0  0  0  0
   -0.1010    8.4860   19.9190 H   0  0  0  0  0  0  0  0  0  0  0  0
    2.8820    8.2430   20.5750 H   0  0  0  0  0  0  0  0  0  0  0  0
    1.6020    7.0760   20.9180 H   0  0  0  0  0  0  0  0  0  0  0  0
    3.4630    8.7290   18.0620 H   0  0  0  0  0  0  0  0  0  0  0  0
    2.5400    7.8260   16.8400 H   0  0  0  0  0  0  0  0  0  0  0  0
    1.7140   10.1270   17.0300 H   0  0  0  0  0  0  0  0  0  0  0  0
    0.4720    8.9590   17.4370 H   0  0  0  0  0  0  0  0  0  0  0  0
    2.1520   13.9470   19.3300 C   0  0  2  0  0  0  0  0  0  0  0  0
    1.0530   15.0250   19.3480 C   0  0  0  0  0  0  0  0  0  0  0  0
   -0.3540   14.4340   19.4810 C   0  0  0  0  0  0  0  0  0  0  0  0
   -0.5860   13.3440   18.4370 C   0  0  0  0  0  0  0  0  0  0  0  0
    0.4600   12.3260   18.5220 N   0  0  0  0  0  0  0  0  0  0  0  0
    0.1420   11.1000   19.0990 C   0  0  0  0  0  0  0  0  0  0  0  0
   -0.9900   10.8630   19.5250 O   0  0  0  0  0  0  0  0  0  0  0  0
    1.8120   12.8450   18.3100 C   0  0  0  0  0  0  0  0  0  0  0  0
    3.0880   14.4230   19.0140 H   0  0  0  0  0  0  0  0  0  0  0  0
    1.1040   15.5940   18.4100 H   0  0  0  0  0  0  0  0  0  0  0  0
    1.2310   15.7430   20.1580 H   0  0  0  0  0  0  0  0  0  0  0  0
   -0.4850   14.0170   20.4860 H   0  0  0  0  0  0  0  0  0  0  0  0
   -1.1010   15.2260   19.3620 H   0  0  0  0  0  0  0  0  0  0  0  0
   -1.5810   12.9090   18.5650 H   0  0  0  0  0  0  0  0  0  0  0  0
   -0.5490   13.7710   17.4270 H   0  0  0  0  0  0  0  0  0  0  0  0
    1.8380   13.2610   17.2960 H   0  0  0  0  0  0  0  0  0  0  0  0
    2.5680   12.0600   18.3460 H   0  0  0  0  0  0  0  0  0  0  0  0
    2.3940   13.3680   20.7260 C   0  0  0  0  0  0  0  0  0  0  0  0
    1.4500   13.2830   21.2760 H   0  0  0  0  0  0  0  0  0  0  0  0
    3.0720   13.9880   21.3210 H   0  0  0  0  0  0  0  0  0  0  0  0
    2.8280   12.3660   20.6580 H   0  0  0  0  0  0  0  0  0  0  0  0
    2.8070    6.0540   18.8290 C   0  0  0  0  0  0  0  0  0  0  0  0
    4.2020    6.0350   18.9580 C   0  0  0  0  0  0  0  0  0  0  0  0
    4.8840    4.8270   18.9420 C   0  0  0  0  0  0  0  0  0  0  0  0
    4.2810    3.6320   18.8170 N   0  0  0  0  0  0  0  0  0  0  0  0
    2.9320    3.6510   18.7130 C   0  0  0  0  0  0  0  0  0  0  0  0
    2.1680    4.8180   18.7180 C   0  0  0  0  0  0  0  0  0  0  0  0
    4.7620    6.9540   19.0960 H   0  0  0  0  0  0  0  0  0  0  0  0
    5.9650    4.7950   19.0400 H   0  0  0  0  0  0  0  0  0  0  0  0
    1.0950    4.7430   18.5940 H   0  0  0  0  0  0  0  0  0  0  0  0
    2.2620    2.3170   18.5930 C   0  0  0  0  0  0  0  0  0  0  0  0
    3.0850    1.2170   18.5170 N   0  0  0  0  0  0  0  0  0  0  0  0
    1.0460    2.1800   18.5390 O   0  0  0  0  0  0  0  0  0  0  0  0
    2.6110    0.3600   18.2600 H   0  0  0  0  0  0  0  0  0  0  0  0
    4.0410    1.3200   18.2030 H   0  0  0  0  0  0  0  0  0  0  0  0
  1  7  1  0  0  0  0
  1  2  1  0  0  0  0
  2  3  1  0  0  0  0
  2  8  1  0  0  0  0
  3 10  1  0  0  0  0
  3 11  1  0  0  0  0
  4  3  1  0  0  0  0
  5 12  1  0  0  0  0
  5  4  1  0  0  0  0
  6  5  1  0  0  0  0
  6  1  1  0  0  0  0
  9  2  1  0  0  0  0
 13  5  1  0  0  0  0
 14  6  1  0  0  0  0
 15  6  1  0  0  0  0
 16 24  1  6  0  0  0
 16 17  1  0  0  0  0
 16 33  1  0  0  0  0
 17 18  1  0  0  0  0
 17 26  1  0  0  0  0
 18 27  1  0  0  0  0
 19 20  1  0  0  0  0
 19 29  1  0  0  0  0
 19 18  1  0  0  0  0
 20 21  1  0  0  0  0
 21  1  1  0  0  0  0
 21 22  2  0  0  0  0
 23 32  1  0  0  0  0
 23 20  1  0  0  0  0
 23 16  1  0  0  0  0
 25 17  1  0  0  0  0
 28 18  1  0  0  0  0
 30 19  1  0  0  0  0
 31 23  1  0  0  0  0
 33 34  1  0  0  0  0
 33 35  1  0  0  0  0
 36 33  1  0  0  0  0
 37  4  1  0  0  0  0
 37 38  1  0  0  0  0
 38 43  1  0  0  0  0
 39 38  2  0  0  0  0
 39 44  1  0  0  0  0
 40 39  1  0  0  0  0
 41 42  1  0  0  0  0
 41 40  2  0  0  0  0
 42 37  2  0  0  0  0
 45 42  1  0  0  0  0
 46 41  1  0  0  0  0
 47 46  1  0  0  0  0
 48 46  2  0  0  0  0
 49 47  1  0  0  0  0
 50 47  1  0  0  0  0
M  END
>  <MODEL>
13

>  <REMARK>
 VINA RESULT:    -6.950      2.299      8.611
 INTER + INTRA:          -8.990
 INTER:                  -8.453
 INTRA:                  -0.538
 UNBOUND:                -0.618
  Name = 
  4 active torsions:
  status: ('A' for Active; 'I' for Inactive)
    1  A    between atoms: C_1  and  C_2
    2  A    between atoms: C_7  and  C_9
    3  A    between atoms: N_12  and  C_13
    4  A    between atoms: C_17  and  C_18
                            x       y       z     vdW  Elec       q    Type
                         _______ _______ _______ _____ _____    ______ ____

>  <TORSDO>
F 4

$$$$
=
 OpenBabel07192307433D

 50 52  0  0  1  0  0  0  0  0999 V2000
    2.7230    7.0060   18.9360 C   0  0  0  0  0  0  0  0  0  0  0  0
    2.1060    7.7790   17.7620 C   0  0  0  0  0  0  0  0  0  0  0  0
    1.8310    9.2320   18.1400 C   0  0  0  0  0  0  0  0  0  0  0  0
    0.9760    9.2880   19.3420 N   0  0  0  0  0  0  0  0  0  0  0  0
    1.5240    8.5760   20.5040 C   0  0  0  0  0  0  0  0  0  0  0  0
    1.7900    7.1140   20.1480 C   0  0  0  0  0  0  0  0  0  0  0  0
    3.6920    7.4720   19.1510 H   0  0  0  0  0  0  0  0  0  0  0  0
    2.7770    7.7450   16.8960 H   0  0  0  0  0  0  0  0  0  0  0  0
    1.1650    7.3050   17.4500 H   0  0  0  0  0  0  0  0  0  0  0  0
    2.7780    9.7550   18.3340 H   0  0  0  0  0  0  0  0  0  0  0  0
    1.3650    9.7170   17.2750 H   0  0  0  0  0  0  0  0  0  0  0  0
    2.4560    9.0480   20.8410 H   0  0  0  0  0  0  0  0  0  0  0  0
    0.8100    8.5920   21.3370 H   0  0  0  0  0  0  0  0  0  0  0  0
    2.2080    6.6020   21.0200 H   0  0  0  0  0  0  0  0  0  0  0  0
    0.8400    6.6110   19.9250 H   0  0  0  0  0  0  0  0  0  0  0  0
    5.9480    5.8740   16.8020 C   0  0  2  0  0  0  0  0  0  0  0  0
    6.1410    4.4110   16.3640 C   0  0  0  0  0  0  0  0  0  0  0  0
    4.9200    3.5370   16.6640 C   0  0  0  0  0  0  0  0  0  0  0  0
    4.4900    3.6850   18.1210 C   0  0  0  0  0  0  0  0  0  0  0  0
    4.2650    5.0920   18.4450 N   0  0  0  0  0  0  0  0  0  0  0  0
    2.9530    5.5400   18.5670 C   0  0  0  0  0  0  0  0  0  0  0  0
    1.9960    4.7790   18.4160 O   0  0  0  0  0  0  0  0  0  0  0  0
    5.4430    5.9420   18.2540 C   0  0  0  0  0  0  0  0  0  0  0  0
    6.9250    6.3720   16.7600 H   0  0  0  0  0  0  0  0  0  0  0  0
    7.0060    3.9960   16.8990 H   0  0  0  0  0  0  0  0  0  0  0  0
    6.3820    4.3570   15.2950 H   0  0  0  0  0  0  0  0  0  0  0  0
    4.0920    3.8220   16.0040 H   0  0  0  0  0  0  0  0  0  0  0  0
    5.1540    2.4880   16.4510 H   0  0  0  0  0  0  0  0  0  0  0  0
    3.5980    3.0820   18.3120 H   0  0  0  0  0  0  0  0  0  0  0  0
    5.2780    3.3150   18.7900 H   0  0  0  0  0  0  0  0  0  0  0  0
    6.2190    5.5670   18.9320 H   0  0  0  0  0  0  0  0  0  0  0  0
    5.2560    6.9790   18.5350 H   0  0  0  0  0  0  0  0  0  0  0  0
    5.0200    6.6290   15.8460 C   0  0  0  0  0  0  0  0  0  0  0  0
    4.1740    5.9980   15.5540 H   0  0  0  0  0  0  0  0  0  0  0  0
    5.5330    6.9430   14.9310 H   0  0  0  0  0  0  0  0  0  0  0  0
    4.6150    7.5230   16.3290 H   0  0  0  0  0  0  0  0  0  0  0  0
    0.3870   10.5470   19.5580 C   0  0  0  0  0  0  0  0  0  0  0  0
   -0.8510   10.8430   18.9710 C   0  0  0  0  0  0  0  0  0  0  0  0
   -1.4380   12.0830   19.1780 C   0  0  0  0  0  0  0  0  0  0  0  0
   -0.8920   13.0500   19.9350 N   0  0  0  0  0  0  0  0  0  0  0  0
    0.2930   12.7550   20.5190 C   0  0  0  0  0  0  0  0  0  0  0  0
    0.9550   11.5370   20.3630 C   0  0  0  0  0  0  0  0  0  0  0  0
   -1.3740   10.1050   18.3710 H   0  0  0  0  0  0  0  0  0  0  0  0
   -2.3960   12.3280   18.7300 H   0  0  0  0  0  0  0  0  0  0  0  0
    1.9180   11.3990   20.8370 H   0  0  0  0  0  0  0  0  0  0  0  0
    0.8900   13.8270   21.3770 C   0  0  0  0  0  0  0  0  0  0  0  0
    2.2030   14.1550   21.1310 N   0  0  0  0  0  0  0  0  0  0  0  0
    0.2750   14.3860   22.2760 O   0  0  0  0  0  0  0  0  0  0  0  0
    2.6240   14.7470   21.8370 H   0  0  0  0  0  0  0  0  0  0  0  0
    2.8140   13.4920   20.6720 H   0  0  0  0  0  0  0  0  0  0  0  0
  1  7  1  0  0  0  0
  1  6  1  0  0  0  0
  2  3  1  0  0  0  0
  2  1  1  0  0  0  0
  3 10  1  0  0  0  0
  3  4  1  0  0  0  0
  4 37  1  0  0  0  0
  4  5  1  0  0  0  0
  5 12  1  0  0  0  0
  5 13  1  0  0  0  0
  6  5  1  0  0  0  0
  6 14  1  0  0  0  0
  8  2  1  0  0  0  0
  9  2  1  0  0  0  0
 11  3  1  0  0  0  0
 15  6  1  0  0  0  0
 16 24  1  6  0  0  0
 16 23  1  0  0  0  0
 17 18  1  0  0  0  0
 17 16  1  0  0  0  0
 17 25  1  0  0  0  0
 18 19  1  0  0  0  0
 19 29  1  0  0  0  0
 19 20  1  0  0  0  0
 19 30  1  0  0  0  0
 20 21  1  0  0  0  0
 21  1  1  0  0  0  0
 22 21  2  0  0  0  0
 23 20  1  0  0  0  0
 23 32  1  0  0  0  0
 23 31  1  0  0  0  0
 26 17  1  0  0  0  0
 27 18  1  0  0  0  0
 28 18  1  0  0  0  0
 33 36  1  0  0  0  0
 33 16  1  0  0  0  0
 34 33  1  0  0  0  0
 35 33  1  0  0  0  0
 37 42  1  0  0  0  0
 38 39  1  0  0  0  0
 38 37  2  0  0  0  0
 39 40  2  0  0  0  0
 40 41  1  0  0  0  0
 41 46  1  0  0  0  0
 42 41  2  0  0  0  0
 42 45  1  0  0  0  0
 43 38  1  0  0  0  0
 44 39  1  0  0  0  0
 46 48  2  0  0  0  0
 47 46  1  0  0  0  0
 47 49  1  0  0  0  0
 50 47  1  0  0  0  0
M  END
>  <MODEL>
14

>  <REMARK>
 VINA RESULT:    -6.665      1.827      2.991
 INTER + INTRA:          -8.647
 INTER:                  -7.996
 INTRA:                  -0.651
 UNBOUND:                -0.618
  Name = 
  4 active torsions:
  status: ('A' for Active; 'I' for Inactive)
    1  A    between atoms: C_1  and  C_2
    2  A    between atoms: C_7  and  C_9
    3  A    between atoms: N_12  and  C_13
    4  A    between atoms: C_17  and  C_18
                            x       y       z     vdW  Elec       q    Type
                         _______ _______ _______ _____ _____    ______ ____

>  <TORSDO>
F 4

$$$$
=
 OpenBabel07192307433D

 50 52  0  0  1  0  0  0  0  0999 V2000
   -0.2290   11.1390   21.2930 C   0  0  0  0  0  0  0  0  0  0  0  0
    0.7860   11.0970   20.1410 C   0  0  0  0  0  0  0  0  0  0  0  0
    0.8910    9.6950   19.5470 C   0  0  0  0  0  0  0  0  0  0  0  0
    1.2260    8.7220   20.6070 N   0  0  0  0  0  0  0  0  0  0  0  0
    0.2790    8.7070   21.7310 C   0  0  0  0  0  0  0  0  0  0  0  0
    0.1740   10.1010   22.3480 C   0  0  0  0  0  0  0  0  0  0  0  0
   -1.2080   10.8950   20.8650 H   0  0  0  0  0  0  0  0  0  0  0  0
    0.4940   11.8070   19.3580 H   0  0  0  0  0  0  0  0  0  0  0  0
    1.7760   11.4110   20.4970 H   0  0  0  0  0  0  0  0  0  0  0  0
   -0.0610    9.4150   19.0750 H   0  0  0  0  0  0  0  0  0  0  0  0
    1.6480    9.7260   18.7570 H   0  0  0  0  0  0  0  0  0  0  0  0
   -0.7120    8.3770   21.3950 H   0  0  0  0  0  0  0  0  0  0  0  0
    0.6240    8.0200   22.5140 H   0  0  0  0  0  0  0  0  0  0  0  0
   -0.5410   10.0740   23.1750 H   0  0  0  0  0  0  0  0  0  0  0  0
    1.1400   10.3820   22.7880 H   0  0  0  0  0  0  0  0  0  0  0  0
   -3.7390   12.7330   22.4630 C   0  0  2  0  0  0  0  0  0  0  0  0
   -3.8190   14.1670   23.0170 C   0  0  0  0  0  0  0  0  0  0  0  0
   -2.4950   14.9250   22.8890 C   0  0  0  0  0  0  0  0  0  0  0  0
   -1.3420   14.1100   23.4710 C   0  0  0  0  0  0  0  0  0  0  0  0
   -1.2920   12.7870   22.8530 N   0  0  0  0  0  0  0  0  0  0  0  0
   -0.2960   12.5340   21.9140 C   0  0  0  0  0  0  0  0  0  0  0  0
    0.5340   13.3930   21.6090 O   0  0  0  0  0  0  0  0  0  0  0  0
   -2.5130   11.9990   23.0350 C   0  0  0  0  0  0  0  0  0  0  0  0
   -4.6380   12.1940   22.7880 H   0  0  0  0  0  0  0  0  0  0  0  0
   -4.0900   14.1170   24.0800 H   0  0  0  0  0  0  0  0  0  0  0  0
   -4.6180   14.7290   22.5180 H   0  0  0  0  0  0  0  0  0  0  0  0
   -2.2960   15.1450   21.8330 H   0  0  0  0  0  0  0  0  0  0  0  0
   -2.5670   15.8880   23.4080 H   0  0  0  0  0  0  0  0  0  0  0  0
   -0.3990   14.6490   23.3420 H   0  0  0  0  0  0  0  0  0  0  0  0
   -1.4850   13.9650   24.5490 H   0  0  0  0  0  0  0  0  0  0  0  0
   -2.6410   11.8550   24.1150 H   0  0  0  0  0  0  0  0  0  0  0  0
   -2.4350   11.0050   22.5930 H   0  0  0  0  0  0  0  0  0  0  0  0
   -3.7400   12.7220   20.9320 C   0  0  0  0  0  0  0  0  0  0  0  0
   -4.6610   13.1710   20.5450 H   0  0  0  0  0  0  0  0  0  0  0  0
   -3.6650   11.7090   20.5240 H   0  0  0  0  0  0  0  0  0  0  0  0
   -2.8990   13.3040   20.5420 H   0  0  0  0  0  0  0  0  0  0  0  0
    1.6840    7.4860   20.1140 C   0  0  0  0  0  0  0  0  0  0  0  0
    2.4470    7.4480   18.9400 C   0  0  0  0  0  0  0  0  0  0  0  0
    2.9020    6.2350   18.4470 C   0  0  0  0  0  0  0  0  0  0  0  0
    2.6640    5.0520   19.0400 N   0  0  0  0  0  0  0  0  0  0  0  0
    1.9450    5.0920   20.1860 C   0  0  0  0  0  0  0  0  0  0  0  0
    1.4460    6.2660   20.7500 C   0  0  0  0  0  0  0  0  0  0  0  0
    2.7110    8.3620   18.4170 H   0  0  0  0  0  0  0  0  0  0  0  0
    3.4940    6.1880   17.5380 H   0  0  0  0  0  0  0  0  0  0  0  0
    0.8490    6.2030   21.6510 H   0  0  0  0  0  0  0  0  0  0  0  0
    1.6980    3.7750   20.8550 C   0  0  0  0  0  0  0  0  0  0  0  0
    0.6930    2.9960   20.3300 N   0  0  0  0  0  0  0  0  0  0  0  0
    2.3240    3.3940   21.8350 O   0  0  0  0  0  0  0  0  0  0  0  0
    0.4350    2.2040   20.9070 H   0  0  0  0  0  0  0  0  0  0  0  0
   -0.0460    3.4200   19.7850 H   0  0  0  0  0  0  0  0  0  0  0  0
  1 21  1  0  0  0  0
  1  6  1  0  0  0  0
  2  9  1  0  0  0  0
  2  1  1  0  0  0  0
  3  2  1  0  0  0  0
  3  4  1  0  0  0  0
  4  5  1  0  0  0  0
  5  6  1  0  0  0  0
  5 13  1  0  0  0  0
  6 15  1  0  0  0  0
  6 14  1  0  0  0  0
  7  1  1  0  0  0  0
  8  2  1  0  0  0  0
 10  3  1  0  0  0  0
 11  3  1  0  0  0  0
 12  5  1  0  0  0  0
 16 24  1  1  0  0  0
 16 17  1  0  0  0  0
 16 23  1  0  0  0  0
 17 25  1  0  0  0  0
 18 17  1  0  0  0  0
 18 28  1  0  0  0  0
 18 19  1  0  0  0  0
 19 30  1  0  0  0  0
 20 23  1  0  0  0  0
 20 19  1  0  0  0  0
 21 20  1  0  0  0  0
 22 21  2  0  0  0  0
 23 31  1  0  0  0  0
 26 17  1  0  0  0  0
 27 18  1  0  0  0  0
 29 19  1  0  0  0  0
 32 23  1  0  0  0  0
 33 16  1  0  0  0  0
 34 33  1  0  0  0  0
 35 33  1  0  0  0  0
 36 33  1  0  0  0  0
 37  4  1  0  0  0  0
 37 42  1  0  0  0  0
 38 37  2  0  0  0  0
 39 38  1  0  0  0  0
 39 40  2  0  0  0  0
 40 41  1  0  0  0  0
 41 42  2  0  0  0  0
 41 46  1  0  0  0  0
 42 45  1  0  0  0  0
 43 38  1  0  0  0  0
 44 39  1  0  0  0  0
 46 48  2  0  0  0  0
 47 46  1  0  0  0  0
 47 49  1  0  0  0  0
 50 47  1  0  0  0  0
M  END
>  <MODEL>
15

>  <REMARK>
 VINA RESULT:    -6.661      2.143      8.763
 INTER + INTRA:          -8.642
 INTER:                  -8.200
 INTRA:                  -0.442
 UNBOUND:                -0.618
  Name = 
  4 active torsions:
  status: ('A' for Active; 'I' for Inactive)
    1  A    between atoms: C_1  and  C_2
    2  A    between atoms: C_7  and  C_9
    3  A    between atoms: N_12  and  C_13
    4  A    between atoms: C_17  and  C_18
                            x       y       z     vdW  Elec       q    Type
                         _______ _______ _______ _____ _____    ______ ____

>  <TORSDO>
F 4

$$$$
=
 OpenBabel07192307433D

 50 52  0  0  1  0  0  0  0  0999 V2000
    0.9950    8.1710   20.4370 C   0  0  0  0  0  0  0  0  0  0  0  0
    2.0220    8.6910   19.4210 C   0  0  0  0  0  0  0  0  0  0  0  0
    2.4140    7.6030   18.4250 C   0  0  0  0  0  0  0  0  0  0  0  0
    2.9110    6.4140   19.1460 N   0  0  0  0  0  0  0  0  0  0  0  0
    1.9630    5.8630   20.1240 C   0  0  0  0  0  0  0  0  0  0  0  0
    1.5720    6.9350   21.1390 C   0  0  0  0  0  0  0  0  0  0  0  0
    0.0920    7.9090   19.8730 H   0  0  0  0  0  0  0  0  0  0  0  0
    1.6130    9.5530   18.8820 H   0  0  0  0  0  0  0  0  0  0  0  0
    2.9240    9.0430   19.9410 H   0  0  0  0  0  0  0  0  0  0  0  0
    1.5470    7.3270   17.8090 H   0  0  0  0  0  0  0  0  0  0  0  0
    3.1680    8.0260   17.7520 H   0  0  0  0  0  0  0  0  0  0  0  0
    1.0630    5.4880   19.6180 H   0  0  0  0  0  0  0  0  0  0  0  0
    2.4190    5.0310   20.6750 H   0  0  0  0  0  0  0  0  0  0  0  0
    0.8580    6.5110   21.8520 H   0  0  0  0  0  0  0  0  0  0  0  0
    2.4530    7.2250   21.7260 H   0  0  0  0  0  0  0  0  0  0  0  0
   -0.4520   11.7480   19.2770 C   0  0  2  0  0  0  0  0  0  0  0  0
   -0.7360   12.8630   20.3000 C   0  0  0  0  0  0  0  0  0  0  0  0
   -0.2410   12.5160   21.7070 C   0  0  0  0  0  0  0  0  0  0  0  0
   -0.7550   11.1460   22.1410 C   0  0  0  0  0  0  0  0  0  0  0  0
   -0.3940   10.1300   21.1540 N   0  0  0  0  0  0  0  0  0  0  0  0
    0.6410    9.2500   21.4600 C   0  0  0  0  0  0  0  0  0  0  0  0
    1.2400    9.3100   22.5360 O   0  0  0  0  0  0  0  0  0  0  0  0
   -0.9270   10.3870   19.8150 C   0  0  0  0  0  0  0  0  0  0  0  0
   -1.0220   11.9700   18.3660 H   0  0  0  0  0  0  0  0  0  0  0  0
   -1.8210   13.0300   20.3430 H   0  0  0  0  0  0  0  0  0  0  0  0
   -0.2880   13.8090   19.9720 H   0  0  0  0  0  0  0  0  0  0  0  0
    0.8550   12.5220   21.7240 H   0  0  0  0  0  0  0  0  0  0  0  0
   -0.5780   13.2800   22.4160 H   0  0  0  0  0  0  0  0  0  0  0  0
   -0.3670   10.8970   23.1330 H   0  0  0  0  0  0  0  0  0  0  0  0
   -1.8490   11.1560   22.2170 H   0  0  0  0  0  0  0  0  0  0  0  0
   -2.0210   10.3870   19.9030 H   0  0  0  0  0  0  0  0  0  0  0  0
   -0.6700    9.5970   19.1080 H   0  0  0  0  0  0  0  0  0  0  0  0
    1.0270   11.7120   18.8810 C   0  0  0  0  0  0  0  0  0  0  0  0
    1.4480   10.7170   19.0580 H   0  0  0  0  0  0  0  0  0  0  0  0
    1.6260   12.4340   19.4470 H   0  0  0  0  0  0  0  0  0  0  0  0
    1.1460   11.9380   17.8170 H   0  0  0  0  0  0  0  0  0  0  0  0
    3.6150    5.5100   18.3280 C   0  0  0  0  0  0  0  0  0  0  0  0
    2.9410    4.4220   17.7590 C   0  0  0  0  0  0  0  0  0  0  0  0
    3.6260    3.5260   16.9520 C   0  0  0  0  0  0  0  0  0  0  0  0
    4.9340    3.6360   16.6590 N   0  0  0  0  0  0  0  0  0  0  0  0
    5.5790    4.6990   17.1920 C   0  0  0  0  0  0  0  0  0  0  0  0
    4.9690    5.6460   18.0150 C   0  0  0  0  0  0  0  0  0  0  0  0
    1.8770    4.2790   17.9210 H   0  0  0  0  0  0  0  0  0  0  0  0
    3.1190    2.6770   16.5040 H   0  0  0  0  0  0  0  0  0  0  0  0
    5.5690    6.4460   18.4290 H   0  0  0  0  0  0  0  0  0  0  0  0
    7.0300    4.8300   16.8480 C   0  0  0  0  0  0  0  0  0  0  0  0
    7.3300    5.4910   15.6790 N   0  0  0  0  0  0  0  0  0  0  0  0
    7.9280    4.3640   17.5380 O   0  0  0  0  0  0  0  0  0  0  0  0
    8.2970    5.4060   15.3880 H   0  0  0  0  0  0  0  0  0  0  0  0
    6.6390    5.5580   14.9430 H   0  0  0  0  0  0  0  0  0  0  0  0
  1  6  1  0  0  0  0
  1 21  1  0  0  0  0
  2  9  1  0  0  0  0
  2  1  1  0  0  0  0
  3  4  1  0  0  0  0
  3  2  1  0  0  0  0
  4  5  1  0  0  0  0
  5 13  1  0  0  0  0
  5  6  1  0  0  0  0
  6 15  1  0  0  0  0
  6 14  1  0  0  0  0
  7  1  1  0  0  0  0
  8  2  1  0  0  0  0
 10  3  1  0  0  0  0
 11  3  1  0  0  0  0
 12  5  1  0  0  0  0
 16 24  1  6  0  0  0
 16 23  1  0  0  0  0
 16 17  1  0  0  0  0
 17 25  1  0  0  0  0
 17 18  1  0  0  0  0
 18 27  1  0  0  0  0
 18 19  1  0  0  0  0
 18 28  1  0  0  0  0
 19 30  1  0  0  0  0
 19 29  1  0  0  0  0
 20 21  1  0  0  0  0
 20 19  1  0  0  0  0
 21 22  2  0  0  0  0
 23 31  1  0  0  0  0
 23 20  1  0  0  0  0
 26 17  1  0  0  0  0
 32 23  1  0  0  0  0
 33 34  1  0  0  0  0
 33 16  1  0  0  0  0
 33 35  1  0  0  0  0
 36 33  1  0  0  0  0
 37  4  1  0  0  0  0
 38 43  1  0  0  0  0
 38 37  2  0  0  0  0
 39 38  1  0  0  0  0
 40 39  2  0  0  0  0
 40 41  1  0  0  0  0
 41 42  2  0  0  0  0
 42 37  1  0  0  0  0
 42 45  1  0  0  0  0
 44 39  1  0  0  0  0
 46 41  1  0  0  0  0
 46 48  2  0  0  0  0
 47 46  1  0  0  0  0
 49 47  1  0  0  0  0
 50 47  1  0  0  0  0
M  END
>  <MODEL>
16

>  <REMARK>
 VINA RESULT:    -6.586      2.255      8.528
 INTER + INTRA:          -8.553
 INTER:                  -8.269
 INTRA:                  -0.284
 UNBOUND:                -0.618
  Name = 
  4 active torsions:
  status: ('A' for Active; 'I' for Inactive)
    1  A    between atoms: C_1  and  C_2
    2  A    between atoms: C_7  and  C_9
    3  A    between atoms: N_12  and  C_13
    4  A    between atoms: C_17  and  C_18
                            x       y       z     vdW  Elec       q    Type
                         _______ _______ _______ _____ _____    ______ ____

>  <TORSDO>
F 4

$$$$
=
 OpenBabel07192307433D

 50 52  0  0  1  0  0  0  0  0999 V2000
    1.0430    9.3050   19.2960 C   0  0  0  0  0  0  0  0  0  0  0  0
    2.0240    9.4690   18.1250 C   0  0  0  0  0  0  0  0  0  0  0  0
    2.3920    8.1180   17.5180 C   0  0  0  0  0  0  0  0  0  0  0  0
    2.9320    7.2260   18.5640 N   0  0  0  0  0  0  0  0  0  0  0  0
    2.0290    7.0190   19.7040 C   0  0  0  0  0  0  0  0  0  0  0  0
    1.6630    8.3620   20.3340 C   0  0  0  0  0  0  0  0  0  0  0  0
    0.1240    8.8750   18.8830 H   0  0  0  0  0  0  0  0  0  0  0  0
    1.5830   10.1110   17.3540 H   0  0  0  0  0  0  0  0  0  0  0  0
    2.9400    9.9710   18.4670 H   0  0  0  0  0  0  0  0  0  0  0  0
    1.5060    7.6580   17.0610 H   0  0  0  0  0  0  0  0  0  0  0  0
    3.1140    8.3010   16.7150 H   0  0  0  0  0  0  0  0  0  0  0  0
    1.1160    6.5010   19.3840 H   0  0  0  0  0  0  0  0  0  0  0  0
    2.5170    6.4100   20.4750 H   0  0  0  0  0  0  0  0  0  0  0  0
    0.9820    8.1910   21.1740 H   0  0  0  0  0  0  0  0  0  0  0  0
    2.5620    8.8260   20.7600 H   0  0  0  0  0  0  0  0  0  0  0  0
   -2.5370   11.0610   18.7190 C   0  0  2  0  0  0  0  0  0  0  0  0
   -2.8420   12.4570   19.2920 C   0  0  0  0  0  0  0  0  0  0  0  0
   -1.6090   13.1270   19.9070 C   0  0  0  0  0  0  0  0  0  0  0  0
   -0.9250   12.1950   20.9040 C   0  0  0  0  0  0  0  0  0  0  0  0
   -0.6100   10.9150   20.2710 N   0  0  0  0  0  0  0  0  0  0  0  0
    0.7150   10.6560   19.9290 C   0  0  0  0  0  0  0  0  0  0  0  0
    1.6100   11.4730   20.1550 O   0  0  0  0  0  0  0  0  0  0  0  0
   -1.7800   10.2060   19.7510 C   0  0  0  0  0  0  0  0  0  0  0  0
   -3.4920   10.5670   18.5040 H   0  0  0  0  0  0  0  0  0  0  0  0
   -3.6080   12.3560   20.0720 H   0  0  0  0  0  0  0  0  0  0  0  0
   -3.2690   13.1060   18.5180 H   0  0  0  0  0  0  0  0  0  0  0  0
   -0.9040   13.4020   19.1130 H   0  0  0  0  0  0  0  0  0  0  0  0
   -1.9050   14.0550   20.4090 H   0  0  0  0  0  0  0  0  0  0  0  0
   -0.0280   12.6740   21.3090 H   0  0  0  0  0  0  0  0  0  0  0  0
   -1.5900   11.9880   21.7510 H   0  0  0  0  0  0  0  0  0  0  0  0
   -2.4330    9.9990   20.6070 H   0  0  0  0  0  0  0  0  0  0  0  0
   -1.5200    9.2410   19.3150 H   0  0  0  0  0  0  0  0  0  0  0  0
   -1.7740   11.1530   17.3940 C   0  0  0  0  0  0  0  0  0  0  0  0
   -0.8520   10.5630   17.4410 H   0  0  0  0  0  0  0  0  0  0  0  0
   -1.4990   12.1830   17.1440 H   0  0  0  0  0  0  0  0  0  0  0  0
   -2.3790   10.7580   16.5730 H   0  0  0  0  0  0  0  0  0  0  0  0
    3.6160    6.1070   18.0530 C   0  0  0  0  0  0  0  0  0  0  0  0
    2.9170    4.9150   17.8200 C   0  0  0  0  0  0  0  0  0  0  0  0
    3.5830    3.8060   17.3180 C   0  0  0  0  0  0  0  0  0  0  0  0
    4.8930    3.7960   17.0180 N   0  0  0  0  0  0  0  0  0  0  0  0
    5.5620    4.9540   17.2240 C   0  0  0  0  0  0  0  0  0  0  0  0
    4.9740    6.1140   17.7280 C   0  0  0  0  0  0  0  0  0  0  0  0
    1.8490    4.8490   18.0060 H   0  0  0  0  0  0  0  0  0  0  0  0
    3.0560    2.8750   17.1330 H   0  0  0  0  0  0  0  0  0  0  0  0
    5.5920    6.9860   17.8950 H   0  0  0  0  0  0  0  0  0  0  0  0
    7.0180    4.9460   16.8710 C   0  0  0  0  0  0  0  0  0  0  0  0
    7.3700    5.5630   15.6930 N   0  0  0  0  0  0  0  0  0  0  0  0
    7.8720    4.4060   17.5620 O   0  0  0  0  0  0  0  0  0  0  0  0
    8.3240    5.3850   15.3990 H   0  0  0  0  0  0  0  0  0  0  0  0
    6.6850    5.6850   14.9590 H   0  0  0  0  0  0  0  0  0  0  0  0
  1 21  1  0  0  0  0
  1  6  1  0  0  0  0
  2  9  1  0  0  0  0
  2  1  1  0  0  0  0
  3  2  1  0  0  0  0
  3  4  1  0  0  0  0
  4  5  1  0  0  0  0
  5  6  1  0  0  0  0
  5 13  1  0  0  0  0
  6 15  1  0  0  0  0
  6 14  1  0  0  0  0
  7  1  1  0  0  0  0
  8  2  1  0  0  0  0
 10  3  1  0  0  0  0
 11  3  1  0  0  0  0
 12  5  1  0  0  0  0
 16 24  1  6  0  0  0
 16 17  1  0  0  0  0
 16 23  1  0  0  0  0
 17 18  1  0  0  0  0
 17 25  1  0  0  0  0
 18 28  1  0  0  0  0
 18 19  1  0  0  0  0
 19 29  1  0  0  0  0
 19 30  1  0  0  0  0
 20 19  1  0  0  0  0
 21 22  2  0  0  0  0
 21 20  1  0  0  0  0
 23 20  1  0  0  0  0
 23 31  1  0  0  0  0
 26 17  1  0  0  0  0
 27 18  1  0  0  0  0
 32 23  1  0  0  0  0
 33 34  1  0  0  0  0
 33 16  1  0  0  0  0
 35 33  1  0  0  0  0
 36 33  1  0  0  0  0
 37  4  1  0  0  0  0
 38 43  1  0  0  0  0
 38 37  1  0  0  0  0
 39 38  2  0  0  0  0
 40 41  2  0  0  0  0
 40 39  1  0  0  0  0
 41 42  1  0  0  0  0
 42 45  1  0  0  0  0
 42 37  2  0  0  0  0
 44 39  1  0  0  0  0
 46 41  1  0  0  0  0
 46 48  2  0  0  0  0
 47 46  1  0  0  0  0
 49 47  1  0  0  0  0
 50 47  1  0  0  0  0
M  END
>  <MODEL>
17

>  <REMARK>
 VINA RESULT:    -6.498      2.466      8.564
 INTER + INTRA:          -8.446
 INTER:                  -7.823
 INTRA:                  -0.623
 UNBOUND:                -0.618
  Name = 
  4 active torsions:
  status: ('A' for Active; 'I' for Inactive)
    1  A    between atoms: C_1  and  C_2
    2  A    between atoms: C_7  and  C_9
    3  A    between atoms: N_12  and  C_13
    4  A    between atoms: C_17  and  C_18
                            x       y       z     vdW  Elec       q    Type
                         _______ _______ _______ _____ _____    ______ ____

>  <TORSDO>
F 4

$$$$
=
 OpenBabel07192307433D

 50 52  0  0  1  0  0  0  0  0999 V2000
    1.0240   10.0340   19.4510 C   0  0  0  0  0  0  0  0  0  0  0  0
    1.8470    9.8810   18.1630 C   0  0  0  0  0  0  0  0  0  0  0  0
    1.8950    8.4250   17.7080 C   0  0  0  0  0  0  0  0  0  0  0  0
    2.4170    7.5740   18.7960 N   0  0  0  0  0  0  0  0  0  0  0  0
    1.6580    7.6680   20.0510 C   0  0  0  0  0  0  0  0  0  0  0  0
    1.6140    9.1180   20.5300 C   0  0  0  0  0  0  0  0  0  0  0  0
   -0.0030    9.7380   19.2100 H   0  0  0  0  0  0  0  0  0  0  0  0
    1.4180   10.5010   17.3680 H   0  0  0  0  0  0  0  0  0  0  0  0
    2.8730   10.2410   18.3250 H   0  0  0  0  0  0  0  0  0  0  0  0
    0.8890    8.0870   17.4230 H   0  0  0  0  0  0  0  0  0  0  0  0
    2.5190    8.3800   16.8090 H   0  0  0  0  0  0  0  0  0  0  0  0
    0.6360    7.2950   19.9120 H   0  0  0  0  0  0  0  0  0  0  0  0
    2.1380    7.0710   20.8360 H   0  0  0  0  0  0  0  0  0  0  0  0
    1.0370    9.1720   21.4580 H   0  0  0  0  0  0  0  0  0  0  0  0
    2.6290    9.4540   20.7810 H   0  0  0  0  0  0  0  0  0  0  0  0
   -2.4320   12.0260   20.0250 C   0  0  2  0  0  0  0  0  0  0  0  0
   -2.4380   13.5110   20.4300 C   0  0  0  0  0  0  0  0  0  0  0  0
   -1.0430   14.1400   20.3980 C   0  0  0  0  0  0  0  0  0  0  0  0
   -0.0480   13.2960   21.1910 C   0  0  0  0  0  0  0  0  0  0  0  0
   -0.0520   11.9160   20.7090 N   0  0  0  0  0  0  0  0  0  0  0  0
    1.0180   11.4870   19.9280 C   0  0  0  0  0  0  0  0  0  0  0  0
    1.9540   12.2380   19.6500 O   0  0  0  0  0  0  0  0  0  0  0  0
   -1.3550   11.2560   20.8090 C   0  0  0  0  0  0  0  0  0  0  0  0
   -3.4090   11.5990   20.2840 H   0  0  0  0  0  0  0  0  0  0  0  0
   -2.8340   13.5930   21.4520 H   0  0  0  0  0  0  0  0  0  0  0  0
   -3.1180   14.0830   19.7870 H   0  0  0  0  0  0  0  0  0  0  0  0
   -0.7040   14.2320   19.3590 H   0  0  0  0  0  0  0  0  0  0  0  0
   -1.0840   15.1530   20.8130 H   0  0  0  0  0  0  0  0  0  0  0  0
    0.9510   13.7390   21.1310 H   0  0  0  0  0  0  0  0  0  0  0  0
   -0.3270   13.2750   22.2520 H   0  0  0  0  0  0  0  0  0  0  0  0
   -1.6190   11.2340   21.8730 H   0  0  0  0  0  0  0  0  0  0  0  0
   -1.3200   10.2180   20.4740 H   0  0  0  0  0  0  0  0  0  0  0  0
   -2.2570   11.8570   18.5130 C   0  0  0  0  0  0  0  0  0  0  0  0
   -3.1750   12.1380   17.9870 H   0  0  0  0  0  0  0  0  0  0  0  0
   -2.0140   10.8270   18.2350 H   0  0  0  0  0  0  0  0  0  0  0  0
   -1.4540   12.5030   18.1440 H   0  0  0  0  0  0  0  0  0  0  0  0
    2.8250    6.2970   18.3670 C   0  0  0  0  0  0  0  0  0  0  0  0
    4.0160    6.1570   17.6430 C   0  0  0  0  0  0  0  0  0  0  0  0
    4.4260    4.9030   17.2160 C   0  0  0  0  0  0  0  0  0  0  0  0
    3.7440    3.7710   17.4630 N   0  0  0  0  0  0  0  0  0  0  0  0
    2.6050    3.9050   18.1810 C   0  0  0  0  0  0  0  0  0  0  0  0
    2.1180    5.1260   18.6470 C   0  0  0  0  0  0  0  0  0  0  0  0
    4.6420    7.0180   17.4280 H   0  0  0  0  0  0  0  0  0  0  0  0
    5.3460    4.7780   16.6530 H   0  0  0  0  0  0  0  0  0  0  0  0
    1.1780    5.1460   19.1840 H   0  0  0  0  0  0  0  0  0  0  0  0
    1.8570    2.6400   18.4720 C   0  0  0  0  0  0  0  0  0  0  0  0
    2.5660    1.4660   18.3640 N   0  0  0  0  0  0  0  0  0  0  0  0
    0.6700    2.6170   18.7710 O   0  0  0  0  0  0  0  0  0  0  0  0
    1.9940    0.6300   18.3910 H   0  0  0  0  0  0  0  0  0  0  0  0
    3.3990    1.4270   17.7910 H   0  0  0  0  0  0  0  0  0  0  0  0
  1 21  1  0  0  0  0
  1  6  1  0  0  0  0
  2  9  1  0  0  0  0
  2  1  1  0  0  0  0
  3  2  1  0  0  0  0
  3  4  1  0  0  0  0
  4  5  1  0  0  0  0
  5  6  1  0  0  0  0
  5 13  1  0  0  0  0
  6 15  1  0  0  0  0
  6 14  1  0  0  0  0
  7  1  1  0  0  0  0
  8  2  1  0  0  0  0
 10  3  1  0  0  0  0
 11  3  1  0  0  0  0
 12  5  1  0  0  0  0
 16 24  1  1  0  0  0
 16 17  1  0  0  0  0
 16 23  1  0  0  0  0
 17 25  1  0  0  0  0
 18 17  1  0  0  0  0
 18 28  1  0  0  0  0
 18 19  1  0  0  0  0
 19 30  1  0  0  0  0
 20 23  1  0  0  0  0
 20 19  1  0  0  0  0
 21 20  1  0  0  0  0
 22 21  2  0  0  0  0
 23 31  1  0  0  0  0
 26 17  1  0  0  0  0
 27 18  1  0  0  0  0
 29 19  1  0  0  0  0
 32 23  1  0  0  0  0
 33 16  1  0  0  0  0
 34 33  1  0  0  0  0
 35 33  1  0  0  0  0
 36 33  1  0  0  0  0
 37 42  1  0  0  0  0
 37  4  1  0  0  0  0
 38 37  2  0  0  0  0
 39 40  2  0  0  0  0
 39 38  1  0  0  0  0
 40 41  1  0  0  0  0
 41 46  1  0  0  0  0
 41 42  2  0  0  0  0
 42 45  1  0  0  0  0
 43 38  1  0  0  0  0
 44 39  1  0  0  0  0
 46 48  2  0  0  0  0
 47 49  1  0  0  0  0
 47 46  1  0  0  0  0
 50 47  1  0  0  0  0
M  END
>  <MODEL>
18

>  <REMARK>
 VINA RESULT:    -6.491      2.112      8.435
 INTER + INTRA:          -8.438
 INTER:                  -7.841
 INTRA:                  -0.597
 UNBOUND:                -0.618
  Name = 
  4 active torsions:
  status: ('A' for Active; 'I' for Inactive)
    1  A    between atoms: C_1  and  C_2
    2  A    between atoms: C_7  and  C_9
    3  A    between atoms: N_12  and  C_13
    4  A    between atoms: C_17  and  C_18
                            x       y       z     vdW  Elec       q    Type
                         _______ _______ _______ _____ _____    ______ ____

>  <TORSDO>
F 4

$$$$
=
 OpenBabel07192307433D

 50 52  0  0  1  0  0  0  0  0999 V2000
    1.2700    9.3410   19.0280 C   0  0  0  0  0  0  0  0  0  0  0  0
    2.2790    8.5820   18.1530 C   0  0  0  0  0  0  0  0  0  0  0  0
    2.1320    7.0720   18.3240 C   0  0  0  0  0  0  0  0  0  0  0  0
    2.2620    6.7110   19.7500 N   0  0  0  0  0  0  0  0  0  0  0  0
    1.3110    7.3980   20.6340 C   0  0  0  0  0  0  0  0  0  0  0  0
    1.4560    8.9110   20.4880 C   0  0  0  0  0  0  0  0  0  0  0  0
    0.2710    9.0720   18.6690 H   0  0  0  0  0  0  0  0  0  0  0  0
    2.1370    8.8490   17.0990 H   0  0  0  0  0  0  0  0  0  0  0  0
    3.3050    8.8750   18.4170 H   0  0  0  0  0  0  0  0  0  0  0  0
    1.1530    6.7450   17.9470 H   0  0  0  0  0  0  0  0  0  0  0  0
    2.8960    6.5930   17.7020 H   0  0  0  0  0  0  0  0  0  0  0  0
    0.2810    7.1010   20.3960 H   0  0  0  0  0  0  0  0  0  0  0  0
    1.5080    7.1420   21.6830 H   0  0  0  0  0  0  0  0  0  0  0  0
    0.7340    9.4060   21.1440 H   0  0  0  0  0  0  0  0  0  0  0  0
    2.4490    9.2210   20.8380 H   0  0  0  0  0  0  0  0  0  0  0  0
   -1.7850   11.8810   19.7000 C   0  0  2  0  0  0  0  0  0  0  0  0
   -1.6230   13.3970   19.4850 C   0  0  0  0  0  0  0  0  0  0  0  0
   -0.2860   13.7640   18.8360 C   0  0  0  0  0  0  0  0  0  0  0  0
    0.8780   13.1290   19.5910 C   0  0  0  0  0  0  0  0  0  0  0  0
    0.6860   11.6840   19.7000 N   0  0  0  0  0  0  0  0  0  0  0  0
    1.4530   10.8530   18.8880 C   0  0  0  0  0  0  0  0  0  0  0  0
    2.2820   11.3100   18.0990 O   0  0  0  0  0  0  0  0  0  0  0  0
   -0.5430   11.2990   20.3970 C   0  0  0  0  0  0  0  0  0  0  0  0
   -2.6480   11.7220   20.3570 H   0  0  0  0  0  0  0  0  0  0  0  0
   -1.6860   13.8970   20.4600 H   0  0  0  0  0  0  0  0  0  0  0  0
   -2.4500   13.7900   18.8800 H   0  0  0  0  0  0  0  0  0  0  0  0
   -0.2780   13.4260   17.7920 H   0  0  0  0  0  0  0  0  0  0  0  0
   -0.1690   14.8540   18.8210 H   0  0  0  0  0  0  0  0  0  0  0  0
    1.8230   13.3720   19.0970 H   0  0  0  0  0  0  0  0  0  0  0  0
    0.9350   13.5310   20.6100 H   0  0  0  0  0  0  0  0  0  0  0  0
   -0.4700   11.6990   21.4150 H   0  0  0  0  0  0  0  0  0  0  0  0
   -0.6430   10.2170   20.4930 H   0  0  0  0  0  0  0  0  0  0  0  0
   -2.0850   11.1570   18.3840 C   0  0  0  0  0  0  0  0  0  0  0  0
   -2.3980   10.1250   18.5770 H   0  0  0  0  0  0  0  0  0  0  0  0
   -1.2150   11.1230   17.7210 H   0  0  0  0  0  0  0  0  0  0  0  0
   -2.8980   11.6550   17.8470 H   0  0  0  0  0  0  0  0  0  0  0  0
    2.4910    5.3390   19.9660 C   0  0  0  0  0  0  0  0  0  0  0  0
    2.0770    4.7480   21.1660 C   0  0  0  0  0  0  0  0  0  0  0  0
    2.2990    3.3970   21.3880 C   0  0  0  0  0  0  0  0  0  0  0  0
    2.8960    2.5840   20.4990 N   0  0  0  0  0  0  0  0  0  0  0  0
    3.2760    3.1510   19.3310 C   0  0  0  0  0  0  0  0  0  0  0  0
    3.0950    4.5000   19.0260 C   0  0  0  0  0  0  0  0  0  0  0  0
    1.5590    5.3290   21.9230 H   0  0  0  0  0  0  0  0  0  0  0  0
    1.9850    2.9240   22.3130 H   0  0  0  0  0  0  0  0  0  0  0  0
    3.4630    4.8790   18.0820 H   0  0  0  0  0  0  0  0  0  0  0  0
    3.9230    2.2390   18.3350 C   0  0  0  0  0  0  0  0  0  0  0  0
    4.6030    2.8390   17.3000 N   0  0  0  0  0  0  0  0  0  0  0  0
    3.8480    1.0180   18.3960 O   0  0  0  0  0  0  0  0  0  0  0  0
    4.8720    2.2050   16.5560 H   0  0  0  0  0  0  0  0  0  0  0  0
    4.3820    3.7880   17.0300 H   0  0  0  0  0  0  0  0  0  0  0  0
  1  6  1  0  0  0  0
  2  3  1  0  0  0  0
  2  9  1  0  0  0  0
  2  1  1  0  0  0  0
  3  4  1  0  0  0  0
  4 37  1  0  0  0  0
  4  5  1  0  0  0  0
  5 13  1  0  0  0  0
  6  5  1  0  0  0  0
  6 15  1  0  0  0  0
  6 14  1  0  0  0  0
  7  1  1  0  0  0  0
  8  2  1  0  0  0  0
 10  3  1  0  0  0  0
 11  3  1  0  0  0  0
 12  5  1  0  0  0  0
 16 24  1  1  0  0  0
 16 23  1  0  0  0  0
 17 16  1  0  0  0  0
 17 25  1  0  0  0  0
 18 17  1  0  0  0  0
 18 19  1  0  0  0  0
 19 20  1  0  0  0  0
 19 30  1  0  0  0  0
 20 23  1  0  0  0  0
 21  1  1  0  0  0  0
 21 20  1  0  0  0  0
 22 21  2  0  0  0  0
 23 32  1  0  0  0  0
 23 31  1  0  0  0  0
 26 17  1  0  0  0  0
 27 18  1  0  0  0  0
 28 18  1  0  0  0  0
 29 19  1  0  0  0  0
 33 34  1  0  0  0  0
 33 16  1  0  0  0  0
 35 33  1  0  0  0  0
 36 33  1  0  0  0  0
 37 38  1  0  0  0  0
 38 39  2  0  0  0  0
 38 43  1  0  0  0  0
 39 44  1  0  0  0  0
 40 39  1  0  0  0  0
 41 40  2  0  0  0  0
 42 41  1  0  0  0  0
 42 37  2  0  0  0  0
 45 42  1  0  0  0  0
 46 48  2  0  0  0  0
 46 41  1  0  0  0  0
 47 46  1  0  0  0  0
 49 47  1  0  0  0  0
 50 47  1  0  0  0  0
M  END
>  <MODEL>
19

>  <REMARK>
 VINA RESULT:    -6.475      2.304      8.542
 INTER + INTRA:          -8.419
 INTER:                  -8.168
 INTRA:                  -0.250
 UNBOUND:                -0.618
  Name = 
  4 active torsions:
  status: ('A' for Active; 'I' for Inactive)
    1  A    between atoms: C_1  and  C_2
    2  A    between atoms: C_7  and  C_9
    3  A    between atoms: N_12  and  C_13
    4  A    between atoms: C_17  and  C_18
                            x       y       z     vdW  Elec       q    Type
                         _______ _______ _______ _____ _____    ______ ____

>  <TORSDO>
F 4

$$$$
=
 OpenBabel07192307433D

 50 52  0  0  1  0  0  0  0  0999 V2000
    2.2860    6.9040   19.8490 C   0  0  0  0  0  0  0  0  0  0  0  0
    1.9950    7.3280   18.4020 C   0  0  0  0  0  0  0  0  0  0  0  0
    1.9680    8.8480   18.2660 C   0  0  0  0  0  0  0  0  0  0  0  0
    0.9900    9.4220   19.2120 N   0  0  0  0  0  0  0  0  0  0  0  0
    1.2270    9.0610   20.6160 C   0  0  0  0  0  0  0  0  0  0  0  0
    1.2410    7.5410   20.7730 C   0  0  0  0  0  0  0  0  0  0  0  0
    3.2910    7.2680   20.0920 H   0  0  0  0  0  0  0  0  0  0  0  0
    2.7540    6.9120   17.7290 H   0  0  0  0  0  0  0  0  0  0  0  0
    1.0280    6.9220   18.0750 H   0  0  0  0  0  0  0  0  0  0  0  0
    2.9660    9.2620   18.4690 H   0  0  0  0  0  0  0  0  0  0  0  0
    1.7260    9.0840   17.2240 H   0  0  0  0  0  0  0  0  0  0  0  0
    2.1810    9.4760   20.9640 H   0  0  0  0  0  0  0  0  0  0  0  0
    0.4270    9.4560   21.2550 H   0  0  0  0  0  0  0  0  0  0  0  0
    1.4300    7.2900   21.8210 H   0  0  0  0  0  0  0  0  0  0  0  0
    0.2480    7.1380   20.5360 H   0  0  0  0  0  0  0  0  0  0  0  0
    5.0460    4.6070   18.0220 C   0  0  2  0  0  0  0  0  0  0  0  0
    4.9820    3.0700   18.0980 C   0  0  0  0  0  0  0  0  0  0  0  0
    3.6970    2.5640   18.7580 C   0  0  0  0  0  0  0  0  0  0  0  0
    3.4680    3.2500   20.1020 C   0  0  0  0  0  0  0  0  0  0  0  0
    3.4800    4.7030   19.9400 N   0  0  0  0  0  0  0  0  0  0  0  0
    2.2660    5.3820   19.9880 C   0  0  0  0  0  0  0  0  0  0  0  0
    1.2020    4.7870   20.1690 O   0  0  0  0  0  0  0  0  0  0  0  0
    4.7320    5.2300   19.3930 C   0  0  0  0  0  0  0  0  0  0  0  0
    6.0700    4.8900   17.7480 H   0  0  0  0  0  0  0  0  0  0  0  0
    5.8390    2.7130   18.6840 H   0  0  0  0  0  0  0  0  0  0  0  0
    5.0840    2.6310   17.0980 H   0  0  0  0  0  0  0  0  0  0  0  0
    2.8430    2.7530   18.0960 H   0  0  0  0  0  0  0  0  0  0  0  0
    3.7570    1.4790   18.9010 H   0  0  0  0  0  0  0  0  0  0  0  0
    2.5310    2.9030   20.5460 H   0  0  0  0  0  0  0  0  0  0  0  0
    4.2710    2.9910   20.8030 H   0  0  0  0  0  0  0  0  0  0  0  0
    5.5240    4.9710   20.1060 H   0  0  0  0  0  0  0  0  0  0  0  0
    4.7240    6.3180   19.3150 H   0  0  0  0  0  0  0  0  0  0  0  0
    4.1240    5.1540   16.9290 C   0  0  0  0  0  0  0  0  0  0  0  0
    3.7610    4.3410   16.2910 H   0  0  0  0  0  0  0  0  0  0  0  0
    4.6280    5.8830   16.2870 H   0  0  0  0  0  0  0  0  0  0  0  0
    3.2510    5.6430   17.3710 H   0  0  0  0  0  0  0  0  0  0  0  0
    0.6400   10.7540   18.9240 C   0  0  0  0  0  0  0  0  0  0  0  0
   -0.7050   11.0890   18.7200 C   0  0  0  0  0  0  0  0  0  0  0  0
   -1.0590   12.3990   18.4350 C   0  0  0  0  0  0  0  0  0  0  0  0
   -0.1740   13.4080   18.3460 N   0  0  0  0  0  0  0  0  0  0  0  0
    1.1220   13.0880   18.5640 C   0  0  0  0  0  0  0  0  0  0  0  0
    1.5660   11.7970   18.8530 C   0  0  0  0  0  0  0  0  0  0  0  0
   -1.4850   10.3390   18.8050 H   0  0  0  0  0  0  0  0  0  0  0  0
   -2.0970   12.6750   18.2730 H   0  0  0  0  0  0  0  0  0  0  0  0
    2.6270   11.6230   18.9780 H   0  0  0  0  0  0  0  0  0  0  0  0
    2.1030   14.2170   18.4840 C   0  0  0  0  0  0  0  0  0  0  0  0
    3.2100   14.0170   17.6920 N   0  0  0  0  0  0  0  0  0  0  0  0
    1.9670   15.2670   19.0990 O   0  0  0  0  0  0  0  0  0  0  0  0
    3.9320   14.7200   17.8010 H   0  0  0  0  0  0  0  0  0  0  0  0
    3.5190   13.0780   17.4800 H   0  0  0  0  0  0  0  0  0  0  0  0
  1 21  1  0  0  0  0
  1  7  1  0  0  0  0
  1  6  1  0  0  0  0
  2  1  1  0  0  0  0
  3  2  1  0  0  0  0
  3 10  1  0  0  0  0
  3  4  1  0  0  0  0
  4  5  1  0  0  0  0
  5  6  1  0  0  0  0
  5 12  1  0  0  0  0
  5 13  1  0  0  0  0
  6 14  1  0  0  0  0
  8  2  1  0  0  0  0
  9  2  1  0  0  0  0
 11  3  1  0  0  0  0
 15  6  1  0  0  0  0
 16 24  1  6  0  0  0
 16 17  1  0  0  0  0
 16 23  1  0  0  0  0
 17 25  1  0  0  0  0
 17 18  1  0  0  0  0
 18 28  1  0  0  0  0
 18 19  1  0  0  0  0
 19 29  1  0  0  0  0
 19 30  1  0  0  0  0
 20 21  1  0  0  0  0
 20 19  1  0  0  0  0
 21 22  2  0  0  0  0
 23 20  1  0  0  0  0
 23 31  1  0  0  0  0
 26 17  1  0  0  0  0
 27 18  1  0  0  0  0
 32 23  1  0  0  0  0
 33 36  1  0  0  0  0
 33 16  1  0  0  0  0
 34 33  1  0  0  0  0
 35 33  1  0  0  0  0
 37  4  1  0  0  0  0
 38 43  1  0  0  0  0
 38 37  2  0  0  0  0
 39 38  1  0  0  0  0
 40 39  2  0  0  0  0
 40 41  1  0  0  0  0
 41 42  2  0  0  0  0
 42 37  1  0  0  0  0
 42 45  1  0  0  0  0
 44 39  1  0  0  0  0
 46 41  1  0  0  0  0
 46 48  2  0  0  0  0
 47 49  1  0  0  0  0
 47 46  1  0  0  0  0
 50 47  1  0  0  0  0
M  END
>  <MODEL>
20

>  <REMARK>
 VINA RESULT:    -6.428      2.365      3.307
 INTER + INTRA:          -8.362
 INTER:                  -7.877
 INTRA:                  -0.485
 UNBOUND:                -0.618
  Name = 
  4 active torsions:
  status: ('A' for Active; 'I' for Inactive)
    1  A    between atoms: C_1  and  C_2
    2  A    between atoms: C_7  and  C_9
    3  A    between atoms: N_12  and  C_13
    4  A    between atoms: C_17  and  C_18
                            x       y       z     vdW  Elec       q    Type
                         _______ _______ _______ _____ _____    ______ ____

>  <TORSDO>
F 4

$$$$
=
 OpenBabel07192307433D

 50 52  0  0  1  0  0  0  0  0999 V2000
    0.7260   10.3350   20.0190 C   0  0  0  0  0  0  0  0  0  0  0  0
    1.6350    9.8720   18.8710 C   0  0  0  0  0  0  0  0  0  0  0  0
    1.6200    8.3520   18.7330 C   0  0  0  0  0  0  0  0  0  0  0  0
    1.9950    7.7250   20.0160 N   0  0  0  0  0  0  0  0  0  0  0  0
    1.1480    8.1210   21.1500 C   0  0  0  0  0  0  0  0  0  0  0  0
    1.1650    9.6390   21.3130 C   0  0  0  0  0  0  0  0  0  0  0  0
   -0.2970   10.0460   19.7520 H   0  0  0  0  0  0  0  0  0  0  0  0
    1.3140   10.3310   17.9290 H   0  0  0  0  0  0  0  0  0  0  0  0
    2.6670   10.2060   19.0480 H   0  0  0  0  0  0  0  0  0  0  0  0
    0.6190    8.0120   18.4330 H   0  0  0  0  0  0  0  0  0  0  0  0
    2.3090    8.0860   17.9230 H   0  0  0  0  0  0  0  0  0  0  0  0
    0.1170    7.7770   20.9980 H   0  0  0  0  0  0  0  0  0  0  0  0
    1.5230    7.6800   22.0820 H   0  0  0  0  0  0  0  0  0  0  0  0
    0.5220    9.9170   22.1540 H   0  0  0  0  0  0  0  0  0  0  0  0
    2.1770    9.9690   21.5810 H   0  0  0  0  0  0  0  0  0  0  0  0
   -2.6240   12.4880   20.6350 C   0  0  2  0  0  0  0  0  0  0  0  0
   -2.5790   14.0250   20.7230 C   0  0  0  0  0  0  0  0  0  0  0  0
   -1.2030   14.5980   20.3730 C   0  0  0  0  0  0  0  0  0  0  0  0
   -0.1060   13.9090   21.1800 C   0  0  0  0  0  0  0  0  0  0  0  0
   -0.1720   12.4610   20.9970 N   0  0  0  0  0  0  0  0  0  0  0  0
    0.7810   11.8540   20.1830 C   0  0  0  0  0  0  0  0  0  0  0  0
    1.6680   12.5090   19.6320 O   0  0  0  0  0  0  0  0  0  0  0  0
   -1.4460   11.8680   21.4070 C   0  0  0  0  0  0  0  0  0  0  0  0
   -3.5550   12.1480   21.1060 H   0  0  0  0  0  0  0  0  0  0  0  0
   -2.8300   14.3240   21.7500 H   0  0  0  0  0  0  0  0  0  0  0  0
   -3.3430   14.4700   20.0740 H   0  0  0  0  0  0  0  0  0  0  0  0
   -1.0110   14.4680   19.3010 H   0  0  0  0  0  0  0  0  0  0  0  0
   -1.1900   15.6760   20.5730 H   0  0  0  0  0  0  0  0  0  0  0  0
    0.8730   14.3050   20.8950 H   0  0  0  0  0  0  0  0  0  0  0  0
   -0.2360   14.1120   22.2500 H   0  0  0  0  0  0  0  0  0  0  0  0
   -1.5610   12.0700   22.4790 H   0  0  0  0  0  0  0  0  0  0  0  0
   -1.4550   10.7830   21.2900 H   0  0  0  0  0  0  0  0  0  0  0  0
   -2.6590   12.0110   19.1800 C   0  0  0  0  0  0  0  0  0  0  0  0
   -1.6740   11.6430   18.8730 H   0  0  0  0  0  0  0  0  0  0  0  0
   -2.9490   12.8080   18.4880 H   0  0  0  0  0  0  0  0  0  0  0  0
   -3.3710   11.1880   19.0620 H   0  0  0  0  0  0  0  0  0  0  0  0
    2.3480    6.3670   19.8990 C   0  0  0  0  0  0  0  0  0  0  0  0
    1.6540    5.4040   20.6430 C   0  0  0  0  0  0  0  0  0  0  0  0
    1.9960    4.0640   20.5350 C   0  0  0  0  0  0  0  0  0  0  0  0
    2.9720    3.6060   19.7320 N   0  0  0  0  0  0  0  0  0  0  0  0
    3.6270    4.5350   18.9970 C   0  0  0  0  0  0  0  0  0  0  0  0
    3.3510    5.9010   19.0460 C   0  0  0  0  0  0  0  0  0  0  0  0
    0.8310    5.6880   21.2920 H   0  0  0  0  0  0  0  0  0  0  0  0
    1.4690    3.3060   21.1060 H   0  0  0  0  0  0  0  0  0  0  0  0
    3.9490    6.5790   18.4510 H   0  0  0  0  0  0  0  0  0  0  0  0
    4.7000    4.0200   18.0890 C   0  0  0  0  0  0  0  0  0  0  0  0
    5.9730    3.9640   18.6080 N   0  0  0  0  0  0  0  0  0  0  0  0
    4.4920    3.6800   16.9310 O   0  0  0  0  0  0  0  0  0  0  0  0
    6.6960    3.7840   17.9210 H   0  0  0  0  0  0  0  0  0  0  0  0
    6.2280    4.5520   19.3910 H   0  0  0  0  0  0  0  0  0  0  0  0
  1 21  1  0  0  0  0
  1  6  1  0  0  0  0
  2  9  1  0  0  0  0
  2  1  1  0  0  0  0
  3  2  1  0  0  0  0
  3  4  1  0  0  0  0
  4  5  1  0  0  0  0
  5  6  1  0  0  0  0
  5 13  1  0  0  0  0
  6 15  1  0  0  0  0
  6 14  1  0  0  0  0
  7  1  1  0  0  0  0
  8  2  1  0  0  0  0
 10  3  1  0  0  0  0
 11  3  1  0  0  0  0
 12  5  1  0  0  0  0
 16 17  1  0  0  0  0
 16 24  1  1  0  0  0
 16 23  1  0  0  0  0
 17 25  1  0  0  0  0
 18 28  1  0  0  0  0
 18 17  1  0  0  0  0
 18 19  1  0  0  0  0
 19 30  1  0  0  0  0
 20 19  1  0  0  0  0
 20 23  1  0  0  0  0
 21 20  1  0  0  0  0
 22 21  2  0  0  0  0
 23 31  1  0  0  0  0
 26 17  1  0  0  0  0
 27 18  1  0  0  0  0
 29 19  1  0  0  0  0
 32 23  1  0  0  0  0
 33 16  1  0  0  0  0
 34 33  1  0  0  0  0
 35 33  1  0  0  0  0
 36 33  1  0  0  0  0
 37  4  1  0  0  0  0
 37 38  1  0  0  0  0
 38 43  1  0  0  0  0
 39 38  2  0  0  0  0
 39 44  1  0  0  0  0
 40 39  1  0  0  0  0
 41 42  1  0  0  0  0
 41 40  2  0  0  0  0
 42 37  2  0  0  0  0
 45 42  1  0  0  0  0
 46 47  1  0  0  0  0
 46 41  1  0  0  0  0
 47 50  1  0  0  0  0
 48 46  2  0  0  0  0
 49 47  1  0  0  0  0
M  END
>  <MODEL>
21

>  <REMARK>
 VINA RESULT:    -6.411      2.039      8.663
 INTER + INTRA:          -8.341
 INTER:                  -7.855
 INTRA:                  -0.486
 UNBOUND:                -0.618
  Name = 
  4 active torsions:
  status: ('A' for Active; 'I' for Inactive)
    1  A    between atoms: C_1  and  C_2
    2  A    between atoms: C_7  and  C_9
    3  A    between atoms: N_12  and  C_13
    4  A    between atoms: C_17  and  C_18
                            x       y       z     vdW  Elec       q    Type
                         _______ _______ _______ _____ _____    ______ ____

>  <TORSDO>
F 4

$$$$
=
 OpenBabel07192307433D

 50 52  0  0  1  0  0  0  0  0999 V2000
    1.2300    9.2150   18.8620 C   0  0  0  0  0  0  0  0  0  0  0  0
    2.3510    9.1350   17.8150 C   0  0  0  0  0  0  0  0  0  0  0  0
    2.7160    7.6860   17.5060 C   0  0  0  0  0  0  0  0  0  0  0  0
    3.0790    6.9800   18.7510 N   0  0  0  0  0  0  0  0  0  0  0  0
    2.0360    7.0110   19.7860 C   0  0  0  0  0  0  0  0  0  0  0  0
    1.6700    8.4560   20.1200 C   0  0  0  0  0  0  0  0  0  0  0  0
    0.3450    8.7470   18.4180 H   0  0  0  0  0  0  0  0  0  0  0  0
    2.0400    9.6410   16.8930 H   0  0  0  0  0  0  0  0  0  0  0  0
    3.2450    9.6610   18.1770 H   0  0  0  0  0  0  0  0  0  0  0  0
    1.8680    7.1780   17.0270 H   0  0  0  0  0  0  0  0  0  0  0  0
    3.5370    7.6980   16.7810 H   0  0  0  0  0  0  0  0  0  0  0  0
    1.1420    6.4730   19.4480 H   0  0  0  0  0  0  0  0  0  0  0  0
    2.3950    6.5360   20.7070 H   0  0  0  0  0  0  0  0  0  0  0  0
    0.8860    8.4610   20.8830 H   0  0  0  0  0  0  0  0  0  0  0  0
    2.5360    8.9610   20.5680 H   0  0  0  0  0  0  0  0  0  0  0  0
   -2.5020   10.6660   18.4160 C   0  0  2  0  0  0  0  0  0  0  0  0
   -2.8190   12.1490   18.6840 C   0  0  0  0  0  0  0  0  0  0  0  0
   -1.5620   12.9860   18.9400 C   0  0  0  0  0  0  0  0  0  0  0  0
   -0.6910   12.3440   20.0170 C   0  0  0  0  0  0  0  0  0  0  0  0
   -0.3800   10.9600   19.6620 N   0  0  0  0  0  0  0  0  0  0  0  0
    0.9010   10.6690   19.2020 C   0  0  0  0  0  0  0  0  0  0  0  0
    1.7630   11.5440   19.0980 O   0  0  0  0  0  0  0  0  0  0  0  0
   -1.5600   10.1100   19.4980 C   0  0  0  0  0  0  0  0  0  0  0  0
   -3.4430   10.1040   18.4650 H   0  0  0  0  0  0  0  0  0  0  0  0
   -3.4660   12.2140   19.5690 H   0  0  0  0  0  0  0  0  0  0  0  0
   -3.3880   12.5780   17.8500 H   0  0  0  0  0  0  0  0  0  0  0  0
   -0.9890   13.0830   18.0100 H   0  0  0  0  0  0  0  0  0  0  0  0
   -1.8480   13.9980   19.2470 H   0  0  0  0  0  0  0  0  0  0  0  0
    0.2180   12.9340   20.1640 H   0  0  0  0  0  0  0  0  0  0  0  0
   -1.2230   12.3270   20.9760 H   0  0  0  0  0  0  0  0  0  0  0  0
   -2.0780   10.0940   20.4650 H   0  0  0  0  0  0  0  0  0  0  0  0
   -1.2980    9.0760   19.2680 H   0  0  0  0  0  0  0  0  0  0  0  0
   -1.9300   10.4600   17.0100 C   0  0  0  0  0  0  0  0  0  0  0  0
   -2.7170   10.5690   16.2560 H   0  0  0  0  0  0  0  0  0  0  0  0
   -1.4840    9.4680   16.8860 H   0  0  0  0  0  0  0  0  0  0  0  0
   -1.1590   11.2050   16.7950 H   0  0  0  0  0  0  0  0  0  0  0  0
    3.7580    5.7670   18.5350 C   0  0  0  0  0  0  0  0  0  0  0  0
    5.1090    5.7840   18.1670 C   0  0  0  0  0  0  0  0  0  0  0  0
    5.7860    4.5930   17.9510 C   0  0  0  0  0  0  0  0  0  0  0  0
    5.2220    3.3800   18.0850 N   0  0  0  0  0  0  0  0  0  0  0  0
    3.9220    3.3640   18.4620 C   0  0  0  0  0  0  0  0  0  0  0  0
    3.1660    4.5120   18.6960 C   0  0  0  0  0  0  0  0  0  0  0  0
    5.6470    6.7220   18.0680 H   0  0  0  0  0  0  0  0  0  0  0  0
    6.8330    4.5900   17.6640 H   0  0  0  0  0  0  0  0  0  0  0  0
    2.1210    4.4080   18.9600 H   0  0  0  0  0  0  0  0  0  0  0  0
    3.3010    2.0110   18.6290 C   0  0  0  0  0  0  0  0  0  0  0  0
    4.1170    0.9260   18.4020 N   0  0  0  0  0  0  0  0  0  0  0  0
    2.1260    1.8450   18.9280 O   0  0  0  0  0  0  0  0  0  0  0  0
    3.6270    0.0410   18.3480 H   0  0  0  0  0  0  0  0  0  0  0  0
    4.9420    1.0230   17.8260 H   0  0  0  0  0  0  0  0  0  0  0  0
  1 21  1  0  0  0  0
  1  6  1  0  0  0  0
  2  9  1  0  0  0  0
  2  1  1  0  0  0  0
  3  2  1  0  0  0  0
  3  4  1  0  0  0  0
  4  5  1  0  0  0  0
  5  6  1  0  0  0  0
  5 13  1  0  0  0  0
  6 15  1  0  0  0  0
  6 14  1  0  0  0  0
  7  1  1  0  0  0  0
  8  2  1  0  0  0  0
 10  3  1  0  0  0  0
 11  3  1  0  0  0  0
 12  5  1  0  0  0  0
 16 24  1  1  0  0  0
 16 17  1  0  0  0  0
 16 23  1  0  0  0  0
 17 18  1  0  0  0  0
 17 25  1  0  0  0  0
 18 28  1  0  0  0  0
 18 19  1  0  0  0  0
 19 29  1  0  0  0  0
 19 30  1  0  0  0  0
 20 19  1  0  0  0  0
 21 20  1  0  0  0  0
 22 21  2  0  0  0  0
 23 20  1  0  0  0  0
 23 31  1  0  0  0  0
 26 17  1  0  0  0  0
 27 18  1  0  0  0  0
 32 23  1  0  0  0  0
 33 16  1  0  0  0  0
 34 33  1  0  0  0  0
 35 33  1  0  0  0  0
 36 33  1  0  0  0  0
 37 42  1  0  0  0  0
 37  4  1  0  0  0  0
 38 37  2  0  0  0  0
 39 40  2  0  0  0  0
 39 38  1  0  0  0  0
 40 41  1  0  0  0  0
 41 46  1  0  0  0  0
 41 42  2  0  0  0  0
 42 45  1  0  0  0  0
 43 38  1  0  0  0  0
 44 39  1  0  0  0  0
 46 48  2  0  0  0  0
 47 46  1  0  0  0  0
 49 47  1  0  0  0  0
 50 47  1  0  0  0  0
M  END
>  <MODEL>
22

>  <REMARK>
 VINA RESULT:    -6.239      2.447      8.392
 INTER + INTRA:          -8.135
 INTER:                  -7.534
 INTRA:                  -0.600
 UNBOUND:                -0.618
  Name = 
  4 active torsions:
  status: ('A' for Active; 'I' for Inactive)
    1  A    between atoms: C_1  and  C_2
    2  A    between atoms: C_7  and  C_9
    3  A    between atoms: N_12  and  C_13
    4  A    between atoms: C_17  and  C_18
                            x       y       z     vdW  Elec       q    Type
                         _______ _______ _______ _____ _____    ______ ____

>  <TORSDO>
F 4

$$$$
=
 OpenBabel07192307433D

 50 52  0  0  1  0  0  0  0  0999 V2000
    2.1860    6.3200   19.9990 C   0  0  0  0  0  0  0  0  0  0  0  0
    1.9610    6.7920   18.5540 C   0  0  0  0  0  0  0  0  0  0  0  0
    2.1720    8.2980   18.4260 C   0  0  0  0  0  0  0  0  0  0  0  0
    1.2970    9.0120   19.3770 N   0  0  0  0  0  0  0  0  0  0  0  0
    1.4780    8.6120   20.7790 C   0  0  0  0  0  0  0  0  0  0  0  0
    1.2560    7.1080   20.9290 C   0  0  0  0  0  0  0  0  0  0  0  0
    3.2360    6.5210   20.2410 H   0  0  0  0  0  0  0  0  0  0  0  0
    2.6450    6.2660   17.8780 H   0  0  0  0  0  0  0  0  0  0  0  0
    0.9420    6.5420   18.2290 H   0  0  0  0  0  0  0  0  0  0  0  0
    3.2220    8.5500   18.6280 H   0  0  0  0  0  0  0  0  0  0  0  0
    1.9670    8.5730   17.3850 H   0  0  0  0  0  0  0  0  0  0  0  0
    2.4870    8.8720   21.1260 H   0  0  0  0  0  0  0  0  0  0  0  0
    0.7510    9.1240   21.4220 H   0  0  0  0  0  0  0  0  0  0  0  0
    1.4050    6.8260   21.9760 H   0  0  0  0  0  0  0  0  0  0  0  0
    0.2110    6.8660   20.6940 H   0  0  0  0  0  0  0  0  0  0  0  0
    4.4170    3.6370   17.9850 C   0  0  2  0  0  0  0  0  0  0  0  0
    4.1110    2.1300   18.0570 C   0  0  0  0  0  0  0  0  0  0  0  0
    2.8050    1.8270   18.7970 C   0  0  0  0  0  0  0  0  0  0  0  0
    2.7760    2.5200   20.1570 C   0  0  0  0  0  0  0  0  0  0  0  0
    3.0120    3.9540   20.0010 N   0  0  0  0  0  0  0  0  0  0  0  0
    1.9290    4.8190   20.1320 C   0  0  0  0  0  0  0  0  0  0  0  0
    0.7960    4.4000   20.3780 O   0  0  0  0  0  0  0  0  0  0  0  0
    4.2950    4.2810   19.3770 C   0  0  0  0  0  0  0  0  0  0  0  0
    5.4540    3.7560   17.6460 H   0  0  0  0  0  0  0  0  0  0  0  0
    4.9340    1.6300   18.5840 H   0  0  0  0  0  0  0  0  0  0  0  0
    4.0770    1.6960   17.0510 H   0  0  0  0  0  0  0  0  0  0  0  0
    1.9530    2.1610   18.1930 H   0  0  0  0  0  0  0  0  0  0  0  0
    2.6980    0.7440   18.9300 H   0  0  0  0  0  0  0  0  0  0  0  0
    1.8250    2.3220   20.6580 H   0  0  0  0  0  0  0  0  0  0  0  0
    3.5690    2.1240   20.8020 H   0  0  0  0  0  0  0  0  0  0  0  0
    5.0790    3.8870   20.0350 H   0  0  0  0  0  0  0  0  0  0  0  0
    4.4590    5.3570   19.3050 H   0  0  0  0  0  0  0  0  0  0  0  0
    3.5280    4.3430   16.9570 C   0  0  0  0  0  0  0  0  0  0  0  0
    2.4790    4.3080   17.2690 H   0  0  0  0  0  0  0  0  0  0  0  0
    3.5970    3.8850   15.9650 H   0  0  0  0  0  0  0  0  0  0  0  0
    3.8100    5.3950   16.8610 H   0  0  0  0  0  0  0  0  0  0  0  0
    1.1580   10.3840   19.0960 C   0  0  0  0  0  0  0  0  0  0  0  0
    2.1670   11.0520   18.3880 C   0  0  0  0  0  0  0  0  0  0  0  0
    2.0390   12.4040   18.1070 C   0  0  0  0  0  0  0  0  0  0  0  0
    0.9760   13.1440   18.4690 N   0  0  0  0  0  0  0  0  0  0  0  0
   -0.0060   12.4930   19.1340 C   0  0  0  0  0  0  0  0  0  0  0  0
    0.0410   11.1380   19.4600 C   0  0  0  0  0  0  0  0  0  0  0  0
    3.0430   10.5190   18.0320 H   0  0  0  0  0  0  0  0  0  0  0  0
    2.8120   12.9360   17.5600 H   0  0  0  0  0  0  0  0  0  0  0  0
   -0.7740   10.7060   20.0270 H   0  0  0  0  0  0  0  0  0  0  0  0
   -1.1980   13.3160   19.5190 C   0  0  0  0  0  0  0  0  0  0  0  0
   -1.0620   14.6810   19.4210 N   0  0  0  0  0  0  0  0  0  0  0  0
   -2.2450   12.8290   19.9260 O   0  0  0  0  0  0  0  0  0  0  0  0
   -1.8130   15.2060   19.8540 H   0  0  0  0  0  0  0  0  0  0  0  0
   -0.1430   15.1030   19.4430 H   0  0  0  0  0  0  0  0  0  0  0  0
  1 21  1  0  0  0  0
  1  7  1  0  0  0  0
  1  6  1  0  0  0  0
  2  1  1  0  0  0  0
  3  2  1  0  0  0  0
  3 10  1  0  0  0  0
  3  4  1  0  0  0  0
  4  5  1  0  0  0  0
  5  6  1  0  0  0  0
  5 12  1  0  0  0  0
  5 13  1  0  0  0  0
  6 14  1  0  0  0  0
  8  2  1  0  0  0  0
  9  2  1  0  0  0  0
 11  3  1  0  0  0  0
 15  6  1  0  0  0  0
 16 24  1  6  0  0  0
 16 17  1  0  0  0  0
 16 23  1  0  0  0  0
 17 25  1  0  0  0  0
 17 18  1  0  0  0  0
 18 28  1  0  0  0  0
 18 19  1  0  0  0  0
 19 29  1  0  0  0  0
 19 30  1  0  0  0  0
 20 21  1  0  0  0  0
 20 19  1  0  0  0  0
 21 22  2  0  0  0  0
 23 20  1  0  0  0  0
 23 31  1  0  0  0  0
 26 17  1  0  0  0  0
 27 18  1  0  0  0  0
 32 23  1  0  0  0  0
 33 34  1  0  0  0  0
 33 16  1  0  0  0  0
 35 33  1  0  0  0  0
 36 33  1  0  0  0  0
 37  4  1  0  0  0  0
 37 42  1  0  0  0  0
 38 37  2  0  0  0  0
 39 38  1  0  0  0  0
 39 40  2  0  0  0  0
 40 41  1  0  0  0  0
 41 42  2  0  0  0  0
 41 46  1  0  0  0  0
 42 45  1  0  0  0  0
 43 38  1  0  0  0  0
 44 39  1  0  0  0  0
 46 48  2  0  0  0  0
 47 50  1  0  0  0  0
 47 46  1  0  0  0  0
 47 49  1  0  0  0  0
M  END
>  <MODEL>
23

>  <REMARK>
 VINA RESULT:    -6.216      2.078      2.734
 INTER + INTRA:          -8.107
 INTER:                  -7.666
 INTRA:                  -0.440
 UNBOUND:                -0.618
  Name = 
  4 active torsions:
  status: ('A' for Active; 'I' for Inactive)
    1  A    between atoms: C_1  and  C_2
    2  A    between atoms: C_7  and  C_9
    3  A    between atoms: N_12  and  C_13
    4  A    between atoms: C_17  and  C_18
                            x       y       z     vdW  Elec       q    Type
                         _______ _______ _______ _____ _____    ______ ____

>  <TORSDO>
F 4

$$$$
=
 OpenBabel07192307433D

 50 52  0  0  1  0  0  0  0  0999 V2000
    0.3920    9.2580   20.3010 C   0  0  0  0  0  0  0  0  0  0  0  0
    1.5250    9.5930   19.3180 C   0  0  0  0  0  0  0  0  0  0  0  0
    1.9710    8.3540   18.5470 C   0  0  0  0  0  0  0  0  0  0  0  0
    2.3630    7.2870   19.4900 N   0  0  0  0  0  0  0  0  0  0  0  0
    1.3110    6.9140   20.4460 C   0  0  0  0  0  0  0  0  0  0  0  0
    0.8630    8.1400   21.2390 C   0  0  0  0  0  0  0  0  0  0  0  0
   -0.4620    8.9250   19.7010 H   0  0  0  0  0  0  0  0  0  0  0  0
    1.1940   10.3650   18.6140 H   0  0  0  0  0  0  0  0  0  0  0  0
    2.3850   10.0080   19.8600 H   0  0  0  0  0  0  0  0  0  0  0  0
    1.1560    7.9980   17.9020 H   0  0  0  0  0  0  0  0  0  0  0  0
    2.7970    8.6520   17.8910 H   0  0  0  0  0  0  0  0  0  0  0  0
    0.4510    6.4780   19.9220 H   0  0  0  0  0  0  0  0  0  0  0  0
    1.6890    6.1720   21.1610 H   0  0  0  0  0  0  0  0  0  0  0  0
    0.0740    7.8470   21.9380 H   0  0  0  0  0  0  0  0  0  0  0  0
    1.6960    8.5040   21.8550 H   0  0  0  0  0  0  0  0  0  0  0  0
   -0.3150   12.7850   18.4860 C   0  0  2  0  0  0  0  0  0  0  0  0
   -0.6540   14.0470   19.3000 C   0  0  0  0  0  0  0  0  0  0  0  0
   -0.5040   13.8360   20.8090 C   0  0  0  0  0  0  0  0  0  0  0  0
   -1.2680   12.5940   21.2630 C   0  0  0  0  0  0  0  0  0  0  0  0
   -0.8480   11.4270   20.4900 N   0  0  0  0  0  0  0  0  0  0  0  0
   -0.0200   10.4920   21.1040 C   0  0  0  0  0  0  0  0  0  0  0  0
    0.3510   10.6280   22.2710 O   0  0  0  0  0  0  0  0  0  0  0  0
   -1.0610   11.5620   19.0470 C   0  0  0  0  0  0  0  0  0  0  0  0
   -0.6540   12.9450   17.4550 H   0  0  0  0  0  0  0  0  0  0  0  0
   -1.6940   14.3300   19.0900 H   0  0  0  0  0  0  0  0  0  0  0  0
   -0.0310   14.8910   18.9800 H   0  0  0  0  0  0  0  0  0  0  0  0
    0.5580   13.7300   21.0630 H   0  0  0  0  0  0  0  0  0  0  0  0
   -0.8760   14.7160   21.3450 H   0  0  0  0  0  0  0  0  0  0  0  0
   -1.1240   12.4370   22.3360 H   0  0  0  0  0  0  0  0  0  0  0  0
   -2.3440   12.7280   21.0980 H   0  0  0  0  0  0  0  0  0  0  0  0
   -2.1400   11.6870   18.8960 H   0  0  0  0  0  0  0  0  0  0  0  0
   -0.7700   10.6650   18.5000 H   0  0  0  0  0  0  0  0  0  0  0  0
    1.1970   12.5450   18.4260 C   0  0  0  0  0  0  0  0  0  0  0  0
    1.5840   12.7800   17.4290 H   0  0  0  0  0  0  0  0  0  0  0  0
    1.4620   11.5070   18.6510 H   0  0  0  0  0  0  0  0  0  0  0  0
    1.7170   13.1870   19.1440 H   0  0  0  0  0  0  0  0  0  0  0  0
    3.1090    6.2530   18.8940 C   0  0  0  0  0  0  0  0  0  0  0  0
    3.9410    6.5390   17.8030 C   0  0  0  0  0  0  0  0  0  0  0  0
    4.6800    5.5260   17.2090 C   0  0  0  0  0  0  0  0  0  0  0  0
    4.6620    4.2480   17.6260 N   0  0  0  0  0  0  0  0  0  0  0  0
    3.8750    3.9770   18.6930 C   0  0  0  0  0  0  0  0  0  0  0  0
    3.0980    4.9320   19.3480 C   0  0  0  0  0  0  0  0  0  0  0  0
    4.0360    7.5520   17.4260 H   0  0  0  0  0  0  0  0  0  0  0  0
    5.3280    5.7310   16.3630 H   0  0  0  0  0  0  0  0  0  0  0  0
    2.4680    4.6210   20.1710 H   0  0  0  0  0  0  0  0  0  0  0  0
    3.8720    2.5560   19.1660 C   0  0  0  0  0  0  0  0  0  0  0  0
    4.9800    2.1380   19.8680 N   0  0  0  0  0  0  0  0  0  0  0  0
    2.9580    1.7750   18.9370 O   0  0  0  0  0  0  0  0  0  0  0  0
    5.0250    1.1370   20.0160 H   0  0  0  0  0  0  0  0  0  0  0  0
    5.8620    2.6210   19.7590 H   0  0  0  0  0  0  0  0  0  0  0  0
  1 21  1  0  0  0  0
  1  6  1  0  0  0  0
  2  9  1  0  0  0  0
  2  1  1  0  0  0  0
  3  2  1  0  0  0  0
  3  4  1  0  0  0  0
  4  5  1  0  0  0  0
  5 13  1  0  0  0  0
  5  6  1  0  0  0  0
  6 15  1  0  0  0  0
  6 14  1  0  0  0  0
  7  1  1  0  0  0  0
  8  2  1  0  0  0  0
 10  3  1  0  0  0  0
 11  3  1  0  0  0  0
 12  5  1  0  0  0  0
 16 24  1  6  0  0  0
 16 23  1  0  0  0  0
 16 17  1  0  0  0  0
 17 18  1  0  0  0  0
 18 27  1  0  0  0  0
 18 19  1  0  0  0  0
 18 28  1  0  0  0  0
 19 29  1  0  0  0  0
 20 21  1  0  0  0  0
 20 19  1  0  0  0  0
 21 22  2  0  0  0  0
 23 20  1  0  0  0  0
 25 17  1  0  0  0  0
 26 17  1  0  0  0  0
 30 19  1  0  0  0  0
 31 23  1  0  0  0  0
 32 23  1  0  0  0  0
 33 16  1  0  0  0  0
 33 35  1  0  0  0  0
 33 36  1  0  0  0  0
 34 33  1  0  0  0  0
 37 42  1  0  0  0  0
 37  4  1  0  0  0  0
 38 37  2  0  0  0  0
 39 40  2  0  0  0  0
 39 38  1  0  0  0  0
 40 41  1  0  0  0  0
 41 46  1  0  0  0  0
 41 42  2  0  0  0  0
 42 45  1  0  0  0  0
 43 38  1  0  0  0  0
 44 39  1  0  0  0  0
 46 47  1  0  0  0  0
 47 49  1  0  0  0  0
 48 46  2  0  0  0  0
 50 47  1  0  0  0  0
M  END
>  <MODEL>
24

>  <REMARK>
 VINA RESULT:    -6.080      1.907      8.493
 INTER + INTRA:          -7.942
 INTER:                  -7.883
 INTRA:                  -0.059
 UNBOUND:                -0.618
  Name = 
  4 active torsions:
  status: ('A' for Active; 'I' for Inactive)
    1  A    between atoms: C_1  and  C_2
    2  A    between atoms: C_7  and  C_9
    3  A    between atoms: N_12  and  C_13
    4  A    between atoms: C_17  and  C_18
                            x       y       z     vdW  Elec       q    Type
                         _______ _______ _______ _____ _____    ______ ____

>  <TORSDO>
F 4

$$$$
=
 OpenBabel07192307433D

 50 52  0  0  1  0  0  0  0  0999 V2000
    3.5660    6.5150   18.4520 C   0  0  0  0  0  0  0  0  0  0  0  0
    2.9200    6.7220   19.8300 C   0  0  0  0  0  0  0  0  0  0  0  0
    1.5580    7.3980   19.7060 C   0  0  0  0  0  0  0  0  0  0  0  0
    1.6920    8.6700   18.9670 N   0  0  0  0  0  0  0  0  0  0  0  0
    2.2920    8.5310   17.6330 C   0  0  0  0  0  0  0  0  0  0  0  0
    3.6640    7.8690   17.7410 C   0  0  0  0  0  0  0  0  0  0  0  0
    2.9160    5.8310   17.8950 H   0  0  0  0  0  0  0  0  0  0  0  0
    2.8070    5.7580   20.3400 H   0  0  0  0  0  0  0  0  0  0  0  0
    3.5710    7.3400   20.4640 H   0  0  0  0  0  0  0  0  0  0  0  0
    0.8560    6.7370   19.1790 H   0  0  0  0  0  0  0  0  0  0  0  0
    1.1670    7.5450   20.7180 H   0  0  0  0  0  0  0  0  0  0  0  0
    1.6440    7.9320   16.9800 H   0  0  0  0  0  0  0  0  0  0  0  0
    2.4300    9.5160   17.1690 H   0  0  0  0  0  0  0  0  0  0  0  0
    4.0920    7.7640   16.7390 H   0  0  0  0  0  0  0  0  0  0  0  0
    4.3470    8.5270   18.2960 H   0  0  0  0  0  0  0  0  0  0  0  0
    5.6550    5.3660   15.2040 C   0  0  2  0  0  0  0  0  0  0  0  0
    7.0140    4.6560   15.3390 C   0  0  0  0  0  0  0  0  0  0  0  0
    7.3510    4.2950   16.7890 C   0  0  0  0  0  0  0  0  0  0  0  0
    7.2050    5.5110   17.7000 C   0  0  0  0  0  0  0  0  0  0  0  0
    5.8710    6.0920   17.5630 N   0  0  0  0  0  0  0  0  0  0  0  0
    4.9500    5.8790   18.5860 C   0  0  0  0  0  0  0  0  0  0  0  0
    5.2420    5.2260   19.5890 O   0  0  0  0  0  0  0  0  0  0  0  0
    5.5500    6.5310   16.2040 C   0  0  0  0  0  0  0  0  0  0  0  0
    5.5890    5.7820   14.1910 H   0  0  0  0  0  0  0  0  0  0  0  0
    7.7970    5.3230   14.9560 H   0  0  0  0  0  0  0  0  0  0  0  0
    7.0410    3.7540   14.7160 H   0  0  0  0  0  0  0  0  0  0  0  0
    6.6870    3.4930   17.1330 H   0  0  0  0  0  0  0  0  0  0  0  0
    8.3750    3.9100   16.8450 H   0  0  0  0  0  0  0  0  0  0  0  0
    7.4160    5.2300   18.7360 H   0  0  0  0  0  0  0  0  0  0  0  0
    7.9310    6.2840   17.4220 H   0  0  0  0  0  0  0  0  0  0  0  0
    6.2780    7.3080   15.9410 H   0  0  0  0  0  0  0  0  0  0  0  0
    4.5630    6.9900   16.1380 H   0  0  0  0  0  0  0  0  0  0  0  0
    4.4900    4.3830   15.3590 C   0  0  0  0  0  0  0  0  0  0  0  0
    3.5600    4.9210   15.5700 H   0  0  0  0  0  0  0  0  0  0  0  0
    4.6550    3.6690   16.1710 H   0  0  0  0  0  0  0  0  0  0  0  0
    4.3410    3.8140   14.4360 H   0  0  0  0  0  0  0  0  0  0  0  0
    0.5800    9.5230   19.1040 C   0  0  0  0  0  0  0  0  0  0  0  0
    0.4270   10.2780   20.2740 C   0  0  0  0  0  0  0  0  0  0  0  0
   -0.6660   11.1200   20.4190 C   0  0  0  0  0  0  0  0  0  0  0  0
   -1.6160   11.2770   19.4800 N   0  0  0  0  0  0  0  0  0  0  0  0
   -1.4550   10.5640   18.3420 C   0  0  0  0  0  0  0  0  0  0  0  0
   -0.3900    9.6920   18.1140 C   0  0  0  0  0  0  0  0  0  0  0  0
    1.1660   10.2320   21.0680 H   0  0  0  0  0  0  0  0  0  0  0  0
   -0.8000   11.7110   21.3200 H   0  0  0  0  0  0  0  0  0  0  0  0
   -0.3580    9.1330   17.1880 H   0  0  0  0  0  0  0  0  0  0  0  0
   -2.5040   10.7550   17.2900 C   0  0  0  0  0  0  0  0  0  0  0  0
   -2.2200   11.6620   16.2950 N   0  0  0  0  0  0  0  0  0  0  0  0
   -3.5780   10.1690   17.3000 O   0  0  0  0  0  0  0  0  0  0  0  0
   -3.0120   11.8970   15.7080 H   0  0  0  0  0  0  0  0  0  0  0  0
   -1.5390   12.3930   16.4530 H   0  0  0  0  0  0  0  0  0  0  0  0
  1 21  1  0  0  0  0
  1  2  1  0  0  0  0
  2  8  1  0  0  0  0
  2  9  1  0  0  0  0
  3  2  1  0  0  0  0
  3 11  1  0  0  0  0
  4 37  1  0  0  0  0
  4  3  1  0  0  0  0
  5  6  1  0  0  0  0
  5  4  1  0  0  0  0
  6 15  1  0  0  0  0
  6  1  1  0  0  0  0
  7  1  1  0  0  0  0
 10  3  1  0  0  0  0
 12  5  1  0  0  0  0
 13  5  1  0  0  0  0
 14  6  1  0  0  0  0
 16 24  1  6  0  0  0
 16 17  1  0  0  0  0
 16 33  1  0  0  0  0
 16 23  1  0  0  0  0
 17 18  1  0  0  0  0
 18 28  1  0  0  0  0
 18 27  1  0  0  0  0
 18 19  1  0  0  0  0
 19 29  1  0  0  0  0
 20 19  1  0  0  0  0
 20 21  1  0  0  0  0
 21 22  2  0  0  0  0
 23 20  1  0  0  0  0
 25 17  1  0  0  0  0
 26 17  1  0  0  0  0
 30 19  1  0  0  0  0
 31 23  1  0  0  0  0
 32 23  1  0  0  0  0
 33 34  1  0  0  0  0
 33 35  1  0  0  0  0
 36 33  1  0  0  0  0
 37 38  1  0  0  0  0
 38 39  2  0  0  0  0
 38 43  1  0  0  0  0
 39 44  1  0  0  0  0
 40 39  1  0  0  0  0
 41 40  2  0  0  0  0
 42 41  1  0  0  0  0
 42 37  2  0  0  0  0
 45 42  1  0  0  0  0
 46 48  2  0  0  0  0
 46 41  1  0  0  0  0
 47 50  1  0  0  0  0
 47 46  1  0  0  0  0
 49 47  1  0  0  0  0
M  END
>  <MODEL>
25

>  <REMARK>
 VINA RESULT:    -5.754      2.920      3.950
 INTER + INTRA:          -7.550
 INTER:                  -7.755
 INTRA:                   0.205
 UNBOUND:                -0.618
  Name = 
  4 active torsions:
  status: ('A' for Active; 'I' for Inactive)
    1  A    between atoms: C_1  and  C_2
    2  A    between atoms: C_7  and  C_9
    3  A    between atoms: N_12  and  C_13
    4  A    between atoms: C_17  and  C_18
                            x       y       z     vdW  Elec       q    Type
                         _______ _______ _______ _____ _____    ______ ____

>  <TORSDO>
F 4

$$$$
=
 OpenBabel07192307433D

 50 52  0  0  1  0  0  0  0  0999 V2000
    3.6570    5.7810   18.5430 C   0  0  0  0  0  0  0  0  0  0  0  0
    3.1830    5.9050   19.9990 C   0  0  0  0  0  0  0  0  0  0  0  0
    1.8980    6.7230   20.0940 C   0  0  0  0  0  0  0  0  0  0  0  0
    2.0950    8.0460   19.4670 N   0  0  0  0  0  0  0  0  0  0  0  0
    2.5350    7.9880   18.0660 C   0  0  0  0  0  0  0  0  0  0  0  0
    3.8300    7.1860   17.9550 C   0  0  0  0  0  0  0  0  0  0  0  0
    2.8820    5.2270   18.0020 H   0  0  0  0  0  0  0  0  0  0  0  0
    3.0180    4.9090   20.4260 H   0  0  0  0  0  0  0  0  0  0  0  0
    3.9600    6.3850   20.6100 H   0  0  0  0  0  0  0  0  0  0  0  0
    1.0780    6.1930   19.5910 H   0  0  0  0  0  0  0  0  0  0  0  0
    1.6320    6.8010   21.1540 H   0  0  0  0  0  0  0  0  0  0  0  0
    1.7620    7.5280   17.4380 H   0  0  0  0  0  0  0  0  0  0  0  0
    2.7330    8.9980   17.6840 H   0  0  0  0  0  0  0  0  0  0  0  0
    4.1380    7.1440   16.9060 H   0  0  0  0  0  0  0  0  0  0  0  0
    4.6340    7.7100   18.4880 H   0  0  0  0  0  0  0  0  0  0  0  0
    5.8330    5.7220   15.1530 C   0  0  2  0  0  0  0  0  0  0  0  0
    7.1140    4.8750   15.0410 C   0  0  0  0  0  0  0  0  0  0  0  0
    7.3280    3.9640   16.2530 C   0  0  0  0  0  0  0  0  0  0  0  0
    7.2330    4.7570   17.5540 C   0  0  0  0  0  0  0  0  0  0  0  0
    5.9660    5.4840   17.6160 N   0  0  0  0  0  0  0  0  0  0  0  0
    4.9690    5.0000   18.4590 C   0  0  0  0  0  0  0  0  0  0  0  0
    5.1400    3.9920   19.1460 O   0  0  0  0  0  0  0  0  0  0  0  0
    5.7700    6.4310   16.5170 C   0  0  0  0  0  0  0  0  0  0  0  0
    5.8670    6.4920   14.3720 H   0  0  0  0  0  0  0  0  0  0  0  0
    7.9750    5.5520   14.9580 H   0  0  0  0  0  0  0  0  0  0  0  0
    7.1000    4.2750   14.1240 H   0  0  0  0  0  0  0  0  0  0  0  0
    6.5760    3.1650   16.2510 H   0  0  0  0  0  0  0  0  0  0  0  0
    8.3090    3.4800   16.1840 H   0  0  0  0  0  0  0  0  0  0  0  0
    7.3550    4.0880   18.4110 H   0  0  0  0  0  0  0  0  0  0  0  0
    8.0400    5.4980   17.6070 H   0  0  0  0  0  0  0  0  0  0  0  0
    6.5780    7.1700   16.5860 H   0  0  0  0  0  0  0  0  0  0  0  0
    4.8330    6.9820   16.6070 H   0  0  0  0  0  0  0  0  0  0  0  0
    4.5800    4.8810   14.8960 C   0  0  0  0  0  0  0  0  0  0  0  0
    3.7320    5.2690   15.4700 H   0  0  0  0  0  0  0  0  0  0  0  0
    4.7200    3.8310   15.1740 H   0  0  0  0  0  0  0  0  0  0  0  0
    4.3050    4.9140   13.8370 H   0  0  0  0  0  0  0  0  0  0  0  0
    1.1040    8.9850   19.8090 C   0  0  0  0  0  0  0  0  0  0  0  0
    0.4690    9.7210   18.7990 C   0  0  0  0  0  0  0  0  0  0  0  0
   -0.5070   10.6500   19.1270 C   0  0  0  0  0  0  0  0  0  0  0  0
   -0.9100   10.8960   20.3860 N   0  0  0  0  0  0  0  0  0  0  0  0
   -0.3120   10.1690   21.3580 C   0  0  0  0  0  0  0  0  0  0  0  0
    0.6800    9.2180   21.1190 C   0  0  0  0  0  0  0  0  0  0  0  0
    0.7140    9.5600   17.7540 H   0  0  0  0  0  0  0  0  0  0  0  0
   -1.0080   11.2290   18.3570 H   0  0  0  0  0  0  0  0  0  0  0  0
    1.1320    8.7080   21.9600 H   0  0  0  0  0  0  0  0  0  0  0  0
   -0.7760   10.4310   22.7570 C   0  0  0  0  0  0  0  0  0  0  0  0
   -0.2380    9.6380   23.7440 N   0  0  0  0  0  0  0  0  0  0  0  0
   -1.6070   11.2840   23.0390 O   0  0  0  0  0  0  0  0  0  0  0  0
   -0.7000    9.7190   24.6420 H   0  0  0  0  0  0  0  0  0  0  0  0
    0.1480    8.7320   23.5130 H   0  0  0  0  0  0  0  0  0  0  0  0
  1  2  1  0  0  0  0
  2  3  1  0  0  0  0
  2  8  1  0  0  0  0
  2  9  1  0  0  0  0
  3 11  1  0  0  0  0
  4 37  1  0  0  0  0
  4  3  1  0  0  0  0
  5  4  1  0  0  0  0
  6  5  1  0  0  0  0
  6 15  1  0  0  0  0
  6  1  1  0  0  0  0
  7  1  1  0  0  0  0
 10  3  1  0  0  0  0
 12  5  1  0  0  0  0
 13  5  1  0  0  0  0
 14  6  1  0  0  0  0
 16 24  1  6  0  0  0
 16 23  1  0  0  0  0
 17 16  1  0  0  0  0
 17 18  1  0  0  0  0
 18 19  1  0  0  0  0
 19 30  1  0  0  0  0
 19 20  1  0  0  0  0
 19 29  1  0  0  0  0
 20 21  1  0  0  0  0
 21  1  1  0  0  0  0
 21 22  2  0  0  0  0
 23 31  1  0  0  0  0
 23 32  1  0  0  0  0
 23 20  1  0  0  0  0
 25 17  1  0  0  0  0
 26 17  1  0  0  0  0
 27 18  1  0  0  0  0
 28 18  1  0  0  0  0
 33 16  1  0  0  0  0
 33 35  1  0  0  0  0
 33 34  1  0  0  0  0
 36 33  1  0  0  0  0
 37 42  1  0  0  0  0
 38 39  1  0  0  0  0
 38 37  2  0  0  0  0
 39 40  2  0  0  0  0
 40 41  1  0  0  0  0
 41 46  1  0  0  0  0
 42 41  2  0  0  0  0
 42 45  1  0  0  0  0
 43 38  1  0  0  0  0
 44 39  1  0  0  0  0
 46 48  2  0  0  0  0
 46 47  1  0  0  0  0
 47 49  1  0  0  0  0
 50 47  1  0  0  0  0
M  END
>  <MODEL>
26

>  <REMARK>
 VINA RESULT:    -5.593      2.359      3.303
 INTER + INTRA:          -7.356
 INTER:                  -7.944
 INTRA:                   0.588
 UNBOUND:                -0.618
  Name = 
  4 active torsions:
  status: ('A' for Active; 'I' for Inactive)
    1  A    between atoms: C_1  and  C_2
    2  A    between atoms: C_7  and  C_9
    3  A    between atoms: N_12  and  C_13
    4  A    between atoms: C_17  and  C_18
                            x       y       z     vdW  Elec       q    Type
                         _______ _______ _______ _____ _____    ______ ____

>  <TORSDO>
F 4

$$$$
=
 OpenBabel07192307433D

 50 52  0  0  1  0  0  0  0  0999 V2000
   -0.1550    9.9980   20.6070 C   0  0  0  0  0  0  0  0  0  0  0  0
    1.1390   10.1700   19.7970 C   0  0  0  0  0  0  0  0  0  0  0  0
    1.5500    8.8620   19.1270 C   0  0  0  0  0  0  0  0  0  0  0  0
    1.6760    7.7950   20.1400 N   0  0  0  0  0  0  0  0  0  0  0  0
    0.4610    7.5750   20.9370 C   0  0  0  0  0  0  0  0  0  0  0  0
    0.0440    8.8720   21.6280 C   0  0  0  0  0  0  0  0  0  0  0  0
   -0.9460    9.7380   19.8940 H   0  0  0  0  0  0  0  0  0  0  0  0
    1.0040   10.9470   19.0350 H   0  0  0  0  0  0  0  0  0  0  0  0
    1.9530   10.5100   20.4520 H   0  0  0  0  0  0  0  0  0  0  0  0
    0.8020    8.5730   18.3760 H   0  0  0  0  0  0  0  0  0  0  0  0
    2.4900    9.0430   18.5950 H   0  0  0  0  0  0  0  0  0  0  0  0
   -0.3580    7.2170   20.3000 H   0  0  0  0  0  0  0  0  0  0  0  0
    0.6440    6.8240   21.7160 H   0  0  0  0  0  0  0  0  0  0  0  0
   -0.8660    8.6930   22.2080 H   0  0  0  0  0  0  0  0  0  0  0  0
    0.8150    9.1660   22.3530 H   0  0  0  0  0  0  0  0  0  0  0  0
   -0.3810   13.4780   18.5880 C   0  0  2  0  0  0  0  0  0  0  0  0
   -0.6900   14.8010   19.3110 C   0  0  0  0  0  0  0  0  0  0  0  0
   -0.7050   14.6530   20.8350 C   0  0  0  0  0  0  0  0  0  0  0  0
   -1.6120   13.5000   21.2600 C   0  0  0  0  0  0  0  0  0  0  0  0
   -1.2190   12.2670   20.5810 N   0  0  0  0  0  0  0  0  0  0  0  0
   -0.5370   11.2990   21.3130 C   0  0  0  0  0  0  0  0  0  0  0  0
   -0.2710   11.4620   22.5050 O   0  0  0  0  0  0  0  0  0  0  0  0
   -1.2790   12.3480   19.1200 C   0  0  0  0  0  0  0  0  0  0  0  0
   -0.6040   13.6140   17.5220 H   0  0  0  0  0  0  0  0  0  0  0  0
   -1.6760   15.1560   18.9860 H   0  0  0  0  0  0  0  0  0  0  0  0
    0.0310   15.5750   19.0210 H   0  0  0  0  0  0  0  0  0  0  0  0
    0.3140   14.4750   21.1990 H   0  0  0  0  0  0  0  0  0  0  0  0
   -1.0510   15.5860   21.2940 H   0  0  0  0  0  0  0  0  0  0  0  0
   -1.5870   13.3850   22.3480 H   0  0  0  0  0  0  0  0  0  0  0  0
   -2.6520   13.7120   20.9830 H   0  0  0  0  0  0  0  0  0  0  0  0
   -2.3240   12.5510   18.8560 H   0  0  0  0  0  0  0  0  0  0  0  0
   -1.0140   11.4040   18.6420 H   0  0  0  0  0  0  0  0  0  0  0  0
    1.1030   13.1140   18.6900 C   0  0  0  0  0  0  0  0  0  0  0  0
    1.2720   12.0890   18.3450 H   0  0  0  0  0  0  0  0  0  0  0  0
    1.4780   13.1870   19.7160 H   0  0  0  0  0  0  0  0  0  0  0  0
    1.7060   13.7790   18.0640 H   0  0  0  0  0  0  0  0  0  0  0  0
    2.3790    6.6640   19.6840 C   0  0  0  0  0  0  0  0  0  0  0  0
    2.3300    5.4740   20.4220 C   0  0  0  0  0  0  0  0  0  0  0  0
    3.0200    4.3550   19.9800 C   0  0  0  0  0  0  0  0  0  0  0  0
    3.7510    4.3260   18.8520 N   0  0  0  0  0  0  0  0  0  0  0  0
    3.7800    5.4700   18.1290 C   0  0  0  0  0  0  0  0  0  0  0  0
    3.1190    6.6410   18.5000 C   0  0  0  0  0  0  0  0  0  0  0  0
    1.7370    5.4040   21.3280 H   0  0  0  0  0  0  0  0  0  0  0  0
    2.9930    3.4250   20.5410 H   0  0  0  0  0  0  0  0  0  0  0  0
    3.2250    7.5220   17.8810 H   0  0  0  0  0  0  0  0  0  0  0  0
    4.5780    5.4290   16.8630 C   0  0  0  0  0  0  0  0  0  0  0  0
    4.9890    6.6400   16.3540 N   0  0  0  0  0  0  0  0  0  0  0  0
    4.8470    4.3910   16.2730 O   0  0  0  0  0  0  0  0  0  0  0  0
    5.3670    6.5900   15.4150 H   0  0  0  0  0  0  0  0  0  0  0  0
    4.4960    7.4880   16.6010 H   0  0  0  0  0  0  0  0  0  0  0  0
  1 21  1  0  0  0  0
  1  6  1  0  0  0  0
  2  9  1  0  0  0  0
  2  1  1  0  0  0  0
  3  2  1  0  0  0  0
  3  4  1  0  0  0  0
  4  5  1  0  0  0  0
  5  6  1  0  0  0  0
  5 13  1  0  0  0  0
  6 14  1  0  0  0  0
  6 15  1  0  0  0  0
  7  1  1  0  0  0  0
  8  2  1  0  0  0  0
 10  3  1  0  0  0  0
 11  3  1  0  0  0  0
 12  5  1  0  0  0  0
 16 24  1  6  0  0  0
 16 33  1  0  0  0  0
 16 23  1  0  0  0  0
 16 17  1  0  0  0  0
 17 18  1  0  0  0  0
 18 27  1  0  0  0  0
 18 19  1  0  0  0  0
 18 28  1  0  0  0  0
 19 29  1  0  0  0  0
 20 19  1  0  0  0  0
 20 21  1  0  0  0  0
 21 22  2  0  0  0  0
 23 20  1  0  0  0  0
 25 17  1  0  0  0  0
 26 17  1  0  0  0  0
 30 19  1  0  0  0  0
 31 23  1  0  0  0  0
 32 23  1  0  0  0  0
 33 35  1  0  0  0  0
 34 33  1  0  0  0  0
 36 33  1  0  0  0  0
 37  4  1  0  0  0  0
 37 38  1  0  0  0  0
 38 43  1  0  0  0  0
 39 38  2  0  0  0  0
 39 44  1  0  0  0  0
 40 39  1  0  0  0  0
 41 42  1  0  0  0  0
 41 40  2  0  0  0  0
 42 37  2  0  0  0  0
 45 42  1  0  0  0  0
 46 41  1  0  0  0  0
 47 50  1  0  0  0  0
 47 46  1  0  0  0  0
 48 46  2  0  0  0  0
 49 47  1  0  0  0  0
M  END
>  <MODEL>
27

>  <REMARK>
 VINA RESULT:    -5.561      1.827      8.650
 INTER + INTRA:          -7.317
 INTER:                  -7.141
 INTRA:                  -0.176
 UNBOUND:                -0.618
  Name = 
  4 active torsions:
  status: ('A' for Active; 'I' for Inactive)
    1  A    between atoms: C_1  and  C_2
    2  A    between atoms: C_7  and  C_9
    3  A    between atoms: N_12  and  C_13
    4  A    between atoms: C_17  and  C_18
                            x       y       z     vdW  Elec       q    Type
                         _______ _______ _______ _____ _____    ______ ____

>  <TORSDO>
F 4

$$$$
=
 OpenBabel07192307433D

 50 52  0  0  1  0  0  0  0  0999 V2000
    1.5380   10.1420   19.3300 C   0  0  0  0  0  0  0  0  0  0  0  0
    1.0310    8.9430   20.1450 C   0  0  0  0  0  0  0  0  0  0  0  0
    1.9660    7.7450   20.0080 C   0  0  0  0  0  0  0  0  0  0  0  0
    2.1410    7.4030   18.5820 N   0  0  0  0  0  0  0  0  0  0  0  0
    2.6390    8.5100   17.7540 C   0  0  0  0  0  0  0  0  0  0  0  0
    1.7050    9.7130   17.8670 C   0  0  0  0  0  0  0  0  0  0  0  0
    2.5020   10.4350   19.7590 H   0  0  0  0  0  0  0  0  0  0  0  0
    0.9400    9.2200   21.2020 H   0  0  0  0  0  0  0  0  0  0  0  0
    0.0260    8.6550   19.8080 H   0  0  0  0  0  0  0  0  0  0  0  0
    2.9420    7.9780   20.4550 H   0  0  0  0  0  0  0  0  0  0  0  0
    1.5340    6.9200   20.5840 H   0  0  0  0  0  0  0  0  0  0  0  0
    3.6510    8.7980   18.0650 H   0  0  0  0  0  0  0  0  0  0  0  0
    2.6760    8.2130   16.6980 H   0  0  0  0  0  0  0  0  0  0  0  0
    2.0960   10.5300   17.2540 H   0  0  0  0  0  0  0  0  0  0  0  0
    0.7240    9.4570   17.4460 H   0  0  0  0  0  0  0  0  0  0  0  0
   -2.3050    9.8040   18.1670 C   0  0  2  0  0  0  0  0  0  0  0  0
   -3.2570   11.0130   18.1980 C   0  0  0  0  0  0  0  0  0  0  0  0
   -2.5380   12.3240   18.5270 C   0  0  0  0  0  0  0  0  0  0  0  0
   -1.6940   12.1800   19.7910 C   0  0  0  0  0  0  0  0  0  0  0  0
   -0.7730   11.0530   19.6620 N   0  0  0  0  0  0  0  0  0  0  0  0
    0.5730   11.3230   19.4340 C   0  0  0  0  0  0  0  0  0  0  0  0
    0.9920   12.4790   19.3470 O   0  0  0  0  0  0  0  0  0  0  0  0
   -1.4350    9.7670   19.4360 C   0  0  0  0  0  0  0  0  0  0  0  0
   -2.9150    8.8920   18.1480 H   0  0  0  0  0  0  0  0  0  0  0  0
   -4.0240   10.8350   18.9640 H   0  0  0  0  0  0  0  0  0  0  0  0
   -3.7880   11.1100   17.2430 H   0  0  0  0  0  0  0  0  0  0  0  0
   -1.8970   12.6140   17.6860 H   0  0  0  0  0  0  0  0  0  0  0  0
   -3.2730   13.1260   18.6610 H   0  0  0  0  0  0  0  0  0  0  0  0
   -1.1610   13.1130   19.9940 H   0  0  0  0  0  0  0  0  0  0  0  0
   -2.3380   11.9820   20.6570 H   0  0  0  0  0  0  0  0  0  0  0  0
   -2.0690    9.5770   20.3110 H   0  0  0  0  0  0  0  0  0  0  0  0
   -0.7260    8.9400   19.3770 H   0  0  0  0  0  0  0  0  0  0  0  0
   -1.4500    9.7960   16.8970 C   0  0  0  0  0  0  0  0  0  0  0  0
   -1.2630   10.8180   16.5530 H   0  0  0  0  0  0  0  0  0  0  0  0
   -1.9280    9.2490   16.0770 H   0  0  0  0  0  0  0  0  0  0  0  0
   -0.4790    9.3290   17.0890 H   0  0  0  0  0  0  0  0  0  0  0  0
    2.6880    6.1240   18.3710 C   0  0  0  0  0  0  0  0  0  0  0  0
    1.9110    4.9860   18.6300 C   0  0  0  0  0  0  0  0  0  0  0  0
    2.4430    3.7220   18.4270 C   0  0  0  0  0  0  0  0  0  0  0  0
    3.6890    3.5010   17.9730 N   0  0  0  0  0  0  0  0  0  0  0  0
    4.4310    4.6000   17.7030 C   0  0  0  0  0  0  0  0  0  0  0  0
    3.9780    5.9070   17.8820 C   0  0  0  0  0  0  0  0  0  0  0  0
    0.8840    5.0790   18.9680 H   0  0  0  0  0  0  0  0  0  0  0  0
    1.8550    2.8300   18.6230 H   0  0  0  0  0  0  0  0  0  0  0  0
    4.6510    6.7290   17.6750 H   0  0  0  0  0  0  0  0  0  0  0  0
    5.8120    4.3510   17.1800 C   0  0  0  0  0  0  0  0  0  0  0  0
    6.8140    4.2370   18.1160 N   0  0  0  0  0  0  0  0  0  0  0  0
    6.0720    4.2710   15.9870 O   0  0  0  0  0  0  0  0  0  0  0  0
    7.7500    4.2490   17.7270 H   0  0  0  0  0  0  0  0  0  0  0  0
    6.7000    4.6450   19.0340 H   0  0  0  0  0  0  0  0  0  0  0  0
  1 21  1  0  0  0  0
  1  7  1  0  0  0  0
  1  2  1  0  0  0  0
  2  8  1  0  0  0  0
  3  2  1  0  0  0  0
  3 10  1  0  0  0  0
  3 11  1  0  0  0  0
  4  3  1  0  0  0  0
  5  6  1  0  0  0  0
  5 12  1  0  0  0  0
  5  4  1  0  0  0  0
  6  1  1  0  0  0  0
  9  2  1  0  0  0  0
 13  5  1  0  0  0  0
 14  6  1  0  0  0  0
 15  6  1  0  0  0  0
 16 24  1  6  0  0  0
 16 17  1  0  0  0  0
 16 23  1  0  0  0  0
 17 18  1  0  0  0  0
 17 25  1  0  0  0  0
 18 28  1  0  0  0  0
 18 19  1  0  0  0  0
 19 29  1  0  0  0  0
 19 30  1  0  0  0  0
 20 19  1  0  0  0  0
 21 20  1  0  0  0  0
 22 21  2  0  0  0  0
 23 20  1  0  0  0  0
 23 31  1  0  0  0  0
 26 17  1  0  0  0  0
 27 18  1  0  0  0  0
 32 23  1  0  0  0  0
 33 36  1  0  0  0  0
 33 16  1  0  0  0  0
 34 33  1  0  0  0  0
 35 33  1  0  0  0  0
 37  4  1  0  0  0  0
 37 38  1  0  0  0  0
 38 43  1  0  0  0  0
 39 44  1  0  0  0  0
 39 38  2  0  0  0  0
 40 39  1  0  0  0  0
 41 42  1  0  0  0  0
 41 40  2  0  0  0  0
 42 37  2  0  0  0  0
 45 42  1  0  0  0  0
 46 41  1  0  0  0  0
 46 47  1  0  0  0  0
 47 50  1  0  0  0  0
 48 46  2  0  0  0  0
 49 47  1  0  0  0  0
M  END
>  <MODEL>
28

>  <REMARK>
 VINA RESULT:    -5.436      2.365      8.158
 INTER + INTRA:          -7.167
 INTER:                  -7.595
 INTRA:                   0.429
 UNBOUND:                -0.618
  Name = 
  4 active torsions:
  status: ('A' for Active; 'I' for Inactive)
    1  A    between atoms: C_1  and  C_2
    2  A    between atoms: C_7  and  C_9
    3  A    between atoms: N_12  and  C_13
    4  A    between atoms: C_17  and  C_18
                            x       y       z     vdW  Elec       q    Type
                         _______ _______ _______ _____ _____    ______ ____

>  <TORSDO>
F 4

$$$$
=
 OpenBabel07192307433D

 50 52  0  0  1  0  0  0  0  0999 V2000
    2.7620    5.8690   18.7120 C   0  0  0  0  0  0  0  0  0  0  0  0
    2.5370    6.2240   20.1890 C   0  0  0  0  0  0  0  0  0  0  0  0
    1.4260    7.2580   20.3460 C   0  0  0  0  0  0  0  0  0  0  0  0
    1.7330    8.4540   19.5360 N   0  0  0  0  0  0  0  0  0  0  0  0
    1.9440    8.1770   18.1090 C   0  0  0  0  0  0  0  0  0  0  0  0
    3.0650    7.1540   17.9330 C   0  0  0  0  0  0  0  0  0  0  0  0
    1.8370    5.4060   18.3500 H   0  0  0  0  0  0  0  0  0  0  0  0
    2.2820    5.3210   20.7570 H   0  0  0  0  0  0  0  0  0  0  0  0
    3.4620    6.6210   20.6280 H   0  0  0  0  0  0  0  0  0  0  0  0
    0.4660    6.8310   20.0260 H   0  0  0  0  0  0  0  0  0  0  0  0
    1.3370    7.4900   21.4130 H   0  0  0  0  0  0  0  0  0  0  0  0
    1.0220    7.7970   17.6500 H   0  0  0  0  0  0  0  0  0  0  0  0
    2.2390    9.0910   17.5790 H   0  0  0  0  0  0  0  0  0  0  0  0
    3.2010    6.9510   16.8660 H   0  0  0  0  0  0  0  0  0  0  0  0
    4.0120    7.5820   18.2860 H   0  0  0  0  0  0  0  0  0  0  0  0
    6.1050    6.8230   16.6760 C   0  0  2  0  0  0  0  0  0  0  0  0
    7.2250    5.7900   16.4530 C   0  0  0  0  0  0  0  0  0  0  0  0
    6.8340    4.3840   16.9140 C   0  0  0  0  0  0  0  0  0  0  0  0
    6.3040    4.4080   18.3460 C   0  0  0  0  0  0  0  0  0  0  0  0
    5.2040    5.3630   18.4650 N   0  0  0  0  0  0  0  0  0  0  0  0
    3.9060    4.8670   18.5570 C   0  0  0  0  0  0  0  0  0  0  0  0
    3.6780    3.6560   18.5470 O   0  0  0  0  0  0  0  0  0  0  0  0
    5.5690    6.7380   18.1160 C   0  0  0  0  0  0  0  0  0  0  0  0
    6.5320    7.8230   16.5320 H   0  0  0  0  0  0  0  0  0  0  0  0
    8.1120    6.1080   17.0180 H   0  0  0  0  0  0  0  0  0  0  0  0
    7.5220    5.7660   15.3970 H   0  0  0  0  0  0  0  0  0  0  0  0
    6.0680    3.9750   16.2430 H   0  0  0  0  0  0  0  0  0  0  0  0
    7.7030    3.7190   16.8520 H   0  0  0  0  0  0  0  0  0  0  0  0
    5.9980    3.4030   18.6490 H   0  0  0  0  0  0  0  0  0  0  0  0
    7.0930    4.7270   19.0380 H   0  0  0  0  0  0  0  0  0  0  0  0
    6.3520    7.0470   18.8190 H   0  0  0  0  0  0  0  0  0  0  0  0
    4.7390    7.4330   18.2460 H   0  0  0  0  0  0  0  0  0  0  0  0
    4.9830    6.6640   15.6460 C   0  0  0  0  0  0  0  0  0  0  0  0
    5.3810    6.2860   14.6990 H   0  0  0  0  0  0  0  0  0  0  0  0
    4.4720    7.6110   15.4400 H   0  0  0  0  0  0  0  0  0  0  0  0
    4.2340    5.9490   16.0000 H   0  0  0  0  0  0  0  0  0  0  0  0
    0.9650    9.5820   19.8820 C   0  0  0  0  0  0  0  0  0  0  0  0
    0.5940    9.7850   21.2180 C   0  0  0  0  0  0  0  0  0  0  0  0
   -0.1630   10.8930   21.5670 C   0  0  0  0  0  0  0  0  0  0  0  0
   -0.5710   11.8250   20.6880 N   0  0  0  0  0  0  0  0  0  0  0  0
   -0.1930   11.6400   19.4020 C   0  0  0  0  0  0  0  0  0  0  0  0
    0.5640   10.5540   18.9630 C   0  0  0  0  0  0  0  0  0  0  0  0
    0.9100    9.0950   21.9940 H   0  0  0  0  0  0  0  0  0  0  0  0
   -0.4600   11.0640   22.5980 H   0  0  0  0  0  0  0  0  0  0  0  0
    0.7910   10.4650   17.9080 H   0  0  0  0  0  0  0  0  0  0  0  0
   -0.6330   12.6900   18.4290 C   0  0  0  0  0  0  0  0  0  0  0  0
   -1.4780   12.2820   17.4230 N   0  0  0  0  0  0  0  0  0  0  0  0
   -0.2580   13.8540   18.4840 O   0  0  0  0  0  0  0  0  0  0  0  0
   -1.6110   12.9670   16.6870 H   0  0  0  0  0  0  0  0  0  0  0  0
   -1.5080   11.3090   17.1470 H   0  0  0  0  0  0  0  0  0  0  0  0
  1  2  1  0  0  0  0
  2  3  1  0  0  0  0
  2  9  1  0  0  0  0
  2  8  1  0  0  0  0
  3 11  1  0  0  0  0
  4 37  1  0  0  0  0
  4  3  1  0  0  0  0
  5  4  1  0  0  0  0
  6  5  1  0  0  0  0
  6 15  1  0  0  0  0
  6  1  1  0  0  0  0
  7  1  1  0  0  0  0
 10  3  1  0  0  0  0
 12  5  1  0  0  0  0
 13  5  1  0  0  0  0
 14  6  1  0  0  0  0
 16 24  1  6  0  0  0
 16 23  1  0  0  0  0
 17 16  1  0  0  0  0
 17 18  1  0  0  0  0
 17 25  1  0  0  0  0
 18 19  1  0  0  0  0
 19 20  1  0  0  0  0
 19 29  1  0  0  0  0
 19 30  1  0  0  0  0
 20 21  1  0  0  0  0
 21  1  1  0  0  0  0
 22 21  2  0  0  0  0
 23 32  1  0  0  0  0
 23 20  1  0  0  0  0
 23 31  1  0  0  0  0
 26 17  1  0  0  0  0
 27 18  1  0  0  0  0
 28 18  1  0  0  0  0
 33 36  1  0  0  0  0
 33 16  1  0  0  0  0
 34 33  1  0  0  0  0
 35 33  1  0  0  0  0
 37 38  1  0  0  0  0
 38 39  2  0  0  0  0
 38 43  1  0  0  0  0
 39 44  1  0  0  0  0
 40 39  1  0  0  0  0
 41 40  2  0  0  0  0
 42 41  1  0  0  0  0
 42 37  2  0  0  0  0
 45 42  1  0  0  0  0
 46 48  2  0  0  0  0
 46 41  1  0  0  0  0
 47 46  1  0  0  0  0
 49 47  1  0  0  0  0
 50 47  1  0  0  0  0
M  END
>  <MODEL>
29

>  <REMARK>
 VINA RESULT:    -5.279      2.268      3.578
 INTER + INTRA:          -6.977
 INTER:                  -8.218
 INTRA:                   1.241
 UNBOUND:                -0.618
  Name = 
  4 active torsions:
  status: ('A' for Active; 'I' for Inactive)
    1  A    between atoms: C_1  and  C_2
    2  A    between atoms: C_7  and  C_9
    3  A    between atoms: N_12  and  C_13
    4  A    between atoms: C_17  and  C_18
                            x       y       z     vdW  Elec       q    Type
                         _______ _______ _______ _____ _____    ______ ____

>  <TORSDO>
F 4

$$$$
=
 OpenBabel07192307433D

 50 51  0  0  1  0  0  0  0  0999 V2000
    1.2080    9.0020   18.6980 C   0  0  0  0  0  3  0  0  0  0  0  0
    2.3220    9.3280   17.6920 C   0  0  0  0  0  0  0  0  0  0  0  0
    3.0000    8.0570   17.1880 C   0  0  0  0  0  0  0  0  0  0  0  0
    3.5070    7.2690   18.3290 N   0  0  0  0  0  0  0  0  0  0  0  0
    2.4800    6.9150   19.3190 C   0  0  0  0  0  0  0  0  0  0  0  0
    1.8010    8.1770   19.8460 C   0  0  0  0  0  3  0  0  0  0  0  0
    0.4500    8.4240   18.1580 H   0  0  0  0  0  0  0  0  0  0  0  0
    1.9100    9.8860   16.8440 H   0  0  0  0  0  0  0  0  0  0  0  0
    3.0760    9.9760   18.1590 H   0  0  0  0  0  0  0  0  0  0  0  0
    2.2870    7.4550   16.6090 H   0  0  0  0  0  0  0  0  0  0  0  0
    3.8010    8.3580   16.5030 H   0  0  0  0  0  0  0  0  0  0  0  0
    1.7290    6.2510   18.8730 H   0  0  0  0  0  0  0  0  0  0  0  0
    2.9330    6.3960   20.1730 H   0  0  0  0  0  0  0  0  0  0  0  0
    1.0330    7.8950   20.5730 H   0  0  0  0  0  0  0  0  0  0  0  0
    2.5320    8.7850   20.3950 H   0  0  0  0  0  0  0  0  0  0  0  0
    0.1230    9.3230   22.5650 C   0  0  2  0  0  0  0  0  0  0  0  0
   -0.5970   10.5790   23.0900 C   0  0  0  0  0  0  0  0  0  0  0  0
   -0.9920   11.5460   21.9710 C   0  0  0  0  0  0  0  0  0  0  0  0
    0.2040   11.8590   21.0740 C   0  0  0  0  0  0  0  0  0  0  0  0
    0.7950   10.6220   20.5640 N   0  0  0  0  0  0  0  0  0  0  0  0
    0.5630   10.2800   19.2350 C   0  0  0  0  0  0  0  0  0  0  0  0
   -0.1140   10.9950   18.4940 O   0  0  0  0  0  0  0  0  0  0  0  0
    1.2650    9.7130   21.6110 C   0  0  0  0  0  0  0  0  0  0  0  0
    0.5620    8.8000   23.4240 H   0  0  0  0  0  0  0  0  0  0  0  0
    0.0760   11.1030   23.7820 H   0  0  0  0  0  0  0  0  0  0  0  0
   -1.4840   10.3000   23.6700 H   0  0  0  0  0  0  0  0  0  0  0  0
   -1.7980   11.1060   21.3710 H   0  0  0  0  0  0  0  0  0  0  0  0
   -1.3830   12.4730   22.4040 H   0  0  0  0  0  0  0  0  0  0  0  0
   -0.1010   12.5230   20.2610 H   0  0  0  0  0  0  0  0  0  0  0  0
    0.9800   12.3830   21.6450 H   0  0  0  0  0  0  0  0  0  0  0  0
    2.0450   10.2460   22.1680 H   0  0  0  0  0  0  0  0  0  0  0  0
    1.7310    8.8160   21.2010 H   0  0  0  0  0  0  0  0  0  0  0  0
   -0.8570    8.3500   21.9030 C   0  0  0  0  0  0  0  0  0  0  0  0
   -1.1760    7.5820   22.6160 H   0  0  0  0  0  0  0  0  0  0  0  0
   -0.4180    7.8410   21.0390 H   0  0  0  0  0  0  0  0  0  0  0  0
   -1.7530    8.8780   21.5630 H   0  0  0  0  0  0  0  0  0  0  0  0
    4.4390    6.2800   17.9630 C   0  0  0  0  0  0  0  0  0  0  0  0
    4.9800    5.4400   18.9450 C   0  0  0  0  0  0  0  0  0  0  0  0
    5.9000    4.4640   18.5940 C   0  0  0  0  0  0  0  0  0  0  0  0
    6.3160    4.2500   17.3330 N   0  0  0  0  0  0  0  0  0  0  0  0
    5.7760    5.0470   16.3820 C   0  0  0  0  0  0  0  0  0  0  0  0
    4.8490    6.0550   16.6470 C   0  0  0  0  0  0  0  0  0  0  0  0
    4.6730    5.5260   19.9830 H   0  0  0  0  0  0  0  0  0  0  0  0
    6.3300    3.8060   19.3430 H   0  0  0  0  0  0  0  0  0  0  0  0
    4.4950    6.6710   15.8300 H   0  0  0  0  0  0  0  0  0  0  0  0
    6.2260    4.7950   14.9760 C   0  0  0  0  0  0  0  0  0  0  0  0
    5.3270    4.1690   14.1440 N   0  0  0  0  0  0  0  0  0  0  0  0
    7.3390    5.0960   14.5650 O   0  0  0  0  0  0  0  0  0  0  0  0
    5.7220    3.8550   13.2650 H   0  0  0  0  0  0  0  0  0  0  0  0
    4.5820    3.6060   14.5330 H   0  0  0  0  0  0  0  0  0  0  0  0
  1 21  1  0  0  0  0
  2  9  1  0  0  0  0
  2  1  1  0  0  0  0
  3  2  1  0  0  0  0
  3  4  1  0  0  0  0
  4  5  1  0  0  0  0
  5  6  1  0  0  0  0
  5 13  1  0  0  0  0
  6 15  1  0  0  0  0
  6 14  1  0  0  0  0
  7  1  1  0  0  0  0
  8  2  1  0  0  0  0
 10  3  1  0  0  0  0
 11  3  1  0  0  0  0
 12  5  1  0  0  0  0
 16 17  1  0  0  0  0
 16 24  1  1  0  0  0
 17 26  1  0  0  0  0
 17 25  1  0  0  0  0
 18 28  1  0  0  0  0
 18 17  1  0  0  0  0
 19 30  1  0  0  0  0
 19 18  1  0  0  0  0
 20 19  1  0  0  0  0
 20 23  1  0  0  0  0
 21 20  1  0  0  0  0
 22 21  2  0  0  0  0
 23 31  1  0  0  0  0
 23 16  1  0  0  0  0
 27 18  1  0  0  0  0
 29 19  1  0  0  0  0
 32 23  1  0  0  0  0
 33 16  1  0  0  0  0
 33 34  1  0  0  0  0
 35 33  1  0  0  0  0
 36 33  1  0  0  0  0
 37  4  1  0  0  0  0
 37 38  1  0  0  0  0
 38 43  1  0  0  0  0
 39 38  2  0  0  0  0
 39 44  1  0  0  0  0
 40 39  1  0  0  0  0
 41 42  1  0  0  0  0
 41 40  2  0  0  0  0
 42 37  2  0  0  0  0
 45 42  1  0  0  0  0
 46 41  1  0  0  0  0
 47 50  1  0  0  0  0
 47 46  1  0  0  0  0
 48 46  2  0  0  0  0
 49 47  1  0  0  0  0
M  END
>  <MODEL>
30

>  <REMARK>
 VINA RESULT:    -4.986      2.715      8.373
 INTER + INTRA:          -6.625
 INTER:                  -7.797
 INTRA:                   1.172
 UNBOUND:                -0.618
  Name = 
  4 active torsions:
  status: ('A' for Active; 'I' for Inactive)
    1  A    between atoms: C_1  and  C_2
    2  A    between atoms: C_7  and  C_9
    3  A    between atoms: N_12  and  C_13
    4  A    between atoms: C_17  and  C_18
                            x       y       z     vdW  Elec       q    Type
                         _______ _______ _______ _____ _____    ______ ____

>  <TORSDO>
F 4

$$$$
=
 OpenBabel07192307433D

 50 52  0  0  1  0  0  0  0  0999 V2000
    1.9180    7.6630   19.1580 C   0  0  0  0  0  0  0  0  0  0  0  0
    3.0510    8.4470   18.4780 C   0  0  0  0  0  0  0  0  0  0  0  0
    3.8640    7.5500   17.5490 C   0  0  0  0  0  0  0  0  0  0  0  0
    4.3770    6.3840   18.2960 N   0  0  0  0  0  0  0  0  0  0  0  0
    3.3340    5.5860   18.9570 C   0  0  0  0  0  0  0  0  0  0  0  0
    2.5210    6.4660   19.9040 C   0  0  0  0  0  0  0  0  0  0  0  0
    1.2430    7.3250   18.3640 H   0  0  0  0  0  0  0  0  0  0  0  0
    2.6360    9.2870   17.9090 H   0  0  0  0  0  0  0  0  0  0  0  0
    3.7190    8.8800   19.2350 H   0  0  0  0  0  0  0  0  0  0  0  0
    3.2380    7.2080   16.7140 H   0  0  0  0  0  0  0  0  0  0  0  0
    4.6690    8.1570   17.1230 H   0  0  0  0  0  0  0  0  0  0  0  0
    2.6690    5.1310   18.2130 H   0  0  0  0  0  0  0  0  0  0  0  0
    3.7860    4.7820   19.5520 H   0  0  0  0  0  0  0  0  0  0  0  0
    1.7430    5.8600   20.3790 H   0  0  0  0  0  0  0  0  0  0  0  0
    3.1650    6.8270   20.7160 H   0  0  0  0  0  0  0  0  0  0  0  0
    0.6890   11.3410   18.0630 C   0  0  2  0  0  0  0  0  0  0  0  0
   -0.0310   12.2700   19.0580 C   0  0  0  0  0  0  0  0  0  0  0  0
   -0.0420   11.7150   20.4850 C   0  0  0  0  0  0  0  0  0  0  0  0
   -0.5610   10.2800   20.5070 C   0  0  0  0  0  0  0  0  0  0  0  0
    0.2100    9.4460   19.5870 N   0  0  0  0  0  0  0  0  0  0  0  0
    1.1360    8.5550   20.1220 C   0  0  0  0  0  0  0  0  0  0  0  0
    1.3070    8.4580   21.3390 O   0  0  0  0  0  0  0  0  0  0  0  0
    0.1670    9.8990   18.1950 C   0  0  0  0  0  0  0  0  0  0  0  0
    0.4630   11.6910   17.0480 H   0  0  0  0  0  0  0  0  0  0  0  0
   -1.0700   12.4000   18.7270 H   0  0  0  0  0  0  0  0  0  0  0  0
    0.4240   13.2680   19.0510 H   0  0  0  0  0  0  0  0  0  0  0  0
    0.9730   11.7480   20.9010 H   0  0  0  0  0  0  0  0  0  0  0  0
   -0.6700   12.3470   21.1230 H   0  0  0  0  0  0  0  0  0  0  0  0
   -0.5310    9.8860   21.5270 H   0  0  0  0  0  0  0  0  0  0  0  0
   -1.6080   10.2490   20.1800 H   0  0  0  0  0  0  0  0  0  0  0  0
   -0.8820    9.8570   17.8790 H   0  0  0  0  0  0  0  0  0  0  0  0
    0.7220    9.2400   17.5280 H   0  0  0  0  0  0  0  0  0  0  0  0
    2.2090   11.4080   18.2320 C   0  0  0  0  0  0  0  0  0  0  0  0
    2.6430   12.1180   17.5200 H   0  0  0  0  0  0  0  0  0  0  0  0
    2.6880   10.4370   18.0690 H   0  0  0  0  0  0  0  0  0  0  0  0
    2.4710   11.7470   19.2390 H   0  0  0  0  0  0  0  0  0  0  0  0
    5.4100    5.6970   17.6310 C   0  0  0  0  0  0  0  0  0  0  0  0
    6.4960    5.2010   18.3640 C   0  0  0  0  0  0  0  0  0  0  0  0
    7.5190    4.5240   17.7170 C   0  0  0  0  0  0  0  0  0  0  0  0
    7.5390    4.2930   16.3930 N   0  0  0  0  0  0  0  0  0  0  0  0
    6.4800    4.7540   15.6890 C   0  0  0  0  0  0  0  0  0  0  0  0
    5.4110    5.4470   16.2580 C   0  0  0  0  0  0  0  0  0  0  0  0
    6.5400    5.3170   19.4430 H   0  0  0  0  0  0  0  0  0  0  0  0
    8.3680    4.1340   18.2710 H   0  0  0  0  0  0  0  0  0  0  0  0
    4.6210    5.8120   15.6140 H   0  0  0  0  0  0  0  0  0  0  0  0
    6.4960    4.4790   14.2170 C   0  0  0  0  0  0  0  0  0  0  0  0
    5.6900    3.4560   13.7730 N   0  0  0  0  0  0  0  0  0  0  0  0
    7.1960    5.0980   13.4270 O   0  0  0  0  0  0  0  0  0  0  0  0
    5.8580    3.1810   12.8120 H   0  0  0  0  0  0  0  0  0  0  0  0
    5.3990    2.7250   14.4090 H   0  0  0  0  0  0  0  0  0  0  0  0
  1  6  1  0  0  0  0
  1 21  1  0  0  0  0
  2  1  1  0  0  0  0
  2  9  1  0  0  0  0
  3  4  1  0  0  0  0
  3  2  1  0  0  0  0
  4  5  1  0  0  0  0
  5 13  1  0  0  0  0
  5  6  1  0  0  0  0
  6 14  1  0  0  0  0
  6 15  1  0  0  0  0
  7  1  1  0  0  0  0
  8  2  1  0  0  0  0
 10  3  1  0  0  0  0
 11  3  1  0  0  0  0
 12  5  1  0  0  0  0
 16 24  1  6  0  0  0
 16 23  1  0  0  0  0
 16 33  1  0  0  0  0
 16 17  1  0  0  0  0
 17 18  1  0  0  0  0
 18 19  1  0  0  0  0
 18 27  1  0  0  0  0
 18 28  1  0  0  0  0
 19 29  1  0  0  0  0
 20 21  1  0  0  0  0
 20 19  1  0  0  0  0
 21 22  2  0  0  0  0
 23 20  1  0  0  0  0
 25 17  1  0  0  0  0
 26 17  1  0  0  0  0
 30 19  1  0  0  0  0
 31 23  1  0  0  0  0
 32 23  1  0  0  0  0
 33 36  1  0  0  0  0
 34 33  1  0  0  0  0
 35 33  1  0  0  0  0
 37  4  1  0  0  0  0
 37 38  1  0  0  0  0
 38 43  1  0  0  0  0
 39 44  1  0  0  0  0
 39 38  2  0  0  0  0
 40 39  1  0  0  0  0
 41 42  1  0  0  0  0
 41 40  2  0  0  0  0
 42 37  2  0  0  0  0
 45 42  1  0  0  0  0
 46 41  1  0  0  0  0
 47 46  1  0  0  0  0
 47 50  1  0  0  0  0
 48 46  2  0  0  0  0
 49 47  1  0  0  0  0
M  END
>  <MODEL>
31

>  <REMARK>
 VINA RESULT:    -4.969      2.881      8.745
 INTER + INTRA:          -6.604
 INTER:                  -6.601
 INTRA:                  -0.002
 UNBOUND:                -0.618
  Name = 
  4 active torsions:
  status: ('A' for Active; 'I' for Inactive)
    1  A    between atoms: C_1  and  C_2
    2  A    between atoms: C_7  and  C_9
    3  A    between atoms: N_12  and  C_13
    4  A    between atoms: C_17  and  C_18
                            x       y       z     vdW  Elec       q    Type
                         _______ _______ _______ _____ _____    ______ ____

>  <TORSDO>
F 4

$$$$
