=
 OpenBabel07192307433D

 51 53  0  0  1  0  0  0  0  0999 V2000
    1.3250    9.4940   19.3900 C   0  0  0  0  0  0  0  0  0  0  0  0
    1.8480    9.2680   18.1050 C   0  0  0  0  0  0  0  0  0  0  0  0
    2.4130    8.0360   17.7740 C   0  0  0  0  0  0  0  0  0  0  0  0
    2.4810    7.0190   18.7330 C   0  0  0  0  0  0  0  0  0  0  0  0
    1.9720    7.2320   20.0200 C   0  0  0  0  0  0  0  0  0  0  0  0
    1.3990    8.4660   20.3450 C   0  0  0  0  0  0  0  0  0  0  0  0
    1.8030   10.0550   17.3470 H   0  0  0  0  0  0  0  0  0  0  0  0
    2.7990    7.8810   16.7700 H   0  0  0  0  0  0  0  0  0  0  0  0
    1.9810    6.4450   20.7720 H   0  0  0  0  0  0  0  0  0  0  0  0
    0.9980    8.6160   21.3460 H   0  0  0  0  0  0  0  0  0  0  0  0
    3.0760    5.7200   18.3350 C   0  0  0  0  0  0  0  0  0  0  0  0
    4.2730    5.4910   18.4920 O   0  0  0  0  0  0  0  0  0  0  0  0
    2.2290    4.7770   17.7760 N   0  0  0  0  0  0  0  0  0  0  0  0
    1.2300    4.9590   17.8630 H   0  0  0  0  0  0  0  0  0  0  0  0
    2.6360    3.3760   17.7590 C   0  0  0  0  0  0  0  0  0  0  0  0
    3.7040    3.3580   17.5170 H   0  0  0  0  0  0  0  0  0  0  0  0
    2.1050    2.8870   16.9320 H   0  0  0  0  0  0  0  0  0  0  0  0
    2.3960    2.5990   19.0760 C   0  0  2  0  0  0  0  0  0  0  0  0
    1.0190    2.9030   19.6800 C   0  0  0  0  0  0  0  0  0  0  0  0
    1.2320    2.7000   21.1650 C   0  0  0  0  0  0  0  0  0  0  0  0
    2.5910    3.3240   21.4190 C   0  0  0  0  0  0  0  0  0  0  0  0
    3.3780    2.9840   20.1810 N   0  0  0  0  0  4  0  0  0  0  0  0
    2.5130    1.5150   18.9130 H   0  0  0  0  0  0  0  0  0  0  0  0
    0.2400    2.2370   19.2800 H   0  0  0  0  0  0  0  0  0  0  0  0
    0.7100    3.9430   19.4800 H   0  0  0  0  0  0  0  0  0  0  0  0
    1.2630    1.6260   21.3990 H   0  0  0  0  0  0  0  0  0  0  0  0
    0.4380    3.1490   21.7620 H   0  0  0  0  0  0  0  0  0  0  0  0
    2.5670    4.4200   21.4740 H   0  0  0  0  0  0  0  0  0  0  0  0
    3.0980    2.9180   22.3100 H   0  0  0  0  0  0  0  0  0  0  0  0
    3.8750    3.8490   19.8670 H   0  0  0  0  0  0  0  0  0  0  0  0
    4.4560    1.9700   20.4210 C   0  0  0  0  0  0  0  0  0  0  0  0
    5.2560    2.1390   19.7010 H   0  0  0  0  0  0  0  0  0  0  0  0
    4.0260    0.9730   20.3010 H   0  0  0  0  0  0  0  0  0  0  0  0
    4.8280    2.1170   21.4380 H   0  0  0  0  0  0  0  0  0  0  0  0
    0.7040   10.8300   19.7420 C   0  0  0  0  0  0  0  0  0  0  0  0
    0.4610   10.8940   20.8090 H   0  0  0  0  0  0  0  0  0  0  0  0
    1.4050   11.6420   19.5140 H   0  0  0  0  0  0  0  0  0  0  0  0
   -2.3770   10.5710   18.0830 C   0  0  0  0  0  0  0  0  0  0  0  0
   -2.1760   11.9490   17.8520 C   0  0  0  0  0  0  0  0  0  0  0  0
   -0.9670   12.2490   18.4420 C   0  0  0  0  0  0  0  0  0  0  0  0
   -0.5300   11.0730   19.0010 N   0  0  0  0  0  0  0  0  0  0  0  0
   -1.3760   10.0410   18.7920 N   0  0  0  0  0  0  0  0  0  0  0  0
   -2.8210   12.6280   17.3130 H   0  0  0  0  0  0  0  0  0  0  0  0
   -3.5100    9.7210   17.6480 C   0  0  0  0  0  0  0  0  0  0  0  0
   -4.3850    9.8830   18.2900 H   0  0  0  0  0  0  0  0  0  0  0  0
   -3.7870    9.9670   16.6230 H   0  0  0  0  0  0  0  0  0  0  0  0
   -3.2510    8.6600   17.6890 H   0  0  0  0  0  0  0  0  0  0  0  0
   -0.2200   13.5300   18.5100 C   0  0  0  0  0  0  0  0  0  0  0  0
    0.6520   13.4370   19.1670 H   0  0  0  0  0  0  0  0  0  0  0  0
    0.1190   13.8380   17.5150 H   0  0  0  0  0  0  0  0  0  0  0  0
   -0.8520   14.3300   18.9110 H   0  0  0  0  0  0  0  0  0  0  0  0
  1 35  1  0  0  0  0
  1  6  1  0  0  0  0
  2  1  2  0  0  0  0
  3  2  1  0  0  0  0
  3  4  2  0  0  0  0
  4  5  1  0  0  0  0
  5  6  2  0  0  0  0
  5  9  1  0  0  0  0
  6 10  1  0  0  0  0
  7  2  1  0  0  0  0
  8  3  1  0  0  0  0
 11 12  2  0  0  0  0
 11  4  1  0  0  0  0
 13 14  1  0  0  0  0
 13 11  1  0  0  0  0
 15 13  1  0  0  0  0
 15 18  1  0  0  0  0
 16 15  1  0  0  0  0
 17 15  1  0  0  0  0
 18 23  1  6  0  0  0
 18 19  1  0  0  0  0
 18 22  1  0  0  0  0
 19 20  1  0  0  0  0
 20 26  1  0  0  0  0
 20 21  1  0  0  0  0
 20 27  1  0  0  0  0
 21 28  1  0  0  0  0
 21 29  1  0  0  0  0
 22 31  1  0  0  0  0
 22 21  1  0  0  0  0
 24 19  1  0  0  0  0
 25 19  1  0  0  0  0
 30 22  1  0  0  0  0
 31 34  1  0  0  0  0
 32 31  1  0  0  0  0
 33 31  1  0  0  0  0
 35 36  1  0  0  0  0
 37 35  1  0  0  0  0
 38 42  2  0  0  0  0
 39 38  1  0  0  0  0
 39 40  2  0  0  0  0
 40 48  1  0  0  0  0
 40 41  1  0  0  0  0
 41 35  1  0  0  0  0
 42 41  1  0  0  0  0
 43 39  1  0  0  0  0
 44 47  1  0  0  0  0
 44 38  1  0  0  0  0
 44 45  1  0  0  0  0
 46 44  1  0  0  0  0
 48 51  1  0  0  0  0
 48 49  1  0  0  0  0
 50 48  1  0  0  0  0
M  END
>  <MODEL>
1

>  <REMARK>
 VINA RESULT:    -7.237      0.000      0.000
 INTER + INTRA:         -10.896
 INTER:                  -9.949
 INTRA:                  -0.947
 UNBOUND:                -0.910
  Name = 
  8 active torsions:
  status: ('A' for Active; 'I' for Inactive)
    1  A    between atoms: C_1  and  C_2
    2  A    between atoms: C_4  and  C_5
    3  A    between atoms: N_6  and  C_7
    4  A    between atoms: C_7  and  C_8
    5  A    between atoms: C_11  and  C_12
    6  A    between atoms: N_14  and  C_15
    7  A    between atoms: C_15  and  C_16
    8  A    between atoms: N_20  and  C_21
                            x       y       z     vdW  Elec       q    Type
                         _______ _______ _______ _____ _____    ______ ____

>  <TORSDO>
F 8

$$$$
=
 OpenBabel07192307433D

 51 53  0  0  1  0  0  0  0  0999 V2000
    2.8520    7.0070   19.1270 C   0  0  0  0  0  0  0  0  0  0  0  0
    2.0610    7.4110   20.2160 C   0  0  0  0  0  0  0  0  0  0  0  0
    1.2310    8.5280   20.1160 C   0  0  0  0  0  0  0  0  0  0  0  0
    1.1960    9.2680   18.9280 C   0  0  0  0  0  0  0  0  0  0  0  0
    1.9850    8.8830   17.8370 C   0  0  0  0  0  0  0  0  0  0  0  0
    2.8100    7.7580   17.9390 C   0  0  0  0  0  0  0  0  0  0  0  0
    2.0790    6.8420   21.1500 H   0  0  0  0  0  0  0  0  0  0  0  0
    0.6180    8.8130   20.9680 H   0  0  0  0  0  0  0  0  0  0  0  0
    1.9490    9.4220   16.8930 H   0  0  0  0  0  0  0  0  0  0  0  0
    3.4110    7.4630   17.0810 H   0  0  0  0  0  0  0  0  0  0  0  0
    0.2890   10.4390   18.8590 C   0  0  0  0  0  0  0  0  0  0  0  0
    0.6950   11.5420   18.5020 O   0  0  0  0  0  0  0  0  0  0  0  0
   -1.0340   10.2410   19.2190 N   0  0  0  0  0  0  0  0  0  0  0  0
   -1.3370    9.2720   19.3080 H   0  0  0  0  0  0  0  0  0  0  0  0
   -2.0430   11.2000   18.7810 C   0  0  0  0  0  0  0  0  0  0  0  0
   -1.5050   12.0520   18.3500 H   0  0  0  0  0  0  0  0  0  0  0  0
   -2.5650   11.5630   19.6770 H   0  0  0  0  0  0  0  0  0  0  0  0
   -3.0650   10.6650   17.7500 C   0  0  2  0  0  0  0  0  0  0  0  0
   -2.3990    9.7880   16.6820 C   0  0  0  0  0  0  0  0  0  0  0  0
   -3.2890    9.9680   15.4710 C   0  0  0  0  0  0  0  0  0  0  0  0
   -3.6120   11.4500   15.4830 C   0  0  0  0  0  0  0  0  0  0  0  0
   -3.7390   11.7770   16.9490 N   0  0  0  0  0  4  0  0  0  0  0  0
   -3.8710   10.1090   18.2570 H   0  0  0  0  0  0  0  0  0  0  0  0
   -2.3380    8.7350   16.9970 H   0  0  0  0  0  0  0  0  0  0  0  0
   -1.3760   10.1320   16.4560 H   0  0  0  0  0  0  0  0  0  0  0  0
   -4.2130    9.3820   15.5900 H   0  0  0  0  0  0  0  0  0  0  0  0
   -2.8050    9.6440   14.5500 H   0  0  0  0  0  0  0  0  0  0  0  0
   -2.7990   12.0790   15.1000 H   0  0  0  0  0  0  0  0  0  0  0  0
   -4.5520   11.6960   14.9620 H   0  0  0  0  0  0  0  0  0  0  0  0
   -3.2050   12.6580   17.1300 H   0  0  0  0  0  0  0  0  0  0  0  0
   -5.1470   12.0690   17.3730 C   0  0  0  0  0  0  0  0  0  0  0  0
   -5.1260   12.4640   18.3890 H   0  0  0  0  0  0  0  0  0  0  0  0
   -5.7230   11.1420   17.3260 H   0  0  0  0  0  0  0  0  0  0  0  0
   -5.5510   12.8170   16.6870 H   0  0  0  0  0  0  0  0  0  0  0  0
    3.7450    5.7880   19.2360 C   0  0  0  0  0  0  0  0  0  0  0  0
    4.7040    5.9430   18.7290 H   0  0  0  0  0  0  0  0  0  0  0  0
    3.9600    5.5740   20.2900 H   0  0  0  0  0  0  0  0  0  0  0  0
    1.7420    3.0020   18.5050 C   0  0  0  0  0  0  0  0  0  0  0  0
    2.6180    2.8740   17.4040 C   0  0  0  0  0  0  0  0  0  0  0  0
    3.5170    3.9120   17.5270 C   0  0  0  0  0  0  0  0  0  0  0  0
    3.1290    4.6020   18.6480 N   0  0  0  0  0  0  0  0  0  0  0  0
    2.0500    4.0620   19.2560 N   0  0  0  0  0  0  0  0  0  0  0  0
    2.6040    2.1150   16.6340 H   0  0  0  0  0  0  0  0  0  0  0  0
    0.5970    2.1370   18.8730 C   0  0  0  0  0  0  0  0  0  0  0  0
   -0.0870    2.6640   19.5500 H   0  0  0  0  0  0  0  0  0  0  0  0
    0.0430    1.8530   17.9790 H   0  0  0  0  0  0  0  0  0  0  0  0
    0.9320    1.2240   19.3730 H   0  0  0  0  0  0  0  0  0  0  0  0
    4.6810    4.2830   16.6830 C   0  0  0  0  0  0  0  0  0  0  0  0
    4.8820    5.3580   16.7490 H   0  0  0  0  0  0  0  0  0  0  0  0
    5.5770    3.7350   16.9920 H   0  0  0  0  0  0  0  0  0  0  0  0
    4.4900    4.0470   15.6300 H   0  0  0  0  0  0  0  0  0  0  0  0
  1 35  1  0  0  0  0
  1  2  1  0  0  0  0
  2  7  1  0  0  0  0
  3  2  2  0  0  0  0
  3  8  1  0  0  0  0
  4  3  1  0  0  0  0
  5  6  1  0  0  0  0
  5  4  2  0  0  0  0
  6  1  2  0  0  0  0
  9  5  1  0  0  0  0
 10  6  1  0  0  0  0
 11  4  1  0  0  0  0
 11 13  1  0  0  0  0
 12 11  2  0  0  0  0
 13 14  1  0  0  0  0
 15 13  1  0  0  0  0
 15 17  1  0  0  0  0
 16 15  1  0  0  0  0
 18 23  1  1  0  0  0
 18 15  1  0  0  0  0
 19 24  1  0  0  0  0
 19 18  1  0  0  0  0
 20 21  1  0  0  0  0
 20 26  1  0  0  0  0
 20 19  1  0  0  0  0
 21 22  1  0  0  0  0
 22 30  1  0  0  0  0
 22 31  1  0  0  0  0
 22 18  1  0  0  0  0
 25 19  1  0  0  0  0
 27 20  1  0  0  0  0
 28 21  1  0  0  0  0
 29 21  1  0  0  0  0
 31 32  1  0  0  0  0
 33 31  1  0  0  0  0
 34 31  1  0  0  0  0
 35 37  1  0  0  0  0
 36 35  1  0  0  0  0
 38 44  1  0  0  0  0
 38 42  2  0  0  0  0
 39 40  2  0  0  0  0
 39 38  1  0  0  0  0
 40 41  1  0  0  0  0
 41 35  1  0  0  0  0
 41 42  1  0  0  0  0
 43 39  1  0  0  0  0
 44 47  1  0  0  0  0
 44 45  1  0  0  0  0
 46 44  1  0  0  0  0
 48 49  1  0  0  0  0
 48 50  1  0  0  0  0
 48 40  1  0  0  0  0
 51 48  1  0  0  0  0
M  END
>  <MODEL>
2

>  <REMARK>
 VINA RESULT:    -7.060      2.084      8.170
 INTER + INTRA:         -10.652
 INTER:                  -9.928
 INTRA:                  -0.724
 UNBOUND:                -0.910
  Name = 
  8 active torsions:
  status: ('A' for Active; 'I' for Inactive)
    1  A    between atoms: C_1  and  C_2
    2  A    between atoms: C_4  and  C_5
    3  A    between atoms: N_6  and  C_7
    4  A    between atoms: C_7  and  C_8
    5  A    between atoms: C_11  and  C_12
    6  A    between atoms: N_14  and  C_15
    7  A    between atoms: C_15  and  C_16
    8  A    between atoms: N_20  and  C_21
                            x       y       z     vdW  Elec       q    Type
                         _______ _______ _______ _____ _____    ______ ____

>  <TORSDO>
F 8

$$$$
=
 OpenBabel07192307433D

 51 53  0  0  1  0  0  0  0  0999 V2000
    1.2650    9.2970   19.6830 C   0  0  0  0  0  0  0  0  0  0  0  0
    1.8100    9.0470   18.4120 C   0  0  0  0  0  0  0  0  0  0  0  0
    2.3930    7.8140   18.1180 C   0  0  0  0  0  0  0  0  0  0  0  0
    2.4560    6.8200   19.1010 C   0  0  0  0  0  0  0  0  0  0  0  0
    1.9250    7.0560   20.3750 C   0  0  0  0  0  0  0  0  0  0  0  0
    1.3330    8.2910   20.6620 C   0  0  0  0  0  0  0  0  0  0  0  0
    1.7690    9.8160   17.6350 H   0  0  0  0  0  0  0  0  0  0  0  0
    2.7970    7.6410   17.1240 H   0  0  0  0  0  0  0  0  0  0  0  0
    1.9300    6.2870   21.1440 H   0  0  0  0  0  0  0  0  0  0  0  0
    0.9150    8.4600   21.6530 H   0  0  0  0  0  0  0  0  0  0  0  0
    3.0710    5.5190   18.7420 C   0  0  0  0  0  0  0  0  0  0  0  0
    2.7310    4.9080   17.7320 O   0  0  0  0  0  0  0  0  0  0  0  0
    4.0420    5.0180   19.5950 N   0  0  0  0  0  0  0  0  0  0  0  0
    4.4090    5.6650   20.2910 H   0  0  0  0  0  0  0  0  0  0  0  0
    4.9640    3.9990   19.1030 C   0  0  0  0  0  0  0  0  0  0  0  0
    4.3830    3.3290   18.4600 H   0  0  0  0  0  0  0  0  0  0  0  0
    5.2990    3.4120   19.9690 H   0  0  0  0  0  0  0  0  0  0  0  0
    6.1850    4.5330   18.3180 C   0  0  2  0  0  0  0  0  0  0  0  0
    6.8910    5.6750   19.0590 C   0  0  0  0  0  0  0  0  0  0  0  0
    7.5040    6.4960   17.9430 C   0  0  0  0  0  0  0  0  0  0  0  0
    6.4210    6.5170   16.8810 C   0  0  0  0  0  0  0  0  0  0  0  0
    5.8050    5.1450   16.9710 N   0  0  0  0  0  4  0  0  0  0  0  0
    6.8950    3.7160   18.1040 H   0  0  0  0  0  0  0  0  0  0  0  0
    7.6510    5.3000   19.7600 H   0  0  0  0  0  0  0  0  0  0  0  0
    6.1760    6.2880   19.6320 H   0  0  0  0  0  0  0  0  0  0  0  0
    8.4010    5.9930   17.5540 H   0  0  0  0  0  0  0  0  0  0  0  0
    7.7950    7.4920   18.2750 H   0  0  0  0  0  0  0  0  0  0  0  0
    5.6140    7.2280   17.0920 H   0  0  0  0  0  0  0  0  0  0  0  0
    6.8120    6.6860   15.8640 H   0  0  0  0  0  0  0  0  0  0  0  0
    4.7650    5.2580   16.9640 H   0  0  0  0  0  0  0  0  0  0  0  0
    6.1190    4.2730   15.7930 C   0  0  0  0  0  0  0  0  0  0  0  0
    5.2760    3.6040   15.6230 H   0  0  0  0  0  0  0  0  0  0  0  0
    7.0280    3.7080   16.0120 H   0  0  0  0  0  0  0  0  0  0  0  0
    6.2630    4.9250   14.9270 H   0  0  0  0  0  0  0  0  0  0  0  0
    0.6240   10.6330   19.9950 C   0  0  0  0  0  0  0  0  0  0  0  0
    0.2430   10.6690   21.0220 H   0  0  0  0  0  0  0  0  0  0  0  0
    1.3630   11.4370   19.8890 H   0  0  0  0  0  0  0  0  0  0  0  0
   -2.2570   10.5070   17.9970 C   0  0  0  0  0  0  0  0  0  0  0  0
   -1.9320   11.8570   17.7390 C   0  0  0  0  0  0  0  0  0  0  0  0
   -0.7800   12.1010   18.4550 C   0  0  0  0  0  0  0  0  0  0  0  0
   -0.4960   10.9260   19.1060 N   0  0  0  0  0  0  0  0  0  0  0  0
   -1.3860    9.9450   18.8380 N   0  0  0  0  0  0  0  0  0  0  0  0
   -2.4600   12.5530   17.1020 H   0  0  0  0  0  0  0  0  0  0  0  0
   -3.3930    9.7180   17.4650 C   0  0  0  0  0  0  0  0  0  0  0  0
   -3.2180    8.6430   17.6030 H   0  0  0  0  0  0  0  0  0  0  0  0
   -4.3100    9.9860   17.9890 H   0  0  0  0  0  0  0  0  0  0  0  0
   -3.5410    9.9030   16.3980 H   0  0  0  0  0  0  0  0  0  0  0  0
    0.0460   13.3310   18.5610 C   0  0  0  0  0  0  0  0  0  0  0  0
    0.5460   13.3790   19.5350 H   0  0  0  0  0  0  0  0  0  0  0  0
    0.8040   13.3620   17.7720 H   0  0  0  0  0  0  0  0  0  0  0  0
   -0.5760   14.2280   18.4640 H   0  0  0  0  0  0  0  0  0  0  0  0
  1 35  1  0  0  0  0
  1  6  1  0  0  0  0
  2  1  2  0  0  0  0
  3  2  1  0  0  0  0
  3  4  2  0  0  0  0
  4  5  1  0  0  0  0
  5  6  2  0  0  0  0
  5  9  1  0  0  0  0
  6 10  1  0  0  0  0
  7  2  1  0  0  0  0
  8  3  1  0  0  0  0
 11  4  1  0  0  0  0
 11 13  1  0  0  0  0
 12 11  2  0  0  0  0
 13 14  1  0  0  0  0
 15 13  1  0  0  0  0
 15 17  1  0  0  0  0
 16 15  1  0  0  0  0
 18 23  1  6  0  0  0
 18 19  1  0  0  0  0
 18 15  1  0  0  0  0
 19 25  1  0  0  0  0
 19 24  1  0  0  0  0
 20 27  1  0  0  0  0
 20 19  1  0  0  0  0
 21 22  1  0  0  0  0
 21 28  1  0  0  0  0
 21 20  1  0  0  0  0
 22 18  1  0  0  0  0
 26 20  1  0  0  0  0
 29 21  1  0  0  0  0
 30 22  1  0  0  0  0
 31 33  1  0  0  0  0
 31 22  1  0  0  0  0
 32 31  1  0  0  0  0
 34 31  1  0  0  0  0
 35 36  1  0  0  0  0
 37 35  1  0  0  0  0
 38 42  2  0  0  0  0
 39 38  1  0  0  0  0
 39 40  2  0  0  0  0
 40 48  1  0  0  0  0
 40 41  1  0  0  0  0
 41 35  1  0  0  0  0
 42 41  1  0  0  0  0
 43 39  1  0  0  0  0
 44 45  1  0  0  0  0
 44 46  1  0  0  0  0
 44 38  1  0  0  0  0
 47 44  1  0  0  0  0
 48 49  1  0  0  0  0
 50 48  1  0  0  0  0
 51 48  1  0  0  0  0
M  END
>  <MODEL>
3

>  <REMARK>
 VINA RESULT:    -6.993      2.109      3.164
 INTER + INTRA:         -10.560
 INTER:                  -9.684
 INTRA:                  -0.876
 UNBOUND:                -0.910
  Name = 
  8 active torsions:
  status: ('A' for Active; 'I' for Inactive)
    1  A    between atoms: C_1  and  C_2
    2  A    between atoms: C_4  and  C_5
    3  A    between atoms: N_6  and  C_7
    4  A    between atoms: C_7  and  C_8
    5  A    between atoms: C_11  and  C_12
    6  A    between atoms: N_14  and  C_15
    7  A    between atoms: C_15  and  C_16
    8  A    between atoms: N_20  and  C_21
                            x       y       z     vdW  Elec       q    Type
                         _______ _______ _______ _____ _____    ______ ____

>  <TORSDO>
F 8

$$$$
=
 OpenBabel07192307433D

 51 53  0  0  1  0  0  0  0  0999 V2000
    3.4130    6.0420   18.8520 C   0  0  0  0  0  0  0  0  0  0  0  0
    3.5040    6.8950   17.7390 C   0  0  0  0  0  0  0  0  0  0  0  0
    2.8050    8.1020   17.7080 C   0  0  0  0  0  0  0  0  0  0  0  0
    1.9870    8.4620   18.7850 C   0  0  0  0  0  0  0  0  0  0  0  0
    1.8790    7.6190   19.8980 C   0  0  0  0  0  0  0  0  0  0  0  0
    2.5890    6.4140   19.9280 C   0  0  0  0  0  0  0  0  0  0  0  0
    4.1390    6.6250   16.8890 H   0  0  0  0  0  0  0  0  0  0  0  0
    2.9020    8.7510   16.8410 H   0  0  0  0  0  0  0  0  0  0  0  0
    1.2780    7.8940   20.7620 H   0  0  0  0  0  0  0  0  0  0  0  0
    2.5050    5.7720   20.8030 H   0  0  0  0  0  0  0  0  0  0  0  0
    1.2730    9.7600   18.7180 C   0  0  0  0  0  0  0  0  0  0  0  0
    1.7940   10.7510   18.2130 O   0  0  0  0  0  0  0  0  0  0  0  0
   -0.0050    9.8110   19.2530 N   0  0  0  0  0  0  0  0  0  0  0  0
   -0.4400    8.9150   19.4670 H   0  0  0  0  0  0  0  0  0  0  0  0
   -0.9010   10.8910   18.8530 C   0  0  0  0  0  0  0  0  0  0  0  0
   -0.3070   11.5940   18.2590 H   0  0  0  0  0  0  0  0  0  0  0  0
   -1.2130   11.4160   19.7650 H   0  0  0  0  0  0  0  0  0  0  0  0
   -2.1440   10.4550   18.0390 C   0  0  2  0  0  0  0  0  0  0  0  0
   -1.7610    9.6380   16.7990 C   0  0  0  0  0  0  0  0  0  0  0  0
   -2.8850    9.9260   15.8260 C   0  0  0  0  0  0  0  0  0  0  0  0
   -3.1370   11.4110   16.0010 C   0  0  0  0  0  0  0  0  0  0  0  0
   -2.9300   11.6380   17.4760 N   0  0  0  0  0  4  0  0  0  0  0  0
   -2.8430    9.8860   18.6750 H   0  0  0  0  0  0  0  0  0  0  0  0
   -1.6770    8.5650   17.0260 H   0  0  0  0  0  0  0  0  0  0  0  0
   -0.7990    9.9710   16.3760 H   0  0  0  0  0  0  0  0  0  0  0  0
   -3.7830    9.3570   16.1070 H   0  0  0  0  0  0  0  0  0  0  0  0
   -2.6250    9.6540   14.8020 H   0  0  0  0  0  0  0  0  0  0  0  0
   -2.4020   12.0440   15.4880 H   0  0  0  0  0  0  0  0  0  0  0  0
   -4.1560   11.7170   15.7140 H   0  0  0  0  0  0  0  0  0  0  0  0
   -2.3340   12.4900   17.5900 H   0  0  0  0  0  0  0  0  0  0  0  0
   -4.1990   11.9360   18.2150 C   0  0  0  0  0  0  0  0  0  0  0  0
   -4.3680   13.0130   18.1910 H   0  0  0  0  0  0  0  0  0  0  0  0
   -4.0930   11.5810   19.2430 H   0  0  0  0  0  0  0  0  0  0  0  0
   -5.0120   11.4160   17.7030 H   0  0  0  0  0  0  0  0  0  0  0  0
    4.1820    4.7380   18.8850 C   0  0  0  0  0  0  0  0  0  0  0  0
    4.6630    4.5770   19.8570 H   0  0  0  0  0  0  0  0  0  0  0  0
    3.5010    3.8960   18.7110 H   0  0  0  0  0  0  0  0  0  0  0  0
    6.0720    4.2890   15.9640 C   0  0  0  0  0  0  0  0  0  0  0  0
    7.1140    4.8140   16.7590 C   0  0  0  0  0  0  0  0  0  0  0  0
    6.5490    5.0540   17.9940 C   0  0  0  0  0  0  0  0  0  0  0  0
    5.2300    4.6920   17.8700 N   0  0  0  0  0  0  0  0  0  0  0  0
    4.9220    4.2250   16.6400 N   0  0  0  0  0  0  0  0  0  0  0  0
    8.1430    4.9800   16.4740 H   0  0  0  0  0  0  0  0  0  0  0  0
    6.1310    3.8410   14.5530 C   0  0  0  0  0  0  0  0  0  0  0  0
    5.9110    2.7680   14.4760 H   0  0  0  0  0  0  0  0  0  0  0  0
    5.3960    4.3840   13.9590 H   0  0  0  0  0  0  0  0  0  0  0  0
    7.1190    4.0160   14.1200 H   0  0  0  0  0  0  0  0  0  0  0  0
    7.1530    5.5820   19.2430 C   0  0  0  0  0  0  0  0  0  0  0  0
    6.7630    5.0500   20.1180 H   0  0  0  0  0  0  0  0  0  0  0  0
    8.2430    5.4800   19.2240 H   0  0  0  0  0  0  0  0  0  0  0  0
    6.9170    6.6450   19.3710 H   0  0  0  0  0  0  0  0  0  0  0  0
  1 35  1  0  0  0  0
  1  6  1  0  0  0  0
  2  1  2  0  0  0  0
  3  2  1  0  0  0  0
  3  4  2  0  0  0  0
  4  5  1  0  0  0  0
  5  6  2  0  0  0  0
  5  9  1  0  0  0  0
  6 10  1  0  0  0  0
  7  2  1  0  0  0  0
  8  3  1  0  0  0  0
 11  4  1  0  0  0  0
 11 13  1  0  0  0  0
 12 11  2  0  0  0  0
 13 14  1  0  0  0  0
 15 13  1  0  0  0  0
 15 17  1  0  0  0  0
 16 15  1  0  0  0  0
 18 23  1  1  0  0  0
 18 15  1  0  0  0  0
 19 24  1  0  0  0  0
 19 18  1  0  0  0  0
 20 21  1  0  0  0  0
 20 26  1  0  0  0  0
 20 19  1  0  0  0  0
 21 22  1  0  0  0  0
 22 30  1  0  0  0  0
 22 18  1  0  0  0  0
 22 31  1  0  0  0  0
 25 19  1  0  0  0  0
 27 20  1  0  0  0  0
 28 21  1  0  0  0  0
 29 21  1  0  0  0  0
 31 33  1  0  0  0  0
 32 31  1  0  0  0  0
 34 31  1  0  0  0  0
 35 36  1  0  0  0  0
 37 35  1  0  0  0  0
 38 42  2  0  0  0  0
 38 39  1  0  0  0  0
 39 40  2  0  0  0  0
 40 48  1  0  0  0  0
 41 40  1  0  0  0  0
 41 35  1  0  0  0  0
 42 41  1  0  0  0  0
 43 39  1  0  0  0  0
 44 38  1  0  0  0  0
 45 44  1  0  0  0  0
 46 44  1  0  0  0  0
 47 44  1  0  0  0  0
 48 51  1  0  0  0  0
 48 49  1  0  0  0  0
 50 48  1  0  0  0  0
M  END
>  <MODEL>
4

>  <REMARK>
 VINA RESULT:    -6.968      2.694      8.370
 INTER + INTRA:         -10.525
 INTER:                  -9.940
 INTRA:                  -0.586
 UNBOUND:                -0.910
  Name = 
  8 active torsions:
  status: ('A' for Active; 'I' for Inactive)
    1  A    between atoms: C_1  and  C_2
    2  A    between atoms: C_4  and  C_5
    3  A    between atoms: N_6  and  C_7
    4  A    between atoms: C_7  and  C_8
    5  A    between atoms: C_11  and  C_12
    6  A    between atoms: N_14  and  C_15
    7  A    between atoms: C_15  and  C_16
    8  A    between atoms: N_20  and  C_21
                            x       y       z     vdW  Elec       q    Type
                         _______ _______ _______ _____ _____    ______ ____

>  <TORSDO>
F 8

$$$$
=
 OpenBabel07192307433D

 51 53  0  0  1  0  0  0  0  0999 V2000
    2.9460    6.3750   19.3610 C   0  0  0  0  0  0  0  0  0  0  0  0
    2.1340    6.8880   20.3870 C   0  0  0  0  0  0  0  0  0  0  0  0
    1.4410    8.0870   20.2130 C   0  0  0  0  0  0  0  0  0  0  0  0
    1.5680    8.7980   19.0150 C   0  0  0  0  0  0  0  0  0  0  0  0
    2.3800    8.3050   17.9870 C   0  0  0  0  0  0  0  0  0  0  0  0
    3.0660    7.0980   18.1630 C   0  0  0  0  0  0  0  0  0  0  0  0
    2.0270    6.3420   21.3290 H   0  0  0  0  0  0  0  0  0  0  0  0
    0.8090    8.4570   21.0170 H   0  0  0  0  0  0  0  0  0  0  0  0
    2.4670    8.8220   17.0340 H   0  0  0  0  0  0  0  0  0  0  0  0
    3.6870    6.7190   17.3520 H   0  0  0  0  0  0  0  0  0  0  0  0
    0.8040   10.0600   18.8660 C   0  0  0  0  0  0  0  0  0  0  0  0
    1.3320   11.0800   18.4300 O   0  0  0  0  0  0  0  0  0  0  0  0
   -0.5300   10.0440   19.2430 N   0  0  0  0  0  0  0  0  0  0  0  0
   -0.9430    9.1260   19.4010 H   0  0  0  0  0  0  0  0  0  0  0  0
   -1.4240   11.0820   18.7410 C   0  0  0  0  0  0  0  0  0  0  0  0
   -0.8150   11.7590   18.1320 H   0  0  0  0  0  0  0  0  0  0  0  0
   -1.7840   11.6550   19.6060 H   0  0  0  0  0  0  0  0  0  0  0  0
   -2.6230   10.5780   17.9030 C   0  0  2  0  0  0  0  0  0  0  0  0
   -2.1690    9.8080   16.6550 C   0  0  0  0  0  0  0  0  0  0  0  0
   -3.2960   10.0350   15.6700 C   0  0  0  0  0  0  0  0  0  0  0  0
   -3.6510   11.4970   15.8650 C   0  0  0  0  0  0  0  0  0  0  0  0
   -3.4800   11.7130   17.3460 N   0  0  0  0  0  4  0  0  0  0  0  0
   -3.2900    9.9520   18.5190 H   0  0  0  0  0  0  0  0  0  0  0  0
   -2.0150    8.7400   16.8670 H   0  0  0  0  0  0  0  0  0  0  0  0
   -1.2260   10.2120   16.2520 H   0  0  0  0  0  0  0  0  0  0  0  0
   -4.1580    9.4030   15.9300 H   0  0  0  0  0  0  0  0  0  0  0  0
   -3.0050    9.7990   14.6470 H   0  0  0  0  0  0  0  0  0  0  0  0
   -2.9530   12.1870   15.3730 H   0  0  0  0  0  0  0  0  0  0  0  0
   -4.6840   11.7390   15.5680 H   0  0  0  0  0  0  0  0  0  0  0  0
   -2.9440   12.6020   17.4820 H   0  0  0  0  0  0  0  0  0  0  0  0
   -4.7760   11.9130   18.0710 C   0  0  0  0  0  0  0  0  0  0  0  0
   -4.5620   12.0370   19.1330 H   0  0  0  0  0  0  0  0  0  0  0  0
   -5.4080   11.0390   17.8990 H   0  0  0  0  0  0  0  0  0  0  0  0
   -5.2420   12.8180   17.6740 H   0  0  0  0  0  0  0  0  0  0  0  0
    3.6880    5.0680   19.5510 C   0  0  0  0  0  0  0  0  0  0  0  0
    4.4410    5.1420   20.3440 H   0  0  0  0  0  0  0  0  0  0  0  0
    2.9860    4.2750   19.8360 H   0  0  0  0  0  0  0  0  0  0  0  0
    5.9880    4.5320   16.9560 C   0  0  0  0  0  0  0  0  0  0  0  0
    4.9290    3.7810   16.4010 C   0  0  0  0  0  0  0  0  0  0  0  0
    3.8920    3.8830   17.3040 C   0  0  0  0  0  0  0  0  0  0  0  0
    4.3790    4.6480   18.3350 N   0  0  0  0  0  0  0  0  0  0  0  0
    5.6530    5.0510   18.1400 N   0  0  0  0  0  0  0  0  0  0  0  0
    4.9200    3.2500   15.4590 H   0  0  0  0  0  0  0  0  0  0  0  0
    7.3360    4.7760   16.3920 C   0  0  0  0  0  0  0  0  0  0  0  0
    7.4640    4.2380   15.4440 H   0  0  0  0  0  0  0  0  0  0  0  0
    7.4720    5.8400   16.2020 H   0  0  0  0  0  0  0  0  0  0  0  0
    8.1210    4.4470   17.0780 H   0  0  0  0  0  0  0  0  0  0  0  0
    2.5180    3.3240   17.2590 C   0  0  0  0  0  0  0  0  0  0  0  0
    2.1830    3.2000   16.2220 H   0  0  0  0  0  0  0  0  0  0  0  0
    2.4730    2.3530   17.7630 H   0  0  0  0  0  0  0  0  0  0  0  0
    1.8080    3.9940   17.7570 H   0  0  0  0  0  0  0  0  0  0  0  0
  1 35  1  0  0  0  0
  1  2  1  0  0  0  0
  2  7  1  0  0  0  0
  3  2  2  0  0  0  0
  3  8  1  0  0  0  0
  4  3  1  0  0  0  0
  5  6  1  0  0  0  0
  5  4  2  0  0  0  0
  6  1  2  0  0  0  0
  9  5  1  0  0  0  0
 10  6  1  0  0  0  0
 11  4  1  0  0  0  0
 11 13  1  0  0  0  0
 12 11  2  0  0  0  0
 13 14  1  0  0  0  0
 15 13  1  0  0  0  0
 15 17  1  0  0  0  0
 16 15  1  0  0  0  0
 18 23  1  1  0  0  0
 18 15  1  0  0  0  0
 19 24  1  0  0  0  0
 19 18  1  0  0  0  0
 20 21  1  0  0  0  0
 20 26  1  0  0  0  0
 20 19  1  0  0  0  0
 21 22  1  0  0  0  0
 22 30  1  0  0  0  0
 22 18  1  0  0  0  0
 22 31  1  0  0  0  0
 25 19  1  0  0  0  0
 27 20  1  0  0  0  0
 28 21  1  0  0  0  0
 29 21  1  0  0  0  0
 31 32  1  0  0  0  0
 33 31  1  0  0  0  0
 34 31  1  0  0  0  0
 35 37  1  0  0  0  0
 35 36  1  0  0  0  0
 38 42  2  0  0  0  0
 39 38  1  0  0  0  0
 39 40  2  0  0  0  0
 40 41  1  0  0  0  0
 41 35  1  0  0  0  0
 42 41  1  0  0  0  0
 43 39  1  0  0  0  0
 44 38  1  0  0  0  0
 44 47  1  0  0  0  0
 45 44  1  0  0  0  0
 46 44  1  0  0  0  0
 48 40  1  0  0  0  0
 48 51  1  0  0  0  0
 48 50  1  0  0  0  0
 49 48  1  0  0  0  0
M  END
>  <MODEL>
5

>  <REMARK>
 VINA RESULT:    -6.890      2.403      8.437
 INTER + INTRA:         -10.418
 INTER:                  -9.830
 INTRA:                  -0.587
 UNBOUND:                -0.910
  Name = 
  8 active torsions:
  status: ('A' for Active; 'I' for Inactive)
    1  A    between atoms: C_1  and  C_2
    2  A    between atoms: C_4  and  C_5
    3  A    between atoms: N_6  and  C_7
    4  A    between atoms: C_7  and  C_8
    5  A    between atoms: C_11  and  C_12
    6  A    between atoms: N_14  and  C_15
    7  A    between atoms: C_15  and  C_16
    8  A    between atoms: N_20  and  C_21
                            x       y       z     vdW  Elec       q    Type
                         _______ _______ _______ _____ _____    ______ ____

>  <TORSDO>
F 8

$$$$
=
 OpenBabel07192307433D

 51 53  0  0  1  0  0  0  0  0999 V2000
    0.9450    9.6550   19.9350 C   0  0  0  0  0  0  0  0  0  0  0  0
    1.3420    9.5220   18.5940 C   0  0  0  0  0  0  0  0  0  0  0  0
    1.9540    8.3500   18.1470 C   0  0  0  0  0  0  0  0  0  0  0  0
    2.1940    7.3030   19.0430 C   0  0  0  0  0  0  0  0  0  0  0  0
    1.8120    7.4240   20.3840 C   0  0  0  0  0  0  0  0  0  0  0  0
    1.1910    8.5970   20.8260 C   0  0  0  0  0  0  0  0  0  0  0  0
    1.1610   10.3330   17.8830 H   0  0  0  0  0  0  0  0  0  0  0  0
    2.2410    8.2660   17.1010 H   0  0  0  0  0  0  0  0  0  0  0  0
    1.9570    6.6100   21.0920 H   0  0  0  0  0  0  0  0  0  0  0  0
    0.8900    8.6760   21.8690 H   0  0  0  0  0  0  0  0  0  0  0  0
    2.8340    6.0690   18.5230 C   0  0  0  0  0  0  0  0  0  0  0  0
    4.0410    5.8760   18.6440 O   0  0  0  0  0  0  0  0  0  0  0  0
    2.0150    5.1460   17.8920 N   0  0  0  0  0  0  0  0  0  0  0  0
    1.0120    5.2790   18.0080 H   0  0  0  0  0  0  0  0  0  0  0  0
    2.4770    3.7690   17.7460 C   0  0  0  0  0  0  0  0  0  0  0  0
    3.5410    3.8160   17.4870 H   0  0  0  0  0  0  0  0  0  0  0  0
    1.9500    3.3340   16.8860 H   0  0  0  0  0  0  0  0  0  0  0  0
    2.2910    2.8710   18.9920 C   0  0  2  0  0  0  0  0  0  0  0  0
    0.9390    3.1080   19.6760 C   0  0  0  0  0  0  0  0  0  0  0  0
    1.2110    2.7670   21.1260 C   0  0  0  0  0  0  0  0  0  0  0  0
    2.5780    3.3730   21.3840 C   0  0  0  0  0  0  0  0  0  0  0  0
    3.3160    3.1560   20.0880 N   0  0  0  0  0  4  0  0  0  0  0  0
    2.4050    1.8070   18.7230 H   0  0  0  0  0  0  0  0  0  0  0  0
    0.1470    2.4780   19.2460 H   0  0  0  0  0  0  0  0  0  0  0  0
    0.6190    4.1600   19.5870 H   0  0  0  0  0  0  0  0  0  0  0  0
    1.2540    1.6760   21.2560 H   0  0  0  0  0  0  0  0  0  0  0  0
    0.4400    3.1530   21.7930 H   0  0  0  0  0  0  0  0  0  0  0  0
    2.5530    4.4580   21.5430 H   0  0  0  0  0  0  0  0  0  0  0  0
    3.1210    2.8870   22.2110 H   0  0  0  0  0  0  0  0  0  0  0  0
    3.7980    4.0500   19.8380 H   0  0  0  0  0  0  0  0  0  0  0  0
    4.4050    2.1310   20.1890 C   0  0  0  0  0  0  0  0  0  0  0  0
    3.9700    1.1470   20.0110 H   0  0  0  0  0  0  0  0  0  0  0  0
    4.8450    2.1890   21.1870 H   0  0  0  0  0  0  0  0  0  0  0  0
    5.1470    2.3590   19.4200 H   0  0  0  0  0  0  0  0  0  0  0  0
    0.2720   10.9250   20.4140 C   0  0  0  0  0  0  0  0  0  0  0  0
   -0.8040   10.9170   20.2010 H   0  0  0  0  0  0  0  0  0  0  0  0
    0.3920   11.0270   21.4990 H   0  0  0  0  0  0  0  0  0  0  0  0
    2.2310   13.6830   19.4850 C   0  0  0  0  0  0  0  0  0  0  0  0
    1.2080   13.8740   18.5310 C   0  0  0  0  0  0  0  0  0  0  0  0
    0.3050   12.8560   18.7510 C   0  0  0  0  0  0  0  0  0  0  0  0
    0.8310   12.1150   19.7800 N   0  0  0  0  0  0  0  0  0  0  0  0
    2.0040   12.6040   20.2380 N   0  0  0  0  0  0  0  0  0  0  0  0
    1.1330   14.6600   17.7920 H   0  0  0  0  0  0  0  0  0  0  0  0
    3.4450   14.5030   19.7080 C   0  0  0  0  0  0  0  0  0  0  0  0
    4.0090   14.1360   20.5750 H   0  0  0  0  0  0  0  0  0  0  0  0
    4.0920   14.4550   18.8320 H   0  0  0  0  0  0  0  0  0  0  0  0
    3.1890   15.5510   19.8880 H   0  0  0  0  0  0  0  0  0  0  0  0
   -0.9810   12.5470   18.0770 C   0  0  0  0  0  0  0  0  0  0  0  0
   -0.8060   12.1140   17.0850 H   0  0  0  0  0  0  0  0  0  0  0  0
   -1.5750   11.8430   18.6700 H   0  0  0  0  0  0  0  0  0  0  0  0
   -1.5780   13.4560   17.9390 H   0  0  0  0  0  0  0  0  0  0  0  0
  1 35  1  0  0  0  0
  1  6  1  0  0  0  0
  2  1  2  0  0  0  0
  3  2  1  0  0  0  0
  3  4  2  0  0  0  0
  4  5  1  0  0  0  0
  5  6  2  0  0  0  0
  5  9  1  0  0  0  0
  6 10  1  0  0  0  0
  7  2  1  0  0  0  0
  8  3  1  0  0  0  0
 11 12  2  0  0  0  0
 11  4  1  0  0  0  0
 13 14  1  0  0  0  0
 13 11  1  0  0  0  0
 15 13  1  0  0  0  0
 15 18  1  0  0  0  0
 16 15  1  0  0  0  0
 17 15  1  0  0  0  0
 18 23  1  6  0  0  0
 18 19  1  0  0  0  0
 18 22  1  0  0  0  0
 19 20  1  0  0  0  0
 20 26  1  0  0  0  0
 20 21  1  0  0  0  0
 20 27  1  0  0  0  0
 21 28  1  0  0  0  0
 21 29  1  0  0  0  0
 22 31  1  0  0  0  0
 22 21  1  0  0  0  0
 24 19  1  0  0  0  0
 25 19  1  0  0  0  0
 30 22  1  0  0  0  0
 31 33  1  0  0  0  0
 32 31  1  0  0  0  0
 34 31  1  0  0  0  0
 35 37  1  0  0  0  0
 36 35  1  0  0  0  0
 38 44  1  0  0  0  0
 38 42  2  0  0  0  0
 39 40  2  0  0  0  0
 39 38  1  0  0  0  0
 40 41  1  0  0  0  0
 41 42  1  0  0  0  0
 41 35  1  0  0  0  0
 43 39  1  0  0  0  0
 44 47  1  0  0  0  0
 44 45  1  0  0  0  0
 46 44  1  0  0  0  0
 48 50  1  0  0  0  0
 48 40  1  0  0  0  0
 49 48  1  0  0  0  0
 51 48  1  0  0  0  0
M  END
>  <MODEL>
6

>  <REMARK>
 VINA RESULT:    -6.826      1.350      2.545
 INTER + INTRA:         -10.330
 INTER:                  -9.282
 INTRA:                  -1.048
 UNBOUND:                -0.910
  Name = 
  8 active torsions:
  status: ('A' for Active; 'I' for Inactive)
    1  A    between atoms: C_1  and  C_2
    2  A    between atoms: C_4  and  C_5
    3  A    between atoms: N_6  and  C_7
    4  A    between atoms: C_7  and  C_8
    5  A    between atoms: C_11  and  C_12
    6  A    between atoms: N_14  and  C_15
    7  A    between atoms: C_15  and  C_16
    8  A    between atoms: N_20  and  C_21
                            x       y       z     vdW  Elec       q    Type
                         _______ _______ _______ _____ _____    ______ ____

>  <TORSDO>
F 8

$$$$
=
 OpenBabel07192307433D

 51 53  0  0  1  0  0  0  0  0999 V2000
    3.9470    5.2060   18.5640 C   0  0  0  0  0  0  0  0  0  0  0  0
    3.1560    5.2160   19.7260 C   0  0  0  0  0  0  0  0  0  0  0  0
    2.3450    6.3110   20.0240 C   0  0  0  0  0  0  0  0  0  0  0  0
    2.3290    7.4210   19.1720 C   0  0  0  0  0  0  0  0  0  0  0  0
    3.1180    7.4300   18.0150 C   0  0  0  0  0  0  0  0  0  0  0  0
    3.9240    6.3260   17.7150 C   0  0  0  0  0  0  0  0  0  0  0  0
    3.1590    4.3560   20.4020 H   0  0  0  0  0  0  0  0  0  0  0  0
    1.7320    6.2900   20.9220 H   0  0  0  0  0  0  0  0  0  0  0  0
    3.0960    8.2660   17.3190 H   0  0  0  0  0  0  0  0  0  0  0  0
    4.5250    6.3400   16.8080 H   0  0  0  0  0  0  0  0  0  0  0  0
    1.4420    8.5580   19.5180 C   0  0  0  0  0  0  0  0  0  0  0  0
    1.1550    9.4200   18.6910 O   0  0  0  0  0  0  0  0  0  0  0  0
    0.9520    8.6100   20.8140 N   0  0  0  0  0  0  0  0  0  0  0  0
    1.0670    7.7680   21.3740 H   0  0  0  0  0  0  0  0  0  0  0  0
   -0.2250    9.4250   21.0970 C   0  0  0  0  0  0  0  0  0  0  0  0
   -0.8450    8.8560   21.7990 H   0  0  0  0  0  0  0  0  0  0  0  0
   -0.7930    9.5210   20.1630 H   0  0  0  0  0  0  0  0  0  0  0  0
    0.0650   10.8260   21.6890 C   0  0  2  0  0  0  0  0  0  0  0  0
   -1.0070   11.2550   22.7000 C   0  0  0  0  0  0  0  0  0  0  0  0
   -0.9960   12.7670   22.6040 C   0  0  0  0  0  0  0  0  0  0  0  0
   -0.8690   13.0290   21.1150 C   0  0  0  0  0  0  0  0  0  0  0  0
    0.0450   11.9320   20.6360 N   0  0  0  0  0  4  0  0  0  0  0  0
    1.0640   10.8510   22.1540 H   0  0  0  0  0  0  0  0  0  0  0  0
   -0.7750   10.9050   23.7160 H   0  0  0  0  0  0  0  0  0  0  0  0
   -2.0010   10.8650   22.4260 H   0  0  0  0  0  0  0  0  0  0  0  0
   -0.1220   13.1730   23.1330 H   0  0  0  0  0  0  0  0  0  0  0  0
   -1.8890   13.2140   23.0420 H   0  0  0  0  0  0  0  0  0  0  0  0
   -1.8100   12.9050   20.5660 H   0  0  0  0  0  0  0  0  0  0  0  0
   -0.4290   14.0130   20.8830 H   0  0  0  0  0  0  0  0  0  0  0  0
   -0.3690   11.5250   19.7650 H   0  0  0  0  0  0  0  0  0  0  0  0
    1.4050   12.4220   20.2390 C   0  0  0  0  0  0  0  0  0  0  0  0
    1.8130   11.7420   19.4910 H   0  0  0  0  0  0  0  0  0  0  0  0
    2.0380   12.4480   21.1290 H   0  0  0  0  0  0  0  0  0  0  0  0
    1.2870   13.4210   19.8130 H   0  0  0  0  0  0  0  0  0  0  0  0
    4.8190    4.0110   18.2390 C   0  0  0  0  0  0  0  0  0  0  0  0
    5.4770    3.7510   19.0770 H   0  0  0  0  0  0  0  0  0  0  0  0
    4.1920    3.1360   18.0280 H   0  0  0  0  0  0  0  0  0  0  0  0
    6.2280    4.1830   15.0310 C   0  0  0  0  0  0  0  0  0  0  0  0
    7.2870    4.8200   15.7150 C   0  0  0  0  0  0  0  0  0  0  0  0
    6.9100    4.8390   17.0410 C   0  0  0  0  0  0  0  0  0  0  0  0
    5.6690    4.2510   17.0780 N   0  0  0  0  0  0  0  0  0  0  0  0
    5.2390    3.8470   15.8630 N   0  0  0  0  0  0  0  0  0  0  0  0
    8.2090    5.1990   15.2970 H   0  0  0  0  0  0  0  0  0  0  0  0
    6.1190    3.8810   13.5850 C   0  0  0  0  0  0  0  0  0  0  0  0
    5.2210    4.3460   13.1570 H   0  0  0  0  0  0  0  0  0  0  0  0
    6.9900    4.2690   13.0570 H   0  0  0  0  0  0  0  0  0  0  0  0
    6.0610    2.8040   13.4060 H   0  0  0  0  0  0  0  0  0  0  0  0
    7.6210    5.3570   18.2370 C   0  0  0  0  0  0  0  0  0  0  0  0
    8.0230    4.5320   18.8370 H   0  0  0  0  0  0  0  0  0  0  0  0
    8.4450    6.0170   17.9460 H   0  0  0  0  0  0  0  0  0  0  0  0
    6.9410    5.9300   18.8770 H   0  0  0  0  0  0  0  0  0  0  0  0
  1  2  1  0  0  0  0
  2  3  2  0  0  0  0
  2  7  1  0  0  0  0
  3  8  1  0  0  0  0
  4 11  1  0  0  0  0
  4  3  1  0  0  0  0
  5  4  2  0  0  0  0
  6  5  1  0  0  0  0
  6  1  2  0  0  0  0
  9  5  1  0  0  0  0
 10  6  1  0  0  0  0
 11 13  1  0  0  0  0
 12 11  2  0  0  0  0
 13 15  1  0  0  0  0
 13 14  1  0  0  0  0
 15 18  1  0  0  0  0
 15 16  1  0  0  0  0
 17 15  1  0  0  0  0
 18 23  1  1  0  0  0
 18 19  1  0  0  0  0
 19 24  1  0  0  0  0
 20 19  1  0  0  0  0
 20 27  1  0  0  0  0
 20 26  1  0  0  0  0
 21 20  1  0  0  0  0
 22 21  1  0  0  0  0
 22 18  1  0  0  0  0
 25 19  1  0  0  0  0
 28 21  1  0  0  0  0
 29 21  1  0  0  0  0
 30 22  1  0  0  0  0
 31 22  1  0  0  0  0
 31 33  1  0  0  0  0
 32 31  1  0  0  0  0
 34 31  1  0  0  0  0
 35  1  1  0  0  0  0
 35 36  1  0  0  0  0
 37 35  1  0  0  0  0
 38 39  1  0  0  0  0
 38 42  2  0  0  0  0
 39 40  2  0  0  0  0
 40 41  1  0  0  0  0
 40 48  1  0  0  0  0
 41 35  1  0  0  0  0
 42 41  1  0  0  0  0
 43 39  1  0  0  0  0
 44 38  1  0  0  0  0
 45 44  1  0  0  0  0
 46 44  1  0  0  0  0
 47 44  1  0  0  0  0
 48 49  1  0  0  0  0
 48 51  1  0  0  0  0
 50 48  1  0  0  0  0
M  END
>  <MODEL>
7

>  <REMARK>
 VINA RESULT:    -6.818      3.160      8.390
 INTER + INTRA:         -10.318
 INTER:                  -9.567
 INTRA:                  -0.751
 UNBOUND:                -0.910
  Name = 
  8 active torsions:
  status: ('A' for Active; 'I' for Inactive)
    1  A    between atoms: C_1  and  C_2
    2  A    between atoms: C_4  and  C_5
    3  A    between atoms: N_6  and  C_7
    4  A    between atoms: C_7  and  C_8
    5  A    between atoms: C_11  and  C_12
    6  A    between atoms: N_14  and  C_15
    7  A    between atoms: C_15  and  C_16
    8  A    between atoms: N_20  and  C_21
                            x       y       z     vdW  Elec       q    Type
                         _______ _______ _______ _____ _____    ______ ____

>  <TORSDO>
F 8

$$$$
=
 OpenBabel07192307433D

 51 53  0  0  1  0  0  0  0  0999 V2000
    0.9000    9.4850   20.0200 C   0  0  0  0  0  0  0  0  0  0  0  0
    1.2220    8.3970   20.8490 C   0  0  0  0  0  0  0  0  0  0  0  0
    1.9230    7.3010   20.3440 C   0  0  0  0  0  0  0  0  0  0  0  0
    2.2950    7.2720   18.9950 C   0  0  0  0  0  0  0  0  0  0  0  0
    1.9740    8.3440   18.1540 C   0  0  0  0  0  0  0  0  0  0  0  0
    1.2770    9.4440   18.6670 C   0  0  0  0  0  0  0  0  0  0  0  0
    0.9360    8.4060   21.9050 H   0  0  0  0  0  0  0  0  0  0  0  0
    2.1720    6.4770   21.0090 H   0  0  0  0  0  0  0  0  0  0  0  0
    2.2820    8.3600   17.1110 H   0  0  0  0  0  0  0  0  0  0  0  0
    1.0420   10.2760   18.0060 H   0  0  0  0  0  0  0  0  0  0  0  0
    3.0520    6.0960   18.5030 C   0  0  0  0  0  0  0  0  0  0  0  0
    4.2410    5.9420   18.7720 O   0  0  0  0  0  0  0  0  0  0  0  0
    2.3660    5.1780   17.7240 N   0  0  0  0  0  0  0  0  0  0  0  0
    1.3510    5.2660   17.7130 H   0  0  0  0  0  0  0  0  0  0  0  0
    2.9050    3.8300   17.5700 C   0  0  0  0  0  0  0  0  0  0  0  0
    3.9910    3.9320   17.4740 H   0  0  0  0  0  0  0  0  0  0  0  0
    2.5280    3.4300   16.6190 H   0  0  0  0  0  0  0  0  0  0  0  0
    2.5810    2.8510   18.7240 C   0  0  2  0  0  0  0  0  0  0  0  0
    1.1400    3.0090   19.2260 C   0  0  0  0  0  0  0  0  0  0  0  0
    1.2230    2.5850   20.6770 C   0  0  0  0  0  0  0  0  0  0  0  0
    2.5200    3.2090   21.1570 C   0  0  0  0  0  0  0  0  0  0  0  0
    3.4360    3.0930   19.9670 N   0  0  0  0  0  4  0  0  0  0  0  0
    2.7680    1.8100   18.4110 H   0  0  0  0  0  0  0  0  0  0  0  0
    0.4370    2.3870   18.6540 H   0  0  0  0  0  0  0  0  0  0  0  0
    0.8000    4.0560   19.1550 H   0  0  0  0  0  0  0  0  0  0  0  0
    1.2860    1.4890   20.7480 H   0  0  0  0  0  0  0  0  0  0  0  0
    0.3550    2.9080   21.2520 H   0  0  0  0  0  0  0  0  0  0  0  0
    2.4360    4.2810   21.3750 H   0  0  0  0  0  0  0  0  0  0  0  0
    2.9610    2.6870   22.0220 H   0  0  0  0  0  0  0  0  0  0  0  0
    3.9160    4.0140   19.8390 H   0  0  0  0  0  0  0  0  0  0  0  0
    4.5350    2.0930   20.1570 C   0  0  0  0  0  0  0  0  0  0  0  0
    4.3570    1.2520   19.4870 H   0  0  0  0  0  0  0  0  0  0  0  0
    4.5320    1.7680   21.2000 H   0  0  0  0  0  0  0  0  0  0  0  0
    5.4780    2.5830   19.9030 H   0  0  0  0  0  0  0  0  0  0  0  0
    0.1460   10.6760   20.5740 C   0  0  0  0  0  0  0  0  0  0  0  0
   -0.9140   10.4460   20.7330 H   0  0  0  0  0  0  0  0  0  0  0  0
    0.5690   10.9690   21.5430 H   0  0  0  0  0  0  0  0  0  0  0  0
    1.0610   13.5730   18.8190 C   0  0  0  0  0  0  0  0  0  0  0  0
   -0.1970   13.3940   18.2040 C   0  0  0  0  0  0  0  0  0  0  0  0
   -0.7360   12.2680   18.7910 C   0  0  0  0  0  0  0  0  0  0  0  0
    0.2120   11.8300   19.6830 N   0  0  0  0  0  0  0  0  0  0  0  0
    1.3120   12.6120   19.7120 N   0  0  0  0  0  0  0  0  0  0  0  0
   -0.6560   14.0130   17.4470 H   0  0  0  0  0  0  0  0  0  0  0  0
    2.0570   14.6430   18.5790 C   0  0  0  0  0  0  0  0  0  0  0  0
    1.7710   15.2540   17.7130 H   0  0  0  0  0  0  0  0  0  0  0  0
    2.1210   15.2940   19.4510 H   0  0  0  0  0  0  0  0  0  0  0  0
    3.0500   14.2280   18.3880 H   0  0  0  0  0  0  0  0  0  0  0  0
   -2.0440   11.6010   18.5720 C   0  0  0  0  0  0  0  0  0  0  0  0
   -2.5130   11.9590   17.6480 H   0  0  0  0  0  0  0  0  0  0  0  0
   -1.9230   10.5150   18.5080 H   0  0  0  0  0  0  0  0  0  0  0  0
   -2.7340   11.8140   19.3970 H   0  0  0  0  0  0  0  0  0  0  0  0
  1 35  1  0  0  0  0
  1  2  1  0  0  0  0
  2  7  1  0  0  0  0
  3  2  2  0  0  0  0
  3  8  1  0  0  0  0
  4  3  1  0  0  0  0
  5  6  1  0  0  0  0
  5  4  2  0  0  0  0
  6  1  2  0  0  0  0
  9  5  1  0  0  0  0
 10  6  1  0  0  0  0
 11 12  2  0  0  0  0
 11  4  1  0  0  0  0
 13 11  1  0  0  0  0
 14 13  1  0  0  0  0
 15 13  1  0  0  0  0
 15 18  1  0  0  0  0
 16 15  1  0  0  0  0
 17 15  1  0  0  0  0
 18 23  1  6  0  0  0
 18 19  1  0  0  0  0
 18 22  1  0  0  0  0
 19 20  1  0  0  0  0
 20 26  1  0  0  0  0
 20 21  1  0  0  0  0
 20 27  1  0  0  0  0
 21 28  1  0  0  0  0
 21 29  1  0  0  0  0
 22 31  1  0  0  0  0
 22 21  1  0  0  0  0
 24 19  1  0  0  0  0
 25 19  1  0  0  0  0
 30 22  1  0  0  0  0
 31 33  1  0  0  0  0
 32 31  1  0  0  0  0
 34 31  1  0  0  0  0
 35 36  1  0  0  0  0
 35 37  1  0  0  0  0
 38 42  2  0  0  0  0
 39 40  2  0  0  0  0
 39 38  1  0  0  0  0
 40 41  1  0  0  0  0
 41 42  1  0  0  0  0
 41 35  1  0  0  0  0
 43 39  1  0  0  0  0
 44 38  1  0  0  0  0
 44 46  1  0  0  0  0
 45 44  1  0  0  0  0
 47 44  1  0  0  0  0
 48 40  1  0  0  0  0
 48 51  1  0  0  0  0
 49 48  1  0  0  0  0
 50 48  1  0  0  0  0
M  END
>  <MODEL>
8

>  <REMARK>
 VINA RESULT:    -6.787      0.960      2.375
 INTER + INTRA:         -10.275
 INTER:                  -9.333
 INTRA:                  -0.942
 UNBOUND:                -0.910
  Name = 
  8 active torsions:
  status: ('A' for Active; 'I' for Inactive)
    1  A    between atoms: C_1  and  C_2
    2  A    between atoms: C_4  and  C_5
    3  A    between atoms: N_6  and  C_7
    4  A    between atoms: C_7  and  C_8
    5  A    between atoms: C_11  and  C_12
    6  A    between atoms: N_14  and  C_15
    7  A    between atoms: C_15  and  C_16
    8  A    between atoms: N_20  and  C_21
                            x       y       z     vdW  Elec       q    Type
                         _______ _______ _______ _____ _____    ______ ____

>  <TORSDO>
F 8

$$$$
=
 OpenBabel07192307433D

 51 53  0  0  1  0  0  0  0  0999 V2000
    3.8500    5.6600   18.6590 C   0  0  0  0  0  0  0  0  0  0  0  0
    3.8870    6.6700   17.6820 C   0  0  0  0  0  0  0  0  0  0  0  0
    3.0500    7.7820   17.7770 C   0  0  0  0  0  0  0  0  0  0  0  0
    2.1500    7.8890   18.8430 C   0  0  0  0  0  0  0  0  0  0  0  0
    2.0940    6.8870   19.8190 C   0  0  0  0  0  0  0  0  0  0  0  0
    2.9410    5.7770   19.7240 C   0  0  0  0  0  0  0  0  0  0  0  0
    4.5860    6.5990   16.8430 H   0  0  0  0  0  0  0  0  0  0  0  0
    3.1070    8.5570   17.0160 H   0  0  0  0  0  0  0  0  0  0  0  0
    1.4270    6.9650   20.6750 H   0  0  0  0  0  0  0  0  0  0  0  0
    2.8960    5.0100   20.4950 H   0  0  0  0  0  0  0  0  0  0  0  0
    1.2890    9.0940   18.9130 C   0  0  0  0  0  0  0  0  0  0  0  0
    0.8380    9.6190   17.8980 O   0  0  0  0  0  0  0  0  0  0  0  0
    1.0170    9.6090   20.1710 N   0  0  0  0  0  0  0  0  0  0  0  0
    1.2530    9.0130   20.9630 H   0  0  0  0  0  0  0  0  0  0  0  0
   -0.1280   10.4980   20.3440 C   0  0  0  0  0  0  0  0  0  0  0  0
   -0.6080   10.2180   21.2890 H   0  0  0  0  0  0  0  0  0  0  0  0
   -0.8410   10.2790   19.5390 H   0  0  0  0  0  0  0  0  0  0  0  0
    0.2030   12.0090   20.3650 C   0  0  2  0  0  0  0  0  0  0  0  0
   -0.9960   12.8540   20.8140 C   0  0  0  0  0  0  0  0  0  0  0  0
   -0.7750   14.1800   20.1160 C   0  0  0  0  0  0  0  0  0  0  0  0
   -0.3010   13.7800   18.7320 C   0  0  0  0  0  0  0  0  0  0  0  0
    0.5480   12.5610   18.9830 N   0  0  0  0  0  4  0  0  0  0  0  0
    1.0750   12.2060   21.0100 H   0  0  0  0  0  0  0  0  0  0  0  0
   -1.0320   12.9650   21.9080 H   0  0  0  0  0  0  0  0  0  0  0  0
   -1.9500   12.4080   20.4880 H   0  0  0  0  0  0  0  0  0  0  0  0
    0.0110   14.7520   20.6310 H   0  0  0  0  0  0  0  0  0  0  0  0
   -1.6760   14.7930   20.0990 H   0  0  0  0  0  0  0  0  0  0  0  0
   -1.1120   13.4560   18.0680 H   0  0  0  0  0  0  0  0  0  0  0  0
    0.2990   14.5590   18.2350 H   0  0  0  0  0  0  0  0  0  0  0  0
    0.2810   11.8320   18.2820 H   0  0  0  0  0  0  0  0  0  0  0  0
    2.0120   12.8020   18.7700 C   0  0  0  0  0  0  0  0  0  0  0  0
    2.3160   13.6510   19.3830 H   0  0  0  0  0  0  0  0  0  0  0  0
    2.1790   13.0070   17.7100 H   0  0  0  0  0  0  0  0  0  0  0  0
    2.5460   11.9020   19.0840 H   0  0  0  0  0  0  0  0  0  0  0  0
    4.7670    4.4590   18.5570 C   0  0  0  0  0  0  0  0  0  0  0  0
    5.4090    4.3650   19.4410 H   0  0  0  0  0  0  0  0  0  0  0  0
    4.1740    3.5400   18.4800 H   0  0  0  0  0  0  0  0  0  0  0  0
    6.2040    4.2630   15.3630 C   0  0  0  0  0  0  0  0  0  0  0  0
    7.3130    4.8500   16.0100 C   0  0  0  0  0  0  0  0  0  0  0  0
    6.9320    5.0030   17.3270 C   0  0  0  0  0  0  0  0  0  0  0  0
    5.6420    4.5340   17.3920 N   0  0  0  0  0  0  0  0  0  0  0  0
    5.1840    4.0800   16.2050 N   0  0  0  0  0  0  0  0  0  0  0  0
    8.2680    5.1120   15.5770 H   0  0  0  0  0  0  0  0  0  0  0  0
    6.0760    3.8640   13.9410 C   0  0  0  0  0  0  0  0  0  0  0  0
    5.0920    4.1470   13.5460 H   0  0  0  0  0  0  0  0  0  0  0  0
    6.8410    4.3600   13.3460 H   0  0  0  0  0  0  0  0  0  0  0  0
    6.1930    2.7840   13.8190 H   0  0  0  0  0  0  0  0  0  0  0  0
    7.6800    5.5420   18.4900 C   0  0  0  0  0  0  0  0  0  0  0  0
    7.5760    4.8830   19.3590 H   0  0  0  0  0  0  0  0  0  0  0  0
    8.7440    5.6510   18.2540 H   0  0  0  0  0  0  0  0  0  0  0  0
    7.2980    6.5290   18.7760 H   0  0  0  0  0  0  0  0  0  0  0  0
  1  6  1  0  0  0  0
  2  3  1  0  0  0  0
  2  1  2  0  0  0  0
  3  4  2  0  0  0  0
  4 11  1  0  0  0  0
  4  5  1  0  0  0  0
  5  9  1  0  0  0  0
  6  5  2  0  0  0  0
  6 10  1  0  0  0  0
  7  2  1  0  0  0  0
  8  3  1  0  0  0  0
 11 13  1  0  0  0  0
 12 11  2  0  0  0  0
 13 15  1  0  0  0  0
 13 14  1  0  0  0  0
 15 18  1  0  0  0  0
 15 16  1  0  0  0  0
 17 15  1  0  0  0  0
 18 19  1  0  0  0  0
 18 23  1  1  0  0  0
 19 24  1  0  0  0  0
 20 26  1  0  0  0  0
 20 19  1  0  0  0  0
 21 22  1  0  0  0  0
 21 20  1  0  0  0  0
 22 18  1  0  0  0  0
 25 19  1  0  0  0  0
 27 20  1  0  0  0  0
 28 21  1  0  0  0  0
 29 21  1  0  0  0  0
 30 22  1  0  0  0  0
 31 22  1  0  0  0  0
 31 34  1  0  0  0  0
 31 32  1  0  0  0  0
 33 31  1  0  0  0  0
 35  1  1  0  0  0  0
 35 36  1  0  0  0  0
 37 35  1  0  0  0  0
 38 39  1  0  0  0  0
 38 42  2  0  0  0  0
 39 40  2  0  0  0  0
 40 41  1  0  0  0  0
 40 48  1  0  0  0  0
 41 35  1  0  0  0  0
 42 41  1  0  0  0  0
 43 39  1  0  0  0  0
 44 38  1  0  0  0  0
 45 44  1  0  0  0  0
 46 44  1  0  0  0  0
 47 44  1  0  0  0  0
 48 51  1  0  0  0  0
 48 49  1  0  0  0  0
 50 48  1  0  0  0  0
M  END
>  <MODEL>
9

>  <REMARK>
 VINA RESULT:    -6.668      2.879      8.530
 INTER + INTRA:         -10.112
 INTER:                  -9.291
 INTRA:                  -0.821
 UNBOUND:                -0.910
  Name = 
  8 active torsions:
  status: ('A' for Active; 'I' for Inactive)
    1  A    between atoms: C_1  and  C_2
    2  A    between atoms: C_4  and  C_5
    3  A    between atoms: N_6  and  C_7
    4  A    between atoms: C_7  and  C_8
    5  A    between atoms: C_11  and  C_12
    6  A    between atoms: N_14  and  C_15
    7  A    between atoms: C_15  and  C_16
    8  A    between atoms: N_20  and  C_21
                            x       y       z     vdW  Elec       q    Type
                         _______ _______ _______ _____ _____    ______ ____

>  <TORSDO>
F 8

$$$$
=
 OpenBabel07192307433D

 51 53  0  0  1  0  0  0  0  0999 V2000
    0.9640    9.7740   19.3010 C   0  0  0  0  0  0  0  0  0  0  0  0
    1.6200    9.4230   18.1090 C   0  0  0  0  0  0  0  0  0  0  0  0
    2.2900    8.2040   17.9980 C   0  0  0  0  0  0  0  0  0  0  0  0
    2.3280    7.3280   19.0890 C   0  0  0  0  0  0  0  0  0  0  0  0
    1.6870    7.6670   20.2860 C   0  0  0  0  0  0  0  0  0  0  0  0
    1.0100    8.8870   20.3900 C   0  0  0  0  0  0  0  0  0  0  0  0
    1.5990   10.0990   17.2490 H   0  0  0  0  0  0  0  0  0  0  0  0
    2.7780    7.9490   17.0610 H   0  0  0  0  0  0  0  0  0  0  0  0
    1.6730    6.9880   21.1360 H   0  0  0  0  0  0  0  0  0  0  0  0
    0.5070    9.1360   21.3230 H   0  0  0  0  0  0  0  0  0  0  0  0
    3.0380    6.0360   18.9240 C   0  0  0  0  0  0  0  0  0  0  0  0
    3.2600    5.3020   19.8830 O   0  0  0  0  0  0  0  0  0  0  0  0
    3.4450    5.6930   17.6440 N   0  0  0  0  0  0  0  0  0  0  0  0
    3.0540    6.2450   16.8830 H   0  0  0  0  0  0  0  0  0  0  0  0
    3.7520    4.2980   17.3460 C   0  0  0  0  0  0  0  0  0  0  0  0
    3.1090    4.0030   16.5090 H   0  0  0  0  0  0  0  0  0  0  0  0
    3.4520    3.7000   18.2160 H   0  0  0  0  0  0  0  0  0  0  0  0
    5.2280    4.0060   16.9840 C   0  0  2  0  0  0  0  0  0  0  0  0
    6.1870    4.4110   18.1110 C   0  0  0  0  0  0  0  0  0  0  0  0
    7.4710    4.7420   17.3800 C   0  0  0  0  0  0  0  0  0  0  0  0
    6.9980    5.5010   16.1540 C   0  0  0  0  0  0  0  0  0  0  0  0
    5.7150    4.8070   15.7780 N   0  0  0  0  0  4  0  0  0  0  0  0
    5.3610    2.9410   16.7290 H   0  0  0  0  0  0  0  0  0  0  0  0
    6.3260    3.6000   18.8410 H   0  0  0  0  0  0  0  0  0  0  0  0
    5.8210    5.2960   18.6550 H   0  0  0  0  0  0  0  0  0  0  0  0
    7.9820    3.8170   17.0750 H   0  0  0  0  0  0  0  0  0  0  0  0
    8.1610    5.3170   17.9980 H   0  0  0  0  0  0  0  0  0  0  0  0
    6.7320    6.5450   16.3610 H   0  0  0  0  0  0  0  0  0  0  0  0
    7.7090    5.4560   15.3130 H   0  0  0  0  0  0  0  0  0  0  0  0
    4.9970    5.5430   15.5830 H   0  0  0  0  0  0  0  0  0  0  0  0
    5.8190    4.0080   14.5150 C   0  0  0  0  0  0  0  0  0  0  0  0
    5.6580    2.9570   14.7560 H   0  0  0  0  0  0  0  0  0  0  0  0
    6.8130    4.1620   14.0880 H   0  0  0  0  0  0  0  0  0  0  0  0
    5.0410    4.3600   13.8330 H   0  0  0  0  0  0  0  0  0  0  0  0
    0.2300   11.0950   19.4130 C   0  0  0  0  0  0  0  0  0  0  0  0
    0.0710   11.3810   20.4590 H   0  0  0  0  0  0  0  0  0  0  0  0
    0.8160   11.8910   18.9390 H   0  0  0  0  0  0  0  0  0  0  0  0
   -2.5150   10.4620   17.3220 C   0  0  0  0  0  0  0  0  0  0  0  0
   -3.1730   11.3510   18.2000 C   0  0  0  0  0  0  0  0  0  0  0  0
   -2.2200   11.7320   19.1210 C   0  0  0  0  0  0  0  0  0  0  0  0
   -1.0800   11.0510   18.7710 N   0  0  0  0  0  0  0  0  0  0  0  0
   -1.2420   10.2730   17.6790 N   0  0  0  0  0  0  0  0  0  0  0  0
   -4.2010   11.6830   18.1550 H   0  0  0  0  0  0  0  0  0  0  0  0
   -3.0650    9.7680   16.1340 C   0  0  0  0  0  0  0  0  0  0  0  0
   -3.6700   10.4550   15.5280 H   0  0  0  0  0  0  0  0  0  0  0  0
   -2.2520    9.3900   15.5150 H   0  0  0  0  0  0  0  0  0  0  0  0
   -3.6970    8.9240   16.4240 H   0  0  0  0  0  0  0  0  0  0  0  0
   -2.3120   12.6660   20.2710 C   0  0  0  0  0  0  0  0  0  0  0  0
   -1.3820   12.6580   20.8530 H   0  0  0  0  0  0  0  0  0  0  0  0
   -2.5060   13.6880   19.9300 H   0  0  0  0  0  0  0  0  0  0  0  0
   -3.1250   12.3760   20.9460 H   0  0  0  0  0  0  0  0  0  0  0  0
  1 35  1  0  0  0  0
  1  6  1  0  0  0  0
  2  1  2  0  0  0  0
  3  2  1  0  0  0  0
  3  4  2  0  0  0  0
  4  5  1  0  0  0  0
  5  6  2  0  0  0  0
  5  9  1  0  0  0  0
  6 10  1  0  0  0  0
  7  2  1  0  0  0  0
  8  3  1  0  0  0  0
 11  4  1  0  0  0  0
 11 12  2  0  0  0  0
 13 11  1  0  0  0  0
 14 13  1  0  0  0  0
 15 13  1  0  0  0  0
 15 17  1  0  0  0  0
 16 15  1  0  0  0  0
 18 23  1  6  0  0  0
 18 15  1  0  0  0  0
 18 19  1  0  0  0  0
 19 25  1  0  0  0  0
 19 24  1  0  0  0  0
 20 27  1  0  0  0  0
 20 19  1  0  0  0  0
 21 28  1  0  0  0  0
 21 20  1  0  0  0  0
 22 21  1  0  0  0  0
 22 18  1  0  0  0  0
 26 20  1  0  0  0  0
 29 21  1  0  0  0  0
 30 22  1  0  0  0  0
 31 32  1  0  0  0  0
 31 22  1  0  0  0  0
 33 31  1  0  0  0  0
 34 31  1  0  0  0  0
 35 36  1  0  0  0  0
 37 35  1  0  0  0  0
 38 42  2  0  0  0  0
 38 39  1  0  0  0  0
 39 40  2  0  0  0  0
 40 48  1  0  0  0  0
 41 40  1  0  0  0  0
 41 35  1  0  0  0  0
 42 41  1  0  0  0  0
 43 39  1  0  0  0  0
 44 47  1  0  0  0  0
 44 38  1  0  0  0  0
 45 44  1  0  0  0  0
 46 44  1  0  0  0  0
 48 49  1  0  0  0  0
 48 51  1  0  0  0  0
 50 48  1  0  0  0  0
M  END
>  <MODEL>
10

>  <REMARK>
 VINA RESULT:    -6.654      2.241      3.232
 INTER + INTRA:         -10.092
 INTER:                  -9.725
 INTRA:                  -0.367
 UNBOUND:                -0.910
  Name = 
  8 active torsions:
  status: ('A' for Active; 'I' for Inactive)
    1  A    between atoms: C_1  and  C_2
    2  A    between atoms: C_4  and  C_5
    3  A    between atoms: N_6  and  C_7
    4  A    between atoms: C_7  and  C_8
    5  A    between atoms: C_11  and  C_12
    6  A    between atoms: N_14  and  C_15
    7  A    between atoms: C_15  and  C_16
    8  A    between atoms: N_20  and  C_21
                            x       y       z     vdW  Elec       q    Type
                         _______ _______ _______ _____ _____    ______ ____

>  <TORSDO>
F 8

$$$$
=
 OpenBabel07192307433D

 51 53  0  0  1  0  0  0  0  0999 V2000
    0.8870   10.1090   19.1250 C   0  0  0  0  0  0  0  0  0  0  0  0
    1.6340    9.4540   18.1310 C   0  0  0  0  0  0  0  0  0  0  0  0
    2.1710    8.1870   18.3630 C   0  0  0  0  0  0  0  0  0  0  0  0
    1.9840    7.5670   19.6040 C   0  0  0  0  0  0  0  0  0  0  0  0
    1.2500    8.2100   20.6070 C   0  0  0  0  0  0  0  0  0  0  0  0
    0.7060    9.4770   20.3670 C   0  0  0  0  0  0  0  0  0  0  0  0
    1.7890    9.9280   17.1570 H   0  0  0  0  0  0  0  0  0  0  0  0
    2.7340    7.6960   17.5740 H   0  0  0  0  0  0  0  0  0  0  0  0
    1.0610    7.7340   21.5670 H   0  0  0  0  0  0  0  0  0  0  0  0
    0.1280    9.9630   21.1510 H   0  0  0  0  0  0  0  0  0  0  0  0
    2.5590    6.2150   19.8040 C   0  0  0  0  0  0  0  0  0  0  0  0
    3.6320    5.8950   19.2980 O   0  0  0  0  0  0  0  0  0  0  0  0
    1.8360    5.3250   20.5830 N   0  0  0  0  0  0  0  0  0  0  0  0
    1.0710    5.7200   21.1260 H   0  0  0  0  0  0  0  0  0  0  0  0
    2.5160    4.1700   21.1600 C   0  0  0  0  0  0  0  0  0  0  0  0
    2.0240    3.9550   22.1150 H   0  0  0  0  0  0  0  0  0  0  0  0
    3.5480    4.4710   21.3840 H   0  0  0  0  0  0  0  0  0  0  0  0
    2.5140    2.8930   20.2850 C   0  0  2  0  0  0  0  0  0  0  0  0
    3.9350    2.4240   19.9490 C   0  0  0  0  0  0  0  0  0  0  0  0
    3.7700    1.7210   18.6180 C   0  0  0  0  0  0  0  0  0  0  0  0
    2.8110    2.6170   17.8580 C   0  0  0  0  0  0  0  0  0  0  0  0
    1.8630    3.1100   18.9190 N   0  0  0  0  0  4  0  0  0  0  0  0
    1.9480    2.0860   20.7790 H   0  0  0  0  0  0  0  0  0  0  0  0
    4.3380    1.7540   20.7220 H   0  0  0  0  0  0  0  0  0  0  0  0
    4.6280    3.2750   19.8450 H   0  0  0  0  0  0  0  0  0  0  0  0
    3.3170    0.7290   18.7680 H   0  0  0  0  0  0  0  0  0  0  0  0
    4.7210    1.5790   18.1050 H   0  0  0  0  0  0  0  0  0  0  0  0
    3.2880    3.5100   17.4360 H   0  0  0  0  0  0  0  0  0  0  0  0
    2.2510    2.0870   17.0700 H   0  0  0  0  0  0  0  0  0  0  0  0
    1.7440    4.1410   18.7920 H   0  0  0  0  0  0  0  0  0  0  0  0
    0.4850    2.5320   18.8010 C   0  0  0  0  0  0  0  0  0  0  0  0
    0.5510    1.5900   18.2560 H   0  0  0  0  0  0  0  0  0  0  0  0
   -0.1460    3.2470   18.2690 H   0  0  0  0  0  0  0  0  0  0  0  0
    0.1120    2.3550   19.8120 H   0  0  0  0  0  0  0  0  0  0  0  0
    0.2970   11.4790   18.8640 C   0  0  0  0  0  0  0  0  0  0  0  0
    0.3950   12.1340   19.7380 H   0  0  0  0  0  0  0  0  0  0  0  0
    0.8220   11.9610   18.0310 H   0  0  0  0  0  0  0  0  0  0  0  0
   -2.8200   10.9220   17.3530 C   0  0  0  0  0  0  0  0  0  0  0  0
   -3.3040   11.5990   18.4930 C   0  0  0  0  0  0  0  0  0  0  0  0
   -2.1860   11.9200   19.2330 C   0  0  0  0  0  0  0  0  0  0  0  0
   -1.1220   11.4120   18.5290 N   0  0  0  0  0  0  0  0  0  0  0  0
   -1.4900   10.8000   17.3820 N   0  0  0  0  0  0  0  0  0  0  0  0
   -4.3310   11.8350   18.7340 H   0  0  0  0  0  0  0  0  0  0  0  0
   -3.5910   10.3700   16.2140 C   0  0  0  0  0  0  0  0  0  0  0  0
   -4.4190    9.7450   16.5720 H   0  0  0  0  0  0  0  0  0  0  0  0
   -4.0080   11.1830   15.6200 H   0  0  0  0  0  0  0  0  0  0  0  0
   -2.9600    9.7580   15.5650 H   0  0  0  0  0  0  0  0  0  0  0  0
   -2.0590   12.6530   20.5180 C   0  0  0  0  0  0  0  0  0  0  0  0
   -2.0530   13.7360   20.3490 H   0  0  0  0  0  0  0  0  0  0  0  0
   -2.8860   12.4060   21.1920 H   0  0  0  0  0  0  0  0  0  0  0  0
   -1.1230   12.3930   21.0260 H   0  0  0  0  0  0  0  0  0  0  0  0
  1  6  1  0  0  0  0
  2  3  1  0  0  0  0
  2  1  2  0  0  0  0
  3  4  2  0  0  0  0
  4 11  1  0  0  0  0
  4  5  1  0  0  0  0
  5  9  1  0  0  0  0
  6  5  2  0  0  0  0
  6 10  1  0  0  0  0
  7  2  1  0  0  0  0
  8  3  1  0  0  0  0
 11 13  1  0  0  0  0
 12 11  2  0  0  0  0
 13 14  1  0  0  0  0
 13 15  1  0  0  0  0
 15 17  1  0  0  0  0
 15 16  1  0  0  0  0
 18 23  1  1  0  0  0
 18 15  1  0  0  0  0
 19 18  1  0  0  0  0
 19 24  1  0  0  0  0
 20 26  1  0  0  0  0
 20 19  1  0  0  0  0
 21 20  1  0  0  0  0
 21 22  1  0  0  0  0
 22 18  1  0  0  0  0
 25 19  1  0  0  0  0
 27 20  1  0  0  0  0
 28 21  1  0  0  0  0
 29 21  1  0  0  0  0
 30 22  1  0  0  0  0
 31 22  1  0  0  0  0
 31 34  1  0  0  0  0
 32 31  1  0  0  0  0
 33 31  1  0  0  0  0
 35  1  1  0  0  0  0
 35 36  1  0  0  0  0
 37 35  1  0  0  0  0
 38 42  2  0  0  0  0
 38 39  1  0  0  0  0
 39 43  1  0  0  0  0
 39 40  2  0  0  0  0
 40 48  1  0  0  0  0
 41 35  1  0  0  0  0
 41 40  1  0  0  0  0
 42 41  1  0  0  0  0
 44 45  1  0  0  0  0
 44 38  1  0  0  0  0
 46 44  1  0  0  0  0
 47 44  1  0  0  0  0
 48 51  1  0  0  0  0
 48 50  1  0  0  0  0
 49 48  1  0  0  0  0
M  END
>  <MODEL>
11

>  <REMARK>
 VINA RESULT:    -6.643      1.331      2.146
 INTER + INTRA:         -10.077
 INTER:                  -9.245
 INTRA:                  -0.831
 UNBOUND:                -0.910
  Name = 
  8 active torsions:
  status: ('A' for Active; 'I' for Inactive)
    1  A    between atoms: C_1  and  C_2
    2  A    between atoms: C_4  and  C_5
    3  A    between atoms: N_6  and  C_7
    4  A    between atoms: C_7  and  C_8
    5  A    between atoms: C_11  and  C_12
    6  A    between atoms: N_14  and  C_15
    7  A    between atoms: C_15  and  C_16
    8  A    between atoms: N_20  and  C_21
                            x       y       z     vdW  Elec       q    Type
                         _______ _______ _______ _____ _____    ______ ____

>  <TORSDO>
F 8

$$$$
=
 OpenBabel07192307433D

 51 53  0  0  1  0  0  0  0  0999 V2000
    1.0570   10.2960   19.0570 C   0  0  0  0  0  0  0  0  0  0  0  0
    1.7090    9.8670   17.8890 C   0  0  0  0  0  0  0  0  0  0  0  0
    2.2510    8.5840   17.8070 C   0  0  0  0  0  0  0  0  0  0  0  0
    2.1650    7.7190   18.9040 C   0  0  0  0  0  0  0  0  0  0  0  0
    1.5270    8.1350   20.0790 C   0  0  0  0  0  0  0  0  0  0  0  0
    0.9770    9.4200   20.1530 C   0  0  0  0  0  0  0  0  0  0  0  0
    1.7840   10.5330   17.0240 H   0  0  0  0  0  0  0  0  0  0  0  0
    2.7390    8.2700   16.8870 H   0  0  0  0  0  0  0  0  0  0  0  0
    1.4160    7.4690   20.9320 H   0  0  0  0  0  0  0  0  0  0  0  0
    0.4740    9.7280   21.0680 H   0  0  0  0  0  0  0  0  0  0  0  0
    2.7420    6.3590   18.7700 C   0  0  0  0  0  0  0  0  0  0  0  0
    2.5850    5.6960   17.7480 O   0  0  0  0  0  0  0  0  0  0  0  0
    3.4610    5.8640   19.8470 N   0  0  0  0  0  0  0  0  0  0  0  0
    3.7150    6.5380   20.5670 H   0  0  0  0  0  0  0  0  0  0  0  0
    4.3860    4.7560   19.6360 C   0  0  0  0  0  0  0  0  0  0  0  0
    5.1830    4.8610   20.3800 H   0  0  0  0  0  0  0  0  0  0  0  0
    4.8430    4.8910   18.6460 H   0  0  0  0  0  0  0  0  0  0  0  0
    3.7650    3.3430   19.7450 C   0  0  2  0  0  0  0  0  0  0  0  0
    3.7910    2.5980   18.4040 C   0  0  0  0  0  0  0  0  0  0  0  0
    2.5980    1.6690   18.4940 C   0  0  0  0  0  0  0  0  0  0  0  0
    1.5250    2.5280   19.1360 C   0  0  0  0  0  0  0  0  0  0  0  0
    2.2860    3.3710   20.1250 N   0  0  0  0  0  4  0  0  0  0  0  0
    4.2790    2.7540   20.5230 H   0  0  0  0  0  0  0  0  0  0  0  0
    4.7320    2.0470   18.2600 H   0  0  0  0  0  0  0  0  0  0  0  0
    3.6700    3.2900   17.5550 H   0  0  0  0  0  0  0  0  0  0  0  0
    2.8330    0.8140   19.1440 H   0  0  0  0  0  0  0  0  0  0  0  0
    2.3050    1.2780   17.5190 H   0  0  0  0  0  0  0  0  0  0  0  0
    1.0490    3.2290   18.4390 H   0  0  0  0  0  0  0  0  0  0  0  0
    0.7530    1.9410   19.6590 H   0  0  0  0  0  0  0  0  0  0  0  0
    1.9580    4.3590   20.0250 H   0  0  0  0  0  0  0  0  0  0  0  0
    2.0150    3.0040   21.5530 C   0  0  0  0  0  0  0  0  0  0  0  0
    1.8190    1.9320   21.6030 H   0  0  0  0  0  0  0  0  0  0  0  0
    1.1510    3.5750   21.9000 H   0  0  0  0  0  0  0  0  0  0  0  0
    2.9070    3.2500   22.1340 H   0  0  0  0  0  0  0  0  0  0  0  0
    0.4610   11.6860   19.1380 C   0  0  0  0  0  0  0  0  0  0  0  0
    0.6280   12.1410   20.1210 H   0  0  0  0  0  0  0  0  0  0  0  0
    0.9280   12.3380   18.3890 H   0  0  0  0  0  0  0  0  0  0  0  0
   -2.7610   11.4580   17.7700 C   0  0  0  0  0  0  0  0  0  0  0  0
   -3.1570   11.8430   19.0690 C   0  0  0  0  0  0  0  0  0  0  0  0
   -1.9850   11.9970   19.7800 C   0  0  0  0  0  0  0  0  0  0  0  0
   -0.9790   11.6810   18.9010 N   0  0  0  0  0  0  0  0  0  0  0  0
   -1.4340   11.3500   17.6730 N   0  0  0  0  0  0  0  0  0  0  0  0
   -4.1620   12.0030   19.4330 H   0  0  0  0  0  0  0  0  0  0  0  0
   -3.6180   11.1780   16.5940 C   0  0  0  0  0  0  0  0  0  0  0  0
   -4.5740   10.7390   16.9050 H   0  0  0  0  0  0  0  0  0  0  0  0
   -3.8250   12.1030   16.0560 H   0  0  0  0  0  0  0  0  0  0  0  0
   -3.1330   10.4820   15.9040 H   0  0  0  0  0  0  0  0  0  0  0  0
   -1.7600   12.4110   21.1880 C   0  0  0  0  0  0  0  0  0  0  0  0
   -2.4770   13.1850   21.4840 H   0  0  0  0  0  0  0  0  0  0  0  0
   -1.8620   11.5580   21.8670 H   0  0  0  0  0  0  0  0  0  0  0  0
   -0.7540   12.8250   21.3180 H   0  0  0  0  0  0  0  0  0  0  0  0
  1 35  1  0  0  0  0
  1  6  1  0  0  0  0
  2  1  2  0  0  0  0
  3  2  1  0  0  0  0
  3  4  2  0  0  0  0
  4  5  1  0  0  0  0
  5  6  2  0  0  0  0
  5  9  1  0  0  0  0
  6 10  1  0  0  0  0
  7  2  1  0  0  0  0
  8  3  1  0  0  0  0
 11  4  1  0  0  0  0
 11 13  1  0  0  0  0
 12 11  2  0  0  0  0
 13 14  1  0  0  0  0
 15 18  1  0  0  0  0
 15 13  1  0  0  0  0
 15 16  1  0  0  0  0
 17 15  1  0  0  0  0
 18 22  1  0  0  0  0
 18 23  1  1  0  0  0
 19 20  1  0  0  0  0
 19 18  1  0  0  0  0
 20 21  1  0  0  0  0
 20 26  1  0  0  0  0
 21 29  1  0  0  0  0
 21 22  1  0  0  0  0
 22 31  1  0  0  0  0
 24 19  1  0  0  0  0
 25 19  1  0  0  0  0
 27 20  1  0  0  0  0
 28 21  1  0  0  0  0
 30 22  1  0  0  0  0
 31 32  1  0  0  0  0
 31 33  1  0  0  0  0
 31 34  1  0  0  0  0
 35 36  1  0  0  0  0
 37 35  1  0  0  0  0
 38 39  1  0  0  0  0
 39 43  1  0  0  0  0
 39 40  2  0  0  0  0
 40 48  1  0  0  0  0
 41 35  1  0  0  0  0
 41 40  1  0  0  0  0
 42 38  2  0  0  0  0
 42 41  1  0  0  0  0
 44 45  1  0  0  0  0
 44 38  1  0  0  0  0
 46 44  1  0  0  0  0
 47 44  1  0  0  0  0
 48 51  1  0  0  0  0
 48 49  1  0  0  0  0
 48 50  1  0  0  0  0
M  END
>  <MODEL>
12

>  <REMARK>
 VINA RESULT:    -6.642      1.430      1.916
 INTER + INTRA:         -10.075
 INTER:                  -9.302
 INTRA:                  -0.774
 UNBOUND:                -0.910
  Name = 
  8 active torsions:
  status: ('A' for Active; 'I' for Inactive)
    1  A    between atoms: C_1  and  C_2
    2  A    between atoms: C_4  and  C_5
    3  A    between atoms: N_6  and  C_7
    4  A    between atoms: C_7  and  C_8
    5  A    between atoms: C_11  and  C_12
    6  A    between atoms: N_14  and  C_15
    7  A    between atoms: C_15  and  C_16
    8  A    between atoms: N_20  and  C_21
                            x       y       z     vdW  Elec       q    Type
                         _______ _______ _______ _____ _____    ______ ____

>  <TORSDO>
F 8

$$$$
=
 OpenBabel07192307433D

 51 53  0  0  1  0  0  0  0  0999 V2000
    1.0690   10.1410   18.8360 C   0  0  0  0  0  0  0  0  0  0  0  0
    0.8690    9.5600   20.1000 C   0  0  0  0  0  0  0  0  0  0  0  0
    1.3730    8.2910   20.3870 C   0  0  0  0  0  0  0  0  0  0  0  0
    2.0680    7.5780   19.4040 C   0  0  0  0  0  0  0  0  0  0  0  0
    2.2680    8.1390   18.1370 C   0  0  0  0  0  0  0  0  0  0  0  0
    1.7680    9.4150   17.8560 C   0  0  0  0  0  0  0  0  0  0  0  0
    0.3260   10.1060   20.8770 H   0  0  0  0  0  0  0  0  0  0  0  0
    1.2170    7.8680   21.3770 H   0  0  0  0  0  0  0  0  0  0  0  0
    2.8350    7.6190   17.3690 H   0  0  0  0  0  0  0  0  0  0  0  0
    1.9380    9.8450   16.8710 H   0  0  0  0  0  0  0  0  0  0  0  0
    2.6000    6.2380   19.7560 C   0  0  0  0  0  0  0  0  0  0  0  0
    3.7160    5.8770   19.3900 O   0  0  0  0  0  0  0  0  0  0  0  0
    1.7860    5.4090   20.5110 N   0  0  0  0  0  0  0  0  0  0  0  0
    0.9720    5.8450   20.9410 H   0  0  0  0  0  0  0  0  0  0  0  0
    2.3840    4.2910   21.2340 C   0  0  0  0  0  0  0  0  0  0  0  0
    1.7740    4.1290   22.1300 H   0  0  0  0  0  0  0  0  0  0  0  0
    3.3800    4.6090   21.5690 H   0  0  0  0  0  0  0  0  0  0  0  0
    2.4880    2.9670   20.4390 C   0  0  2  0  0  0  0  0  0  0  0  0
    3.9460    2.5360   20.2290 C   0  0  0  0  0  0  0  0  0  0  0  0
    3.8990    1.7510   18.9350 C   0  0  0  0  0  0  0  0  0  0  0  0
    2.9640    2.5630   18.0590 C   0  0  0  0  0  0  0  0  0  0  0  0
    1.9270    3.0770   19.0230 N   0  0  0  0  0  4  0  0  0  0  0  0
    1.9190    2.1680   20.9420 H   0  0  0  0  0  0  0  0  0  0  0  0
    4.3180    1.9290   21.0670 H   0  0  0  0  0  0  0  0  0  0  0  0
    4.6130    3.4070   20.1200 H   0  0  0  0  0  0  0  0  0  0  0  0
    3.4730    0.7530   19.1140 H   0  0  0  0  0  0  0  0  0  0  0  0
    4.8880    1.6180   18.4960 H   0  0  0  0  0  0  0  0  0  0  0  0
    3.4360    3.4480   17.6170 H   0  0  0  0  0  0  0  0  0  0  0  0
    2.4790    1.9660   17.2690 H   0  0  0  0  0  0  0  0  0  0  0  0
    1.7800    4.0940   18.8250 H   0  0  0  0  0  0  0  0  0  0  0  0
    0.5820    2.4390   18.8470 C   0  0  0  0  0  0  0  0  0  0  0  0
    0.1410    2.2850   19.8320 H   0  0  0  0  0  0  0  0  0  0  0  0
    0.7160    1.4880   18.3260 H   0  0  0  0  0  0  0  0  0  0  0  0
   -0.0360    3.1230   18.2610 H   0  0  0  0  0  0  0  0  0  0  0  0
    0.5280   11.5230   18.5320 C   0  0  0  0  0  0  0  0  0  0  0  0
    1.0230   12.2920   19.1360 H   0  0  0  0  0  0  0  0  0  0  0  0
    0.7000   11.7690   17.4770 H   0  0  0  0  0  0  0  0  0  0  0  0
   -2.6570   12.2840   19.7920 C   0  0  0  0  0  0  0  0  0  0  0  0
   -3.0840   11.3980   18.7790 C   0  0  0  0  0  0  0  0  0  0  0  0
   -1.9310   10.9680   18.1560 C   0  0  0  0  0  0  0  0  0  0  0  0
   -0.9050   11.6210   18.7930 N   0  0  0  0  0  0  0  0  0  0  0  0
   -1.3290   12.4270   19.7910 N   0  0  0  0  0  0  0  0  0  0  0  0
   -4.0960   11.1000   18.5470 H   0  0  0  0  0  0  0  0  0  0  0  0
   -3.4830   13.0210   20.7770 C   0  0  0  0  0  0  0  0  0  0  0  0
   -4.5500   12.9150   20.5450 H   0  0  0  0  0  0  0  0  0  0  0  0
   -3.3090   12.6250   21.7770 H   0  0  0  0  0  0  0  0  0  0  0  0
   -3.2410   14.0870   20.7820 H   0  0  0  0  0  0  0  0  0  0  0  0
   -1.7410   10.0130   17.0350 C   0  0  0  0  0  0  0  0  0  0  0  0
   -0.8910    9.3490   17.2310 H   0  0  0  0  0  0  0  0  0  0  0  0
   -2.6380    9.4040   16.8850 H   0  0  0  0  0  0  0  0  0  0  0  0
   -1.5360   10.5450   16.0990 H   0  0  0  0  0  0  0  0  0  0  0  0
  1  2  1  0  0  0  0
  2  3  2  0  0  0  0
  2  7  1  0  0  0  0
  3  8  1  0  0  0  0
  4 11  1  0  0  0  0
  4  3  1  0  0  0  0
  5  4  2  0  0  0  0
  6  5  1  0  0  0  0
  6  1  2  0  0  0  0
  9  5  1  0  0  0  0
 10  6  1  0  0  0  0
 11 13  1  0  0  0  0
 12 11  2  0  0  0  0
 13 14  1  0  0  0  0
 13 15  1  0  0  0  0
 15 17  1  0  0  0  0
 15 16  1  0  0  0  0
 18 23  1  1  0  0  0
 18 15  1  0  0  0  0
 19 18  1  0  0  0  0
 19 24  1  0  0  0  0
 20 26  1  0  0  0  0
 20 19  1  0  0  0  0
 21 20  1  0  0  0  0
 21 22  1  0  0  0  0
 22 18  1  0  0  0  0
 25 19  1  0  0  0  0
 27 20  1  0  0  0  0
 28 21  1  0  0  0  0
 29 21  1  0  0  0  0
 30 22  1  0  0  0  0
 31 22  1  0  0  0  0
 31 32  1  0  0  0  0
 33 31  1  0  0  0  0
 34 31  1  0  0  0  0
 35 41  1  0  0  0  0
 35  1  1  0  0  0  0
 35 36  1  0  0  0  0
 37 35  1  0  0  0  0
 38 44  1  0  0  0  0
 39 38  1  0  0  0  0
 40 39  2  0  0  0  0
 40 41  1  0  0  0  0
 41 42  1  0  0  0  0
 42 38  2  0  0  0  0
 43 39  1  0  0  0  0
 44 47  1  0  0  0  0
 44 46  1  0  0  0  0
 45 44  1  0  0  0  0
 48 49  1  0  0  0  0
 48 40  1  0  0  0  0
 50 48  1  0  0  0  0
 51 48  1  0  0  0  0
M  END
>  <MODEL>
13

>  <REMARK>
 VINA RESULT:    -6.582      1.425      2.627
 INTER + INTRA:          -9.993
 INTER:                  -9.203
 INTRA:                  -0.789
 UNBOUND:                -0.910
  Name = 
  8 active torsions:
  status: ('A' for Active; 'I' for Inactive)
    1  A    between atoms: C_1  and  C_2
    2  A    between atoms: C_4  and  C_5
    3  A    between atoms: N_6  and  C_7
    4  A    between atoms: C_7  and  C_8
    5  A    between atoms: C_11  and  C_12
    6  A    between atoms: N_14  and  C_15
    7  A    between atoms: C_15  and  C_16
    8  A    between atoms: N_20  and  C_21
                            x       y       z     vdW  Elec       q    Type
                         _______ _______ _______ _____ _____    ______ ____

>  <TORSDO>
F 8

$$$$
=
 OpenBabel07192307433D

 51 53  0  0  1  0  0  0  0  0999 V2000
    2.4190    7.4300   19.2600 C   0  0  0  0  0  0  0  0  0  0  0  0
    1.6680    8.0250   20.2870 C   0  0  0  0  0  0  0  0  0  0  0  0
    0.8400    9.1160   20.0230 C   0  0  0  0  0  0  0  0  0  0  0  0
    0.7690    9.6400   18.7270 C   0  0  0  0  0  0  0  0  0  0  0  0
    1.5180    9.0640   17.6940 C   0  0  0  0  0  0  0  0  0  0  0  0
    2.3400    7.9640   17.9620 C   0  0  0  0  0  0  0  0  0  0  0  0
    1.7150    7.6270   21.3050 H   0  0  0  0  0  0  0  0  0  0  0  0
    0.2580    9.5510   20.8320 H   0  0  0  0  0  0  0  0  0  0  0  0
    1.4520    9.4310   16.6720 H   0  0  0  0  0  0  0  0  0  0  0  0
    2.9110    7.5190   17.1490 H   0  0  0  0  0  0  0  0  0  0  0  0
   -0.1350   10.7910   18.4850 C   0  0  0  0  0  0  0  0  0  0  0  0
   -1.3310   10.6280   18.2570 O   0  0  0  0  0  0  0  0  0  0  0  0
    0.4250   12.0580   18.5240 N   0  0  0  0  0  0  0  0  0  0  0  0
    1.3640   12.1240   18.9120 H   0  0  0  0  0  0  0  0  0  0  0  0
   -0.4430   13.2150   18.7180 C   0  0  0  0  0  0  0  0  0  0  0  0
   -1.3050   13.0810   18.0550 H   0  0  0  0  0  0  0  0  0  0  0  0
    0.1040   14.1010   18.3700 H   0  0  0  0  0  0  0  0  0  0  0  0
   -0.9410   13.4340   20.1670 C   0  0  2  0  0  0  0  0  0  0  0  0
    0.1450   13.1170   21.2030 C   0  0  0  0  0  0  0  0  0  0  0  0
   -0.6440   12.6840   22.4210 C   0  0  0  0  0  0  0  0  0  0  0  0
   -1.7500   11.8230   21.8420 C   0  0  0  0  0  0  0  0  0  0  0  0
   -2.0960   12.5080   20.5460 N   0  0  0  0  0  4  0  0  0  0  0  0
   -1.3090   14.4650   20.2980 H   0  0  0  0  0  0  0  0  0  0  0  0
    0.7790   13.9910   21.4110 H   0  0  0  0  0  0  0  0  0  0  0  0
    0.8000   12.2970   20.8640 H   0  0  0  0  0  0  0  0  0  0  0  0
   -1.0760   13.5630   22.9230 H   0  0  0  0  0  0  0  0  0  0  0  0
   -0.0260   12.1550   23.1470 H   0  0  0  0  0  0  0  0  0  0  0  0
   -1.4230   10.8100   21.5750 H   0  0  0  0  0  0  0  0  0  0  0  0
   -2.6420   11.7680   22.4870 H   0  0  0  0  0  0  0  0  0  0  0  0
   -2.1620   11.7750   19.8020 H   0  0  0  0  0  0  0  0  0  0  0  0
   -3.4360   13.1780   20.5660 C   0  0  0  0  0  0  0  0  0  0  0  0
   -4.1070   12.6300   19.9050 H   0  0  0  0  0  0  0  0  0  0  0  0
   -3.3120   14.2100   20.2290 H   0  0  0  0  0  0  0  0  0  0  0  0
   -3.8080   13.1430   21.5930 H   0  0  0  0  0  0  0  0  0  0  0  0
    3.3090    6.2390   19.5500 C   0  0  0  0  0  0  0  0  0  0  0  0
    4.3470    6.4270   19.2490 H   0  0  0  0  0  0  0  0  0  0  0  0
    3.3110    6.0260   20.6260 H   0  0  0  0  0  0  0  0  0  0  0  0
    1.7030    3.2900   18.5340 C   0  0  0  0  0  0  0  0  0  0  0  0
    2.6070    3.3710   17.4530 C   0  0  0  0  0  0  0  0  0  0  0  0
    3.3600    4.5020   17.6860 C   0  0  0  0  0  0  0  0  0  0  0  0
    2.8650    5.0380   18.8490 N   0  0  0  0  0  0  0  0  0  0  0  0
    1.8560    4.3130   19.3790 N   0  0  0  0  0  0  0  0  0  0  0  0
    2.7060    2.6850   16.6230 H   0  0  0  0  0  0  0  0  0  0  0  0
    0.6750    2.2560   18.7970 C   0  0  0  0  0  0  0  0  0  0  0  0
    0.6530    1.9920   19.8620 H   0  0  0  0  0  0  0  0  0  0  0  0
   -0.3090    2.6310   18.5170 H   0  0  0  0  0  0  0  0  0  0  0  0
    0.8710    1.3450   18.2260 H   0  0  0  0  0  0  0  0  0  0  0  0
    4.4800    5.0900   16.9090 C   0  0  0  0  0  0  0  0  0  0  0  0
    4.2920    6.1500   16.6980 H   0  0  0  0  0  0  0  0  0  0  0  0
    5.4240    5.0010   17.4560 H   0  0  0  0  0  0  0  0  0  0  0  0
    4.5990    4.5790   15.9470 H   0  0  0  0  0  0  0  0  0  0  0  0
  1 35  1  0  0  0  0
  1  2  1  0  0  0  0
  2  7  1  0  0  0  0
  3  2  2  0  0  0  0
  3  8  1  0  0  0  0
  4  3  1  0  0  0  0
  5  6  1  0  0  0  0
  5  4  2  0  0  0  0
  6  1  2  0  0  0  0
  9  5  1  0  0  0  0
 10  6  1  0  0  0  0
 11 13  1  0  0  0  0
 11  4  1  0  0  0  0
 12 11  2  0  0  0  0
 13 15  1  0  0  0  0
 13 14  1  0  0  0  0
 15 18  1  0  0  0  0
 16 15  1  0  0  0  0
 17 15  1  0  0  0  0
 18 23  1  1  0  0  0
 18 22  1  0  0  0  0
 18 19  1  0  0  0  0
 19 24  1  0  0  0  0
 19 20  1  0  0  0  0
 20 26  1  0  0  0  0
 20 27  1  0  0  0  0
 21 20  1  0  0  0  0
 21 29  1  0  0  0  0
 22 31  1  0  0  0  0
 22 21  1  0  0  0  0
 25 19  1  0  0  0  0
 28 21  1  0  0  0  0
 30 22  1  0  0  0  0
 31 34  1  0  0  0  0
 32 31  1  0  0  0  0
 33 31  1  0  0  0  0
 35 37  1  0  0  0  0
 36 35  1  0  0  0  0
 38 44  1  0  0  0  0
 38 42  2  0  0  0  0
 39 40  2  0  0  0  0
 39 38  1  0  0  0  0
 40 41  1  0  0  0  0
 41 42  1  0  0  0  0
 41 35  1  0  0  0  0
 43 39  1  0  0  0  0
 44 45  1  0  0  0  0
 46 44  1  0  0  0  0
 47 44  1  0  0  0  0
 48 50  1  0  0  0  0
 48 40  1  0  0  0  0
 49 48  1  0  0  0  0
 51 48  1  0  0  0  0
M  END
>  <MODEL>
14

>  <REMARK>
 VINA RESULT:    -6.569      2.385      8.118
 INTER + INTRA:          -9.974
 INTER:                  -8.862
 INTRA:                  -1.112
 UNBOUND:                -0.910
  Name = 
  8 active torsions:
  status: ('A' for Active; 'I' for Inactive)
    1  A    between atoms: C_1  and  C_2
    2  A    between atoms: C_4  and  C_5
    3  A    between atoms: N_6  and  C_7
    4  A    between atoms: C_7  and  C_8
    5  A    between atoms: C_11  and  C_12
    6  A    between atoms: N_14  and  C_15
    7  A    between atoms: C_15  and  C_16
    8  A    between atoms: N_20  and  C_21
                            x       y       z     vdW  Elec       q    Type
                         _______ _______ _______ _____ _____    ______ ____

>  <TORSDO>
F 8

$$$$
=
 OpenBabel07192307433D

 51 53  0  0  1  0  0  0  0  0999 V2000
    2.6870    7.1680   19.2590 C   0  0  0  0  0  0  0  0  0  0  0  0
    1.9730    7.5290   20.4140 C   0  0  0  0  0  0  0  0  0  0  0  0
    1.0970    8.6150   20.3980 C   0  0  0  0  0  0  0  0  0  0  0  0
    0.9400    9.3670   19.2280 C   0  0  0  0  0  0  0  0  0  0  0  0
    1.6520    9.0260   18.0720 C   0  0  0  0  0  0  0  0  0  0  0  0
    2.5220    7.9310   18.0900 C   0  0  0  0  0  0  0  0  0  0  0  0
    2.0870    6.9500   21.3350 H   0  0  0  0  0  0  0  0  0  0  0  0
    0.5450    8.8670   21.3000 H   0  0  0  0  0  0  0  0  0  0  0  0
    1.5200    9.5740   17.1410 H   0  0  0  0  0  0  0  0  0  0  0  0
    3.0630    7.6680   17.1820 H   0  0  0  0  0  0  0  0  0  0  0  0
   -0.0110   10.5050   19.2500 C   0  0  0  0  0  0  0  0  0  0  0  0
   -0.7220   10.7250   20.2270 O   0  0  0  0  0  0  0  0  0  0  0  0
   -0.0700   11.3070   18.1210 N   0  0  0  0  0  0  0  0  0  0  0  0
    0.6800   11.1860   17.4430 H   0  0  0  0  0  0  0  0  0  0  0  0
   -0.6420   12.6450   18.2280 C   0  0  0  0  0  0  0  0  0  0  0  0
   -1.5240   12.5630   18.8740 H   0  0  0  0  0  0  0  0  0  0  0  0
   -0.9950   12.9340   17.2290 H   0  0  0  0  0  0  0  0  0  0  0  0
    0.3070   13.7300   18.7910 C   0  0  2  0  0  0  0  0  0  0  0  0
    1.7540   13.5260   18.3250 C   0  0  0  0  0  0  0  0  0  0  0  0
    2.5750   14.1270   19.4470 C   0  0  0  0  0  0  0  0  0  0  0  0
    1.8570   13.6650   20.7010 C   0  0  0  0  0  0  0  0  0  0  0  0
    0.4010   13.7040   20.3150 N   0  0  0  0  0  4  0  0  0  0  0  0
   -0.0480   14.7360   18.5140 H   0  0  0  0  0  0  0  0  0  0  0  0
    1.9480   14.0200   17.3620 H   0  0  0  0  0  0  0  0  0  0  0  0
    1.9950   12.4560   18.2100 H   0  0  0  0  0  0  0  0  0  0  0  0
    2.5520   15.2250   19.3850 H   0  0  0  0  0  0  0  0  0  0  0  0
    3.6180   13.8120   19.4110 H   0  0  0  0  0  0  0  0  0  0  0  0
    2.0730   12.6240   20.9710 H   0  0  0  0  0  0  0  0  0  0  0  0
    2.0330   14.3190   21.5700 H   0  0  0  0  0  0  0  0  0  0  0  0
   -0.0420   12.8140   20.6390 H   0  0  0  0  0  0  0  0  0  0  0  0
   -0.3640   14.8000   20.9930 C   0  0  0  0  0  0  0  0  0  0  0  0
   -0.1320   14.7760   22.0580 H   0  0  0  0  0  0  0  0  0  0  0  0
   -1.4300   14.6370   20.8210 H   0  0  0  0  0  0  0  0  0  0  0  0
   -0.0380   15.7490   20.5600 H   0  0  0  0  0  0  0  0  0  0  0  0
    3.6290    5.9820   19.2790 C   0  0  0  0  0  0  0  0  0  0  0  0
    4.5590    6.1950   18.7380 H   0  0  0  0  0  0  0  0  0  0  0  0
    3.8980    5.7340   20.3130 H   0  0  0  0  0  0  0  0  0  0  0  0
    1.6850    3.1670   18.4990 C   0  0  0  0  0  0  0  0  0  0  0  0
    2.5450    3.0920   17.3820 C   0  0  0  0  0  0  0  0  0  0  0  0
    3.4200    4.1500   17.5200 C   0  0  0  0  0  0  0  0  0  0  0  0
    3.0340    4.7980   18.6670 N   0  0  0  0  0  0  0  0  0  0  0  0
    1.9790    4.2130   19.2760 N   0  0  0  0  0  0  0  0  0  0  0  0
    2.5380    2.3560   16.5910 H   0  0  0  0  0  0  0  0  0  0  0  0
    0.5680    2.2630   18.8610 C   0  0  0  0  0  0  0  0  0  0  0  0
    0.6890    1.8860   19.8840 H   0  0  0  0  0  0  0  0  0  0  0  0
   -0.3780    2.8000   18.8030 H   0  0  0  0  0  0  0  0  0  0  0  0
    0.5170    1.4040   18.1860 H   0  0  0  0  0  0  0  0  0  0  0  0
    4.5600    4.5730   16.6680 C   0  0  0  0  0  0  0  0  0  0  0  0
    4.6840    3.8920   15.8190 H   0  0  0  0  0  0  0  0  0  0  0  0
    4.4070    5.5880   16.2870 H   0  0  0  0  0  0  0  0  0  0  0  0
    5.4970    4.5660   17.2370 H   0  0  0  0  0  0  0  0  0  0  0  0
  1 35  1  0  0  0  0
  1  2  1  0  0  0  0
  2  7  1  0  0  0  0
  3  2  2  0  0  0  0
  3  8  1  0  0  0  0
  4 11  1  0  0  0  0
  4  3  1  0  0  0  0
  5  6  1  0  0  0  0
  5  4  2  0  0  0  0
  6  1  2  0  0  0  0
  9  5  1  0  0  0  0
 10  6  1  0  0  0  0
 11 12  2  0  0  0  0
 13 15  1  0  0  0  0
 13 11  1  0  0  0  0
 14 13  1  0  0  0  0
 15 18  1  0  0  0  0
 15 16  1  0  0  0  0
 17 15  1  0  0  0  0
 18 23  1  6  0  0  0
 18 22  1  0  0  0  0
 19 18  1  0  0  0  0
 19 20  1  0  0  0  0
 20 21  1  0  0  0  0
 21 28  1  0  0  0  0
 21 29  1  0  0  0  0
 22 30  1  0  0  0  0
 22 21  1  0  0  0  0
 22 31  1  0  0  0  0
 24 19  1  0  0  0  0
 25 19  1  0  0  0  0
 26 20  1  0  0  0  0
 27 20  1  0  0  0  0
 31 32  1  0  0  0  0
 33 31  1  0  0  0  0
 34 31  1  0  0  0  0
 35 37  1  0  0  0  0
 36 35  1  0  0  0  0
 38 44  1  0  0  0  0
 38 42  2  0  0  0  0
 39 40  2  0  0  0  0
 39 38  1  0  0  0  0
 40 41  1  0  0  0  0
 41 42  1  0  0  0  0
 41 35  1  0  0  0  0
 43 39  1  0  0  0  0
 44 45  1  0  0  0  0
 46 44  1  0  0  0  0
 47 44  1  0  0  0  0
 48 51  1  0  0  0  0
 48 40  1  0  0  0  0
 49 48  1  0  0  0  0
 50 48  1  0  0  0  0
M  END
>  <MODEL>
15

>  <REMARK>
 VINA RESULT:    -6.564      2.291      8.284
 INTER + INTRA:          -9.968
 INTER:                  -8.925
 INTRA:                  -1.043
 UNBOUND:                -0.910
  Name = 
  8 active torsions:
  status: ('A' for Active; 'I' for Inactive)
    1  A    between atoms: C_1  and  C_2
    2  A    between atoms: C_4  and  C_5
    3  A    between atoms: N_6  and  C_7
    4  A    between atoms: C_7  and  C_8
    5  A    between atoms: C_11  and  C_12
    6  A    between atoms: N_14  and  C_15
    7  A    between atoms: C_15  and  C_16
    8  A    between atoms: N_20  and  C_21
                            x       y       z     vdW  Elec       q    Type
                         _______ _______ _______ _____ _____    ______ ____

>  <TORSDO>
F 8

$$$$
=
 OpenBabel07192307433D

 51 53  0  0  1  0  0  0  0  0999 V2000
    3.9560    5.5110   18.6590 C   0  0  0  0  0  0  0  0  0  0  0  0
    3.1530    5.5300   19.8120 C   0  0  0  0  0  0  0  0  0  0  0  0
    2.2620    6.5790   20.0410 C   0  0  0  0  0  0  0  0  0  0  0  0
    2.1770    7.6340   19.1260 C   0  0  0  0  0  0  0  0  0  0  0  0
    2.9770    7.6340   17.9770 C   0  0  0  0  0  0  0  0  0  0  0  0
    3.8630    6.5760   17.7480 C   0  0  0  0  0  0  0  0  0  0  0  0
    3.2100    4.7120   20.5360 H   0  0  0  0  0  0  0  0  0  0  0  0
    1.6410    6.5640   20.9340 H   0  0  0  0  0  0  0  0  0  0  0  0
    2.9040    8.4260   17.2340 H   0  0  0  0  0  0  0  0  0  0  0  0
    4.4730    6.5820   16.8460 H   0  0  0  0  0  0  0  0  0  0  0  0
    1.2070    8.7220   19.4000 C   0  0  0  0  0  0  0  0  0  0  0  0
    0.9440    9.0710   20.5480 O   0  0  0  0  0  0  0  0  0  0  0  0
    0.6030    9.3260   18.3080 N   0  0  0  0  0  0  0  0  0  0  0  0
    1.0140    9.1250   17.3980 H   0  0  0  0  0  0  0  0  0  0  0  0
   -0.0100   10.6400   18.4700 C   0  0  0  0  0  0  0  0  0  0  0  0
    0.1720   11.1930   17.5420 H   0  0  0  0  0  0  0  0  0  0  0  0
    0.5300   11.1600   19.2730 H   0  0  0  0  0  0  0  0  0  0  0  0
   -1.5280   10.6310   18.7710 C   0  0  2  0  0  0  0  0  0  0  0  0
   -2.3010    9.7280   17.8010 C   0  0  0  0  0  0  0  0  0  0  0  0
   -3.6750   10.3640   17.7460 C   0  0  0  0  0  0  0  0  0  0  0  0
   -3.3790   11.8510   17.7020 C   0  0  0  0  0  0  0  0  0  0  0  0
   -2.1770   12.0030   18.5980 N   0  0  0  0  0  4  0  0  0  0  0  0
   -1.7150   10.3230   19.8140 H   0  0  0  0  0  0  0  0  0  0  0  0
   -2.3420    8.6880   18.1540 H   0  0  0  0  0  0  0  0  0  0  0  0
   -1.8440    9.7270   16.7980 H   0  0  0  0  0  0  0  0  0  0  0  0
   -4.2400   10.1200   18.6580 H   0  0  0  0  0  0  0  0  0  0  0  0
   -4.2560   10.0190   16.8900 H   0  0  0  0  0  0  0  0  0  0  0  0
   -3.0680   12.2070   16.7120 H   0  0  0  0  0  0  0  0  0  0  0  0
   -4.2080   12.4710   18.0790 H   0  0  0  0  0  0  0  0  0  0  0  0
   -1.4850   12.6140   18.1070 H   0  0  0  0  0  0  0  0  0  0  0  0
   -2.4820   12.7020   19.8880 C   0  0  0  0  0  0  0  0  0  0  0  0
   -2.0380   12.1310   20.7040 H   0  0  0  0  0  0  0  0  0  0  0  0
   -3.5670   12.7650   20.0010 H   0  0  0  0  0  0  0  0  0  0  0  0
   -2.0340   13.6980   19.8400 H   0  0  0  0  0  0  0  0  0  0  0  0
    4.9150    4.3650   18.4100 C   0  0  0  0  0  0  0  0  0  0  0  0
    5.6250    4.2450   19.2370 H   0  0  0  0  0  0  0  0  0  0  0  0
    4.3590    3.4250   18.3130 H   0  0  0  0  0  0  0  0  0  0  0  0
    6.1740    4.3440   15.1360 C   0  0  0  0  0  0  0  0  0  0  0  0
    7.2100    5.1120   15.7090 C   0  0  0  0  0  0  0  0  0  0  0  0
    6.8880    5.2260   17.0450 C   0  0  0  0  0  0  0  0  0  0  0  0
    5.6970    4.5580   17.1930 N   0  0  0  0  0  0  0  0  0  0  0  0
    5.2480    4.0160   16.0400 N   0  0  0  0  0  0  0  0  0  0  0  0
    8.0830    5.5160   15.2170 H   0  0  0  0  0  0  0  0  0  0  0  0
    6.0280    3.9040   13.7280 C   0  0  0  0  0  0  0  0  0  0  0  0
    6.2140    2.8270   13.6360 H   0  0  0  0  0  0  0  0  0  0  0  0
    5.0160    4.1080   13.3790 H   0  0  0  0  0  0  0  0  0  0  0  0
    6.7290    4.4270   13.0730 H   0  0  0  0  0  0  0  0  0  0  0  0
    7.6070    5.8990   18.1560 C   0  0  0  0  0  0  0  0  0  0  0  0
    8.6740    6.0000   17.9230 H   0  0  0  0  0  0  0  0  0  0  0  0
    7.1910    6.8940   18.3440 H   0  0  0  0  0  0  0  0  0  0  0  0
    7.5250    5.3200   19.0830 H   0  0  0  0  0  0  0  0  0  0  0  0
  1  2  1  0  0  0  0
  2  3  2  0  0  0  0
  2  7  1  0  0  0  0
  3  8  1  0  0  0  0
  4 11  1  0  0  0  0
  4  3  1  0  0  0  0
  5  4  2  0  0  0  0
  6  5  1  0  0  0  0
  6  1  2  0  0  0  0
  9  5  1  0  0  0  0
 10  6  1  0  0  0  0
 11 12  2  0  0  0  0
 13 15  1  0  0  0  0
 13 11  1  0  0  0  0
 14 13  1  0  0  0  0
 15 18  1  0  0  0  0
 15 17  1  0  0  0  0
 16 15  1  0  0  0  0
 18 23  1  1  0  0  0
 19 24  1  0  0  0  0
 19 18  1  0  0  0  0
 20 19  1  0  0  0  0
 20 26  1  0  0  0  0
 21 20  1  0  0  0  0
 21 29  1  0  0  0  0
 21 22  1  0  0  0  0
 22 18  1  0  0  0  0
 22 31  1  0  0  0  0
 25 19  1  0  0  0  0
 27 20  1  0  0  0  0
 28 21  1  0  0  0  0
 30 22  1  0  0  0  0
 31 33  1  0  0  0  0
 31 32  1  0  0  0  0
 34 31  1  0  0  0  0
 35  1  1  0  0  0  0
 35 36  1  0  0  0  0
 37 35  1  0  0  0  0
 38 39  1  0  0  0  0
 38 42  2  0  0  0  0
 39 40  2  0  0  0  0
 40 41  1  0  0  0  0
 40 48  1  0  0  0  0
 41 35  1  0  0  0  0
 42 41  1  0  0  0  0
 43 39  1  0  0  0  0
 44 38  1  0  0  0  0
 45 44  1  0  0  0  0
 46 44  1  0  0  0  0
 47 44  1  0  0  0  0
 48 50  1  0  0  0  0
 48 51  1  0  0  0  0
 49 48  1  0  0  0  0
M  END
>  <MODEL>
16

>  <REMARK>
 VINA RESULT:    -6.557      2.846      8.415
 INTER + INTRA:          -9.959
 INTER:                  -9.415
 INTRA:                  -0.544
 UNBOUND:                -0.910
  Name = 
  8 active torsions:
  status: ('A' for Active; 'I' for Inactive)
    1  A    between atoms: C_1  and  C_2
    2  A    between atoms: C_4  and  C_5
    3  A    between atoms: N_6  and  C_7
    4  A    between atoms: C_7  and  C_8
    5  A    between atoms: C_11  and  C_12
    6  A    between atoms: N_14  and  C_15
    7  A    between atoms: C_15  and  C_16
    8  A    between atoms: N_20  and  C_21
                            x       y       z     vdW  Elec       q    Type
                         _______ _______ _______ _____ _____    ______ ____

>  <TORSDO>
F 8

$$$$
=
 OpenBabel07192307433D

 51 53  0  0  1  0  0  0  0  0999 V2000
    2.8140    7.0310   19.1450 C   0  0  0  0  0  0  0  0  0  0  0  0
    2.0600    7.4490   20.2550 C   0  0  0  0  0  0  0  0  0  0  0  0
    1.2280    8.5660   20.1690 C   0  0  0  0  0  0  0  0  0  0  0  0
    1.1560    9.2920   18.9750 C   0  0  0  0  0  0  0  0  0  0  0  0
    1.9080    8.8930   17.8630 C   0  0  0  0  0  0  0  0  0  0  0  0
    2.7340    7.7680   17.9510 C   0  0  0  0  0  0  0  0  0  0  0  0
    2.1080    6.8920   21.1950 H   0  0  0  0  0  0  0  0  0  0  0  0
    0.6450    8.8620   21.0380 H   0  0  0  0  0  0  0  0  0  0  0  0
    1.8420    9.4210   16.9140 H   0  0  0  0  0  0  0  0  0  0  0  0
    3.3070    7.4620   17.0770 H   0  0  0  0  0  0  0  0  0  0  0  0
    0.2490   10.4640   18.9220 C   0  0  0  0  0  0  0  0  0  0  0  0
   -0.7000   10.5030   18.1430 O   0  0  0  0  0  0  0  0  0  0  0  0
    0.5170   11.5150   19.7850 N   0  0  0  0  0  0  0  0  0  0  0  0
    1.1860   11.3280   20.5290 H   0  0  0  0  0  0  0  0  0  0  0  0
   -0.5400   12.4760   20.0850 C   0  0  0  0  0  0  0  0  0  0  0  0
   -0.9800   12.7750   19.1270 H   0  0  0  0  0  0  0  0  0  0  0  0
   -0.0640   13.3660   20.5180 H   0  0  0  0  0  0  0  0  0  0  0  0
   -1.6580   11.9620   21.0230 C   0  0  2  0  0  0  0  0  0  0  0  0
   -2.8930   12.8720   20.9990 C   0  0  0  0  0  0  0  0  0  0  0  0
   -3.4970   12.6850   22.3750 C   0  0  0  0  0  0  0  0  0  0  0  0
   -2.2910   12.6680   23.2940 C   0  0  0  0  0  0  0  0  0  0  0  0
   -1.2400   11.9450   22.4930 N   0  0  0  0  0  4  0  0  0  0  0  0
   -1.9360   10.9280   20.7630 H   0  0  0  0  0  0  0  0  0  0  0  0
   -3.5930   12.5890   20.1990 H   0  0  0  0  0  0  0  0  0  0  0  0
   -2.6150   13.9280   20.8470 H   0  0  0  0  0  0  0  0  0  0  0  0
   -4.0230   11.7200   22.4280 H   0  0  0  0  0  0  0  0  0  0  0  0
   -4.2120   13.4700   22.6220 H   0  0  0  0  0  0  0  0  0  0  0  0
   -1.8840   13.6650   23.5020 H   0  0  0  0  0  0  0  0  0  0  0  0
   -2.4720   12.1340   24.2420 H   0  0  0  0  0  0  0  0  0  0  0  0
   -0.3480   12.4870   22.5680 H   0  0  0  0  0  0  0  0  0  0  0  0
   -0.9220   10.5790   23.0220 C   0  0  0  0  0  0  0  0  0  0  0  0
    0.1560   10.4300   22.9680 H   0  0  0  0  0  0  0  0  0  0  0  0
   -1.4500    9.8410   22.4140 H   0  0  0  0  0  0  0  0  0  0  0  0
   -1.2550   10.5410   24.0620 H   0  0  0  0  0  0  0  0  0  0  0  0
    3.7090    5.8120   19.2400 C   0  0  0  0  0  0  0  0  0  0  0  0
    4.6700    5.9760   18.7390 H   0  0  0  0  0  0  0  0  0  0  0  0
    3.9200    5.5830   20.2920 H   0  0  0  0  0  0  0  0  0  0  0  0
    1.7160    3.0320   18.4590 C   0  0  0  0  0  0  0  0  0  0  0  0
    2.5930    2.9260   17.3580 C   0  0  0  0  0  0  0  0  0  0  0  0
    3.4890    3.9650   17.4990 C   0  0  0  0  0  0  0  0  0  0  0  0
    3.0970    4.6340   18.6320 N   0  0  0  0  0  0  0  0  0  0  0  0
    2.0200    4.0810   19.2280 N   0  0  0  0  0  0  0  0  0  0  0  0
    2.5830    2.1800   16.5750 H   0  0  0  0  0  0  0  0  0  0  0  0
    0.5730    2.1570   18.8110 C   0  0  0  0  0  0  0  0  0  0  0  0
    0.7530    1.6480   19.7660 H   0  0  0  0  0  0  0  0  0  0  0  0
   -0.3350    2.7520   18.9050 H   0  0  0  0  0  0  0  0  0  0  0  0
    0.4050    1.3940   18.0460 H   0  0  0  0  0  0  0  0  0  0  0  0
    4.6530    4.3530   16.6620 C   0  0  0  0  0  0  0  0  0  0  0  0
    4.4930    5.3380   16.2090 H   0  0  0  0  0  0  0  0  0  0  0  0
    5.5700    4.3840   17.2590 H   0  0  0  0  0  0  0  0  0  0  0  0
    4.8060    3.6350   15.8490 H   0  0  0  0  0  0  0  0  0  0  0  0
  1 35  1  0  0  0  0
  1  2  1  0  0  0  0
  2  7  1  0  0  0  0
  3  2  2  0  0  0  0
  3  8  1  0  0  0  0
  4  3  1  0  0  0  0
  5  6  1  0  0  0  0
  5  4  2  0  0  0  0
  6  1  2  0  0  0  0
  9  5  1  0  0  0  0
 10  6  1  0  0  0  0
 11  4  1  0  0  0  0
 11 13  1  0  0  0  0
 12 11  2  0  0  0  0
 13 15  1  0  0  0  0
 13 14  1  0  0  0  0
 15 17  1  0  0  0  0
 15 18  1  0  0  0  0
 16 15  1  0  0  0  0
 18 23  1  6  0  0  0
 18 22  1  0  0  0  0
 19 18  1  0  0  0  0
 19 20  1  0  0  0  0
 20 26  1  0  0  0  0
 20 27  1  0  0  0  0
 20 21  1  0  0  0  0
 21 28  1  0  0  0  0
 21 29  1  0  0  0  0
 22 30  1  0  0  0  0
 22 31  1  0  0  0  0
 22 21  1  0  0  0  0
 24 19  1  0  0  0  0
 25 19  1  0  0  0  0
 31 34  1  0  0  0  0
 32 31  1  0  0  0  0
 33 31  1  0  0  0  0
 35 37  1  0  0  0  0
 36 35  1  0  0  0  0
 38 44  1  0  0  0  0
 38 42  2  0  0  0  0
 39 40  2  0  0  0  0
 39 38  1  0  0  0  0
 40 41  1  0  0  0  0
 41 42  1  0  0  0  0
 41 35  1  0  0  0  0
 43 39  1  0  0  0  0
 44 46  1  0  0  0  0
 44 45  1  0  0  0  0
 47 44  1  0  0  0  0
 48 50  1  0  0  0  0
 48 40  1  0  0  0  0
 49 48  1  0  0  0  0
 51 48  1  0  0  0  0
M  END
>  <MODEL>
17

>  <REMARK>
 VINA RESULT:    -6.545      2.617      8.030
 INTER + INTRA:          -9.942
 INTER:                  -9.204
 INTRA:                  -0.738
 UNBOUND:                -0.910
  Name = 
  8 active torsions:
  status: ('A' for Active; 'I' for Inactive)
    1  A    between atoms: C_1  and  C_2
    2  A    between atoms: C_4  and  C_5
    3  A    between atoms: N_6  and  C_7
    4  A    between atoms: C_7  and  C_8
    5  A    between atoms: C_11  and  C_12
    6  A    between atoms: N_14  and  C_15
    7  A    between atoms: C_15  and  C_16
    8  A    between atoms: N_20  and  C_21
                            x       y       z     vdW  Elec       q    Type
                         _______ _______ _______ _____ _____    ______ ____

>  <TORSDO>
F 8

$$$$
=
 OpenBabel07192307433D

 51 53  0  0  1  0  0  0  0  0999 V2000
    2.4230    7.2330   19.2940 C   0  0  0  0  0  0  0  0  0  0  0  0
    1.7830    7.6890   20.4590 C   0  0  0  0  0  0  0  0  0  0  0  0
    1.0750    8.8910   20.4580 C   0  0  0  0  0  0  0  0  0  0  0  0
    1.0160    9.6650   19.2930 C   0  0  0  0  0  0  0  0  0  0  0  0
    1.6560    9.2290   18.1270 C   0  0  0  0  0  0  0  0  0  0  0  0
    2.3570    8.0180   18.1300 C   0  0  0  0  0  0  0  0  0  0  0  0
    1.8220    7.0950   21.3770 H   0  0  0  0  0  0  0  0  0  0  0  0
    0.5780    9.2160   21.3690 H   0  0  0  0  0  0  0  0  0  0  0  0
    1.5950    9.7950   17.2000 H   0  0  0  0  0  0  0  0  0  0  0  0
    2.8420    7.6840   17.2150 H   0  0  0  0  0  0  0  0  0  0  0  0
    0.2420   10.9290   19.3310 C   0  0  0  0  0  0  0  0  0  0  0  0
    0.7080   11.9780   18.8930 O   0  0  0  0  0  0  0  0  0  0  0  0
   -1.0280   10.8810   19.8850 N   0  0  0  0  0  0  0  0  0  0  0  0
   -1.4180    9.9530   20.0390 H   0  0  0  0  0  0  0  0  0  0  0  0
   -1.9790   11.9440   19.5770 C   0  0  0  0  0  0  0  0  0  0  0  0
   -1.3930   12.8500   19.3870 H   0  0  0  0  0  0  0  0  0  0  0  0
   -2.5770   12.1240   20.4810 H   0  0  0  0  0  0  0  0  0  0  0  0
   -2.9090   11.6730   18.3700 C   0  0  2  0  0  0  0  0  0  0  0  0
   -4.3850   11.9050   18.7190 C   0  0  0  0  0  0  0  0  0  0  0  0
   -5.1200   10.9650   17.7870 C   0  0  0  0  0  0  0  0  0  0  0  0
   -4.2760    9.7040   17.8140 C   0  0  0  0  0  0  0  0  0  0  0  0
   -2.8640   10.2210   17.8990 N   0  0  0  0  0  4  0  0  0  0  0  0
   -2.6150   12.2940   17.5080 H   0  0  0  0  0  0  0  0  0  0  0  0
   -4.6820   12.9530   18.5650 H   0  0  0  0  0  0  0  0  0  0  0  0
   -4.5990   11.6440   19.7680 H   0  0  0  0  0  0  0  0  0  0  0  0
   -5.1400   11.3810   16.7690 H   0  0  0  0  0  0  0  0  0  0  0  0
   -6.1510   10.7950   18.0990 H   0  0  0  0  0  0  0  0  0  0  0  0
   -4.4320    9.0920   18.7110 H   0  0  0  0  0  0  0  0  0  0  0  0
   -4.3950    9.0810   16.9130 H   0  0  0  0  0  0  0  0  0  0  0  0
   -2.3630    9.6710   18.6340 H   0  0  0  0  0  0  0  0  0  0  0  0
   -2.0780   10.0110   16.6400 C   0  0  0  0  0  0  0  0  0  0  0  0
   -1.0830   10.4340   16.7800 H   0  0  0  0  0  0  0  0  0  0  0  0
   -2.6010   10.5060   15.8180 H   0  0  0  0  0  0  0  0  0  0  0  0
   -2.0080    8.9350   16.4680 H   0  0  0  0  0  0  0  0  0  0  0  0
    3.1810    5.9220   19.2970 C   0  0  0  0  0  0  0  0  0  0  0  0
    3.6150    5.7030   18.3150 H   0  0  0  0  0  0  0  0  0  0  0  0
    4.0050    5.9670   20.0190 H   0  0  0  0  0  0  0  0  0  0  0  0
    1.5010    3.3070   20.9250 C   0  0  0  0  0  0  0  0  0  0  0  0
    0.9070    3.1250   19.6570 C   0  0  0  0  0  0  0  0  0  0  0  0
    1.4680    4.0890   18.8460 C   0  0  0  0  0  0  0  0  0  0  0  0
    2.3260    4.7940   19.6550 N   0  0  0  0  0  0  0  0  0  0  0  0
    2.3570    4.3310   20.9230 N   0  0  0  0  0  0  0  0  0  0  0  0
    0.1800    2.3790   19.3690 H   0  0  0  0  0  0  0  0  0  0  0  0
    1.2750    2.5280   22.1650 C   0  0  0  0  0  0  0  0  0  0  0  0
    1.3970    3.1640   23.0510 H   0  0  0  0  0  0  0  0  0  0  0  0
    0.2630    2.1230   22.1700 H   0  0  0  0  0  0  0  0  0  0  0  0
    1.9780    1.6950   22.2460 H   0  0  0  0  0  0  0  0  0  0  0  0
    1.2560    4.3790   17.4060 C   0  0  0  0  0  0  0  0  0  0  0  0
    1.9960    3.8540   16.7910 H   0  0  0  0  0  0  0  0  0  0  0  0
    0.2530    4.0740   17.0890 H   0  0  0  0  0  0  0  0  0  0  0  0
    1.3590    5.4510   17.2040 H   0  0  0  0  0  0  0  0  0  0  0  0
  1 35  1  0  0  0  0
  1  2  1  0  0  0  0
  2  7  1  0  0  0  0
  3  2  2  0  0  0  0
  3  8  1  0  0  0  0
  4 11  1  0  0  0  0
  4  3  1  0  0  0  0
  5  6  1  0  0  0  0
  5  4  2  0  0  0  0
  6  1  2  0  0  0  0
  9  5  1  0  0  0  0
 10  6  1  0  0  0  0
 11 13  1  0  0  0  0
 12 11  2  0  0  0  0
 13 14  1  0  0  0  0
 15 13  1  0  0  0  0
 15 17  1  0  0  0  0
 16 15  1  0  0  0  0
 18 23  1  6  0  0  0
 18 19  1  0  0  0  0
 18 15  1  0  0  0  0
 19 25  1  0  0  0  0
 20 21  1  0  0  0  0
 20 27  1  0  0  0  0
 20 19  1  0  0  0  0
 21 22  1  0  0  0  0
 21 28  1  0  0  0  0
 22 18  1  0  0  0  0
 22 30  1  0  0  0  0
 24 19  1  0  0  0  0
 26 20  1  0  0  0  0
 29 21  1  0  0  0  0
 31 32  1  0  0  0  0
 31 22  1  0  0  0  0
 33 31  1  0  0  0  0
 34 31  1  0  0  0  0
 35 41  1  0  0  0  0
 35 37  1  0  0  0  0
 36 35  1  0  0  0  0
 38 44  1  0  0  0  0
 39 38  1  0  0  0  0
 40 41  1  0  0  0  0
 40 39  2  0  0  0  0
 41 42  1  0  0  0  0
 42 38  2  0  0  0  0
 43 39  1  0  0  0  0
 44 46  1  0  0  0  0
 44 47  1  0  0  0  0
 44 45  1  0  0  0  0
 48 40  1  0  0  0  0
 49 48  1  0  0  0  0
 50 48  1  0  0  0  0
 51 48  1  0  0  0  0
M  END
>  <MODEL>
18

>  <REMARK>
 VINA RESULT:    -6.541      2.027      7.908
 INTER + INTRA:          -9.936
 INTER:                  -9.077
 INTRA:                  -0.859
 UNBOUND:                -0.910
  Name = 
  8 active torsions:
  status: ('A' for Active; 'I' for Inactive)
    1  A    between atoms: C_1  and  C_2
    2  A    between atoms: C_4  and  C_5
    3  A    between atoms: N_6  and  C_7
    4  A    between atoms: C_7  and  C_8
    5  A    between atoms: C_11  and  C_12
    6  A    between atoms: N_14  and  C_15
    7  A    between atoms: C_15  and  C_16
    8  A    between atoms: N_20  and  C_21
                            x       y       z     vdW  Elec       q    Type
                         _______ _______ _______ _____ _____    ______ ____

>  <TORSDO>
F 8

$$$$
=
 OpenBabel07192307433D

 51 53  0  0  1  0  0  0  0  0999 V2000
    1.0850    9.9670   18.8820 C   0  0  0  0  0  0  0  0  0  0  0  0
    0.9860    9.3590   20.1450 C   0  0  0  0  0  0  0  0  0  0  0  0
    1.5480    8.1030   20.3750 C   0  0  0  0  0  0  0  0  0  0  0  0
    2.2000    7.4290   19.3360 C   0  0  0  0  0  0  0  0  0  0  0  0
    2.3000    8.0180   18.0700 C   0  0  0  0  0  0  0  0  0  0  0  0
    1.7420    9.2820   17.8460 C   0  0  0  0  0  0  0  0  0  0  0  0
    0.4780    9.8730   20.9660 H   0  0  0  0  0  0  0  0  0  0  0  0
    1.4690    7.6580   21.3640 H   0  0  0  0  0  0  0  0  0  0  0  0
    2.8320    7.5300   17.2570 H   0  0  0  0  0  0  0  0  0  0  0  0
    1.8350    9.7340   16.8600 H   0  0  0  0  0  0  0  0  0  0  0  0
    2.7960    6.1030   19.6270 C   0  0  0  0  0  0  0  0  0  0  0  0
    3.9630    5.8490   19.3400 O   0  0  0  0  0  0  0  0  0  0  0  0
    1.9820    5.1590   20.2330 N   0  0  0  0  0  0  0  0  0  0  0  0
    1.1040    5.5020   20.6190 H   0  0  0  0  0  0  0  0  0  0  0  0
    2.5940    4.0240   20.9170 C   0  0  0  0  0  0  0  0  0  0  0  0
    2.0540    3.8930   21.8610 H   0  0  0  0  0  0  0  0  0  0  0  0
    3.6260    4.3060   21.1660 H   0  0  0  0  0  0  0  0  0  0  0  0
    2.5840    2.6910   20.1300 C   0  0  2  0  0  0  0  0  0  0  0  0
    3.9970    2.2490   19.7280 C   0  0  0  0  0  0  0  0  0  0  0  0
    3.7700    1.4510   18.4620 C   0  0  0  0  0  0  0  0  0  0  0  0
    2.7280    2.2590   17.7120 C   0  0  0  0  0  0  0  0  0  0  0  0
    1.8340    2.7900   18.8030 N   0  0  0  0  0  4  0  0  0  0  0  0
    2.0850    1.9010   20.7150 H   0  0  0  0  0  0  0  0  0  0  0  0
    4.4770    1.6490   20.5140 H   0  0  0  0  0  0  0  0  0  0  0  0
    4.6470    3.1150   19.5200 H   0  0  0  0  0  0  0  0  0  0  0  0
    3.3680    0.4570   18.7090 H   0  0  0  0  0  0  0  0  0  0  0  0
    4.6890    1.3080   17.8940 H   0  0  0  0  0  0  0  0  0  0  0  0
    3.1390    3.1370   17.2000 H   0  0  0  0  0  0  0  0  0  0  0  0
    2.1360    1.6560   17.0030 H   0  0  0  0  0  0  0  0  0  0  0  0
    1.6660    3.8050   18.6160 H   0  0  0  0  0  0  0  0  0  0  0  0
    0.4760    2.1570   18.8190 C   0  0  0  0  0  0  0  0  0  0  0  0
   -0.1170    2.6310   19.6030 H   0  0  0  0  0  0  0  0  0  0  0  0
    0.5930    1.0880   19.0110 H   0  0  0  0  0  0  0  0  0  0  0  0
    0.0160    2.3330   17.8430 H   0  0  0  0  0  0  0  0  0  0  0  0
    0.4820   11.3350   18.6400 C   0  0  0  0  0  0  0  0  0  0  0  0
    0.2470   11.4920   17.5800 H   0  0  0  0  0  0  0  0  0  0  0  0
   -0.4530   11.4390   19.2040 H   0  0  0  0  0  0  0  0  0  0  0  0
    3.0040   13.7650   18.8560 C   0  0  0  0  0  0  0  0  0  0  0  0
    2.4330   14.0010   20.1250 C   0  0  0  0  0  0  0  0  0  0  0  0
    1.3930   13.1020   20.2340 C   0  0  0  0  0  0  0  0  0  0  0  0
    1.3810   12.4110   19.0480 N   0  0  0  0  0  0  0  0  0  0  0  0
    2.3540   12.8020   18.1970 N   0  0  0  0  0  0  0  0  0  0  0  0
    2.7490   14.7210   20.8670 H   0  0  0  0  0  0  0  0  0  0  0  0
    4.1670   14.4390   18.2310 C   0  0  0  0  0  0  0  0  0  0  0  0
    4.7690   14.9570   18.9880 H   0  0  0  0  0  0  0  0  0  0  0  0
    4.7990   13.7040   17.7340 H   0  0  0  0  0  0  0  0  0  0  0  0
    3.8480   15.1760   17.4880 H   0  0  0  0  0  0  0  0  0  0  0  0
    0.4430   12.8600   21.3490 C   0  0  0  0  0  0  0  0  0  0  0  0
   -0.2040   12.0030   21.1280 H   0  0  0  0  0  0  0  0  0  0  0  0
    0.9780   12.6670   22.2840 H   0  0  0  0  0  0  0  0  0  0  0  0
   -0.2050   13.7310   21.5060 H   0  0  0  0  0  0  0  0  0  0  0  0
  1  2  1  0  0  0  0
  2  3  2  0  0  0  0
  2  7  1  0  0  0  0
  3  8  1  0  0  0  0
  4 11  1  0  0  0  0
  4  3  1  0  0  0  0
  5  4  2  0  0  0  0
  6  5  1  0  0  0  0
  6  1  2  0  0  0  0
  9  5  1  0  0  0  0
 10  6  1  0  0  0  0
 11 13  1  0  0  0  0
 12 11  2  0  0  0  0
 13 14  1  0  0  0  0
 13 15  1  0  0  0  0
 15 17  1  0  0  0  0
 15 16  1  0  0  0  0
 18 23  1  1  0  0  0
 18 15  1  0  0  0  0
 19 18  1  0  0  0  0
 19 24  1  0  0  0  0
 20 26  1  0  0  0  0
 20 19  1  0  0  0  0
 21 20  1  0  0  0  0
 21 22  1  0  0  0  0
 22 31  1  0  0  0  0
 22 18  1  0  0  0  0
 25 19  1  0  0  0  0
 27 20  1  0  0  0  0
 28 21  1  0  0  0  0
 29 21  1  0  0  0  0
 30 22  1  0  0  0  0
 31 33  1  0  0  0  0
 31 32  1  0  0  0  0
 34 31  1  0  0  0  0
 35  1  1  0  0  0  0
 35 41  1  0  0  0  0
 35 37  1  0  0  0  0
 36 35  1  0  0  0  0
 38 39  1  0  0  0  0
 39 40  2  0  0  0  0
 39 43  1  0  0  0  0
 40 48  1  0  0  0  0
 41 40  1  0  0  0  0
 42 38  2  0  0  0  0
 42 41  1  0  0  0  0
 44 38  1  0  0  0  0
 44 45  1  0  0  0  0
 46 44  1  0  0  0  0
 47 44  1  0  0  0  0
 48 51  1  0  0  0  0
 48 50  1  0  0  0  0
 49 48  1  0  0  0  0
M  END
>  <MODEL>
19

>  <REMARK>
 VINA RESULT:    -6.508      2.005      3.578
 INTER + INTRA:          -9.891
 INTER:                  -8.965
 INTRA:                  -0.926
 UNBOUND:                -0.910
  Name = 
  8 active torsions:
  status: ('A' for Active; 'I' for Inactive)
    1  A    between atoms: C_1  and  C_2
    2  A    between atoms: C_4  and  C_5
    3  A    between atoms: N_6  and  C_7
    4  A    between atoms: C_7  and  C_8
    5  A    between atoms: C_11  and  C_12
    6  A    between atoms: N_14  and  C_15
    7  A    between atoms: C_15  and  C_16
    8  A    between atoms: N_20  and  C_21
                            x       y       z     vdW  Elec       q    Type
                         _______ _______ _______ _____ _____    ______ ____

>  <TORSDO>
F 8

$$$$
=
 OpenBabel07192307433D

 51 53  0  0  1  0  0  0  0  0999 V2000
    0.6400    9.6200   19.7930 C   0  0  0  0  0  0  0  0  0  0  0  0
    1.0160    9.6880   18.4400 C   0  0  0  0  0  0  0  0  0  0  0  0
    1.8530    8.7180   17.8860 C   0  0  0  0  0  0  0  0  0  0  0  0
    2.3400    7.6770   18.6840 C   0  0  0  0  0  0  0  0  0  0  0  0
    1.9810    7.6010   20.0350 C   0  0  0  0  0  0  0  0  0  0  0  0
    1.1350    8.5710   20.5850 C   0  0  0  0  0  0  0  0  0  0  0  0
    0.6440   10.4970   17.8050 H   0  0  0  0  0  0  0  0  0  0  0  0
    2.1190    8.7850   16.8340 H   0  0  0  0  0  0  0  0  0  0  0  0
    2.3180    6.7830   20.6680 H   0  0  0  0  0  0  0  0  0  0  0  0
    0.8550    8.4960   21.6350 H   0  0  0  0  0  0  0  0  0  0  0  0
    3.2140    6.6600   18.0520 C   0  0  0  0  0  0  0  0  0  0  0  0
    2.9670    5.4600   18.1410 O   0  0  0  0  0  0  0  0  0  0  0  0
    4.3240    7.1170   17.3600 N   0  0  0  0  0  0  0  0  0  0  0  0
    4.3520    8.1160   17.1610 H   0  0  0  0  0  0  0  0  0  0  0  0
    4.9660    6.2410   16.3850 C   0  0  0  0  0  0  0  0  0  0  0  0
    4.8410    6.7120   15.4030 H   0  0  0  0  0  0  0  0  0  0  0  0
    4.4050    5.2980   16.3690 H   0  0  0  0  0  0  0  0  0  0  0  0
    6.4680    5.9620   16.6310 C   0  0  2  0  0  0  0  0  0  0  0  0
    6.7390    4.4770   16.9070 C   0  0  0  0  0  0  0  0  0  0  0  0
    7.9730    4.5010   17.7850 C   0  0  0  0  0  0  0  0  0  0  0  0
    7.7160    5.6590   18.7300 C   0  0  0  0  0  0  0  0  0  0  0  0
    7.0100    6.6740   17.8700 N   0  0  0  0  0  4  0  0  0  0  0  0
    7.0720    6.3110   15.7770 H   0  0  0  0  0  0  0  0  0  0  0  0
    6.9050    3.9120   15.9780 H   0  0  0  0  0  0  0  0  0  0  0  0
    5.9000    4.0060   17.4450 H   0  0  0  0  0  0  0  0  0  0  0  0
    8.8660    4.7050   17.1760 H   0  0  0  0  0  0  0  0  0  0  0  0
    8.1300    3.5540   18.3020 H   0  0  0  0  0  0  0  0  0  0  0  0
    7.0230    5.4140   19.5450 H   0  0  0  0  0  0  0  0  0  0  0  0
    8.6390    6.0960   19.1450 H   0  0  0  0  0  0  0  0  0  0  0  0
    6.1870    7.0340   18.4060 H   0  0  0  0  0  0  0  0  0  0  0  0
    7.8470    7.8790   17.5640 C   0  0  0  0  0  0  0  0  0  0  0  0
    8.8060    7.7710   18.0700 H   0  0  0  0  0  0  0  0  0  0  0  0
    7.3170    8.7670   17.9180 H   0  0  0  0  0  0  0  0  0  0  0  0
    7.9940    7.9160   16.4820 H   0  0  0  0  0  0  0  0  0  0  0  0
   -0.2760   10.6690   20.3880 C   0  0  0  0  0  0  0  0  0  0  0  0
   -1.3310   10.3810   20.3020 H   0  0  0  0  0  0  0  0  0  0  0  0
   -0.0560   10.7980   21.4540 H   0  0  0  0  0  0  0  0  0  0  0  0
    0.7350   13.8710   19.3700 C   0  0  0  0  0  0  0  0  0  0  0  0
   -0.3510   13.7450   18.4770 C   0  0  0  0  0  0  0  0  0  0  0  0
   -0.9040   12.5090   18.7400 C   0  0  0  0  0  0  0  0  0  0  0  0
   -0.1260   11.9650   19.7320 N   0  0  0  0  0  0  0  0  0  0  0  0
    0.8760   12.7800   20.1270 N   0  0  0  0  0  0  0  0  0  0  0  0
   -0.6950   14.4670   17.7490 H   0  0  0  0  0  0  0  0  0  0  0  0
    1.6660   15.0130   19.5300 C   0  0  0  0  0  0  0  0  0  0  0  0
    1.6070   15.6860   18.6650 H   0  0  0  0  0  0  0  0  0  0  0  0
    1.4080   15.5790   20.4240 H   0  0  0  0  0  0  0  0  0  0  0  0
    2.7000   14.6720   19.6250 H   0  0  0  0  0  0  0  0  0  0  0  0
   -2.0790   11.8320   18.1370 C   0  0  0  0  0  0  0  0  0  0  0  0
   -1.8400   11.4590   17.1340 H   0  0  0  0  0  0  0  0  0  0  0  0
   -2.4060   10.9910   18.7580 H   0  0  0  0  0  0  0  0  0  0  0  0
   -2.9220   12.5250   18.0400 H   0  0  0  0  0  0  0  0  0  0  0  0
  1 35  1  0  0  0  0
  1  6  1  0  0  0  0
  2  1  2  0  0  0  0
  3  2  1  0  0  0  0
  3  4  2  0  0  0  0
  4  5  1  0  0  0  0
  5  6  2  0  0  0  0
  5  9  1  0  0  0  0
  6 10  1  0  0  0  0
  7  2  1  0  0  0  0
  8  3  1  0  0  0  0
 11 12  2  0  0  0  0
 11  4  1  0  0  0  0
 13 11  1  0  0  0  0
 14 13  1  0  0  0  0
 15 18  1  0  0  0  0
 15 13  1  0  0  0  0
 16 15  1  0  0  0  0
 17 15  1  0  0  0  0
 18 23  1  6  0  0  0
 18 19  1  0  0  0  0
 18 22  1  0  0  0  0
 19 25  1  0  0  0  0
 19 20  1  0  0  0  0
 20 27  1  0  0  0  0
 20 21  1  0  0  0  0
 21 29  1  0  0  0  0
 21 28  1  0  0  0  0
 22 30  1  0  0  0  0
 22 21  1  0  0  0  0
 24 19  1  0  0  0  0
 26 20  1  0  0  0  0
 31 22  1  0  0  0  0
 31 33  1  0  0  0  0
 31 32  1  0  0  0  0
 34 31  1  0  0  0  0
 35 37  1  0  0  0  0
 36 35  1  0  0  0  0
 38 44  1  0  0  0  0
 38 42  2  0  0  0  0
 39 40  2  0  0  0  0
 39 38  1  0  0  0  0
 40 41  1  0  0  0  0
 41 42  1  0  0  0  0
 41 35  1  0  0  0  0
 43 39  1  0  0  0  0
 44 47  1  0  0  0  0
 44 46  1  0  0  0  0
 45 44  1  0  0  0  0
 48 40  1  0  0  0  0
 48 50  1  0  0  0  0
 49 48  1  0  0  0  0
 51 48  1  0  0  0  0
M  END
>  <MODEL>
20

>  <REMARK>
 VINA RESULT:    -6.493      2.742      4.110
 INTER + INTRA:          -9.870
 INTER:                  -9.122
 INTRA:                  -0.747
 UNBOUND:                -0.910
  Name = 
  8 active torsions:
  status: ('A' for Active; 'I' for Inactive)
    1  A    between atoms: C_1  and  C_2
    2  A    between atoms: C_4  and  C_5
    3  A    between atoms: N_6  and  C_7
    4  A    between atoms: C_7  and  C_8
    5  A    between atoms: C_11  and  C_12
    6  A    between atoms: N_14  and  C_15
    7  A    between atoms: C_15  and  C_16
    8  A    between atoms: N_20  and  C_21
                            x       y       z     vdW  Elec       q    Type
                         _______ _______ _______ _____ _____    ______ ____

>  <TORSDO>
F 8

$$$$
=
 OpenBabel07192307433D

 51 53  0  0  1  0  0  0  0  0999 V2000
    1.0050   10.1450   18.8620 C   0  0  0  0  0  0  0  0  0  0  0  0
    1.6890    9.4090   17.8790 C   0  0  0  0  0  0  0  0  0  0  0  0
    2.1710    8.1290   18.1560 C   0  0  0  0  0  0  0  0  0  0  0  0
    1.9910    7.5760   19.4280 C   0  0  0  0  0  0  0  0  0  0  0  0
    1.3200    8.3000   20.4210 C   0  0  0  0  0  0  0  0  0  0  0  0
    0.8310    9.5800   20.1370 C   0  0  0  0  0  0  0  0  0  0  0  0
    1.8370    9.8300   16.8800 H   0  0  0  0  0  0  0  0  0  0  0  0
    2.6850    7.5750   17.3750 H   0  0  0  0  0  0  0  0  0  0  0  0
    1.1370    7.8770   21.4070 H   0  0  0  0  0  0  0  0  0  0  0  0
    0.3020   10.1290   20.9130 H   0  0  0  0  0  0  0  0  0  0  0  0
    2.5060    6.2070   19.6760 C   0  0  0  0  0  0  0  0  0  0  0  0
    1.7450    5.2660   19.8840 O   0  0  0  0  0  0  0  0  0  0  0  0
    3.8810    6.0340   19.6670 N   0  0  0  0  0  0  0  0  0  0  0  0
    4.4310    6.8050   19.2930 H   0  0  0  0  0  0  0  0  0  0  0  0
    4.4280    4.6940   19.4790 C   0  0  0  0  0  0  0  0  0  0  0  0
    3.6370    4.0880   19.0220 H   0  0  0  0  0  0  0  0  0  0  0  0
    4.6270    4.2760   20.4740 H   0  0  0  0  0  0  0  0  0  0  0  0
    5.7030    4.6140   18.6050 C   0  0  2  0  0  0  0  0  0  0  0  0
    6.8070    5.5500   19.1130 C   0  0  0  0  0  0  0  0  0  0  0  0
    7.5880    5.8870   17.8590 C   0  0  0  0  0  0  0  0  0  0  0  0
    6.5090    6.0950   16.8130 C   0  0  0  0  0  0  0  0  0  0  0  0
    5.4660    5.0670   17.1650 N   0  0  0  0  0  4  0  0  0  0  0  0
    6.0720    3.5760   18.5520 H   0  0  0  0  0  0  0  0  0  0  0  0
    7.4370    5.0650   19.8730 H   0  0  0  0  0  0  0  0  0  0  0  0
    6.3880    6.4670   19.5570 H   0  0  0  0  0  0  0  0  0  0  0  0
    8.2290    5.0410   17.5740 H   0  0  0  0  0  0  0  0  0  0  0  0
    8.2260    6.7600   17.9930 H   0  0  0  0  0  0  0  0  0  0  0  0
    6.0130    7.0700   16.8820 H   0  0  0  0  0  0  0  0  0  0  0  0
    6.8650    5.9300   15.7820 H   0  0  0  0  0  0  0  0  0  0  0  0
    4.5310    5.5340   17.1360 H   0  0  0  0  0  0  0  0  0  0  0  0
    5.3810    3.9430   16.1770 C   0  0  0  0  0  0  0  0  0  0  0  0
    4.7570    4.2620   15.3430 H   0  0  0  0  0  0  0  0  0  0  0  0
    4.9490    3.0730   16.6780 H   0  0  0  0  0  0  0  0  0  0  0  0
    6.3950    3.7300   15.8280 H   0  0  0  0  0  0  0  0  0  0  0  0
    0.4750   11.5300   18.5540 C   0  0  0  0  0  0  0  0  0  0  0  0
    0.9760   12.2970   19.1560 H   0  0  0  0  0  0  0  0  0  0  0  0
    0.6490   11.7720   17.4990 H   0  0  0  0  0  0  0  0  0  0  0  0
   -2.7040   12.3240   19.8090 C   0  0  0  0  0  0  0  0  0  0  0  0
   -3.1370   11.4310   18.8040 C   0  0  0  0  0  0  0  0  0  0  0  0
   -1.9880   10.9890   18.1840 C   0  0  0  0  0  0  0  0  0  0  0  0
   -0.9570   11.6400   18.8160 N   0  0  0  0  0  0  0  0  0  0  0  0
   -1.3750   12.4570   19.8060 N   0  0  0  0  0  0  0  0  0  0  0  0
   -4.1520   11.1380   18.5750 H   0  0  0  0  0  0  0  0  0  0  0  0
   -3.5250   13.0740   20.7870 C   0  0  0  0  0  0  0  0  0  0  0  0
   -4.0420   12.3870   21.4690 H   0  0  0  0  0  0  0  0  0  0  0  0
   -2.8890   13.7310   21.3800 H   0  0  0  0  0  0  0  0  0  0  0  0
   -4.2790   13.6870   20.2870 H   0  0  0  0  0  0  0  0  0  0  0  0
   -1.8040   10.0220   17.0720 C   0  0  0  0  0  0  0  0  0  0  0  0
   -0.8620    9.4750   17.1860 H   0  0  0  0  0  0  0  0  0  0  0  0
   -2.6290    9.3030   17.0400 H   0  0  0  0  0  0  0  0  0  0  0  0
   -1.7720   10.5390   16.1070 H   0  0  0  0  0  0  0  0  0  0  0  0
  1  6  1  0  0  0  0
  2  3  1  0  0  0  0
  2  1  2  0  0  0  0
  3  4  2  0  0  0  0
  4 11  1  0  0  0  0
  4  5  1  0  0  0  0
  5  9  1  0  0  0  0
  6  5  2  0  0  0  0
  6 10  1  0  0  0  0
  7  2  1  0  0  0  0
  8  3  1  0  0  0  0
 11 12  2  0  0  0  0
 13 11  1  0  0  0  0
 14 13  1  0  0  0  0
 15 13  1  0  0  0  0
 15 17  1  0  0  0  0
 16 15  1  0  0  0  0
 18 23  1  6  0  0  0
 18 19  1  0  0  0  0
 18 15  1  0  0  0  0
 19 25  1  0  0  0  0
 19 24  1  0  0  0  0
 20 27  1  0  0  0  0
 20 19  1  0  0  0  0
 21 28  1  0  0  0  0
 21 22  1  0  0  0  0
 21 20  1  0  0  0  0
 22 18  1  0  0  0  0
 26 20  1  0  0  0  0
 29 21  1  0  0  0  0
 30 22  1  0  0  0  0
 31 33  1  0  0  0  0
 31 22  1  0  0  0  0
 32 31  1  0  0  0  0
 34 31  1  0  0  0  0
 35 41  1  0  0  0  0
 35  1  1  0  0  0  0
 35 36  1  0  0  0  0
 37 35  1  0  0  0  0
 38 44  1  0  0  0  0
 39 38  1  0  0  0  0
 40 39  2  0  0  0  0
 40 41  1  0  0  0  0
 41 42  1  0  0  0  0
 42 38  2  0  0  0  0
 43 39  1  0  0  0  0
 44 46  1  0  0  0  0
 44 45  1  0  0  0  0
 47 44  1  0  0  0  0
 48 49  1  0  0  0  0
 48 40  1  0  0  0  0
 50 48  1  0  0  0  0
 51 48  1  0  0  0  0
M  END
>  <MODEL>
21

>  <REMARK>
 VINA RESULT:    -6.476      2.317      3.492
 INTER + INTRA:          -9.846
 INTER:                  -9.145
 INTRA:                  -0.702
 UNBOUND:                -0.910
  Name = 
  8 active torsions:
  status: ('A' for Active; 'I' for Inactive)
    1  A    between atoms: C_1  and  C_2
    2  A    between atoms: C_4  and  C_5
    3  A    between atoms: N_6  and  C_7
    4  A    between atoms: C_7  and  C_8
    5  A    between atoms: C_11  and  C_12
    6  A    between atoms: N_14  and  C_15
    7  A    between atoms: C_15  and  C_16
    8  A    between atoms: N_20  and  C_21
                            x       y       z     vdW  Elec       q    Type
                         _______ _______ _______ _____ _____    ______ ____

>  <TORSDO>
F 8

$$$$
=
 OpenBabel07192307433D

 51 53  0  0  1  0  0  0  0  0999 V2000
    1.1770    8.9820   20.1310 C   0  0  0  0  0  0  0  0  0  0  0  0
    1.3600    7.8430   20.9340 C   0  0  0  0  0  0  0  0  0  0  0  0
    2.0020    6.7120   20.4270 C   0  0  0  0  0  0  0  0  0  0  0  0
    2.4510    6.7000   19.1020 C   0  0  0  0  0  0  0  0  0  0  0  0
    2.2680    7.8240   18.2870 C   0  0  0  0  0  0  0  0  0  0  0  0
    1.6320    8.9590   18.8020 C   0  0  0  0  0  0  0  0  0  0  0  0
    1.0130    7.8390   21.9710 H   0  0  0  0  0  0  0  0  0  0  0  0
    2.1440    5.8480   21.0710 H   0  0  0  0  0  0  0  0  0  0  0  0
    2.6400    7.8510   17.2650 H   0  0  0  0  0  0  0  0  0  0  0  0
    1.5040    9.8300   18.1620 H   0  0  0  0  0  0  0  0  0  0  0  0
    3.1410    5.4840   18.6080 C   0  0  0  0  0  0  0  0  0  0  0  0
    2.6970    4.8360   17.6630 O   0  0  0  0  0  0  0  0  0  0  0  0
    4.3050    5.1040   19.2580 N   0  0  0  0  0  0  0  0  0  0  0  0
    4.7130    5.7910   19.8890 H   0  0  0  0  0  0  0  0  0  0  0  0
    5.2360    4.2050   18.5830 C   0  0  0  0  0  0  0  0  0  0  0  0
    4.7160    3.8110   17.7030 H   0  0  0  0  0  0  0  0  0  0  0  0
    5.4250    3.3590   19.2570 H   0  0  0  0  0  0  0  0  0  0  0  0
    6.5750    4.8440   18.1440 C   0  0  2  0  0  0  0  0  0  0  0  0
    7.1870    5.7140   19.2500 C   0  0  0  0  0  0  0  0  0  0  0  0
    7.9810    6.7510   18.4840 C   0  0  0  0  0  0  0  0  0  0  0  0
    7.0740    7.1100   17.3230 C   0  0  0  0  0  0  0  0  0  0  0  0
    6.4180    5.8020   16.9640 N   0  0  0  0  0  4  0  0  0  0  0  0
    7.2890    4.0670   17.8260 H   0  0  0  0  0  0  0  0  0  0  0  0
    7.8230    5.1260   19.9280 H   0  0  0  0  0  0  0  0  0  0  0  0
    6.4080    6.2040   19.8560 H   0  0  0  0  0  0  0  0  0  0  0  0
    8.9160    6.3100   18.1070 H   0  0  0  0  0  0  0  0  0  0  0  0
    8.2430    7.6100   19.1020 H   0  0  0  0  0  0  0  0  0  0  0  0
    6.2610    7.7930   17.5960 H   0  0  0  0  0  0  0  0  0  0  0  0
    7.6180    7.5080   16.4510 H   0  0  0  0  0  0  0  0  0  0  0  0
    5.3950    5.9770   16.8400 H   0  0  0  0  0  0  0  0  0  0  0  0
    6.8870    5.2410   15.6550 C   0  0  0  0  0  0  0  0  0  0  0  0
    6.0160    5.0450   15.0310 H   0  0  0  0  0  0  0  0  0  0  0  0
    7.4420    4.3200   15.8510 H   0  0  0  0  0  0  0  0  0  0  0  0
    7.5270    5.9910   15.1830 H   0  0  0  0  0  0  0  0  0  0  0  0
    0.4880   10.2110   20.6890 C   0  0  0  0  0  0  0  0  0  0  0  0
   -0.5550   10.0040   20.9550 H   0  0  0  0  0  0  0  0  0  0  0  0
    1.0000   10.5470   21.5990 H   0  0  0  0  0  0  0  0  0  0  0  0
    1.2070   13.0770   18.7970 C   0  0  0  0  0  0  0  0  0  0  0  0
   -0.0130   12.7580   18.1620 C   0  0  0  0  0  0  0  0  0  0  0  0
   -0.4720   11.6230   18.7970 C   0  0  0  0  0  0  0  0  0  0  0  0
    0.4820   11.3170   19.7360 N   0  0  0  0  0  0  0  0  0  0  0  0
    1.5120   12.1910   19.7490 N   0  0  0  0  0  0  0  0  0  0  0  0
   -0.4990   13.2930   17.3590 H   0  0  0  0  0  0  0  0  0  0  0  0
    2.1160   14.2150   18.5220 C   0  0  0  0  0  0  0  0  0  0  0  0
    3.0260   14.1410   19.1300 H   0  0  0  0  0  0  0  0  0  0  0  0
    2.4040   14.2140   17.4710 H   0  0  0  0  0  0  0  0  0  0  0  0
    1.6350   15.1710   18.7450 H   0  0  0  0  0  0  0  0  0  0  0  0
   -1.7120   10.8350   18.5840 C   0  0  0  0  0  0  0  0  0  0  0  0
   -1.5110    9.7620   18.6740 H   0  0  0  0  0  0  0  0  0  0  0  0
   -2.4810   11.1130   19.3120 H   0  0  0  0  0  0  0  0  0  0  0  0
   -2.1200   11.0120   17.5820 H   0  0  0  0  0  0  0  0  0  0  0  0
  1 35  1  0  0  0  0
  1  2  1  0  0  0  0
  2  7  1  0  0  0  0
  3  2  2  0  0  0  0
  3  8  1  0  0  0  0
  4  3  1  0  0  0  0
  5  6  1  0  0  0  0
  5  4  2  0  0  0  0
  6  1  2  0  0  0  0
  9  5  1  0  0  0  0
 10  6  1  0  0  0  0
 11  4  1  0  0  0  0
 11 13  1  0  0  0  0
 12 11  2  0  0  0  0
 13 14  1  0  0  0  0
 15 17  1  0  0  0  0
 15 13  1  0  0  0  0
 16 15  1  0  0  0  0
 18 23  1  6  0  0  0
 18 15  1  0  0  0  0
 18 19  1  0  0  0  0
 19 25  1  0  0  0  0
 19 24  1  0  0  0  0
 20 27  1  0  0  0  0
 20 19  1  0  0  0  0
 21 28  1  0  0  0  0
 21 20  1  0  0  0  0
 22 21  1  0  0  0  0
 22 18  1  0  0  0  0
 26 20  1  0  0  0  0
 29 21  1  0  0  0  0
 30 22  1  0  0  0  0
 31 33  1  0  0  0  0
 31 22  1  0  0  0  0
 32 31  1  0  0  0  0
 34 31  1  0  0  0  0
 35 36  1  0  0  0  0
 35 37  1  0  0  0  0
 38 42  2  0  0  0  0
 39 40  2  0  0  0  0
 39 38  1  0  0  0  0
 40 41  1  0  0  0  0
 41 42  1  0  0  0  0
 41 35  1  0  0  0  0
 43 39  1  0  0  0  0
 44 47  1  0  0  0  0
 44 38  1  0  0  0  0
 44 45  1  0  0  0  0
 46 44  1  0  0  0  0
 48 49  1  0  0  0  0
 48 40  1  0  0  0  0
 48 50  1  0  0  0  0
 51 48  1  0  0  0  0
M  END
>  <MODEL>
22

>  <REMARK>
 VINA RESULT:    -6.469      2.543      4.115
 INTER + INTRA:          -9.837
 INTER:                  -9.145
 INTRA:                  -0.692
 UNBOUND:                -0.910
  Name = 
  8 active torsions:
  status: ('A' for Active; 'I' for Inactive)
    1  A    between atoms: C_1  and  C_2
    2  A    between atoms: C_4  and  C_5
    3  A    between atoms: N_6  and  C_7
    4  A    between atoms: C_7  and  C_8
    5  A    between atoms: C_11  and  C_12
    6  A    between atoms: N_14  and  C_15
    7  A    between atoms: C_15  and  C_16
    8  A    between atoms: N_20  and  C_21
                            x       y       z     vdW  Elec       q    Type
                         _______ _______ _______ _____ _____    ______ ____

>  <TORSDO>
F 8

$$$$
=
 OpenBabel07192307433D

 51 53  0  0  1  0  0  0  0  0999 V2000
    2.9080    5.6800   18.6610 C   0  0  0  0  0  0  0  0  0  0  0  0
    2.8120    7.0190   18.2450 C   0  0  0  0  0  0  0  0  0  0  0  0
    2.2020    7.9740   19.0580 C   0  0  0  0  0  0  0  0  0  0  0  0
    1.6610    7.5960   20.2930 C   0  0  0  0  0  0  0  0  0  0  0  0
    1.7420    6.2650   20.7170 C   0  0  0  0  0  0  0  0  0  0  0  0
    2.3620    5.3120   19.9020 C   0  0  0  0  0  0  0  0  0  0  0  0
    3.2290    7.3280   17.2820 H   0  0  0  0  0  0  0  0  0  0  0  0
    2.1510    9.0060   18.7200 H   0  0  0  0  0  0  0  0  0  0  0  0
    1.3600    5.9540   21.6880 H   0  0  0  0  0  0  0  0  0  0  0  0
    2.4270    4.2810   20.2470 H   0  0  0  0  0  0  0  0  0  0  0  0
    1.0350    8.6450   21.1330 C   0  0  0  0  0  0  0  0  0  0  0  0
    1.4370    8.8800   22.2700 O   0  0  0  0  0  0  0  0  0  0  0  0
   -0.0270    9.3480   20.5860 N   0  0  0  0  0  0  0  0  0  0  0  0
   -0.1710    9.2400   19.5830 H   0  0  0  0  0  0  0  0  0  0  0  0
   -0.4010   10.6360   21.1620 C   0  0  0  0  0  0  0  0  0  0  0  0
    0.1100   10.7120   22.1280 H   0  0  0  0  0  0  0  0  0  0  0  0
   -1.4800   10.6080   21.3630 H   0  0  0  0  0  0  0  0  0  0  0  0
   -0.0530   11.8740   20.3000 C   0  0  2  0  0  0  0  0  0  0  0  0
    0.5440   11.4800   18.9430 C   0  0  0  0  0  0  0  0  0  0  0  0
    1.4350   12.6550   18.5950 C   0  0  0  0  0  0  0  0  0  0  0  0
    2.1000   13.0010   19.9130 C   0  0  0  0  0  0  0  0  0  0  0  0
    1.0190   12.7580   20.9340 N   0  0  0  0  0  4  0  0  0  0  0  0
   -0.9430   12.5100   20.1590 H   0  0  0  0  0  0  0  0  0  0  0  0
   -0.2360   11.3150   18.1850 H   0  0  0  0  0  0  0  0  0  0  0  0
    1.1440   10.5580   19.0170 H   0  0  0  0  0  0  0  0  0  0  0  0
    0.8240   13.5020   18.2490 H   0  0  0  0  0  0  0  0  0  0  0  0
    2.1480   12.4130   17.8070 H   0  0  0  0  0  0  0  0  0  0  0  0
    2.9260   12.3290   20.1770 H   0  0  0  0  0  0  0  0  0  0  0  0
    2.4400   14.0480   19.9690 H   0  0  0  0  0  0  0  0  0  0  0  0
    1.4390   12.2180   21.7260 H   0  0  0  0  0  0  0  0  0  0  0  0
    0.4880   14.0180   21.5490 C   0  0  0  0  0  0  0  0  0  0  0  0
    0.9160   14.1230   22.5460 H   0  0  0  0  0  0  0  0  0  0  0  0
   -0.6010   13.9470   21.5970 H   0  0  0  0  0  0  0  0  0  0  0  0
    0.7990   14.8520   20.9160 H   0  0  0  0  0  0  0  0  0  0  0  0
    3.5810    4.6490   17.7780 C   0  0  0  0  0  0  0  0  0  0  0  0
    3.4090    3.6300   18.1450 H   0  0  0  0  0  0  0  0  0  0  0  0
    3.1770    4.7060   16.7600 H   0  0  0  0  0  0  0  0  0  0  0  0
    6.9600    5.3220   18.4370 C   0  0  0  0  0  0  0  0  0  0  0  0
    7.1110    5.0280   17.0640 C   0  0  0  0  0  0  0  0  0  0  0  0
    5.8430    4.7380   16.6080 C   0  0  0  0  0  0  0  0  0  0  0  0
    5.0250    4.8460   17.7060 N   0  0  0  0  0  0  0  0  0  0  0  0
    5.6890    5.2000   18.8280 N   0  0  0  0  0  0  0  0  0  0  0  0
    8.0220    5.0420   16.4820 H   0  0  0  0  0  0  0  0  0  0  0  0
    8.0030    5.7190   19.4120 C   0  0  0  0  0  0  0  0  0  0  0  0
    7.6030    5.7110   20.4340 H   0  0  0  0  0  0  0  0  0  0  0  0
    8.8390    5.0210   19.3660 H   0  0  0  0  0  0  0  0  0  0  0  0
    8.3820    6.7230   19.2030 H   0  0  0  0  0  0  0  0  0  0  0  0
    5.3670    4.3770   15.2490 C   0  0  0  0  0  0  0  0  0  0  0  0
    5.0370    5.2690   14.7040 H   0  0  0  0  0  0  0  0  0  0  0  0
    6.1600    3.8860   14.6750 H   0  0  0  0  0  0  0  0  0  0  0  0
    4.5160    3.6890   15.3020 H   0  0  0  0  0  0  0  0  0  0  0  0
  1  6  1  0  0  0  0
  2  1  2  0  0  0  0
  2  3  1  0  0  0  0
  3  4  2  0  0  0  0
  4  5  1  0  0  0  0
  4 11  1  0  0  0  0
  5  9  1  0  0  0  0
  6 10  1  0  0  0  0
  6  5  2  0  0  0  0
  7  2  1  0  0  0  0
  8  3  1  0  0  0  0
 11 12  2  0  0  0  0
 13 11  1  0  0  0  0
 13 15  1  0  0  0  0
 14 13  1  0  0  0  0
 15 17  1  0  0  0  0
 15 16  1  0  0  0  0
 18 23  1  6  0  0  0
 18 22  1  0  0  0  0
 18 15  1  0  0  0  0
 19 25  1  0  0  0  0
 19 18  1  0  0  0  0
 20 19  1  0  0  0  0
 20 21  1  0  0  0  0
 21 29  1  0  0  0  0
 21 28  1  0  0  0  0
 21 22  1  0  0  0  0
 22 31  1  0  0  0  0
 22 30  1  0  0  0  0
 24 19  1  0  0  0  0
 26 20  1  0  0  0  0
 27 20  1  0  0  0  0
 31 33  1  0  0  0  0
 31 32  1  0  0  0  0
 34 31  1  0  0  0  0
 35 36  1  0  0  0  0
 35  1  1  0  0  0  0
 37 35  1  0  0  0  0
 38 42  2  0  0  0  0
 38 44  1  0  0  0  0
 39 38  1  0  0  0  0
 40 39  2  0  0  0  0
 40 41  1  0  0  0  0
 41 35  1  0  0  0  0
 41 42  1  0  0  0  0
 43 39  1  0  0  0  0
 44 45  1  0  0  0  0
 46 44  1  0  0  0  0
 47 44  1  0  0  0  0
 48 51  1  0  0  0  0
 48 40  1  0  0  0  0
 49 48  1  0  0  0  0
 50 48  1  0  0  0  0
M  END
>  <MODEL>
23

>  <REMARK>
 VINA RESULT:    -6.447      2.807      8.328
 INTER + INTRA:          -9.806
 INTER:                  -9.031
 INTRA:                  -0.775
 UNBOUND:                -0.910
  Name = 
  8 active torsions:
  status: ('A' for Active; 'I' for Inactive)
    1  A    between atoms: C_1  and  C_2
    2  A    between atoms: C_4  and  C_5
    3  A    between atoms: N_6  and  C_7
    4  A    between atoms: C_7  and  C_8
    5  A    between atoms: C_11  and  C_12
    6  A    between atoms: N_14  and  C_15
    7  A    between atoms: C_15  and  C_16
    8  A    between atoms: N_20  and  C_21
                            x       y       z     vdW  Elec       q    Type
                         _______ _______ _______ _____ _____    ______ ____

>  <TORSDO>
F 8

$$$$
=
 OpenBabel07192307433D

 51 53  0  0  1  0  0  0  0  0999 V2000
    2.4050    7.2390   19.4140 C   0  0  0  0  0  0  0  0  0  0  0  0
    1.6630    7.9220   20.3930 C   0  0  0  0  0  0  0  0  0  0  0  0
    0.8970    9.0380   20.0560 C   0  0  0  0  0  0  0  0  0  0  0  0
    0.8800    9.4980   18.7340 C   0  0  0  0  0  0  0  0  0  0  0  0
    1.6200    8.8340   17.7490 C   0  0  0  0  0  0  0  0  0  0  0  0
    2.3810    7.7100   18.0910 C   0  0  0  0  0  0  0  0  0  0  0  0
    1.6690    7.5730   21.4310 H   0  0  0  0  0  0  0  0  0  0  0  0
    0.3210    9.5410   20.8280 H   0  0  0  0  0  0  0  0  0  0  0  0
    1.5950    9.1510   16.7090 H   0  0  0  0  0  0  0  0  0  0  0  0
    2.9450    7.1960   17.3140 H   0  0  0  0  0  0  0  0  0  0  0  0
    0.0410   10.6780   18.4150 C   0  0  0  0  0  0  0  0  0  0  0  0
   -1.1290   10.5540   18.0580 O   0  0  0  0  0  0  0  0  0  0  0  0
    0.6300   11.9270   18.5310 N   0  0  0  0  0  0  0  0  0  0  0  0
    1.5240   11.9610   19.0180 H   0  0  0  0  0  0  0  0  0  0  0  0
   -0.2210   13.1070   18.6490 C   0  0  0  0  0  0  0  0  0  0  0  0
   -1.0430   12.9790   17.9360 H   0  0  0  0  0  0  0  0  0  0  0  0
    0.3670   13.9730   18.3170 H   0  0  0  0  0  0  0  0  0  0  0  0
   -0.8010   13.3690   20.0590 C   0  0  2  0  0  0  0  0  0  0  0  0
    0.2600   13.2080   21.1560 C   0  0  0  0  0  0  0  0  0  0  0  0
   -0.5450   12.7820   22.3660 C   0  0  0  0  0  0  0  0  0  0  0  0
   -1.5480   11.7960   21.7980 C   0  0  0  0  0  0  0  0  0  0  0  0
   -1.8900   12.3710   20.4490 N   0  0  0  0  0  4  0  0  0  0  0  0
   -1.2590   14.3700   20.1100 H   0  0  0  0  0  0  0  0  0  0  0  0
    0.8090   14.1440   21.3350 H   0  0  0  0  0  0  0  0  0  0  0  0
    0.9950   12.4290   20.8970 H   0  0  0  0  0  0  0  0  0  0  0  0
   -1.0710   13.6480   22.7940 H   0  0  0  0  0  0  0  0  0  0  0  0
    0.0810   12.3520   23.1480 H   0  0  0  0  0  0  0  0  0  0  0  0
   -1.1260   10.8020   21.6090 H   0  0  0  0  0  0  0  0  0  0  0  0
   -2.4610   11.7030   22.4090 H   0  0  0  0  0  0  0  0  0  0  0  0
   -1.8620   11.5920   19.7510 H   0  0  0  0  0  0  0  0  0  0  0  0
   -3.2810   12.9240   20.3730 C   0  0  0  0  0  0  0  0  0  0  0  0
   -3.8820   12.4550   21.1520 H   0  0  0  0  0  0  0  0  0  0  0  0
   -3.6870   12.7060   19.3830 H   0  0  0  0  0  0  0  0  0  0  0  0
   -3.2190   14.0020   20.5430 H   0  0  0  0  0  0  0  0  0  0  0  0
    3.2280    6.0220   19.7840 C   0  0  0  0  0  0  0  0  0  0  0  0
    4.2270    6.3020   20.1390 H   0  0  0  0  0  0  0  0  0  0  0  0
    2.7340    5.4670   20.5910 H   0  0  0  0  0  0  0  0  0  0  0  0
    4.3710    4.3150   16.9400 C   0  0  0  0  0  0  0  0  0  0  0  0
    3.1880    3.5660   17.1220 C   0  0  0  0  0  0  0  0  0  0  0  0
    2.5730    4.1130   18.2280 C   0  0  0  0  0  0  0  0  0  0  0  0
    3.4080    5.1170   18.6530 N   0  0  0  0  0  0  0  0  0  0  0  0
    4.5080    5.2530   17.8810 N   0  0  0  0  0  0  0  0  0  0  0  0
    2.8260    2.7470   16.5170 H   0  0  0  0  0  0  0  0  0  0  0  0
    5.4010    4.1650   15.8850 C   0  0  0  0  0  0  0  0  0  0  0  0
    5.7340    5.1460   15.5240 H   0  0  0  0  0  0  0  0  0  0  0  0
    6.2660    3.6340   16.2830 H   0  0  0  0  0  0  0  0  0  0  0  0
    5.0160    3.6010   15.0310 H   0  0  0  0  0  0  0  0  0  0  0  0
    1.2890    3.7640   18.8870 C   0  0  0  0  0  0  0  0  0  0  0  0
    0.7870    4.6630   19.2610 H   0  0  0  0  0  0  0  0  0  0  0  0
    0.6200    3.2490   18.1900 H   0  0  0  0  0  0  0  0  0  0  0  0
    1.4580    3.1000   19.7430 H   0  0  0  0  0  0  0  0  0  0  0  0
  1 35  1  0  0  0  0
  1  2  1  0  0  0  0
  2  7  1  0  0  0  0
  3  2  2  0  0  0  0
  3  8  1  0  0  0  0
  4  3  1  0  0  0  0
  5  6  1  0  0  0  0
  5  4  2  0  0  0  0
  6  1  2  0  0  0  0
  9  5  1  0  0  0  0
 10  6  1  0  0  0  0
 11 13  1  0  0  0  0
 11  4  1  0  0  0  0
 12 11  2  0  0  0  0
 13 15  1  0  0  0  0
 13 14  1  0  0  0  0
 15 18  1  0  0  0  0
 16 15  1  0  0  0  0
 17 15  1  0  0  0  0
 18 23  1  1  0  0  0
 18 22  1  0  0  0  0
 18 19  1  0  0  0  0
 19 24  1  0  0  0  0
 19 20  1  0  0  0  0
 20 26  1  0  0  0  0
 20 27  1  0  0  0  0
 21 20  1  0  0  0  0
 21 29  1  0  0  0  0
 22 21  1  0  0  0  0
 25 19  1  0  0  0  0
 28 21  1  0  0  0  0
 30 22  1  0  0  0  0
 31 22  1  0  0  0  0
 31 34  1  0  0  0  0
 31 32  1  0  0  0  0
 33 31  1  0  0  0  0
 35 36  1  0  0  0  0
 35 37  1  0  0  0  0
 38 39  1  0  0  0  0
 38 42  2  0  0  0  0
 39 40  2  0  0  0  0
 40 41  1  0  0  0  0
 40 48  1  0  0  0  0
 41 35  1  0  0  0  0
 42 41  1  0  0  0  0
 43 39  1  0  0  0  0
 44 46  1  0  0  0  0
 44 38  1  0  0  0  0
 45 44  1  0  0  0  0
 47 44  1  0  0  0  0
 48 49  1  0  0  0  0
 48 51  1  0  0  0  0
 50 48  1  0  0  0  0
M  END
>  <MODEL>
24

>  <REMARK>
 VINA RESULT:    -6.409      2.424      8.250
 INTER + INTRA:          -9.754
 INTER:                  -8.799
 INTRA:                  -0.954
 UNBOUND:                -0.910
  Name = 
  8 active torsions:
  status: ('A' for Active; 'I' for Inactive)
    1  A    between atoms: C_1  and  C_2
    2  A    between atoms: C_4  and  C_5
    3  A    between atoms: N_6  and  C_7
    4  A    between atoms: C_7  and  C_8
    5  A    between atoms: C_11  and  C_12
    6  A    between atoms: N_14  and  C_15
    7  A    between atoms: C_15  and  C_16
    8  A    between atoms: N_20  and  C_21
                            x       y       z     vdW  Elec       q    Type
                         _______ _______ _______ _____ _____    ______ ____

>  <TORSDO>
F 8

$$$$
=
 OpenBabel07192307433D

 51 53  0  0  1  0  0  0  0  0999 V2000
    3.0270    5.1230   18.7950 C   0  0  0  0  0  0  0  0  0  0  0  0
    2.4870    5.0100   20.0870 C   0  0  0  0  0  0  0  0  0  0  0  0
    1.9090    6.1130   20.7150 C   0  0  0  0  0  0  0  0  0  0  0  0
    1.8820    7.3520   20.0640 C   0  0  0  0  0  0  0  0  0  0  0  0
    2.4240    7.4830   18.7800 C   0  0  0  0  0  0  0  0  0  0  0  0
    2.9950    6.3710   18.1510 C   0  0  0  0  0  0  0  0  0  0  0  0
    2.5020    4.0480   20.6080 H   0  0  0  0  0  0  0  0  0  0  0  0
    1.4850    5.9980   21.7100 H   0  0  0  0  0  0  0  0  0  0  0  0
    2.3840    8.4260   18.2400 H   0  0  0  0  0  0  0  0  0  0  0  0
    3.4050    6.4830   17.1480 H   0  0  0  0  0  0  0  0  0  0  0  0
    1.2450    8.4960   20.7620 C   0  0  0  0  0  0  0  0  0  0  0  0
    1.3210    8.6230   21.9810 O   0  0  0  0  0  0  0  0  0  0  0  0
    0.5580    9.4130   19.9820 N   0  0  0  0  0  0  0  0  0  0  0  0
    0.7080    9.3520   18.9770 H   0  0  0  0  0  0  0  0  0  0  0  0
    0.2850   10.7410   20.5210 C   0  0  0  0  0  0  0  0  0  0  0  0
    0.8460   10.8260   21.4580 H   0  0  0  0  0  0  0  0  0  0  0  0
   -0.7830   10.7820   20.7750 H   0  0  0  0  0  0  0  0  0  0  0  0
    0.6550   11.9230   19.5930 C   0  0  2  0  0  0  0  0  0  0  0  0
    1.7290   11.5350   18.5690 C   0  0  0  0  0  0  0  0  0  0  0  0
    2.4440   12.8410   18.2950 C   0  0  0  0  0  0  0  0  0  0  0  0
    2.5600   13.4790   19.6660 C   0  0  0  0  0  0  0  0  0  0  0  0
    1.2700   13.1010   20.3470 N   0  0  0  0  0  4  0  0  0  0  0  0
   -0.2420   12.3100   19.0820 H   0  0  0  0  0  0  0  0  0  0  0  0
    1.2890   11.1070   17.6570 H   0  0  0  0  0  0  0  0  0  0  0  0
    2.4340   10.7960   18.9830 H   0  0  0  0  0  0  0  0  0  0  0  0
    1.8330   13.4760   17.6360 H   0  0  0  0  0  0  0  0  0  0  0  0
    3.4090   12.6900   17.8110 H   0  0  0  0  0  0  0  0  0  0  0  0
    3.3640   13.0560   20.2800 H   0  0  0  0  0  0  0  0  0  0  0  0
    2.6570   14.5760   19.6300 H   0  0  0  0  0  0  0  0  0  0  0  0
    1.5000   12.7670   21.3110 H   0  0  0  0  0  0  0  0  0  0  0  0
    0.3370   14.2580   20.5380 C   0  0  0  0  0  0  0  0  0  0  0  0
    0.2460   14.4560   21.6060 H   0  0  0  0  0  0  0  0  0  0  0  0
   -0.6320   13.9980   20.1050 H   0  0  0  0  0  0  0  0  0  0  0  0
    0.7730   15.1230   20.0310 H   0  0  0  0  0  0  0  0  0  0  0  0
    3.6450    3.9200   18.1130 C   0  0  0  0  0  0  0  0  0  0  0  0
    3.9280    3.1460   18.8370 H   0  0  0  0  0  0  0  0  0  0  0  0
    2.9250    3.4730   17.4170 H   0  0  0  0  0  0  0  0  0  0  0  0
    6.0810    4.4490   15.6450 C   0  0  0  0  0  0  0  0  0  0  0  0
    6.8360    4.9360   16.7340 C   0  0  0  0  0  0  0  0  0  0  0  0
    6.0210    4.7970   17.8380 C   0  0  0  0  0  0  0  0  0  0  0  0
    4.8460    4.2710   17.3620 N   0  0  0  0  0  0  0  0  0  0  0  0
    4.8640    4.0540   16.0290 N   0  0  0  0  0  0  0  0  0  0  0  0
    7.8450    5.3220   16.7170 H   0  0  0  0  0  0  0  0  0  0  0  0
    6.4810    4.3480   14.2210 C   0  0  0  0  0  0  0  0  0  0  0  0
    6.0200    5.1490   13.6300 H   0  0  0  0  0  0  0  0  0  0  0  0
    7.5630    4.4350   14.1330 H   0  0  0  0  0  0  0  0  0  0  0  0
    6.1770    3.3900   13.7900 H   0  0  0  0  0  0  0  0  0  0  0  0
    6.2720    5.1150   19.2660 C   0  0  0  0  0  0  0  0  0  0  0  0
    5.4940    4.6800   19.9030 H   0  0  0  0  0  0  0  0  0  0  0  0
    7.2470    4.7320   19.5860 H   0  0  0  0  0  0  0  0  0  0  0  0
    6.2670    6.1990   19.4310 H   0  0  0  0  0  0  0  0  0  0  0  0
  1  2  1  0  0  0  0
  2  7  1  0  0  0  0
  2  3  2  0  0  0  0
  3  8  1  0  0  0  0
  4  3  1  0  0  0  0
  4 11  1  0  0  0  0
  5  4  2  0  0  0  0
  6  5  1  0  0  0  0
  6  1  2  0  0  0  0
  9  5  1  0  0  0  0
 10  6  1  0  0  0  0
 11 12  2  0  0  0  0
 13 15  1  0  0  0  0
 13 11  1  0  0  0  0
 14 13  1  0  0  0  0
 15 17  1  0  0  0  0
 15 16  1  0  0  0  0
 18 23  1  6  0  0  0
 18 22  1  0  0  0  0
 18 15  1  0  0  0  0
 19 25  1  0  0  0  0
 19 18  1  0  0  0  0
 20 19  1  0  0  0  0
 20 21  1  0  0  0  0
 21 28  1  0  0  0  0
 21 22  1  0  0  0  0
 22 31  1  0  0  0  0
 22 30  1  0  0  0  0
 24 19  1  0  0  0  0
 26 20  1  0  0  0  0
 27 20  1  0  0  0  0
 29 21  1  0  0  0  0
 31 32  1  0  0  0  0
 33 31  1  0  0  0  0
 34 31  1  0  0  0  0
 35  1  1  0  0  0  0
 35 36  1  0  0  0  0
 37 35  1  0  0  0  0
 38 42  2  0  0  0  0
 38 39  1  0  0  0  0
 39 40  2  0  0  0  0
 40 48  1  0  0  0  0
 41 40  1  0  0  0  0
 41 35  1  0  0  0  0
 42 41  1  0  0  0  0
 43 39  1  0  0  0  0
 44 38  1  0  0  0  0
 45 44  1  0  0  0  0
 46 44  1  0  0  0  0
 47 44  1  0  0  0  0
 48 51  1  0  0  0  0
 48 50  1  0  0  0  0
 48 49  1  0  0  0  0
M  END
>  <MODEL>
25

>  <REMARK>
 VINA RESULT:    -6.401      2.754      8.421
 INTER + INTRA:          -9.743
 INTER:                  -9.123
 INTRA:                  -0.620
 UNBOUND:                -0.910
  Name = 
  8 active torsions:
  status: ('A' for Active; 'I' for Inactive)
    1  A    between atoms: C_1  and  C_2
    2  A    between atoms: C_4  and  C_5
    3  A    between atoms: N_6  and  C_7
    4  A    between atoms: C_7  and  C_8
    5  A    between atoms: C_11  and  C_12
    6  A    between atoms: N_14  and  C_15
    7  A    between atoms: C_15  and  C_16
    8  A    between atoms: N_20  and  C_21
                            x       y       z     vdW  Elec       q    Type
                         _______ _______ _______ _____ _____    ______ ____

>  <TORSDO>
F 8

$$$$
=
 OpenBabel07192307433D

 51 53  0  0  1  0  0  0  0  0999 V2000
    2.8760    6.4110   18.5440 C   0  0  0  0  0  0  0  0  0  0  0  0
    2.3470    6.4080   19.8460 C   0  0  0  0  0  0  0  0  0  0  0  0
    1.6420    7.5100   20.3300 C   0  0  0  0  0  0  0  0  0  0  0  0
    1.4740    8.6400   19.5210 C   0  0  0  0  0  0  0  0  0  0  0  0
    2.0030    8.6630   18.2250 C   0  0  0  0  0  0  0  0  0  0  0  0
    2.7020    7.5520   17.7410 C   0  0  0  0  0  0  0  0  0  0  0  0
    2.4720    5.5320   20.4890 H   0  0  0  0  0  0  0  0  0  0  0  0
    1.2310    7.4790   21.3360 H   0  0  0  0  0  0  0  0  0  0  0  0
    1.8550    9.5150   17.5660 H   0  0  0  0  0  0  0  0  0  0  0  0
    3.1000    7.5760   16.7280 H   0  0  0  0  0  0  0  0  0  0  0  0
    0.7060    9.7850   20.0690 C   0  0  0  0  0  0  0  0  0  0  0  0
    1.1120   10.4240   21.0360 O   0  0  0  0  0  0  0  0  0  0  0  0
   -0.4930   10.1010   19.4490 N   0  0  0  0  0  0  0  0  0  0  0  0
   -0.6620    9.6640   18.5440 H   0  0  0  0  0  0  0  0  0  0  0  0
   -1.0690   11.4270   19.6480 C   0  0  0  0  0  0  0  0  0  0  0  0
   -0.2550   12.1500   19.5190 H   0  0  0  0  0  0  0  0  0  0  0  0
   -1.3990   11.4900   20.6930 H   0  0  0  0  0  0  0  0  0  0  0  0
   -2.2350   11.7940   18.6990 C   0  0  2  0  0  0  0  0  0  0  0  0
   -3.4800   12.2520   19.4700 C   0  0  0  0  0  0  0  0  0  0  0  0
   -4.6230   11.8690   18.5530 C   0  0  0  0  0  0  0  0  0  0  0  0
   -4.2210   10.5020   18.0330 C   0  0  0  0  0  0  0  0  0  0  0  0
   -2.7260   10.6050   17.8750 N   0  0  0  0  0  4  0  0  0  0  0  0
   -1.9210   12.5680   17.9800 H   0  0  0  0  0  0  0  0  0  0  0  0
   -3.4600   13.3320   19.6750 H   0  0  0  0  0  0  0  0  0  0  0  0
   -3.5760   11.7270   20.4340 H   0  0  0  0  0  0  0  0  0  0  0  0
   -4.6930   12.5830   17.7190 H   0  0  0  0  0  0  0  0  0  0  0  0
   -5.5830   11.8640   19.0700 H   0  0  0  0  0  0  0  0  0  0  0  0
   -4.3970    9.6910   18.7500 H   0  0  0  0  0  0  0  0  0  0  0  0
   -4.6840   10.2510   17.0650 H   0  0  0  0  0  0  0  0  0  0  0  0
   -2.2990    9.7440   18.2860 H   0  0  0  0  0  0  0  0  0  0  0  0
   -2.2800   10.6280   16.4440 C   0  0  0  0  0  0  0  0  0  0  0  0
   -1.3390   10.0830   16.3670 H   0  0  0  0  0  0  0  0  0  0  0  0
   -2.1540   11.6690   16.1370 H   0  0  0  0  0  0  0  0  0  0  0  0
   -3.0510   10.1340   15.8480 H   0  0  0  0  0  0  0  0  0  0  0  0
    3.6330    5.2080   18.0190 C   0  0  0  0  0  0  0  0  0  0  0  0
    3.4570    4.3200   18.6370 H   0  0  0  0  0  0  0  0  0  0  0  0
    3.3020    4.9730   17.0000 H   0  0  0  0  0  0  0  0  0  0  0  0
    7.0300    5.6250   18.7920 C   0  0  0  0  0  0  0  0  0  0  0  0
    7.1400    5.8780   17.4080 C   0  0  0  0  0  0  0  0  0  0  0  0
    5.8580    5.7660   16.9100 C   0  0  0  0  0  0  0  0  0  0  0  0
    5.0740    5.4370   17.9880 N   0  0  0  0  0  0  0  0  0  0  0  0
    5.7710    5.3460   19.1420 N   0  0  0  0  0  0  0  0  0  0  0  0
    8.0320    6.1250   16.8510 H   0  0  0  0  0  0  0  0  0  0  0  0
    8.1010    5.6330   19.8160 C   0  0  0  0  0  0  0  0  0  0  0  0
    8.1580    6.6110   20.3100 H   0  0  0  0  0  0  0  0  0  0  0  0
    7.8970    4.8770   20.5740 H   0  0  0  0  0  0  0  0  0  0  0  0
    9.0770    5.4190   19.3730 H   0  0  0  0  0  0  0  0  0  0  0  0
    5.3430    5.9450   15.5300 C   0  0  0  0  0  0  0  0  0  0  0  0
    5.3040    7.0080   15.2640 H   0  0  0  0  0  0  0  0  0  0  0  0
    5.9760    5.4230   14.8050 H   0  0  0  0  0  0  0  0  0  0  0  0
    4.3270    5.5450   15.4380 H   0  0  0  0  0  0  0  0  0  0  0  0
  1  2  1  0  0  0  0
  2  3  2  0  0  0  0
  2  7  1  0  0  0  0
  3  8  1  0  0  0  0
  4 11  1  0  0  0  0
  4  3  1  0  0  0  0
  5  4  2  0  0  0  0
  6  5  1  0  0  0  0
  6  1  2  0  0  0  0
  9  5  1  0  0  0  0
 10  6  1  0  0  0  0
 11 12  2  0  0  0  0
 13 15  1  0  0  0  0
 13 11  1  0  0  0  0
 14 13  1  0  0  0  0
 15 17  1  0  0  0  0
 16 15  1  0  0  0  0
 18 23  1  6  0  0  0
 18 19  1  0  0  0  0
 18 15  1  0  0  0  0
 19 24  1  0  0  0  0
 19 25  1  0  0  0  0
 20 27  1  0  0  0  0
 20 19  1  0  0  0  0
 21 20  1  0  0  0  0
 21 28  1  0  0  0  0
 22 21  1  0  0  0  0
 22 30  1  0  0  0  0
 22 18  1  0  0  0  0
 26 20  1  0  0  0  0
 29 21  1  0  0  0  0
 31 22  1  0  0  0  0
 32 31  1  0  0  0  0
 33 31  1  0  0  0  0
 34 31  1  0  0  0  0
 35  1  1  0  0  0  0
 35 36  1  0  0  0  0
 37 35  1  0  0  0  0
 38 42  2  0  0  0  0
 38 44  1  0  0  0  0
 39 38  1  0  0  0  0
 40 39  2  0  0  0  0
 40 41  1  0  0  0  0
 41 35  1  0  0  0  0
 41 42  1  0  0  0  0
 43 39  1  0  0  0  0
 44 45  1  0  0  0  0
 44 46  1  0  0  0  0
 47 44  1  0  0  0  0
 48 40  1  0  0  0  0
 49 48  1  0  0  0  0
 50 48  1  0  0  0  0
 51 48  1  0  0  0  0
M  END
>  <MODEL>
26

>  <REMARK>
 VINA RESULT:    -6.399      2.673      8.378
 INTER + INTRA:          -9.740
 INTER:                  -8.980
 INTRA:                  -0.760
 UNBOUND:                -0.910
  Name = 
  8 active torsions:
  status: ('A' for Active; 'I' for Inactive)
    1  A    between atoms: C_1  and  C_2
    2  A    between atoms: C_4  and  C_5
    3  A    between atoms: N_6  and  C_7
    4  A    between atoms: C_7  and  C_8
    5  A    between atoms: C_11  and  C_12
    6  A    between atoms: N_14  and  C_15
    7  A    between atoms: C_15  and  C_16
    8  A    between atoms: N_20  and  C_21
                            x       y       z     vdW  Elec       q    Type
                         _______ _______ _______ _____ _____    ______ ____

>  <TORSDO>
F 8

$$$$
=
 OpenBabel07192307433D

 51 53  0  0  1  0  0  0  0  0999 V2000
    2.7400    6.6290   19.4760 C   0  0  0  0  0  0  0  0  0  0  0  0
    2.0010    7.1770   20.5380 C   0  0  0  0  0  0  0  0  0  0  0  0
    1.2790    8.3590   20.3660 C   0  0  0  0  0  0  0  0  0  0  0  0
    1.3040    9.0180   19.1320 C   0  0  0  0  0  0  0  0  0  0  0  0
    2.0430    8.4890   18.0670 C   0  0  0  0  0  0  0  0  0  0  0  0
    2.7580    7.2990   18.2420 C   0  0  0  0  0  0  0  0  0  0  0  0
    1.9740    6.6730   21.5080 H   0  0  0  0  0  0  0  0  0  0  0  0
    0.7050    8.7570   21.1990 H   0  0  0  0  0  0  0  0  0  0  0  0
    2.0490    8.9650   17.0890 H   0  0  0  0  0  0  0  0  0  0  0  0
    3.3210    6.8920   17.4030 H   0  0  0  0  0  0  0  0  0  0  0  0
    0.5120   10.2640   18.9880 C   0  0  0  0  0  0  0  0  0  0  0  0
   -0.3400   10.3820   18.1100 O   0  0  0  0  0  0  0  0  0  0  0  0
    0.7730   11.2910   19.8810 N   0  0  0  0  0  0  0  0  0  0  0  0
    1.3390   11.0500   20.6920 H   0  0  0  0  0  0  0  0  0  0  0  0
   -0.2240   12.3400   20.0700 C   0  0  0  0  0  0  0  0  0  0  0  0
   -0.6090   12.5950   19.0760 H   0  0  0  0  0  0  0  0  0  0  0  0
    0.2980   13.2260   20.4560 H   0  0  0  0  0  0  0  0  0  0  0  0
   -1.4050   11.9730   20.9990 C   0  0  2  0  0  0  0  0  0  0  0  0
   -2.5190   13.0280   20.9580 C   0  0  0  0  0  0  0  0  0  0  0  0
   -3.1540   12.9240   22.3280 C   0  0  0  0  0  0  0  0  0  0  0  0
   -1.9680   12.7640   23.2600 C   0  0  0  0  0  0  0  0  0  0  0  0
   -1.0070   11.9130   22.4730 N   0  0  0  0  0  4  0  0  0  0  0  0
   -1.8070   10.9790   20.7410 H   0  0  0  0  0  0  0  0  0  0  0  0
   -3.2410   12.8290   20.1520 H   0  0  0  0  0  0  0  0  0  0  0  0
   -2.1110   14.0400   20.8040 H   0  0  0  0  0  0  0  0  0  0  0  0
   -3.7960   12.0330   22.3810 H   0  0  0  0  0  0  0  0  0  0  0  0
   -3.7690   13.7930   22.5650 H   0  0  0  0  0  0  0  0  0  0  0  0
   -1.4440   13.7050   23.4680 H   0  0  0  0  0  0  0  0  0  0  0  0
   -2.2240   12.2620   24.2080 H   0  0  0  0  0  0  0  0  0  0  0  0
   -0.0560   12.3410   22.5550 H   0  0  0  0  0  0  0  0  0  0  0  0
   -0.8650   10.5210   23.0110 C   0  0  0  0  0  0  0  0  0  0  0  0
    0.1800   10.3560   23.2730 H   0  0  0  0  0  0  0  0  0  0  0  0
   -1.1920    9.8170   22.2430 H   0  0  0  0  0  0  0  0  0  0  0  0
   -1.4920   10.4460   23.9030 H   0  0  0  0  0  0  0  0  0  0  0  0
    3.5140    5.3400   19.6640 C   0  0  0  0  0  0  0  0  0  0  0  0
    4.3170    5.4550   20.4020 H   0  0  0  0  0  0  0  0  0  0  0  0
    2.8450    4.5500   20.0260 H   0  0  0  0  0  0  0  0  0  0  0  0
    5.6630    4.6890   16.9690 C   0  0  0  0  0  0  0  0  0  0  0  0
    4.5490    3.9780   16.4720 C   0  0  0  0  0  0  0  0  0  0  0  0
    3.5620    4.1300   17.4220 C   0  0  0  0  0  0  0  0  0  0  0  0
    4.1280    4.8820   18.4220 N   0  0  0  0  0  0  0  0  0  0  0  0
    5.4070    5.2310   18.1620 N   0  0  0  0  0  0  0  0  0  0  0  0
    4.4730    3.4400   15.5370 H   0  0  0  0  0  0  0  0  0  0  0  0
    6.9920    4.8720   16.3390 C   0  0  0  0  0  0  0  0  0  0  0  0
    7.7950    4.6600   17.0560 H   0  0  0  0  0  0  0  0  0  0  0  0
    7.0990    4.1930   15.4940 H   0  0  0  0  0  0  0  0  0  0  0  0
    7.1220    5.8950   15.9750 H   0  0  0  0  0  0  0  0  0  0  0  0
    2.1650    3.6290   17.4480 C   0  0  0  0  0  0  0  0  0  0  0  0
    1.8560    3.2890   16.4520 H   0  0  0  0  0  0  0  0  0  0  0  0
    2.0600    2.7970   18.1530 H   0  0  0  0  0  0  0  0  0  0  0  0
    1.4720    4.4190   17.7570 H   0  0  0  0  0  0  0  0  0  0  0  0
  1 35  1  0  0  0  0
  1  2  1  0  0  0  0
  2  7  1  0  0  0  0
  3  2  2  0  0  0  0
  3  8  1  0  0  0  0
  4  3  1  0  0  0  0
  5  6  1  0  0  0  0
  5  4  2  0  0  0  0
  6  1  2  0  0  0  0
  9  5  1  0  0  0  0
 10  6  1  0  0  0  0
 11  4  1  0  0  0  0
 11 13  1  0  0  0  0
 12 11  2  0  0  0  0
 13 15  1  0  0  0  0
 13 14  1  0  0  0  0
 15 17  1  0  0  0  0
 15 18  1  0  0  0  0
 16 15  1  0  0  0  0
 18 23  1  6  0  0  0
 18 22  1  0  0  0  0
 19 18  1  0  0  0  0
 19 20  1  0  0  0  0
 20 26  1  0  0  0  0
 20 27  1  0  0  0  0
 20 21  1  0  0  0  0
 21 28  1  0  0  0  0
 21 29  1  0  0  0  0
 22 30  1  0  0  0  0
 22 31  1  0  0  0  0
 22 21  1  0  0  0  0
 24 19  1  0  0  0  0
 25 19  1  0  0  0  0
 31 32  1  0  0  0  0
 31 34  1  0  0  0  0
 33 31  1  0  0  0  0
 35 37  1  0  0  0  0
 35 36  1  0  0  0  0
 38 42  2  0  0  0  0
 39 38  1  0  0  0  0
 39 40  2  0  0  0  0
 40 48  1  0  0  0  0
 40 41  1  0  0  0  0
 41 35  1  0  0  0  0
 42 41  1  0  0  0  0
 43 39  1  0  0  0  0
 44 38  1  0  0  0  0
 44 45  1  0  0  0  0
 46 44  1  0  0  0  0
 47 44  1  0  0  0  0
 48 51  1  0  0  0  0
 48 50  1  0  0  0  0
 49 48  1  0  0  0  0
M  END
>  <MODEL>
27

>  <REMARK>
 VINA RESULT:    -6.360      2.843      8.275
 INTER + INTRA:          -9.687
 INTER:                  -9.079
 INTRA:                  -0.608
 UNBOUND:                -0.910
  Name = 
  8 active torsions:
  status: ('A' for Active; 'I' for Inactive)
    1  A    between atoms: C_1  and  C_2
    2  A    between atoms: C_4  and  C_5
    3  A    between atoms: N_6  and  C_7
    4  A    between atoms: C_7  and  C_8
    5  A    between atoms: C_11  and  C_12
    6  A    between atoms: N_14  and  C_15
    7  A    between atoms: C_15  and  C_16
    8  A    between atoms: N_20  and  C_21
                            x       y       z     vdW  Elec       q    Type
                         _______ _______ _______ _____ _____    ______ ____

>  <TORSDO>
F 8

$$$$
=
 OpenBabel07192307433D

 51 53  0  0  1  0  0  0  0  0999 V2000
    2.9090    7.4300   18.3320 C   0  0  0  0  0  0  0  0  0  0  0  0
    2.5210    7.0750   19.6350 C   0  0  0  0  0  0  0  0  0  0  0  0
    1.5820    7.8370   20.3310 C   0  0  0  0  0  0  0  0  0  0  0  0
    1.0340    8.9800   19.7370 C   0  0  0  0  0  0  0  0  0  0  0  0
    1.4180    9.3530   18.4430 C   0  0  0  0  0  0  0  0  0  0  0  0
    2.3530    8.5800   17.7460 C   0  0  0  0  0  0  0  0  0  0  0  0
    2.9420    6.1840   20.1110 H   0  0  0  0  0  0  0  0  0  0  0  0
    1.2880    7.5340   21.3330 H   0  0  0  0  0  0  0  0  0  0  0  0
    0.9800   10.2170   17.9480 H   0  0  0  0  0  0  0  0  0  0  0  0
    2.6360    8.8740   16.7370 H   0  0  0  0  0  0  0  0  0  0  0  0
    0.0300    9.7550   20.5060 C   0  0  0  0  0  0  0  0  0  0  0  0
   -1.0130   10.1430   19.9850 O   0  0  0  0  0  0  0  0  0  0  0  0
    0.3160   10.0260   21.8340 N   0  0  0  0  0  0  0  0  0  0  0  0
    1.0910    9.5080   22.2430 H   0  0  0  0  0  0  0  0  0  0  0  0
   -0.7710   10.3930   22.7360 C   0  0  0  0  0  0  0  0  0  0  0  0
   -0.5210    9.9790   23.7200 H   0  0  0  0  0  0  0  0  0  0  0  0
   -1.6770    9.8810   22.3860 H   0  0  0  0  0  0  0  0  0  0  0  0
   -1.0380   11.9110   22.8720 C   0  0  2  0  0  0  0  0  0  0  0  0
   -2.4860   12.2060   23.2840 C   0  0  0  0  0  0  0  0  0  0  0  0
   -2.7520   13.5710   22.6860 C   0  0  0  0  0  0  0  0  0  0  0  0
   -2.1020   13.4940   21.3180 C   0  0  0  0  0  0  0  0  0  0  0  0
   -0.8660   12.6650   21.5550 N   0  0  0  0  0  4  0  0  0  0  0  0
   -0.3330   12.3650   23.5890 H   0  0  0  0  0  0  0  0  0  0  0  0
   -2.6090   12.2030   24.3770 H   0  0  0  0  0  0  0  0  0  0  0  0
   -3.1850   11.4640   22.8640 H   0  0  0  0  0  0  0  0  0  0  0  0
   -2.2640   14.3500   23.2900 H   0  0  0  0  0  0  0  0  0  0  0  0
   -3.8160   13.8020   22.6410 H   0  0  0  0  0  0  0  0  0  0  0  0
   -2.7000   12.9470   20.5790 H   0  0  0  0  0  0  0  0  0  0  0  0
   -1.8200   14.4800   20.9130 H   0  0  0  0  0  0  0  0  0  0  0  0
   -0.8070   11.9500   20.7930 H   0  0  0  0  0  0  0  0  0  0  0  0
    0.4050   13.4530   21.4620 C   0  0  0  0  0  0  0  0  0  0  0  0
    0.6960   13.5170   20.4140 H   0  0  0  0  0  0  0  0  0  0  0  0
    1.1720   12.9440   22.0500 H   0  0  0  0  0  0  0  0  0  0  0  0
    0.2060   14.4520   21.8590 H   0  0  0  0  0  0  0  0  0  0  0  0
    3.9210    6.5930   17.5770 C   0  0  0  0  0  0  0  0  0  0  0  0
    3.7150    6.5850   16.5000 H   0  0  0  0  0  0  0  0  0  0  0  0
    4.9280    7.0050   17.7170 H   0  0  0  0  0  0  0  0  0  0  0  0
    3.1820    3.2330   18.2620 C   0  0  0  0  0  0  0  0  0  0  0  0
    4.4160    3.2770   18.9460 C   0  0  0  0  0  0  0  0  0  0  0  0
    4.8760    4.5680   18.7940 C   0  0  0  0  0  0  0  0  0  0  0  0
    3.9310    5.2050   18.0280 N   0  0  0  0  0  0  0  0  0  0  0  0
    2.8930    4.4070   17.6950 N   0  0  0  0  0  0  0  0  0  0  0  0
    4.8980    2.4770   19.4900 H   0  0  0  0  0  0  0  0  0  0  0  0
    2.2490    2.0900   18.1220 C   0  0  0  0  0  0  0  0  0  0  0  0
    2.4110    1.5710   17.1680 H   0  0  0  0  0  0  0  0  0  0  0  0
    2.4100    1.3780   18.9310 H   0  0  0  0  0  0  0  0  0  0  0  0
    1.2070    2.4200   18.1560 H   0  0  0  0  0  0  0  0  0  0  0  0
    6.1070    5.2190   19.3080 C   0  0  0  0  0  0  0  0  0  0  0  0
    6.8250    5.3860   18.4970 H   0  0  0  0  0  0  0  0  0  0  0  0
    5.8740    6.1810   19.7770 H   0  0  0  0  0  0  0  0  0  0  0  0
    6.5970    4.5890   20.0590 H   0  0  0  0  0  0  0  0  0  0  0  0
  1  2  1  0  0  0  0
  2  7  1  0  0  0  0
  2  3  2  0  0  0  0
  3  8  1  0  0  0  0
  4  3  1  0  0  0  0
  4 11  1  0  0  0  0
  5  4  2  0  0  0  0
  6  1  2  0  0  0  0
  6  5  1  0  0  0  0
  9  5  1  0  0  0  0
 10  6  1  0  0  0  0
 11 13  1  0  0  0  0
 12 11  2  0  0  0  0
 13 14  1  0  0  0  0
 13 15  1  0  0  0  0
 15 18  1  0  0  0  0
 15 16  1  0  0  0  0
 17 15  1  0  0  0  0
 18 19  1  0  0  0  0
 18 23  1  1  0  0  0
 19 24  1  0  0  0  0
 20 19  1  0  0  0  0
 20 26  1  0  0  0  0
 21 22  1  0  0  0  0
 21 20  1  0  0  0  0
 22 18  1  0  0  0  0
 25 19  1  0  0  0  0
 27 20  1  0  0  0  0
 28 21  1  0  0  0  0
 29 21  1  0  0  0  0
 30 22  1  0  0  0  0
 31 22  1  0  0  0  0
 31 34  1  0  0  0  0
 31 33  1  0  0  0  0
 32 31  1  0  0  0  0
 35 37  1  0  0  0  0
 35 41  1  0  0  0  0
 35  1  1  0  0  0  0
 36 35  1  0  0  0  0
 38 39  1  0  0  0  0
 39 43  1  0  0  0  0
 40 39  2  0  0  0  0
 40 48  1  0  0  0  0
 41 40  1  0  0  0  0
 42 41  1  0  0  0  0
 42 38  2  0  0  0  0
 44 47  1  0  0  0  0
 44 38  1  0  0  0  0
 44 46  1  0  0  0  0
 45 44  1  0  0  0  0
 48 50  1  0  0  0  0
 48 51  1  0  0  0  0
 49 48  1  0  0  0  0
M  END
>  <MODEL>
28

>  <REMARK>
 VINA RESULT:    -6.337      2.852      8.287
 INTER + INTRA:          -9.654
 INTER:                  -8.995
 INTRA:                  -0.659
 UNBOUND:                -0.910
  Name = 
  8 active torsions:
  status: ('A' for Active; 'I' for Inactive)
    1  A    between atoms: C_1  and  C_2
    2  A    between atoms: C_4  and  C_5
    3  A    between atoms: N_6  and  C_7
    4  A    between atoms: C_7  and  C_8
    5  A    between atoms: C_11  and  C_12
    6  A    between atoms: N_14  and  C_15
    7  A    between atoms: C_15  and  C_16
    8  A    between atoms: N_20  and  C_21
                            x       y       z     vdW  Elec       q    Type
                         _______ _______ _______ _____ _____    ______ ____

>  <TORSDO>
F 8

$$$$
=
 OpenBabel07192307433D

 51 53  0  0  1  0  0  0  0  0999 V2000
    2.8910    5.8810   18.5050 C   0  0  0  0  0  0  0  0  0  0  0  0
    2.3830    5.6260   19.7910 C   0  0  0  0  0  0  0  0  0  0  0  0
    1.7760    6.6430   20.5300 C   0  0  0  0  0  0  0  0  0  0  0  0
    1.6870    7.9340   19.9970 C   0  0  0  0  0  0  0  0  0  0  0  0
    2.1960    8.2050   18.7220 C   0  0  0  0  0  0  0  0  0  0  0  0
    2.7960    7.1810   17.9810 C   0  0  0  0  0  0  0  0  0  0  0  0
    2.4470    4.6220   20.2190 H   0  0  0  0  0  0  0  0  0  0  0  0
    1.3800    6.4180   21.5170 H   0  0  0  0  0  0  0  0  0  0  0  0
    2.1070    9.1920   18.2730 H   0  0  0  0  0  0  0  0  0  0  0  0
    3.1790    7.4020   16.9860 H   0  0  0  0  0  0  0  0  0  0  0  0
    1.0210    8.9810   20.8100 C   0  0  0  0  0  0  0  0  0  0  0  0
    0.5390    8.7260   21.9110 O   0  0  0  0  0  0  0  0  0  0  0  0
    0.9610   10.2580   20.2750 N   0  0  0  0  0  0  0  0  0  0  0  0
    1.5510   10.4360   19.4640 H   0  0  0  0  0  0  0  0  0  0  0  0
    0.7180   11.3910   21.1630 C   0  0  0  0  0  0  0  0  0  0  0  0
    1.6620   11.9420   21.2410 H   0  0  0  0  0  0  0  0  0  0  0  0
    0.4920   10.9870   22.1590 H   0  0  0  0  0  0  0  0  0  0  0  0
   -0.4050   12.3570   20.7140 C   0  0  2  0  0  0  0  0  0  0  0  0
   -1.6680   12.2080   21.5710 C   0  0  0  0  0  0  0  0  0  0  0  0
   -2.7830   12.6090   20.6280 C   0  0  0  0  0  0  0  0  0  0  0  0
   -2.3890   11.9630   19.3140 C   0  0  0  0  0  0  0  0  0  0  0  0
   -0.8880   12.0860   19.2900 N   0  0  0  0  0  4  0  0  0  0  0  0
   -0.0480   13.4000   20.7330 H   0  0  0  0  0  0  0  0  0  0  0  0
   -1.6340   12.8470   22.4650 H   0  0  0  0  0  0  0  0  0  0  0  0
   -1.8100   11.1660   21.9050 H   0  0  0  0  0  0  0  0  0  0  0  0
   -2.8080   13.7030   20.5160 H   0  0  0  0  0  0  0  0  0  0  0  0
   -3.7620   12.2880   20.9850 H   0  0  0  0  0  0  0  0  0  0  0  0
   -2.6080   10.8890   19.2700 H   0  0  0  0  0  0  0  0  0  0  0  0
   -2.8200   12.4670   18.4330 H   0  0  0  0  0  0  0  0  0  0  0  0
   -0.4930   11.1620   18.9990 H   0  0  0  0  0  0  0  0  0  0  0  0
   -0.3870   13.0710   18.2770 C   0  0  0  0  0  0  0  0  0  0  0  0
    0.1230   12.5230   17.4850 H   0  0  0  0  0  0  0  0  0  0  0  0
    0.2940   13.7640   18.7750 H   0  0  0  0  0  0  0  0  0  0  0  0
   -1.2540   13.5980   17.8710 H   0  0  0  0  0  0  0  0  0  0  0  0
    3.5400    4.7720   17.7030 C   0  0  0  0  0  0  0  0  0  0  0  0
    3.3280    3.7850   18.1320 H   0  0  0  0  0  0  0  0  0  0  0  0
    3.1530    4.7760   16.6760 H   0  0  0  0  0  0  0  0  0  0  0  0
    6.9330    5.3510   18.3800 C   0  0  0  0  0  0  0  0  0  0  0  0
    7.0900    5.0020   17.0210 C   0  0  0  0  0  0  0  0  0  0  0  0
    5.8170    4.7390   16.5600 C   0  0  0  0  0  0  0  0  0  0  0  0
    4.9910    4.9160   17.6420 N   0  0  0  0  0  0  0  0  0  0  0  0
    5.6540    5.2880   18.7590 N   0  0  0  0  0  0  0  0  0  0  0  0
    8.0070    4.9630   16.4510 H   0  0  0  0  0  0  0  0  0  0  0  0
    7.9780    5.7470   19.3540 C   0  0  0  0  0  0  0  0  0  0  0  0
    8.5760    6.5810   18.9650 H   0  0  0  0  0  0  0  0  0  0  0  0
    7.5150    6.0630   20.2880 H   0  0  0  0  0  0  0  0  0  0  0  0
    8.6550    4.9160   19.5700 H   0  0  0  0  0  0  0  0  0  0  0  0
    5.3450    4.3460   15.2080 C   0  0  0  0  0  0  0  0  0  0  0  0
    5.0610    5.2290   14.6240 H   0  0  0  0  0  0  0  0  0  0  0  0
    6.1240    3.7990   14.6660 H   0  0  0  0  0  0  0  0  0  0  0  0
    4.4650    3.6970   15.2750 H   0  0  0  0  0  0  0  0  0  0  0  0
  1  2  1  0  0  0  0
  2  7  1  0  0  0  0
  2  3  2  0  0  0  0
  3  8  1  0  0  0  0
  4  3  1  0  0  0  0
  4 11  1  0  0  0  0
  5  4  2  0  0  0  0
  6  1  2  0  0  0  0
  6  5  1  0  0  0  0
  9  5  1  0  0  0  0
 10  6  1  0  0  0  0
 11 12  2  0  0  0  0
 13 11  1  0  0  0  0
 13 15  1  0  0  0  0
 14 13  1  0  0  0  0
 15 16  1  0  0  0  0
 15 17  1  0  0  0  0
 18 23  1  1  0  0  0
 18 15  1  0  0  0  0
 18 19  1  0  0  0  0
 19 25  1  0  0  0  0
 19 24  1  0  0  0  0
 20 27  1  0  0  0  0
 20 19  1  0  0  0  0
 21 20  1  0  0  0  0
 22 21  1  0  0  0  0
 22 18  1  0  0  0  0
 26 20  1  0  0  0  0
 28 21  1  0  0  0  0
 29 21  1  0  0  0  0
 30 22  1  0  0  0  0
 31 33  1  0  0  0  0
 31 22  1  0  0  0  0
 32 31  1  0  0  0  0
 34 31  1  0  0  0  0
 35 36  1  0  0  0  0
 35  1  1  0  0  0  0
 37 35  1  0  0  0  0
 38 42  2  0  0  0  0
 38 44  1  0  0  0  0
 39 38  1  0  0  0  0
 40 39  2  0  0  0  0
 40 41  1  0  0  0  0
 41 35  1  0  0  0  0
 41 42  1  0  0  0  0
 43 39  1  0  0  0  0
 44 47  1  0  0  0  0
 44 46  1  0  0  0  0
 45 44  1  0  0  0  0
 48 51  1  0  0  0  0
 48 40  1  0  0  0  0
 49 48  1  0  0  0  0
 50 48  1  0  0  0  0
M  END
>  <MODEL>
29

>  <REMARK>
 VINA RESULT:    -6.332      2.756      8.489
 INTER + INTRA:          -9.647
 INTER:                  -8.957
 INTRA:                  -0.690
 UNBOUND:                -0.910
  Name = 
  8 active torsions:
  status: ('A' for Active; 'I' for Inactive)
    1  A    between atoms: C_1  and  C_2
    2  A    between atoms: C_4  and  C_5
    3  A    between atoms: N_6  and  C_7
    4  A    between atoms: C_7  and  C_8
    5  A    between atoms: C_11  and  C_12
    6  A    between atoms: N_14  and  C_15
    7  A    between atoms: C_15  and  C_16
    8  A    between atoms: N_20  and  C_21
                            x       y       z     vdW  Elec       q    Type
                         _______ _______ _______ _____ _____    ______ ____

>  <TORSDO>
F 8

$$$$
=
 OpenBabel07192307433D

 51 53  0  0  1  0  0  0  0  0999 V2000
    0.5060   10.5200   19.0290 C   0  0  0  0  0  0  0  0  0  0  0  0
    1.2870    9.7700   18.1340 C   0  0  0  0  0  0  0  0  0  0  0  0
    1.8270    8.5420   18.5180 C   0  0  0  0  0  0  0  0  0  0  0  0
    1.6090    8.0590   19.8140 C   0  0  0  0  0  0  0  0  0  0  0  0
    0.8410    8.7990   20.7200 C   0  0  0  0  0  0  0  0  0  0  0  0
    0.2940   10.0260   20.3270 C   0  0  0  0  0  0  0  0  0  0  0  0
    1.4660   10.1360   17.1190 H   0  0  0  0  0  0  0  0  0  0  0  0
    2.4170    7.9740   17.8040 H   0  0  0  0  0  0  0  0  0  0  0  0
    0.6280    8.4280   21.7200 H   0  0  0  0  0  0  0  0  0  0  0  0
   -0.3100   10.5880   21.0370 H   0  0  0  0  0  0  0  0  0  0  0  0
    2.1890    6.7430   20.1770 C   0  0  0  0  0  0  0  0  0  0  0  0
    1.6030    5.9720   20.9330 O   0  0  0  0  0  0  0  0  0  0  0  0
    3.4220    6.4200   19.6320 N   0  0  0  0  0  0  0  0  0  0  0  0
    3.7460    7.0100   18.8680 H   0  0  0  0  0  0  0  0  0  0  0  0
    3.8400    5.0220   19.5970 C   0  0  0  0  0  0  0  0  0  0  0  0
    3.4730    4.5570   20.5190 H   0  0  0  0  0  0  0  0  0  0  0  0
    4.9370    5.0040   19.6370 H   0  0  0  0  0  0  0  0  0  0  0  0
    3.3390    4.2090   18.3790 C   0  0  2  0  0  0  0  0  0  0  0  0
    2.1320    3.3310   18.7310 C   0  0  0  0  0  0  0  0  0  0  0  0
    2.2460    2.1700   17.7650 C   0  0  0  0  0  0  0  0  0  0  0  0
    3.7310    1.8630   17.7500 C   0  0  0  0  0  0  0  0  0  0  0  0
    4.3780    3.2190   17.8570 N   0  0  0  0  0  4  0  0  0  0  0  0
    3.0940    4.8810   17.5400 H   0  0  0  0  0  0  0  0  0  0  0  0
    1.1820    3.8730   18.6140 H   0  0  0  0  0  0  0  0  0  0  0  0
    2.1860    2.9660   19.7700 H   0  0  0  0  0  0  0  0  0  0  0  0
    1.9170    2.4800   16.7620 H   0  0  0  0  0  0  0  0  0  0  0  0
    1.6360    1.3190   18.0680 H   0  0  0  0  0  0  0  0  0  0  0  0
    4.0690    1.2930   18.6250 H   0  0  0  0  0  0  0  0  0  0  0  0
    4.0630    1.3600   16.8270 H   0  0  0  0  0  0  0  0  0  0  0  0
    5.1370    3.1580   18.5740 H   0  0  0  0  0  0  0  0  0  0  0  0
    5.0570    3.6550   16.5940 C   0  0  0  0  0  0  0  0  0  0  0  0
    4.3080    3.7240   15.8050 H   0  0  0  0  0  0  0  0  0  0  0  0
    5.8240    2.9190   16.3410 H   0  0  0  0  0  0  0  0  0  0  0  0
    5.5010    4.6370   16.7770 H   0  0  0  0  0  0  0  0  0  0  0  0
   -0.0870   11.8480   18.6040 C   0  0  0  0  0  0  0  0  0  0  0  0
    0.3210   12.6790   19.1910 H   0  0  0  0  0  0  0  0  0  0  0  0
    0.1460   12.0420   17.5500 H   0  0  0  0  0  0  0  0  0  0  0  0
   -3.3840   12.3990   19.6680 C   0  0  0  0  0  0  0  0  0  0  0  0
   -3.6990   11.5790   18.5630 C   0  0  0  0  0  0  0  0  0  0  0  0
   -2.4870   11.2390   18.0000 C   0  0  0  0  0  0  0  0  0  0  0  0
   -1.5380   11.8760   18.7610 N   0  0  0  0  0  0  0  0  0  0  0  0
   -2.0670   12.5870   19.7810 N   0  0  0  0  0  0  0  0  0  0  0  0
   -4.6790   11.2650   18.2320 H   0  0  0  0  0  0  0  0  0  0  0  0
   -4.3110   13.0280   20.6390 C   0  0  0  0  0  0  0  0  0  0  0  0
   -3.8790   13.0230   21.6480 H   0  0  0  0  0  0  0  0  0  0  0  0
   -4.5020   14.0620   20.3530 H   0  0  0  0  0  0  0  0  0  0  0  0
   -5.2670   12.5000   20.6760 H   0  0  0  0  0  0  0  0  0  0  0  0
   -2.1760   10.3810   16.8290 C   0  0  0  0  0  0  0  0  0  0  0  0
   -1.1230   10.4840   16.5410 H   0  0  0  0  0  0  0  0  0  0  0  0
   -2.3800    9.3280   17.0520 H   0  0  0  0  0  0  0  0  0  0  0  0
   -2.7850   10.6650   15.9640 H   0  0  0  0  0  0  0  0  0  0  0  0
  1  6  1  0  0  0  0
  2  3  1  0  0  0  0
  2  1  2  0  0  0  0
  3  4  2  0  0  0  0
  4 11  1  0  0  0  0
  4  5  1  0  0  0  0
  5  9  1  0  0  0  0
  6  5  2  0  0  0  0
  6 10  1  0  0  0  0
  7  2  1  0  0  0  0
  8  3  1  0  0  0  0
 11 12  2  0  0  0  0
 13 11  1  0  0  0  0
 14 13  1  0  0  0  0
 15 13  1  0  0  0  0
 15 17  1  0  0  0  0
 15 16  1  0  0  0  0
 18 23  1  6  0  0  0
 18 19  1  0  0  0  0
 18 15  1  0  0  0  0
 19 25  1  0  0  0  0
 20 27  1  0  0  0  0
 20 19  1  0  0  0  0
 21 20  1  0  0  0  0
 21 22  1  0  0  0  0
 21 28  1  0  0  0  0
 22 18  1  0  0  0  0
 22 30  1  0  0  0  0
 24 19  1  0  0  0  0
 26 20  1  0  0  0  0
 29 21  1  0  0  0  0
 31 34  1  0  0  0  0
 31 22  1  0  0  0  0
 32 31  1  0  0  0  0
 33 31  1  0  0  0  0
 35 41  1  0  0  0  0
 35  1  1  0  0  0  0
 35 36  1  0  0  0  0
 37 35  1  0  0  0  0
 38 42  2  0  0  0  0
 38 44  1  0  0  0  0
 39 38  1  0  0  0  0
 40 39  2  0  0  0  0
 40 41  1  0  0  0  0
 41 42  1  0  0  0  0
 43 39  1  0  0  0  0
 44 47  1  0  0  0  0
 44 45  1  0  0  0  0
 46 44  1  0  0  0  0
 48 50  1  0  0  0  0
 48 40  1  0  0  0  0
 49 48  1  0  0  0  0
 51 48  1  0  0  0  0
M  END
>  <MODEL>
30

>  <REMARK>
 VINA RESULT:    -6.299      1.833      2.673
 INTER + INTRA:          -9.603
 INTER:                  -8.832
 INTRA:                  -0.770
 UNBOUND:                -0.910
  Name = 
  8 active torsions:
  status: ('A' for Active; 'I' for Inactive)
    1  A    between atoms: C_1  and  C_2
    2  A    between atoms: C_4  and  C_5
    3  A    between atoms: N_6  and  C_7
    4  A    between atoms: C_7  and  C_8
    5  A    between atoms: C_11  and  C_12
    6  A    between atoms: N_14  and  C_15
    7  A    between atoms: C_15  and  C_16
    8  A    between atoms: N_20  and  C_21
                            x       y       z     vdW  Elec       q    Type
                         _______ _______ _______ _____ _____    ______ ____

>  <TORSDO>
F 8

$$$$
=
 OpenBabel07192307433D

 51 53  0  0  1  0  0  0  0  0999 V2000
    0.7120    9.9810   19.2780 C   0  0  0  0  0  0  0  0  0  0  0  0
    1.2500    9.5380   18.0580 C   0  0  0  0  0  0  0  0  0  0  0  0
    1.9620    8.3400   17.9880 C   0  0  0  0  0  0  0  0  0  0  0  0
    2.1610    7.5790   19.1460 C   0  0  0  0  0  0  0  0  0  0  0  0
    1.6390    8.0110   20.3700 C   0  0  0  0  0  0  0  0  0  0  0  0
    0.9180    9.2090   20.4340 C   0  0  0  0  0  0  0  0  0  0  0  0
    1.1020   10.1240   17.1460 H   0  0  0  0  0  0  0  0  0  0  0  0
    2.3570    8.0110   17.0300 H   0  0  0  0  0  0  0  0  0  0  0  0
    1.7510    7.4200   21.2760 H   0  0  0  0  0  0  0  0  0  0  0  0
    0.5090    9.5300   21.3900 H   0  0  0  0  0  0  0  0  0  0  0  0
    2.9110    6.3050   19.0250 C   0  0  0  0  0  0  0  0  0  0  0  0
    3.0530    5.5530   19.9860 O   0  0  0  0  0  0  0  0  0  0  0  0
    3.4480    5.9980   17.7850 N   0  0  0  0  0  0  0  0  0  0  0  0
    3.1220    6.5600   17.0000 H   0  0  0  0  0  0  0  0  0  0  0  0
    3.8120    4.6160   17.4880 C   0  0  0  0  0  0  0  0  0  0  0  0
    3.2650    4.3300   16.5830 H   0  0  0  0  0  0  0  0  0  0  0  0
    3.4350    3.9920   18.3090 H   0  0  0  0  0  0  0  0  0  0  0  0
    5.3230    4.3590   17.2770 C   0  0  2  0  0  0  0  0  0  0  0  0
    6.1460    4.7040   18.5250 C   0  0  0  0  0  0  0  0  0  0  0  0
    7.4980    5.0890   17.9620 C   0  0  0  0  0  0  0  0  0  0  0  0
    7.1520    5.9150   16.7380 C   0  0  0  0  0  0  0  0  0  0  0  0
    5.9280    5.2350   16.1810 N   0  0  0  0  0  4  0  0  0  0  0  0
    5.5000    3.3120   16.9770 H   0  0  0  0  0  0  0  0  0  0  0  0
    6.2150    3.8520   19.2180 H   0  0  0  0  0  0  0  0  0  0  0  0
    5.7080    5.5530   19.0760 H   0  0  0  0  0  0  0  0  0  0  0  0
    8.0530    4.1880   17.6620 H   0  0  0  0  0  0  0  0  0  0  0  0
    8.1070    5.6320   18.6850 H   0  0  0  0  0  0  0  0  0  0  0  0
    6.8490    6.9430   16.9730 H   0  0  0  0  0  0  0  0  0  0  0  0
    7.9520    5.9270   15.9800 H   0  0  0  0  0  0  0  0  0  0  0  0
    5.2250    5.9740   15.9510 H   0  0  0  0  0  0  0  0  0  0  0  0
    6.1840    4.5120   14.8930 C   0  0  0  0  0  0  0  0  0  0  0  0
    6.0500    5.2150   14.0700 H   0  0  0  0  0  0  0  0  0  0  0  0
    5.4790    3.6820   14.8150 H   0  0  0  0  0  0  0  0  0  0  0  0
    7.2150    4.1500   14.9140 H   0  0  0  0  0  0  0  0  0  0  0  0
   -0.0690   11.2780   19.3470 C   0  0  0  0  0  0  0  0  0  0  0  0
   -0.3830   11.6140   18.3520 H   0  0  0  0  0  0  0  0  0  0  0  0
   -0.9750   11.1380   19.9490 H   0  0  0  0  0  0  0  0  0  0  0  0
    2.2820   13.7800   20.0680 C   0  0  0  0  0  0  0  0  0  0  0  0
    1.5260   13.9120   21.2540 C   0  0  0  0  0  0  0  0  0  0  0  0
    0.5240   12.9700   21.1580 C   0  0  0  0  0  0  0  0  0  0  0  0
    0.7120   12.3570   19.9430 N   0  0  0  0  0  0  0  0  0  0  0  0
    1.7770   12.8390   19.2670 N   0  0  0  0  0  0  0  0  0  0  0  0
    1.7000   14.5930   22.0750 H   0  0  0  0  0  0  0  0  0  0  0  0
    3.4880   14.5360   19.6590 C   0  0  0  0  0  0  0  0  0  0  0  0
    4.0250   14.0090   18.8600 H   0  0  0  0  0  0  0  0  0  0  0  0
    3.2030   15.5210   19.2890 H   0  0  0  0  0  0  0  0  0  0  0  0
    4.1770   14.6720   20.4980 H   0  0  0  0  0  0  0  0  0  0  0  0
   -0.5630   12.6200   22.1070 C   0  0  0  0  0  0  0  0  0  0  0  0
   -1.2590   13.4580   22.2250 H   0  0  0  0  0  0  0  0  0  0  0  0
   -1.1200   11.7440   21.7580 H   0  0  0  0  0  0  0  0  0  0  0  0
   -0.1560   12.3860   23.0970 H   0  0  0  0  0  0  0  0  0  0  0  0
  1 35  1  0  0  0  0
  1  6  1  0  0  0  0
  2  1  2  0  0  0  0
  3  2  1  0  0  0  0
  3  4  2  0  0  0  0
  4  5  1  0  0  0  0
  5  6  2  0  0  0  0
  5  9  1  0  0  0  0
  6 10  1  0  0  0  0
  7  2  1  0  0  0  0
  8  3  1  0  0  0  0
 11  4  1  0  0  0  0
 11 12  2  0  0  0  0
 13 11  1  0  0  0  0
 14 13  1  0  0  0  0
 15 13  1  0  0  0  0
 15 17  1  0  0  0  0
 16 15  1  0  0  0  0
 18 23  1  6  0  0  0
 18 15  1  0  0  0  0
 18 19  1  0  0  0  0
 19 25  1  0  0  0  0
 19 24  1  0  0  0  0
 20 19  1  0  0  0  0
 20 27  1  0  0  0  0
 21 28  1  0  0  0  0
 21 20  1  0  0  0  0
 22 21  1  0  0  0  0
 22 18  1  0  0  0  0
 26 20  1  0  0  0  0
 29 21  1  0  0  0  0
 30 22  1  0  0  0  0
 31 34  1  0  0  0  0
 31 22  1  0  0  0  0
 32 31  1  0  0  0  0
 33 31  1  0  0  0  0
 35 41  1  0  0  0  0
 35 37  1  0  0  0  0
 36 35  1  0  0  0  0
 38 39  1  0  0  0  0
 39 43  1  0  0  0  0
 40 39  2  0  0  0  0
 40 48  1  0  0  0  0
 41 40  1  0  0  0  0
 42 41  1  0  0  0  0
 42 38  2  0  0  0  0
 44 38  1  0  0  0  0
 44 47  1  0  0  0  0
 45 44  1  0  0  0  0
 46 44  1  0  0  0  0
 48 49  1  0  0  0  0
 48 51  1  0  0  0  0
 50 48  1  0  0  0  0
M  END
>  <MODEL>
31

>  <REMARK>
 VINA RESULT:    -6.293      2.704      4.186
 INTER + INTRA:          -9.594
 INTER:                  -8.757
 INTRA:                  -0.836
 UNBOUND:                -0.910
  Name = 
  8 active torsions:
  status: ('A' for Active; 'I' for Inactive)
    1  A    between atoms: C_1  and  C_2
    2  A    between atoms: C_4  and  C_5
    3  A    between atoms: N_6  and  C_7
    4  A    between atoms: C_7  and  C_8
    5  A    between atoms: C_11  and  C_12
    6  A    between atoms: N_14  and  C_15
    7  A    between atoms: C_15  and  C_16
    8  A    between atoms: N_20  and  C_21
                            x       y       z     vdW  Elec       q    Type
                         _______ _______ _______ _____ _____    ______ ____

>  <TORSDO>
F 8

$$$$
=
 OpenBabel07192307433D

 51 53  0  0  1  0  0  0  0  0999 V2000
    1.2360   10.4190   19.0000 C   0  0  0  0  0  0  0  0  0  0  0  0
    1.8240    9.9170   17.8260 C   0  0  0  0  0  0  0  0  0  0  0  0
    2.2620    8.5940   17.7600 C   0  0  0  0  0  0  0  0  0  0  0  0
    2.1360    7.7610   18.8780 C   0  0  0  0  0  0  0  0  0  0  0  0
    1.5600    8.2480   20.0570 C   0  0  0  0  0  0  0  0  0  0  0  0
    1.1140    9.5730   20.1160 C   0  0  0  0  0  0  0  0  0  0  0  0
    1.9300   10.5580   16.9460 H   0  0  0  0  0  0  0  0  0  0  0  0
    2.7020    8.2250   16.8370 H   0  0  0  0  0  0  0  0  0  0  0  0
    1.4190    7.6100   20.9260 H   0  0  0  0  0  0  0  0  0  0  0  0
    0.6600    9.9390   21.0350 H   0  0  0  0  0  0  0  0  0  0  0  0
    2.6010    6.3570   18.7600 C   0  0  0  0  0  0  0  0  0  0  0  0
    2.2900    5.6580   17.7990 O   0  0  0  0  0  0  0  0  0  0  0  0
    3.3990    5.8650   19.7810 N   0  0  0  0  0  0  0  0  0  0  0  0
    3.7760    6.5520   20.4310 H   0  0  0  0  0  0  0  0  0  0  0  0
    4.2200    4.6830   19.5350 C   0  0  0  0  0  0  0  0  0  0  0  0
    5.0930    4.7590   20.1930 H   0  0  0  0  0  0  0  0  0  0  0  0
    4.5830    4.7420   18.5010 H   0  0  0  0  0  0  0  0  0  0  0  0
    3.5160    3.3250   19.7740 C   0  0  2  0  0  0  0  0  0  0  0  0
    3.3220    2.5410   18.4690 C   0  0  0  0  0  0  0  0  0  0  0  0
    2.0850    1.7100   18.7370 C   0  0  0  0  0  0  0  0  0  0  0  0
    1.1640    2.6670   19.4700 C   0  0  0  0  0  0  0  0  0  0  0  0
    2.1000    3.4790   20.3270 N   0  0  0  0  0  4  0  0  0  0  0  0
    4.0770    2.7220   20.5060 H   0  0  0  0  0  0  0  0  0  0  0  0
    4.1960    1.9160   18.2340 H   0  0  0  0  0  0  0  0  0  0  0  0
    3.1490    3.2150   17.6140 H   0  0  0  0  0  0  0  0  0  0  0  0
    2.3350    0.8590   19.3870 H   0  0  0  0  0  0  0  0  0  0  0  0
    1.6470    1.3140   17.8210 H   0  0  0  0  0  0  0  0  0  0  0  0
    0.6590    3.3820   18.8090 H   0  0  0  0  0  0  0  0  0  0  0  0
    0.4210    2.1570   20.1050 H   0  0  0  0  0  0  0  0  0  0  0  0
    1.8350    4.4860   20.2290 H   0  0  0  0  0  0  0  0  0  0  0  0
    1.9800    3.1760   21.7900 C   0  0  0  0  0  0  0  0  0  0  0  0
    1.7140    2.1250   21.9050 H   0  0  0  0  0  0  0  0  0  0  0  0
    1.2090    3.8220   22.2160 H   0  0  0  0  0  0  0  0  0  0  0  0
    2.9520    3.3700   22.2500 H   0  0  0  0  0  0  0  0  0  0  0  0
    0.7520   11.8530   19.0630 C   0  0  0  0  0  0  0  0  0  0  0  0
    1.3850   12.4640   19.7170 H   0  0  0  0  0  0  0  0  0  0  0  0
    0.7790   12.3030   18.0630 H   0  0  0  0  0  0  0  0  0  0  0  0
   -2.1330   12.2670   21.0170 C   0  0  0  0  0  0  0  0  0  0  0  0
   -2.7910   11.9360   19.8120 C   0  0  0  0  0  0  0  0  0  0  0  0
   -1.7870   11.7190   18.8920 C   0  0  0  0  0  0  0  0  0  0  0  0
   -0.6140   11.9490   19.5680 N   0  0  0  0  0  0  0  0  0  0  0  0
   -0.8060   12.2840   20.8620 N   0  0  0  0  0  0  0  0  0  0  0  0
   -3.8550   11.8510   19.6430 H   0  0  0  0  0  0  0  0  0  0  0  0
   -2.7320   12.5780   22.3360 C   0  0  0  0  0  0  0  0  0  0  0  0
   -3.0260   11.6580   22.8560 H   0  0  0  0  0  0  0  0  0  0  0  0
   -2.0090   13.1070   22.9560 H   0  0  0  0  0  0  0  0  0  0  0  0
   -3.6200   13.2080   22.2310 H   0  0  0  0  0  0  0  0  0  0  0  0
   -1.8600   11.3210   17.4640 C   0  0  0  0  0  0  0  0  0  0  0  0
   -2.8810   11.4330   17.0810 H   0  0  0  0  0  0  0  0  0  0  0  0
   -1.1850   11.9310   16.8530 H   0  0  0  0  0  0  0  0  0  0  0  0
   -1.5720   10.2710   17.3350 H   0  0  0  0  0  0  0  0  0  0  0  0
  1 35  1  0  0  0  0
  1  6  1  0  0  0  0
  2  1  2  0  0  0  0
  3  2  1  0  0  0  0
  3  4  2  0  0  0  0
  4  5  1  0  0  0  0
  5  6  2  0  0  0  0
  5  9  1  0  0  0  0
  6 10  1  0  0  0  0
  7  2  1  0  0  0  0
  8  3  1  0  0  0  0
 11  4  1  0  0  0  0
 11 13  1  0  0  0  0
 12 11  2  0  0  0  0
 13 14  1  0  0  0  0
 15 18  1  0  0  0  0
 15 13  1  0  0  0  0
 15 16  1  0  0  0  0
 17 15  1  0  0  0  0
 18 22  1  0  0  0  0
 18 23  1  1  0  0  0
 19 20  1  0  0  0  0
 19 18  1  0  0  0  0
 20 26  1  0  0  0  0
 20 21  1  0  0  0  0
 21 29  1  0  0  0  0
 21 22  1  0  0  0  0
 22 31  1  0  0  0  0
 24 19  1  0  0  0  0
 25 19  1  0  0  0  0
 27 20  1  0  0  0  0
 28 21  1  0  0  0  0
 30 22  1  0  0  0  0
 31 32  1  0  0  0  0
 31 33  1  0  0  0  0
 31 34  1  0  0  0  0
 35 41  1  0  0  0  0
 35 36  1  0  0  0  0
 37 35  1  0  0  0  0
 38 44  1  0  0  0  0
 39 38  1  0  0  0  0
 40 41  1  0  0  0  0
 40 39  2  0  0  0  0
 41 42  1  0  0  0  0
 42 38  2  0  0  0  0
 43 39  1  0  0  0  0
 44 45  1  0  0  0  0
 44 46  1  0  0  0  0
 47 44  1  0  0  0  0
 48 40  1  0  0  0  0
 49 48  1  0  0  0  0
 50 48  1  0  0  0  0
 51 48  1  0  0  0  0
M  END
>  <MODEL>
32

>  <REMARK>
 VINA RESULT:    -6.292      1.653      2.303
 INTER + INTRA:          -9.592
 INTER:                  -8.812
 INTRA:                  -0.780
 UNBOUND:                -0.910
  Name = 
  8 active torsions:
  status: ('A' for Active; 'I' for Inactive)
    1  A    between atoms: C_1  and  C_2
    2  A    between atoms: C_4  and  C_5
    3  A    between atoms: N_6  and  C_7
    4  A    between atoms: C_7  and  C_8
    5  A    between atoms: C_11  and  C_12
    6  A    between atoms: N_14  and  C_15
    7  A    between atoms: C_15  and  C_16
    8  A    between atoms: N_20  and  C_21
                            x       y       z     vdW  Elec       q    Type
                         _______ _______ _______ _____ _____    ______ ____

>  <TORSDO>
F 8

$$$$
=
 OpenBabel07192307433D

 51 53  0  0  1  0  0  0  0  0999 V2000
    2.3740    6.9730   19.7130 C   0  0  0  0  0  0  0  0  0  0  0  0
    1.6500    7.4560   20.8160 C   0  0  0  0  0  0  0  0  0  0  0  0
    0.9200    8.6420   20.7240 C   0  0  0  0  0  0  0  0  0  0  0  0
    0.9230    9.3710   19.5290 C   0  0  0  0  0  0  0  0  0  0  0  0
    1.6470    8.9080   18.4240 C   0  0  0  0  0  0  0  0  0  0  0  0
    2.3700    7.7140   18.5190 C   0  0  0  0  0  0  0  0  0  0  0  0
    1.6400    6.8960   21.7560 H   0  0  0  0  0  0  0  0  0  0  0  0
    0.3570    8.9880   21.5870 H   0  0  0  0  0  0  0  0  0  0  0  0
    1.6360    9.4390   17.4750 H   0  0  0  0  0  0  0  0  0  0  0  0
    2.9210    7.3590   17.6500 H   0  0  0  0  0  0  0  0  0  0  0  0
    0.1220   10.6180   19.4690 C   0  0  0  0  0  0  0  0  0  0  0  0
   -0.5090   11.0210   20.4440 O   0  0  0  0  0  0  0  0  0  0  0  0
    0.1110   11.3100   18.2680 N   0  0  0  0  0  0  0  0  0  0  0  0
    0.8080   11.0290   17.5800 H   0  0  0  0  0  0  0  0  0  0  0  0
   -0.2850   12.7150   18.2590 C   0  0  0  0  0  0  0  0  0  0  0  0
   -1.1200   12.8140   18.9620 H   0  0  0  0  0  0  0  0  0  0  0  0
   -0.6710   12.9430   17.2570 H   0  0  0  0  0  0  0  0  0  0  0  0
    0.8280   13.7200   18.6410 C   0  0  2  0  0  0  0  0  0  0  0  0
    2.2040   13.2780   18.1260 C   0  0  0  0  0  0  0  0  0  0  0  0
    3.1670   13.8840   19.1250 C   0  0  0  0  0  0  0  0  0  0  0  0
    2.4840   13.6590   20.4610 C   0  0  0  0  0  0  0  0  0  0  0  0
    1.0220   13.8470   20.1510 N   0  0  0  0  0  4  0  0  0  0  0  0
    0.5840   14.7280   18.2690 H   0  0  0  0  0  0  0  0  0  0  0  0
    2.3920   13.6350   17.1030 H   0  0  0  0  0  0  0  0  0  0  0  0
    2.3010   12.1800   18.1240 H   0  0  0  0  0  0  0  0  0  0  0  0
    3.2770   14.9620   18.9380 H   0  0  0  0  0  0  0  0  0  0  0  0
    4.1580   13.4320   19.0710 H   0  0  0  0  0  0  0  0  0  0  0  0
    2.5860   12.6340   20.8380 H   0  0  0  0  0  0  0  0  0  0  0  0
    2.7980   14.3750   21.2370 H   0  0  0  0  0  0  0  0  0  0  0  0
    0.4940   13.0630   20.5990 H   0  0  0  0  0  0  0  0  0  0  0  0
    0.4470   15.1010   20.7370 C   0  0  0  0  0  0  0  0  0  0  0  0
    0.2980   14.9470   21.8060 H   0  0  0  0  0  0  0  0  0  0  0  0
   -0.5010   15.3150   20.2380 H   0  0  0  0  0  0  0  0  0  0  0  0
    1.1670   15.9060   20.5710 H   0  0  0  0  0  0  0  0  0  0  0  0
    3.1570    5.6800   19.8150 C   0  0  0  0  0  0  0  0  0  0  0  0
    3.8990    5.7200   20.6200 H   0  0  0  0  0  0  0  0  0  0  0  0
    2.4780    4.8470   20.0320 H   0  0  0  0  0  0  0  0  0  0  0  0
    5.4740    5.4620   17.1890 C   0  0  0  0  0  0  0  0  0  0  0  0
    4.4850    4.6370   16.6100 C   0  0  0  0  0  0  0  0  0  0  0  0
    3.4500    4.6070   17.5220 C   0  0  0  0  0  0  0  0  0  0  0  0
    3.8730    5.3740   18.5800 N   0  0  0  0  0  0  0  0  0  0  0  0
    5.1020    5.9010   18.3940 N   0  0  0  0  0  0  0  0  0  0  0  0
    4.5160    4.1440   15.6480 H   0  0  0  0  0  0  0  0  0  0  0  0
    6.7890    5.8510   16.6280 C   0  0  0  0  0  0  0  0  0  0  0  0
    7.5870    5.2140   17.0280 H   0  0  0  0  0  0  0  0  0  0  0  0
    6.7760    5.7450   15.5440 H   0  0  0  0  0  0  0  0  0  0  0  0
    7.0320    6.8900   16.8680 H   0  0  0  0  0  0  0  0  0  0  0  0
    2.1330    3.9260   17.4610 C   0  0  0  0  0  0  0  0  0  0  0  0
    2.1880    3.0300   16.8320 H   0  0  0  0  0  0  0  0  0  0  0  0
    1.7970    3.6350   18.4620 H   0  0  0  0  0  0  0  0  0  0  0  0
    1.3710    4.5860   17.0310 H   0  0  0  0  0  0  0  0  0  0  0  0
  1 35  1  0  0  0  0
  1  2  1  0  0  0  0
  2  7  1  0  0  0  0
  3  2  2  0  0  0  0
  3  8  1  0  0  0  0
  4  3  1  0  0  0  0
  5  6  1  0  0  0  0
  5  4  2  0  0  0  0
  6  1  2  0  0  0  0
  9  5  1  0  0  0  0
 10  6  1  0  0  0  0
 11  4  1  0  0  0  0
 11 12  2  0  0  0  0
 13 11  1  0  0  0  0
 14 13  1  0  0  0  0
 15 13  1  0  0  0  0
 15 18  1  0  0  0  0
 15 16  1  0  0  0  0
 17 15  1  0  0  0  0
 18 23  1  6  0  0  0
 18 22  1  0  0  0  0
 19 18  1  0  0  0  0
 19 20  1  0  0  0  0
 20 21  1  0  0  0  0
 21 28  1  0  0  0  0
 21 29  1  0  0  0  0
 22 21  1  0  0  0  0
 22 30  1  0  0  0  0
 22 31  1  0  0  0  0
 24 19  1  0  0  0  0
 25 19  1  0  0  0  0
 26 20  1  0  0  0  0
 27 20  1  0  0  0  0
 31 32  1  0  0  0  0
 33 31  1  0  0  0  0
 34 31  1  0  0  0  0
 35 37  1  0  0  0  0
 35 36  1  0  0  0  0
 38 42  2  0  0  0  0
 39 38  1  0  0  0  0
 39 40  2  0  0  0  0
 40 41  1  0  0  0  0
 41 35  1  0  0  0  0
 42 41  1  0  0  0  0
 43 39  1  0  0  0  0
 44 47  1  0  0  0  0
 44 45  1  0  0  0  0
 44 38  1  0  0  0  0
 46 44  1  0  0  0  0
 48 40  1  0  0  0  0
 48 50  1  0  0  0  0
 49 48  1  0  0  0  0
 51 48  1  0  0  0  0
M  END
>  <MODEL>
33

>  <REMARK>
 VINA RESULT:    -6.249      2.596      8.429
 INTER + INTRA:          -9.533
 INTER:                  -8.624
 INTRA:                  -0.910
 UNBOUND:                -0.910
  Name = 
  8 active torsions:
  status: ('A' for Active; 'I' for Inactive)
    1  A    between atoms: C_1  and  C_2
    2  A    between atoms: C_4  and  C_5
    3  A    between atoms: N_6  and  C_7
    4  A    between atoms: C_7  and  C_8
    5  A    between atoms: C_11  and  C_12
    6  A    between atoms: N_14  and  C_15
    7  A    between atoms: C_15  and  C_16
    8  A    between atoms: N_20  and  C_21
                            x       y       z     vdW  Elec       q    Type
                         _______ _______ _______ _____ _____    ______ ____

>  <TORSDO>
F 8

$$$$
