=
 OpenBabel07192307433D

 48 50  0  0  1  0  0  0  0  0999 V2000
    1.5750    4.1130   20.4200 C   0  0  1  0  0  0  0  0  0  0  0  0
    0.4870    3.1450   19.9220 C   0  0  0  0  0  0  0  0  0  0  0  0
    0.9790    2.1860   18.8350 C   0  0  0  0  0  0  0  0  0  0  0  0
    2.0530    2.8060   17.9530 C   0  0  0  0  0  0  0  0  0  0  0  0
    3.1990    3.2850   18.7230 N   0  0  0  0  0  0  0  0  0  0  0  0
    4.3630    3.6030   18.0250 C   0  0  0  0  0  0  0  0  0  0  0  0
    4.3840    3.5860   16.7920 O   0  0  0  0  0  0  0  0  0  0  0  0
    2.9850    3.5490   20.1560 C   0  0  0  0  0  0  0  0  0  0  0  0
    1.4470    4.2630   21.4980 H   0  0  0  0  0  0  0  0  0  0  0  0
    0.1250    2.5420   20.7650 H   0  0  0  0  0  0  0  0  0  0  0  0
   -0.3820    3.7020   19.5540 H   0  0  0  0  0  0  0  0  0  0  0  0
    1.3910    1.2890   19.3180 H   0  0  0  0  0  0  0  0  0  0  0  0
    0.1340    1.8450   18.2260 H   0  0  0  0  0  0  0  0  0  0  0  0
    1.6480    3.6600   17.3970 H   0  0  0  0  0  0  0  0  0  0  0  0
    2.4020    2.0750   17.2130 H   0  0  0  0  0  0  0  0  0  0  0  0
    3.7400    4.2410   20.5350 H   0  0  0  0  0  0  0  0  0  0  0  0
    3.1160    2.5970   20.6820 H   0  0  0  0  0  0  0  0  0  0  0  0
    2.3530    6.5920   21.5290 O   0  0  0  0  0  0  0  0  0  0  0  0
    1.8410    6.5710   20.4180 C   0  0  0  0  0  0  0  0  0  0  0  0
    1.4110    5.4260   19.7890 N   0  0  0  0  0  0  0  0  0  0  0  0
    1.2500    5.4410   18.7870 H   0  0  0  0  0  0  0  0  0  0  0  0
    1.7240    7.8230   19.6460 C   0  0  0  0  0  0  0  0  0  0  0  0
    2.4400    7.9080   18.4440 C   0  0  0  0  0  0  0  0  0  0  0  0
    2.3440    9.0550   17.6650 C   0  0  0  0  0  0  0  0  0  0  0  0
    1.5460   10.0880   18.1190 C   0  0  0  0  0  0  0  0  0  0  0  0
    0.8620   10.0480   19.2850 N   0  0  0  0  0  0  0  0  0  0  0  0
    0.9640    8.9200   20.0590 C   0  0  0  0  0  0  0  0  0  0  0  0
    3.0580    7.0760   18.1140 H   0  0  0  0  0  0  0  0  0  0  0  0
    2.8730    9.1340   16.7220 H   0  0  0  0  0  0  0  0  0  0  0  0
    1.4300   11.0030   17.5430 H   0  0  0  0  0  0  0  0  0  0  0  0
    0.2060    8.8890   21.3760 C   0  0  0  0  0  0  0  0  0  0  0  0
   -0.6110    9.9780   21.5210 F   0  0  0  0  0  0  0  0  0  0  0  0
   -0.5960    7.7960   21.5250 F   0  0  0  0  0  0  0  0  0  0  0  0
    1.0110    8.8920   22.4790 F   0  0  0  0  0  0  0  0  0  0  0  0
    5.5850    3.9850   18.8540 C   0  0  0  0  0  0  0  0  0  0  0  0
    6.3390    3.1900   18.7910 H   0  0  0  0  0  0  0  0  0  0  0  0
    5.2760    4.0610   19.9040 H   0  0  0  0  0  0  0  0  0  0  0  0
    6.2450    5.2750   18.4250 C   0  0  0  0  0  0  0  0  0  0  0  0
    7.4790    5.6630   18.9620 C   0  0  0  0  0  0  0  0  0  0  0  0
    8.0820    6.8570   18.5630 C   0  0  0  0  0  0  0  0  0  0  0  0
    7.4520    7.6760   17.6270 C   0  0  0  0  0  0  0  0  0  0  0  0
    6.2180    7.3070   17.0950 C   0  0  0  0  0  0  0  0  0  0  0  0
    5.6150    6.1150   17.4940 C   0  0  0  0  0  0  0  0  0  0  0  0
    7.9770    5.0410   19.7030 H   0  0  0  0  0  0  0  0  0  0  0  0
    9.0380    7.1510   18.9860 H   0  0  0  0  0  0  0  0  0  0  0  0
    7.9200    8.6080   17.3200 H   0  0  0  0  0  0  0  0  0  0  0  0
    5.7220    7.9530   16.3760 H   0  0  0  0  0  0  0  0  0  0  0  0
    4.6470    5.8450   17.0770 H   0  0  0  0  0  0  0  0  0  0  0  0
  1  9  1  1  0  0  0
  2  1  1  0  0  0  0
  2 10  1  0  0  0  0
  3 12  1  0  0  0  0
  3  2  1  0  0  0  0
  4  5  1  0  0  0  0
  4  3  1  0  0  0  0
  5  8  1  0  0  0  0
  6  5  1  0  0  0  0
  6 35  1  0  0  0  0
  7  6  2  0  0  0  0
  8  1  1  0  0  0  0
  8 16  1  0  0  0  0
  8 17  1  0  0  0  0
 11  2  1  0  0  0  0
 13  3  1  0  0  0  0
 14  4  1  0  0  0  0
 15  4  1  0  0  0  0
 19 18  2  0  0  0  0
 20 19  1  0  0  0  0
 20  1  1  0  0  0  0
 21 20  1  0  0  0  0
 22 27  1  0  0  0  0
 22 19  1  0  0  0  0
 23 22  2  0  0  0  0
 24 25  2  0  0  0  0
 24 23  1  0  0  0  0
 25 26  1  0  0  0  0
 26 27  2  0  0  0  0
 27 31  1  0  0  0  0
 28 23  1  0  0  0  0
 29 24  1  0  0  0  0
 30 25  1  0  0  0  0
 31 32  1  0  0  0  0
 31 33  1  0  0  0  0
 31 34  1  0  0  0  0
 35 37  1  0  0  0  0
 36 35  1  0  0  0  0
 38 35  1  0  0  0  0
 38 39  1  0  0  0  0
 39 44  1  0  0  0  0
 40 39  2  0  0  0  0
 40 45  1  0  0  0  0
 41 40  1  0  0  0  0
 42 43  1  0  0  0  0
 42 41  2  0  0  0  0
 43 38  2  0  0  0  0
 46 41  1  0  0  0  0
 47 42  1  0  0  0  0
 48 43  1  0  0  0  0
M  END
>  <MODEL>
1

>  <REMARK>
 VINA RESULT:    -8.313      0.000      0.000
 INTER + INTRA:         -10.738
 INTER:                 -10.174
 INTRA:                  -0.563
 UNBOUND:                 0.005
  Name = 
  5 active torsions:
  status: ('A' for Active; 'I' for Inactive)
    1  A    between atoms: C_2  and  C_19
    2  A    between atoms: N_3  and  C_4
    3  A    between atoms: C_9  and  C_11
    4  A    between atoms: C_11  and  C_12
    5  A    between atoms: C_24  and  C_25
                            x       y       z     vdW  Elec       q    Type
                         _______ _______ _______ _____ _____    ______ ____

>  <TORSDO>
F 5

$$$$
=
 OpenBabel07192307433D

 48 50  0  0  1  0  0  0  0  0999 V2000
    3.2400    3.4860   20.4520 C   0  0  1  0  0  0  0  0  0  0  0  0
    1.9890    2.6900   20.0420 C   0  0  0  0  0  0  0  0  0  0  0  0
    2.0400    2.1780   18.6000 C   0  0  0  0  0  0  0  0  0  0  0  0
    2.8120    3.1110   17.6780 C   0  0  0  0  0  0  0  0  0  0  0  0
    4.1740    3.3600   18.1470 N   0  0  0  0  0  0  0  0  0  0  0  0
    5.0690    3.9510   17.2570 C   0  0  0  0  0  0  0  0  0  0  0  0
    4.6900    4.3510   16.1540 O   0  0  0  0  0  0  0  0  0  0  0  0
    4.4500    3.1140   19.5720 C   0  0  0  0  0  0  0  0  0  0  0  0
    3.4770    3.2580   21.4980 H   0  0  0  0  0  0  0  0  0  0  0  0
    1.8790    1.8210   20.7040 H   0  0  0  0  0  0  0  0  0  0  0  0
    1.0870    3.2950   20.1850 H   0  0  0  0  0  0  0  0  0  0  0  0
    2.5260    1.1930   18.5940 H   0  0  0  0  0  0  0  0  0  0  0  0
    1.0240    2.0220   18.2210 H   0  0  0  0  0  0  0  0  0  0  0  0
    2.3060    4.0820   17.6030 H   0  0  0  0  0  0  0  0  0  0  0  0
    2.8550    2.6910   16.6660 H   0  0  0  0  0  0  0  0  0  0  0  0
    5.3310    3.6750   19.8940 H   0  0  0  0  0  0  0  0  0  0  0  0
    4.6810    2.0480   19.6770 H   0  0  0  0  0  0  0  0  0  0  0  0
    0.6860    4.6920   20.4770 O   0  0  0  0  0  0  0  0  0  0  0  0
    1.6790    5.4040   20.4200 C   0  0  0  0  0  0  0  0  0  0  0  0
    2.9680    4.9250   20.3860 N   0  0  0  0  0  0  0  0  0  0  0  0
    3.7360    5.5520   20.6080 H   0  0  0  0  0  0  0  0  0  0  0  0
    1.5290    6.8710   20.4570 C   0  0  0  0  0  0  0  0  0  0  0  0
    0.9140    7.4280   21.5860 C   0  0  0  0  0  0  0  0  0  0  0  0
    0.7710    8.8070   21.6830 C   0  0  0  0  0  0  0  0  0  0  0  0
    1.2350    9.5870   20.6410 C   0  0  0  0  0  0  0  0  0  0  0  0
    1.8110    9.0800   19.5270 N   0  0  0  0  0  0  0  0  0  0  0  0
    1.9430    7.7180   19.4260 C   0  0  0  0  0  0  0  0  0  0  0  0
    0.5600    6.7860   22.3910 H   0  0  0  0  0  0  0  0  0  0  0  0
    0.3160    9.2600   22.5570 H   0  0  0  0  0  0  0  0  0  0  0  0
    1.1550   10.6700   20.6710 H   0  0  0  0  0  0  0  0  0  0  0  0
    2.5770    7.1560   18.1640 C   0  0  0  0  0  0  0  0  0  0  0  0
    2.6540    8.0930   17.1700 F   0  0  0  0  0  0  0  0  0  0  0  0
    3.8470    6.6930   18.3440 F   0  0  0  0  0  0  0  0  0  0  0  0
    1.8900    6.1080   17.6200 F   0  0  0  0  0  0  0  0  0  0  0  0
    6.5150    4.0910   17.7210 C   0  0  0  0  0  0  0  0  0  0  0  0
    7.1790    3.5530   17.0330 H   0  0  0  0  0  0  0  0  0  0  0  0
    6.6060    3.6140   18.7050 H   0  0  0  0  0  0  0  0  0  0  0  0
    7.0020    5.5200   17.8040 C   0  0  0  0  0  0  0  0  0  0  0  0
    6.6160    6.4650   16.8430 C   0  0  0  0  0  0  0  0  0  0  0  0
    7.0710    7.7820   16.9250 C   0  0  0  0  0  0  0  0  0  0  0  0
    7.9190    8.1640   17.9620 C   0  0  0  0  0  0  0  0  0  0  0  0
    8.3200    7.2300   18.9150 C   0  0  0  0  0  0  0  0  0  0  0  0
    7.8670    5.9120   18.8350 C   0  0  0  0  0  0  0  0  0  0  0  0
    5.9650    6.1800   16.0210 H   0  0  0  0  0  0  0  0  0  0  0  0
    6.7680    8.5080   16.1750 H   0  0  0  0  0  0  0  0  0  0  0  0
    8.2770    9.1880   18.0220 H   0  0  0  0  0  0  0  0  0  0  0  0
    8.9920    7.5250   19.7170 H   0  0  0  0  0  0  0  0  0  0  0  0
    8.1950    5.1930   19.5820 H   0  0  0  0  0  0  0  0  0  0  0  0
  1  9  1  1  0  0  0
  2 11  1  0  0  0  0
  2  1  1  0  0  0  0
  2 10  1  0  0  0  0
  3  2  1  0  0  0  0
  4  5  1  0  0  0  0
  4  3  1  0  0  0  0
  5  8  1  0  0  0  0
  6 35  1  0  0  0  0
  6  5  1  0  0  0  0
  7  6  2  0  0  0  0
  8 17  1  0  0  0  0
  8 16  1  0  0  0  0
  8  1  1  0  0  0  0
 12  3  1  0  0  0  0
 13  3  1  0  0  0  0
 14  4  1  0  0  0  0
 15  4  1  0  0  0  0
 19 22  1  0  0  0  0
 19 18  2  0  0  0  0
 20 19  1  0  0  0  0
 20  1  1  0  0  0  0
 20 21  1  0  0  0  0
 22 23  1  0  0  0  0
 23 24  2  0  0  0  0
 23 28  1  0  0  0  0
 24 29  1  0  0  0  0
 25 30  1  0  0  0  0
 25 24  1  0  0  0  0
 26 25  2  0  0  0  0
 27 26  1  0  0  0  0
 27 22  2  0  0  0  0
 31 33  1  0  0  0  0
 31 27  1  0  0  0  0
 32 31  1  0  0  0  0
 34 31  1  0  0  0  0
 35 38  1  0  0  0  0
 35 37  1  0  0  0  0
 36 35  1  0  0  0  0
 38 43  1  0  0  0  0
 39 40  1  0  0  0  0
 39 38  2  0  0  0  0
 40 41  2  0  0  0  0
 41 46  1  0  0  0  0
 41 42  1  0  0  0  0
 42 47  1  0  0  0  0
 43 42  2  0  0  0  0
 43 48  1  0  0  0  0
 44 39  1  0  0  0  0
 45 40  1  0  0  0  0
M  END
>  <MODEL>
2

>  <REMARK>
 VINA RESULT:    -7.568      2.149      2.765
 INTER + INTRA:          -9.775
 INTER:                 -10.024
 INTRA:                   0.249
 UNBOUND:                 0.005
  Name = 
  5 active torsions:
  status: ('A' for Active; 'I' for Inactive)
    1  A    between atoms: C_2  and  C_19
    2  A    between atoms: N_3  and  C_4
    3  A    between atoms: C_9  and  C_11
    4  A    between atoms: C_11  and  C_12
    5  A    between atoms: C_24  and  C_25
                            x       y       z     vdW  Elec       q    Type
                         _______ _______ _______ _____ _____    ______ ____

>  <TORSDO>
F 5

$$$$
=
 OpenBabel07192307433D

 48 50  0  0  1  0  0  0  0  0999 V2000
    0.4020   10.9880   20.7980 C   0  0  1  0  0  0  0  0  0  0  0  0
   -0.7860   11.5070   19.9680 C   0  0  0  0  0  0  0  0  0  0  0  0
   -1.0620   10.6740   18.7140 C   0  0  0  0  0  0  0  0  0  0  0  0
    0.2060   10.0700   18.1250 C   0  0  0  0  0  0  0  0  0  0  0  0
    0.9370    9.2540   19.0930 N   0  0  0  0  0  0  0  0  0  0  0  0
    1.9420    8.4190   18.6080 C   0  0  0  0  0  0  0  0  0  0  0  0
    2.2750    8.4540   17.4210 O   0  0  0  0  0  0  0  0  0  0  0  0
    0.6650    9.4950   20.5200 C   0  0  0  0  0  0  0  0  0  0  0  0
    0.1720   11.1170   21.8620 H   0  0  0  0  0  0  0  0  0  0  0  0
   -1.6930   11.4950   20.5870 H   0  0  0  0  0  0  0  0  0  0  0  0
   -0.6270   12.5540   19.6860 H   0  0  0  0  0  0  0  0  0  0  0  0
   -1.7520    9.8600   18.9770 H   0  0  0  0  0  0  0  0  0  0  0  0
   -1.5780   11.2840   17.9650 H   0  0  0  0  0  0  0  0  0  0  0  0
    0.8830   10.8610   17.7810 H   0  0  0  0  0  0  0  0  0  0  0  0
   -0.0410    9.4540   17.2520 H   0  0  0  0  0  0  0  0  0  0  0  0
    1.4970    9.1420   21.1330 H   0  0  0  0  0  0  0  0  0  0  0  0
   -0.2160    8.8990   20.7850 H   0  0  0  0  0  0  0  0  0  0  0  0
    0.7290   13.7310   21.3890 O   0  0  0  0  0  0  0  0  0  0  0  0
    1.6530   13.1200   20.8690 C   0  0  0  0  0  0  0  0  0  0  0  0
    1.5990   11.7890   20.5240 N   0  0  0  0  0  0  0  0  0  0  0  0
    2.4630   11.2860   20.3530 H   0  0  0  0  0  0  0  0  0  0  0  0
    2.9430   13.7990   20.6460 C   0  0  0  0  0  0  0  0  0  0  0  0
    3.7950   13.9430   21.7490 C   0  0  0  0  0  0  0  0  0  0  0  0
    5.0340   14.5520   21.5890 C   0  0  0  0  0  0  0  0  0  0  0  0
    5.3770   15.0130   20.3320 C   0  0  0  0  0  0  0  0  0  0  0  0
    4.5690   14.9130   19.2520 N   0  0  0  0  0  0  0  0  0  0  0  0
    3.3410   14.3200   19.4130 C   0  0  0  0  0  0  0  0  0  0  0  0
    3.4960   13.5670   22.7260 H   0  0  0  0  0  0  0  0  0  0  0  0
    5.7170   14.6550   22.4240 H   0  0  0  0  0  0  0  0  0  0  0  0
    6.3380   15.4890   20.1500 H   0  0  0  0  0  0  0  0  0  0  0  0
    2.4320   14.2260   18.1980 C   0  0  0  0  0  0  0  0  0  0  0  0
    2.9050   14.9630   17.1470 F   0  0  0  0  0  0  0  0  0  0  0  0
    2.2740   12.9560   17.7250 F   0  0  0  0  0  0  0  0  0  0  0  0
    1.1640   14.6830   18.4190 F   0  0  0  0  0  0  0  0  0  0  0  0
    2.6110    7.4850   19.6130 C   0  0  0  0  0  0  0  0  0  0  0  0
    2.4030    7.8290   20.6330 H   0  0  0  0  0  0  0  0  0  0  0  0
    3.6960    7.5430   19.4620 H   0  0  0  0  0  0  0  0  0  0  0  0
    2.1600    6.0460   19.5130 C   0  0  0  0  0  0  0  0  0  0  0  0
    2.2990    5.3330   18.3150 C   0  0  0  0  0  0  0  0  0  0  0  0
    1.8790    4.0040   18.2300 C   0  0  0  0  0  0  0  0  0  0  0  0
    1.3110    3.3800   19.3390 C   0  0  0  0  0  0  0  0  0  0  0  0
    1.1560    4.0840   20.5320 C   0  0  0  0  0  0  0  0  0  0  0  0
    1.5750    5.4120   20.6190 C   0  0  0  0  0  0  0  0  0  0  0  0
    2.7280    5.8090   17.4370 H   0  0  0  0  0  0  0  0  0  0  0  0
    1.9880    3.4590   17.2970 H   0  0  0  0  0  0  0  0  0  0  0  0
    0.9800    2.3480   19.2710 H   0  0  0  0  0  0  0  0  0  0  0  0
    0.7010    3.6000   21.3930 H   0  0  0  0  0  0  0  0  0  0  0  0
    1.4390    5.9500   21.5540 H   0  0  0  0  0  0  0  0  0  0  0  0
  1  9  1  1  0  0  0
  2 10  1  0  0  0  0
  2  1  1  0  0  0  0
  3 12  1  0  0  0  0
  3  2  1  0  0  0  0
  4  3  1  0  0  0  0
  4  5  1  0  0  0  0
  5  8  1  0  0  0  0
  6  5  1  0  0  0  0
  6 35  1  0  0  0  0
  7  6  2  0  0  0  0
  8 17  1  0  0  0  0
  8  1  1  0  0  0  0
  8 16  1  0  0  0  0
 11  2  1  0  0  0  0
 13  3  1  0  0  0  0
 14  4  1  0  0  0  0
 15  4  1  0  0  0  0
 19 18  2  0  0  0  0
 20  1  1  0  0  0  0
 20 19  1  0  0  0  0
 21 20  1  0  0  0  0
 22 19  1  0  0  0  0
 22 23  1  0  0  0  0
 23 28  1  0  0  0  0
 24 23  2  0  0  0  0
 24 29  1  0  0  0  0
 25 24  1  0  0  0  0
 26 27  1  0  0  0  0
 26 25  2  0  0  0  0
 27 22  2  0  0  0  0
 30 25  1  0  0  0  0
 31 34  1  0  0  0  0
 31 27  1  0  0  0  0
 32 31  1  0  0  0  0
 33 31  1  0  0  0  0
 35 36  1  0  0  0  0
 37 35  1  0  0  0  0
 38 35  1  0  0  0  0
 38 43  1  0  0  0  0
 39 38  2  0  0  0  0
 40 39  1  0  0  0  0
 40 41  2  0  0  0  0
 41 42  1  0  0  0  0
 42 43  2  0  0  0  0
 42 47  1  0  0  0  0
 43 48  1  0  0  0  0
 44 39  1  0  0  0  0
 45 40  1  0  0  0  0
 46 41  1  0  0  0  0
M  END
>  <MODEL>
3

>  <REMARK>
 VINA RESULT:    -7.240      4.133      6.638
 INTER + INTRA:          -9.351
 INTER:                  -8.761
 INTRA:                  -0.590
 UNBOUND:                 0.005
  Name = 
  5 active torsions:
  status: ('A' for Active; 'I' for Inactive)
    1  A    between atoms: C_2  and  C_19
    2  A    between atoms: N_3  and  C_4
    3  A    between atoms: C_9  and  C_11
    4  A    between atoms: C_11  and  C_12
    5  A    between atoms: C_24  and  C_25
                            x       y       z     vdW  Elec       q    Type
                         _______ _______ _______ _____ _____    ______ ____

>  <TORSDO>
F 5

$$$$
=
 OpenBabel07192307433D

 48 50  0  0  1  0  0  0  0  0999 V2000
    2.9570    4.6860   20.7050 C   0  0  1  0  0  0  0  0  0  0  0  0
    1.5970    4.0980   21.1200 C   0  0  0  0  0  0  0  0  0  0  0  0
    1.0820    3.0220   20.1610 C   0  0  0  0  0  0  0  0  0  0  0  0
    1.5130    3.2680   18.7230 C   0  0  0  0  0  0  0  0  0  0  0  0
    2.9650    3.3780   18.5860 N   0  0  0  0  0  0  0  0  0  0  0  0
    3.5020    3.3110   17.3020 C   0  0  0  0  0  0  0  0  0  0  0  0
    2.7680    3.2750   16.3110 O   0  0  0  0  0  0  0  0  0  0  0  0
    3.7320    3.7100   19.7980 C   0  0  0  0  0  0  0  0  0  0  0  0
    3.5480    4.8800   21.6070 H   0  0  0  0  0  0  0  0  0  0  0  0
    1.6870    3.6460   22.1170 H   0  0  0  0  0  0  0  0  0  0  0  0
    0.8500    4.8930   21.2160 H   0  0  0  0  0  0  0  0  0  0  0  0
    1.4710    2.0470   20.4850 H   0  0  0  0  0  0  0  0  0  0  0  0
   -0.0100    2.9530   20.2260 H   0  0  0  0  0  0  0  0  0  0  0  0
    1.0750    4.2000   18.3450 H   0  0  0  0  0  0  0  0  0  0  0  0
    1.1550    2.4580   18.0770 H   0  0  0  0  0  0  0  0  0  0  0  0
    4.7010    4.1380   19.5320 H   0  0  0  0  0  0  0  0  0  0  0  0
    3.9210    2.7700   20.3280 H   0  0  0  0  0  0  0  0  0  0  0  0
    0.7750    6.4400   21.0850 O   0  0  0  0  0  0  0  0  0  0  0  0
    1.6690    6.7600   20.3130 C   0  0  0  0  0  0  0  0  0  0  0  0
    2.7670    5.9790   20.0390 N   0  0  0  0  0  0  0  0  0  0  0  0
    3.5840    6.4040   19.6120 H   0  0  0  0  0  0  0  0  0  0  0  0
    1.6350    8.0870   19.6680 C   0  0  0  0  0  0  0  0  0  0  0  0
    2.1580    8.1870   18.3720 C   0  0  0  0  0  0  0  0  0  0  0  0
    2.1280    9.4080   17.7090 C   0  0  0  0  0  0  0  0  0  0  0  0
    1.5880   10.4960   18.3690 C   0  0  0  0  0  0  0  0  0  0  0  0
    1.0980   10.4400   19.6280 N   0  0  0  0  0  0  0  0  0  0  0  0
    1.1370    9.2360   20.2860 C   0  0  0  0  0  0  0  0  0  0  0  0
    2.5750    7.3110   17.8790 H   0  0  0  0  0  0  0  0  0  0  0  0
    2.5080    9.5040   16.6990 H   0  0  0  0  0  0  0  0  0  0  0  0
    1.5320   11.4720   17.8920 H   0  0  0  0  0  0  0  0  0  0  0  0
    0.5980    9.1840   21.7070 C   0  0  0  0  0  0  0  0  0  0  0  0
   -0.5350    8.4240   21.7970 F   0  0  0  0  0  0  0  0  0  0  0  0
    1.4760    8.6590   22.6100 F   0  0  0  0  0  0  0  0  0  0  0  0
    0.2560   10.4050   22.2140 F   0  0  0  0  0  0  0  0  0  0  0  0
    5.0230    3.3040   17.1870 C   0  0  0  0  0  0  0  0  0  0  0  0
    5.3210    2.8740   16.2230 H   0  0  0  0  0  0  0  0  0  0  0  0
    5.4220    2.6510   17.9750 H   0  0  0  0  0  0  0  0  0  0  0  0
    5.6570    4.6720   17.2930 C   0  0  0  0  0  0  0  0  0  0  0  0
    4.9600    5.8180   16.8880 C   0  0  0  0  0  0  0  0  0  0  0  0
    5.5520    7.0780   16.9870 C   0  0  0  0  0  0  0  0  0  0  0  0
    6.8480    7.2030   17.4860 C   0  0  0  0  0  0  0  0  0  0  0  0
    7.5560    6.0690   17.8790 C   0  0  0  0  0  0  0  0  0  0  0  0
    6.9650    4.8080   17.7800 C   0  0  0  0  0  0  0  0  0  0  0  0
    3.9530    5.7370   16.4850 H   0  0  0  0  0  0  0  0  0  0  0  0
    5.0060    7.9610   16.6690 H   0  0  0  0  0  0  0  0  0  0  0  0
    7.3100    8.1830   17.5580 H   0  0  0  0  0  0  0  0  0  0  0  0
    8.5700    6.1650   18.2560 H   0  0  0  0  0  0  0  0  0  0  0  0
    7.5340    3.9320   18.0840 H   0  0  0  0  0  0  0  0  0  0  0  0
  1  2  1  0  0  0  0
  1  9  1  1  0  0  0
  2 11  1  0  0  0  0
  2 10  1  0  0  0  0
  3 13  1  0  0  0  0
  3 12  1  0  0  0  0
  3  2  1  0  0  0  0
  4  3  1  0  0  0  0
  5  4  1  0  0  0  0
  5  8  1  0  0  0  0
  6  5  1  0  0  0  0
  7  6  2  0  0  0  0
  8 17  1  0  0  0  0
  8  1  1  0  0  0  0
 14  4  1  0  0  0  0
 15  4  1  0  0  0  0
 16  8  1  0  0  0  0
 19 18  2  0  0  0  0
 20 19  1  0  0  0  0
 20  1  1  0  0  0  0
 21 20  1  0  0  0  0
 22 27  1  0  0  0  0
 22 19  1  0  0  0  0
 23 22  2  0  0  0  0
 24 25  2  0  0  0  0
 24 23  1  0  0  0  0
 25 26  1  0  0  0  0
 26 27  2  0  0  0  0
 27 31  1  0  0  0  0
 28 23  1  0  0  0  0
 29 24  1  0  0  0  0
 30 25  1  0  0  0  0
 31 32  1  0  0  0  0
 31 34  1  0  0  0  0
 31 33  1  0  0  0  0
 35 38  1  0  0  0  0
 35  6  1  0  0  0  0
 35 37  1  0  0  0  0
 36 35  1  0  0  0  0
 38 43  1  0  0  0  0
 39 40  1  0  0  0  0
 39 38  2  0  0  0  0
 40 41  2  0  0  0  0
 41 46  1  0  0  0  0
 41 42  1  0  0  0  0
 42 47  1  0  0  0  0
 43 42  2  0  0  0  0
 43 48  1  0  0  0  0
 44 39  1  0  0  0  0
 45 40  1  0  0  0  0
M  END
>  <MODEL>
4

>  <REMARK>
 VINA RESULT:    -7.119      0.962      1.535
 INTER + INTRA:          -9.195
 INTER:                 -10.122
 INTRA:                   0.927
 UNBOUND:                 0.005
  Name = 
  5 active torsions:
  status: ('A' for Active; 'I' for Inactive)
    1  A    between atoms: C_2  and  C_19
    2  A    between atoms: N_3  and  C_4
    3  A    between atoms: C_9  and  C_11
    4  A    between atoms: C_11  and  C_12
    5  A    between atoms: C_24  and  C_25
                            x       y       z     vdW  Elec       q    Type
                         _______ _______ _______ _____ _____    ______ ____

>  <TORSDO>
F 5

$$$$
=
 OpenBabel07192307433D

 48 50  0  0  1  0  0  0  0  0999 V2000
    6.6680    4.0250   17.1990 C   0  0  1  0  0  0  0  0  0  0  0  0
    5.9110    3.8520   15.8700 C   0  0  0  0  0  0  0  0  0  0  0  0
    5.7880    5.1500   15.0680 C   0  0  0  0  0  0  0  0  0  0  0  0
    5.6990    6.3810   15.9590 C   0  0  0  0  0  0  0  0  0  0  0  0
    6.8330    6.4890   16.8760 N   0  0  0  0  0  0  0  0  0  0  0  0
    7.0220    7.7040   17.5320 C   0  0  0  0  0  0  0  0  0  0  0  0
    6.1960    8.6140   17.4260 O   0  0  0  0  0  0  0  0  0  0  0  0
    7.5920    5.2590   17.1570 C   0  0  0  0  0  0  0  0  0  0  0  0
    7.2760    3.1310   17.3780 H   0  0  0  0  0  0  0  0  0  0  0  0
    6.4380    3.1180   15.2460 H   0  0  0  0  0  0  0  0  0  0  0  0
    4.9140    3.4360   16.0500 H   0  0  0  0  0  0  0  0  0  0  0  0
    6.6690    5.2470   14.4180 H   0  0  0  0  0  0  0  0  0  0  0  0
    4.9200    5.0980   14.4010 H   0  0  0  0  0  0  0  0  0  0  0  0
    4.7850    6.3500   16.5650 H   0  0  0  0  0  0  0  0  0  0  0  0
    5.6490    7.2880   15.3450 H   0  0  0  0  0  0  0  0  0  0  0  0
    8.1340    5.3510   18.1010 H   0  0  0  0  0  0  0  0  0  0  0  0
    8.3350    5.1490   16.3590 H   0  0  0  0  0  0  0  0  0  0  0  0
    3.9950    3.1110   17.1810 O   0  0  0  0  0  0  0  0  0  0  0  0
    4.4410    3.6260   18.1970 C   0  0  0  0  0  0  0  0  0  0  0  0
    5.7200    4.1200   18.3130 N   0  0  0  0  0  0  0  0  0  0  0  0
    6.1070    4.2820   19.2370 H   0  0  0  0  0  0  0  0  0  0  0  0
    3.6090    3.6780   19.4140 C   0  0  0  0  0  0  0  0  0  0  0  0
    3.5940    2.5410   20.2330 C   0  0  0  0  0  0  0  0  0  0  0  0
    2.8480    2.5450   21.4050 C   0  0  0  0  0  0  0  0  0  0  0  0
    2.1270    3.6830   21.7160 C   0  0  0  0  0  0  0  0  0  0  0  0
    2.1000    4.7880   20.9360 N   0  0  0  0  0  0  0  0  0  0  0  0
    2.8300    4.7800   19.7740 C   0  0  0  0  0  0  0  0  0  0  0  0
    4.1740    1.6610   19.9610 H   0  0  0  0  0  0  0  0  0  0  0  0
    2.8380    1.6840   22.0630 H   0  0  0  0  0  0  0  0  0  0  0  0
    1.5340    3.7420   22.6260 H   0  0  0  0  0  0  0  0  0  0  0  0
    2.7810    6.0190   18.8940 C   0  0  0  0  0  0  0  0  0  0  0  0
    1.9960    7.0000   19.4370 F   0  0  0  0  0  0  0  0  0  0  0  0
    4.0010    6.5900   18.6790 F   0  0  0  0  0  0  0  0  0  0  0  0
    2.2690    5.7940   17.6480 F   0  0  0  0  0  0  0  0  0  0  0  0
    8.2770    7.8400   18.3890 C   0  0  0  0  0  0  0  0  0  0  0  0
    9.1100    7.3100   17.9130 H   0  0  0  0  0  0  0  0  0  0  0  0
    8.0860    7.3510   19.3540 H   0  0  0  0  0  0  0  0  0  0  0  0
    8.7150    9.2670   18.6220 C   0  0  0  0  0  0  0  0  0  0  0  0
    9.1220    9.6940   19.8930 C   0  0  0  0  0  0  0  0  0  0  0  0
    9.5240   11.0150   20.1010 C   0  0  0  0  0  0  0  0  0  0  0  0
    9.5160   11.9210   19.0420 C   0  0  0  0  0  0  0  0  0  0  0  0
    9.1010   11.5110   17.7760 C   0  0  0  0  0  0  0  0  0  0  0  0
    8.6980   10.1910   17.5670 C   0  0  0  0  0  0  0  0  0  0  0  0
    9.1210    9.0030   20.7320 H   0  0  0  0  0  0  0  0  0  0  0  0
    9.8360   11.3380   21.0890 H   0  0  0  0  0  0  0  0  0  0  0  0
    9.8240   12.9500   19.2050 H   0  0  0  0  0  0  0  0  0  0  0  0
    9.0830   12.2210   16.9540 H   0  0  0  0  0  0  0  0  0  0  0  0
    8.3690    9.8890   16.5750 H   0  0  0  0  0  0  0  0  0  0  0  0
  1  9  1  1  0  0  0
  1 20  1  0  0  0  0
  2 11  1  0  0  0  0
  2  1  1  0  0  0  0
  3  2  1  0  0  0  0
  3  4  1  0  0  0  0
  4 14  1  0  0  0  0
  4  5  1  0  0  0  0
  5  8  1  0  0  0  0
  5  6  1  0  0  0  0
  6 35  1  0  0  0  0
  7  6  2  0  0  0  0
  8  1  1  0  0  0  0
  8 16  1  0  0  0  0
 10  2  1  0  0  0  0
 12  3  1  0  0  0  0
 13  3  1  0  0  0  0
 15  4  1  0  0  0  0
 17  8  1  0  0  0  0
 18 19  2  0  0  0  0
 19 20  1  0  0  0  0
 19 22  1  0  0  0  0
 20 21  1  0  0  0  0
 22 27  2  0  0  0  0
 22 23  1  0  0  0  0
 23 24  2  0  0  0  0
 24 25  1  0  0  0  0
 24 29  1  0  0  0  0
 25 30  1  0  0  0  0
 26 25  2  0  0  0  0
 27 26  1  0  0  0  0
 28 23  1  0  0  0  0
 31 32  1  0  0  0  0
 31 27  1  0  0  0  0
 33 31  1  0  0  0  0
 34 31  1  0  0  0  0
 35 38  1  0  0  0  0
 35 37  1  0  0  0  0
 36 35  1  0  0  0  0
 38 39  1  0  0  0  0
 39 40  2  0  0  0  0
 39 44  1  0  0  0  0
 40 45  1  0  0  0  0
 41 46  1  0  0  0  0
 41 40  1  0  0  0  0
 42 41  2  0  0  0  0
 43 42  1  0  0  0  0
 43 38  2  0  0  0  0
 47 42  1  0  0  0  0
 48 43  1  0  0  0  0
M  END
>  <MODEL>
5

>  <REMARK>
 VINA RESULT:    -7.085      3.031      5.462
 INTER + INTRA:          -9.152
 INTER:                  -9.498
 INTRA:                   0.346
 UNBOUND:                 0.005
  Name = 
  5 active torsions:
  status: ('A' for Active; 'I' for Inactive)
    1  A    between atoms: C_2  and  C_19
    2  A    between atoms: N_3  and  C_4
    3  A    between atoms: C_9  and  C_11
    4  A    between atoms: C_11  and  C_12
    5  A    between atoms: C_24  and  C_25
                            x       y       z     vdW  Elec       q    Type
                         _______ _______ _______ _____ _____    ______ ____

>  <TORSDO>
F 5

$$$$
=
 OpenBabel07192307433D

 48 50  0  0  1  0  0  0  0  0999 V2000
    1.4560   11.7440   18.9670 C   0  0  1  0  0  0  0  0  0  0  0  0
    2.4710   12.6020   18.1920 C   0  0  0  0  0  0  0  0  0  0  0  0
    2.6600   14.0020   18.7830 C   0  0  0  0  0  0  0  0  0  0  0  0
    1.3910   14.5380   19.4290 C   0  0  0  0  0  0  0  0  0  0  0  0
    0.8720   13.6460   20.4650 N   0  0  0  0  0  0  0  0  0  0  0  0
   -0.1040   14.1480   21.3240 C   0  0  0  0  0  0  0  0  0  0  0  0
   -0.5890   15.2670   21.1430 O   0  0  0  0  0  0  0  0  0  0  0  0
    1.3030   12.2380   20.4190 C   0  0  0  0  0  0  0  0  0  0  0  0
    1.8080   10.7060   18.9790 H   0  0  0  0  0  0  0  0  0  0  0  0
    3.4480   12.1000   18.1950 H   0  0  0  0  0  0  0  0  0  0  0  0
    2.1780   12.6840   17.1390 H   0  0  0  0  0  0  0  0  0  0  0  0
    3.4530   13.9590   19.5420 H   0  0  0  0  0  0  0  0  0  0  0  0
    3.0140   14.6910   18.0080 H   0  0  0  0  0  0  0  0  0  0  0  0
    0.6020   14.6650   18.6770 H   0  0  0  0  0  0  0  0  0  0  0  0
    1.5790   15.5240   19.8690 H   0  0  0  0  0  0  0  0  0  0  0  0
    0.5940   11.6040   20.9560 H   0  0  0  0  0  0  0  0  0  0  0  0
    2.2630   12.1780   20.9430 H   0  0  0  0  0  0  0  0  0  0  0  0
   -0.4380    9.6490   19.0040 O   0  0  0  0  0  0  0  0  0  0  0  0
   -0.6910   10.6680   18.3750 C   0  0  0  0  0  0  0  0  0  0  0  0
    0.1630   11.7420   18.2760 N   0  0  0  0  0  0  0  0  0  0  0  0
   -0.2030   12.6400   17.9770 H   0  0  0  0  0  0  0  0  0  0  0  0
   -2.0080   10.8200   17.7290 C   0  0  0  0  0  0  0  0  0  0  0  0
   -2.1770   10.2360   16.4670 C   0  0  0  0  0  0  0  0  0  0  0  0
   -3.4060   10.3260   15.8250 C   0  0  0  0  0  0  0  0  0  0  0  0
   -4.4260   11.0110   16.4590 C   0  0  0  0  0  0  0  0  0  0  0  0
   -4.2890   11.6070   17.6650 N   0  0  0  0  0  0  0  0  0  0  0  0
   -3.0720   11.5260   18.2950 C   0  0  0  0  0  0  0  0  0  0  0  0
   -1.3550    9.7010   15.9940 H   0  0  0  0  0  0  0  0  0  0  0  0
   -3.5660    9.8650   14.8570 H   0  0  0  0  0  0  0  0  0  0  0  0
   -5.4090   11.1040   16.0050 H   0  0  0  0  0  0  0  0  0  0  0  0
   -2.9210   12.2120   19.6430 C   0  0  0  0  0  0  0  0  0  0  0  0
   -2.2700   13.4110   19.5360 F   0  0  0  0  0  0  0  0  0  0  0  0
   -4.1070   12.4820   20.2600 F   0  0  0  0  0  0  0  0  0  0  0  0
   -2.2020   11.4910   20.5540 F   0  0  0  0  0  0  0  0  0  0  0  0
   -0.5440   13.2460   22.4730 C   0  0  0  0  0  0  0  0  0  0  0  0
    0.3140   13.0220   23.1190 H   0  0  0  0  0  0  0  0  0  0  0  0
   -0.8920   12.2960   22.0470 H   0  0  0  0  0  0  0  0  0  0  0  0
   -1.6290   13.8400   23.3430 C   0  0  0  0  0  0  0  0  0  0  0  0
   -2.9780   13.5440   23.1070 C   0  0  0  0  0  0  0  0  0  0  0  0
   -3.9750   14.0970   23.9120 C   0  0  0  0  0  0  0  0  0  0  0  0
   -3.6320   14.9540   24.9560 C   0  0  0  0  0  0  0  0  0  0  0  0
   -2.2940   15.2650   25.1920 C   0  0  0  0  0  0  0  0  0  0  0  0
   -1.2970   14.7140   24.3870 C   0  0  0  0  0  0  0  0  0  0  0  0
   -3.2630   12.8880   22.2880 H   0  0  0  0  0  0  0  0  0  0  0  0
   -5.0190   13.8640   23.7220 H   0  0  0  0  0  0  0  0  0  0  0  0
   -4.4090   15.3880   25.5800 H   0  0  0  0  0  0  0  0  0  0  0  0
   -2.0290   15.9440   25.9990 H   0  0  0  0  0  0  0  0  0  0  0  0
   -0.2580   14.9730   24.5790 H   0  0  0  0  0  0  0  0  0  0  0  0
  1  9  1  1  0  0  0
  1  8  1  0  0  0  0
  2 10  1  0  0  0  0
  2  3  1  0  0  0  0
  2  1  1  0  0  0  0
  3  4  1  0  0  0  0
  3 12  1  0  0  0  0
  4 15  1  0  0  0  0
  4  5  1  0  0  0  0
  5  6  1  0  0  0  0
  6 35  1  0  0  0  0
  7  6  2  0  0  0  0
  8  5  1  0  0  0  0
  8 17  1  0  0  0  0
  8 16  1  0  0  0  0
 11  2  1  0  0  0  0
 13  3  1  0  0  0  0
 14  4  1  0  0  0  0
 19 18  2  0  0  0  0
 20 19  1  0  0  0  0
 20  1  1  0  0  0  0
 21 20  1  0  0  0  0
 22 27  1  0  0  0  0
 22 19  1  0  0  0  0
 23 22  2  0  0  0  0
 24 25  2  0  0  0  0
 24 23  1  0  0  0  0
 25 26  1  0  0  0  0
 26 27  2  0  0  0  0
 27 31  1  0  0  0  0
 28 23  1  0  0  0  0
 29 24  1  0  0  0  0
 30 25  1  0  0  0  0
 31 33  1  0  0  0  0
 31 34  1  0  0  0  0
 32 31  1  0  0  0  0
 35 36  1  0  0  0  0
 35 38  1  0  0  0  0
 37 35  1  0  0  0  0
 38 43  1  0  0  0  0
 39 38  2  0  0  0  0
 39 40  1  0  0  0  0
 40 41  2  0  0  0  0
 41 42  1  0  0  0  0
 41 46  1  0  0  0  0
 42 47  1  0  0  0  0
 43 48  1  0  0  0  0
 43 42  2  0  0  0  0
 44 39  1  0  0  0  0
 45 40  1  0  0  0  0
M  END
>  <MODEL>
6

>  <REMARK>
 VINA RESULT:    -6.963      6.489      9.734
 INTER + INTRA:          -8.994
 INTER:                  -7.810
 INTRA:                  -1.184
 UNBOUND:                 0.005
  Name = 
  5 active torsions:
  status: ('A' for Active; 'I' for Inactive)
    1  A    between atoms: C_2  and  C_19
    2  A    between atoms: N_3  and  C_4
    3  A    between atoms: C_9  and  C_11
    4  A    between atoms: C_11  and  C_12
    5  A    between atoms: C_24  and  C_25
                            x       y       z     vdW  Elec       q    Type
                         _______ _______ _______ _____ _____    ______ ____

>  <TORSDO>
F 5

$$$$
=
 OpenBabel07192307433D

 48 50  0  0  1  0  0  0  0  0999 V2000
    1.7120    4.4520   20.6670 C   0  0  1  0  0  0  0  0  0  0  0  0
    0.4880    3.5670   20.3700 C   0  0  0  0  0  0  0  0  0  0  0  0
    0.7830    2.4360   19.3810 C   0  0  0  0  0  0  0  0  0  0  0  0
    1.8420    2.8190   18.3570 C   0  0  0  0  0  0  0  0  0  0  0  0
    3.0920    3.2480   18.9800 N   0  0  0  0  0  0  0  0  0  0  0  0
    4.2220    3.3430   18.1690 C   0  0  0  0  0  0  0  0  0  0  0  0
    4.1390    3.1790   16.9500 O   0  0  0  0  0  0  0  0  0  0  0  0
    3.0260    3.7000   20.3800 C   0  0  0  0  0  0  0  0  0  0  0  0
    1.6900    4.7410   21.7240 H   0  0  0  0  0  0  0  0  0  0  0  0
    0.1340    3.1130   21.3050 H   0  0  0  0  0  0  0  0  0  0  0  0
   -0.3420    4.1750   19.9960 H   0  0  0  0  0  0  0  0  0  0  0  0
    1.1340    1.5600   19.9430 H   0  0  0  0  0  0  0  0  0  0  0  0
   -0.1410    2.1280   18.8780 H   0  0  0  0  0  0  0  0  0  0  0  0
    1.4860    3.6430   17.7270 H   0  0  0  0  0  0  0  0  0  0  0  0
    2.0470    1.9710   17.6920 H   0  0  0  0  0  0  0  0  0  0  0  0
    3.8800    4.3390   20.6160 H   0  0  0  0  0  0  0  0  0  0  0  0
    3.0970    2.8070   21.0110 H   0  0  0  0  0  0  0  0  0  0  0  0
    1.6190    7.0690   21.7280 O   0  0  0  0  0  0  0  0  0  0  0  0
    1.6130    6.9180   20.5130 C   0  0  0  0  0  0  0  0  0  0  0  0
    1.6390    5.6930   19.8890 N   0  0  0  0  0  0  0  0  0  0  0  0
    1.8990    5.6410   18.9100 H   0  0  0  0  0  0  0  0  0  0  0  0
    1.6490    8.1000   19.6320 C   0  0  0  0  0  0  0  0  0  0  0  0
    0.8690    9.2040   20.0010 C   0  0  0  0  0  0  0  0  0  0  0  0
    0.8860   10.3530   19.2200 C   0  0  0  0  0  0  0  0  0  0  0  0
    1.6730   10.3580   18.0830 C   0  0  0  0  0  0  0  0  0  0  0  0
    2.4180    9.3020   17.6850 N   0  0  0  0  0  0  0  0  0  0  0  0
    2.3930    8.1640   18.4510 C   0  0  0  0  0  0  0  0  0  0  0  0
    0.2610    9.1690   20.9030 H   0  0  0  0  0  0  0  0  0  0  0  0
    0.3060   11.2250   19.4980 H   0  0  0  0  0  0  0  0  0  0  0  0
    1.7290   11.2340   17.4420 H   0  0  0  0  0  0  0  0  0  0  0  0
    3.2200    6.9750   17.9880 C   0  0  0  0  0  0  0  0  0  0  0  0
    4.0530    7.3050   16.9540 F   0  0  0  0  0  0  0  0  0  0  0  0
    4.0190    6.4470   18.9600 F   0  0  0  0  0  0  0  0  0  0  0  0
    2.4750    5.9260   17.5320 F   0  0  0  0  0  0  0  0  0  0  0  0
    5.5420    3.6740   18.8580 C   0  0  0  0  0  0  0  0  0  0  0  0
    6.1970    2.7940   18.8470 H   0  0  0  0  0  0  0  0  0  0  0  0
    5.3300    3.9110   19.9090 H   0  0  0  0  0  0  0  0  0  0  0  0
    6.3010    4.8170   18.2240 C   0  0  0  0  0  0  0  0  0  0  0  0
    7.0520    5.7020   19.0090 C   0  0  0  0  0  0  0  0  0  0  0  0
    7.7490    6.7560   18.4170 C   0  0  0  0  0  0  0  0  0  0  0  0
    7.6960    6.9380   17.0360 C   0  0  0  0  0  0  0  0  0  0  0  0
    6.9420    6.0720   16.2470 C   0  0  0  0  0  0  0  0  0  0  0  0
    6.2440    5.0180   16.8370 C   0  0  0  0  0  0  0  0  0  0  0  0
    7.0930    5.5810   20.0890 H   0  0  0  0  0  0  0  0  0  0  0  0
    8.3270    7.4390   19.0330 H   0  0  0  0  0  0  0  0  0  0  0  0
    8.2350    7.7620   16.5760 H   0  0  0  0  0  0  0  0  0  0  0  0
    6.8910    6.2230   15.1720 H   0  0  0  0  0  0  0  0  0  0  0  0
    5.6540    4.3560   16.2090 H   0  0  0  0  0  0  0  0  0  0  0  0
  1  9  1  1  0  0  0
  2  1  1  0  0  0  0
  2 10  1  0  0  0  0
  3 12  1  0  0  0  0
  3  2  1  0  0  0  0
  4  5  1  0  0  0  0
  4  3  1  0  0  0  0
  5  8  1  0  0  0  0
  6 35  1  0  0  0  0
  6  5  1  0  0  0  0
  7  6  2  0  0  0  0
  8 16  1  0  0  0  0
  8  1  1  0  0  0  0
  8 17  1  0  0  0  0
 11  2  1  0  0  0  0
 13  3  1  0  0  0  0
 14  4  1  0  0  0  0
 15  4  1  0  0  0  0
 19 18  2  0  0  0  0
 20 19  1  0  0  0  0
 20  1  1  0  0  0  0
 21 20  1  0  0  0  0
 22 23  1  0  0  0  0
 22 19  1  0  0  0  0
 23 28  1  0  0  0  0
 24 29  1  0  0  0  0
 24 23  2  0  0  0  0
 25 24  1  0  0  0  0
 26 25  2  0  0  0  0
 26 27  1  0  0  0  0
 27 22  2  0  0  0  0
 30 25  1  0  0  0  0
 31 27  1  0  0  0  0
 31 33  1  0  0  0  0
 32 31  1  0  0  0  0
 34 31  1  0  0  0  0
 35 37  1  0  0  0  0
 36 35  1  0  0  0  0
 38 35  1  0  0  0  0
 38 39  1  0  0  0  0
 39 44  1  0  0  0  0
 40 39  2  0  0  0  0
 40 45  1  0  0  0  0
 41 40  1  0  0  0  0
 42 43  1  0  0  0  0
 42 41  2  0  0  0  0
 43 38  2  0  0  0  0
 46 41  1  0  0  0  0
 47 42  1  0  0  0  0
 48 43  1  0  0  0  0
M  END
>  <MODEL>
7

>  <REMARK>
 VINA RESULT:    -6.889      2.045      2.479
 INTER + INTRA:          -8.898
 INTER:                  -9.136
 INTRA:                   0.238
 UNBOUND:                 0.005
  Name = 
  5 active torsions:
  status: ('A' for Active; 'I' for Inactive)
    1  A    between atoms: C_2  and  C_19
    2  A    between atoms: N_3  and  C_4
    3  A    between atoms: C_9  and  C_11
    4  A    between atoms: C_11  and  C_12
    5  A    between atoms: C_24  and  C_25
                            x       y       z     vdW  Elec       q    Type
                         _______ _______ _______ _____ _____    ______ ____

>  <TORSDO>
F 5

$$$$
=
 OpenBabel07192307433D

 48 50  0  0  1  0  0  0  0  0999 V2000
    2.1050    3.7680   17.5630 C   0  0  1  0  0  0  0  0  0  0  0  0
    1.5460    2.4580   18.1450 C   0  0  0  0  0  0  0  0  0  0  0  0
    0.8880    2.6340   19.5160 C   0  0  0  0  0  0  0  0  0  0  0  0
    1.5420    3.7350   20.3390 C   0  0  0  0  0  0  0  0  0  0  0  0
    1.5520    5.0210   19.6440 N   0  0  0  0  0  0  0  0  0  0  0  0
    1.8510    6.1590   20.3900 C   0  0  0  0  0  0  0  0  0  0  0  0
    2.2040    6.0670   21.5680 O   0  0  0  0  0  0  0  0  0  0  0  0
    1.4040    4.9950   18.1790 C   0  0  0  0  0  0  0  0  0  0  0  0
    1.9430    3.7720   16.4800 H   0  0  0  0  0  0  0  0  0  0  0  0
    0.7920    2.0500   17.4590 H   0  0  0  0  0  0  0  0  0  0  0  0
    2.3350    1.7010   18.2100 H   0  0  0  0  0  0  0  0  0  0  0  0
   -0.1710    2.8840   19.3680 H   0  0  0  0  0  0  0  0  0  0  0  0
    0.9060    1.6850   20.0640 H   0  0  0  0  0  0  0  0  0  0  0  0
    2.5830    3.4750   20.5690 H   0  0  0  0  0  0  0  0  0  0  0  0
    1.0190    3.8510   21.2960 H   0  0  0  0  0  0  0  0  0  0  0  0
    1.8010    5.9120   17.7380 H   0  0  0  0  0  0  0  0  0  0  0  0
    0.3300    4.9640   17.9640 H   0  0  0  0  0  0  0  0  0  0  0  0
    3.7270    6.0510   17.1900 O   0  0  0  0  0  0  0  0  0  0  0  0
    4.2440    5.0100   17.5730 C   0  0  0  0  0  0  0  0  0  0  0  0
    3.5550    3.8360   17.7720 N   0  0  0  0  0  0  0  0  0  0  0  0
    3.9760    3.1030   18.3340 H   0  0  0  0  0  0  0  0  0  0  0  0
    5.6790    4.9910   17.9170 C   0  0  0  0  0  0  0  0  0  0  0  0
    6.0340    5.3650   19.2190 C   0  0  0  0  0  0  0  0  0  0  0  0
    7.3690    5.3390   19.6030 C   0  0  0  0  0  0  0  0  0  0  0  0
    8.3110    4.9530   18.6680 C   0  0  0  0  0  0  0  0  0  0  0  0
    8.0050    4.6100   17.3960 N   0  0  0  0  0  0  0  0  0  0  0  0
    6.6870    4.6450   17.0140 C   0  0  0  0  0  0  0  0  0  0  0  0
    5.2680    5.6620   19.9330 H   0  0  0  0  0  0  0  0  0  0  0  0
    7.6650    5.6050   20.6120 H   0  0  0  0  0  0  0  0  0  0  0  0
    9.3680    4.9080   18.9200 H   0  0  0  0  0  0  0  0  0  0  0  0
    6.3520    4.2730   15.5780 C   0  0  0  0  0  0  0  0  0  0  0  0
    7.4570    4.3080   14.7710 F   0  0  0  0  0  0  0  0  0  0  0  0
    5.8260    3.0220   15.4410 F   0  0  0  0  0  0  0  0  0  0  0  0
    5.4460    5.1070   14.9870 F   0  0  0  0  0  0  0  0  0  0  0  0
    1.7380    7.5030   19.6780 C   0  0  0  0  0  0  0  0  0  0  0  0
    1.2030    7.3760   18.7290 H   0  0  0  0  0  0  0  0  0  0  0  0
    2.7510    7.8500   19.4380 H   0  0  0  0  0  0  0  0  0  0  0  0
    1.0130    8.5650   20.4730 C   0  0  0  0  0  0  0  0  0  0  0  0
    0.3770    8.2460   21.6800 C   0  0  0  0  0  0  0  0  0  0  0  0
   -0.2920    9.2300   22.4090 C   0  0  0  0  0  0  0  0  0  0  0  0
   -0.3360   10.5400   21.9340 C   0  0  0  0  0  0  0  0  0  0  0  0
    0.2820   10.8660   20.7280 C   0  0  0  0  0  0  0  0  0  0  0  0
    0.9500    9.8820   19.9990 C   0  0  0  0  0  0  0  0  0  0  0  0
    0.3910    7.2260   22.0580 H   0  0  0  0  0  0  0  0  0  0  0  0
   -0.7840    8.9750   23.3430 H   0  0  0  0  0  0  0  0  0  0  0  0
   -0.8610   11.3050   22.5000 H   0  0  0  0  0  0  0  0  0  0  0  0
    0.2360   11.8850   20.3530 H   0  0  0  0  0  0  0  0  0  0  0  0
    1.4200   10.1510   19.0550 H   0  0  0  0  0  0  0  0  0  0  0  0
  1  9  1  6  0  0  0
  1 20  1  0  0  0  0
  1  2  1  0  0  0  0
  1  8  1  0  0  0  0
  2 11  1  0  0  0  0
  2  3  1  0  0  0  0
  3 13  1  0  0  0  0
  3  4  1  0  0  0  0
  4 14  1  0  0  0  0
  4 15  1  0  0  0  0
  5  4  1  0  0  0  0
  5  6  1  0  0  0  0
  6  7  2  0  0  0  0
  8  5  1  0  0  0  0
 10  2  1  0  0  0  0
 12  3  1  0  0  0  0
 16  8  1  0  0  0  0
 17  8  1  0  0  0  0
 18 19  2  0  0  0  0
 19 20  1  0  0  0  0
 19 22  1  0  0  0  0
 20 21  1  0  0  0  0
 22 23  1  0  0  0  0
 23 24  2  0  0  0  0
 23 28  1  0  0  0  0
 24 29  1  0  0  0  0
 25 30  1  0  0  0  0
 25 24  1  0  0  0  0
 26 25  2  0  0  0  0
 27 26  1  0  0  0  0
 27 22  2  0  0  0  0
 31 27  1  0  0  0  0
 32 31  1  0  0  0  0
 33 31  1  0  0  0  0
 34 31  1  0  0  0  0
 35  6  1  0  0  0  0
 35 38  1  0  0  0  0
 36 35  1  0  0  0  0
 37 35  1  0  0  0  0
 38 39  1  0  0  0  0
 39 44  1  0  0  0  0
 39 40  2  0  0  0  0
 40 45  1  0  0  0  0
 41 40  1  0  0  0  0
 41 46  1  0  0  0  0
 42 41  2  0  0  0  0
 43 38  2  0  0  0  0
 43 42  1  0  0  0  0
 47 42  1  0  0  0  0
 48 43  1  0  0  0  0
M  END
>  <MODEL>
8

>  <REMARK>
 VINA RESULT:    -6.888      3.678      6.776
 INTER + INTRA:          -8.896
 INTER:                  -9.124
 INTRA:                   0.228
 UNBOUND:                 0.005
  Name = 
  5 active torsions:
  status: ('A' for Active; 'I' for Inactive)
    1  A    between atoms: C_2  and  C_19
    2  A    between atoms: N_3  and  C_4
    3  A    between atoms: C_9  and  C_11
    4  A    between atoms: C_11  and  C_12
    5  A    between atoms: C_24  and  C_25
                            x       y       z     vdW  Elec       q    Type
                         _______ _______ _______ _____ _____    ______ ____

>  <TORSDO>
F 5

$$$$
=
 OpenBabel07192307433D

 48 50  0  0  1  0  0  0  0  0999 V2000
    3.8030    6.6040   17.2930 C   0  0  1  0  0  0  0  0  0  0  0  0
    4.3390    7.9570   17.7920 C   0  0  0  0  0  0  0  0  0  0  0  0
    5.8630    8.0740   17.7120 C   0  0  0  0  0  0  0  0  0  0  0  0
    6.5610    6.7380   17.9210 C   0  0  0  0  0  0  0  0  0  0  0  0
    6.1080    5.7180   16.9760 N   0  0  0  0  0  0  0  0  0  0  0  0
    6.8650    4.5520   16.8680 C   0  0  0  0  0  0  0  0  0  0  0  0
    7.8170    4.3460   17.6240 O   0  0  0  0  0  0  0  0  0  0  0  0
    4.8010    5.9300   16.3320 C   0  0  0  0  0  0  0  0  0  0  0  0
    2.8580    6.7720   16.7640 H   0  0  0  0  0  0  0  0  0  0  0  0
    3.9060    8.7640   17.1860 H   0  0  0  0  0  0  0  0  0  0  0  0
    4.0100    8.1430   18.8200 H   0  0  0  0  0  0  0  0  0  0  0  0
    6.1340    8.4640   16.7220 H   0  0  0  0  0  0  0  0  0  0  0  0
    6.2210    8.8100   18.4400 H   0  0  0  0  0  0  0  0  0  0  0  0
    6.3720    6.3590   18.9330 H   0  0  0  0  0  0  0  0  0  0  0  0
    7.6460    6.8600   17.8200 H   0  0  0  0  0  0  0  0  0  0  0  0
    4.3930    4.9820   15.9740 H   0  0  0  0  0  0  0  0  0  0  0  0
    4.9740    6.5660   15.4560 H   0  0  0  0  0  0  0  0  0  0  0  0
    1.6480    4.7840   17.4530 O   0  0  0  0  0  0  0  0  0  0  0  0
    2.4270    4.8680   18.3930 C   0  0  0  0  0  0  0  0  0  0  0  0
    3.4990    5.7290   18.4290 N   0  0  0  0  0  0  0  0  0  0  0  0
    4.2450    5.5650   19.0990 H   0  0  0  0  0  0  0  0  0  0  0  0
    2.2810    3.9590   19.5460 C   0  0  0  0  0  0  0  0  0  0  0  0
    1.7700    4.5000   20.7320 C   0  0  0  0  0  0  0  0  0  0  0  0
    1.5880    3.6820   21.8410 C   0  0  0  0  0  0  0  0  0  0  0  0
    1.9360    2.3490   21.7330 C   0  0  0  0  0  0  0  0  0  0  0  0
    2.4550    1.8000   20.6110 N   0  0  0  0  0  0  0  0  0  0  0  0
    2.6440    2.6100   19.5190 C   0  0  0  0  0  0  0  0  0  0  0  0
    1.5030    5.5550   20.7850 H   0  0  0  0  0  0  0  0  0  0  0  0
    1.1750    4.0760   22.7620 H   0  0  0  0  0  0  0  0  0  0  0  0
    1.8050    1.6650   22.5670 H   0  0  0  0  0  0  0  0  0  0  0  0
    3.2430    1.9900   18.2680 C   0  0  0  0  0  0  0  0  0  0  0  0
    3.7770    0.7540   18.5150 F   0  0  0  0  0  0  0  0  0  0  0  0
    2.3450    1.8150   17.2560 F   0  0  0  0  0  0  0  0  0  0  0  0
    4.2590    2.7190   17.7190 F   0  0  0  0  0  0  0  0  0  0  0  0
    6.4480    3.5530   15.7930 C   0  0  0  0  0  0  0  0  0  0  0  0
    5.3680    3.3720   15.8540 H   0  0  0  0  0  0  0  0  0  0  0  0
    6.9520    2.6000   15.9980 H   0  0  0  0  0  0  0  0  0  0  0  0
    6.7580    3.9990   14.3820 C   0  0  0  0  0  0  0  0  0  0  0  0
    6.1160    3.4070   13.2860 C   0  0  0  0  0  0  0  0  0  0  0  0
    6.4090    3.8220   11.9860 C   0  0  0  0  0  0  0  0  0  0  0  0
    7.3500    4.8270   11.7710 C   0  0  0  0  0  0  0  0  0  0  0  0
    8.0050    5.4140   12.8520 C   0  0  0  0  0  0  0  0  0  0  0  0
    7.7130    5.0000   14.1520 C   0  0  0  0  0  0  0  0  0  0  0  0
    5.3890    2.6130   13.4370 H   0  0  0  0  0  0  0  0  0  0  0  0
    5.9080    3.3570   11.1420 H   0  0  0  0  0  0  0  0  0  0  0  0
    7.5810    5.1460   10.7580 H   0  0  0  0  0  0  0  0  0  0  0  0
    8.7480    6.1890   12.6820 H   0  0  0  0  0  0  0  0  0  0  0  0
    8.2390    5.4610   14.9850 H   0  0  0  0  0  0  0  0  0  0  0  0
  1  9  1  6  0  0  0
  1  2  1  0  0  0  0
  1 20  1  0  0  0  0
  2 11  1  0  0  0  0
  3  2  1  0  0  0  0
  3  4  1  0  0  0  0
  3 13  1  0  0  0  0
  4 14  1  0  0  0  0
  5  4  1  0  0  0  0
  6  5  1  0  0  0  0
  6  7  2  0  0  0  0
  8  5  1  0  0  0  0
  8  1  1  0  0  0  0
 10  2  1  0  0  0  0
 12  3  1  0  0  0  0
 15  4  1  0  0  0  0
 16  8  1  0  0  0  0
 17  8  1  0  0  0  0
 18 19  2  0  0  0  0
 19 20  1  0  0  0  0
 19 22  1  0  0  0  0
 20 21  1  0  0  0  0
 22 23  1  0  0  0  0
 23 28  1  0  0  0  0
 23 24  2  0  0  0  0
 24 29  1  0  0  0  0
 25 24  1  0  0  0  0
 25 30  1  0  0  0  0
 26 25  2  0  0  0  0
 27 22  2  0  0  0  0
 27 26  1  0  0  0  0
 31 32  1  0  0  0  0
 31 27  1  0  0  0  0
 33 31  1  0  0  0  0
 34 31  1  0  0  0  0
 35 36  1  0  0  0  0
 35 37  1  0  0  0  0
 35  6  1  0  0  0  0
 38 35  1  0  0  0  0
 39 44  1  0  0  0  0
 39 38  2  0  0  0  0
 40 39  1  0  0  0  0
 41 40  2  0  0  0  0
 41 42  1  0  0  0  0
 42 43  2  0  0  0  0
 43 38  1  0  0  0  0
 43 48  1  0  0  0  0
 45 40  1  0  0  0  0
 46 41  1  0  0  0  0
 47 42  1  0  0  0  0
M  END
>  <MODEL>
9

>  <REMARK>
 VINA RESULT:    -6.857      4.016      6.107
 INTER + INTRA:          -8.856
 INTER:                  -8.081
 INTRA:                  -0.775
 UNBOUND:                 0.005
  Name = 
  5 active torsions:
  status: ('A' for Active; 'I' for Inactive)
    1  A    between atoms: C_2  and  C_19
    2  A    between atoms: N_3  and  C_4
    3  A    between atoms: C_9  and  C_11
    4  A    between atoms: C_11  and  C_12
    5  A    between atoms: C_24  and  C_25
                            x       y       z     vdW  Elec       q    Type
                         _______ _______ _______ _____ _____    ______ ____

>  <TORSDO>
F 5

$$$$
=
 OpenBabel07192307433D

 48 50  0  0  1  0  0  0  0  0999 V2000
    1.1690   13.6430   18.3800 C   0  0  1  0  0  0  0  0  0  0  0  0
    0.3500   14.2280   19.5440 C   0  0  0  0  0  0  0  0  0  0  0  0
    1.1570   15.1680   20.4430 C   0  0  0  0  0  0  0  0  0  0  0  0
    2.6240   14.7710   20.5320 C   0  0  0  0  0  0  0  0  0  0  0  0
    3.2630   14.6960   19.2190 N   0  0  0  0  0  0  0  0  0  0  0  0
    4.6550   14.6310   19.1790 C   0  0  0  0  0  0  0  0  0  0  0  0
    5.3130   14.5280   20.2160 O   0  0  0  0  0  0  0  0  0  0  0  0
    2.3830   14.5330   18.0500 C   0  0  0  0  0  0  0  0  0  0  0  0
    0.5260   13.5750   17.4950 H   0  0  0  0  0  0  0  0  0  0  0  0
   -0.4990   14.7950   19.1400 H   0  0  0  0  0  0  0  0  0  0  0  0
   -0.0850   13.4250   20.1480 H   0  0  0  0  0  0  0  0  0  0  0  0
    1.0910   16.1870   20.0370 H   0  0  0  0  0  0  0  0  0  0  0  0
    0.7110   15.2060   21.4420 H   0  0  0  0  0  0  0  0  0  0  0  0
    2.7270   13.7870   21.0070 H   0  0  0  0  0  0  0  0  0  0  0  0
    3.1720   15.4880   21.1550 H   0  0  0  0  0  0  0  0  0  0  0  0
    2.9380   14.1100   17.2100 H   0  0  0  0  0  0  0  0  0  0  0  0
    2.0500   15.5340   17.7550 H   0  0  0  0  0  0  0  0  0  0  0  0
   -0.4960   11.3610   18.4340 O   0  0  0  0  0  0  0  0  0  0  0  0
    0.6960   11.2340   18.6800 C   0  0  0  0  0  0  0  0  0  0  0  0
    1.5940   12.2760   18.6980 N   0  0  0  0  0  0  0  0  0  0  0  0
    2.5870   12.0750   18.6410 H   0  0  0  0  0  0  0  0  0  0  0  0
    1.2540    9.8880   18.9090 C   0  0  0  0  0  0  0  0  0  0  0  0
    1.8270    9.2320   17.8120 C   0  0  0  0  0  0  0  0  0  0  0  0
    2.3910    7.9730   17.9780 C   0  0  0  0  0  0  0  0  0  0  0  0
    2.3520    7.4010   19.2360 C   0  0  0  0  0  0  0  0  0  0  0  0
    1.7840    7.9950   20.3100 N   0  0  0  0  0  0  0  0  0  0  0  0
    1.2190    9.2350   20.1440 C   0  0  0  0  0  0  0  0  0  0  0  0
    1.8440    9.7110   16.8340 H   0  0  0  0  0  0  0  0  0  0  0  0
    2.8580    7.4570   17.1480 H   0  0  0  0  0  0  0  0  0  0  0  0
    2.7860    6.4220   19.4220 H   0  0  0  0  0  0  0  0  0  0  0  0
    0.5690    9.8890   21.3520 C   0  0  0  0  0  0  0  0  0  0  0  0
    0.8560    9.2200   22.5110 F   0  0  0  0  0  0  0  0  0  0  0  0
    0.9590   11.1800   21.5560 F   0  0  0  0  0  0  0  0  0  0  0  0
   -0.7950    9.9350   21.2900 F   0  0  0  0  0  0  0  0  0  0  0  0
    5.3100   14.6770   17.8010 C   0  0  0  0  0  0  0  0  0  0  0  0
    5.2130   15.6850   17.3780 H   0  0  0  0  0  0  0  0  0  0  0  0
    4.7650   13.9910   17.1410 H   0  0  0  0  0  0  0  0  0  0  0  0
    6.7780   14.3200   17.8030 C   0  0  0  0  0  0  0  0  0  0  0  0
    7.2050   13.0380   17.4330 C   0  0  0  0  0  0  0  0  0  0  0  0
    8.5620   12.7140   17.4380 C   0  0  0  0  0  0  0  0  0  0  0  0
    9.5050   13.6680   17.8210 C   0  0  0  0  0  0  0  0  0  0  0  0
    9.0910   14.9420   18.2040 C   0  0  0  0  0  0  0  0  0  0  0  0
    7.7340   15.2670   18.1990 C   0  0  0  0  0  0  0  0  0  0  0  0
    6.4810   12.2790   17.1450 H   0  0  0  0  0  0  0  0  0  0  0  0
    8.8840   11.7170   17.1520 H   0  0  0  0  0  0  0  0  0  0  0  0
   10.5610   13.4140   17.8300 H   0  0  0  0  0  0  0  0  0  0  0  0
    9.8260   15.6810   18.5140 H   0  0  0  0  0  0  0  0  0  0  0  0
    7.4270   16.2630   18.5090 H   0  0  0  0  0  0  0  0  0  0  0  0
  1  9  1  6  0  0  0
  1 20  1  0  0  0  0
  1  2  1  0  0  0  0
  2 11  1  0  0  0  0
  2  3  1  0  0  0  0
  3  4  1  0  0  0  0
  3 13  1  0  0  0  0
  4 14  1  0  0  0  0
  4 15  1  0  0  0  0
  5  4  1  0  0  0  0
  6  5  1  0  0  0  0
  6  7  2  0  0  0  0
  8  1  1  0  0  0  0
  8  5  1  0  0  0  0
 10  2  1  0  0  0  0
 12  3  1  0  0  0  0
 16  8  1  0  0  0  0
 17  8  1  0  0  0  0
 18 19  2  0  0  0  0
 19 20  1  0  0  0  0
 19 22  1  0  0  0  0
 21 20  1  0  0  0  0
 22 27  1  0  0  0  0
 23 24  1  0  0  0  0
 23 22  2  0  0  0  0
 24 25  2  0  0  0  0
 25 30  1  0  0  0  0
 25 26  1  0  0  0  0
 27 26  2  0  0  0  0
 27 31  1  0  0  0  0
 28 23  1  0  0  0  0
 29 24  1  0  0  0  0
 31 33  1  0  0  0  0
 31 32  1  0  0  0  0
 34 31  1  0  0  0  0
 35 38  1  0  0  0  0
 35  6  1  0  0  0  0
 36 35  1  0  0  0  0
 37 35  1  0  0  0  0
 38 43  1  0  0  0  0
 39 40  1  0  0  0  0
 39 38  2  0  0  0  0
 40 41  2  0  0  0  0
 41 46  1  0  0  0  0
 41 42  1  0  0  0  0
 42 47  1  0  0  0  0
 43 42  2  0  0  0  0
 43 48  1  0  0  0  0
 44 39  1  0  0  0  0
 45 40  1  0  0  0  0
M  END
>  <MODEL>
10

>  <REMARK>
 VINA RESULT:    -6.818      4.622      7.795
 INTER + INTRA:          -8.806
 INTER:                  -8.124
 INTRA:                  -0.681
 UNBOUND:                 0.005
  Name = 
  5 active torsions:
  status: ('A' for Active; 'I' for Inactive)
    1  A    between atoms: C_2  and  C_19
    2  A    between atoms: N_3  and  C_4
    3  A    between atoms: C_9  and  C_11
    4  A    between atoms: C_11  and  C_12
    5  A    between atoms: C_24  and  C_25
                            x       y       z     vdW  Elec       q    Type
                         _______ _______ _______ _____ _____    ______ ____

>  <TORSDO>
F 5

$$$$
=
 OpenBabel07192307433D

 48 50  0  0  1  0  0  0  0  0999 V2000
    4.9850    6.8900   16.8710 C   0  0  1  0  0  0  0  0  0  0  0  0
    6.3930    7.5040   16.9610 C   0  0  0  0  0  0  0  0  0  0  0  0
    7.4230    6.5700   17.6020 C   0  0  0  0  0  0  0  0  0  0  0  0
    6.8080    5.6600   18.6560 C   0  0  0  0  0  0  0  0  0  0  0  0
    5.7010    4.8640   18.1290 N   0  0  0  0  0  0  0  0  0  0  0  0
    5.2480    3.7940   18.8990 C   0  0  0  0  0  0  0  0  0  0  0  0
    5.6930    3.5990   20.0330 O   0  0  0  0  0  0  0  0  0  0  0  0
    5.0450    5.3500   16.9040 C   0  0  0  0  0  0  0  0  0  0  0  0
    4.5200    7.2080   15.9310 H   0  0  0  0  0  0  0  0  0  0  0  0
    6.7450    7.7510   15.9500 H   0  0  0  0  0  0  0  0  0  0  0  0
    6.3630    8.4510   17.5100 H   0  0  0  0  0  0  0  0  0  0  0  0
    7.8710    5.9470   16.8150 H   0  0  0  0  0  0  0  0  0  0  0  0
    8.2420    7.1560   18.0340 H   0  0  0  0  0  0  0  0  0  0  0  0
    6.4200    6.2520   19.4940 H   0  0  0  0  0  0  0  0  0  0  0  0
    7.5710    4.9860   19.0630 H   0  0  0  0  0  0  0  0  0  0  0  0
    4.0380    4.9360   16.8190 H   0  0  0  0  0  0  0  0  0  0  0  0
    5.6290    4.9760   16.0560 H   0  0  0  0  0  0  0  0  0  0  0  0
    2.2740    6.2280   17.3120 O   0  0  0  0  0  0  0  0  0  0  0  0
    2.8310    7.0000   18.0810 C   0  0  0  0  0  0  0  0  0  0  0  0
    4.1400    7.4030   17.9540 N   0  0  0  0  0  0  0  0  0  0  0  0
    4.6110    7.8170   18.7520 H   0  0  0  0  0  0  0  0  0  0  0  0
    2.1080    7.4950   19.2680 C   0  0  0  0  0  0  0  0  0  0  0  0
    2.0180    6.6380   20.3720 C   0  0  0  0  0  0  0  0  0  0  0  0
    1.3710    7.0650   21.5260 C   0  0  0  0  0  0  0  0  0  0  0  0
    0.8200    8.3330   21.5340 C   0  0  0  0  0  0  0  0  0  0  0  0
    0.8670    9.1750   20.4770 N   0  0  0  0  0  0  0  0  0  0  0  0
    1.4980    8.7500   19.3350 C   0  0  0  0  0  0  0  0  0  0  0  0
    2.4650    5.6460   20.3350 H   0  0  0  0  0  0  0  0  0  0  0  0
    1.3080    6.4260   22.3990 H   0  0  0  0  0  0  0  0  0  0  0  0
    0.3110    8.7190   22.4130 H   0  0  0  0  0  0  0  0  0  0  0  0
    1.5320    9.6970   18.1460 C   0  0  0  0  0  0  0  0  0  0  0  0
    1.0150    9.1200   17.0180 F   0  0  0  0  0  0  0  0  0  0  0  0
    0.8250   10.8480   18.3380 F   0  0  0  0  0  0  0  0  0  0  0  0
    2.7890   10.1050   17.8000 F   0  0  0  0  0  0  0  0  0  0  0  0
    4.1770    2.9010   18.2810 C   0  0  0  0  0  0  0  0  0  0  0  0
    4.5240    1.8600   18.2670 H   0  0  0  0  0  0  0  0  0  0  0  0
    4.0330    3.2120   17.2390 H   0  0  0  0  0  0  0  0  0  0  0  0
    2.8520    2.9320   19.0080 C   0  0  0  0  0  0  0  0  0  0  0  0
    1.6450    2.9360   18.2960 C   0  0  0  0  0  0  0  0  0  0  0  0
    0.4240    2.9660   18.9730 C   0  0  0  0  0  0  0  0  0  0  0  0
    0.4010    3.0000   20.3670 C   0  0  0  0  0  0  0  0  0  0  0  0
    1.5960    3.0100   21.0840 C   0  0  0  0  0  0  0  0  0  0  0  0
    2.8160    2.9800   20.4090 C   0  0  0  0  0  0  0  0  0  0  0  0
    1.6460    2.9230   17.2090 H   0  0  0  0  0  0  0  0  0  0  0  0
   -0.5070    2.9710   18.4150 H   0  0  0  0  0  0  0  0  0  0  0  0
   -0.5490    3.0290   20.8930 H   0  0  0  0  0  0  0  0  0  0  0  0
    1.5770    3.0490   22.1700 H   0  0  0  0  0  0  0  0  0  0  0  0
    3.7400    2.9970   20.9830 H   0  0  0  0  0  0  0  0  0  0  0  0
  1  9  1  6  0  0  0
  1  8  1  0  0  0  0
  1  2  1  0  0  0  0
  1 20  1  0  0  0  0
  2 11  1  0  0  0  0
  2  3  1  0  0  0  0
  3 13  1  0  0  0  0
  3  4  1  0  0  0  0
  4 15  1  0  0  0  0
  4 14  1  0  0  0  0
  5  4  1  0  0  0  0
  5  6  1  0  0  0  0
  6  7  2  0  0  0  0
  8  5  1  0  0  0  0
 10  2  1  0  0  0  0
 12  3  1  0  0  0  0
 16  8  1  0  0  0  0
 17  8  1  0  0  0  0
 18 19  2  0  0  0  0
 19 22  1  0  0  0  0
 20 19  1  0  0  0  0
 20 21  1  0  0  0  0
 22 27  2  0  0  0  0
 22 23  1  0  0  0  0
 23 24  2  0  0  0  0
 24 25  1  0  0  0  0
 24 29  1  0  0  0  0
 25 30  1  0  0  0  0
 26 25  2  0  0  0  0
 27 26  1  0  0  0  0
 28 23  1  0  0  0  0
 31 33  1  0  0  0  0
 31 27  1  0  0  0  0
 32 31  1  0  0  0  0
 34 31  1  0  0  0  0
 35  6  1  0  0  0  0
 35 38  1  0  0  0  0
 36 35  1  0  0  0  0
 37 35  1  0  0  0  0
 38 43  1  0  0  0  0
 39 40  1  0  0  0  0
 39 38  2  0  0  0  0
 40 41  2  0  0  0  0
 41 46  1  0  0  0  0
 41 42  1  0  0  0  0
 42 47  1  0  0  0  0
 43 48  1  0  0  0  0
 43 42  2  0  0  0  0
 44 39  1  0  0  0  0
 45 40  1  0  0  0  0
M  END
>  <MODEL>
11

>  <REMARK>
 VINA RESULT:    -6.782      2.133      4.981
 INTER + INTRA:          -8.759
 INTER:                  -7.672
 INTRA:                  -1.087
 UNBOUND:                 0.005
  Name = 
  5 active torsions:
  status: ('A' for Active; 'I' for Inactive)
    1  A    between atoms: C_2  and  C_19
    2  A    between atoms: N_3  and  C_4
    3  A    between atoms: C_9  and  C_11
    4  A    between atoms: C_11  and  C_12
    5  A    between atoms: C_24  and  C_25
                            x       y       z     vdW  Elec       q    Type
                         _______ _______ _______ _____ _____    ______ ____

>  <TORSDO>
F 5

$$$$
=
 OpenBabel07192307433D

 48 50  0  0  1  0  0  0  0  0999 V2000
    2.0390    4.0660   17.8630 C   0  0  1  0  0  0  0  0  0  0  0  0
    1.3910    3.0120   18.7790 C   0  0  0  0  0  0  0  0  0  0  0  0
    0.7600    3.6080   20.0400 C   0  0  0  0  0  0  0  0  0  0  0  0
    1.5000    4.8440   20.5330 C   0  0  0  0  0  0  0  0  0  0  0  0
    1.5960    5.8820   19.5080 N   0  0  0  0  0  0  0  0  0  0  0  0
    1.9840    7.1580   19.9130 C   0  0  0  0  0  0  0  0  0  0  0  0
    2.3390    7.3720   21.0740 O   0  0  0  0  0  0  0  0  0  0  0  0
    1.4330    5.4620   18.1060 C   0  0  0  0  0  0  0  0  0  0  0  0
    1.8670    3.7800   16.8200 H   0  0  0  0  0  0  0  0  0  0  0  0
    0.6040    2.4850   18.2240 H   0  0  0  0  0  0  0  0  0  0  0  0
    2.1240    2.2480   19.0610 H   0  0  0  0  0  0  0  0  0  0  0  0
   -0.2790    3.8830   19.8160 H   0  0  0  0  0  0  0  0  0  0  0  0
    0.7140    2.8500   20.8300 H   0  0  0  0  0  0  0  0  0  0  0  0
    2.5210    4.5840   20.8380 H   0  0  0  0  0  0  0  0  0  0  0  0
    0.9950    5.2580   21.4140 H   0  0  0  0  0  0  0  0  0  0  0  0
    1.8920    6.1900   17.4330 H   0  0  0  0  0  0  0  0  0  0  0  0
    0.3580    5.4500   17.8960 H   0  0  0  0  0  0  0  0  0  0  0  0
    3.8080    6.0780   16.9670 O   0  0  0  0  0  0  0  0  0  0  0  0
    4.2560    5.1270   17.5920 C   0  0  0  0  0  0  0  0  0  0  0  0
    3.4920    4.0840   18.0620 N   0  0  0  0  0  0  0  0  0  0  0  0
    3.8670    3.4810   18.7870 H   0  0  0  0  0  0  0  0  0  0  0  0
    5.6890    5.0950   17.9430 C   0  0  0  0  0  0  0  0  0  0  0  0
    6.0470    5.5180   19.2290 C   0  0  0  0  0  0  0  0  0  0  0  0
    7.3810    5.4830   19.6200 C   0  0  0  0  0  0  0  0  0  0  0  0
    8.3180    5.0390   18.7060 C   0  0  0  0  0  0  0  0  0  0  0  0
    8.0090    4.6460   17.4490 N   0  0  0  0  0  0  0  0  0  0  0  0
    6.6930    4.6900   17.0600 C   0  0  0  0  0  0  0  0  0  0  0  0
    5.2850    5.8610   19.9270 H   0  0  0  0  0  0  0  0  0  0  0  0
    7.6780    5.7870   20.6170 H   0  0  0  0  0  0  0  0  0  0  0  0
    9.3720    4.9830   18.9640 H   0  0  0  0  0  0  0  0  0  0  0  0
    6.3560    4.2630   15.6400 C   0  0  0  0  0  0  0  0  0  0  0  0
    7.4660    4.2250   14.8420 F   0  0  0  0  0  0  0  0  0  0  0  0
    5.7900    3.0250   15.5570 F   0  0  0  0  0  0  0  0  0  0  0  0
    5.4820    5.0970   15.0040 F   0  0  0  0  0  0  0  0  0  0  0  0
    1.9610    8.2570   18.8540 C   0  0  0  0  0  0  0  0  0  0  0  0
    1.8200    7.8120   17.8610 H   0  0  0  0  0  0  0  0  0  0  0  0
    2.9410    8.7520   18.8550 H   0  0  0  0  0  0  0  0  0  0  0  0
    0.8720    9.2850   19.0540 C   0  0  0  0  0  0  0  0  0  0  0  0
    0.0160    9.6360   18.0020 C   0  0  0  0  0  0  0  0  0  0  0  0
   -0.9870   10.5880   18.1920 C   0  0  0  0  0  0  0  0  0  0  0  0
   -1.1390   11.2010   19.4350 C   0  0  0  0  0  0  0  0  0  0  0  0
   -0.2850   10.8690   20.4850 C   0  0  0  0  0  0  0  0  0  0  0  0
    0.7180    9.9190   20.2960 C   0  0  0  0  0  0  0  0  0  0  0  0
    0.1300    9.1760   17.0230 H   0  0  0  0  0  0  0  0  0  0  0  0
   -1.6450   10.8560   17.3710 H   0  0  0  0  0  0  0  0  0  0  0  0
   -1.9170   11.9450   19.5820 H   0  0  0  0  0  0  0  0  0  0  0  0
   -0.3960   11.3570   21.4500 H   0  0  0  0  0  0  0  0  0  0  0  0
    1.3820    9.6770   21.1230 H   0  0  0  0  0  0  0  0  0  0  0  0
  1  9  1  6  0  0  0
  1 20  1  0  0  0  0
  1  8  1  0  0  0  0
  1  2  1  0  0  0  0
  2 11  1  0  0  0  0
  2  3  1  0  0  0  0
  3  4  1  0  0  0  0
  3 13  1  0  0  0  0
  4 14  1  0  0  0  0
  4 15  1  0  0  0  0
  5  6  1  0  0  0  0
  5  4  1  0  0  0  0
  6  7  2  0  0  0  0
  8  5  1  0  0  0  0
 10  2  1  0  0  0  0
 12  3  1  0  0  0  0
 16  8  1  0  0  0  0
 17  8  1  0  0  0  0
 18 19  2  0  0  0  0
 19 22  1  0  0  0  0
 19 20  1  0  0  0  0
 20 21  1  0  0  0  0
 22 23  1  0  0  0  0
 23 24  2  0  0  0  0
 23 28  1  0  0  0  0
 24 29  1  0  0  0  0
 25 30  1  0  0  0  0
 25 24  1  0  0  0  0
 26 25  2  0  0  0  0
 27 26  1  0  0  0  0
 27 22  2  0  0  0  0
 31 27  1  0  0  0  0
 32 31  1  0  0  0  0
 33 31  1  0  0  0  0
 34 31  1  0  0  0  0
 35 37  1  0  0  0  0
 35 38  1  0  0  0  0
 35  6  1  0  0  0  0
 36 35  1  0  0  0  0
 38 43  1  0  0  0  0
 39 40  1  0  0  0  0
 39 38  2  0  0  0  0
 40 41  2  0  0  0  0
 41 46  1  0  0  0  0
 41 42  1  0  0  0  0
 42 47  1  0  0  0  0
 43 42  2  0  0  0  0
 43 48  1  0  0  0  0
 44 39  1  0  0  0  0
 45 40  1  0  0  0  0
M  END
>  <MODEL>
12

>  <REMARK>
 VINA RESULT:    -6.770      3.761      6.880
 INTER + INTRA:          -8.743
 INTER:                  -8.907
 INTRA:                   0.164
 UNBOUND:                 0.005
  Name = 
  5 active torsions:
  status: ('A' for Active; 'I' for Inactive)
    1  A    between atoms: C_2  and  C_19
    2  A    between atoms: N_3  and  C_4
    3  A    between atoms: C_9  and  C_11
    4  A    between atoms: C_11  and  C_12
    5  A    between atoms: C_24  and  C_25
                            x       y       z     vdW  Elec       q    Type
                         _______ _______ _______ _____ _____    ______ ____

>  <TORSDO>
F 5

$$$$
=
 OpenBabel07192307433D

 48 50  0  0  1  0  0  0  0  0999 V2000
    0.4600    7.9240   21.5210 C   0  0  1  0  0  0  0  0  0  0  0  0
    0.8660    8.9050   22.6350 C   0  0  0  0  0  0  0  0  0  0  0  0
    0.8580   10.3690   22.1880 C   0  0  0  0  0  0  0  0  0  0  0  0
    1.2200   10.5320   20.7190 C   0  0  0  0  0  0  0  0  0  0  0  0
    0.3460    9.7580   19.8390 N   0  0  0  0  0  0  0  0  0  0  0  0
    0.3810   10.0430   18.4750 C   0  0  0  0  0  0  0  0  0  0  0  0
    1.2010   10.8420   18.0180 O   0  0  0  0  0  0  0  0  0  0  0  0
   -0.3840    8.6280   20.4400 C   0  0  0  0  0  0  0  0  0  0  0  0
   -0.1320    7.1140   21.9620 H   0  0  0  0  0  0  0  0  0  0  0  0
    0.1690    8.8050   23.4770 H   0  0  0  0  0  0  0  0  0  0  0  0
    1.8550    8.6470   23.0290 H   0  0  0  0  0  0  0  0  0  0  0  0
   -0.1470   10.7810   22.3530 H   0  0  0  0  0  0  0  0  0  0  0  0
    1.5370   10.9560   22.8160 H   0  0  0  0  0  0  0  0  0  0  0  0
    2.2490   10.2000   20.5380 H   0  0  0  0  0  0  0  0  0  0  0  0
    1.1670   11.5900   20.4330 H   0  0  0  0  0  0  0  0  0  0  0  0
   -0.6780    7.9110   19.6700 H   0  0  0  0  0  0  0  0  0  0  0  0
   -1.3010    9.0350   20.8800 H   0  0  0  0  0  0  0  0  0  0  0  0
    0.6160    5.3090   20.4640 O   0  0  0  0  0  0  0  0  0  0  0  0
    1.6090    6.0230   20.4330 C   0  0  0  0  0  0  0  0  0  0  0  0
    1.6510    7.3050   20.9330 N   0  0  0  0  0  0  0  0  0  0  0  0
    2.4000    7.9250   20.6420 H   0  0  0  0  0  0  0  0  0  0  0  0
    2.8340    5.5420   19.7680 C   0  0  0  0  0  0  0  0  0  0  0  0
    3.4330    6.3900   18.8280 C   0  0  0  0  0  0  0  0  0  0  0  0
    4.6040    5.9960   18.1910 C   0  0  0  0  0  0  0  0  0  0  0  0
    5.1330    4.7570   18.5040 C   0  0  0  0  0  0  0  0  0  0  0  0
    4.5670    3.9050   19.3880 N   0  0  0  0  0  0  0  0  0  0  0  0
    3.4050    4.2900   20.0100 C   0  0  0  0  0  0  0  0  0  0  0  0
    2.9930    7.3600   18.6050 H   0  0  0  0  0  0  0  0  0  0  0  0
    5.0950    6.6450   17.4750 H   0  0  0  0  0  0  0  0  0  0  0  0
    6.0510    4.4050   18.0420 H   0  0  0  0  0  0  0  0  0  0  0  0
    2.7670    3.3190   20.9900 C   0  0  0  0  0  0  0  0  0  0  0  0
    3.5990    2.2760   21.2910 F   0  0  0  0  0  0  0  0  0  0  0  0
    2.4260    3.8850   22.1830 F   0  0  0  0  0  0  0  0  0  0  0  0
    1.6170    2.7430   20.5290 F   0  0  0  0  0  0  0  0  0  0  0  0
   -0.6230    9.3120   17.5900 C   0  0  0  0  0  0  0  0  0  0  0  0
   -0.9150    8.3660   18.0620 H   0  0  0  0  0  0  0  0  0  0  0  0
   -0.1270    9.0660   16.6420 H   0  0  0  0  0  0  0  0  0  0  0  0
   -1.8870   10.0940   17.3130 C   0  0  0  0  0  0  0  0  0  0  0  0
   -2.4910   10.8580   18.3200 C   0  0  0  0  0  0  0  0  0  0  0  0
   -3.6590   11.5770   18.0590 C   0  0  0  0  0  0  0  0  0  0  0  0
   -4.2360   11.5310   16.7910 C   0  0  0  0  0  0  0  0  0  0  0  0
   -3.6510   10.7640   15.7850 C   0  0  0  0  0  0  0  0  0  0  0  0
   -2.4840   10.0450   16.0450 C   0  0  0  0  0  0  0  0  0  0  0  0
   -2.0610   10.8940   19.3180 H   0  0  0  0  0  0  0  0  0  0  0  0
   -4.1220   12.1650   18.8450 H   0  0  0  0  0  0  0  0  0  0  0  0
   -5.1480   12.0870   16.5890 H   0  0  0  0  0  0  0  0  0  0  0  0
   -4.1090   10.7190   14.8000 H   0  0  0  0  0  0  0  0  0  0  0  0
   -2.0440    9.4440   15.2530 H   0  0  0  0  0  0  0  0  0  0  0  0
  1  9  1  1  0  0  0
  1  2  1  0  0  0  0
  2 11  1  0  0  0  0
  2 10  1  0  0  0  0
  3 12  1  0  0  0  0
  3  2  1  0  0  0  0
  3 13  1  0  0  0  0
  4  3  1  0  0  0  0
  5  8  1  0  0  0  0
  5  4  1  0  0  0  0
  6  5  1  0  0  0  0
  7  6  2  0  0  0  0
  8 17  1  0  0  0  0
  8  1  1  0  0  0  0
 14  4  1  0  0  0  0
 15  4  1  0  0  0  0
 16  8  1  0  0  0  0
 19 18  2  0  0  0  0
 19 20  1  0  0  0  0
 20  1  1  0  0  0  0
 21 20  1  0  0  0  0
 22 27  1  0  0  0  0
 22 19  1  0  0  0  0
 23 22  2  0  0  0  0
 24 25  2  0  0  0  0
 24 23  1  0  0  0  0
 25 26  1  0  0  0  0
 26 27  2  0  0  0  0
 27 31  1  0  0  0  0
 28 23  1  0  0  0  0
 29 24  1  0  0  0  0
 30 25  1  0  0  0  0
 31 32  1  0  0  0  0
 31 33  1  0  0  0  0
 34 31  1  0  0  0  0
 35 36  1  0  0  0  0
 35  6  1  0  0  0  0
 37 35  1  0  0  0  0
 38 35  1  0  0  0  0
 38 39  1  0  0  0  0
 39 44  1  0  0  0  0
 40 39  2  0  0  0  0
 40 45  1  0  0  0  0
 41 40  1  0  0  0  0
 42 43  1  0  0  0  0
 42 41  2  0  0  0  0
 43 38  2  0  0  0  0
 46 41  1  0  0  0  0
 47 42  1  0  0  0  0
 48 43  1  0  0  0  0
M  END
>  <MODEL>
13

>  <REMARK>
 VINA RESULT:    -6.698      3.421      7.427
 INTER + INTRA:          -8.650
 INTER:                  -8.468
 INTRA:                  -0.182
 UNBOUND:                 0.005
  Name = 
  5 active torsions:
  status: ('A' for Active; 'I' for Inactive)
    1  A    between atoms: C_2  and  C_19
    2  A    between atoms: N_3  and  C_4
    3  A    between atoms: C_9  and  C_11
    4  A    between atoms: C_11  and  C_12
    5  A    between atoms: C_24  and  C_25
                            x       y       z     vdW  Elec       q    Type
                         _______ _______ _______ _____ _____    ______ ____

>  <TORSDO>
F 5

$$$$
=
 OpenBabel07192307433D

 48 50  0  0  1  0  0  0  0  0999 V2000
    0.5070    8.0580   21.4650 C   0  0  1  0  0  0  0  0  0  0  0  0
    0.9540    9.0880   22.5170 C   0  0  0  0  0  0  0  0  0  0  0  0
    0.9330   10.5300   22.0030 C   0  0  0  0  0  0  0  0  0  0  0  0
    1.2440   10.6230   20.5160 C   0  0  0  0  0  0  0  0  0  0  0  0
    0.3380    9.8110   19.7050 N   0  0  0  0  0  0  0  0  0  0  0  0
    0.3270   10.0330   18.3280 C   0  0  0  0  0  0  0  0  0  0  0  0
    1.1320   10.8070   17.8070 O   0  0  0  0  0  0  0  0  0  0  0  0
   -0.3720    8.7140   20.3820 C   0  0  0  0  0  0  0  0  0  0  0  0
   -0.0710    7.2710   21.9640 H   0  0  0  0  0  0  0  0  0  0  0  0
    0.2860    9.0300   23.3870 H   0  0  0  0  0  0  0  0  0  0  0  0
    1.9550    8.8450   22.8890 H   0  0  0  0  0  0  0  0  0  0  0  0
   -0.0650   10.9530   22.1830 H   0  0  0  0  0  0  0  0  0  0  0  0
    1.6350   11.1430   22.5790 H   0  0  0  0  0  0  0  0  0  0  0  0
    2.2660   10.2790   20.3160 H   0  0  0  0  0  0  0  0  0  0  0  0
    1.1830   11.6660   20.1830 H   0  0  0  0  0  0  0  0  0  0  0  0
   -0.6950    7.9620   19.6580 H   0  0  0  0  0  0  0  0  0  0  0  0
   -1.2730    9.1440   20.8340 H   0  0  0  0  0  0  0  0  0  0  0  0
    0.5890    5.4320   20.4260 O   0  0  0  0  0  0  0  0  0  0  0  0
    1.5980    6.1230   20.3770 C   0  0  0  0  0  0  0  0  0  0  0  0
    1.6760    7.4070   20.8650 N   0  0  0  0  0  0  0  0  0  0  0  0
    2.4340    8.0080   20.5600 H   0  0  0  0  0  0  0  0  0  0  0  0
    2.8030    5.6090   19.6990 C   0  0  0  0  0  0  0  0  0  0  0  0
    3.4030    6.4330   18.7380 C   0  0  0  0  0  0  0  0  0  0  0  0
    4.5560    6.0080   18.0880 C   0  0  0  0  0  0  0  0  0  0  0  0
    5.0650    4.7640   18.4090 C   0  0  0  0  0  0  0  0  0  0  0  0
    4.4970    3.9340   19.3130 N   0  0  0  0  0  0  0  0  0  0  0  0
    3.3530    4.3490   19.9480 C   0  0  0  0  0  0  0  0  0  0  0  0
    2.9780    7.4090   18.5090 H   0  0  0  0  0  0  0  0  0  0  0  0
    5.0480    6.6380   17.3570 H   0  0  0  0  0  0  0  0  0  0  0  0
    5.9690    4.3880   17.9370 H   0  0  0  0  0  0  0  0  0  0  0  0
    2.7110    3.4040   20.9500 C   0  0  0  0  0  0  0  0  0  0  0  0
    1.5370    2.8810   20.4800 F   0  0  0  0  0  0  0  0  0  0  0  0
    3.4930    2.3360   21.2790 F   0  0  0  0  0  0  0  0  0  0  0  0
    2.3940    3.9920   22.1410 F   0  0  0  0  0  0  0  0  0  0  0  0
   -0.7090    9.2650   17.5130 C   0  0  0  0  0  0  0  0  0  0  0  0
   -1.0100    8.3590   18.0540 H   0  0  0  0  0  0  0  0  0  0  0  0
   -0.2370    8.9450   16.5750 H   0  0  0  0  0  0  0  0  0  0  0  0
   -1.9620   10.0530   17.2070 C   0  0  0  0  0  0  0  0  0  0  0  0
   -2.5120   10.0530   15.9180 C   0  0  0  0  0  0  0  0  0  0  0  0
   -3.6690   10.7840   15.6430 C   0  0  0  0  0  0  0  0  0  0  0  0
   -4.2810   11.5260   16.6510 C   0  0  0  0  0  0  0  0  0  0  0  0
   -3.7360   11.5440   17.9330 C   0  0  0  0  0  0  0  0  0  0  0  0
   -2.5800   10.8140   18.2100 C   0  0  0  0  0  0  0  0  0  0  0  0
   -2.0390    9.4900   15.1180 H   0  0  0  0  0  0  0  0  0  0  0  0
   -4.0880   10.7800   14.6410 H   0  0  0  0  0  0  0  0  0  0  0  0
   -5.1790   12.0990   16.4350 H   0  0  0  0  0  0  0  0  0  0  0  0
   -4.2070   12.1330   18.7160 H   0  0  0  0  0  0  0  0  0  0  0  0
   -2.1620   10.8450   19.2140 H   0  0  0  0  0  0  0  0  0  0  0  0
  1  9  1  1  0  0  0
  1  2  1  0  0  0  0
  2 11  1  0  0  0  0
  2 10  1  0  0  0  0
  3 12  1  0  0  0  0
  3  2  1  0  0  0  0
  3 13  1  0  0  0  0
  4  3  1  0  0  0  0
  5  8  1  0  0  0  0
  5  4  1  0  0  0  0
  6  5  1  0  0  0  0
  7  6  2  0  0  0  0
  8 17  1  0  0  0  0
  8  1  1  0  0  0  0
 14  4  1  0  0  0  0
 15  4  1  0  0  0  0
 16  8  1  0  0  0  0
 19 18  2  0  0  0  0
 19 20  1  0  0  0  0
 20  1  1  0  0  0  0
 21 20  1  0  0  0  0
 22 27  1  0  0  0  0
 22 19  1  0  0  0  0
 23 22  2  0  0  0  0
 24 25  2  0  0  0  0
 24 23  1  0  0  0  0
 25 26  1  0  0  0  0
 26 27  2  0  0  0  0
 27 31  1  0  0  0  0
 28 23  1  0  0  0  0
 29 24  1  0  0  0  0
 30 25  1  0  0  0  0
 31 33  1  0  0  0  0
 31 34  1  0  0  0  0
 32 31  1  0  0  0  0
 35 36  1  0  0  0  0
 35  6  1  0  0  0  0
 37 35  1  0  0  0  0
 38 35  1  0  0  0  0
 38 43  1  0  0  0  0
 39 38  2  0  0  0  0
 40 39  1  0  0  0  0
 40 41  2  0  0  0  0
 41 42  1  0  0  0  0
 42 43  2  0  0  0  0
 42 47  1  0  0  0  0
 43 48  1  0  0  0  0
 44 39  1  0  0  0  0
 45 40  1  0  0  0  0
 46 41  1  0  0  0  0
M  END
>  <MODEL>
14

>  <REMARK>
 VINA RESULT:    -6.680      3.431      7.439
 INTER + INTRA:          -8.628
 INTER:                  -8.468
 INTRA:                  -0.160
 UNBOUND:                 0.005
  Name = 
  5 active torsions:
  status: ('A' for Active; 'I' for Inactive)
    1  A    between atoms: C_2  and  C_19
    2  A    between atoms: N_3  and  C_4
    3  A    between atoms: C_9  and  C_11
    4  A    between atoms: C_11  and  C_12
    5  A    between atoms: C_24  and  C_25
                            x       y       z     vdW  Elec       q    Type
                         _______ _______ _______ _____ _____    ______ ____

>  <TORSDO>
F 5

$$$$
=
 OpenBabel07192307433D

 48 50  0  0  1  0  0  0  0  0999 V2000
   -1.9230   12.4200   22.8330 C   0  0  1  0  0  0  0  0  0  0  0  0
   -1.8240   13.5180   23.9070 C   0  0  0  0  0  0  0  0  0  0  0  0
   -2.9380   14.5630   23.8120 C   0  0  0  0  0  0  0  0  0  0  0  0
   -3.3990   14.7940   22.3790 C   0  0  0  0  0  0  0  0  0  0  0  0
   -3.8410   13.5610   21.7300 N   0  0  0  0  0  0  0  0  0  0  0  0
   -4.5520   13.6770   20.5360 C   0  0  0  0  0  0  0  0  0  0  0  0
   -4.7030   14.7740   19.9950 O   0  0  0  0  0  0  0  0  0  0  0  0
   -3.3630   12.2910   22.3000 C   0  0  0  0  0  0  0  0  0  0  0  0
   -1.6200   11.4640   23.2760 H   0  0  0  0  0  0  0  0  0  0  0  0
   -1.8780   13.0570   24.9020 H   0  0  0  0  0  0  0  0  0  0  0  0
   -0.8490   14.0140   23.8570 H   0  0  0  0  0  0  0  0  0  0  0  0
   -3.7940   14.2200   24.4080 H   0  0  0  0  0  0  0  0  0  0  0  0
   -2.6070   15.5050   24.2630 H   0  0  0  0  0  0  0  0  0  0  0  0
   -2.5830   15.2120   21.7760 H   0  0  0  0  0  0  0  0  0  0  0  0
   -4.2190   15.5210   22.3600 H   0  0  0  0  0  0  0  0  0  0  0  0
   -3.4150   11.4940   21.5550 H   0  0  0  0  0  0  0  0  0  0  0  0
   -4.0460   12.0260   23.1150 H   0  0  0  0  0  0  0  0  0  0  0  0
    0.3660   10.8920   22.1930 O   0  0  0  0  0  0  0  0  0  0  0  0
    0.0940   11.8710   21.5110 C   0  0  0  0  0  0  0  0  0  0  0  0
   -0.9840   12.6940   21.7410 N   0  0  0  0  0  0  0  0  0  0  0  0
   -1.3020   13.3120   21.0010 H   0  0  0  0  0  0  0  0  0  0  0  0
    0.9100   12.1800   20.3220 C   0  0  0  0  0  0  0  0  0  0  0  0
    1.4530   13.4680   20.2290 C   0  0  0  0  0  0  0  0  0  0  0  0
    2.2500   13.8040   19.1420 C   0  0  0  0  0  0  0  0  0  0  0  0
    2.4680   12.8450   18.1710 C   0  0  0  0  0  0  0  0  0  0  0  0
    1.9390   11.6010   18.2170 N   0  0  0  0  0  0  0  0  0  0  0  0
    1.1440   11.2720   19.2860 C   0  0  0  0  0  0  0  0  0  0  0  0
    1.2640   14.2010   21.0120 H   0  0  0  0  0  0  0  0  0  0  0  0
    2.6970   14.7880   19.0610 H   0  0  0  0  0  0  0  0  0  0  0  0
    3.0910   13.0530   17.3050 H   0  0  0  0  0  0  0  0  0  0  0  0
    0.5400    9.8780   19.3220 C   0  0  0  0  0  0  0  0  0  0  0  0
    0.4950    9.3080   18.0790 F   0  0  0  0  0  0  0  0  0  0  0  0
    1.2230    9.0010   20.1120 F   0  0  0  0  0  0  0  0  0  0  0  0
   -0.7460    9.8430   19.7820 F   0  0  0  0  0  0  0  0  0  0  0  0
   -5.1100   12.3900   19.9370 C   0  0  0  0  0  0  0  0  0  0  0  0
   -6.1640   12.5330   19.6650 H   0  0  0  0  0  0  0  0  0  0  0  0
   -5.0740   11.6090   20.7080 H   0  0  0  0  0  0  0  0  0  0  0  0
   -4.3800   11.9160   18.7010 C   0  0  0  0  0  0  0  0  0  0  0  0
   -2.9800   11.8610   18.6730 C   0  0  0  0  0  0  0  0  0  0  0  0
   -2.3120   11.4250   17.5280 C   0  0  0  0  0  0  0  0  0  0  0  0
   -3.0370   11.0460   16.3990 C   0  0  0  0  0  0  0  0  0  0  0  0
   -4.4290   11.1090   16.4110 C   0  0  0  0  0  0  0  0  0  0  0  0
   -5.0980   11.5460   17.5550 C   0  0  0  0  0  0  0  0  0  0  0  0
   -2.3990   12.1660   19.5410 H   0  0  0  0  0  0  0  0  0  0  0  0
   -1.2260   11.3870   17.5140 H   0  0  0  0  0  0  0  0  0  0  0  0
   -2.5160   10.7110   15.5070 H   0  0  0  0  0  0  0  0  0  0  0  0
   -4.9930   10.8260   15.5260 H   0  0  0  0  0  0  0  0  0  0  0  0
   -6.1850   11.5970   17.5460 H   0  0  0  0  0  0  0  0  0  0  0  0
  1  9  1  1  0  0  0
  1  2  1  0  0  0  0
  2 10  1  0  0  0  0
  3  2  1  0  0  0  0
  3 13  1  0  0  0  0
  3 12  1  0  0  0  0
  4  3  1  0  0  0  0
  5  8  1  0  0  0  0
  5  4  1  0  0  0  0
  6  5  1  0  0  0  0
  7  6  2  0  0  0  0
  8  1  1  0  0  0  0
  8 17  1  0  0  0  0
 11  2  1  0  0  0  0
 14  4  1  0  0  0  0
 15  4  1  0  0  0  0
 16  8  1  0  0  0  0
 19 20  1  0  0  0  0
 19 18  2  0  0  0  0
 20  1  1  0  0  0  0
 21 20  1  0  0  0  0
 22 19  1  0  0  0  0
 23 22  1  0  0  0  0
 23 28  1  0  0  0  0
 24 23  2  0  0  0  0
 25 26  2  0  0  0  0
 25 24  1  0  0  0  0
 26 27  1  0  0  0  0
 27 31  1  0  0  0  0
 27 22  2  0  0  0  0
 29 24  1  0  0  0  0
 30 25  1  0  0  0  0
 31 34  1  0  0  0  0
 31 33  1  0  0  0  0
 32 31  1  0  0  0  0
 35  6  1  0  0  0  0
 35 37  1  0  0  0  0
 36 35  1  0  0  0  0
 38 35  1  0  0  0  0
 39 38  1  0  0  0  0
 39 44  1  0  0  0  0
 40 39  2  0  0  0  0
 41 42  2  0  0  0  0
 41 40  1  0  0  0  0
 42 43  1  0  0  0  0
 43 38  2  0  0  0  0
 45 40  1  0  0  0  0
 46 41  1  0  0  0  0
 47 42  1  0  0  0  0
 48 43  1  0  0  0  0
M  END
>  <MODEL>
15

>  <REMARK>
 VINA RESULT:    -6.608      5.920      9.568
 INTER + INTRA:          -8.535
 INTER:                  -7.423
 INTRA:                  -1.112
 UNBOUND:                 0.005
  Name = 
  5 active torsions:
  status: ('A' for Active; 'I' for Inactive)
    1  A    between atoms: C_2  and  C_19
    2  A    between atoms: N_3  and  C_4
    3  A    between atoms: C_9  and  C_11
    4  A    between atoms: C_11  and  C_12
    5  A    between atoms: C_24  and  C_25
                            x       y       z     vdW  Elec       q    Type
                         _______ _______ _______ _____ _____    ______ ____

>  <TORSDO>
F 5

$$$$
=
 OpenBabel07192307433D

 48 50  0  0  1  0  0  0  0  0999 V2000
    3.4150    5.6090   17.7490 C   0  0  1  0  0  0  0  0  0  0  0  0
    3.1500    4.4050   18.6710 C   0  0  0  0  0  0  0  0  0  0  0  0
    2.1080    4.6880   19.7550 C   0  0  0  0  0  0  0  0  0  0  0  0
    2.1210    6.1400   20.2120 C   0  0  0  0  0  0  0  0  0  0  0  0
    1.9280    7.0760   19.1050 N   0  0  0  0  0  0  0  0  0  0  0  0
    1.6310    8.4000   19.4210 C   0  0  0  0  0  0  0  0  0  0  0  0
    1.6420    8.7880   20.5910 O   0  0  0  0  0  0  0  0  0  0  0  0
    2.2200    6.5830   17.7490 C   0  0  0  0  0  0  0  0  0  0  0  0
    3.5760    5.2440   16.7290 H   0  0  0  0  0  0  0  0  0  0  0  0
    2.7910    3.5610   18.0690 H   0  0  0  0  0  0  0  0  0  0  0  0
    4.0830    4.0680   19.1360 H   0  0  0  0  0  0  0  0  0  0  0  0
    1.1120    4.4520   19.3550 H   0  0  0  0  0  0  0  0  0  0  0  0
    2.2630    4.0180   20.6080 H   0  0  0  0  0  0  0  0  0  0  0  0
    3.0790    6.3830   20.6880 H   0  0  0  0  0  0  0  0  0  0  0  0
    1.3380    6.3070   20.9610 H   0  0  0  0  0  0  0  0  0  0  0  0
    2.4210    7.4190   17.0740 H   0  0  0  0  0  0  0  0  0  0  0  0
    1.3180    6.0770   17.3880 H   0  0  0  0  0  0  0  0  0  0  0  0
    5.5710    6.2750   16.0490 O   0  0  0  0  0  0  0  0  0  0  0  0
    5.6300    6.5810   17.2320 C   0  0  0  0  0  0  0  0  0  0  0  0
    4.6480    6.2930   18.1520 N   0  0  0  0  0  0  0  0  0  0  0  0
    4.6300    6.7970   19.0330 H   0  0  0  0  0  0  0  0  0  0  0  0
    6.7760    7.3670   17.7270 C   0  0  0  0  0  0  0  0  0  0  0  0
    6.8750    8.6990   17.3050 C   0  0  0  0  0  0  0  0  0  0  0  0
    7.9210    9.4910   17.7620 C   0  0  0  0  0  0  0  0  0  0  0  0
    8.8460    8.9220   18.6170 C   0  0  0  0  0  0  0  0  0  0  0  0
    8.7940    7.6340   19.0230 N   0  0  0  0  0  0  0  0  0  0  0  0
    7.7670    6.8480   18.5640 C   0  0  0  0  0  0  0  0  0  0  0  0
    6.1280    9.1190   16.6320 H   0  0  0  0  0  0  0  0  0  0  0  0
    8.0050   10.5300   17.4640 H   0  0  0  0  0  0  0  0  0  0  0  0
    9.6780    9.5010   19.0100 H   0  0  0  0  0  0  0  0  0  0  0  0
    7.7250    5.3960   19.0130 C   0  0  0  0  0  0  0  0  0  0  0  0
    6.6380    5.1370   19.8020 F   0  0  0  0  0  0  0  0  0  0  0  0
    7.6640    4.5030   17.9840 F   0  0  0  0  0  0  0  0  0  0  0  0
    8.8070    5.0140   19.7530 F   0  0  0  0  0  0  0  0  0  0  0  0
    1.3120    9.3340   18.2570 C   0  0  0  0  0  0  0  0  0  0  0  0
    1.2550    8.7590   17.3250 H   0  0  0  0  0  0  0  0  0  0  0  0
    2.1420   10.0450   18.1530 H   0  0  0  0  0  0  0  0  0  0  0  0
    0.0120   10.0900   18.4090 C   0  0  0  0  0  0  0  0  0  0  0  0
   -1.1490    9.6570   17.7560 C   0  0  0  0  0  0  0  0  0  0  0  0
   -2.3460   10.3600   17.8990 C   0  0  0  0  0  0  0  0  0  0  0  0
   -2.3900   11.5060   18.6920 C   0  0  0  0  0  0  0  0  0  0  0  0
   -1.2380   11.9530   19.3370 C   0  0  0  0  0  0  0  0  0  0  0  0
   -0.0410   11.2510   19.1930 C   0  0  0  0  0  0  0  0  0  0  0  0
   -1.1280    8.7720   17.1230 H   0  0  0  0  0  0  0  0  0  0  0  0
   -3.2410   10.0190   17.3880 H   0  0  0  0  0  0  0  0  0  0  0  0
   -3.3210   12.0560   18.8000 H   0  0  0  0  0  0  0  0  0  0  0  0
   -1.2710   12.8530   19.9440 H   0  0  0  0  0  0  0  0  0  0  0  0
    0.8510   11.6180   19.6960 H   0  0  0  0  0  0  0  0  0  0  0  0
  1  9  1  6  0  0  0
  1 20  1  0  0  0  0
  1  2  1  0  0  0  0
  2 11  1  0  0  0  0
  2  3  1  0  0  0  0
  3  4  1  0  0  0  0
  3 13  1  0  0  0  0
  4 14  1  0  0  0  0
  4 15  1  0  0  0  0
  5  6  1  0  0  0  0
  5  4  1  0  0  0  0
  6  7  2  0  0  0  0
  8  1  1  0  0  0  0
  8  5  1  0  0  0  0
 10  2  1  0  0  0  0
 12  3  1  0  0  0  0
 16  8  1  0  0  0  0
 17  8  1  0  0  0  0
 18 19  2  0  0  0  0
 19 22  1  0  0  0  0
 19 20  1  0  0  0  0
 20 21  1  0  0  0  0
 22 27  1  0  0  0  0
 23 22  2  0  0  0  0
 23 24  1  0  0  0  0
 24 25  2  0  0  0  0
 25 30  1  0  0  0  0
 25 26  1  0  0  0  0
 27 31  1  0  0  0  0
 27 26  2  0  0  0  0
 28 23  1  0  0  0  0
 29 24  1  0  0  0  0
 31 34  1  0  0  0  0
 31 32  1  0  0  0  0
 33 31  1  0  0  0  0
 35 38  1  0  0  0  0
 35  6  1  0  0  0  0
 36 35  1  0  0  0  0
 37 35  1  0  0  0  0
 38 43  1  0  0  0  0
 39 40  1  0  0  0  0
 39 38  2  0  0  0  0
 40 41  2  0  0  0  0
 41 46  1  0  0  0  0
 41 42  1  0  0  0  0
 42 47  1  0  0  0  0
 43 42  2  0  0  0  0
 43 48  1  0  0  0  0
 44 39  1  0  0  0  0
 45 40  1  0  0  0  0
M  END
>  <MODEL>
16

>  <REMARK>
 VINA RESULT:    -6.605      3.704      7.084
 INTER + INTRA:          -8.530
 INTER:                  -7.986
 INTRA:                  -0.544
 UNBOUND:                 0.005
  Name = 
  5 active torsions:
  status: ('A' for Active; 'I' for Inactive)
    1  A    between atoms: C_2  and  C_19
    2  A    between atoms: N_3  and  C_4
    3  A    between atoms: C_9  and  C_11
    4  A    between atoms: C_11  and  C_12
    5  A    between atoms: C_24  and  C_25
                            x       y       z     vdW  Elec       q    Type
                         _______ _______ _______ _____ _____    ______ ____

>  <TORSDO>
F 5

$$$$
=
 OpenBabel07192307433D

 48 50  0  0  1  0  0  0  0  0999 V2000
    0.2360   10.9000   21.0790 C   0  0  1  0  0  0  0  0  0  0  0  0
   -0.3330   10.9340   22.5080 C   0  0  0  0  0  0  0  0  0  0  0  0
   -0.0990    9.6360   23.2850 C   0  0  0  0  0  0  0  0  0  0  0  0
   -0.0980    8.4090   22.3840 C   0  0  0  0  0  0  0  0  0  0  0  0
    0.8880    8.5080   21.3080 N   0  0  0  0  0  0  0  0  0  0  0  0
    1.1920    7.3470   20.5990 C   0  0  0  0  0  0  0  0  0  0  0  0
    0.5690    6.3020   20.8010 O   0  0  0  0  0  0  0  0  0  0  0  0
    1.3620    9.8550   20.9520 C   0  0  0  0  0  0  0  0  0  0  0  0
    0.6400   11.8900   20.8370 H   0  0  0  0  0  0  0  0  0  0  0  0
    0.1400   11.7510   23.0670 H   0  0  0  0  0  0  0  0  0  0  0  0
   -1.4040   11.1620   22.4880 H   0  0  0  0  0  0  0  0  0  0  0  0
    0.8710    9.7010   23.7950 H   0  0  0  0  0  0  0  0  0  0  0  0
   -0.8540    9.5290   24.0730 H   0  0  0  0  0  0  0  0  0  0  0  0
   -1.0820    8.2730   21.9190 H   0  0  0  0  0  0  0  0  0  0  0  0
    0.1080    7.5080   22.9740 H   0  0  0  0  0  0  0  0  0  0  0  0
    1.7650    9.8630   19.9360 H   0  0  0  0  0  0  0  0  0  0  0  0
    2.1840   10.0990   21.6350 H   0  0  0  0  0  0  0  0  0  0  0  0
   -0.4690   12.5450   18.8930 O   0  0  0  0  0  0  0  0  0  0  0  0
   -1.0820   11.5020   19.0750 C   0  0  0  0  0  0  0  0  0  0  0  0
   -0.8350   10.6350   20.1140 N   0  0  0  0  0  0  0  0  0  0  0  0
   -1.1810    9.6820   20.0570 H   0  0  0  0  0  0  0  0  0  0  0  0
   -2.1100   11.0810   18.1040 C   0  0  0  0  0  0  0  0  0  0  0  0
   -1.6910   10.2960   17.0220 C   0  0  0  0  0  0  0  0  0  0  0  0
   -2.6220    9.8500   16.0920 C   0  0  0  0  0  0  0  0  0  0  0  0
   -3.9440   10.2150   16.2650 C   0  0  0  0  0  0  0  0  0  0  0  0
   -4.3780   10.9920   17.2840 N   0  0  0  0  0  0  0  0  0  0  0  0
   -3.4560   11.4400   18.1970 C   0  0  0  0  0  0  0  0  0  0  0  0
   -0.6420   10.0230   16.9150 H   0  0  0  0  0  0  0  0  0  0  0  0
   -2.3230    9.2250   15.2590 H   0  0  0  0  0  0  0  0  0  0  0  0
   -4.7140    9.8860   15.5720 H   0  0  0  0  0  0  0  0  0  0  0  0
   -3.9490   12.3260   19.3290 C   0  0  0  0  0  0  0  0  0  0  0  0
   -5.1460   12.9180   19.0310 F   0  0  0  0  0  0  0  0  0  0  0  0
   -4.1410   11.6620   20.5050 F   0  0  0  0  0  0  0  0  0  0  0  0
   -3.1040   13.3540   19.6360 F   0  0  0  0  0  0  0  0  0  0  0  0
    2.3090    7.4420   19.5640 C   0  0  0  0  0  0  0  0  0  0  0  0
    3.1700    7.9670   19.9950 H   0  0  0  0  0  0  0  0  0  0  0  0
    1.9440    8.0440   18.7230 H   0  0  0  0  0  0  0  0  0  0  0  0
    2.7950    6.1030   19.0570 C   0  0  0  0  0  0  0  0  0  0  0  0
    3.9370    5.5020   19.6030 C   0  0  0  0  0  0  0  0  0  0  0  0
    4.3820    4.2670   19.1290 C   0  0  0  0  0  0  0  0  0  0  0  0
    3.6930    3.6260   18.1000 C   0  0  0  0  0  0  0  0  0  0  0  0
    2.5640    4.2210   17.5410 C   0  0  0  0  0  0  0  0  0  0  0  0
    2.1180    5.4560   18.0130 C   0  0  0  0  0  0  0  0  0  0  0  0
    4.4930    5.9960   20.3970 H   0  0  0  0  0  0  0  0  0  0  0  0
    5.2690    3.8090   19.5560 H   0  0  0  0  0  0  0  0  0  0  0  0
    4.0430    2.6670   17.7280 H   0  0  0  0  0  0  0  0  0  0  0  0
    2.0350    3.7260   16.7300 H   0  0  0  0  0  0  0  0  0  0  0  0
    1.2410    5.9110   17.5610 H   0  0  0  0  0  0  0  0  0  0  0  0
  1  9  1  6  0  0  0
  1  2  1  0  0  0  0
  2 10  1  0  0  0  0
  2  3  1  0  0  0  0
  3 12  1  0  0  0  0
  3 13  1  0  0  0  0
  4 15  1  0  0  0  0
  4  3  1  0  0  0  0
  5  4  1  0  0  0  0
  6  7  2  0  0  0  0
  6  5  1  0  0  0  0
  8  1  1  0  0  0  0
  8  5  1  0  0  0  0
  8 17  1  0  0  0  0
 11  2  1  0  0  0  0
 14  4  1  0  0  0  0
 16  8  1  0  0  0  0
 18 19  2  0  0  0  0
 19 20  1  0  0  0  0
 20  1  1  0  0  0  0
 21 20  1  0  0  0  0
 22 27  1  0  0  0  0
 22 19  1  0  0  0  0
 23 22  2  0  0  0  0
 24 25  2  0  0  0  0
 24 23  1  0  0  0  0
 25 26  1  0  0  0  0
 26 27  2  0  0  0  0
 27 31  1  0  0  0  0
 28 23  1  0  0  0  0
 29 24  1  0  0  0  0
 30 25  1  0  0  0  0
 31 34  1  0  0  0  0
 31 33  1  0  0  0  0
 32 31  1  0  0  0  0
 35 36  1  0  0  0  0
 35  6  1  0  0  0  0
 37 35  1  0  0  0  0
 38 35  1  0  0  0  0
 38 39  1  0  0  0  0
 39 44  1  0  0  0  0
 40 45  1  0  0  0  0
 40 39  2  0  0  0  0
 41 40  1  0  0  0  0
 42 43  1  0  0  0  0
 42 41  2  0  0  0  0
 43 38  2  0  0  0  0
 46 41  1  0  0  0  0
 47 42  1  0  0  0  0
 48 43  1  0  0  0  0
M  END
>  <MODEL>
17

>  <REMARK>
 VINA RESULT:    -6.537      3.579      5.889
 INTER + INTRA:          -8.443
 INTER:                  -7.844
 INTRA:                  -0.600
 UNBOUND:                 0.005
  Name = 
  5 active torsions:
  status: ('A' for Active; 'I' for Inactive)
    1  A    between atoms: C_2  and  C_19
    2  A    between atoms: N_3  and  C_4
    3  A    between atoms: C_9  and  C_11
    4  A    between atoms: C_11  and  C_12
    5  A    between atoms: C_24  and  C_25
                            x       y       z     vdW  Elec       q    Type
                         _______ _______ _______ _____ _____    ______ ____

>  <TORSDO>
F 5

$$$$
=
 OpenBabel07192307433D

 48 50  0  0  1  0  0  0  0  0999 V2000
    0.6190    7.9900   21.3760 C   0  0  1  0  0  0  0  0  0  0  0  0
    0.9720    8.8960   22.5690 C   0  0  0  0  0  0  0  0  0  0  0  0
    0.7940   10.3870   22.2720 C   0  0  0  0  0  0  0  0  0  0  0  0
    1.0730   10.7290   20.8150 C   0  0  0  0  0  0  0  0  0  0  0  0
    0.2450    9.9540   19.8920 N   0  0  0  0  0  0  0  0  0  0  0  0
    0.1910   10.3720   18.5630 C   0  0  0  0  0  0  0  0  0  0  0  0
    0.9050   11.2940   18.1620 O   0  0  0  0  0  0  0  0  0  0  0  0
   -0.3390    8.7020   20.4000 C   0  0  0  0  0  0  0  0  0  0  0  0
    0.1330    7.0830   21.7540 H   0  0  0  0  0  0  0  0  0  0  0  0
    0.3260    8.6420   23.4200 H   0  0  0  0  0  0  0  0  0  0  0  0
    1.9980    8.7070   22.9020 H   0  0  0  0  0  0  0  0  0  0  0  0
   -0.2390   10.6730   22.5110 H   0  0  0  0  0  0  0  0  0  0  0  0
    1.4370   10.9800   22.9330 H   0  0  0  0  0  0  0  0  0  0  0  0
    2.1230   10.5260   20.5680 H   0  0  0  0  0  0  0  0  0  0  0  0
    0.9000   11.7970   20.6390 H   0  0  0  0  0  0  0  0  0  0  0  0
   -0.5920    8.0340   19.5730 H   0  0  0  0  0  0  0  0  0  0  0  0
   -1.2720    8.9650   20.9100 H   0  0  0  0  0  0  0  0  0  0  0  0
    1.1280    5.3990   20.3720 O   0  0  0  0  0  0  0  0  0  0  0  0
    1.9750    6.2700   20.2270 C   0  0  0  0  0  0  0  0  0  0  0  0
    1.8400    7.5590   20.6890 N   0  0  0  0  0  0  0  0  0  0  0  0
    2.4400    8.2860   20.3120 H   0  0  0  0  0  0  0  0  0  0  0  0
    3.1990    5.9780   19.4570 C   0  0  0  0  0  0  0  0  0  0  0  0
    4.0460    4.9770   19.9490 C   0  0  0  0  0  0  0  0  0  0  0  0
    5.1990    4.6440   19.2480 C   0  0  0  0  0  0  0  0  0  0  0  0
    5.4770    5.3330   18.0830 C   0  0  0  0  0  0  0  0  0  0  0  0
    4.6940    6.3210   17.5940 N   0  0  0  0  0  0  0  0  0  0  0  0
    3.5610    6.6570   18.2910 C   0  0  0  0  0  0  0  0  0  0  0  0
    3.7980    4.4510   20.8690 H   0  0  0  0  0  0  0  0  0  0  0  0
    5.8580    3.8580   19.6000 H   0  0  0  0  0  0  0  0  0  0  0  0
    6.3610    5.1050   17.4930 H   0  0  0  0  0  0  0  0  0  0  0  0
    2.6940    7.7790   17.7430 C   0  0  0  0  0  0  0  0  0  0  0  0
    3.0690    8.1430   16.4790 F   0  0  0  0  0  0  0  0  0  0  0  0
    1.3690    7.4660   17.6670 F   0  0  0  0  0  0  0  0  0  0  0  0
    2.7460    8.9280   18.4800 F   0  0  0  0  0  0  0  0  0  0  0  0
   -0.7710    9.6280   17.6430 C   0  0  0  0  0  0  0  0  0  0  0  0
   -0.9920    8.6370   18.0600 H   0  0  0  0  0  0  0  0  0  0  0  0
   -0.2700    9.4730   16.6780 H   0  0  0  0  0  0  0  0  0  0  0  0
   -2.0880   10.3360   17.4230 C   0  0  0  0  0  0  0  0  0  0  0  0
   -2.6510   11.1300   18.4310 C   0  0  0  0  0  0  0  0  0  0  0  0
   -3.8680   11.7800   18.2220 C   0  0  0  0  0  0  0  0  0  0  0  0
   -4.5360   11.6370   17.0070 C   0  0  0  0  0  0  0  0  0  0  0  0
   -3.9910   10.8390   16.0020 C   0  0  0  0  0  0  0  0  0  0  0  0
   -2.7750   10.1880   16.2100 C   0  0  0  0  0  0  0  0  0  0  0  0
   -2.1500   11.2410   19.3890 H   0  0  0  0  0  0  0  0  0  0  0  0
   -4.2990   12.3920   19.0090 H   0  0  0  0  0  0  0  0  0  0  0  0
   -5.4860   12.1390   16.8460 H   0  0  0  0  0  0  0  0  0  0  0  0
   -4.5190   10.7180   15.0590 H   0  0  0  0  0  0  0  0  0  0  0  0
   -2.3670    9.5630   15.4190 H   0  0  0  0  0  0  0  0  0  0  0  0
  1  9  1  1  0  0  0
  1  2  1  0  0  0  0
  2 11  1  0  0  0  0
  2 10  1  0  0  0  0
  3 12  1  0  0  0  0
  3  2  1  0  0  0  0
  3 13  1  0  0  0  0
  4  3  1  0  0  0  0
  5  8  1  0  0  0  0
  5  4  1  0  0  0  0
  6  5  1  0  0  0  0
  7  6  2  0  0  0  0
  8 17  1  0  0  0  0
  8  1  1  0  0  0  0
 14  4  1  0  0  0  0
 15  4  1  0  0  0  0
 16  8  1  0  0  0  0
 19 18  2  0  0  0  0
 19 20  1  0  0  0  0
 20  1  1  0  0  0  0
 21 20  1  0  0  0  0
 22 23  1  0  0  0  0
 22 19  1  0  0  0  0
 23 28  1  0  0  0  0
 24 29  1  0  0  0  0
 24 23  2  0  0  0  0
 25 24  1  0  0  0  0
 26 25  2  0  0  0  0
 26 27  1  0  0  0  0
 27 22  2  0  0  0  0
 30 25  1  0  0  0  0
 31 27  1  0  0  0  0
 31 34  1  0  0  0  0
 32 31  1  0  0  0  0
 33 31  1  0  0  0  0
 35 36  1  0  0  0  0
 35  6  1  0  0  0  0
 37 35  1  0  0  0  0
 38 35  1  0  0  0  0
 38 39  1  0  0  0  0
 39 44  1  0  0  0  0
 40 39  2  0  0  0  0
 40 45  1  0  0  0  0
 41 40  1  0  0  0  0
 42 43  1  0  0  0  0
 42 41  2  0  0  0  0
 43 38  2  0  0  0  0
 46 41  1  0  0  0  0
 47 42  1  0  0  0  0
 48 43  1  0  0  0  0
M  END
>  <MODEL>
18

>  <REMARK>
 VINA RESULT:    -6.359      3.432      7.363
 INTER + INTRA:          -8.213
 INTER:                  -7.755
 INTRA:                  -0.458
 UNBOUND:                 0.005
  Name = 
  5 active torsions:
  status: ('A' for Active; 'I' for Inactive)
    1  A    between atoms: C_2  and  C_19
    2  A    between atoms: N_3  and  C_4
    3  A    between atoms: C_9  and  C_11
    4  A    between atoms: C_11  and  C_12
    5  A    between atoms: C_24  and  C_25
                            x       y       z     vdW  Elec       q    Type
                         _______ _______ _______ _____ _____    ______ ____

>  <TORSDO>
F 5

$$$$
=
 OpenBabel07192307433D

 48 50  0  0  1  0  0  0  0  0999 V2000
    0.7030   11.4950   20.9230 C   0  0  1  0  0  0  0  0  0  0  0  0
   -0.6820   11.9630   20.4410 C   0  0  0  0  0  0  0  0  0  0  0  0
   -1.3380   10.9990   19.4490 C   0  0  0  0  0  0  0  0  0  0  0  0
   -0.3190   10.2770   18.5790 C   0  0  0  0  0  0  0  0  0  0  0  0
    0.6740    9.5490   19.3680 N   0  0  0  0  0  0  0  0  0  0  0  0
    1.4750    8.6210   18.7060 C   0  0  0  0  0  0  0  0  0  0  0  0
    1.4210    8.5010   17.4800 O   0  0  0  0  0  0  0  0  0  0  0  0
    0.8600    9.9690   20.7670 C   0  0  0  0  0  0  0  0  0  0  0  0
    0.8170   11.7580   21.9800 H   0  0  0  0  0  0  0  0  0  0  0  0
   -1.3500   12.0630   21.3060 H   0  0  0  0  0  0  0  0  0  0  0  0
   -0.6140   12.9610   19.9950 H   0  0  0  0  0  0  0  0  0  0  0  0
   -1.9150   10.2530   20.0120 H   0  0  0  0  0  0  0  0  0  0  0  0
   -2.0590   11.5380   18.8250 H   0  0  0  0  0  0  0  0  0  0  0  0
    0.2210   10.9910   17.9460 H   0  0  0  0  0  0  0  0  0  0  0  0
   -0.8280    9.5720   17.9090 H   0  0  0  0  0  0  0  0  0  0  0  0
    1.8410    9.6560   21.1330 H   0  0  0  0  0  0  0  0  0  0  0  0
    0.1040    9.4480   21.3640 H   0  0  0  0  0  0  0  0  0  0  0  0
    1.2500   14.2610   21.0830 O   0  0  0  0  0  0  0  0  0  0  0  0
    1.9450   13.5590   20.3610 C   0  0  0  0  0  0  0  0  0  0  0  0
    1.7590   12.2060   20.1950 N   0  0  0  0  0  0  0  0  0  0  0  0
    2.5120   11.6460   19.8080 H   0  0  0  0  0  0  0  0  0  0  0  0
    3.1030   14.1490   19.6640 C   0  0  0  0  0  0  0  0  0  0  0  0
    3.0160   14.2850   18.2720 C   0  0  0  0  0  0  0  0  0  0  0  0
    4.0680   14.8590   17.5680 C   0  0  0  0  0  0  0  0  0  0  0  0
    5.1830   15.2660   18.2780 C   0  0  0  0  0  0  0  0  0  0  0  0
    5.3090   15.1260   19.6170 N   0  0  0  0  0  0  0  0  0  0  0  0
    4.2740   14.5510   20.3100 C   0  0  0  0  0  0  0  0  0  0  0  0
    2.1230   13.9560   17.7430 H   0  0  0  0  0  0  0  0  0  0  0  0
    4.0140   14.9920   16.4940 H   0  0  0  0  0  0  0  0  0  0  0  0
    6.0290   15.7280   17.7770 H   0  0  0  0  0  0  0  0  0  0  0  0
    4.4300   14.3830   21.8130 C   0  0  0  0  0  0  0  0  0  0  0  0
    5.6660   14.7810   22.2460 F   0  0  0  0  0  0  0  0  0  0  0  0
    3.5280   15.0980   22.5440 F   0  0  0  0  0  0  0  0  0  0  0  0
    4.2940   13.0940   22.2430 F   0  0  0  0  0  0  0  0  0  0  0  0
    2.4190    7.7850   19.5640 C   0  0  0  0  0  0  0  0  0  0  0  0
    2.3660    8.1190   20.6070 H   0  0  0  0  0  0  0  0  0  0  0  0
    3.4450    7.9620   19.2150 H   0  0  0  0  0  0  0  0  0  0  0  0
    2.1240    6.3020   19.5430 C   0  0  0  0  0  0  0  0  0  0  0  0
    1.6020    5.6600   20.6730 C   0  0  0  0  0  0  0  0  0  0  0  0
    1.3330    4.2900   20.6480 C   0  0  0  0  0  0  0  0  0  0  0  0
    1.5910    3.5510   19.4940 C   0  0  0  0  0  0  0  0  0  0  0  0
    2.1220    4.1770   18.3680 C   0  0  0  0  0  0  0  0  0  0  0  0
    2.3910    5.5460   18.3930 C   0  0  0  0  0  0  0  0  0  0  0  0
    1.4080    6.2200   21.5850 H   0  0  0  0  0  0  0  0  0  0  0  0
    0.9310    3.7990   21.5280 H   0  0  0  0  0  0  0  0  0  0  0  0
    1.3860    2.4840   19.4760 H   0  0  0  0  0  0  0  0  0  0  0  0
    2.3340    3.5980   17.4740 H   0  0  0  0  0  0  0  0  0  0  0  0
    2.8140    6.0190   17.5090 H   0  0  0  0  0  0  0  0  0  0  0  0
  1  9  1  1  0  0  0
  2  1  1  0  0  0  0
  2 10  1  0  0  0  0
  3 12  1  0  0  0  0
  3  2  1  0  0  0  0
  4  5  1  0  0  0  0
  4  3  1  0  0  0  0
  5  8  1  0  0  0  0
  6  5  1  0  0  0  0
  6 35  1  0  0  0  0
  7  6  2  0  0  0  0
  8  1  1  0  0  0  0
  8 16  1  0  0  0  0
  8 17  1  0  0  0  0
 11  2  1  0  0  0  0
 13  3  1  0  0  0  0
 14  4  1  0  0  0  0
 15  4  1  0  0  0  0
 19 18  2  0  0  0  0
 20 19  1  0  0  0  0
 20  1  1  0  0  0  0
 21 20  1  0  0  0  0
 22 27  1  0  0  0  0
 22 19  1  0  0  0  0
 23 22  2  0  0  0  0
 24 23  1  0  0  0  0
 24 25  2  0  0  0  0
 25 26  1  0  0  0  0
 26 27  2  0  0  0  0
 27 31  1  0  0  0  0
 28 23  1  0  0  0  0
 29 24  1  0  0  0  0
 30 25  1  0  0  0  0
 31 34  1  0  0  0  0
 31 32  1  0  0  0  0
 31 33  1  0  0  0  0
 35 36  1  0  0  0  0
 37 35  1  0  0  0  0
 38 35  1  0  0  0  0
 38 39  1  0  0  0  0
 39 44  1  0  0  0  0
 40 39  2  0  0  0  0
 40 45  1  0  0  0  0
 41 40  1  0  0  0  0
 42 43  1  0  0  0  0
 42 41  2  0  0  0  0
 43 38  2  0  0  0  0
 46 41  1  0  0  0  0
 47 42  1  0  0  0  0
 48 43  1  0  0  0  0
M  END
>  <MODEL>
19

>  <REMARK>
 VINA RESULT:    -6.221      4.265      6.779
 INTER + INTRA:          -8.034
 INTER:                  -7.720
 INTRA:                  -0.314
 UNBOUND:                 0.005
  Name = 
  5 active torsions:
  status: ('A' for Active; 'I' for Inactive)
    1  A    between atoms: C_2  and  C_19
    2  A    between atoms: N_3  and  C_4
    3  A    between atoms: C_9  and  C_11
    4  A    between atoms: C_11  and  C_12
    5  A    between atoms: C_24  and  C_25
                            x       y       z     vdW  Elec       q    Type
                         _______ _______ _______ _____ _____    ______ ____

>  <TORSDO>
F 5

$$$$
=
 OpenBabel07192307433D

 48 50  0  0  1  0  0  0  0  0999 V2000
    3.6760    3.7350   20.4620 C   0  0  1  0  0  0  0  0  0  0  0  0
    2.4520    2.8160   20.6250 C   0  0  0  0  0  0  0  0  0  0  0  0
    2.0630    2.0880   19.3360 C   0  0  0  0  0  0  0  0  0  0  0  0
    2.3700    2.9060   18.0890 C   0  0  0  0  0  0  0  0  0  0  0  0
    3.7760    3.3000   18.0120 N   0  0  0  0  0  0  0  0  0  0  0  0
    4.2450    3.7930   16.7960 C   0  0  0  0  0  0  0  0  0  0  0  0
    3.4730    3.9920   15.8550 O   0  0  0  0  0  0  0  0  0  0  0  0
    4.5460    3.2960   19.2670 C   0  0  0  0  0  0  0  0  0  0  0  0
    4.2770    3.6870   21.3770 H   0  0  0  0  0  0  0  0  0  0  0  0
    2.6670    2.0580   21.3890 H   0  0  0  0  0  0  0  0  0  0  0  0
    1.5940    3.3860   20.9980 H   0  0  0  0  0  0  0  0  0  0  0  0
    2.6190    1.1430   19.2840 H   0  0  0  0  0  0  0  0  0  0  0  0
    1.0010    1.8190   19.3630 H   0  0  0  0  0  0  0  0  0  0  0  0
    1.7680    3.8230   18.0740 H   0  0  0  0  0  0  0  0  0  0  0  0
    2.1090    2.3350   17.1900 H   0  0  0  0  0  0  0  0  0  0  0  0
    5.4180    3.9480   19.1820 H   0  0  0  0  0  0  0  0  0  0  0  0
    4.9100    2.2740   19.4190 H   0  0  0  0  0  0  0  0  0  0  0  0
    1.0350    4.6940   20.7530 O   0  0  0  0  0  0  0  0  0  0  0  0
    1.9300    5.4860   20.4920 C   0  0  0  0  0  0  0  0  0  0  0  0
    3.2460    5.1280   20.3120 N   0  0  0  0  0  0  0  0  0  0  0  0
    3.9660    5.8420   20.3660 H   0  0  0  0  0  0  0  0  0  0  0  0
    1.6320    6.9290   20.4240 C   0  0  0  0  0  0  0  0  0  0  0  0
    0.9870    7.5070   21.5250 C   0  0  0  0  0  0  0  0  0  0  0  0
    0.7060    8.8680   21.5240 C   0  0  0  0  0  0  0  0  0  0  0  0
    1.0650    9.6080   20.4130 C   0  0  0  0  0  0  0  0  0  0  0  0
    1.6650    9.0780   19.3240 N   0  0  0  0  0  0  0  0  0  0  0  0
    1.9340    7.7320   19.3210 C   0  0  0  0  0  0  0  0  0  0  0  0
    0.7190    6.8970   22.3860 H   0  0  0  0  0  0  0  0  0  0  0  0
    0.2270    9.3390   22.3750 H   0  0  0  0  0  0  0  0  0  0  0  0
    0.8760   10.6770   20.3660 H   0  0  0  0  0  0  0  0  0  0  0  0
    2.5940    7.1400   18.0860 C   0  0  0  0  0  0  0  0  0  0  0  0
    2.6470    8.0390   17.0550 F   0  0  0  0  0  0  0  0  0  0  0  0
    3.8780    6.7280   18.2910 F   0  0  0  0  0  0  0  0  0  0  0  0
    1.9470    6.0490   17.5810 F   0  0  0  0  0  0  0  0  0  0  0  0
    5.7400    4.0830   16.6970 C   0  0  0  0  0  0  0  0  0  0  0  0
    6.3070    3.2700   17.1680 H   0  0  0  0  0  0  0  0  0  0  0  0
    5.9480    4.9990   17.2640 H   0  0  0  0  0  0  0  0  0  0  0  0
    6.2470    4.2360   15.2820 C   0  0  0  0  0  0  0  0  0  0  0  0
    7.2610    5.1550   14.9790 C   0  0  0  0  0  0  0  0  0  0  0  0
    7.7240    5.2920   13.6700 C   0  0  0  0  0  0  0  0  0  0  0  0
    7.1740    4.5170   12.6510 C   0  0  0  0  0  0  0  0  0  0  0  0
    6.1560    3.6090   12.9380 C   0  0  0  0  0  0  0  0  0  0  0  0
    5.6920    3.4710   14.2460 C   0  0  0  0  0  0  0  0  0  0  0  0
    7.6910    5.7770   15.7610 H   0  0  0  0  0  0  0  0  0  0  0  0
    8.5090    6.0080   13.4440 H   0  0  0  0  0  0  0  0  0  0  0  0
    7.5310    4.6280   11.6310 H   0  0  0  0  0  0  0  0  0  0  0  0
    5.7190    3.0140   12.1400 H   0  0  0  0  0  0  0  0  0  0  0  0
    4.8910    2.7640   14.4520 H   0  0  0  0  0  0  0  0  0  0  0  0
  1  2  1  0  0  0  0
  1  9  1  1  0  0  0
  2 11  1  0  0  0  0
  2 10  1  0  0  0  0
  3 13  1  0  0  0  0
  3  2  1  0  0  0  0
  4  3  1  0  0  0  0
  5  4  1  0  0  0  0
  5  8  1  0  0  0  0
  6  5  1  0  0  0  0
  7  6  2  0  0  0  0
  8 17  1  0  0  0  0
  8  1  1  0  0  0  0
 12  3  1  0  0  0  0
 14  4  1  0  0  0  0
 15  4  1  0  0  0  0
 16  8  1  0  0  0  0
 19 18  2  0  0  0  0
 20 21  1  0  0  0  0
 20  1  1  0  0  0  0
 20 19  1  0  0  0  0
 22 19  1  0  0  0  0
 22 23  1  0  0  0  0
 23 28  1  0  0  0  0
 24 23  2  0  0  0  0
 24 29  1  0  0  0  0
 25 24  1  0  0  0  0
 26 25  2  0  0  0  0
 27 26  1  0  0  0  0
 27 22  2  0  0  0  0
 30 25  1  0  0  0  0
 31 33  1  0  0  0  0
 31 27  1  0  0  0  0
 32 31  1  0  0  0  0
 34 31  1  0  0  0  0
 35  6  1  0  0  0  0
 35 36  1  0  0  0  0
 35 37  1  0  0  0  0
 38 35  1  0  0  0  0
 39 38  1  0  0  0  0
 39 44  1  0  0  0  0
 40 39  2  0  0  0  0
 41 42  2  0  0  0  0
 41 40  1  0  0  0  0
 42 43  1  0  0  0  0
 43 48  1  0  0  0  0
 43 38  2  0  0  0  0
 45 40  1  0  0  0  0
 46 41  1  0  0  0  0
 47 42  1  0  0  0  0
M  END
>  <MODEL>
20

>  <REMARK>
 VINA RESULT:    -6.212      2.833      3.434
 INTER + INTRA:          -8.023
 INTER:                  -9.413
 INTRA:                   1.390
 UNBOUND:                 0.005
  Name = 
  5 active torsions:
  status: ('A' for Active; 'I' for Inactive)
    1  A    between atoms: C_2  and  C_19
    2  A    between atoms: N_3  and  C_4
    3  A    between atoms: C_9  and  C_11
    4  A    between atoms: C_11  and  C_12
    5  A    between atoms: C_24  and  C_25
                            x       y       z     vdW  Elec       q    Type
                         _______ _______ _______ _____ _____    ______ ____

>  <TORSDO>
F 5

$$$$
=
 OpenBabel07192307433D

 48 50  0  0  1  0  0  0  0  0999 V2000
    2.8820    4.9080   20.5920 C   0  0  1  0  0  0  0  0  0  0  0  0
    1.5490    4.1850   20.8530 C   0  0  0  0  0  0  0  0  0  0  0  0
    1.2120    3.1300   19.7970 C   0  0  0  0  0  0  0  0  0  0  0  0
    1.7390    3.4980   18.4170 C   0  0  0  0  0  0  0  0  0  0  0  0
    3.1820    3.7340   18.4160 N   0  0  0  0  0  0  0  0  0  0  0  0
    3.8290    3.7900   17.1830 C   0  0  0  0  0  0  0  0  0  0  0  0
    3.1870    3.7530   16.1310 O   0  0  0  0  0  0  0  0  0  0  0  0
    3.8130    4.0550   19.7070 C   0  0  0  0  0  0  0  0  0  0  0  0
    3.3760    5.0950   21.5520 H   0  0  0  0  0  0  0  0  0  0  0  0
    1.5940    3.6840   21.8290 H   0  0  0  0  0  0  0  0  0  0  0  0
    0.7290    4.9090   20.9240 H   0  0  0  0  0  0  0  0  0  0  0  0
    1.6560    2.1730   20.1020 H   0  0  0  0  0  0  0  0  0  0  0  0
    0.1290    2.9690   19.7610 H   0  0  0  0  0  0  0  0  0  0  0  0
    1.2540    4.4120   18.0520 H   0  0  0  0  0  0  0  0  0  0  0  0
    1.5080    2.7010   17.7000 H   0  0  0  0  0  0  0  0  0  0  0  0
    4.7600    4.5770   19.5510 H   0  0  0  0  0  0  0  0  0  0  0  0
    4.0380    3.1030   20.2010 H   0  0  0  0  0  0  0  0  0  0  0  0
    0.7800    6.6750   21.2540 O   0  0  0  0  0  0  0  0  0  0  0  0
    1.5860    7.0050   20.3940 C   0  0  0  0  0  0  0  0  0  0  0  0
    2.6370    6.2180   19.9820 N   0  0  0  0  0  0  0  0  0  0  0  0
    3.4070    6.6440   19.4760 H   0  0  0  0  0  0  0  0  0  0  0  0
    1.4990    8.3470   19.7880 C   0  0  0  0  0  0  0  0  0  0  0  0
    1.9610    8.4910   18.4730 C   0  0  0  0  0  0  0  0  0  0  0  0
    1.8780    9.7280   17.8450 C   0  0  0  0  0  0  0  0  0  0  0  0
    1.3480   10.7880   18.5580 C   0  0  0  0  0  0  0  0  0  0  0  0
    0.9170   10.6890   19.8360 N   0  0  0  0  0  0  0  0  0  0  0  0
    1.0080    9.4690   20.4590 C   0  0  0  0  0  0  0  0  0  0  0  0
    2.3710    7.6360   17.9380 H   0  0  0  0  0  0  0  0  0  0  0  0
    2.2100    9.8580   16.8220 H   0  0  0  0  0  0  0  0  0  0  0  0
    1.2530   11.7740   18.1110 H   0  0  0  0  0  0  0  0  0  0  0  0
    0.5360    9.3700   21.9010 C   0  0  0  0  0  0  0  0  0  0  0  0
    0.1740   10.5890   22.4050 F   0  0  0  0  0  0  0  0  0  0  0  0
   -0.5450    8.5560   22.0710 F   0  0  0  0  0  0  0  0  0  0  0  0
    1.4820    8.8890   22.7610 F   0  0  0  0  0  0  0  0  0  0  0  0
    5.3490    3.9150   17.2040 C   0  0  0  0  0  0  0  0  0  0  0  0
    5.7930    2.9830   17.5750 H   0  0  0  0  0  0  0  0  0  0  0  0
    5.6170    4.7100   17.9120 H   0  0  0  0  0  0  0  0  0  0  0  0
    5.9640    4.2090   15.8540 C   0  0  0  0  0  0  0  0  0  0  0  0
    5.5920    3.4720   14.7220 C   0  0  0  0  0  0  0  0  0  0  0  0
    6.1650    3.7470   13.4790 C   0  0  0  0  0  0  0  0  0  0  0  0
    7.1180    4.7570   13.3590 C   0  0  0  0  0  0  0  0  0  0  0  0
    7.5050    5.4880   14.4810 C   0  0  0  0  0  0  0  0  0  0  0  0
    6.9330    5.2140   15.7240 C   0  0  0  0  0  0  0  0  0  0  0  0
    4.8600    2.6720   14.8020 H   0  0  0  0  0  0  0  0  0  0  0  0
    5.8730    3.1700   12.6070 H   0  0  0  0  0  0  0  0  0  0  0  0
    7.5670    4.9680   12.3930 H   0  0  0  0  0  0  0  0  0  0  0  0
    8.2570    6.2670   14.3890 H   0  0  0  0  0  0  0  0  0  0  0  0
    7.2520    5.7870   16.5920 H   0  0  0  0  0  0  0  0  0  0  0  0
  1  2  1  0  0  0  0
  1  9  1  1  0  0  0
  2 11  1  0  0  0  0
  2 10  1  0  0  0  0
  3 12  1  0  0  0  0
  3  2  1  0  0  0  0
  4  3  1  0  0  0  0
  5  4  1  0  0  0  0
  5  8  1  0  0  0  0
  6 35  1  0  0  0  0
  6  5  1  0  0  0  0
  7  6  2  0  0  0  0
  8 17  1  0  0  0  0
  8  1  1  0  0  0  0
 13  3  1  0  0  0  0
 14  4  1  0  0  0  0
 15  4  1  0  0  0  0
 16  8  1  0  0  0  0
 19 18  2  0  0  0  0
 20 19  1  0  0  0  0
 20  1  1  0  0  0  0
 21 20  1  0  0  0  0
 22 19  1  0  0  0  0
 22 27  1  0  0  0  0
 23 22  2  0  0  0  0
 24 23  1  0  0  0  0
 24 25  2  0  0  0  0
 25 26  1  0  0  0  0
 26 27  2  0  0  0  0
 27 31  1  0  0  0  0
 28 23  1  0  0  0  0
 29 24  1  0  0  0  0
 30 25  1  0  0  0  0
 31 33  1  0  0  0  0
 31 32  1  0  0  0  0
 31 34  1  0  0  0  0
 35 36  1  0  0  0  0
 35 37  1  0  0  0  0
 38 35  1  0  0  0  0
 39 44  1  0  0  0  0
 39 38  2  0  0  0  0
 40 39  1  0  0  0  0
 41 40  2  0  0  0  0
 41 42  1  0  0  0  0
 42 43  2  0  0  0  0
 43 38  1  0  0  0  0
 43 48  1  0  0  0  0
 45 40  1  0  0  0  0
 46 41  1  0  0  0  0
 47 42  1  0  0  0  0
M  END
>  <MODEL>
21

>  <REMARK>
 VINA RESULT:    -6.155      1.899      2.276
 INTER + INTRA:          -7.949
 INTER:                  -9.640
 INTRA:                   1.691
 UNBOUND:                 0.005
  Name = 
  5 active torsions:
  status: ('A' for Active; 'I' for Inactive)
    1  A    between atoms: C_2  and  C_19
    2  A    between atoms: N_3  and  C_4
    3  A    between atoms: C_9  and  C_11
    4  A    between atoms: C_11  and  C_12
    5  A    between atoms: C_24  and  C_25
                            x       y       z     vdW  Elec       q    Type
                         _______ _______ _______ _____ _____    ______ ____

>  <TORSDO>
F 5

$$$$
=
 OpenBabel07192307433D

 48 50  0  0  1  0  0  0  0  0999 V2000
    1.6270    3.6210   18.6650 C   0  0  1  0  0  0  0  0  0  0  0  0
    1.9590    2.4690   19.6300 C   0  0  0  0  0  0  0  0  0  0  0  0
    1.9340    2.8850   21.1030 C   0  0  0  0  0  0  0  0  0  0  0  0
    2.3570    4.3330   21.3070 C   0  0  0  0  0  0  0  0  0  0  0  0
    1.5430    5.2670   20.5320 N   0  0  0  0  0  0  0  0  0  0  0  0
    1.6320    6.6220   20.8480 C   0  0  0  0  0  0  0  0  0  0  0  0
    2.4520    7.0240   21.6760 O   0  0  0  0  0  0  0  0  0  0  0  0
    0.8160    4.7240   19.3720 C   0  0  0  0  0  0  0  0  0  0  0  0
    1.0370    3.2240   17.8310 H   0  0  0  0  0  0  0  0  0  0  0  0
    1.2280    1.6620   19.4950 H   0  0  0  0  0  0  0  0  0  0  0  0
    2.9360    2.0360   19.3870 H   0  0  0  0  0  0  0  0  0  0  0  0
    0.9130    2.7570   21.4870 H   0  0  0  0  0  0  0  0  0  0  0  0
    2.5700    2.2150   21.6920 H   0  0  0  0  0  0  0  0  0  0  0  0
    3.4020    4.4740   21.0040 H   0  0  0  0  0  0  0  0  0  0  0  0
    2.2910    4.5990   22.3690 H   0  0  0  0  0  0  0  0  0  0  0  0
    0.5740    5.5210   18.6650 H   0  0  0  0  0  0  0  0  0  0  0  0
   -0.1300    4.3170   19.7470 H   0  0  0  0  0  0  0  0  0  0  0  0
    3.7980    2.1150   17.6650 O   0  0  0  0  0  0  0  0  0  0  0  0
    3.8490    3.3360   17.6160 C   0  0  0  0  0  0  0  0  0  0  0  0
    2.8590    4.1670   18.0870 N   0  0  0  0  0  0  0  0  0  0  0  0
    2.8360    5.1350   17.7800 H   0  0  0  0  0  0  0  0  0  0  0  0
    4.9940    3.9930   16.9580 C   0  0  0  0  0  0  0  0  0  0  0  0
    5.1380    3.8060   15.5770 C   0  0  0  0  0  0  0  0  0  0  0  0
    6.1850    4.4240   14.9030 C   0  0  0  0  0  0  0  0  0  0  0  0
    7.0650    5.2000   15.6340 C   0  0  0  0  0  0  0  0  0  0  0  0
    6.9690    5.3810   16.9710 N   0  0  0  0  0  0  0  0  0  0  0  0
    5.9410    4.7630   17.6380 C   0  0  0  0  0  0  0  0  0  0  0  0
    4.4270    3.1900   15.0290 H   0  0  0  0  0  0  0  0  0  0  0  0
    6.3030    4.3090   13.8320 H   0  0  0  0  0  0  0  0  0  0  0  0
    7.8950    5.7120   15.1540 H   0  0  0  0  0  0  0  0  0  0  0  0
    5.8490    4.9590   19.1430 C   0  0  0  0  0  0  0  0  0  0  0  0
    7.0230    5.4240   19.6700 F   0  0  0  0  0  0  0  0  0  0  0  0
    4.8870    5.8470   19.5250 F   0  0  0  0  0  0  0  0  0  0  0  0
    5.5710    3.8140   19.8340 F   0  0  0  0  0  0  0  0  0  0  0  0
    0.6870    7.5670   20.1130 C   0  0  0  0  0  0  0  0  0  0  0  0
   -0.2410    7.0400   19.8590 H   0  0  0  0  0  0  0  0  0  0  0  0
    1.1650    7.8630   19.1700 H   0  0  0  0  0  0  0  0  0  0  0  0
    0.3120    8.8010   20.9010 C   0  0  0  0  0  0  0  0  0  0  0  0
   -0.3500    8.6920   22.1310 C   0  0  0  0  0  0  0  0  0  0  0  0
   -0.6950    9.8360   22.8530 C   0  0  0  0  0  0  0  0  0  0  0  0
   -0.3870   11.0980   22.3480 C   0  0  0  0  0  0  0  0  0  0  0  0
    0.2590   11.2190   21.1190 C   0  0  0  0  0  0  0  0  0  0  0  0
    0.6040   10.0760   20.3960 C   0  0  0  0  0  0  0  0  0  0  0  0
   -0.6090    7.7150   22.5320 H   0  0  0  0  0  0  0  0  0  0  0  0
   -1.2090    9.7430   23.8050 H   0  0  0  0  0  0  0  0  0  0  0  0
   -0.6600   11.9880   22.9070 H   0  0  0  0  0  0  0  0  0  0  0  0
    0.4880   12.2040   20.7200 H   0  0  0  0  0  0  0  0  0  0  0  0
    1.1010   10.1880   19.4350 H   0  0  0  0  0  0  0  0  0  0  0  0
  1  9  1  6  0  0  0
  1  8  1  0  0  0  0
  1  2  1  0  0  0  0
  2  3  1  0  0  0  0
  3  4  1  0  0  0  0
  3 12  1  0  0  0  0
  3 13  1  0  0  0  0
  4 15  1  0  0  0  0
  5  6  1  0  0  0  0
  5  4  1  0  0  0  0
  6  7  2  0  0  0  0
  8 17  1  0  0  0  0
  8  5  1  0  0  0  0
 10  2  1  0  0  0  0
 11  2  1  0  0  0  0
 14  4  1  0  0  0  0
 16  8  1  0  0  0  0
 19 18  2  0  0  0  0
 19 20  1  0  0  0  0
 20  1  1  0  0  0  0
 21 20  1  0  0  0  0
 22 19  1  0  0  0  0
 22 27  1  0  0  0  0
 23 22  2  0  0  0  0
 24 23  1  0  0  0  0
 24 25  2  0  0  0  0
 25 26  1  0  0  0  0
 26 27  2  0  0  0  0
 27 31  1  0  0  0  0
 28 23  1  0  0  0  0
 29 24  1  0  0  0  0
 30 25  1  0  0  0  0
 31 33  1  0  0  0  0
 31 32  1  0  0  0  0
 31 34  1  0  0  0  0
 35  6  1  0  0  0  0
 35 38  1  0  0  0  0
 36 35  1  0  0  0  0
 37 35  1  0  0  0  0
 38 39  1  0  0  0  0
 39 44  1  0  0  0  0
 39 40  2  0  0  0  0
 40 45  1  0  0  0  0
 41 40  1  0  0  0  0
 41 46  1  0  0  0  0
 42 41  2  0  0  0  0
 43 38  2  0  0  0  0
 43 42  1  0  0  0  0
 47 42  1  0  0  0  0
 48 43  1  0  0  0  0
M  END
>  <MODEL>
22

>  <REMARK>
 VINA RESULT:    -6.085      2.835      6.462
 INTER + INTRA:          -7.859
 INTER:                  -7.691
 INTRA:                  -0.168
 UNBOUND:                 0.005
  Name = 
  5 active torsions:
  status: ('A' for Active; 'I' for Inactive)
    1  A    between atoms: C_2  and  C_19
    2  A    between atoms: N_3  and  C_4
    3  A    between atoms: C_9  and  C_11
    4  A    between atoms: C_11  and  C_12
    5  A    between atoms: C_24  and  C_25
                            x       y       z     vdW  Elec       q    Type
                         _______ _______ _______ _____ _____    ______ ____

>  <TORSDO>
F 5

$$$$
=
 OpenBabel07192307433D

 48 50  0  0  1  0  0  0  0  0999 V2000
   -1.0210   13.8440   18.9320 C   0  0  1  0  0  0  0  0  0  0  0  0
   -0.0560   15.0420   18.8910 C   0  0  0  0  0  0  0  0  0  0  0  0
    1.4020   14.6570   19.1540 C   0  0  0  0  0  0  0  0  0  0  0  0
    1.5300   13.4760   20.1060 C   0  0  0  0  0  0  0  0  0  0  0  0
    0.8000   12.2990   19.6370 N   0  0  0  0  0  0  0  0  0  0  0  0
    1.0710   11.0800   20.2560 C   0  0  0  0  0  0  0  0  0  0  0  0
    1.8160   11.0210   21.2370 O   0  0  0  0  0  0  0  0  0  0  0  0
   -0.2790   12.5210   18.6600 C   0  0  0  0  0  0  0  0  0  0  0  0
   -1.7910   13.9840   18.1650 H   0  0  0  0  0  0  0  0  0  0  0  0
   -0.1070   15.5140   17.9010 H   0  0  0  0  0  0  0  0  0  0  0  0
   -0.3690   15.8090   19.6080 H   0  0  0  0  0  0  0  0  0  0  0  0
    1.8740   14.3930   18.1980 H   0  0  0  0  0  0  0  0  0  0  0  0
    1.9530   15.5210   19.5410 H   0  0  0  0  0  0  0  0  0  0  0  0
    1.1360   13.7370   21.0960 H   0  0  0  0  0  0  0  0  0  0  0  0
    2.5860   13.2120   20.2390 H   0  0  0  0  0  0  0  0  0  0  0  0
   -0.9850   11.6880   18.6740 H   0  0  0  0  0  0  0  0  0  0  0  0
    0.1850   12.5450   17.6680 H   0  0  0  0  0  0  0  0  0  0  0  0
   -3.3360   12.3330   19.5140 O   0  0  0  0  0  0  0  0  0  0  0  0
   -2.8310   13.0120   20.3980 C   0  0  0  0  0  0  0  0  0  0  0  0
   -1.7160   13.7980   20.2230 N   0  0  0  0  0  0  0  0  0  0  0  0
   -1.2000   14.1150   21.0370 H   0  0  0  0  0  0  0  0  0  0  0  0
   -3.3840   12.9590   21.7650 C   0  0  0  0  0  0  0  0  0  0  0  0
   -4.5660   13.6690   22.0100 C   0  0  0  0  0  0  0  0  0  0  0  0
   -5.1430   13.6310   23.2740 C   0  0  0  0  0  0  0  0  0  0  0  0
   -4.5110   12.8950   24.2590 C   0  0  0  0  0  0  0  0  0  0  0  0
   -3.3570   12.2190   24.0620 N   0  0  0  0  0  0  0  0  0  0  0  0
   -2.7810   12.2640   22.8170 C   0  0  0  0  0  0  0  0  0  0  0  0
   -5.0410   14.2380   21.2130 H   0  0  0  0  0  0  0  0  0  0  0  0
   -6.0680   14.1570   23.4810 H   0  0  0  0  0  0  0  0  0  0  0  0
   -4.9250   12.8260   25.2620 H   0  0  0  0  0  0  0  0  0  0  0  0
   -1.4750   11.5150   22.6080 C   0  0  0  0  0  0  0  0  0  0  0  0
   -0.3980   12.3590   22.5980 F   0  0  0  0  0  0  0  0  0  0  0  0
   -1.2140   10.5840   23.5700 F   0  0  0  0  0  0  0  0  0  0  0  0
   -1.4110   10.8330   21.4270 F   0  0  0  0  0  0  0  0  0  0  0  0
    0.3920    9.8440   19.6740 C   0  0  0  0  0  0  0  0  0  0  0  0
   -0.1860   10.1220   18.7850 H   0  0  0  0  0  0  0  0  0  0  0  0
   -0.3170    9.4600   20.4200 H   0  0  0  0  0  0  0  0  0  0  0  0
    1.3500    8.7450   19.2730 C   0  0  0  0  0  0  0  0  0  0  0  0
    1.6230    7.6800   20.1420 C   0  0  0  0  0  0  0  0  0  0  0  0
    2.5090    6.6690   19.7660 C   0  0  0  0  0  0  0  0  0  0  0  0
    3.1340    6.7190   18.5210 C   0  0  0  0  0  0  0  0  0  0  0  0
    2.8800    7.7800   17.6540 C   0  0  0  0  0  0  0  0  0  0  0  0
    1.9950    8.7910   18.0290 C   0  0  0  0  0  0  0  0  0  0  0  0
    1.1530    7.6340   21.1220 H   0  0  0  0  0  0  0  0  0  0  0  0
    2.7170    5.8490   20.4450 H   0  0  0  0  0  0  0  0  0  0  0  0
    3.8280    5.9340   18.2300 H   0  0  0  0  0  0  0  0  0  0  0  0
    3.3780    7.8240   16.6890 H   0  0  0  0  0  0  0  0  0  0  0  0
    1.8130    9.6170   17.3450 H   0  0  0  0  0  0  0  0  0  0  0  0
  1  9  1  6  0  0  0
  1 20  1  0  0  0  0
  2  1  1  0  0  0  0
  2  3  1  0  0  0  0
  2 11  1  0  0  0  0
  3 13  1  0  0  0  0
  3  4  1  0  0  0  0
  4 15  1  0  0  0  0
  4 14  1  0  0  0  0
  5  4  1  0  0  0  0
  5  6  1  0  0  0  0
  6  7  2  0  0  0  0
  8 16  1  0  0  0  0
  8  1  1  0  0  0  0
  8  5  1  0  0  0  0
 10  2  1  0  0  0  0
 12  3  1  0  0  0  0
 17  8  1  0  0  0  0
 18 19  2  0  0  0  0
 19 22  1  0  0  0  0
 20 19  1  0  0  0  0
 20 21  1  0  0  0  0
 22 23  2  0  0  0  0
 22 27  1  0  0  0  0
 23 24  1  0  0  0  0
 24 29  1  0  0  0  0
 24 25  2  0  0  0  0
 25 30  1  0  0  0  0
 26 25  1  0  0  0  0
 27 26  2  0  0  0  0
 28 23  1  0  0  0  0
 31 27  1  0  0  0  0
 31 33  1  0  0  0  0
 32 31  1  0  0  0  0
 34 31  1  0  0  0  0
 35  6  1  0  0  0  0
 35 37  1  0  0  0  0
 36 35  1  0  0  0  0
 38 35  1  0  0  0  0
 38 39  1  0  0  0  0
 39 44  1  0  0  0  0
 40 39  2  0  0  0  0
 40 45  1  0  0  0  0
 41 40  1  0  0  0  0
 42 43  1  0  0  0  0
 42 41  2  0  0  0  0
 43 38  2  0  0  0  0
 46 41  1  0  0  0  0
 47 42  1  0  0  0  0
 48 43  1  0  0  0  0
M  END
>  <MODEL>
23

>  <REMARK>
 VINA RESULT:    -6.085      4.307      7.915
 INTER + INTRA:          -7.859
 INTER:                  -7.773
 INTRA:                  -0.085
 UNBOUND:                 0.005
  Name = 
  5 active torsions:
  status: ('A' for Active; 'I' for Inactive)
    1  A    between atoms: C_2  and  C_19
    2  A    between atoms: N_3  and  C_4
    3  A    between atoms: C_9  and  C_11
    4  A    between atoms: C_11  and  C_12
    5  A    between atoms: C_24  and  C_25
                            x       y       z     vdW  Elec       q    Type
                         _______ _______ _______ _____ _____    ______ ____

>  <TORSDO>
F 5

$$$$
=
 OpenBabel07192307433D

 48 50  0  0  1  0  0  0  0  0999 V2000
    4.4870    7.0840   16.8840 C   0  0  1  0  0  0  0  0  0  0  0  0
    5.8630    7.7680   16.7930 C   0  0  0  0  0  0  0  0  0  0  0  0
    7.0160    6.8770   17.2600 C   0  0  0  0  0  0  0  0  0  0  0  0
    6.6000    5.9160   18.3650 C   0  0  0  0  0  0  0  0  0  0  0  0
    5.4700    5.0730   17.9750 N   0  0  0  0  0  0  0  0  0  0  0  0
    5.1820    3.9660   18.7710 C   0  0  0  0  0  0  0  0  0  0  0  0
    5.7910    3.7720   19.8260 O   0  0  0  0  0  0  0  0  0  0  0  0
    4.6260    5.5490   16.8660 C   0  0  0  0  0  0  0  0  0  0  0  0
    3.8810    7.3960   16.0260 H   0  0  0  0  0  0  0  0  0  0  0  0
    6.0570    8.0540   15.7510 H   0  0  0  0  0  0  0  0  0  0  0  0
    5.8640    8.7010   17.3670 H   0  0  0  0  0  0  0  0  0  0  0  0
    7.3800    6.2940   16.4030 H   0  0  0  0  0  0  0  0  0  0  0  0
    7.8580    7.4950   17.5900 H   0  0  0  0  0  0  0  0  0  0  0  0
    6.3050    6.4700   19.2640 H   0  0  0  0  0  0  0  0  0  0  0  0
    7.4440    5.2740   18.6430 H   0  0  0  0  0  0  0  0  0  0  0  0
    3.6390    5.0850   16.9110 H   0  0  0  0  0  0  0  0  0  0  0  0
    5.1030    5.2230   15.9350 H   0  0  0  0  0  0  0  0  0  0  0  0
    2.1530    8.6740   16.9350 O   0  0  0  0  0  0  0  0  0  0  0  0
    2.6370    8.2940   17.9930 C   0  0  0  0  0  0  0  0  0  0  0  0
    3.7780    7.5310   18.0860 N   0  0  0  0  0  0  0  0  0  0  0  0
    3.9720    7.0330   18.9500 H   0  0  0  0  0  0  0  0  0  0  0  0
    1.9470    8.5950   19.2610 C   0  0  0  0  0  0  0  0  0  0  0  0
    1.5840    9.9270   19.4980 C   0  0  0  0  0  0  0  0  0  0  0  0
    0.9090   10.2610   20.6650 C   0  0  0  0  0  0  0  0  0  0  0  0
    0.6290    9.2530   21.5690 C   0  0  0  0  0  0  0  0  0  0  0  0
    0.9870    7.9620   21.3840 N   0  0  0  0  0  0  0  0  0  0  0  0
    1.6630    7.6340   20.2350 C   0  0  0  0  0  0  0  0  0  0  0  0
    1.8170   10.6980   18.7650 H   0  0  0  0  0  0  0  0  0  0  0  0
    0.6000   11.2820   20.8590 H   0  0  0  0  0  0  0  0  0  0  0  0
    0.0960    9.4590   22.4940 H   0  0  0  0  0  0  0  0  0  0  0  0
    2.0760    6.1840   20.0410 C   0  0  0  0  0  0  0  0  0  0  0  0
    1.4250    5.3480   20.9070 F   0  0  0  0  0  0  0  0  0  0  0  0
    1.8250    5.7010   18.7910 F   0  0  0  0  0  0  0  0  0  0  0  0
    3.4070    5.9550   20.2490 F   0  0  0  0  0  0  0  0  0  0  0  0
    4.0800    3.0310   18.2840 C   0  0  0  0  0  0  0  0  0  0  0  0
    4.5100    2.0580   18.0170 H   0  0  0  0  0  0  0  0  0  0  0  0
    3.6480    3.4600   17.3700 H   0  0  0  0  0  0  0  0  0  0  0  0
    2.9850    2.7860   19.2960 C   0  0  0  0  0  0  0  0  0  0  0  0
    1.6490    2.6660   18.8920 C   0  0  0  0  0  0  0  0  0  0  0  0
    0.6420    2.4410   19.8330 C   0  0  0  0  0  0  0  0  0  0  0  0
    0.9620    2.3410   21.1860 C   0  0  0  0  0  0  0  0  0  0  0  0
    2.2860    2.4720   21.6010 C   0  0  0  0  0  0  0  0  0  0  0  0
    3.2930    2.6980   20.6610 C   0  0  0  0  0  0  0  0  0  0  0  0
    1.3810    2.7540   17.8420 H   0  0  0  0  0  0  0  0  0  0  0  0
   -0.3910    2.3510   19.5110 H   0  0  0  0  0  0  0  0  0  0  0  0
    0.1780    2.1710   21.9180 H   0  0  0  0  0  0  0  0  0  0  0  0
    2.5330    2.4070   22.6570 H   0  0  0  0  0  0  0  0  0  0  0  0
    4.3200    2.8060   21.0020 H   0  0  0  0  0  0  0  0  0  0  0  0
  1  9  1  6  0  0  0
  1 20  1  0  0  0  0
  2  1  1  0  0  0  0
  2  3  1  0  0  0  0
  2 11  1  0  0  0  0
  3 13  1  0  0  0  0
  3  4  1  0  0  0  0
  4 15  1  0  0  0  0
  4 14  1  0  0  0  0
  5  4  1  0  0  0  0
  5  6  1  0  0  0  0
  6  7  2  0  0  0  0
  8  1  1  0  0  0  0
  8 16  1  0  0  0  0
  8  5  1  0  0  0  0
 10  2  1  0  0  0  0
 12  3  1  0  0  0  0
 17  8  1  0  0  0  0
 18 19  2  0  0  0  0
 19 20  1  0  0  0  0
 19 22  1  0  0  0  0
 20 21  1  0  0  0  0
 22 23  2  0  0  0  0
 22 27  1  0  0  0  0
 23 24  1  0  0  0  0
 24 29  1  0  0  0  0
 24 25  2  0  0  0  0
 25 30  1  0  0  0  0
 26 25  1  0  0  0  0
 27 26  2  0  0  0  0
 28 23  1  0  0  0  0
 31 27  1  0  0  0  0
 31 34  1  0  0  0  0
 31 32  1  0  0  0  0
 33 31  1  0  0  0  0
 35  6  1  0  0  0  0
 35 38  1  0  0  0  0
 36 35  1  0  0  0  0
 37 35  1  0  0  0  0
 38 43  1  0  0  0  0
 39 38  2  0  0  0  0
 39 40  1  0  0  0  0
 40 41  2  0  0  0  0
 41 42  1  0  0  0  0
 41 46  1  0  0  0  0
 42 47  1  0  0  0  0
 43 48  1  0  0  0  0
 43 42  2  0  0  0  0
 44 39  1  0  0  0  0
 45 40  1  0  0  0  0
M  END
>  <MODEL>
24

>  <REMARK>
 VINA RESULT:    -6.021      2.216      4.991
 INTER + INTRA:          -7.776
 INTER:                  -7.364
 INTRA:                  -0.412
 UNBOUND:                 0.005
  Name = 
  5 active torsions:
  status: ('A' for Active; 'I' for Inactive)
    1  A    between atoms: C_2  and  C_19
    2  A    between atoms: N_3  and  C_4
    3  A    between atoms: C_9  and  C_11
    4  A    between atoms: C_11  and  C_12
    5  A    between atoms: C_24  and  C_25
                            x       y       z     vdW  Elec       q    Type
                         _______ _______ _______ _____ _____    ______ ____

>  <TORSDO>
F 5

$$$$
=
 OpenBabel07192307433D

 48 50  0  0  1  0  0  0  0  0999 V2000
   -0.0100   13.9550   18.9320 C   0  0  1  0  0  0  0  0  0  0  0  0
    1.1630   14.3740   19.8360 C   0  0  0  0  0  0  0  0  0  0  0  0
    2.0890   13.2130   20.2070 C   0  0  0  0  0  0  0  0  0  0  0  0
    1.3480   11.8870   20.3120 C   0  0  0  0  0  0  0  0  0  0  0  0
    0.6270   11.5530   19.0840 N   0  0  0  0  0  0  0  0  0  0  0  0
    0.1560   10.2480   18.9440 C   0  0  0  0  0  0  0  0  0  0  0  0
    0.2480    9.4410   19.8710 O   0  0  0  0  0  0  0  0  0  0  0  0
    0.3150   12.6590   18.1640 C   0  0  0  0  0  0  0  0  0  0  0  0
   -0.2030   14.7570   18.2110 H   0  0  0  0  0  0  0  0  0  0  0  0
    1.7650   15.1330   19.3200 H   0  0  0  0  0  0  0  0  0  0  0  0
    0.7910   14.8530   20.7480 H   0  0  0  0  0  0  0  0  0  0  0  0
    2.8670   13.1230   19.4370 H   0  0  0  0  0  0  0  0  0  0  0  0
    2.6090   13.4330   21.1460 H   0  0  0  0  0  0  0  0  0  0  0  0
    0.6150   11.9200   21.1270 H   0  0  0  0  0  0  0  0  0  0  0  0
    2.0520   11.0790   20.5430 H   0  0  0  0  0  0  0  0  0  0  0  0
   -0.5220   12.3910   17.5140 H   0  0  0  0  0  0  0  0  0  0  0  0
    1.1940   12.8060   17.5270 H   0  0  0  0  0  0  0  0  0  0  0  0
   -0.4800   15.0770   21.4820 O   0  0  0  0  0  0  0  0  0  0  0  0
   -1.3580   14.4060   20.9560 C   0  0  0  0  0  0  0  0  0  0  0  0
   -1.2310   13.8000   19.7270 N   0  0  0  0  0  0  0  0  0  0  0  0
   -2.0660   13.4930   19.2380 H   0  0  0  0  0  0  0  0  0  0  0  0
   -2.6690   14.2700   21.6180 C   0  0  0  0  0  0  0  0  0  0  0  0
   -3.6220   15.2670   21.3710 C   0  0  0  0  0  0  0  0  0  0  0  0
   -4.8820   15.1750   21.9480 C   0  0  0  0  0  0  0  0  0  0  0  0
   -5.1460   14.0940   22.7700 C   0  0  0  0  0  0  0  0  0  0  0  0
   -4.2420   13.1290   23.0490 N   0  0  0  0  0  0  0  0  0  0  0  0
   -2.9940   13.2250   22.4860 C   0  0  0  0  0  0  0  0  0  0  0  0
   -3.3830   16.1050   20.7170 H   0  0  0  0  0  0  0  0  0  0  0  0
   -5.6410   15.9240   21.7540 H   0  0  0  0  0  0  0  0  0  0  0  0
   -6.1190   13.9700   23.2390 H   0  0  0  0  0  0  0  0  0  0  0  0
   -1.9780   12.1450   22.8180 C   0  0  0  0  0  0  0  0  0  0  0  0
   -2.4670   11.2450   23.7260 F   0  0  0  0  0  0  0  0  0  0  0  0
   -1.5810   11.4110   21.7390 F   0  0  0  0  0  0  0  0  0  0  0  0
   -0.8220   12.6220   23.3680 F   0  0  0  0  0  0  0  0  0  0  0  0
   -0.4850    9.8840   17.6090 C   0  0  0  0  0  0  0  0  0  0  0  0
   -0.5110    8.7930   17.4940 H   0  0  0  0  0  0  0  0  0  0  0  0
    0.1480   10.2830   16.8060 H   0  0  0  0  0  0  0  0  0  0  0  0
   -1.8980   10.3950   17.4420 C   0  0  0  0  0  0  0  0  0  0  0  0
   -2.6060   10.9130   18.5350 C   0  0  0  0  0  0  0  0  0  0  0  0
   -3.9110   11.3810   18.3740 C   0  0  0  0  0  0  0  0  0  0  0  0
   -4.5220   11.3290   17.1220 C   0  0  0  0  0  0  0  0  0  0  0  0
   -3.8310   10.8040   16.0310 C   0  0  0  0  0  0  0  0  0  0  0  0
   -2.5270   10.3350   16.1900 C   0  0  0  0  0  0  0  0  0  0  0  0
   -2.1490   10.9470   19.5210 H   0  0  0  0  0  0  0  0  0  0  0  0
   -4.4540   11.7790   19.2270 H   0  0  0  0  0  0  0  0  0  0  0  0
   -5.5390   11.6900   16.9990 H   0  0  0  0  0  0  0  0  0  0  0  0
   -4.3130   10.7530   15.0580 H   0  0  0  0  0  0  0  0  0  0  0  0
   -2.0050    9.9210   15.3310 H   0  0  0  0  0  0  0  0  0  0  0  0
  1  9  1  6  0  0  0
  1 20  1  0  0  0  0
  1  2  1  0  0  0  0
  2  3  1  0  0  0  0
  2 11  1  0  0  0  0
  3  4  1  0  0  0  0
  3 13  1  0  0  0  0
  4 15  1  0  0  0  0
  4 14  1  0  0  0  0
  5  4  1  0  0  0  0
  6  5  1  0  0  0  0
  6  7  2  0  0  0  0
  8  1  1  0  0  0  0
  8  5  1  0  0  0  0
 10  2  1  0  0  0  0
 12  3  1  0  0  0  0
 16  8  1  0  0  0  0
 17  8  1  0  0  0  0
 19 18  2  0  0  0  0
 19 22  1  0  0  0  0
 20 19  1  0  0  0  0
 21 20  1  0  0  0  0
 22 27  1  0  0  0  0
 23 22  2  0  0  0  0
 23 24  1  0  0  0  0
 24 25  2  0  0  0  0
 25 26  1  0  0  0  0
 25 30  1  0  0  0  0
 27 31  1  0  0  0  0
 27 26  2  0  0  0  0
 28 23  1  0  0  0  0
 29 24  1  0  0  0  0
 31 34  1  0  0  0  0
 31 32  1  0  0  0  0
 33 31  1  0  0  0  0
 35  6  1  0  0  0  0
 36 35  1  0  0  0  0
 37 35  1  0  0  0  0
 38 35  1  0  0  0  0
 38 39  1  0  0  0  0
 39 44  1  0  0  0  0
 40 39  2  0  0  0  0
 40 45  1  0  0  0  0
 41 40  1  0  0  0  0
 42 43  1  0  0  0  0
 42 41  2  0  0  0  0
 43 38  2  0  0  0  0
 46 41  1  0  0  0  0
 47 42  1  0  0  0  0
 48 43  1  0  0  0  0
M  END
>  <MODEL>
25

>  <REMARK>
 VINA RESULT:    -5.924      6.129      9.033
 INTER + INTRA:          -7.650
 INTER:                  -7.592
 INTRA:                  -0.058
 UNBOUND:                 0.005
  Name = 
  5 active torsions:
  status: ('A' for Active; 'I' for Inactive)
    1  A    between atoms: C_2  and  C_19
    2  A    between atoms: N_3  and  C_4
    3  A    between atoms: C_9  and  C_11
    4  A    between atoms: C_11  and  C_12
    5  A    between atoms: C_24  and  C_25
                            x       y       z     vdW  Elec       q    Type
                         _______ _______ _______ _____ _____    ______ ____

>  <TORSDO>
F 5

$$$$
=
 OpenBabel07192307433D

 48 50  0  0  1  0  0  0  0  0999 V2000
    2.0860    4.6740   18.1070 C   0  0  1  0  0  0  0  0  0  0  0  0
    2.4370    4.1510   19.5110 C   0  0  0  0  0  0  0  0  0  0  0  0
    2.3830    5.2320   20.5940 C   0  0  0  0  0  0  0  0  0  0  0  0
    2.7640    6.6070   20.0640 C   0  0  0  0  0  0  0  0  0  0  0  0
    1.9350    7.0190   18.9320 N   0  0  0  0  0  0  0  0  0  0  0  0
    1.9830    8.3570   18.5470 C   0  0  0  0  0  0  0  0  0  0  0  0
    2.7810    9.1370   19.0710 O   0  0  0  0  0  0  0  0  0  0  0  0
    1.2370    5.9580   18.1880 C   0  0  0  0  0  0  0  0  0  0  0  0
    1.5180    3.9030   17.5750 H   0  0  0  0  0  0  0  0  0  0  0  0
    1.7300    3.3590   19.7890 H   0  0  0  0  0  0  0  0  0  0  0  0
    3.4280    3.6830   19.5080 H   0  0  0  0  0  0  0  0  0  0  0  0
    1.3610    5.2780   20.9930 H   0  0  0  0  0  0  0  0  0  0  0  0
    3.0290    4.9540   21.4340 H   0  0  0  0  0  0  0  0  0  0  0  0
    3.8080    6.6120   19.7280 H   0  0  0  0  0  0  0  0  0  0  0  0
    2.6770    7.3550   20.8610 H   0  0  0  0  0  0  0  0  0  0  0  0
    0.9820    6.3000   17.1820 H   0  0  0  0  0  0  0  0  0  0  0  0
    0.2980    5.7570   18.7160 H   0  0  0  0  0  0  0  0  0  0  0  0
    3.9480    2.6990   17.3220 O   0  0  0  0  0  0  0  0  0  0  0  0
    4.1400    3.8620   16.9930 C   0  0  0  0  0  0  0  0  0  0  0  0
    3.3100    4.9050   17.3330 N   0  0  0  0  0  0  0  0  0  0  0  0
    3.3730    5.7770   16.8170 H   0  0  0  0  0  0  0  0  0  0  0  0
    5.2830    4.1940   16.1220 C   0  0  0  0  0  0  0  0  0  0  0  0
    5.1730    3.8730   14.7630 C   0  0  0  0  0  0  0  0  0  0  0  0
    6.2100    4.1880   13.8940 C   0  0  0  0  0  0  0  0  0  0  0  0
    7.3340    4.8030   14.4140 C   0  0  0  0  0  0  0  0  0  0  0  0
    7.4830    5.1040   15.7240 N   0  0  0  0  0  0  0  0  0  0  0  0
    6.4620    4.7840   16.5840 C   0  0  0  0  0  0  0  0  0  0  0  0
    4.2730    3.3900   14.3840 H   0  0  0  0  0  0  0  0  0  0  0  0
    6.1370    3.9670   12.8360 H   0  0  0  0  0  0  0  0  0  0  0  0
    8.1700    5.0790   13.7760 H   0  0  0  0  0  0  0  0  0  0  0  0
    6.6440    5.1110   18.0570 C   0  0  0  0  0  0  0  0  0  0  0  0
    7.9570    5.3320   18.3730 F   0  0  0  0  0  0  0  0  0  0  0  0
    5.9670    6.2240   18.4620 F   0  0  0  0  0  0  0  0  0  0  0  0
    6.2320    4.1180   18.9000 F   0  0  0  0  0  0  0  0  0  0  0  0
    1.0220    8.7950   17.4460 C   0  0  0  0  0  0  0  0  0  0  0  0
    0.5810    7.9130   16.9660 H   0  0  0  0  0  0  0  0  0  0  0  0
    1.6000    9.3290   16.6810 H   0  0  0  0  0  0  0  0  0  0  0  0
   -0.1120    9.6700   17.9280 C   0  0  0  0  0  0  0  0  0  0  0  0
    0.0280   10.4550   19.0800 C   0  0  0  0  0  0  0  0  0  0  0  0
   -1.0240   11.2600   19.5210 C   0  0  0  0  0  0  0  0  0  0  0  0
   -2.2270   11.2800   18.8180 C   0  0  0  0  0  0  0  0  0  0  0  0
   -2.3830   10.4930   17.6780 C   0  0  0  0  0  0  0  0  0  0  0  0
   -1.3320    9.6880   17.2370 C   0  0  0  0  0  0  0  0  0  0  0  0
    0.9560   10.4400   19.6470 H   0  0  0  0  0  0  0  0  0  0  0  0
   -0.9070   11.8640   20.4150 H   0  0  0  0  0  0  0  0  0  0  0  0
   -3.0480   11.9030   19.1640 H   0  0  0  0  0  0  0  0  0  0  0  0
   -3.3260   10.5000   17.1380 H   0  0  0  0  0  0  0  0  0  0  0  0
   -1.4720    9.0730   16.3510 H   0  0  0  0  0  0  0  0  0  0  0  0
  1  9  1  6  0  0  0
  1  8  1  0  0  0  0
  1  2  1  0  0  0  0
  2 10  1  0  0  0  0
  2  3  1  0  0  0  0
  3 12  1  0  0  0  0
  3 13  1  0  0  0  0
  4  3  1  0  0  0  0
  4 15  1  0  0  0  0
  5  4  1  0  0  0  0
  6  5  1  0  0  0  0
  6  7  2  0  0  0  0
  8 17  1  0  0  0  0
  8  5  1  0  0  0  0
 11  2  1  0  0  0  0
 14  4  1  0  0  0  0
 16  8  1  0  0  0  0
 19 18  2  0  0  0  0
 19 20  1  0  0  0  0
 20  1  1  0  0  0  0
 21 20  1  0  0  0  0
 22 27  1  0  0  0  0
 22 19  1  0  0  0  0
 23 22  2  0  0  0  0
 24 25  2  0  0  0  0
 24 23  1  0  0  0  0
 25 26  1  0  0  0  0
 26 27  2  0  0  0  0
 27 31  1  0  0  0  0
 28 23  1  0  0  0  0
 29 24  1  0  0  0  0
 30 25  1  0  0  0  0
 31 32  1  0  0  0  0
 31 33  1  0  0  0  0
 31 34  1  0  0  0  0
 35 38  1  0  0  0  0
 35  6  1  0  0  0  0
 36 35  1  0  0  0  0
 37 35  1  0  0  0  0
 38 39  1  0  0  0  0
 39 40  2  0  0  0  0
 39 44  1  0  0  0  0
 40 45  1  0  0  0  0
 41 46  1  0  0  0  0
 41 40  1  0  0  0  0
 42 41  2  0  0  0  0
 43 42  1  0  0  0  0
 43 38  2  0  0  0  0
 47 42  1  0  0  0  0
 48 43  1  0  0  0  0
M  END
>  <MODEL>
26

>  <REMARK>
 VINA RESULT:    -5.895      3.614      7.031
 INTER + INTRA:          -7.613
 INTER:                  -7.260
 INTRA:                  -0.353
 UNBOUND:                 0.005
  Name = 
  5 active torsions:
  status: ('A' for Active; 'I' for Inactive)
    1  A    between atoms: C_2  and  C_19
    2  A    between atoms: N_3  and  C_4
    3  A    between atoms: C_9  and  C_11
    4  A    between atoms: C_11  and  C_12
    5  A    between atoms: C_24  and  C_25
                            x       y       z     vdW  Elec       q    Type
                         _______ _______ _______ _____ _____    ______ ____

>  <TORSDO>
F 5

$$$$
=
 OpenBabel07192307433D

 48 50  0  0  1  0  0  0  0  0999 V2000
    1.6960    3.5610   18.8750 C   0  0  1  0  0  0  0  0  0  0  0  0
    2.1540    2.5210   19.9130 C   0  0  0  0  0  0  0  0  0  0  0  0
    2.1220    3.0440   21.3510 C   0  0  0  0  0  0  0  0  0  0  0  0
    2.4140    4.5360   21.4350 C   0  0  0  0  0  0  0  0  0  0  0  0
    1.5000    5.3300   20.6160 N   0  0  0  0  0  0  0  0  0  0  0  0
    1.4700    6.7080   20.8280 C   0  0  0  0  0  0  0  0  0  0  0  0
    2.2670    7.2450   21.6010 O   0  0  0  0  0  0  0  0  0  0  0  0
    0.8010    4.6370   19.5220 C   0  0  0  0  0  0  0  0  0  0  0  0
    1.1270    3.0490   18.0900 H   0  0  0  0  0  0  0  0  0  0  0  0
    1.4980    1.6430   19.8590 H   0  0  0  0  0  0  0  0  0  0  0  0
    3.1600    2.1610   19.6750 H   0  0  0  0  0  0  0  0  0  0  0  0
    1.1260    2.8540   21.7730 H   0  0  0  0  0  0  0  0  0  0  0  0
    2.8300    2.4810   21.9700 H   0  0  0  0  0  0  0  0  0  0  0  0
    3.4340    4.7470   21.0920 H   0  0  0  0  0  0  0  0  0  0  0  0
    2.3470    4.8750   22.4760 H   0  0  0  0  0  0  0  0  0  0  0  0
    0.4710    5.3520   18.7640 H   0  0  0  0  0  0  0  0  0  0  0  0
   -0.0950    4.1750   19.9530 H   0  0  0  0  0  0  0  0  0  0  0  0
    3.8700    2.1700   17.7270 O   0  0  0  0  0  0  0  0  0  0  0  0
    3.8560    3.3930   17.6830 C   0  0  0  0  0  0  0  0  0  0  0  0
    2.8580    4.1710   18.2230 N   0  0  0  0  0  0  0  0  0  0  0  0
    2.7680    5.1370   17.9250 H   0  0  0  0  0  0  0  0  0  0  0  0
    4.9220    4.1090   16.9580 C   0  0  0  0  0  0  0  0  0  0  0  0
    4.9720    3.9520   15.5670 C   0  0  0  0  0  0  0  0  0  0  0  0
    5.9400    4.6260   14.8310 C   0  0  0  0  0  0  0  0  0  0  0  0
    6.8390    5.4250   15.5130 C   0  0  0  0  0  0  0  0  0  0  0  0
    6.8340    5.5790   16.8560 N   0  0  0  0  0  0  0  0  0  0  0  0
    5.8840    4.9060   17.5830 C   0  0  0  0  0  0  0  0  0  0  0  0
    4.2490    3.3160   15.0590 H   0  0  0  0  0  0  0  0  0  0  0  0
    5.9850    4.5350   13.7520 H   0  0  0  0  0  0  0  0  0  0  0  0
    7.6100    5.9800   14.9840 H   0  0  0  0  0  0  0  0  0  0  0  0
    5.8950    5.0710   19.0940 C   0  0  0  0  0  0  0  0  0  0  0  0
    4.9180    5.9280   19.5220 F   0  0  0  0  0  0  0  0  0  0  0  0
    5.7000    3.9070   19.7770 F   0  0  0  0  0  0  0  0  0  0  0  0
    7.0630    5.5810   19.5870 F   0  0  0  0  0  0  0  0  0  0  0  0
    0.4260    7.5050   20.0530 C   0  0  0  0  0  0  0  0  0  0  0  0
   -0.4510    7.6820   20.6870 H   0  0  0  0  0  0  0  0  0  0  0  0
    0.0970    6.8970   19.2000 H   0  0  0  0  0  0  0  0  0  0  0  0
    0.9140    8.8480   19.5600 C   0  0  0  0  0  0  0  0  0  0  0  0
    0.5850   10.0250   20.2450 C   0  0  0  0  0  0  0  0  0  0  0  0
    1.0380   11.2620   19.7840 C   0  0  0  0  0  0  0  0  0  0  0  0
    1.8180   11.3330   18.6310 C   0  0  0  0  0  0  0  0  0  0  0  0
    2.1410   10.1700   17.9350 C   0  0  0  0  0  0  0  0  0  0  0  0
    1.6880    8.9330   18.3940 C   0  0  0  0  0  0  0  0  0  0  0  0
   -0.0340    9.9870   21.1390 H   0  0  0  0  0  0  0  0  0  0  0  0
    0.7760   12.1700   20.3200 H   0  0  0  0  0  0  0  0  0  0  0  0
    2.1660   12.2970   18.2700 H   0  0  0  0  0  0  0  0  0  0  0  0
    2.7380   10.2280   17.0290 H   0  0  0  0  0  0  0  0  0  0  0  0
    1.9420    8.0350   17.8350 H   0  0  0  0  0  0  0  0  0  0  0  0
  1  9  1  6  0  0  0
  1  8  1  0  0  0  0
  1  2  1  0  0  0  0
  2  3  1  0  0  0  0
  3  4  1  0  0  0  0
  3 12  1  0  0  0  0
  3 13  1  0  0  0  0
  4 15  1  0  0  0  0
  5  6  1  0  0  0  0
  5  4  1  0  0  0  0
  6  7  2  0  0  0  0
  8 17  1  0  0  0  0
  8  5  1  0  0  0  0
 10  2  1  0  0  0  0
 11  2  1  0  0  0  0
 14  4  1  0  0  0  0
 16  8  1  0  0  0  0
 19 18  2  0  0  0  0
 19 20  1  0  0  0  0
 20  1  1  0  0  0  0
 21 20  1  0  0  0  0
 22 27  1  0  0  0  0
 22 19  1  0  0  0  0
 23 22  2  0  0  0  0
 24 25  2  0  0  0  0
 24 23  1  0  0  0  0
 25 26  1  0  0  0  0
 26 27  2  0  0  0  0
 27 31  1  0  0  0  0
 28 23  1  0  0  0  0
 29 24  1  0  0  0  0
 30 25  1  0  0  0  0
 31 32  1  0  0  0  0
 31 34  1  0  0  0  0
 31 33  1  0  0  0  0
 35 36  1  0  0  0  0
 35  6  1  0  0  0  0
 37 35  1  0  0  0  0
 38 35  1  0  0  0  0
 38 39  1  0  0  0  0
 39 44  1  0  0  0  0
 40 39  2  0  0  0  0
 40 45  1  0  0  0  0
 41 40  1  0  0  0  0
 42 43  1  0  0  0  0
 42 41  2  0  0  0  0
 43 38  2  0  0  0  0
 46 41  1  0  0  0  0
 47 42  1  0  0  0  0
 48 43  1  0  0  0  0
M  END
>  <MODEL>
27

>  <REMARK>
 VINA RESULT:    -5.791      2.782      5.912
 INTER + INTRA:          -7.479
 INTER:                  -6.968
 INTRA:                  -0.511
 UNBOUND:                 0.005
  Name = 
  5 active torsions:
  status: ('A' for Active; 'I' for Inactive)
    1  A    between atoms: C_2  and  C_19
    2  A    between atoms: N_3  and  C_4
    3  A    between atoms: C_9  and  C_11
    4  A    between atoms: C_11  and  C_12
    5  A    between atoms: C_24  and  C_25
                            x       y       z     vdW  Elec       q    Type
                         _______ _______ _______ _____ _____    ______ ____

>  <TORSDO>
F 5

$$$$
=
 OpenBabel07192307433D

 48 50  0  0  1  0  0  0  0  0999 V2000
   -0.9310   12.6560   21.0270 C   0  0  1  0  0  0  0  0  0  0  0  0
   -1.8660   13.0940   22.1680 C   0  0  0  0  0  0  0  0  0  0  0  0
   -1.8050   12.1750   23.3910 C   0  0  0  0  0  0  0  0  0  0  0  0
   -1.5170   10.7270   23.0170 C   0  0  0  0  0  0  0  0  0  0  0  0
   -0.2820   10.5840   22.2480 N   0  0  0  0  0  0  0  0  0  0  0  0
    0.2430    9.3020   22.0970 C   0  0  0  0  0  0  0  0  0  0  0  0
   -0.3750    8.3150   22.5030 O   0  0  0  0  0  0  0  0  0  0  0  0
    0.2230   11.7830   21.5570 C   0  0  0  0  0  0  0  0  0  0  0  0
   -0.5120   13.5500   20.5510 H   0  0  0  0  0  0  0  0  0  0  0  0
   -1.5900   14.1060   22.4940 H   0  0  0  0  0  0  0  0  0  0  0  0
   -2.8990   13.1630   21.8110 H   0  0  0  0  0  0  0  0  0  0  0  0
   -1.0110   12.5320   24.0600 H   0  0  0  0  0  0  0  0  0  0  0  0
   -2.7400   12.2440   23.9580 H   0  0  0  0  0  0  0  0  0  0  0  0
   -2.3340   10.3180   22.4100 H   0  0  0  0  0  0  0  0  0  0  0  0
   -1.4470   10.1110   23.9220 H   0  0  0  0  0  0  0  0  0  0  0  0
    0.8850   11.5000   20.7350 H   0  0  0  0  0  0  0  0  0  0  0  0
    0.8210   12.3450   22.2840 H   0  0  0  0  0  0  0  0  0  0  0  0
   -0.8770   13.2080   18.2570 O   0  0  0  0  0  0  0  0  0  0  0  0
   -1.5770   12.2920   18.6680 C   0  0  0  0  0  0  0  0  0  0  0  0
   -1.6920   11.9460   19.9940 N   0  0  0  0  0  0  0  0  0  0  0  0
   -2.0630   11.0330   20.2380 H   0  0  0  0  0  0  0  0  0  0  0  0
   -2.3040   11.4410   17.7070 C   0  0  0  0  0  0  0  0  0  0  0  0
   -3.5410   11.9050   17.2420 C   0  0  0  0  0  0  0  0  0  0  0  0
   -4.2550   11.1550   16.3160 C   0  0  0  0  0  0  0  0  0  0  0  0
   -3.7160    9.9550   15.8920 C   0  0  0  0  0  0  0  0  0  0  0  0
   -2.5370    9.4660   16.3390 N   0  0  0  0  0  0  0  0  0  0  0  0
   -1.8360   10.2020   17.2610 C   0  0  0  0  0  0  0  0  0  0  0  0
   -3.9380   12.8560   17.5940 H   0  0  0  0  0  0  0  0  0  0  0  0
   -5.2050   11.5050   15.9280 H   0  0  0  0  0  0  0  0  0  0  0  0
   -4.2300    9.3340   15.1620 H   0  0  0  0  0  0  0  0  0  0  0  0
   -0.5200    9.6380   17.7710 C   0  0  0  0  0  0  0  0  0  0  0  0
   -0.6150    9.2070   19.0650 F   0  0  0  0  0  0  0  0  0  0  0  0
   -0.0620    8.5730   17.0520 F   0  0  0  0  0  0  0  0  0  0  0  0
    0.5070   10.5380   17.7650 F   0  0  0  0  0  0  0  0  0  0  0  0
    1.5930    9.1860   21.3970 C   0  0  0  0  0  0  0  0  0  0  0  0
    2.4000    9.2180   22.1400 H   0  0  0  0  0  0  0  0  0  0  0  0
    1.7160   10.0580   20.7430 H   0  0  0  0  0  0  0  0  0  0  0  0
    1.7640    7.9190   20.5910 C   0  0  0  0  0  0  0  0  0  0  0  0
    1.4300    6.6720   21.1360 C   0  0  0  0  0  0  0  0  0  0  0  0
    1.5920    5.5050   20.3870 C   0  0  0  0  0  0  0  0  0  0  0  0
    2.0950    5.5750   19.0890 C   0  0  0  0  0  0  0  0  0  0  0  0
    2.4420    6.8080   18.5410 C   0  0  0  0  0  0  0  0  0  0  0  0
    2.2820    7.9750   19.2890 C   0  0  0  0  0  0  0  0  0  0  0  0
    1.0490    6.5990   22.1520 H   0  0  0  0  0  0  0  0  0  0  0  0
    1.3330    4.5430   20.8180 H   0  0  0  0  0  0  0  0  0  0  0  0
    2.2250    4.6660   18.5080 H   0  0  0  0  0  0  0  0  0  0  0  0
    2.8460    6.8600   17.5330 H   0  0  0  0  0  0  0  0  0  0  0  0
    2.5660    8.9290   18.8500 H   0  0  0  0  0  0  0  0  0  0  0  0
  1  9  1  6  0  0  0
  1  8  1  0  0  0  0
  1  2  1  0  0  0  0
  2 10  1  0  0  0  0
  2  3  1  0  0  0  0
  3 13  1  0  0  0  0
  3 12  1  0  0  0  0
  4  3  1  0  0  0  0
  4 15  1  0  0  0  0
  5  4  1  0  0  0  0
  6  5  1  0  0  0  0
  6  7  2  0  0  0  0
  8  5  1  0  0  0  0
  8 17  1  0  0  0  0
 11  2  1  0  0  0  0
 14  4  1  0  0  0  0
 16  8  1  0  0  0  0
 18 19  2  0  0  0  0
 19 20  1  0  0  0  0
 20 21  1  0  0  0  0
 20  1  1  0  0  0  0
 22 19  1  0  0  0  0
 23 28  1  0  0  0  0
 23 22  2  0  0  0  0
 24 23  1  0  0  0  0
 25 24  2  0  0  0  0
 25 26  1  0  0  0  0
 26 27  2  0  0  0  0
 27 22  1  0  0  0  0
 27 31  1  0  0  0  0
 29 24  1  0  0  0  0
 30 25  1  0  0  0  0
 31 32  1  0  0  0  0
 33 31  1  0  0  0  0
 34 31  1  0  0  0  0
 35  6  1  0  0  0  0
 35 36  1  0  0  0  0
 37 35  1  0  0  0  0
 38 39  1  0  0  0  0
 38 35  1  0  0  0  0
 39 44  1  0  0  0  0
 40 45  1  0  0  0  0
 40 39  2  0  0  0  0
 41 40  1  0  0  0  0
 42 41  2  0  0  0  0
 42 43  1  0  0  0  0
 43 38  2  0  0  0  0
 46 41  1  0  0  0  0
 47 42  1  0  0  0  0
 48 43  1  0  0  0  0
M  END
>  <MODEL>
28

>  <REMARK>
 VINA RESULT:    -5.781      3.989      7.061
 INTER + INTRA:          -7.466
 INTER:                  -6.515
 INTRA:                  -0.951
 UNBOUND:                 0.005
  Name = 
  5 active torsions:
  status: ('A' for Active; 'I' for Inactive)
    1  A    between atoms: C_2  and  C_19
    2  A    between atoms: N_3  and  C_4
    3  A    between atoms: C_9  and  C_11
    4  A    between atoms: C_11  and  C_12
    5  A    between atoms: C_24  and  C_25
                            x       y       z     vdW  Elec       q    Type
                         _______ _______ _______ _____ _____    ______ ____

>  <TORSDO>
F 5

$$$$
=
 OpenBabel07192307433D

 48 50  0  0  1  0  0  0  0  0999 V2000
    3.6340    2.7200   17.6940 C   0  0  1  0  0  0  0  0  0  0  0  0
    4.3080    1.3630   17.9640 C   0  0  0  0  0  0  0  0  0  0  0  0
    3.8990    0.7360   19.2990 C   0  0  0  0  0  0  0  0  0  0  0  0
    3.6000    1.7800   20.3660 C   0  0  0  0  0  0  0  0  0  0  0  0
    2.5700    2.7280   19.9450 N   0  0  0  0  0  0  0  0  0  0  0  0
    2.0020    3.5440   20.9230 C   0  0  0  0  0  0  0  0  0  0  0  0
    2.4340    3.5400   22.0770 O   0  0  0  0  0  0  0  0  0  0  0  0
    2.3270    2.8620   18.4990 C   0  0  0  0  0  0  0  0  0  0  0  0
    3.4030    2.7920   16.6250 H   0  0  0  0  0  0  0  0  0  0  0  0
    4.0400    0.6600   17.1650 H   0  0  0  0  0  0  0  0  0  0  0  0
    5.3980    1.4630   17.9240 H   0  0  0  0  0  0  0  0  0  0  0  0
    3.0000    0.1260   19.1400 H   0  0  0  0  0  0  0  0  0  0  0  0
    4.6790    0.0490   19.6450 H   0  0  0  0  0  0  0  0  0  0  0  0
    4.5030    2.3560   20.6020 H   0  0  0  0  0  0  0  0  0  0  0  0
    3.2780    1.2910   21.2920 H   0  0  0  0  0  0  0  0  0  0  0  0
    1.8550    3.8220   18.2770 H   0  0  0  0  0  0  0  0  0  0  0  0
    1.6200    2.0730   18.2170 H   0  0  0  0  0  0  0  0  0  0  0  0
    5.7300    3.6310   16.0330 O   0  0  0  0  0  0  0  0  0  0  0  0
    5.5380    4.1850   17.1080 C   0  0  0  0  0  0  0  0  0  0  0  0
    4.5590    3.8150   18.0000 N   0  0  0  0  0  0  0  0  0  0  0  0
    4.2810    4.4640   18.7290 H   0  0  0  0  0  0  0  0  0  0  0  0
    6.3400    5.3670   17.4730 C   0  0  0  0  0  0  0  0  0  0  0  0
    7.4840    5.1540   18.2540 C   0  0  0  0  0  0  0  0  0  0  0  0
    8.2900    6.2310   18.6040 C   0  0  0  0  0  0  0  0  0  0  0  0
    7.9190    7.4910   18.1740 C   0  0  0  0  0  0  0  0  0  0  0  0
    6.8090    7.7350   17.4410 N   0  0  0  0  0  0  0  0  0  0  0  0
    6.0080    6.6730   17.1030 C   0  0  0  0  0  0  0  0  0  0  0  0
    7.7500    4.1490   18.5750 H   0  0  0  0  0  0  0  0  0  0  0  0
    9.1900    6.0860   19.1900 H   0  0  0  0  0  0  0  0  0  0  0  0
    8.5190    8.3660   18.4130 H   0  0  0  0  0  0  0  0  0  0  0  0
    4.7540    6.9570   16.2930 C   0  0  0  0  0  0  0  0  0  0  0  0
    4.2080    8.1720   16.6060 F   0  0  0  0  0  0  0  0  0  0  0  0
    4.9610    6.9740   14.9450 F   0  0  0  0  0  0  0  0  0  0  0  0
    3.7510    6.0500   16.4880 F   0  0  0  0  0  0  0  0  0  0  0  0
    0.8450    4.4390   20.4900 C   0  0  0  0  0  0  0  0  0  0  0  0
    0.0390    4.3900   21.2320 H   0  0  0  0  0  0  0  0  0  0  0  0
    0.4450    4.0480   19.5450 H   0  0  0  0  0  0  0  0  0  0  0  0
    1.2200    5.8930   20.3180 C   0  0  0  0  0  0  0  0  0  0  0  0
    0.8070    6.8550   21.2500 C   0  0  0  0  0  0  0  0  0  0  0  0
    1.1550    8.1960   21.0850 C   0  0  0  0  0  0  0  0  0  0  0  0
    1.9140    8.5890   19.9840 C   0  0  0  0  0  0  0  0  0  0  0  0
    2.3200    7.6430   19.0440 C   0  0  0  0  0  0  0  0  0  0  0  0
    1.9720    6.3020   19.2070 C   0  0  0  0  0  0  0  0  0  0  0  0
    0.2030    6.5670   22.1080 H   0  0  0  0  0  0  0  0  0  0  0  0
    0.8290    8.9350   21.8110 H   0  0  0  0  0  0  0  0  0  0  0  0
    2.1810    9.6340   19.8530 H   0  0  0  0  0  0  0  0  0  0  0  0
    2.9010    7.9520   18.1790 H   0  0  0  0  0  0  0  0  0  0  0  0
    2.2890    5.5780   18.4610 H   0  0  0  0  0  0  0  0  0  0  0  0
  1  9  1  6  0  0  0
  1  2  1  0  0  0  0
  1 20  1  0  0  0  0
  1  8  1  0  0  0  0
  2  3  1  0  0  0  0
  3 13  1  0  0  0  0
  3  4  1  0  0  0  0
  4 14  1  0  0  0  0
  4 15  1  0  0  0  0
  5  4  1  0  0  0  0
  5  6  1  0  0  0  0
  6  7  2  0  0  0  0
  8  5  1  0  0  0  0
 10  2  1  0  0  0  0
 11  2  1  0  0  0  0
 12  3  1  0  0  0  0
 16  8  1  0  0  0  0
 17  8  1  0  0  0  0
 18 19  2  0  0  0  0
 19 22  1  0  0  0  0
 19 20  1  0  0  0  0
 20 21  1  0  0  0  0
 22 23  1  0  0  0  0
 23 28  1  0  0  0  0
 23 24  2  0  0  0  0
 24 29  1  0  0  0  0
 25 30  1  0  0  0  0
 25 24  1  0  0  0  0
 26 25  2  0  0  0  0
 27 26  1  0  0  0  0
 27 22  2  0  0  0  0
 31 34  1  0  0  0  0
 31 32  1  0  0  0  0
 31 27  1  0  0  0  0
 33 31  1  0  0  0  0
 35  6  1  0  0  0  0
 35 36  1  0  0  0  0
 37 35  1  0  0  0  0
 38 35  1  0  0  0  0
 38 39  1  0  0  0  0
 39 44  1  0  0  0  0
 40 39  2  0  0  0  0
 40 45  1  0  0  0  0
 41 40  1  0  0  0  0
 42 43  1  0  0  0  0
 42 41  2  0  0  0  0
 43 38  2  0  0  0  0
 46 41  1  0  0  0  0
 47 42  1  0  0  0  0
 48 43  1  0  0  0  0
M  END
>  <MODEL>
29

>  <REMARK>
 VINA RESULT:    -5.747      3.021      5.685
 INTER + INTRA:          -7.422
 INTER:                  -6.490
 INTRA:                  -0.932
 UNBOUND:                 0.005
  Name = 
  5 active torsions:
  status: ('A' for Active; 'I' for Inactive)
    1  A    between atoms: C_2  and  C_19
    2  A    between atoms: N_3  and  C_4
    3  A    between atoms: C_9  and  C_11
    4  A    between atoms: C_11  and  C_12
    5  A    between atoms: C_24  and  C_25
                            x       y       z     vdW  Elec       q    Type
                         _______ _______ _______ _____ _____    ______ ____

>  <TORSDO>
F 5

$$$$
=
 OpenBabel07192307433D

 48 50  0  0  1  0  0  0  0  0999 V2000
   -0.2560   11.4500   21.5590 C   0  0  1  0  0  0  0  0  0  0  0  0
   -0.7030   11.2340   23.0160 C   0  0  0  0  0  0  0  0  0  0  0  0
   -0.3000    9.8690   23.5780 C   0  0  0  0  0  0  0  0  0  0  0  0
   -0.2750    8.7830   22.5120 C   0  0  0  0  0  0  0  0  0  0  0  0
    0.6050    9.1190   21.3940 N   0  0  0  0  0  0  0  0  0  0  0  0
    0.9410    8.1000   20.5040 C   0  0  0  0  0  0  0  0  0  0  0  0
    0.4240    6.9850   20.5970 O   0  0  0  0  0  0  0  0  0  0  0  0
    0.9370   10.5410   21.2020 C   0  0  0  0  0  0  0  0  0  0  0  0
    0.0450   12.4970   21.4340 H   0  0  0  0  0  0  0  0  0  0  0  0
   -0.2520   12.0070   23.6520 H   0  0  0  0  0  0  0  0  0  0  0  0
   -1.7870   11.3630   23.1060 H   0  0  0  0  0  0  0  0  0  0  0  0
    0.7010    9.9520   24.0210 H   0  0  0  0  0  0  0  0  0  0  0  0
   -0.9740    9.5860   24.3950 H   0  0  0  0  0  0  0  0  0  0  0  0
   -1.2810    8.6220   22.1040 H   0  0  0  0  0  0  0  0  0  0  0  0
    0.0520    7.8320   22.9490 H   0  0  0  0  0  0  0  0  0  0  0  0
    1.2510   10.7250   20.1720 H   0  0  0  0  0  0  0  0  0  0  0  0
    1.7900   10.7630   21.8520 H   0  0  0  0  0  0  0  0  0  0  0  0
   -1.3030   13.3240   19.7220 O   0  0  0  0  0  0  0  0  0  0  0  0
   -1.7980   12.2060   19.7790 C   0  0  0  0  0  0  0  0  0  0  0  0
   -1.3790   11.2220   20.6450 N   0  0  0  0  0  0  0  0  0  0  0  0
   -1.6390   10.2580   20.4630 H   0  0  0  0  0  0  0  0  0  0  0  0
   -2.8640   11.8300   18.8320 C   0  0  0  0  0  0  0  0  0  0  0  0
   -4.1140   12.4410   18.9940 C   0  0  0  0  0  0  0  0  0  0  0  0
   -5.1470   12.1430   18.1130 C   0  0  0  0  0  0  0  0  0  0  0  0
   -4.9010   11.2300   17.1040 C   0  0  0  0  0  0  0  0  0  0  0  0
   -3.7140   10.6050   16.9350 N   0  0  0  0  0  0  0  0  0  0  0  0
   -2.6980   10.8920   17.8110 C   0  0  0  0  0  0  0  0  0  0  0  0
   -4.2760   13.1570   19.7980 H   0  0  0  0  0  0  0  0  0  0  0  0
   -6.1160   12.6190   18.2070 H   0  0  0  0  0  0  0  0  0  0  0  0
   -5.6710   10.9690   16.3830 H   0  0  0  0  0  0  0  0  0  0  0  0
   -1.3720   10.1720   17.6240 C   0  0  0  0  0  0  0  0  0  0  0  0
   -1.3300    9.4760   16.4470 F   0  0  0  0  0  0  0  0  0  0  0  0
   -0.2910   11.0040   17.6070 F   0  0  0  0  0  0  0  0  0  0  0  0
   -1.0980    9.2530   18.5970 F   0  0  0  0  0  0  0  0  0  0  0  0
    1.9550    8.4390   19.4160 C   0  0  0  0  0  0  0  0  0  0  0  0
    2.6840    9.1630   19.8000 H   0  0  0  0  0  0  0  0  0  0  0  0
    1.4200    8.9210   18.5880 H   0  0  0  0  0  0  0  0  0  0  0  0
    2.7250    7.2460   18.8960 C   0  0  0  0  0  0  0  0  0  0  0  0
    2.7460    6.0400   19.6100 C   0  0  0  0  0  0  0  0  0  0  0  0
    3.4600    4.9430   19.1260 C   0  0  0  0  0  0  0  0  0  0  0  0
    4.1640    5.0440   17.9270 C   0  0  0  0  0  0  0  0  0  0  0  0
    4.1610    6.2430   17.2150 C   0  0  0  0  0  0  0  0  0  0  0  0
    3.4480    7.3400   17.6990 C   0  0  0  0  0  0  0  0  0  0  0  0
    2.2120    5.9500   20.5540 H   0  0  0  0  0  0  0  0  0  0  0  0
    3.4730    4.0130   19.6860 H   0  0  0  0  0  0  0  0  0  0  0  0
    4.7240    4.1920   17.5530 H   0  0  0  0  0  0  0  0  0  0  0  0
    4.7210    6.3240   16.2870 H   0  0  0  0  0  0  0  0  0  0  0  0
    3.4630    8.2710   17.1360 H   0  0  0  0  0  0  0  0  0  0  0  0
  1  9  1  6  0  0  0
  1  2  1  0  0  0  0
  2 11  1  0  0  0  0
  2  3  1  0  0  0  0
  2 10  1  0  0  0  0
  3 12  1  0  0  0  0
  3 13  1  0  0  0  0
  4 15  1  0  0  0  0
  4  3  1  0  0  0  0
  5  4  1  0  0  0  0
  6  7  2  0  0  0  0
  6  5  1  0  0  0  0
  8  5  1  0  0  0  0
  8  1  1  0  0  0  0
  8 17  1  0  0  0  0
 14  4  1  0  0  0  0
 16  8  1  0  0  0  0
 18 19  2  0  0  0  0
 19 20  1  0  0  0  0
 20  1  1  0  0  0  0
 21 20  1  0  0  0  0
 22 23  1  0  0  0  0
 22 19  1  0  0  0  0
 23 28  1  0  0  0  0
 24 29  1  0  0  0  0
 24 23  2  0  0  0  0
 25 24  1  0  0  0  0
 26 25  2  0  0  0  0
 26 27  1  0  0  0  0
 27 22  2  0  0  0  0
 30 25  1  0  0  0  0
 31 27  1  0  0  0  0
 31 34  1  0  0  0  0
 32 31  1  0  0  0  0
 33 31  1  0  0  0  0
 35 36  1  0  0  0  0
 35  6  1  0  0  0  0
 37 35  1  0  0  0  0
 38 35  1  0  0  0  0
 38 39  1  0  0  0  0
 39 44  1  0  0  0  0
 40 39  2  0  0  0  0
 40 45  1  0  0  0  0
 41 40  1  0  0  0  0
 42 43  1  0  0  0  0
 42 41  2  0  0  0  0
 43 38  2  0  0  0  0
 46 41  1  0  0  0  0
 47 42  1  0  0  0  0
 48 43  1  0  0  0  0
M  END
>  <MODEL>
30

>  <REMARK>
 VINA RESULT:    -5.570      3.767      6.238
 INTER + INTRA:          -7.193
 INTER:                  -7.141
 INTRA:                  -0.052
 UNBOUND:                 0.005
  Name = 
  5 active torsions:
  status: ('A' for Active; 'I' for Inactive)
    1  A    between atoms: C_2  and  C_19
    2  A    between atoms: N_3  and  C_4
    3  A    between atoms: C_9  and  C_11
    4  A    between atoms: C_11  and  C_12
    5  A    between atoms: C_24  and  C_25
                            x       y       z     vdW  Elec       q    Type
                         _______ _______ _______ _____ _____    ______ ____

>  <TORSDO>
F 5

$$$$
=
 OpenBabel07192307433D

 48 50  0  0  1  0  0  0  0  0999 V2000
   -1.1060   11.3670   19.2210 C   0  0  1  0  0  0  0  0  0  0  0  0
   -0.2260   12.5350   18.7420 C   0  0  0  0  0  0  0  0  0  0  0  0
    1.2610   12.3410   19.0490 C   0  0  0  0  0  0  0  0  0  0  0  0
    1.4930   11.5540   20.3310 C   0  0  0  0  0  0  0  0  0  0  0  0
    0.8330   10.2490   20.3120 N   0  0  0  0  0  0  0  0  0  0  0  0
    1.2010    9.3220   21.2860 C   0  0  0  0  0  0  0  0  0  0  0  0
    1.9730    9.6350   22.1950 O   0  0  0  0  0  0  0  0  0  0  0  0
   -0.2820   10.0720   19.3680 C   0  0  0  0  0  0  0  0  0  0  0  0
   -1.9030   11.2010   18.4880 H   0  0  0  0  0  0  0  0  0  0  0  0
   -0.3340   12.6470   17.6550 H   0  0  0  0  0  0  0  0  0  0  0  0
   -0.5720   13.4780   19.1780 H   0  0  0  0  0  0  0  0  0  0  0  0
    1.7250   11.8010   18.2130 H   0  0  0  0  0  0  0  0  0  0  0  0
    1.7620   13.3140   19.1030 H   0  0  0  0  0  0  0  0  0  0  0  0
    1.1070   12.1070   21.1960 H   0  0  0  0  0  0  0  0  0  0  0  0
    2.5670   11.4080   20.4940 H   0  0  0  0  0  0  0  0  0  0  0  0
   -0.9300    9.2530   19.6890 H   0  0  0  0  0  0  0  0  0  0  0  0
    0.1540    9.7900   18.4030 H   0  0  0  0  0  0  0  0  0  0  0  0
   -2.3840   13.8180   19.8050 O   0  0  0  0  0  0  0  0  0  0  0  0
   -2.3680   12.9380   20.6550 C   0  0  0  0  0  0  0  0  0  0  0  0
   -1.7630   11.7140   20.4850 N   0  0  0  0  0  0  0  0  0  0  0  0
   -2.0110   10.9490   21.1040 H   0  0  0  0  0  0  0  0  0  0  0  0
   -3.0910   13.1380   21.9260 C   0  0  0  0  0  0  0  0  0  0  0  0
   -4.4270   12.7210   21.9800 C   0  0  0  0  0  0  0  0  0  0  0  0
   -5.1460   12.8620   23.1610 C   0  0  0  0  0  0  0  0  0  0  0  0
   -4.5090   13.4300   24.2490 C   0  0  0  0  0  0  0  0  0  0  0  0
   -3.2300   13.8650   24.2230 N   0  0  0  0  0  0  0  0  0  0  0  0
   -2.5230   13.7350   23.0540 C   0  0  0  0  0  0  0  0  0  0  0  0
   -4.8990   12.2750   21.1060 H   0  0  0  0  0  0  0  0  0  0  0  0
   -6.1740   12.5270   23.2310 H   0  0  0  0  0  0  0  0  0  0  0  0
   -5.0240   13.5550   25.1980 H   0  0  0  0  0  0  0  0  0  0  0  0
   -1.0900   14.2420   23.0280 C   0  0  0  0  0  0  0  0  0  0  0  0
   -0.9210   15.2520   22.1210 F   0  0  0  0  0  0  0  0  0  0  0  0
   -0.6580   14.7350   24.2240 F   0  0  0  0  0  0  0  0  0  0  0  0
   -0.1720   13.2900   22.6840 F   0  0  0  0  0  0  0  0  0  0  0  0
    0.5940    7.9270   21.1780 C   0  0  0  0  0  0  0  0  0  0  0  0
   -0.3570    7.9770   20.6330 H   0  0  0  0  0  0  0  0  0  0  0  0
    0.3720    7.5720   22.1930 H   0  0  0  0  0  0  0  0  0  0  0  0
    1.4750    6.9230   20.4710 C   0  0  0  0  0  0  0  0  0  0  0  0
    2.2980    7.3160   19.4070 C   0  0  0  0  0  0  0  0  0  0  0  0
    3.1080    6.3840   18.7570 C   0  0  0  0  0  0  0  0  0  0  0  0
    3.0970    5.0500   19.1600 C   0  0  0  0  0  0  0  0  0  0  0  0
    2.2720    4.6450   20.2080 C   0  0  0  0  0  0  0  0  0  0  0  0
    1.4620    5.5760   20.8580 C   0  0  0  0  0  0  0  0  0  0  0  0
    2.3090    8.3510   19.0720 H   0  0  0  0  0  0  0  0  0  0  0  0
    3.7420    6.6970   17.9320 H   0  0  0  0  0  0  0  0  0  0  0  0
    3.7240    4.3230   18.6500 H   0  0  0  0  0  0  0  0  0  0  0  0
    2.2550    3.6020   20.5130 H   0  0  0  0  0  0  0  0  0  0  0  0
    0.8180    5.2420   21.6690 H   0  0  0  0  0  0  0  0  0  0  0  0
  1  9  1  6  0  0  0
  1  8  1  0  0  0  0
  1 20  1  0  0  0  0
  2  3  1  0  0  0  0
  2 11  1  0  0  0  0
  2  1  1  0  0  0  0
  3 13  1  0  0  0  0
  3  4  1  0  0  0  0
  4 15  1  0  0  0  0
  4 14  1  0  0  0  0
  5  4  1  0  0  0  0
  5  6  1  0  0  0  0
  6  7  2  0  0  0  0
  8 16  1  0  0  0  0
  8  5  1  0  0  0  0
 10  2  1  0  0  0  0
 12  3  1  0  0  0  0
 17  8  1  0  0  0  0
 18 19  2  0  0  0  0
 19 22  1  0  0  0  0
 20 19  1  0  0  0  0
 20 21  1  0  0  0  0
 22 23  2  0  0  0  0
 22 27  1  0  0  0  0
 23 24  1  0  0  0  0
 24 29  1  0  0  0  0
 24 25  2  0  0  0  0
 25 30  1  0  0  0  0
 26 25  1  0  0  0  0
 27 26  2  0  0  0  0
 28 23  1  0  0  0  0
 31 27  1  0  0  0  0
 31 33  1  0  0  0  0
 32 31  1  0  0  0  0
 34 31  1  0  0  0  0
 35  6  1  0  0  0  0
 35 37  1  0  0  0  0
 36 35  1  0  0  0  0
 38 43  1  0  0  0  0
 38 35  1  0  0  0  0
 39 38  2  0  0  0  0
 40 41  2  0  0  0  0
 40 39  1  0  0  0  0
 41 42  1  0  0  0  0
 42 47  1  0  0  0  0
 42 43  2  0  0  0  0
 43 48  1  0  0  0  0
 44 39  1  0  0  0  0
 45 40  1  0  0  0  0
 46 41  1  0  0  0  0
M  END
>  <MODEL>
31

>  <REMARK>
 VINA RESULT:    -5.568      4.343      7.420
 INTER + INTRA:          -7.191
 INTER:                  -6.837
 INTRA:                  -0.354
 UNBOUND:                 0.005
  Name = 
  5 active torsions:
  status: ('A' for Active; 'I' for Inactive)
    1  A    between atoms: C_2  and  C_19
    2  A    between atoms: N_3  and  C_4
    3  A    between atoms: C_9  and  C_11
    4  A    between atoms: C_11  and  C_12
    5  A    between atoms: C_24  and  C_25
                            x       y       z     vdW  Elec       q    Type
                         _______ _______ _______ _____ _____    ______ ____

>  <TORSDO>
F 5

$$$$
=
 OpenBabel07192307433D

 48 50  0  0  1  0  0  0  0  0999 V2000
    3.3080    3.6060   17.3340 C   0  0  1  0  0  0  0  0  0  0  0  0
    4.0030    2.2350   17.3940 C   0  0  0  0  0  0  0  0  0  0  0  0
    3.7280    1.4700   18.6910 C   0  0  0  0  0  0  0  0  0  0  0  0
    3.5400    2.3970   19.8850 C   0  0  0  0  0  0  0  0  0  0  0  0
    2.4750    3.3750   19.6700 N   0  0  0  0  0  0  0  0  0  0  0  0
    2.0090    4.0800   20.7780 C   0  0  0  0  0  0  0  0  0  0  0  0
    2.5550    3.9610   21.8770 O   0  0  0  0  0  0  0  0  0  0  0  0
    2.0890    3.6540   18.2760 C   0  0  0  0  0  0  0  0  0  0  0  0
    2.9710    3.7870   16.3070 H   0  0  0  0  0  0  0  0  0  0  0  0
    3.6540    1.6150   16.5570 H   0  0  0  0  0  0  0  0  0  0  0  0
    5.0840    2.3480   17.2560 H   0  0  0  0  0  0  0  0  0  0  0  0
    2.8160    0.8720   18.5610 H   0  0  0  0  0  0  0  0  0  0  0  0
    4.5380    0.7580   18.8850 H   0  0  0  0  0  0  0  0  0  0  0  0
    4.4630    2.9520   20.0880 H   0  0  0  0  0  0  0  0  0  0  0  0
    3.3110    1.8120   20.7830 H   0  0  0  0  0  0  0  0  0  0  0  0
    1.5990    4.6280   18.2030 H   0  0  0  0  0  0  0  0  0  0  0  0
    1.3560    2.8930   17.9860 H   0  0  0  0  0  0  0  0  0  0  0  0
    5.3870    4.5340   15.6620 O   0  0  0  0  0  0  0  0  0  0  0  0
    5.2290    5.0530   16.7580 C   0  0  0  0  0  0  0  0  0  0  0  0
    4.2610    4.6710   17.6590 N   0  0  0  0  0  0  0  0  0  0  0  0
    4.0120    5.3010   18.4150 H   0  0  0  0  0  0  0  0  0  0  0  0
    6.0630    6.2060   17.1470 C   0  0  0  0  0  0  0  0  0  0  0  0
    5.6540    7.4730   16.7110 C   0  0  0  0  0  0  0  0  0  0  0  0
    6.3890    8.5960   17.0710 C   0  0  0  0  0  0  0  0  0  0  0  0
    7.5210    8.4160   17.8440 C   0  0  0  0  0  0  0  0  0  0  0  0
    7.9570    7.2060   18.2610 N   0  0  0  0  0  0  0  0  0  0  0  0
    7.2360    6.0950   17.8970 C   0  0  0  0  0  0  0  0  0  0  0  0
    4.7570    7.5820   16.1050 H   0  0  0  0  0  0  0  0  0  0  0  0
    6.0800    9.5880   16.7620 H   0  0  0  0  0  0  0  0  0  0  0  0
    8.1260    9.2620   18.1600 H   0  0  0  0  0  0  0  0  0  0  0  0
    7.7420    4.7370   18.3550 C   0  0  0  0  0  0  0  0  0  0  0  0
    8.7230    4.8500   19.3020 F   0  0  0  0  0  0  0  0  0  0  0  0
    6.7770    3.9470   18.9060 F   0  0  0  0  0  0  0  0  0  0  0  0
    8.2900    3.9840   17.3560 F   0  0  0  0  0  0  0  0  0  0  0  0
    0.8170    5.0060   20.5570 C   0  0  0  0  0  0  0  0  0  0  0  0
    0.1750    5.0030   21.4470 H   0  0  0  0  0  0  0  0  0  0  0  0
    0.2240    4.6070   19.7240 H   0  0  0  0  0  0  0  0  0  0  0  0
    1.1940    6.4410   20.2700 C   0  0  0  0  0  0  0  0  0  0  0  0
    1.9210    6.7750   19.1190 C   0  0  0  0  0  0  0  0  0  0  0  0
    2.2680    8.1020   18.8610 C   0  0  0  0  0  0  0  0  0  0  0  0
    1.8960    9.1060   19.7540 C   0  0  0  0  0  0  0  0  0  0  0  0
    1.1840    8.7840   20.9080 C   0  0  0  0  0  0  0  0  0  0  0  0
    0.8380    7.4580   21.1680 C   0  0  0  0  0  0  0  0  0  0  0  0
    2.2290    6.0010   18.4200 H   0  0  0  0  0  0  0  0  0  0  0  0
    2.8330    8.3510   17.9680 H   0  0  0  0  0  0  0  0  0  0  0  0
    2.1700   10.1380   19.5540 H   0  0  0  0  0  0  0  0  0  0  0  0
    0.9060    9.5660   21.6100 H   0  0  0  0  0  0  0  0  0  0  0  0
    0.2900    7.2220   22.0770 H   0  0  0  0  0  0  0  0  0  0  0  0
  1  9  1  6  0  0  0
  1  2  1  0  0  0  0
  1 20  1  0  0  0  0
  1  8  1  0  0  0  0
  2  3  1  0  0  0  0
  3 13  1  0  0  0  0
  3  4  1  0  0  0  0
  4 14  1  0  0  0  0
  4 15  1  0  0  0  0
  5  4  1  0  0  0  0
  5  6  1  0  0  0  0
  6  7  2  0  0  0  0
  8  5  1  0  0  0  0
 10  2  1  0  0  0  0
 11  2  1  0  0  0  0
 12  3  1  0  0  0  0
 16  8  1  0  0  0  0
 17  8  1  0  0  0  0
 18 19  2  0  0  0  0
 19 22  1  0  0  0  0
 19 20  1  0  0  0  0
 20 21  1  0  0  0  0
 22 27  1  0  0  0  0
 23 24  1  0  0  0  0
 23 22  2  0  0  0  0
 24 25  2  0  0  0  0
 25 30  1  0  0  0  0
 25 26  1  0  0  0  0
 27 26  2  0  0  0  0
 27 31  1  0  0  0  0
 28 23  1  0  0  0  0
 29 24  1  0  0  0  0
 31 33  1  0  0  0  0
 31 32  1  0  0  0  0
 34 31  1  0  0  0  0
 35  6  1  0  0  0  0
 35 36  1  0  0  0  0
 37 35  1  0  0  0  0
 38 35  1  0  0  0  0
 38 43  1  0  0  0  0
 39 38  2  0  0  0  0
 40 39  1  0  0  0  0
 40 41  2  0  0  0  0
 41 42  1  0  0  0  0
 42 43  2  0  0  0  0
 42 47  1  0  0  0  0
 43 48  1  0  0  0  0
 44 39  1  0  0  0  0
 45 40  1  0  0  0  0
 46 41  1  0  0  0  0
M  END
>  <MODEL>
32

>  <REMARK>
 VINA RESULT:    -5.516      3.490      6.019
 INTER + INTRA:          -7.124
 INTER:                  -6.315
 INTRA:                  -0.809
 UNBOUND:                 0.005
  Name = 
  5 active torsions:
  status: ('A' for Active; 'I' for Inactive)
    1  A    between atoms: C_2  and  C_19
    2  A    between atoms: N_3  and  C_4
    3  A    between atoms: C_9  and  C_11
    4  A    between atoms: C_11  and  C_12
    5  A    between atoms: C_24  and  C_25
                            x       y       z     vdW  Elec       q    Type
                         _______ _______ _______ _____ _____    ______ ____

>  <TORSDO>
F 5

$$$$
=
 OpenBabel07192307433D

 48 50  0  0  1  0  0  0  0  0999 V2000
    1.2290   11.4650   18.7010 C   0  0  1  0  0  0  0  0  0  0  0  0
    1.3260   12.3880   19.9290 C   0  0  0  0  0  0  0  0  0  0  0  0
    1.6860   11.6470   21.2190 C   0  0  0  0  0  0  0  0  0  0  0  0
    1.1410   10.2260   21.2470 C   0  0  0  0  0  0  0  0  0  0  0  0
    1.5850    9.4360   20.1000 N   0  0  0  0  0  0  0  0  0  0  0  0
    1.4010    8.0550   20.1550 C   0  0  0  0  0  0  0  0  0  0  0  0
    0.7860    7.5360   21.0890 O   0  0  0  0  0  0  0  0  0  0  0  0
    2.0430   10.1730   18.9110 C   0  0  0  0  0  0  0  0  0  0  0  0
    1.6230   11.9960   17.8280 H   0  0  0  0  0  0  0  0  0  0  0  0
    2.0960   13.1490   19.7500 H   0  0  0  0  0  0  0  0  0  0  0  0
    0.3880   12.9360   20.0700 H   0  0  0  0  0  0  0  0  0  0  0  0
    2.7810   11.6080   21.3080 H   0  0  0  0  0  0  0  0  0  0  0  0
    1.3280   12.2110   22.0870 H   0  0  0  0  0  0  0  0  0  0  0  0
    0.0450   10.2360   21.2380 H   0  0  0  0  0  0  0  0  0  0  0  0
    1.4520    9.7220   22.1700 H   0  0  0  0  0  0  0  0  0  0  0  0
    1.9770    9.5420   18.0210 H   0  0  0  0  0  0  0  0  0  0  0  0
    3.1010   10.4130   19.0680 H   0  0  0  0  0  0  0  0  0  0  0  0
   -0.7810   13.3440   18.0640 O   0  0  0  0  0  0  0  0  0  0  0  0
   -1.0670   12.1550   18.0960 C   0  0  0  0  0  0  0  0  0  0  0  0
   -0.1740   11.1570   18.4090 N   0  0  0  0  0  0  0  0  0  0  0  0
   -0.3950   10.1980   18.1600 H   0  0  0  0  0  0  0  0  0  0  0  0
   -2.4240   11.7200   17.7150 C   0  0  0  0  0  0  0  0  0  0  0  0
   -2.5990   11.2120   16.4210 C   0  0  0  0  0  0  0  0  0  0  0  0
   -3.8520   10.7640   16.0190 C   0  0  0  0  0  0  0  0  0  0  0  0
   -4.8960   10.8520   16.9200 C   0  0  0  0  0  0  0  0  0  0  0  0
   -4.7680   11.3590   18.1670 N   0  0  0  0  0  0  0  0  0  0  0  0
   -3.5330   11.8110   18.5600 C   0  0  0  0  0  0  0  0  0  0  0  0
   -1.7550   11.1550   15.7350 H   0  0  0  0  0  0  0  0  0  0  0  0
   -4.0040   10.3490   15.0300 H   0  0  0  0  0  0  0  0  0  0  0  0
   -5.8940   10.5070   16.6590 H   0  0  0  0  0  0  0  0  0  0  0  0
   -3.4000   12.3950   19.9570 C   0  0  0  0  0  0  0  0  0  0  0  0
   -2.3740   11.8200   20.6560 F   0  0  0  0  0  0  0  0  0  0  0  0
   -3.1600   13.7380   19.9730 F   0  0  0  0  0  0  0  0  0  0  0  0
   -4.5090   12.2240   20.7370 F   0  0  0  0  0  0  0  0  0  0  0  0
    1.9790    7.2340   19.0060 C   0  0  0  0  0  0  0  0  0  0  0  0
    3.0240    7.5200   18.8350 H   0  0  0  0  0  0  0  0  0  0  0  0
    1.4190    7.4800   18.0950 H   0  0  0  0  0  0  0  0  0  0  0  0
    1.9440    5.7410   19.2350 C   0  0  0  0  0  0  0  0  0  0  0  0
    2.2310    5.2020   20.4970 C   0  0  0  0  0  0  0  0  0  0  0  0
    2.1990    3.8220   20.7010 C   0  0  0  0  0  0  0  0  0  0  0  0
    1.8860    2.9680   19.6450 C   0  0  0  0  0  0  0  0  0  0  0  0
    1.6110    3.4910   18.3830 C   0  0  0  0  0  0  0  0  0  0  0  0
    1.6440    4.8710   18.1770 C   0  0  0  0  0  0  0  0  0  0  0  0
    2.4900    5.8550   21.3280 H   0  0  0  0  0  0  0  0  0  0  0  0
    2.4240    3.4130   21.6820 H   0  0  0  0  0  0  0  0  0  0  0  0
    1.8660    1.8930   19.8040 H   0  0  0  0  0  0  0  0  0  0  0  0
    1.3800    2.8240   17.5570 H   0  0  0  0  0  0  0  0  0  0  0  0
    1.4360    5.2630   17.1840 H   0  0  0  0  0  0  0  0  0  0  0  0
  1  9  1  6  0  0  0
  1  8  1  0  0  0  0
  1  2  1  0  0  0  0
  2 11  1  0  0  0  0
  2  3  1  0  0  0  0
  3  4  1  0  0  0  0
  3 12  1  0  0  0  0
  3 13  1  0  0  0  0
  4 15  1  0  0  0  0
  5  6  1  0  0  0  0
  5  4  1  0  0  0  0
  6  7  2  0  0  0  0
  8 17  1  0  0  0  0
  8  5  1  0  0  0  0
 10  2  1  0  0  0  0
 14  4  1  0  0  0  0
 16  8  1  0  0  0  0
 18 19  2  0  0  0  0
 19 20  1  0  0  0  0
 20  1  1  0  0  0  0
 21 20  1  0  0  0  0
 22 19  1  0  0  0  0
 22 27  1  0  0  0  0
 23 22  2  0  0  0  0
 24 23  1  0  0  0  0
 24 25  2  0  0  0  0
 25 26  1  0  0  0  0
 26 27  2  0  0  0  0
 27 31  1  0  0  0  0
 28 23  1  0  0  0  0
 29 24  1  0  0  0  0
 30 25  1  0  0  0  0
 31 33  1  0  0  0  0
 31 32  1  0  0  0  0
 31 34  1  0  0  0  0
 35 38  1  0  0  0  0
 35  6  1  0  0  0  0
 36 35  1  0  0  0  0
 37 35  1  0  0  0  0
 38 39  1  0  0  0  0
 39 40  2  0  0  0  0
 39 44  1  0  0  0  0
 40 45  1  0  0  0  0
 41 46  1  0  0  0  0
 41 40  1  0  0  0  0
 42 41  2  0  0  0  0
 43 42  1  0  0  0  0
 43 38  2  0  0  0  0
 47 42  1  0  0  0  0
 48 43  1  0  0  0  0
M  END
>  <MODEL>
33

>  <REMARK>
 VINA RESULT:    -5.426      3.697      6.577
 INTER + INTRA:          -7.007
 INTER:                  -7.011
 INTRA:                   0.005
 UNBOUND:                 0.005
  Name = 
  5 active torsions:
  status: ('A' for Active; 'I' for Inactive)
    1  A    between atoms: C_2  and  C_19
    2  A    between atoms: N_3  and  C_4
    3  A    between atoms: C_9  and  C_11
    4  A    between atoms: C_11  and  C_12
    5  A    between atoms: C_24  and  C_25
                            x       y       z     vdW  Elec       q    Type
                         _______ _______ _______ _____ _____    ______ ____

>  <TORSDO>
F 5

$$$$
