=
 OpenBabel07192307433D

 73 78  0  0  1  0  0  0  0  0999 V2000
   -0.6170   11.6350   19.8420 C   0  0  0  0  0  0  0  0  0  0  0  0
    0.1380   10.9030   18.9150 C   0  0  0  0  0  0  0  0  0  0  0  0
    0.7360    9.7330   19.3490 C   0  0  0  0  0  0  0  0  0  0  0  0
    0.6250    9.2670   20.6530 C   0  0  0  0  0  0  0  0  0  0  0  0
   -0.1060    9.9770   21.6000 C   0  0  0  0  0  0  0  0  0  0  0  0
   -0.7250   11.1680   21.1760 C   0  0  0  0  0  0  0  0  0  0  0  0
    1.3770    7.9840   20.7900 C   0  0  0  0  0  0  0  0  0  0  0  0
    1.9010    7.7460   19.4520 N   0  0  0  0  0  0  0  0  0  0  0  0
    1.5530    8.7850   18.5810 C   0  0  0  0  0  0  0  0  0  0  0  0
    1.8260    8.9810   17.4120 O   0  0  0  0  0  0  0  0  0  0  0  0
    0.2510   11.2230   17.8830 H   0  0  0  0  0  0  0  0  0  0  0  0
   -1.3220   11.7490   21.8830 H   0  0  0  0  0  0  0  0  0  0  0  0
    0.7060    7.1670   21.0750 H   0  0  0  0  0  0  0  0  0  0  0  0
    2.2060    8.0960   21.4960 H   0  0  0  0  0  0  0  0  0  0  0  0
    2.6700    6.5930   19.1310 C   0  0  0  0  0  0  0  0  0  0  0  0
    2.3550    5.3480   19.6850 C   0  0  0  0  0  0  0  0  0  0  0  0
    3.1160    4.2180   19.3840 C   0  0  0  0  0  0  0  0  0  0  0  0
    4.2070    4.3130   18.5220 C   0  0  0  0  0  0  0  0  0  0  0  0
    4.5690    5.5310   17.9210 C   0  0  0  0  0  0  0  0  0  0  0  0
    3.7640    6.6520   18.2510 C   0  0  0  0  0  0  0  0  0  0  0  0
    1.5220    5.2220   20.3700 H   0  0  0  0  0  0  0  0  0  0  0  0
    2.8610    3.2600   19.8330 H   0  0  0  0  0  0  0  0  0  0  0  0
    4.7790    3.4110   18.3180 H   0  0  0  0  0  0  0  0  0  0  0  0
    4.0270    7.5930   17.7700 H   0  0  0  0  0  0  0  0  0  0  0  0
    5.8180    5.6830   16.9090 C   0  0  2  0  0  0  0  0  0  0  0  0
    5.5440    5.9070   15.3770 C   0  0  0  0  0  0  0  0  0  0  0  0
    5.6100    4.3740   15.1920 C   0  0  2  0  0  0  0  0  0  0  0  0
    6.5090    4.3400   16.4500 C   0  0  0  0  0  0  0  0  0  0  0  0
    6.3380    6.4530   14.8490 H   0  0  0  0  0  0  0  0  0  0  0  0
    4.5870    6.3580   15.0950 H   0  0  0  0  0  0  0  0  0  0  0  0
    4.6360    3.8930   15.3630 H   0  0  0  0  0  0  0  0  0  0  0  0
    6.3620    3.4660   17.0900 H   0  0  0  0  0  0  0  0  0  0  0  0
    7.5820    4.4200   16.2300 H   0  0  0  0  0  0  0  0  0  0  0  0
    6.8580    6.7270   17.4870 C   0  0  0  0  0  0  0  0  0  0  0  0
    7.0140    7.9450   17.0030 N   0  0  0  0  0  0  0  0  0  0  0  0
    7.9790    8.5800   17.7470 N   0  0  0  0  0  0  0  0  0  0  0  0
    8.3920    7.7350   18.6630 C   0  0  0  0  0  0  0  0  0  0  0  0
    7.7290    6.5540   18.5280 N   0  0  0  0  0  0  0  0  0  0  0  0
    9.1480    7.9280   19.4110 H   0  0  0  0  0  0  0  0  0  0  0  0
    7.9340    5.3800   19.3280 C   0  0  0  0  0  0  0  0  0  0  0  0
    7.8370    5.6410   20.3840 H   0  0  0  0  0  0  0  0  0  0  0  0
    8.9380    4.9880   19.1500 H   0  0  0  0  0  0  0  0  0  0  0  0
    7.1920    4.6300   19.0460 H   0  0  0  0  0  0  0  0  0  0  0  0
    6.2310    3.8770   13.9010 C   0  0  0  0  0  0  0  0  0  0  0  0
    7.0240    4.5530   13.5710 H   0  0  0  0  0  0  0  0  0  0  0  0
    6.6710    2.8850   14.0420 H   0  0  0  0  0  0  0  0  0  0  0  0
    5.4920    3.8050   13.0970 H   0  0  0  0  0  0  0  0  0  0  0  0
   -0.2450    9.4770   23.0120 C   0  0  0  0  0  0  0  0  0  0  0  0
   -0.9940   10.3110   23.7830 F   0  0  0  0  0  0  0  0  0  0  0  0
    0.9380    9.3170   23.6650 F   0  0  0  0  0  0  0  0  0  0  0  0
   -0.8700    8.2660   23.0690 F   0  0  0  0  0  0  0  0  0  0  0  0
   -1.3050   12.9210   19.4250 C   0  0  0  0  0  0  0  0  0  0  0  0
   -1.7750   12.8090   18.4400 H   0  0  0  0  0  0  0  0  0  0  0  0
   -0.5060   13.6650   19.3050 H   0  0  0  0  0  0  0  0  0  0  0  0
   -4.7030   13.6480   20.9850 C   0  0  1  0  0  0  0  0  0  0  0  0
   -4.4280   15.0720   21.4830 C   0  0  0  0  0  0  0  0  0  0  0  0
   -2.9680   15.2660   21.8820 C   0  0  0  0  0  0  0  0  0  0  0  0
   -2.0160   14.7850   20.7870 C   0  0  0  0  0  0  0  0  0  0  0  0
   -2.2850   13.3860   20.4210 N   0  0  0  0  0  0  0  0  0  0  0  0
   -3.6670   13.2470   19.9210 C   0  0  0  0  0  0  0  0  0  0  0  0
   -5.6970   13.6400   20.5170 H   0  0  0  0  0  0  0  0  0  0  0  0
   -4.6690   15.7820   20.6800 H   0  0  0  0  0  0  0  0  0  0  0  0
   -5.0830   15.3200   22.3260 H   0  0  0  0  0  0  0  0  0  0  0  0
   -2.7630   14.7240   22.8130 H   0  0  0  0  0  0  0  0  0  0  0  0
   -2.7840   16.3260   22.0890 H   0  0  0  0  0  0  0  0  0  0  0  0
   -0.9920   14.8800   21.1680 H   0  0  0  0  0  0  0  0  0  0  0  0
   -2.0980   15.4420   19.9100 H   0  0  0  0  0  0  0  0  0  0  0  0
   -3.8690   12.2100   19.6270 H   0  0  0  0  0  0  0  0  0  0  0  0
   -3.8110   13.8630   19.0220 H   0  0  0  0  0  0  0  0  0  0  0  0
   -4.7380   12.6430   22.1420 C   0  0  0  0  0  0  0  0  0  0  0  0
   -5.5820   11.9560   22.0260 H   0  0  0  0  0  0  0  0  0  0  0  0
   -3.8240   12.0440   22.2010 H   0  0  0  0  0  0  0  0  0  0  0  0
   -4.8610   13.1620   23.0980 H   0  0  0  0  0  0  0  0  0  0  0  0
  1  6  1  0  0  0  0
  2  3  1  0  0  0  0
  2  1  2  0  0  0  0
  3  4  2  0  0  0  0
  4  7  1  0  0  0  0
  4  5  1  0  0  0  0
  5 48  1  0  0  0  0
  6  5  2  0  0  0  0
  6 12  1  0  0  0  0
  7 13  1  0  0  0  0
  7 14  1  0  0  0  0
  8  7  1  0  0  0  0
  9  3  1  0  0  0  0
  9  8  1  0  0  0  0
 10  9  2  0  0  0  0
 11  2  1  0  0  0  0
 15  8  1  0  0  0  0
 15 16  1  0  0  0  0
 16 21  1  0  0  0  0
 17 16  2  0  0  0  0
 17 22  1  0  0  0  0
 18 17  1  0  0  0  0
 19 20  1  0  0  0  0
 19 18  2  0  0  0  0
 20 15  2  0  0  0  0
 23 18  1  0  0  0  0
 24 20  1  0  0  0  0
 25 34  1  1  0  0  0
 25 19  1  0  0  0  0
 26 25  1  0  0  0  0
 27 31  1  1  0  0  0
 27 26  1  0  0  0  0
 27 28  1  0  0  0  0
 28 25  1  0  0  0  0
 28 32  1  0  0  0  0
 29 26  1  0  0  0  0
 30 26  1  0  0  0  0
 33 28  1  0  0  0  0
 34 38  1  0  0  0  0
 35 34  2  0  0  0  0
 35 36  1  0  0  0  0
 36 37  2  0  0  0  0
 37 39  1  0  0  0  0
 38 37  1  0  0  0  0
 38 40  1  0  0  0  0
 40 41  1  0  0  0  0
 42 40  1  0  0  0  0
 43 40  1  0  0  0  0
 44 46  1  0  0  0  0
 44 27  1  0  0  0  0
 45 44  1  0  0  0  0
 47 44  1  0  0  0  0
 48 51  1  0  0  0  0
 48 50  1  0  0  0  0
 48 49  1  0  0  0  0
 52  1  1  0  0  0  0
 52 59  1  0  0  0  0
 53 52  1  0  0  0  0
 54 52  1  0  0  0  0
 55 61  1  6  0  0  0
 55 56  1  0  0  0  0
 55 70  1  0  0  0  0
 56 57  1  0  0  0  0
 56 63  1  0  0  0  0
 57 65  1  0  0  0  0
 57 64  1  0  0  0  0
 58 66  1  0  0  0  0
 58 57  1  0  0  0  0
 59 58  1  0  0  0  0
 60 59  1  0  0  0  0
 60 55  1  0  0  0  0
 62 56  1  0  0  0  0
 67 58  1  0  0  0  0
 68 60  1  0  0  0  0
 69 60  1  0  0  0  0
 70 72  1  0  0  0  0
 70 73  1  0  0  0  0
 71 70  1  0  0  0  0
M  END
>  <MODEL>
1

>  <REMARK>
 VINA RESULT:    -9.549      0.000      0.000
 INTER + INTRA:         -14.508
 INTER:                 -13.017
 INTRA:                  -1.491
 UNBOUND:                -0.772
  Name = 
  9 active torsions:
  status: ('A' for Active; 'I' for Inactive)
    1  A    between atoms: C_1  and  C_2
    2  A    between atoms: N_6  and  C_7
    3  A    between atoms: C_7  and  C_8
    4  A    between atoms: C_12  and  C_13
    5  A    between atoms: N_19  and  C_20
    6  A    between atoms: C_24  and  C_25
    7  A    between atoms: C_25  and  C_26
    8  A    between atoms: N_30  and  C_31
    9  A    between atoms: C_33  and  C_34
                            x       y       z     vdW  Elec       q    Type
                         _______ _______ _______ _____ _____    ______ ____

>  <TORSDO>
F 9

$$$$
=
 OpenBabel07192307433D

 73 78  0  0  1  0  0  0  0  0999 V2000
   -0.0170   10.3370   21.8730 C   0  0  0  0  0  0  0  0  0  0  0  0
    0.2540    8.9640   21.8160 C   0  0  0  0  0  0  0  0  0  0  0  0
    0.9180    8.4820   20.7020 C   0  0  0  0  0  0  0  0  0  0  0  0
    1.3140    9.2960   19.6480 C   0  0  0  0  0  0  0  0  0  0  0  0
    1.0490   10.6620   19.6680 C   0  0  0  0  0  0  0  0  0  0  0  0
    0.3770   11.1710   20.7960 C   0  0  0  0  0  0  0  0  0  0  0  0
    2.0070    8.4710   18.6130 C   0  0  0  0  0  0  0  0  0  0  0  0
    1.9970    7.1290   19.1780 N   0  0  0  0  0  0  0  0  0  0  0  0
    1.3320    7.1040   20.4100 C   0  0  0  0  0  0  0  0  0  0  0  0
    1.0760    6.1880   21.1670 O   0  0  0  0  0  0  0  0  0  0  0  0
   -0.0310    8.2870   22.6150 H   0  0  0  0  0  0  0  0  0  0  0  0
    0.1620   12.2400   20.8610 H   0  0  0  0  0  0  0  0  0  0  0  0
    3.0410    8.8070   18.4760 H   0  0  0  0  0  0  0  0  0  0  0  0
    1.4460    8.4810   17.6730 H   0  0  0  0  0  0  0  0  0  0  0  0
    2.5910    6.0210   18.5130 C   0  0  0  0  0  0  0  0  0  0  0  0
    2.0060    4.7510   18.5800 C   0  0  0  0  0  0  0  0  0  0  0  0
    2.5940    3.6590   17.9410 C   0  0  0  0  0  0  0  0  0  0  0  0
    3.7780    3.8170   17.2230 C   0  0  0  0  0  0  0  0  0  0  0  0
    4.4100    5.0670   17.1060 C   0  0  0  0  0  0  0  0  0  0  0  0
    3.7740    6.1500   17.7660 C   0  0  0  0  0  0  0  0  0  0  0  0
    1.0900    4.5720   19.1340 H   0  0  0  0  0  0  0  0  0  0  0  0
    2.1300    2.6780   18.0120 H   0  0  0  0  0  0  0  0  0  0  0  0
    4.2090    2.9400   16.7450 H   0  0  0  0  0  0  0  0  0  0  0  0
    4.2480    7.1250   17.6590 H   0  0  0  0  0  0  0  0  0  0  0  0
    5.7770    5.2960   16.2760 C   0  0  2  0  0  0  0  0  0  0  0  0
    5.6960    5.7050   14.7600 C   0  0  0  0  0  0  0  0  0  0  0  0
    5.7570    4.2020   14.4020 C   0  0  2  0  0  0  0  0  0  0  0  0
    6.4940    3.9940   15.7460 C   0  0  0  0  0  0  0  0  0  0  0  0
    6.5580    6.2830   14.4000 H   0  0  0  0  0  0  0  0  0  0  0  0
    4.7900    6.2160   14.4220 H   0  0  0  0  0  0  0  0  0  0  0  0
    4.7620    3.7360   14.3970 H   0  0  0  0  0  0  0  0  0  0  0  0
    6.2540    3.0560   16.2550 H   0  0  0  0  0  0  0  0  0  0  0  0
    7.5870    4.0640   15.6680 H   0  0  0  0  0  0  0  0  0  0  0  0
    6.7560    6.2310   17.0950 C   0  0  0  0  0  0  0  0  0  0  0  0
    7.1730    7.4060   16.6620 N   0  0  0  0  0  0  0  0  0  0  0  0
    7.9900    7.9500   17.6240 N   0  0  0  0  0  0  0  0  0  0  0  0
    8.0560    7.0940   18.6180 C   0  0  0  0  0  0  0  0  0  0  0  0
    7.3110    5.9940   18.3230 N   0  0  0  0  0  0  0  0  0  0  0  0
    8.6190    7.2240   19.5320 H   0  0  0  0  0  0  0  0  0  0  0  0
    7.1660    4.8310   19.1530 C   0  0  0  0  0  0  0  0  0  0  0  0
    6.1230    4.5100   19.1440 H   0  0  0  0  0  0  0  0  0  0  0  0
    7.4540    5.0770   20.1780 H   0  0  0  0  0  0  0  0  0  0  0  0
    7.8170    4.0430   18.7680 H   0  0  0  0  0  0  0  0  0  0  0  0
    6.5230    3.8390   13.1450 C   0  0  0  0  0  0  0  0  0  0  0  0
    7.4790    4.3680   13.1120 H   0  0  0  0  0  0  0  0  0  0  0  0
    6.7310    2.7650   13.1180 H   0  0  0  0  0  0  0  0  0  0  0  0
    5.9620    4.0960   12.2410 H   0  0  0  0  0  0  0  0  0  0  0  0
    1.4830   11.5570   18.5390 C   0  0  0  0  0  0  0  0  0  0  0  0
    0.4600   12.3150   18.0600 F   0  0  0  0  0  0  0  0  0  0  0  0
    1.9970   10.8930   17.4690 F   0  0  0  0  0  0  0  0  0  0  0  0
    2.4450   12.4430   18.9280 F   0  0  0  0  0  0  0  0  0  0  0  0
   -0.7340   10.9280   23.0720 C   0  0  0  0  0  0  0  0  0  0  0  0
   -0.0150   11.2450   23.8380 H   0  0  0  0  0  0  0  0  0  0  0  0
   -1.3140   10.1060   23.5120 H   0  0  0  0  0  0  0  0  0  0  0  0
   -1.9060   14.5160   22.5600 C   0  0  1  0  0  0  0  0  0  0  0  0
   -3.3060   14.3910   23.1720 C   0  0  0  0  0  0  0  0  0  0  0  0
   -3.8970   12.9980   22.9670 C   0  0  0  0  0  0  0  0  0  0  0  0
   -2.9200   11.9030   23.3960 C   0  0  0  0  0  0  0  0  0  0  0  0
   -1.6280   12.0400   22.7060 N   0  0  0  0  0  0  0  0  0  0  0  0
   -1.0180   13.3460   23.0190 C   0  0  0  0  0  0  0  0  0  0  0  0
   -1.4600   15.4500   22.9270 H   0  0  0  0  0  0  0  0  0  0  0  0
   -3.2420   14.5890   24.2510 H   0  0  0  0  0  0  0  0  0  0  0  0
   -3.9800   15.1480   22.7550 H   0  0  0  0  0  0  0  0  0  0  0  0
   -4.1650   12.8610   21.9130 H   0  0  0  0  0  0  0  0  0  0  0  0
   -4.8250   12.9070   23.5420 H   0  0  0  0  0  0  0  0  0  0  0  0
   -3.3730   10.9360   23.1510 H   0  0  0  0  0  0  0  0  0  0  0  0
   -2.7860   11.9330   24.4860 H   0  0  0  0  0  0  0  0  0  0  0  0
   -0.0450   13.4470   22.5230 H   0  0  0  0  0  0  0  0  0  0  0  0
   -0.8330   13.4320   24.0980 H   0  0  0  0  0  0  0  0  0  0  0  0
   -1.9650   14.6110   21.0320 C   0  0  0  0  0  0  0  0  0  0  0  0
   -1.1340   14.0590   20.5820 H   0  0  0  0  0  0  0  0  0  0  0  0
   -2.8950   14.2050   20.6240 H   0  0  0  0  0  0  0  0  0  0  0  0
   -1.8840   15.6540   20.7080 H   0  0  0  0  0  0  0  0  0  0  0  0
  1 52  1  0  0  0  0
  2  1  1  0  0  0  0
  2 11  1  0  0  0  0
  3  2  2  0  0  0  0
  4  5  2  0  0  0  0
  4  3  1  0  0  0  0
  5  6  1  0  0  0  0
  6 12  1  0  0  0  0
  6  1  2  0  0  0  0
  7  8  1  0  0  0  0
  7  4  1  0  0  0  0
  8  9  1  0  0  0  0
  9  3  1  0  0  0  0
  9 10  2  0  0  0  0
 13  7  1  0  0  0  0
 14  7  1  0  0  0  0
 15 16  1  0  0  0  0
 15  8  1  0  0  0  0
 16 21  1  0  0  0  0
 17 22  1  0  0  0  0
 17 16  2  0  0  0  0
 18 17  1  0  0  0  0
 19 18  2  0  0  0  0
 19 20  1  0  0  0  0
 20 15  2  0  0  0  0
 23 18  1  0  0  0  0
 24 20  1  0  0  0  0
 25 34  1  1  0  0  0
 25 19  1  0  0  0  0
 26 25  1  0  0  0  0
 27 31  1  1  0  0  0
 27 26  1  0  0  0  0
 27 28  1  0  0  0  0
 28 32  1  0  0  0  0
 28 25  1  0  0  0  0
 29 26  1  0  0  0  0
 30 26  1  0  0  0  0
 33 28  1  0  0  0  0
 34 38  1  0  0  0  0
 35 34  2  0  0  0  0
 35 36  1  0  0  0  0
 36 37  2  0  0  0  0
 37 39  1  0  0  0  0
 38 37  1  0  0  0  0
 38 40  1  0  0  0  0
 40 42  1  0  0  0  0
 41 40  1  0  0  0  0
 43 40  1  0  0  0  0
 44 27  1  0  0  0  0
 45 44  1  0  0  0  0
 46 44  1  0  0  0  0
 47 44  1  0  0  0  0
 48 51  1  0  0  0  0
 48  5  1  0  0  0  0
 49 48  1  0  0  0  0
 50 48  1  0  0  0  0
 52 54  1  0  0  0  0
 52 53  1  0  0  0  0
 55 61  1  1  0  0  0
 55 60  1  0  0  0  0
 55 56  1  0  0  0  0
 56 62  1  0  0  0  0
 57 56  1  0  0  0  0
 57 58  1  0  0  0  0
 57 65  1  0  0  0  0
 58 67  1  0  0  0  0
 59 60  1  0  0  0  0
 59 52  1  0  0  0  0
 59 58  1  0  0  0  0
 60 69  1  0  0  0  0
 63 56  1  0  0  0  0
 64 57  1  0  0  0  0
 66 58  1  0  0  0  0
 68 60  1  0  0  0  0
 70 55  1  0  0  0  0
 71 70  1  0  0  0  0
 72 70  1  0  0  0  0
 73 70  1  0  0  0  0
M  END
>  <MODEL>
2

>  <REMARK>
 VINA RESULT:    -8.577      2.239      2.893
 INTER + INTRA:         -13.110
 INTER:                 -12.160
 INTRA:                  -0.949
 UNBOUND:                -0.772
  Name = 
  9 active torsions:
  status: ('A' for Active; 'I' for Inactive)
    1  A    between atoms: C_1  and  C_2
    2  A    between atoms: N_6  and  C_7
    3  A    between atoms: C_7  and  C_8
    4  A    between atoms: C_12  and  C_13
    5  A    between atoms: N_19  and  C_20
    6  A    between atoms: C_24  and  C_25
    7  A    between atoms: C_25  and  C_26
    8  A    between atoms: N_30  and  C_31
    9  A    between atoms: C_33  and  C_34
                            x       y       z     vdW  Elec       q    Type
                         _______ _______ _______ _____ _____    ______ ____

>  <TORSDO>
F 9

$$$$
=
 OpenBabel07192307433D

 73 78  0  0  1  0  0  0  0  0999 V2000
    3.2830    4.1710   17.8650 C   0  0  0  0  0  0  0  0  0  0  0  0
    2.9080    5.5180   17.7730 C   0  0  0  0  0  0  0  0  0  0  0  0
    2.2920    6.0940   18.8710 C   0  0  0  0  0  0  0  0  0  0  0  0
    2.0280    5.3940   20.0420 C   0  0  0  0  0  0  0  0  0  0  0  0
    2.3760    4.0520   20.1590 C   0  0  0  0  0  0  0  0  0  0  0  0
    3.0070    3.4510   19.0530 C   0  0  0  0  0  0  0  0  0  0  0  0
    1.3660    6.3000   21.0260 C   0  0  0  0  0  0  0  0  0  0  0  0
    1.3010    7.5780   20.3300 N   0  0  0  0  0  0  0  0  0  0  0  0
    1.8240    7.4760   19.0350 C   0  0  0  0  0  0  0  0  0  0  0  0
    1.9120    8.2900   18.1360 O   0  0  0  0  0  0  0  0  0  0  0  0
    3.0960    6.1090   16.8820 H   0  0  0  0  0  0  0  0  0  0  0  0
    3.3120    2.4030   19.1080 H   0  0  0  0  0  0  0  0  0  0  0  0
    1.9750    6.4030   21.9310 H   0  0  0  0  0  0  0  0  0  0  0  0
    0.3540    5.9520   21.2520 H   0  0  0  0  0  0  0  0  0  0  0  0
    0.7560    8.7450   20.9330 C   0  0  0  0  0  0  0  0  0  0  0  0
    0.6210    8.8330   22.3230 C   0  0  0  0  0  0  0  0  0  0  0  0
    0.0730    9.9700   22.9180 C   0  0  0  0  0  0  0  0  0  0  0  0
   -0.3510   11.0410   22.1320 C   0  0  0  0  0  0  0  0  0  0  0  0
   -0.2320   11.0220   20.7310 C   0  0  0  0  0  0  0  0  0  0  0  0
    0.3370    9.8480   20.1710 C   0  0  0  0  0  0  0  0  0  0  0  0
    0.9260    8.0240   22.9790 H   0  0  0  0  0  0  0  0  0  0  0  0
   -0.0320   10.0170   23.9990 H   0  0  0  0  0  0  0  0  0  0  0  0
   -0.7790   11.9060   22.6320 H   0  0  0  0  0  0  0  0  0  0  0  0
    0.4510    9.8380   19.0880 H   0  0  0  0  0  0  0  0  0  0  0  0
   -0.7010   12.2430   19.7850 C   0  0  2  0  0  0  0  0  0  0  0  0
    0.2220   12.6890   18.5910 C   0  0  0  0  0  0  0  0  0  0  0  0
    0.8800   13.7110   19.5460 C   0  0  2  0  0  0  0  0  0  0  0  0
   -0.4430   13.6960   20.3460 C   0  0  0  0  0  0  0  0  0  0  0  0
   -0.3150   13.1480   17.7500 H   0  0  0  0  0  0  0  0  0  0  0  0
    0.9100   11.9440   18.1790 H   0  0  0  0  0  0  0  0  0  0  0  0
    1.7140   13.2720   20.1130 H   0  0  0  0  0  0  0  0  0  0  0  0
   -0.3210   13.7930   21.4280 H   0  0  0  0  0  0  0  0  0  0  0  0
   -1.1670   14.4550   20.0200 H   0  0  0  0  0  0  0  0  0  0  0  0
   -2.2020   12.0300   19.3310 C   0  0  0  0  0  0  0  0  0  0  0  0
   -3.2310   12.6010   19.9270 N   0  0  0  0  0  0  0  0  0  0  0  0
   -4.3740   12.2140   19.2700 N   0  0  0  0  0  0  0  0  0  0  0  0
   -4.0160   11.4130   18.2930 C   0  0  0  0  0  0  0  0  0  0  0  0
   -2.6650   11.2550   18.3030 N   0  0  0  0  0  0  0  0  0  0  0  0
   -4.6810   10.9370   17.5860 H   0  0  0  0  0  0  0  0  0  0  0  0
   -1.9100   10.4270   17.4060 C   0  0  0  0  0  0  0  0  0  0  0  0
   -1.0060   10.9570   17.0990 H   0  0  0  0  0  0  0  0  0  0  0  0
   -2.5110   10.2070   16.5200 H   0  0  0  0  0  0  0  0  0  0  0  0
   -1.6560    9.4960   17.9180 H   0  0  0  0  0  0  0  0  0  0  0  0
    1.2890   15.0370   18.9350 C   0  0  0  0  0  0  0  0  0  0  0  0
    2.3470   15.0220   18.6590 H   0  0  0  0  0  0  0  0  0  0  0  0
    0.7080   15.2390   18.0290 H   0  0  0  0  0  0  0  0  0  0  0  0
    1.1300   15.8680   19.6280 H   0  0  0  0  0  0  0  0  0  0  0  0
    2.1070    3.2850   21.4260 C   0  0  0  0  0  0  0  0  0  0  0  0
    0.8130    2.8760   21.5150 F   0  0  0  0  0  0  0  0  0  0  0  0
    2.3640    3.9840   22.5650 F   0  0  0  0  0  0  0  0  0  0  0  0
    2.8570    2.1490   21.5060 F   0  0  0  0  0  0  0  0  0  0  0  0
    3.9700    3.4860   16.6990 C   0  0  0  0  0  0  0  0  0  0  0  0
    3.3810    3.5970   15.7800 H   0  0  0  0  0  0  0  0  0  0  0  0
    3.9720    2.4140   16.9370 H   0  0  0  0  0  0  0  0  0  0  0  0
    7.1350    5.5310   17.2570 C   0  0  1  0  0  0  0  0  0  0  0  0
    7.4420    5.8840   15.7970 C   0  0  0  0  0  0  0  0  0  0  0  0
    6.9950    4.7850   14.8370 C   0  0  0  0  0  0  0  0  0  0  0  0
    5.5470    4.3660   15.0950 C   0  0  0  0  0  0  0  0  0  0  0  0
    5.3490    3.9620   16.4950 N   0  0  0  0  0  0  0  0  0  0  0  0
    5.6700    5.0820   17.4000 C   0  0  0  0  0  0  0  0  0  0  0  0
    7.2760    6.4370   17.8610 H   0  0  0  0  0  0  0  0  0  0  0  0
    6.9140    6.8110   15.5370 H   0  0  0  0  0  0  0  0  0  0  0  0
    8.5110    6.0840   15.6640 H   0  0  0  0  0  0  0  0  0  0  0  0
    7.6530    3.9140   14.9380 H   0  0  0  0  0  0  0  0  0  0  0  0
    7.0960    5.1380   13.8050 H   0  0  0  0  0  0  0  0  0  0  0  0
    5.3180    3.5260   14.4290 H   0  0  0  0  0  0  0  0  0  0  0  0
    4.8700    5.1880   14.8250 H   0  0  0  0  0  0  0  0  0  0  0  0
    5.5050    4.7940   18.4450 H   0  0  0  0  0  0  0  0  0  0  0  0
    5.0070    5.9360   17.1990 H   0  0  0  0  0  0  0  0  0  0  0  0
    8.1010    4.4700   17.7960 C   0  0  0  0  0  0  0  0  0  0  0  0
    8.8790    4.9380   18.4070 H   0  0  0  0  0  0  0  0  0  0  0  0
    7.5960    3.7210   18.4140 H   0  0  0  0  0  0  0  0  0  0  0  0
    8.5960    3.9470   16.9720 H   0  0  0  0  0  0  0  0  0  0  0  0
  1  6  1  0  0  0  0
  2  1  2  0  0  0  0
  2  3  1  0  0  0  0
  3  9  1  0  0  0  0
  3  4  2  0  0  0  0
  4  5  1  0  0  0  0
  4  7  1  0  0  0  0
  5 48  1  0  0  0  0
  6 12  1  0  0  0  0
  6  5  2  0  0  0  0
  7 14  1  0  0  0  0
  7 13  1  0  0  0  0
  8 15  1  0  0  0  0
  8  7  1  0  0  0  0
  9  8  1  0  0  0  0
 10  9  2  0  0  0  0
 11  2  1  0  0  0  0
 15 16  1  0  0  0  0
 16 17  2  0  0  0  0
 16 21  1  0  0  0  0
 17 22  1  0  0  0  0
 18 23  1  0  0  0  0
 18 17  1  0  0  0  0
 19 18  2  0  0  0  0
 20 19  1  0  0  0  0
 20 15  2  0  0  0  0
 24 20  1  0  0  0  0
 25 34  1  6  0  0  0
 25 28  1  0  0  0  0
 25 19  1  0  0  0  0
 26 27  1  0  0  0  0
 26 25  1  0  0  0  0
 27 31  1  1  0  0  0
 27 28  1  0  0  0  0
 28 32  1  0  0  0  0
 29 26  1  0  0  0  0
 30 26  1  0  0  0  0
 33 28  1  0  0  0  0
 34 35  2  0  0  0  0
 36 35  1  0  0  0  0
 37 38  1  0  0  0  0
 37 36  2  0  0  0  0
 38 34  1  0  0  0  0
 39 37  1  0  0  0  0
 40 43  1  0  0  0  0
 40 38  1  0  0  0  0
 41 40  1  0  0  0  0
 42 40  1  0  0  0  0
 44 27  1  0  0  0  0
 44 47  1  0  0  0  0
 45 44  1  0  0  0  0
 46 44  1  0  0  0  0
 48 51  1  0  0  0  0
 48 49  1  0  0  0  0
 48 50  1  0  0  0  0
 52 54  1  0  0  0  0
 52  1  1  0  0  0  0
 53 52  1  0  0  0  0
 55 60  1  0  0  0  0
 55 70  1  0  0  0  0
 55 61  1  1  0  0  0
 56 55  1  0  0  0  0
 57 64  1  0  0  0  0
 57 58  1  0  0  0  0
 57 56  1  0  0  0  0
 58 59  1  0  0  0  0
 59 52  1  0  0  0  0
 59 60  1  0  0  0  0
 60 68  1  0  0  0  0
 62 56  1  0  0  0  0
 63 56  1  0  0  0  0
 65 57  1  0  0  0  0
 66 58  1  0  0  0  0
 67 58  1  0  0  0  0
 69 60  1  0  0  0  0
 70 71  1  0  0  0  0
 70 72  1  0  0  0  0
 73 70  1  0  0  0  0
M  END
>  <MODEL>
3

>  <REMARK>
 VINA RESULT:    -8.539      2.702      9.909
 INTER + INTRA:         -13.055
 INTER:                 -12.640
 INTRA:                  -0.415
 UNBOUND:                -0.772
  Name = 
  9 active torsions:
  status: ('A' for Active; 'I' for Inactive)
    1  A    between atoms: C_1  and  C_2
    2  A    between atoms: N_6  and  C_7
    3  A    between atoms: C_7  and  C_8
    4  A    between atoms: C_12  and  C_13
    5  A    between atoms: N_19  and  C_20
    6  A    between atoms: C_24  and  C_25
    7  A    between atoms: C_25  and  C_26
    8  A    between atoms: N_30  and  C_31
    9  A    between atoms: C_33  and  C_34
                            x       y       z     vdW  Elec       q    Type
                         _______ _______ _______ _____ _____    ______ ____

>  <TORSDO>
F 9

$$$$
=
 OpenBabel07192307433D

 73 78  0  0  1  0  0  0  0  0999 V2000
    0.0230   11.8120   19.9450 C   0  0  0  0  0  0  0  0  0  0  0  0
    0.6210   11.0230   18.9540 C   0  0  0  0  0  0  0  0  0  0  0  0
    1.0200    9.7440   19.2980 C   0  0  0  0  0  0  0  0  0  0  0  0
    0.8610    9.2220   20.5760 C   0  0  0  0  0  0  0  0  0  0  0  0
    0.2840    9.9840   21.5870 C   0  0  0  0  0  0  0  0  0  0  0  0
   -0.1330   11.2870   21.2520 C   0  0  0  0  0  0  0  0  0  0  0  0
    1.3880    7.8250   20.6140 C   0  0  0  0  0  0  0  0  0  0  0  0
    1.8320    7.5860   19.2470 N   0  0  0  0  0  0  0  0  0  0  0  0
    1.6470    8.7220   18.4500 C   0  0  0  0  0  0  0  0  0  0  0  0
    1.9230    8.9420   17.2860 O   0  0  0  0  0  0  0  0  0  0  0  0
    0.7630   11.3830   17.9390 H   0  0  0  0  0  0  0  0  0  0  0  0
   -0.6060   11.9150   22.0120 H   0  0  0  0  0  0  0  0  0  0  0  0
    0.5940    7.1160   20.8730 H   0  0  0  0  0  0  0  0  0  0  0  0
    2.2400    7.7510   21.2970 H   0  0  0  0  0  0  0  0  0  0  0  0
    2.3870    6.3430   18.8350 C   0  0  0  0  0  0  0  0  0  0  0  0
    1.7380    5.1390   19.1310 C   0  0  0  0  0  0  0  0  0  0  0  0
    2.2860    3.9170   18.7410 C   0  0  0  0  0  0  0  0  0  0  0  0
    3.4940    3.8760   18.0460 C   0  0  0  0  0  0  0  0  0  0  0  0
    4.1900    5.0500   17.7070 C   0  0  0  0  0  0  0  0  0  0  0  0
    3.5930    6.2690   18.1180 C   0  0  0  0  0  0  0  0  0  0  0  0
    0.8010    5.1150   19.6780 H   0  0  0  0  0  0  0  0  0  0  0  0
    1.7710    2.9910   18.9880 H   0  0  0  0  0  0  0  0  0  0  0  0
    3.8920    2.9040   17.7670 H   0  0  0  0  0  0  0  0  0  0  0  0
    4.1180    7.1810   17.8370 H   0  0  0  0  0  0  0  0  0  0  0  0
    5.5860    5.0480   16.8950 C   0  0  2  0  0  0  0  0  0  0  0  0
    5.6490    5.7150   15.4720 C   0  0  0  0  0  0  0  0  0  0  0  0
    5.3210    4.3330   14.8640 C   0  0  2  0  0  0  0  0  0  0  0  0
    5.9470    3.7130   16.1350 C   0  0  0  0  0  0  0  0  0  0  0  0
    6.6410    6.0980   15.1950 H   0  0  0  0  0  0  0  0  0  0  0  0
    4.9170    6.4960   15.2470 H   0  0  0  0  0  0  0  0  0  0  0  0
    4.2380    4.1520   14.8040 H   0  0  0  0  0  0  0  0  0  0  0  0
    5.4580    2.7990   16.4830 H   0  0  0  0  0  0  0  0  0  0  0  0
    7.0220    3.5060   16.0430 H   0  0  0  0  0  0  0  0  0  0  0  0
    6.7590    5.5400   17.8370 C   0  0  0  0  0  0  0  0  0  0  0  0
    7.4010    4.7490   18.6750 N   0  0  0  0  0  0  0  0  0  0  0  0
    8.3610    5.4950   19.3170 N   0  0  0  0  0  0  0  0  0  0  0  0
    8.2770    6.7230   18.8600 C   0  0  0  0  0  0  0  0  0  0  0  0
    7.2760    6.8030   17.9430 N   0  0  0  0  0  0  0  0  0  0  0  0
    8.8960    7.5560   19.1630 H   0  0  0  0  0  0  0  0  0  0  0  0
    6.8650    7.9910   17.2500 C   0  0  0  0  0  0  0  0  0  0  0  0
    7.7410    8.6080   17.0410 H   0  0  0  0  0  0  0  0  0  0  0  0
    6.1730    8.5580   17.8770 H   0  0  0  0  0  0  0  0  0  0  0  0
    6.3660    7.7010   16.3230 H   0  0  0  0  0  0  0  0  0  0  0  0
    5.9910    4.0000   13.5450 C   0  0  0  0  0  0  0  0  0  0  0  0
    6.2470    2.9380   13.5020 H   0  0  0  0  0  0  0  0  0  0  0  0
    5.3210    4.2190   12.7080 H   0  0  0  0  0  0  0  0  0  0  0  0
    6.9090    4.5770   13.4010 H   0  0  0  0  0  0  0  0  0  0  0  0
    0.0940    9.4270   22.9710 C   0  0  0  0  0  0  0  0  0  0  0  0
    1.2760    9.2530   23.6230 F   0  0  0  0  0  0  0  0  0  0  0  0
   -0.5390    8.2230   23.0060 F   0  0  0  0  0  0  0  0  0  0  0  0
   -0.6400   10.2600   23.7630 F   0  0  0  0  0  0  0  0  0  0  0  0
   -0.4460   13.2190   19.6270 C   0  0  0  0  0  0  0  0  0  0  0  0
   -0.1490   13.5070   18.6110 H   0  0  0  0  0  0  0  0  0  0  0  0
    0.1030   13.8810   20.3100 H   0  0  0  0  0  0  0  0  0  0  0  0
   -3.7320   13.9140   21.4220 C   0  0  1  0  0  0  0  0  0  0  0  0
   -4.5530   12.7480   20.8600 C   0  0  0  0  0  0  0  0  0  0  0  0
   -4.1290   12.3830   19.4400 C   0  0  0  0  0  0  0  0  0  0  0  0
   -2.6150   12.1980   19.3350 C   0  0  0  0  0  0  0  0  0  0  0  0
   -1.8960   13.3880   19.8140 N   0  0  0  0  0  0  0  0  0  0  0  0
   -2.2290   13.6490   21.2280 C   0  0  0  0  0  0  0  0  0  0  0  0
   -3.9320   13.9800   22.5000 H   0  0  0  0  0  0  0  0  0  0  0  0
   -4.4120   11.8710   21.5050 H   0  0  0  0  0  0  0  0  0  0  0  0
   -5.6240   12.9830   20.8810 H   0  0  0  0  0  0  0  0  0  0  0  0
   -4.4540   13.1640   18.7430 H   0  0  0  0  0  0  0  0  0  0  0  0
   -4.6340   11.4600   19.1340 H   0  0  0  0  0  0  0  0  0  0  0  0
   -2.3720   12.0160   18.2810 H   0  0  0  0  0  0  0  0  0  0  0  0
   -2.3110   11.3040   19.8970 H   0  0  0  0  0  0  0  0  0  0  0  0
   -1.6810   14.5240   21.5990 H   0  0  0  0  0  0  0  0  0  0  0  0
   -1.9250   12.7990   21.8540 H   0  0  0  0  0  0  0  0  0  0  0  0
   -4.1510   15.2510   20.8010 C   0  0  0  0  0  0  0  0  0  0  0  0
   -4.6070   15.0900   19.8190 H   0  0  0  0  0  0  0  0  0  0  0  0
   -4.8730   15.7910   21.4210 H   0  0  0  0  0  0  0  0  0  0  0  0
   -3.2800   15.8990   20.6590 H   0  0  0  0  0  0  0  0  0  0  0  0
  1  6  1  0  0  0  0
  2  3  1  0  0  0  0
  2  1  2  0  0  0  0
  3  4  2  0  0  0  0
  4  7  1  0  0  0  0
  4  5  1  0  0  0  0
  5 48  1  0  0  0  0
  6  5  2  0  0  0  0
  6 12  1  0  0  0  0
  7 13  1  0  0  0  0
  7 14  1  0  0  0  0
  8  7  1  0  0  0  0
  9  8  1  0  0  0  0
  9  3  1  0  0  0  0
 10  9  2  0  0  0  0
 11  2  1  0  0  0  0
 15 16  1  0  0  0  0
 15  8  1  0  0  0  0
 16 21  1  0  0  0  0
 17 22  1  0  0  0  0
 17 16  2  0  0  0  0
 18 17  1  0  0  0  0
 19 18  2  0  0  0  0
 19 20  1  0  0  0  0
 20 15  2  0  0  0  0
 23 18  1  0  0  0  0
 24 20  1  0  0  0  0
 25 19  1  1  0  0  0
 25 34  1  0  0  0  0
 26 25  1  0  0  0  0
 27 31  1  6  0  0  0
 27 26  1  0  0  0  0
 27 28  1  0  0  0  0
 28 32  1  0  0  0  0
 28 25  1  0  0  0  0
 29 26  1  0  0  0  0
 30 26  1  0  0  0  0
 33 28  1  0  0  0  0
 34 38  1  0  0  0  0
 34 35  2  0  0  0  0
 35 36  1  0  0  0  0
 37 39  1  0  0  0  0
 37 36  2  0  0  0  0
 38 37  1  0  0  0  0
 40 42  1  0  0  0  0
 40 38  1  0  0  0  0
 41 40  1  0  0  0  0
 43 40  1  0  0  0  0
 44 27  1  0  0  0  0
 45 44  1  0  0  0  0
 46 44  1  0  0  0  0
 47 44  1  0  0  0  0
 48 50  1  0  0  0  0
 48 49  1  0  0  0  0
 48 51  1  0  0  0  0
 52 59  1  0  0  0  0
 52  1  1  0  0  0  0
 52 54  1  0  0  0  0
 53 52  1  0  0  0  0
 55 61  1  1  0  0  0
 56 63  1  0  0  0  0
 56 55  1  0  0  0  0
 56 62  1  0  0  0  0
 57 56  1  0  0  0  0
 58 57  1  0  0  0  0
 58 59  1  0  0  0  0
 58 67  1  0  0  0  0
 59 60  1  0  0  0  0
 60 55  1  0  0  0  0
 60 68  1  0  0  0  0
 60 69  1  0  0  0  0
 64 57  1  0  0  0  0
 65 57  1  0  0  0  0
 66 58  1  0  0  0  0
 70 72  1  0  0  0  0
 70 55  1  0  0  0  0
 71 70  1  0  0  0  0
 73 70  1  0  0  0  0
M  END
>  <MODEL>
4

>  <REMARK>
 VINA RESULT:    -8.416      0.856      1.668
 INTER + INTRA:         -12.877
 INTER:                 -12.141
 INTRA:                  -0.736
 UNBOUND:                -0.772
  Name = 
  9 active torsions:
  status: ('A' for Active; 'I' for Inactive)
    1  A    between atoms: C_1  and  C_2
    2  A    between atoms: N_6  and  C_7
    3  A    between atoms: C_7  and  C_8
    4  A    between atoms: C_12  and  C_13
    5  A    between atoms: N_19  and  C_20
    6  A    between atoms: C_24  and  C_25
    7  A    between atoms: C_25  and  C_26
    8  A    between atoms: N_30  and  C_31
    9  A    between atoms: C_33  and  C_34
                            x       y       z     vdW  Elec       q    Type
                         _______ _______ _______ _____ _____    ______ ____

>  <TORSDO>
F 9

$$$$
=
 OpenBabel07192307433D

 73 78  0  0  1  0  0  0  0  0999 V2000
   -0.7740   11.3060   19.6710 C   0  0  0  0  0  0  0  0  0  0  0  0
    0.0400   10.5710   18.7980 C   0  0  0  0  0  0  0  0  0  0  0  0
    0.7270    9.4870   19.3140 C   0  0  0  0  0  0  0  0  0  0  0  0
    0.6500    9.1110   20.6500 C   0  0  0  0  0  0  0  0  0  0  0  0
   -0.1380    9.8270   21.5440 C   0  0  0  0  0  0  0  0  0  0  0  0
   -0.8490   10.9320   21.0350 C   0  0  0  0  0  0  0  0  0  0  0  0
    1.5020    7.9050   20.8780 C   0  0  0  0  0  0  0  0  0  0  0  0
    2.0470    7.6130   19.5590 N   0  0  0  0  0  0  0  0  0  0  0  0
    1.6210    8.5540   18.6150 C   0  0  0  0  0  0  0  0  0  0  0  0
    1.8810    8.6850   17.4350 O   0  0  0  0  0  0  0  0  0  0  0  0
    0.1300   10.8230   17.7450 H   0  0  0  0  0  0  0  0  0  0  0  0
   -1.4920   11.5140   21.7000 H   0  0  0  0  0  0  0  0  0  0  0  0
    0.8970    7.0600   21.2240 H   0  0  0  0  0  0  0  0  0  0  0  0
    2.3180    8.1350   21.5710 H   0  0  0  0  0  0  0  0  0  0  0  0
    2.9060    6.5040   19.3210 C   0  0  0  0  0  0  0  0  0  0  0  0
    2.7100    5.2920   19.9920 C   0  0  0  0  0  0  0  0  0  0  0  0
    3.5600    4.2080   19.7720 C   0  0  0  0  0  0  0  0  0  0  0  0
    4.6230    4.3160   18.8760 C   0  0  0  0  0  0  0  0  0  0  0  0
    4.8670    5.5010   18.1610 C   0  0  0  0  0  0  0  0  0  0  0  0
    3.9740    6.5750   18.4110 C   0  0  0  0  0  0  0  0  0  0  0  0
    1.9050    5.1590   20.7080 H   0  0  0  0  0  0  0  0  0  0  0  0
    3.3970    3.2770   20.3100 H   0  0  0  0  0  0  0  0  0  0  0  0
    5.2670    3.4510   18.7380 H   0  0  0  0  0  0  0  0  0  0  0  0
    4.1470    7.4880   17.8420 H   0  0  0  0  0  0  0  0  0  0  0  0
    6.0800    5.6660   17.1070 C   0  0  2  0  0  0  0  0  0  0  0  0
    5.7510    5.8520   15.5800 C   0  0  0  0  0  0  0  0  0  0  0  0
    5.8530    4.3170   15.4220 C   0  0  2  0  0  0  0  0  0  0  0  0
    6.7910    4.3320   16.6510 C   0  0  0  0  0  0  0  0  0  0  0  0
    6.5130    6.4080   15.0170 H   0  0  0  0  0  0  0  0  0  0  0  0
    4.7750    6.2720   15.3210 H   0  0  0  0  0  0  0  0  0  0  0  0
    4.8980    3.8150   15.6330 H   0  0  0  0  0  0  0  0  0  0  0  0
    6.6880    3.4670   17.3120 H   0  0  0  0  0  0  0  0  0  0  0  0
    7.8540    4.4360   16.3960 H   0  0  0  0  0  0  0  0  0  0  0  0
    7.1080    6.7480   17.6320 C   0  0  0  0  0  0  0  0  0  0  0  0
    7.3150    7.9060   17.0350 N   0  0  0  0  0  0  0  0  0  0  0  0
    8.2520    8.6000   17.7620 N   0  0  0  0  0  0  0  0  0  0  0  0
    8.5990    7.8480   18.7810 C   0  0  0  0  0  0  0  0  0  0  0  0
    7.9200    6.6700   18.7300 N   0  0  0  0  0  0  0  0  0  0  0  0
    9.3190    8.1050   19.5450 H   0  0  0  0  0  0  0  0  0  0  0  0
    8.0580    5.5810   19.6560 C   0  0  0  0  0  0  0  0  0  0  0  0
    8.8530    5.8110   20.3680 H   0  0  0  0  0  0  0  0  0  0  0  0
    8.3210    4.6710   19.1120 H   0  0  0  0  0  0  0  0  0  0  0  0
    7.1060    5.4380   20.1720 H   0  0  0  0  0  0  0  0  0  0  0  0
    6.4460    3.8120   14.1210 C   0  0  0  0  0  0  0  0  0  0  0  0
    7.3980    3.3070   14.3040 H   0  0  0  0  0  0  0  0  0  0  0  0
    5.7710    3.0940   13.6450 H   0  0  0  0  0  0  0  0  0  0  0  0
    6.6230    4.6260   13.4140 H   0  0  0  0  0  0  0  0  0  0  0  0
   -0.2400    9.4230   22.9900 C   0  0  0  0  0  0  0  0  0  0  0  0
   -0.7850    8.1850   23.1410 F   0  0  0  0  0  0  0  0  0  0  0  0
   -0.9920   10.2630   23.7520 F   0  0  0  0  0  0  0  0  0  0  0  0
    0.9820    9.3620   23.5930 F   0  0  0  0  0  0  0  0  0  0  0  0
   -1.5610   12.5000   19.1630 C   0  0  0  0  0  0  0  0  0  0  0  0
   -0.8890   13.3290   18.9070 H   0  0  0  0  0  0  0  0  0  0  0  0
   -2.1680   12.8440   20.0110 H   0  0  0  0  0  0  0  0  0  0  0  0
   -4.6800   11.3630   17.2950 C   0  0  1  0  0  0  0  0  0  0  0  0
   -4.0140   10.4150   16.2910 C   0  0  0  0  0  0  0  0  0  0  0  0
   -2.6100   10.8780   15.9120 C   0  0  0  0  0  0  0  0  0  0  0  0
   -1.7650   11.1830   17.1490 C   0  0  0  0  0  0  0  0  0  0  0  0
   -2.4290   12.1610   18.0230 N   0  0  0  0  0  0  0  0  0  0  0  0
   -3.7320   11.6380   18.4760 C   0  0  0  0  0  0  0  0  0  0  0  0
   -5.5780   10.8660   17.6850 H   0  0  0  0  0  0  0  0  0  0  0  0
   -3.9450    9.4140   16.7380 H   0  0  0  0  0  0  0  0  0  0  0  0
   -4.6300   10.3120   15.3900 H   0  0  0  0  0  0  0  0  0  0  0  0
   -2.6720   11.7710   15.2790 H   0  0  0  0  0  0  0  0  0  0  0  0
   -2.1190   10.1020   15.3140 H   0  0  0  0  0  0  0  0  0  0  0  0
   -0.8030   11.5810   16.8070 H   0  0  0  0  0  0  0  0  0  0  0  0
   -1.5550   10.2510   17.6920 H   0  0  0  0  0  0  0  0  0  0  0  0
   -4.2250   12.3540   19.1440 H   0  0  0  0  0  0  0  0  0  0  0  0
   -3.5920   10.7130   19.0530 H   0  0  0  0  0  0  0  0  0  0  0  0
   -5.1360   12.6640   16.6260 C   0  0  0  0  0  0  0  0  0  0  0  0
   -5.3220   12.5010   15.5610 H   0  0  0  0  0  0  0  0  0  0  0  0
   -6.0530   13.0620   17.0700 H   0  0  0  0  0  0  0  0  0  0  0  0
   -4.3610   13.4330   16.7130 H   0  0  0  0  0  0  0  0  0  0  0  0
  1  6  1  0  0  0  0
  2  3  1  0  0  0  0
  2  1  2  0  0  0  0
  3  4  2  0  0  0  0
  4  7  1  0  0  0  0
  4  5  1  0  0  0  0
  5 48  1  0  0  0  0
  6  5  2  0  0  0  0
  6 12  1  0  0  0  0
  7 13  1  0  0  0  0
  7 14  1  0  0  0  0
  8  7  1  0  0  0  0
  9  3  1  0  0  0  0
  9  8  1  0  0  0  0
 10  9  2  0  0  0  0
 11  2  1  0  0  0  0
 15  8  1  0  0  0  0
 15 16  1  0  0  0  0
 16 21  1  0  0  0  0
 17 16  2  0  0  0  0
 17 22  1  0  0  0  0
 18 17  1  0  0  0  0
 19 20  1  0  0  0  0
 19 18  2  0  0  0  0
 20 15  2  0  0  0  0
 23 18  1  0  0  0  0
 24 20  1  0  0  0  0
 25 34  1  1  0  0  0
 25 19  1  0  0  0  0
 26 25  1  0  0  0  0
 27 26  1  0  0  0  0
 27 31  1  1  0  0  0
 27 28  1  0  0  0  0
 28 25  1  0  0  0  0
 28 32  1  0  0  0  0
 29 26  1  0  0  0  0
 30 26  1  0  0  0  0
 33 28  1  0  0  0  0
 34 38  1  0  0  0  0
 35 34  2  0  0  0  0
 35 36  1  0  0  0  0
 36 37  2  0  0  0  0
 37 39  1  0  0  0  0
 38 37  1  0  0  0  0
 38 40  1  0  0  0  0
 40 43  1  0  0  0  0
 40 41  1  0  0  0  0
 42 40  1  0  0  0  0
 44 45  1  0  0  0  0
 44 27  1  0  0  0  0
 46 44  1  0  0  0  0
 47 44  1  0  0  0  0
 48 49  1  0  0  0  0
 48 51  1  0  0  0  0
 48 50  1  0  0  0  0
 52  1  1  0  0  0  0
 52 54  1  0  0  0  0
 53 52  1  0  0  0  0
 55 61  1  1  0  0  0
 55 60  1  0  0  0  0
 56 62  1  0  0  0  0
 56 55  1  0  0  0  0
 57 56  1  0  0  0  0
 57 58  1  0  0  0  0
 58 67  1  0  0  0  0
 58 59  1  0  0  0  0
 59 60  1  0  0  0  0
 59 52  1  0  0  0  0
 60 69  1  0  0  0  0
 60 68  1  0  0  0  0
 63 56  1  0  0  0  0
 64 57  1  0  0  0  0
 65 57  1  0  0  0  0
 66 58  1  0  0  0  0
 70 73  1  0  0  0  0
 70 72  1  0  0  0  0
 70 55  1  0  0  0  0
 71 70  1  0  0  0  0
M  END
>  <MODEL>
5

>  <REMARK>
 VINA RESULT:    -8.326      1.497      2.317
 INTER + INTRA:         -12.748
 INTER:                 -12.494
 INTRA:                  -0.254
 UNBOUND:                -0.772
  Name = 
  9 active torsions:
  status: ('A' for Active; 'I' for Inactive)
    1  A    between atoms: C_1  and  C_2
    2  A    between atoms: N_6  and  C_7
    3  A    between atoms: C_7  and  C_8
    4  A    between atoms: C_12  and  C_13
    5  A    between atoms: N_19  and  C_20
    6  A    between atoms: C_24  and  C_25
    7  A    between atoms: C_25  and  C_26
    8  A    between atoms: N_30  and  C_31
    9  A    between atoms: C_33  and  C_34
                            x       y       z     vdW  Elec       q    Type
                         _______ _______ _______ _____ _____    ______ ____

>  <TORSDO>
F 9

$$$$
=
 OpenBabel07192307433D

 73 78  0  0  1  0  0  0  0  0999 V2000
    3.4060    3.9810   17.9690 C   0  0  0  0  0  0  0  0  0  0  0  0
    3.0290    5.3220   17.8170 C   0  0  0  0  0  0  0  0  0  0  0  0
    2.3790    5.9340   18.8730 C   0  0  0  0  0  0  0  0  0  0  0  0
    2.0810    5.2760   20.0600 C   0  0  0  0  0  0  0  0  0  0  0  0
    2.4290    3.9410   20.2380 C   0  0  0  0  0  0  0  0  0  0  0  0
    3.0960    3.3020   19.1740 C   0  0  0  0  0  0  0  0  0  0  0  0
    1.3860    6.2150   20.9910 C   0  0  0  0  0  0  0  0  0  0  0  0
    1.3390    7.4670   20.2470 N   0  0  0  0  0  0  0  0  0  0  0  0
    1.9020    7.3200   18.9730 C   0  0  0  0  0  0  0  0  0  0  0  0
    2.0150    8.1010   18.0480 O   0  0  0  0  0  0  0  0  0  0  0  0
    3.2430    5.8810   16.9110 H   0  0  0  0  0  0  0  0  0  0  0  0
    3.4010    2.2580   19.2760 H   0  0  0  0  0  0  0  0  0  0  0  0
    1.9660    6.3530   21.9100 H   0  0  0  0  0  0  0  0  0  0  0  0
    0.3680    5.8710   21.1980 H   0  0  0  0  0  0  0  0  0  0  0  0
    0.7720    8.6530   20.7900 C   0  0  0  0  0  0  0  0  0  0  0  0
    0.7660    8.8730   22.1720 C   0  0  0  0  0  0  0  0  0  0  0  0
    0.1980   10.0280   22.7090 C   0  0  0  0  0  0  0  0  0  0  0  0
   -0.3760   10.9850   21.8740 C   0  0  0  0  0  0  0  0  0  0  0  0
   -0.3930   10.8310   20.4770 C   0  0  0  0  0  0  0  0  0  0  0  0
    0.2020    9.6440   19.9740 C   0  0  0  0  0  0  0  0  0  0  0  0
    1.1900    8.1550   22.8670 H   0  0  0  0  0  0  0  0  0  0  0  0
    0.1950   10.1770   23.7870 H   0  0  0  0  0  0  0  0  0  0  0  0
   -0.8160   11.8680   22.3320 H   0  0  0  0  0  0  0  0  0  0  0  0
    0.2110    9.5320   18.8910 H   0  0  0  0  0  0  0  0  0  0  0  0
   -1.0380   11.9180   19.4720 C   0  0  2  0  0  0  0  0  0  0  0  0
   -2.5580   12.2940   19.6200 C   0  0  0  0  0  0  0  0  0  0  0  0
   -2.8810   11.1860   18.5910 C   0  0  2  0  0  0  0  0  0  0  0  0
   -1.4490   11.3880   18.0440 C   0  0  0  0  0  0  0  0  0  0  0  0
   -2.8100   13.3060   19.2760 H   0  0  0  0  0  0  0  0  0  0  0  0
   -3.0210   12.1510   20.6010 H   0  0  0  0  0  0  0  0  0  0  0  0
   -3.0100   10.2030   19.0660 H   0  0  0  0  0  0  0  0  0  0  0  0
   -0.9610   10.4720   17.6980 H   0  0  0  0  0  0  0  0  0  0  0  0
   -1.3830   12.1290   17.2360 H   0  0  0  0  0  0  0  0  0  0  0  0
   -0.1120   13.1990   19.3960 C   0  0  0  0  0  0  0  0  0  0  0  0
   -0.4970   14.4000   19.7830 N   0  0  0  0  0  0  0  0  0  0  0  0
    0.5540   15.2670   19.5950 N   0  0  0  0  0  0  0  0  0  0  0  0
    1.5510   14.5760   19.0930 C   0  0  0  0  0  0  0  0  0  0  0  0
    1.1740   13.2780   18.9350 N   0  0  0  0  0  0  0  0  0  0  0  0
    2.5250   14.9650   18.8310 H   0  0  0  0  0  0  0  0  0  0  0  0
    1.9850   12.2300   18.3840 C   0  0  0  0  0  0  0  0  0  0  0  0
    1.3700   11.3410   18.2290 H   0  0  0  0  0  0  0  0  0  0  0  0
    2.7900   11.9870   19.0810 H   0  0  0  0  0  0  0  0  0  0  0  0
    2.4100   12.5750   17.4390 H   0  0  0  0  0  0  0  0  0  0  0  0
   -4.0200   11.4690   17.6320 C   0  0  0  0  0  0  0  0  0  0  0  0
   -4.2190   10.5960   17.0040 H   0  0  0  0  0  0  0  0  0  0  0  0
   -4.9370   11.7030   18.1820 H   0  0  0  0  0  0  0  0  0  0  0  0
   -3.7970   12.3150   16.9760 H   0  0  0  0  0  0  0  0  0  0  0  0
    2.1240    3.2200   21.5220 C   0  0  0  0  0  0  0  0  0  0  0  0
    2.9110    2.1240   21.6980 F   0  0  0  0  0  0  0  0  0  0  0  0
    0.8390    2.7850   21.6250 F   0  0  0  0  0  0  0  0  0  0  0  0
    2.3420    4.0060   22.6160 F   0  0  0  0  0  0  0  0  0  0  0  0
    4.1310    3.2560   16.8500 C   0  0  0  0  0  0  0  0  0  0  0  0
    3.5290    3.2560   15.9330 H   0  0  0  0  0  0  0  0  0  0  0  0
    4.2090    2.2080   17.1700 H   0  0  0  0  0  0  0  0  0  0  0  0
    7.2130    5.4450   17.3160 C   0  0  1  0  0  0  0  0  0  0  0  0
    7.4270    5.8560   15.8540 C   0  0  0  0  0  0  0  0  0  0  0  0
    6.9880    4.7630   14.8840 C   0  0  0  0  0  0  0  0  0  0  0  0
    5.5780    4.2620   15.1990 C   0  0  0  0  0  0  0  0  0  0  0  0
    5.4720    3.8080   16.5940 N   0  0  0  0  0  0  0  0  0  0  0  0
    5.7810    4.9180   17.5160 C   0  0  0  0  0  0  0  0  0  0  0  0
    7.3390    6.3400   17.9400 H   0  0  0  0  0  0  0  0  0  0  0  0
    6.8410    6.7620   15.6500 H   0  0  0  0  0  0  0  0  0  0  0  0
    8.4770    6.1150   15.6750 H   0  0  0  0  0  0  0  0  0  0  0  0
    7.6940    3.9250   14.9240 H   0  0  0  0  0  0  0  0  0  0  0  0
    7.0190    5.1500   13.8590 H   0  0  0  0  0  0  0  0  0  0  0  0
    5.3580    3.4310   14.5190 H   0  0  0  0  0  0  0  0  0  0  0  0
    4.8480    5.0560   14.9890 H   0  0  0  0  0  0  0  0  0  0  0  0
    5.6850    4.5920   18.5590 H   0  0  0  0  0  0  0  0  0  0  0  0
    5.0670    5.7410   17.3760 H   0  0  0  0  0  0  0  0  0  0  0  0
    8.2570    4.4210   17.7730 C   0  0  0  0  0  0  0  0  0  0  0  0
    7.8970    3.4030   17.5980 H   0  0  0  0  0  0  0  0  0  0  0  0
    9.2100    4.5340   17.2480 H   0  0  0  0  0  0  0  0  0  0  0  0
    8.4520    4.5240   18.8460 H   0  0  0  0  0  0  0  0  0  0  0  0
  1  6  1  0  0  0  0
  2  1  2  0  0  0  0
  2  3  1  0  0  0  0
  3  9  1  0  0  0  0
  3  4  2  0  0  0  0
  4  5  1  0  0  0  0
  4  7  1  0  0  0  0
  5 48  1  0  0  0  0
  6 12  1  0  0  0  0
  6  5  2  0  0  0  0
  7 14  1  0  0  0  0
  7 13  1  0  0  0  0
  8 15  1  0  0  0  0
  8  7  1  0  0  0  0
  9  8  1  0  0  0  0
 10  9  2  0  0  0  0
 11  2  1  0  0  0  0
 15 16  1  0  0  0  0
 16 17  2  0  0  0  0
 16 21  1  0  0  0  0
 17 22  1  0  0  0  0
 18 23  1  0  0  0  0
 18 17  1  0  0  0  0
 19 18  2  0  0  0  0
 20 19  1  0  0  0  0
 20 15  2  0  0  0  0
 24 20  1  0  0  0  0
 25 34  1  6  0  0  0
 25 26  1  0  0  0  0
 25 19  1  0  0  0  0
 26 30  1  0  0  0  0
 27 31  1  1  0  0  0
 27 26  1  0  0  0  0
 28 27  1  0  0  0  0
 28 25  1  0  0  0  0
 29 26  1  0  0  0  0
 32 28  1  0  0  0  0
 33 28  1  0  0  0  0
 34 35  2  0  0  0  0
 36 35  1  0  0  0  0
 37 36  2  0  0  0  0
 38 37  1  0  0  0  0
 38 34  1  0  0  0  0
 39 37  1  0  0  0  0
 40 38  1  0  0  0  0
 40 42  1  0  0  0  0
 41 40  1  0  0  0  0
 43 40  1  0  0  0  0
 44 46  1  0  0  0  0
 44 27  1  0  0  0  0
 45 44  1  0  0  0  0
 47 44  1  0  0  0  0
 48 50  1  0  0  0  0
 48 49  1  0  0  0  0
 48 51  1  0  0  0  0
 52 54  1  0  0  0  0
 52  1  1  0  0  0  0
 53 52  1  0  0  0  0
 55 60  1  0  0  0  0
 55 70  1  0  0  0  0
 55 61  1  1  0  0  0
 56 55  1  0  0  0  0
 57 64  1  0  0  0  0
 57 58  1  0  0  0  0
 57 56  1  0  0  0  0
 58 59  1  0  0  0  0
 59 52  1  0  0  0  0
 59 60  1  0  0  0  0
 60 68  1  0  0  0  0
 62 56  1  0  0  0  0
 63 56  1  0  0  0  0
 65 57  1  0  0  0  0
 66 58  1  0  0  0  0
 67 58  1  0  0  0  0
 69 60  1  0  0  0  0
 70 73  1  0  0  0  0
 71 70  1  0  0  0  0
 72 70  1  0  0  0  0
M  END
>  <MODEL>
6

>  <REMARK>
 VINA RESULT:    -8.264      2.697      9.613
 INTER + INTRA:         -12.659
 INTER:                 -12.248
 INTRA:                  -0.411
 UNBOUND:                -0.772
  Name = 
  9 active torsions:
  status: ('A' for Active; 'I' for Inactive)
    1  A    between atoms: C_1  and  C_2
    2  A    between atoms: N_6  and  C_7
    3  A    between atoms: C_7  and  C_8
    4  A    between atoms: C_12  and  C_13
    5  A    between atoms: N_19  and  C_20
    6  A    between atoms: C_24  and  C_25
    7  A    between atoms: C_25  and  C_26
    8  A    between atoms: N_30  and  C_31
    9  A    between atoms: C_33  and  C_34
                            x       y       z     vdW  Elec       q    Type
                         _______ _______ _______ _____ _____    ______ ____

>  <TORSDO>
F 9

$$$$
=
 OpenBabel07192307433D

 73 78  0  0  1  0  0  0  0  0999 V2000
    5.7100    5.4120   16.5360 C   0  0  0  0  0  0  0  0  0  0  0  0
    5.1600    6.6650   16.8370 C   0  0  0  0  0  0  0  0  0  0  0  0
    4.0480    6.7020   17.6610 C   0  0  0  0  0  0  0  0  0  0  0  0
    3.4600    5.5580   18.1860 C   0  0  0  0  0  0  0  0  0  0  0  0
    3.9740    4.2990   17.8960 C   0  0  0  0  0  0  0  0  0  0  0  0
    5.1080    4.2420   17.0620 C   0  0  0  0  0  0  0  0  0  0  0  0
    2.2910    5.9430   19.0330 C   0  0  0  0  0  0  0  0  0  0  0  0
    2.2810    7.3980   18.9680 N   0  0  0  0  0  0  0  0  0  0  0  0
    3.3020    7.8740   18.1370 C   0  0  0  0  0  0  0  0  0  0  0  0
    3.6000    9.0010   17.7930 O   0  0  0  0  0  0  0  0  0  0  0  0
    5.5850    7.5880   16.4550 H   0  0  0  0  0  0  0  0  0  0  0  0
    5.5530    3.2740   16.8210 H   0  0  0  0  0  0  0  0  0  0  0  0
    2.4380    5.6210   20.0700 H   0  0  0  0  0  0  0  0  0  0  0  0
    1.3620    5.5480   18.6100 H   0  0  0  0  0  0  0  0  0  0  0  0
    1.3250    8.1830   19.6700 C   0  0  0  0  0  0  0  0  0  0  0  0
    0.9330    7.8380   20.9680 C   0  0  0  0  0  0  0  0  0  0  0  0
   -0.0150    8.5970   21.6540 C   0  0  0  0  0  0  0  0  0  0  0  0
   -0.5890    9.7180   21.0540 C   0  0  0  0  0  0  0  0  0  0  0  0
   -0.2290   10.1260   19.7580 C   0  0  0  0  0  0  0  0  0  0  0  0
    0.7430    9.3280   19.1000 C   0  0  0  0  0  0  0  0  0  0  0  0
    1.3410    6.9700   21.4760 H   0  0  0  0  0  0  0  0  0  0  0  0
   -0.3150    8.3080   22.6580 H   0  0  0  0  0  0  0  0  0  0  0  0
   -1.3290   10.2790   21.6180 H   0  0  0  0  0  0  0  0  0  0  0  0
    1.0400    9.6540   18.1050 H   0  0  0  0  0  0  0  0  0  0  0  0
   -0.8610   11.4220   19.0300 C   0  0  2  0  0  0  0  0  0  0  0  0
   -2.3540   11.8170   19.3240 C   0  0  0  0  0  0  0  0  0  0  0  0
   -2.7700   10.9590   18.1070 C   0  0  2  0  0  0  0  0  0  0  0  0
   -1.3520   11.2140   17.5440 C   0  0  0  0  0  0  0  0  0  0  0  0
   -2.5710   12.8880   19.2080 H   0  0  0  0  0  0  0  0  0  0  0  0
   -2.7840   11.4930   20.2770 H   0  0  0  0  0  0  0  0  0  0  0  0
   -2.9270    9.9050   18.3770 H   0  0  0  0  0  0  0  0  0  0  0  0
   -0.9230   10.3710   16.9950 H   0  0  0  0  0  0  0  0  0  0  0  0
   -1.2830   12.1030   16.9030 H   0  0  0  0  0  0  0  0  0  0  0  0
    0.1220   12.6540   19.1720 C   0  0  0  0  0  0  0  0  0  0  0  0
    0.8870   13.0920   18.1910 N   0  0  0  0  0  0  0  0  0  0  0  0
    1.5930   14.1780   18.6520 N   0  0  0  0  0  0  0  0  0  0  0  0
    1.2460   14.3730   19.9030 C   0  0  0  0  0  0  0  0  0  0  0  0
    0.3380   13.4310   20.2770 N   0  0  0  0  0  0  0  0  0  0  0  0
    1.6210   15.1510   20.5520 H   0  0  0  0  0  0  0  0  0  0  0  0
   -0.2490   13.3020   21.5810 C   0  0  0  0  0  0  0  0  0  0  0  0
   -0.6150   12.2820   21.7130 H   0  0  0  0  0  0  0  0  0  0  0  0
   -1.0880   13.9950   21.6730 H   0  0  0  0  0  0  0  0  0  0  0  0
    0.5080   13.5420   22.3310 H   0  0  0  0  0  0  0  0  0  0  0  0
   -3.9310   11.4770   17.2830 C   0  0  0  0  0  0  0  0  0  0  0  0
   -3.6540   11.5410   16.2270 H   0  0  0  0  0  0  0  0  0  0  0  0
   -4.7920   10.8050   17.3650 H   0  0  0  0  0  0  0  0  0  0  0  0
   -4.2490   12.4710   17.6100 H   0  0  0  0  0  0  0  0  0  0  0  0
    3.3540    3.0530   18.4680 C   0  0  0  0  0  0  0  0  0  0  0  0
    3.8860    1.9200   17.9350 F   0  0  0  0  0  0  0  0  0  0  0  0
    2.0090    2.9640   18.2830 F   0  0  0  0  0  0  0  0  0  0  0  0
    3.5540    2.9530   19.8140 F   0  0  0  0  0  0  0  0  0  0  0  0
    6.9340    5.3060   15.6470 C   0  0  0  0  0  0  0  0  0  0  0  0
    7.6720    4.6200   16.0810 H   0  0  0  0  0  0  0  0  0  0  0  0
    7.3970    6.3020   15.6500 H   0  0  0  0  0  0  0  0  0  0  0  0
    5.7800    3.0800   12.7790 C   0  0  1  0  0  0  0  0  0  0  0  0
    6.8850    3.4120   11.7700 C   0  0  0  0  0  0  0  0  0  0  0  0
    7.3840    4.8460   11.9200 C   0  0  0  0  0  0  0  0  0  0  0  0
    7.7350    5.1720   13.3720 C   0  0  0  0  0  0  0  0  0  0  0  0
    6.6000    4.9080   14.2690 N   0  0  0  0  0  0  0  0  0  0  0  0
    6.2150    3.4850   14.1980 C   0  0  0  0  0  0  0  0  0  0  0  0
    5.6240    1.9930   12.7650 H   0  0  0  0  0  0  0  0  0  0  0  0
    7.7300    2.7290   11.9310 H   0  0  0  0  0  0  0  0  0  0  0  0
    6.5370    3.2420   10.7450 H   0  0  0  0  0  0  0  0  0  0  0  0
    6.6190    5.5440   11.5610 H   0  0  0  0  0  0  0  0  0  0  0  0
    8.2660    4.9940   11.2870 H   0  0  0  0  0  0  0  0  0  0  0  0
    8.0090    6.2320   13.4200 H   0  0  0  0  0  0  0  0  0  0  0  0
    8.6180    4.5940   13.6770 H   0  0  0  0  0  0  0  0  0  0  0  0
    5.3810    3.2760   14.8800 H   0  0  0  0  0  0  0  0  0  0  0  0
    7.0510    2.8480   14.5180 H   0  0  0  0  0  0  0  0  0  0  0  0
    4.4480    3.7330   12.3930 C   0  0  0  0  0  0  0  0  0  0  0  0
    4.0470    3.2740   11.4840 H   0  0  0  0  0  0  0  0  0  0  0  0
    3.6930    3.6370   13.1780 H   0  0  0  0  0  0  0  0  0  0  0  0
    4.5880    4.8010   12.1910 H   0  0  0  0  0  0  0  0  0  0  0  0
  1  2  2  0  0  0  0
  1  6  1  0  0  0  0
  2  3  1  0  0  0  0
  3  9  1  0  0  0  0
  3  4  2  0  0  0  0
  4  7  1  0  0  0  0
  5  4  1  0  0  0  0
  5 48  1  0  0  0  0
  6  5  2  0  0  0  0
  7 13  1  0  0  0  0
  8  7  1  0  0  0  0
  8 15  1  0  0  0  0
  9  8  1  0  0  0  0
 10  9  2  0  0  0  0
 11  2  1  0  0  0  0
 12  6  1  0  0  0  0
 14  7  1  0  0  0  0
 15 16  1  0  0  0  0
 16 21  1  0  0  0  0
 16 17  2  0  0  0  0
 17 22  1  0  0  0  0
 18 23  1  0  0  0  0
 18 17  1  0  0  0  0
 19 18  2  0  0  0  0
 20 15  2  0  0  0  0
 20 19  1  0  0  0  0
 24 20  1  0  0  0  0
 25 34  1  1  0  0  0
 25 26  1  0  0  0  0
 25 19  1  0  0  0  0
 26 30  1  0  0  0  0
 27 31  1  1  0  0  0
 27 26  1  0  0  0  0
 28 27  1  0  0  0  0
 28 25  1  0  0  0  0
 29 26  1  0  0  0  0
 32 28  1  0  0  0  0
 33 28  1  0  0  0  0
 34 38  1  0  0  0  0
 35 36  1  0  0  0  0
 35 34  2  0  0  0  0
 36 37  2  0  0  0  0
 37 38  1  0  0  0  0
 37 39  1  0  0  0  0
 38 40  1  0  0  0  0
 40 42  1  0  0  0  0
 40 41  1  0  0  0  0
 40 43  1  0  0  0  0
 44 46  1  0  0  0  0
 44 47  1  0  0  0  0
 44 27  1  0  0  0  0
 45 44  1  0  0  0  0
 48 51  1  0  0  0  0
 49 48  1  0  0  0  0
 50 48  1  0  0  0  0
 52 54  1  0  0  0  0
 52 53  1  0  0  0  0
 52  1  1  0  0  0  0
 55 61  1  6  0  0  0
 55 60  1  0  0  0  0
 56 57  1  0  0  0  0
 56 62  1  0  0  0  0
 56 55  1  0  0  0  0
 57 58  1  0  0  0  0
 58 66  1  0  0  0  0
 58 67  1  0  0  0  0
 58 59  1  0  0  0  0
 59 52  1  0  0  0  0
 60 59  1  0  0  0  0
 60 69  1  0  0  0  0
 60 68  1  0  0  0  0
 63 56  1  0  0  0  0
 64 57  1  0  0  0  0
 65 57  1  0  0  0  0
 70 55  1  0  0  0  0
 70 72  1  0  0  0  0
 71 70  1  0  0  0  0
 73 70  1  0  0  0  0
M  END
>  <MODEL>
7

>  <REMARK>
 VINA RESULT:    -8.117      3.247     10.185
 INTER + INTRA:         -12.447
 INTER:                 -11.372
 INTRA:                  -1.074
 UNBOUND:                -0.772
  Name = 
  9 active torsions:
  status: ('A' for Active; 'I' for Inactive)
    1  A    between atoms: C_1  and  C_2
    2  A    between atoms: N_6  and  C_7
    3  A    between atoms: C_7  and  C_8
    4  A    between atoms: C_12  and  C_13
    5  A    between atoms: N_19  and  C_20
    6  A    between atoms: C_24  and  C_25
    7  A    between atoms: C_25  and  C_26
    8  A    between atoms: N_30  and  C_31
    9  A    between atoms: C_33  and  C_34
                            x       y       z     vdW  Elec       q    Type
                         _______ _______ _______ _____ _____    ______ ____

>  <TORSDO>
F 9

$$$$
=
 OpenBabel07192307433D

 73 78  0  0  1  0  0  0  0  0999 V2000
    5.6280    5.4010   16.5230 C   0  0  0  0  0  0  0  0  0  0  0  0
    5.1180    6.6610   16.8630 C   0  0  0  0  0  0  0  0  0  0  0  0
    4.0020    6.7080   17.6790 C   0  0  0  0  0  0  0  0  0  0  0  0
    3.3700    5.5680   18.1600 C   0  0  0  0  0  0  0  0  0  0  0  0
    3.8430    4.3020   17.8300 C   0  0  0  0  0  0  0  0  0  0  0  0
    4.9810    4.2350   17.0040 C   0  0  0  0  0  0  0  0  0  0  0  0
    2.2080    5.9640   19.0110 C   0  0  0  0  0  0  0  0  0  0  0  0
    2.2480    7.4200   18.9960 N   0  0  0  0  0  0  0  0  0  0  0  0
    3.2920    7.8880   18.1900 C   0  0  0  0  0  0  0  0  0  0  0  0
    3.6320    9.0160   17.8870 O   0  0  0  0  0  0  0  0  0  0  0  0
    5.5790    7.5820   16.5160 H   0  0  0  0  0  0  0  0  0  0  0  0
    5.3960    3.2610   16.7320 H   0  0  0  0  0  0  0  0  0  0  0  0
    2.3350    5.6010   20.0370 H   0  0  0  0  0  0  0  0  0  0  0  0
    1.2690    5.6160   18.5680 H   0  0  0  0  0  0  0  0  0  0  0  0
    1.3140    8.2130   19.7170 C   0  0  0  0  0  0  0  0  0  0  0  0
    0.8180    7.7840   20.9540 C   0  0  0  0  0  0  0  0  0  0  0  0
   -0.1090    8.5530   21.6570 C   0  0  0  0  0  0  0  0  0  0  0  0
   -0.5590    9.7660   21.1370 C   0  0  0  0  0  0  0  0  0  0  0  0
   -0.0910   10.2600   19.9070 C   0  0  0  0  0  0  0  0  0  0  0  0
    0.8550    9.4480   19.2290 C   0  0  0  0  0  0  0  0  0  0  0  0
    1.1270    6.8430   21.3980 H   0  0  0  0  0  0  0  0  0  0  0  0
   -0.4910    8.1980   22.6120 H   0  0  0  0  0  0  0  0  0  0  0  0
   -1.2880   10.3320   21.7120 H   0  0  0  0  0  0  0  0  0  0  0  0
    1.2370    9.8380   18.2870 H   0  0  0  0  0  0  0  0  0  0  0  0
   -0.5770   11.6630   19.2730 C   0  0  2  0  0  0  0  0  0  0  0  0
    0.2930   12.3430   18.1530 C   0  0  0  0  0  0  0  0  0  0  0  0
    1.0250   13.1260   19.2670 C   0  0  2  0  0  0  0  0  0  0  0  0
   -0.2550   12.9570   20.1180 C   0  0  0  0  0  0  0  0  0  0  0  0
   -0.2750   12.9810   17.4620 H   0  0  0  0  0  0  0  0  0  0  0  0
    0.9390   11.6960   17.5530 H   0  0  0  0  0  0  0  0  0  0  0  0
    1.8760   12.5650   19.6790 H   0  0  0  0  0  0  0  0  0  0  0  0
   -0.0740   12.8160   21.1870 H   0  0  0  0  0  0  0  0  0  0  0  0
   -0.9750   13.7780   20.0040 H   0  0  0  0  0  0  0  0  0  0  0  0
   -2.1050   11.5730   18.8690 C   0  0  0  0  0  0  0  0  0  0  0  0
   -3.0670   12.2080   19.5100 N   0  0  0  0  0  0  0  0  0  0  0  0
   -4.2580   11.9220   18.8870 N   0  0  0  0  0  0  0  0  0  0  0  0
   -3.9950   11.1160   17.8840 C   0  0  0  0  0  0  0  0  0  0  0  0
   -2.6600   10.8560   17.8450 N   0  0  0  0  0  0  0  0  0  0  0  0
   -4.7180   10.7050   17.1940 H   0  0  0  0  0  0  0  0  0  0  0  0
   -2.0010    9.9910   16.9070 C   0  0  0  0  0  0  0  0  0  0  0  0
   -1.0720    9.6230   17.3470 H   0  0  0  0  0  0  0  0  0  0  0  0
   -1.7680   10.5490   15.9980 H   0  0  0  0  0  0  0  0  0  0  0  0
   -2.6700    9.1610   16.6670 H   0  0  0  0  0  0  0  0  0  0  0  0
    1.4350   14.5470   18.9330 C   0  0  0  0  0  0  0  0  0  0  0  0
    1.4410   14.7010   17.8510 H   0  0  0  0  0  0  0  0  0  0  0  0
    0.7320   15.2630   19.3710 H   0  0  0  0  0  0  0  0  0  0  0  0
    2.4330   14.7810   19.3150 H   0  0  0  0  0  0  0  0  0  0  0  0
    3.1760    3.0600   18.3550 C   0  0  0  0  0  0  0  0  0  0  0  0
    1.9100    2.9140   17.8770 F   0  0  0  0  0  0  0  0  0  0  0  0
    3.0770    3.0110   19.7110 F   0  0  0  0  0  0  0  0  0  0  0  0
    3.8400    1.9270   17.9860 F   0  0  0  0  0  0  0  0  0  0  0  0
    6.8560    5.2830   15.6400 C   0  0  0  0  0  0  0  0  0  0  0  0
    7.5870    4.5950   16.0810 H   0  0  0  0  0  0  0  0  0  0  0  0
    7.3250    6.2760   15.6400 H   0  0  0  0  0  0  0  0  0  0  0  0
    5.7080    3.0480   12.7770 C   0  0  1  0  0  0  0  0  0  0  0  0
    6.8170    3.3750   11.7700 C   0  0  0  0  0  0  0  0  0  0  0  0
    7.3160    4.8100   11.9160 C   0  0  0  0  0  0  0  0  0  0  0  0
    7.6630    5.1410   13.3680 C   0  0  0  0  0  0  0  0  0  0  0  0
    6.5250    4.8800   14.2620 N   0  0  0  0  0  0  0  0  0  0  0  0
    6.1390    3.4580   14.1960 C   0  0  0  0  0  0  0  0  0  0  0  0
    5.5520    1.9610   12.7660 H   0  0  0  0  0  0  0  0  0  0  0  0
    7.6610    2.6920   11.9360 H   0  0  0  0  0  0  0  0  0  0  0  0
    6.4720    3.2020   10.7440 H   0  0  0  0  0  0  0  0  0  0  0  0
    6.5530    5.5080   11.5520 H   0  0  0  0  0  0  0  0  0  0  0  0
    8.2010    4.9550   11.2850 H   0  0  0  0  0  0  0  0  0  0  0  0
    7.9380    6.2010   13.4130 H   0  0  0  0  0  0  0  0  0  0  0  0
    8.5450    4.5630   13.6780 H   0  0  0  0  0  0  0  0  0  0  0  0
    5.3030    3.2520   14.8750 H   0  0  0  0  0  0  0  0  0  0  0  0
    6.9740    2.8210   14.5210 H   0  0  0  0  0  0  0  0  0  0  0  0
    4.3790    3.7010   12.3840 C   0  0  0  0  0  0  0  0  0  0  0  0
    3.9650    4.2630   13.2260 H   0  0  0  0  0  0  0  0  0  0  0  0
    4.4860    4.3920   11.5420 H   0  0  0  0  0  0  0  0  0  0  0  0
    3.6450    2.9390   12.1010 H   0  0  0  0  0  0  0  0  0  0  0  0
  1  2  2  0  0  0  0
  1  6  1  0  0  0  0
  2  3  1  0  0  0  0
  3  4  2  0  0  0  0
  3  9  1  0  0  0  0
  4  7  1  0  0  0  0
  5  4  1  0  0  0  0
  5 48  1  0  0  0  0
  6  5  2  0  0  0  0
  7 13  1  0  0  0  0
  8  7  1  0  0  0  0
  8 15  1  0  0  0  0
  9  8  1  0  0  0  0
 10  9  2  0  0  0  0
 11  2  1  0  0  0  0
 12  6  1  0  0  0  0
 14  7  1  0  0  0  0
 15 16  1  0  0  0  0
 16 21  1  0  0  0  0
 16 17  2  0  0  0  0
 17 22  1  0  0  0  0
 18 17  1  0  0  0  0
 18 23  1  0  0  0  0
 19 18  2  0  0  0  0
 20 15  2  0  0  0  0
 20 19  1  0  0  0  0
 24 20  1  0  0  0  0
 25 34  1  6  0  0  0
 25 19  1  0  0  0  0
 25 28  1  0  0  0  0
 26 27  1  0  0  0  0
 26 25  1  0  0  0  0
 27 31  1  1  0  0  0
 27 28  1  0  0  0  0
 28 32  1  0  0  0  0
 29 26  1  0  0  0  0
 30 26  1  0  0  0  0
 33 28  1  0  0  0  0
 34 35  2  0  0  0  0
 36 35  1  0  0  0  0
 37 36  2  0  0  0  0
 38 37  1  0  0  0  0
 38 34  1  0  0  0  0
 39 37  1  0  0  0  0
 40 41  1  0  0  0  0
 40 38  1  0  0  0  0
 42 40  1  0  0  0  0
 43 40  1  0  0  0  0
 44 27  1  0  0  0  0
 44 47  1  0  0  0  0
 44 46  1  0  0  0  0
 45 44  1  0  0  0  0
 48 50  1  0  0  0  0
 49 48  1  0  0  0  0
 51 48  1  0  0  0  0
 52 53  1  0  0  0  0
 52  1  1  0  0  0  0
 54 52  1  0  0  0  0
 55 61  1  6  0  0  0
 55 60  1  0  0  0  0
 56 57  1  0  0  0  0
 56 62  1  0  0  0  0
 56 55  1  0  0  0  0
 57 58  1  0  0  0  0
 58 66  1  0  0  0  0
 58 67  1  0  0  0  0
 58 59  1  0  0  0  0
 59 52  1  0  0  0  0
 60 59  1  0  0  0  0
 60 69  1  0  0  0  0
 60 68  1  0  0  0  0
 63 56  1  0  0  0  0
 64 57  1  0  0  0  0
 65 57  1  0  0  0  0
 70 55  1  0  0  0  0
 70 71  1  0  0  0  0
 72 70  1  0  0  0  0
 73 70  1  0  0  0  0
M  END
>  <MODEL>
8

>  <REMARK>
 VINA RESULT:    -8.085      3.275     10.438
 INTER + INTRA:         -12.401
 INTER:                 -11.345
 INTRA:                  -1.056
 UNBOUND:                -0.772
  Name = 
  9 active torsions:
  status: ('A' for Active; 'I' for Inactive)
    1  A    between atoms: C_1  and  C_2
    2  A    between atoms: N_6  and  C_7
    3  A    between atoms: C_7  and  C_8
    4  A    between atoms: C_12  and  C_13
    5  A    between atoms: N_19  and  C_20
    6  A    between atoms: C_24  and  C_25
    7  A    between atoms: C_25  and  C_26
    8  A    between atoms: N_30  and  C_31
    9  A    between atoms: C_33  and  C_34
                            x       y       z     vdW  Elec       q    Type
                         _______ _______ _______ _____ _____    ______ ____

>  <TORSDO>
F 9

$$$$
=
 OpenBabel07192307433D

 73 78  0  0  1  0  0  0  0  0999 V2000
    3.8850    3.8400   18.1740 C   0  0  0  0  0  0  0  0  0  0  0  0
    3.5730    5.1910   17.9690 C   0  0  0  0  0  0  0  0  0  0  0  0
    2.8210    5.8350   18.9350 C   0  0  0  0  0  0  0  0  0  0  0  0
    2.3630    5.1990   20.0830 C   0  0  0  0  0  0  0  0  0  0  0  0
    2.6440    3.8560   20.3100 C   0  0  0  0  0  0  0  0  0  0  0  0
    3.4110    3.1850   19.3380 C   0  0  0  0  0  0  0  0  0  0  0  0
    1.5920    6.1700   20.9160 C   0  0  0  0  0  0  0  0  0  0  0  0
    1.6750    7.4140   20.1630 N   0  0  0  0  0  0  0  0  0  0  0  0
    2.3810    7.2350   18.9680 C   0  0  0  0  0  0  0  0  0  0  0  0
    2.6290    8.0020   18.0570 O   0  0  0  0  0  0  0  0  0  0  0  0
    3.9120    5.7330   17.0910 H   0  0  0  0  0  0  0  0  0  0  0  0
    3.6680    2.1330   19.4840 H   0  0  0  0  0  0  0  0  0  0  0  0
    2.0620    6.3000   21.8970 H   0  0  0  0  0  0  0  0  0  0  0  0
    0.5460    5.8600   21.0020 H   0  0  0  0  0  0  0  0  0  0  0  0
    1.0850    8.6230   20.6260 C   0  0  0  0  0  0  0  0  0  0  0  0
    1.1050    8.9510   21.9860 C   0  0  0  0  0  0  0  0  0  0  0  0
    0.5160   10.1290   22.4460 C   0  0  0  0  0  0  0  0  0  0  0  0
   -0.1060   11.0010   21.5530 C   0  0  0  0  0  0  0  0  0  0  0  0
   -0.1490   10.7370   20.1730 C   0  0  0  0  0  0  0  0  0  0  0  0
    0.4680    9.5310   19.7500 C   0  0  0  0  0  0  0  0  0  0  0  0
    1.5660    8.3020   22.7240 H   0  0  0  0  0  0  0  0  0  0  0  0
    0.5330   10.3620   23.5080 H   0  0  0  0  0  0  0  0  0  0  0  0
   -0.5600   11.9040   21.9510 H   0  0  0  0  0  0  0  0  0  0  0  0
    0.4560    9.3340   18.6790 H   0  0  0  0  0  0  0  0  0  0  0  0
   -0.8490   11.7230   19.1030 C   0  0  2  0  0  0  0  0  0  0  0  0
   -2.4020   11.9630   19.1800 C   0  0  0  0  0  0  0  0  0  0  0  0
   -2.5820   10.7940   18.1850 C   0  0  2  0  0  0  0  0  0  0  0  0
   -1.1530   11.1060   17.6830 C   0  0  0  0  0  0  0  0  0  0  0  0
   -2.7310   12.9350   18.7880 H   0  0  0  0  0  0  0  0  0  0  0  0
   -2.8890   11.8140   20.1480 H   0  0  0  0  0  0  0  0  0  0  0  0
   -2.6400    9.8210   18.6930 H   0  0  0  0  0  0  0  0  0  0  0  0
   -0.5710   10.2270   17.3920 H   0  0  0  0  0  0  0  0  0  0  0  0
   -1.1220   11.8200   16.8490 H   0  0  0  0  0  0  0  0  0  0  0  0
   -0.0410   13.0800   19.0100 C   0  0  0  0  0  0  0  0  0  0  0  0
   -0.5610   14.2590   19.2920 N   0  0  0  0  0  0  0  0  0  0  0  0
    0.4170   15.2100   19.1220 N   0  0  0  0  0  0  0  0  0  0  0  0
    1.5080   14.5900   18.7370 C   0  0  0  0  0  0  0  0  0  0  0  0
    1.2640   13.2550   18.6370 N   0  0  0  0  0  0  0  0  0  0  0  0
    2.4600   15.0540   18.5200 H   0  0  0  0  0  0  0  0  0  0  0  0
    2.2070   12.2590   18.2120 C   0  0  0  0  0  0  0  0  0  0  0  0
    2.1090   11.3760   18.8470 H   0  0  0  0  0  0  0  0  0  0  0  0
    3.2210   12.6530   18.3070 H   0  0  0  0  0  0  0  0  0  0  0  0
    2.0060   12.0080   17.1680 H   0  0  0  0  0  0  0  0  0  0  0  0
   -3.7020   10.9360   17.1740 C   0  0  0  0  0  0  0  0  0  0  0  0
   -3.9820   11.9860   17.0550 H   0  0  0  0  0  0  0  0  0  0  0  0
   -3.3880   10.5590   16.1950 H   0  0  0  0  0  0  0  0  0  0  0  0
   -4.5940   10.3800   17.4770 H   0  0  0  0  0  0  0  0  0  0  0  0
    2.1630    3.1590   21.5530 C   0  0  0  0  0  0  0  0  0  0  0  0
    2.8340    1.9980   21.7850 F   0  0  0  0  0  0  0  0  0  0  0  0
    0.8420    2.8360   21.5360 F   0  0  0  0  0  0  0  0  0  0  0  0
    2.3500    3.9180   22.6710 F   0  0  0  0  0  0  0  0  0  0  0  0
    4.7140    3.0810   17.1550 C   0  0  0  0  0  0  0  0  0  0  0  0
    4.1210    2.2880   16.6840 H   0  0  0  0  0  0  0  0  0  0  0  0
    5.5070    2.5790   17.7260 H   0  0  0  0  0  0  0  0  0  0  0  0
    6.4770    4.0980   13.9360 C   0  0  1  0  0  0  0  0  0  0  0  0
    7.4520    5.1270   14.5210 C   0  0  0  0  0  0  0  0  0  0  0  0
    6.8630    5.8480   15.7310 C   0  0  0  0  0  0  0  0  0  0  0  0
    6.2940    4.8630   16.7530 C   0  0  0  0  0  0  0  0  0  0  0  0
    5.3060    3.9650   16.1360 N   0  0  0  0  0  0  0  0  0  0  0  0
    5.9320    3.1870   15.0490 C   0  0  0  0  0  0  0  0  0  0  0  0
    7.0330    3.4740   13.2230 H   0  0  0  0  0  0  0  0  0  0  0  0
    8.3690    4.6100   14.8340 H   0  0  0  0  0  0  0  0  0  0  0  0
    7.7490    5.8560   13.7590 H   0  0  0  0  0  0  0  0  0  0  0  0
    6.0740    6.5360   15.4040 H   0  0  0  0  0  0  0  0  0  0  0  0
    7.6380    6.4610   16.2040 H   0  0  0  0  0  0  0  0  0  0  0  0
    5.8210    5.4450   17.5520 H   0  0  0  0  0  0  0  0  0  0  0  0
    7.1130    4.2910   17.2090 H   0  0  0  0  0  0  0  0  0  0  0  0
    5.2060    2.5000   14.5980 H   0  0  0  0  0  0  0  0  0  0  0  0
    6.7490    2.5680   15.4450 H   0  0  0  0  0  0  0  0  0  0  0  0
    5.3430    4.7750   13.1580 C   0  0  0  0  0  0  0  0  0  0  0  0
    4.4040    4.2320   13.3030 H   0  0  0  0  0  0  0  0  0  0  0  0
    5.1820    5.8110   13.4710 H   0  0  0  0  0  0  0  0  0  0  0  0
    5.5610    4.7790   12.0850 H   0  0  0  0  0  0  0  0  0  0  0  0
  1  6  1  0  0  0  0
  2  1  2  0  0  0  0
  2  3  1  0  0  0  0
  3  9  1  0  0  0  0
  3  4  2  0  0  0  0
  4  5  1  0  0  0  0
  4  7  1  0  0  0  0
  5 48  1  0  0  0  0
  6 12  1  0  0  0  0
  6  5  2  0  0  0  0
  7 14  1  0  0  0  0
  7 13  1  0  0  0  0
  8 15  1  0  0  0  0
  8  7  1  0  0  0  0
  9  8  1  0  0  0  0
 10  9  2  0  0  0  0
 11  2  1  0  0  0  0
 15 16  1  0  0  0  0
 16 17  2  0  0  0  0
 16 21  1  0  0  0  0
 17 22  1  0  0  0  0
 18 23  1  0  0  0  0
 18 17  1  0  0  0  0
 19 18  2  0  0  0  0
 20 19  1  0  0  0  0
 20 15  2  0  0  0  0
 24 20  1  0  0  0  0
 25 34  1  6  0  0  0
 25 26  1  0  0  0  0
 25 19  1  0  0  0  0
 26 30  1  0  0  0  0
 27 31  1  1  0  0  0
 27 26  1  0  0  0  0
 28 27  1  0  0  0  0
 28 25  1  0  0  0  0
 29 26  1  0  0  0  0
 32 28  1  0  0  0  0
 33 28  1  0  0  0  0
 34 35  2  0  0  0  0
 36 35  1  0  0  0  0
 37 36  2  0  0  0  0
 38 37  1  0  0  0  0
 38 34  1  0  0  0  0
 39 37  1  0  0  0  0
 40 42  1  0  0  0  0
 40 38  1  0  0  0  0
 40 41  1  0  0  0  0
 43 40  1  0  0  0  0
 44 47  1  0  0  0  0
 44 27  1  0  0  0  0
 45 44  1  0  0  0  0
 46 44  1  0  0  0  0
 48 49  1  0  0  0  0
 48 51  1  0  0  0  0
 50 48  1  0  0  0  0
 52 54  1  0  0  0  0
 52  1  1  0  0  0  0
 53 52  1  0  0  0  0
 55 61  1  6  0  0  0
 55 56  1  0  0  0  0
 55 60  1  0  0  0  0
 56 62  1  0  0  0  0
 56 57  1  0  0  0  0
 57 65  1  0  0  0  0
 57 58  1  0  0  0  0
 58 67  1  0  0  0  0
 58 66  1  0  0  0  0
 59 58  1  0  0  0  0
 59 52  1  0  0  0  0
 60 69  1  0  0  0  0
 60 59  1  0  0  0  0
 63 56  1  0  0  0  0
 64 57  1  0  0  0  0
 68 60  1  0  0  0  0
 70 71  1  0  0  0  0
 70 72  1  0  0  0  0
 70 55  1  0  0  0  0
 73 70  1  0  0  0  0
M  END
>  <MODEL>
9

>  <REMARK>
 VINA RESULT:    -8.036      2.858      9.628
 INTER + INTRA:         -12.332
 INTER:                 -11.598
 INTRA:                  -0.734
 UNBOUND:                -0.772
  Name = 
  9 active torsions:
  status: ('A' for Active; 'I' for Inactive)
    1  A    between atoms: C_1  and  C_2
    2  A    between atoms: N_6  and  C_7
    3  A    between atoms: C_7  and  C_8
    4  A    between atoms: C_12  and  C_13
    5  A    between atoms: N_19  and  C_20
    6  A    between atoms: C_24  and  C_25
    7  A    between atoms: C_25  and  C_26
    8  A    between atoms: N_30  and  C_31
    9  A    between atoms: C_33  and  C_34
                            x       y       z     vdW  Elec       q    Type
                         _______ _______ _______ _____ _____    ______ ____

>  <TORSDO>
F 9

$$$$
=
 OpenBabel07192307433D

 73 78  0  0  1  0  0  0  0  0999 V2000
    3.5460    5.6950   17.9530 C   0  0  0  0  0  0  0  0  0  0  0  0
    3.0700    7.0060   18.0930 C   0  0  0  0  0  0  0  0  0  0  0  0
    2.2140    7.2730   19.1460 C   0  0  0  0  0  0  0  0  0  0  0  0
    1.8050    6.3030   20.0530 C   0  0  0  0  0  0  0  0  0  0  0  0
    2.2490    4.9890   19.9330 C   0  0  0  0  0  0  0  0  0  0  0  0
    3.1250    4.7000   18.8690 C   0  0  0  0  0  0  0  0  0  0  0  0
    0.8930    6.9160   21.0630 C   0  0  0  0  0  0  0  0  0  0  0  0
    0.8380    8.3190   20.6730 N   0  0  0  0  0  0  0  0  0  0  0  0
    1.5970    8.5520   19.5200 C   0  0  0  0  0  0  0  0  0  0  0  0
    1.7730    9.5600   18.8630 O   0  0  0  0  0  0  0  0  0  0  0  0
    3.3630    7.8010   17.4130 H   0  0  0  0  0  0  0  0  0  0  0  0
    3.5100    3.6840   18.7470 H   0  0  0  0  0  0  0  0  0  0  0  0
    1.3130    6.8290   22.0710 H   0  0  0  0  0  0  0  0  0  0  0  0
   -0.1070    6.4760   20.9980 H   0  0  0  0  0  0  0  0  0  0  0  0
    0.0860    9.2810   21.4020 C   0  0  0  0  0  0  0  0  0  0  0  0
    0.0640    9.2600   22.8010 C   0  0  0  0  0  0  0  0  0  0  0  0
   -0.6840   10.1930   23.5180 C   0  0  0  0  0  0  0  0  0  0  0  0
   -1.4260   11.1660   22.8490 C   0  0  0  0  0  0  0  0  0  0  0  0
   -1.4380   11.2500   21.4450 C   0  0  0  0  0  0  0  0  0  0  0  0
   -0.6570   10.2840   20.7580 C   0  0  0  0  0  0  0  0  0  0  0  0
    0.6150    8.5180   23.3700 H   0  0  0  0  0  0  0  0  0  0  0  0
   -0.6960   10.1550   24.6050 H   0  0  0  0  0  0  0  0  0  0  0  0
   -2.0030   11.8700   23.4430 H   0  0  0  0  0  0  0  0  0  0  0  0
   -0.6460   10.3600   19.6710 H   0  0  0  0  0  0  0  0  0  0  0  0
   -2.2740   12.3650   20.6310 C   0  0  2  0  0  0  0  0  0  0  0  0
   -1.8960   13.8830   20.7970 C   0  0  0  0  0  0  0  0  0  0  0  0
   -2.9370   13.9670   21.9370 C   0  0  2  0  0  0  0  0  0  0  0  0
   -3.6630   12.7840   21.2540 C   0  0  0  0  0  0  0  0  0  0  0  0
   -2.1390   14.5080   19.9270 H   0  0  0  0  0  0  0  0  0  0  0  0
   -0.8710   14.1180   21.1000 H   0  0  0  0  0  0  0  0  0  0  0  0
   -2.5100   13.6860   22.9100 H   0  0  0  0  0  0  0  0  0  0  0  0
   -4.1280   12.0760   21.9450 H   0  0  0  0  0  0  0  0  0  0  0  0
   -4.4250   13.0930   20.5250 H   0  0  0  0  0  0  0  0  0  0  0  0
   -2.3990   11.9440   19.1110 C   0  0  0  0  0  0  0  0  0  0  0  0
   -3.4540   11.3320   18.6080 N   0  0  0  0  0  0  0  0  0  0  0  0
   -3.2340   11.1340   17.2660 N   0  0  0  0  0  0  0  0  0  0  0  0
   -2.0490   11.6240   16.9830 C   0  0  0  0  0  0  0  0  0  0  0  0
   -1.4810   12.1270   18.1120 N   0  0  0  0  0  0  0  0  0  0  0  0
   -1.5790   11.6270   16.0090 H   0  0  0  0  0  0  0  0  0  0  0  0
   -0.1760   12.7170   18.2040 C   0  0  0  0  0  0  0  0  0  0  0  0
    0.5630   12.0240   17.7970 H   0  0  0  0  0  0  0  0  0  0  0  0
    0.0620   12.9150   19.2520 H   0  0  0  0  0  0  0  0  0  0  0  0
   -0.1750   13.6550   17.6440 H   0  0  0  0  0  0  0  0  0  0  0  0
   -3.7110   15.2660   22.0480 C   0  0  0  0  0  0  0  0  0  0  0  0
   -4.6250   15.1190   22.6300 H   0  0  0  0  0  0  0  0  0  0  0  0
   -3.1100   16.0290   22.5520 H   0  0  0  0  0  0  0  0  0  0  0  0
   -3.9930   15.6550   21.0650 H   0  0  0  0  0  0  0  0  0  0  0  0
    1.8240    3.9310   20.9150 C   0  0  0  0  0  0  0  0  0  0  0  0
    0.4710    3.8210   21.0010 F   0  0  0  0  0  0  0  0  0  0  0  0
    2.2690    4.1380   22.1840 F   0  0  0  0  0  0  0  0  0  0  0  0
    2.2710    2.6920   20.5590 F   0  0  0  0  0  0  0  0  0  0  0  0
    4.4950    5.3400   16.8240 C   0  0  0  0  0  0  0  0  0  0  0  0
    4.2090    5.8560   15.8990 H   0  0  0  0  0  0  0  0  0  0  0  0
    4.3550    4.2670   16.6370 H   0  0  0  0  0  0  0  0  0  0  0  0
    7.6830    5.4740   18.9050 C   0  0  1  0  0  0  0  0  0  0  0  0
    8.1120    6.9090   18.5770 C   0  0  0  0  0  0  0  0  0  0  0  0
    7.6990    7.3210   17.1670 C   0  0  0  0  0  0  0  0  0  0  0  0
    6.2210    7.0280   16.9060 C   0  0  0  0  0  0  0  0  0  0  0  0
    5.9020    5.6160   17.1610 N   0  0  0  0  0  0  0  0  0  0  0  0
    6.1960    5.2730   18.5660 C   0  0  0  0  0  0  0  0  0  0  0  0
    7.8120    5.3200   19.9850 H   0  0  0  0  0  0  0  0  0  0  0  0
    7.6410    7.5930   19.2950 H   0  0  0  0  0  0  0  0  0  0  0  0
    9.1950    7.0260   18.6980 H   0  0  0  0  0  0  0  0  0  0  0  0
    8.3150    6.7930   16.4300 H   0  0  0  0  0  0  0  0  0  0  0  0
    7.8910    8.3910   17.0290 H   0  0  0  0  0  0  0  0  0  0  0  0
    6.0110    7.2740   15.8580 H   0  0  0  0  0  0  0  0  0  0  0  0
    5.5980    7.6890   17.5250 H   0  0  0  0  0  0  0  0  0  0  0  0
    5.9420    4.2250   18.7690 H   0  0  0  0  0  0  0  0  0  0  0  0
    5.5820    5.8830   19.2430 H   0  0  0  0  0  0  0  0  0  0  0  0
    8.5650    4.4440   18.1920 C   0  0  0  0  0  0  0  0  0  0  0  0
    8.7470    4.7480   17.1560 H   0  0  0  0  0  0  0  0  0  0  0  0
    9.5370    4.3180   18.6790 H   0  0  0  0  0  0  0  0  0  0  0  0
    8.0730    3.4660   18.1680 H   0  0  0  0  0  0  0  0  0  0  0  0
  1  2  2  0  0  0  0
  1  6  1  0  0  0  0
  2  3  1  0  0  0  0
  3  9  1  0  0  0  0
  3  4  2  0  0  0  0
  4  7  1  0  0  0  0
  5  4  1  0  0  0  0
  5 48  1  0  0  0  0
  6  5  2  0  0  0  0
  7 13  1  0  0  0  0
  8  7  1  0  0  0  0
  8 15  1  0  0  0  0
  9  8  1  0  0  0  0
 10  9  2  0  0  0  0
 11  2  1  0  0  0  0
 12  6  1  0  0  0  0
 14  7  1  0  0  0  0
 15 16  1  0  0  0  0
 16 21  1  0  0  0  0
 16 17  2  0  0  0  0
 17 22  1  0  0  0  0
 18 23  1  0  0  0  0
 18 17  1  0  0  0  0
 19 18  2  0  0  0  0
 20 15  2  0  0  0  0
 20 19  1  0  0  0  0
 24 20  1  0  0  0  0
 25 34  1  6  0  0  0
 25 26  1  0  0  0  0
 25 28  1  0  0  0  0
 25 19  1  0  0  0  0
 26 30  1  0  0  0  0
 26 27  1  0  0  0  0
 27 44  1  0  0  0  0
 27 31  1  1  0  0  0
 28 27  1  0  0  0  0
 28 32  1  0  0  0  0
 29 26  1  0  0  0  0
 33 28  1  0  0  0  0
 35 34  2  0  0  0  0
 36 35  1  0  0  0  0
 37 36  2  0  0  0  0
 37 38  1  0  0  0  0
 38 40  1  0  0  0  0
 38 34  1  0  0  0  0
 39 37  1  0  0  0  0
 40 42  1  0  0  0  0
 41 40  1  0  0  0  0
 43 40  1  0  0  0  0
 44 46  1  0  0  0  0
 44 45  1  0  0  0  0
 47 44  1  0  0  0  0
 48 49  1  0  0  0  0
 48 50  1  0  0  0  0
 51 48  1  0  0  0  0
 52 59  1  0  0  0  0
 52  1  1  0  0  0  0
 53 52  1  0  0  0  0
 54 52  1  0  0  0  0
 55 61  1  1  0  0  0
 56 63  1  0  0  0  0
 56 55  1  0  0  0  0
 56 62  1  0  0  0  0
 57 56  1  0  0  0  0
 58 59  1  0  0  0  0
 58 57  1  0  0  0  0
 58 67  1  0  0  0  0
 59 60  1  0  0  0  0
 60 68  1  0  0  0  0
 60 55  1  0  0  0  0
 60 69  1  0  0  0  0
 64 57  1  0  0  0  0
 65 57  1  0  0  0  0
 66 58  1  0  0  0  0
 70 72  1  0  0  0  0
 70 55  1  0  0  0  0
 71 70  1  0  0  0  0
 73 70  1  0  0  0  0
M  END
>  <MODEL>
10

>  <REMARK>
 VINA RESULT:    -7.988      2.300      9.968
 INTER + INTRA:         -12.261
 INTER:                 -11.583
 INTRA:                  -0.679
 UNBOUND:                -0.772
  Name = 
  9 active torsions:
  status: ('A' for Active; 'I' for Inactive)
    1  A    between atoms: C_1  and  C_2
    2  A    between atoms: N_6  and  C_7
    3  A    between atoms: C_7  and  C_8
    4  A    between atoms: C_12  and  C_13
    5  A    between atoms: N_19  and  C_20
    6  A    between atoms: C_24  and  C_25
    7  A    between atoms: C_25  and  C_26
    8  A    between atoms: N_30  and  C_31
    9  A    between atoms: C_33  and  C_34
                            x       y       z     vdW  Elec       q    Type
                         _______ _______ _______ _____ _____    ______ ____

>  <TORSDO>
F 9

$$$$
=
 OpenBabel07192307433D

 73 78  0  0  1  0  0  0  0  0999 V2000
   -0.5680   11.5270   21.2300 C   0  0  0  0  0  0  0  0  0  0  0  0
    0.3960   10.5930   21.6330 C   0  0  0  0  0  0  0  0  0  0  0  0
    0.7450    9.5980   20.7380 C   0  0  0  0  0  0  0  0  0  0  0  0
    0.1770    9.4850   19.4740 C   0  0  0  0  0  0  0  0  0  0  0  0
   -0.7920   10.3880   19.0490 C   0  0  0  0  0  0  0  0  0  0  0  0
   -1.1560   11.4110   19.9460 C   0  0  0  0  0  0  0  0  0  0  0  0
    0.7730    8.3150   18.7620 C   0  0  0  0  0  0  0  0  0  0  0  0
    1.7440    7.7900   19.7130 N   0  0  0  0  0  0  0  0  0  0  0  0
    1.7290    8.5210   20.9060 C   0  0  0  0  0  0  0  0  0  0  0  0
    2.3470    8.3800   21.9440 O   0  0  0  0  0  0  0  0  0  0  0  0
    0.8720   10.6410   22.6080 H   0  0  0  0  0  0  0  0  0  0  0  0
   -1.9030   12.1510   19.6470 H   0  0  0  0  0  0  0  0  0  0  0  0
    1.2860    8.6350   17.8490 H   0  0  0  0  0  0  0  0  0  0  0  0
    0.0100    7.5580   18.5590 H   0  0  0  0  0  0  0  0  0  0  0  0
    2.5670    6.6680   19.4160 C   0  0  0  0  0  0  0  0  0  0  0  0
    2.3740    5.4480   20.0730 C   0  0  0  0  0  0  0  0  0  0  0  0
    3.1890    4.3500   19.7960 C   0  0  0  0  0  0  0  0  0  0  0  0
    4.2120    4.4520   18.8550 C   0  0  0  0  0  0  0  0  0  0  0  0
    4.4510    5.6450   18.1500 C   0  0  0  0  0  0  0  0  0  0  0  0
    3.5950    6.7340   18.4600 C   0  0  0  0  0  0  0  0  0  0  0  0
    1.5990    5.3180   20.8220 H   0  0  0  0  0  0  0  0  0  0  0  0
    3.0300    3.4130   20.3240 H   0  0  0  0  0  0  0  0  0  0  0  0
    4.8300    3.5770   18.6720 H   0  0  0  0  0  0  0  0  0  0  0  0
    3.7620    7.6530   17.9000 H   0  0  0  0  0  0  0  0  0  0  0  0
    5.6180    5.8040   17.0460 C   0  0  2  0  0  0  0  0  0  0  0  0
    5.2260    6.0530   15.5430 C   0  0  0  0  0  0  0  0  0  0  0  0
    5.2650    4.5220   15.3310 C   0  0  2  0  0  0  0  0  0  0  0  0
    6.2590    4.4630   16.5140 C   0  0  0  0  0  0  0  0  0  0  0  0
    5.9810    6.6010   14.9630 H   0  0  0  0  0  0  0  0  0  0  0  0
    4.2550    6.5150   15.3440 H   0  0  0  0  0  0  0  0  0  0  0  0
    4.3040    4.0460   15.5710 H   0  0  0  0  0  0  0  0  0  0  0  0
    6.1560    3.5800   17.1500 H   0  0  0  0  0  0  0  0  0  0  0  0
    7.3120    4.5390   16.2120 H   0  0  0  0  0  0  0  0  0  0  0  0
    6.7080    6.8320   17.5560 C   0  0  0  0  0  0  0  0  0  0  0  0
    6.8270    8.0600   17.0880 N   0  0  0  0  0  0  0  0  0  0  0  0
    7.8560    8.6750   17.7600 N   0  0  0  0  0  0  0  0  0  0  0  0
    8.3440    7.8080   18.6170 C   0  0  0  0  0  0  0  0  0  0  0  0
    7.6660    6.6320   18.5120 N   0  0  0  0  0  0  0  0  0  0  0  0
    9.1620    7.9820   19.3010 H   0  0  0  0  0  0  0  0  0  0  0  0
    7.9340    5.4390   19.2640 C   0  0  0  0  0  0  0  0  0  0  0  0
    8.9980    5.3970   19.5080 H   0  0  0  0  0  0  0  0  0  0  0  0
    7.6720    4.5640   18.6650 H   0  0  0  0  0  0  0  0  0  0  0  0
    7.3300    5.4550   20.1740 H   0  0  0  0  0  0  0  0  0  0  0  0
    5.7780    4.0410   13.9880 C   0  0  0  0  0  0  0  0  0  0  0  0
    6.4110    4.8020   13.5240 H   0  0  0  0  0  0  0  0  0  0  0  0
    6.3780    3.1330   14.1090 H   0  0  0  0  0  0  0  0  0  0  0  0
    4.9600    3.8140   13.2990 H   0  0  0  0  0  0  0  0  0  0  0  0
   -1.4050   10.2850   17.6790 C   0  0  0  0  0  0  0  0  0  0  0  0
   -2.6070    9.6470   17.7000 F   0  0  0  0  0  0  0  0  0  0  0  0
   -0.6380    9.6200   16.7730 F   0  0  0  0  0  0  0  0  0  0  0  0
   -1.6510   11.5110   17.1340 F   0  0  0  0  0  0  0  0  0  0  0  0
   -0.9860   12.6490   22.1620 C   0  0  0  0  0  0  0  0  0  0  0  0
   -0.5610   13.6050   21.8350 H   0  0  0  0  0  0  0  0  0  0  0  0
   -0.5270   12.4210   23.1330 H   0  0  0  0  0  0  0  0  0  0  0  0
   -4.4930   14.0940   21.8090 C   0  0  1  0  0  0  0  0  0  0  0  0
   -4.9740   13.8870   23.2500 C   0  0  0  0  0  0  0  0  0  0  0  0
   -4.3510   12.6470   23.8880 C   0  0  0  0  0  0  0  0  0  0  0  0
   -2.8320   12.6300   23.7200 C   0  0  0  0  0  0  0  0  0  0  0  0
   -2.4490   12.7490   22.3050 N   0  0  0  0  0  0  0  0  0  0  0  0
   -2.9580   14.0160   21.7440 C   0  0  0  0  0  0  0  0  0  0  0  0
   -4.7990   15.1000   21.4920 H   0  0  0  0  0  0  0  0  0  0  0  0
   -4.6950   14.7650   23.8470 H   0  0  0  0  0  0  0  0  0  0  0  0
   -6.0670   13.8170   23.2870 H   0  0  0  0  0  0  0  0  0  0  0  0
   -4.7810   11.7440   23.4390 H   0  0  0  0  0  0  0  0  0  0  0  0
   -4.6030   12.6190   24.9540 H   0  0  0  0  0  0  0  0  0  0  0  0
   -2.4600   11.6830   24.1280 H   0  0  0  0  0  0  0  0  0  0  0  0
   -2.3850   13.4380   24.3160 H   0  0  0  0  0  0  0  0  0  0  0  0
   -2.6590   14.1210   20.6940 H   0  0  0  0  0  0  0  0  0  0  0  0
   -2.5260   14.8720   22.2810 H   0  0  0  0  0  0  0  0  0  0  0  0
   -5.1470   13.0960   20.8470 C   0  0  0  0  0  0  0  0  0  0  0  0
   -6.2360   13.1310   20.9420 H   0  0  0  0  0  0  0  0  0  0  0  0
   -4.8960   13.2990   19.8020 H   0  0  0  0  0  0  0  0  0  0  0  0
   -4.8270   12.0740   21.0770 H   0  0  0  0  0  0  0  0  0  0  0  0
  1  2  1  0  0  0  0
  1 52  1  0  0  0  0
  2 11  1  0  0  0  0
  3  9  1  0  0  0  0
  3  2  2  0  0  0  0
  4  3  1  0  0  0  0
  5  4  2  0  0  0  0
  5  6  1  0  0  0  0
  6  1  2  0  0  0  0
  7  4  1  0  0  0  0
  7  8  1  0  0  0  0
  8  9  1  0  0  0  0
  9 10  2  0  0  0  0
 12  6  1  0  0  0  0
 13  7  1  0  0  0  0
 14  7  1  0  0  0  0
 15  8  1  0  0  0  0
 15 16  1  0  0  0  0
 16 21  1  0  0  0  0
 17 16  2  0  0  0  0
 17 22  1  0  0  0  0
 18 17  1  0  0  0  0
 19 20  1  0  0  0  0
 19 18  2  0  0  0  0
 20 15  2  0  0  0  0
 23 18  1  0  0  0  0
 24 20  1  0  0  0  0
 25 34  1  1  0  0  0
 25 19  1  0  0  0  0
 26 25  1  0  0  0  0
 27 26  1  0  0  0  0
 27 31  1  1  0  0  0
 27 28  1  0  0  0  0
 28 25  1  0  0  0  0
 28 32  1  0  0  0  0
 29 26  1  0  0  0  0
 30 26  1  0  0  0  0
 33 28  1  0  0  0  0
 34 38  1  0  0  0  0
 35 34  2  0  0  0  0
 35 36  1  0  0  0  0
 36 37  2  0  0  0  0
 37 39  1  0  0  0  0
 38 37  1  0  0  0  0
 38 40  1  0  0  0  0
 40 41  1  0  0  0  0
 40 43  1  0  0  0  0
 42 40  1  0  0  0  0
 44 46  1  0  0  0  0
 44 27  1  0  0  0  0
 45 44  1  0  0  0  0
 47 44  1  0  0  0  0
 48 49  1  0  0  0  0
 48  5  1  0  0  0  0
 50 48  1  0  0  0  0
 51 48  1  0  0  0  0
 52 59  1  0  0  0  0
 52 54  1  0  0  0  0
 53 52  1  0  0  0  0
 55 61  1  6  0  0  0
 55 56  1  0  0  0  0
 56 63  1  0  0  0  0
 56 62  1  0  0  0  0
 56 57  1  0  0  0  0
 57 65  1  0  0  0  0
 58 57  1  0  0  0  0
 58 66  1  0  0  0  0
 58 67  1  0  0  0  0
 59 58  1  0  0  0  0
 60 55  1  0  0  0  0
 60 69  1  0  0  0  0
 60 59  1  0  0  0  0
 64 57  1  0  0  0  0
 68 60  1  0  0  0  0
 70 71  1  0  0  0  0
 70 73  1  0  0  0  0
 70 55  1  0  0  0  0
 72 70  1  0  0  0  0
M  END
>  <MODEL>
11

>  <REMARK>
 VINA RESULT:    -7.836      2.118      2.643
 INTER + INTRA:         -12.044
 INTER:                 -10.742
 INTRA:                  -1.302
 UNBOUND:                -0.772
  Name = 
  9 active torsions:
  status: ('A' for Active; 'I' for Inactive)
    1  A    between atoms: C_1  and  C_2
    2  A    between atoms: N_6  and  C_7
    3  A    between atoms: C_7  and  C_8
    4  A    between atoms: C_12  and  C_13
    5  A    between atoms: N_19  and  C_20
    6  A    between atoms: C_24  and  C_25
    7  A    between atoms: C_25  and  C_26
    8  A    between atoms: N_30  and  C_31
    9  A    between atoms: C_33  and  C_34
                            x       y       z     vdW  Elec       q    Type
                         _______ _______ _______ _____ _____    ______ ____

>  <TORSDO>
F 9

$$$$
=
 OpenBabel07192307433D

 73 78  0  0  1  0  0  0  0  0999 V2000
   -0.2100   11.8240   19.8390 C   0  0  0  0  0  0  0  0  0  0  0  0
    0.4630   11.0230   18.9070 C   0  0  0  0  0  0  0  0  0  0  0  0
    0.8880    9.7720   19.3170 C   0  0  0  0  0  0  0  0  0  0  0  0
    0.6830    9.2890   20.6040 C   0  0  0  0  0  0  0  0  0  0  0  0
    0.0300   10.0640   21.5570 C   0  0  0  0  0  0  0  0  0  0  0  0
   -0.4140   11.3390   21.1550 C   0  0  0  0  0  0  0  0  0  0  0  0
    1.2540    7.9140   20.7180 C   0  0  0  0  0  0  0  0  0  0  0  0
    1.7750    7.6440   19.3840 N   0  0  0  0  0  0  0  0  0  0  0  0
    1.5910    8.7440   18.5380 C   0  0  0  0  0  0  0  0  0  0  0  0
    1.9170    8.9340   17.3820 O   0  0  0  0  0  0  0  0  0  0  0  0
    0.6440   11.3530   17.8880 H   0  0  0  0  0  0  0  0  0  0  0  0
   -0.9450   11.9760   21.8670 H   0  0  0  0  0  0  0  0  0  0  0  0
    0.4730    7.1860   20.9630 H   0  0  0  0  0  0  0  0  0  0  0  0
    2.0730    7.8950   21.4440 H   0  0  0  0  0  0  0  0  0  0  0  0
    2.3910    6.4080   19.0450 C   0  0  0  0  0  0  0  0  0  0  0  0
    1.6900    5.2030   19.1700 C   0  0  0  0  0  0  0  0  0  0  0  0
    2.2960    3.9880   18.8510 C   0  0  0  0  0  0  0  0  0  0  0  0
    3.6150    3.9550   18.4020 C   0  0  0  0  0  0  0  0  0  0  0  0
    4.3710    5.1300   18.2410 C   0  0  0  0  0  0  0  0  0  0  0  0
    3.7120    6.3430   18.5710 C   0  0  0  0  0  0  0  0  0  0  0  0
    0.6650    5.1730   19.5250 H   0  0  0  0  0  0  0  0  0  0  0  0
    1.7390    3.0610   18.9640 H   0  0  0  0  0  0  0  0  0  0  0  0
    4.0540    2.9870   18.1710 H   0  0  0  0  0  0  0  0  0  0  0  0
    4.2860    7.2570   18.4270 H   0  0  0  0  0  0  0  0  0  0  0  0
    5.8970    5.1370   17.7140 C   0  0  2  0  0  0  0  0  0  0  0  0
    6.9950    4.3600   18.5290 C   0  0  0  0  0  0  0  0  0  0  0  0
    7.2790    5.6700   19.3000 C   0  0  2  0  0  0  0  0  0  0  0  0
    6.7450    6.4230   18.0600 C   0  0  0  0  0  0  0  0  0  0  0  0
    7.8430    4.0080   17.9250 H   0  0  0  0  0  0  0  0  0  0  0  0
    6.6650    3.5270   19.1560 H   0  0  0  0  0  0  0  0  0  0  0  0
    6.6220    5.7880   20.1730 H   0  0  0  0  0  0  0  0  0  0  0  0
    6.1880    7.3360   18.2880 H   0  0  0  0  0  0  0  0  0  0  0  0
    7.5230    6.6780   17.3270 H   0  0  0  0  0  0  0  0  0  0  0  0
    5.9380    4.7850   16.1720 C   0  0  0  0  0  0  0  0  0  0  0  0
    6.4060    3.6470   15.6970 N   0  0  0  0  0  0  0  0  0  0  0  0
    6.2750    3.6690   14.3290 N   0  0  0  0  0  0  0  0  0  0  0  0
    5.7360    4.8210   14.0020 C   0  0  0  0  0  0  0  0  0  0  0  0
    5.5230    5.5610   15.1240 N   0  0  0  0  0  0  0  0  0  0  0  0
    5.5010    5.1500   12.9990 H   0  0  0  0  0  0  0  0  0  0  0  0
    4.9780    6.8890   15.1630 C   0  0  0  0  0  0  0  0  0  0  0  0
    4.4070    7.0710   14.2510 H   0  0  0  0  0  0  0  0  0  0  0  0
    5.7930    7.6150   15.2230 H   0  0  0  0  0  0  0  0  0  0  0  0
    4.3400    6.9790   16.0450 H   0  0  0  0  0  0  0  0  0  0  0  0
    8.7240    5.9280   19.6820 C   0  0  0  0  0  0  0  0  0  0  0  0
    9.1220    5.0920   20.2640 H   0  0  0  0  0  0  0  0  0  0  0  0
    9.3440    6.0390   18.7860 H   0  0  0  0  0  0  0  0  0  0  0  0
    8.8290    6.8380   20.2780 H   0  0  0  0  0  0  0  0  0  0  0  0
   -0.2090    9.5490   22.9500 C   0  0  0  0  0  0  0  0  0  0  0  0
   -0.8820    8.3660   22.9530 F   0  0  0  0  0  0  0  0  0  0  0  0
   -0.9240   10.3940   23.7410 F   0  0  0  0  0  0  0  0  0  0  0  0
    0.9570    9.3090   23.6150 F   0  0  0  0  0  0  0  0  0  0  0  0
   -0.7100   13.2010   19.4470 C   0  0  0  0  0  0  0  0  0  0  0  0
   -0.4790   13.4150   18.3960 H   0  0  0  0  0  0  0  0  0  0  0  0
   -0.1260   13.9150   20.0440 H   0  0  0  0  0  0  0  0  0  0  0  0
   -3.8910   13.9420   21.4080 C   0  0  1  0  0  0  0  0  0  0  0  0
   -4.7440   12.7660   20.9170 C   0  0  0  0  0  0  0  0  0  0  0  0
   -4.3990   12.3700   19.4840 C   0  0  0  0  0  0  0  0  0  0  0  0
   -2.8940   12.1790   19.2980 C   0  0  0  0  0  0  0  0  0  0  0  0
   -2.1480   13.3780   19.7120 N   0  0  0  0  0  0  0  0  0  0  0  0
   -2.4010   13.6700   21.1360 C   0  0  0  0  0  0  0  0  0  0  0  0
   -4.0310   14.0310   22.4930 H   0  0  0  0  0  0  0  0  0  0  0  0
   -4.5680   11.9020   21.5710 H   0  0  0  0  0  0  0  0  0  0  0  0
   -5.8110   13.0040   20.9930 H   0  0  0  0  0  0  0  0  0  0  0  0
   -4.7620   13.1370   18.7890 H   0  0  0  0  0  0  0  0  0  0  0  0
   -4.9210   11.4410   19.2260 H   0  0  0  0  0  0  0  0  0  0  0  0
   -2.7100   11.9740   18.2370 H   0  0  0  0  0  0  0  0  0  0  0  0
   -2.5600   11.2970   19.8610 H   0  0  0  0  0  0  0  0  0  0  0  0
   -1.8330   14.5510   21.4570 H   0  0  0  0  0  0  0  0  0  0  0  0
   -2.0640   12.8320   21.7620 H   0  0  0  0  0  0  0  0  0  0  0  0
   -4.3430   15.2660   20.7820 C   0  0  0  0  0  0  0  0  0  0  0  0
   -4.6020   15.9880   21.5620 H   0  0  0  0  0  0  0  0  0  0  0  0
   -3.5680   15.7170   20.1540 H   0  0  0  0  0  0  0  0  0  0  0  0
   -5.2320   15.1150   20.1610 H   0  0  0  0  0  0  0  0  0  0  0  0
  1  6  1  0  0  0  0
  2  3  1  0  0  0  0
  2  1  2  0  0  0  0
  3  4  2  0  0  0  0
  4  7  1  0  0  0  0
  4  5  1  0  0  0  0
  5 48  1  0  0  0  0
  6  5  2  0  0  0  0
  6 12  1  0  0  0  0
  7 13  1  0  0  0  0
  7 14  1  0  0  0  0
  8  7  1  0  0  0  0
  9  3  1  0  0  0  0
  9  8  1  0  0  0  0
 10  9  2  0  0  0  0
 11  2  1  0  0  0  0
 15 16  1  0  0  0  0
 15  8  1  0  0  0  0
 16 21  1  0  0  0  0
 17 22  1  0  0  0  0
 17 16  2  0  0  0  0
 18 17  1  0  0  0  0
 19 18  2  0  0  0  0
 19 20  1  0  0  0  0
 20 15  2  0  0  0  0
 23 18  1  0  0  0  0
 24 20  1  0  0  0  0
 25 34  1  6  0  0  0
 25 28  1  0  0  0  0
 25 19  1  0  0  0  0
 25 26  1  0  0  0  0
 26 30  1  0  0  0  0
 26 27  1  0  0  0  0
 27 44  1  0  0  0  0
 27 31  1  1  0  0  0
 28 32  1  0  0  0  0
 28 27  1  0  0  0  0
 29 26  1  0  0  0  0
 33 28  1  0  0  0  0
 35 34  2  0  0  0  0
 36 35  1  0  0  0  0
 37 36  2  0  0  0  0
 37 38  1  0  0  0  0
 38 40  1  0  0  0  0
 38 34  1  0  0  0  0
 39 37  1  0  0  0  0
 40 42  1  0  0  0  0
 40 43  1  0  0  0  0
 41 40  1  0  0  0  0
 44 45  1  0  0  0  0
 44 47  1  0  0  0  0
 46 44  1  0  0  0  0
 48 49  1  0  0  0  0
 48 51  1  0  0  0  0
 48 50  1  0  0  0  0
 52 59  1  0  0  0  0
 52  1  1  0  0  0  0
 52 54  1  0  0  0  0
 53 52  1  0  0  0  0
 55 61  1  1  0  0  0
 56 63  1  0  0  0  0
 56 55  1  0  0  0  0
 56 62  1  0  0  0  0
 57 56  1  0  0  0  0
 58 57  1  0  0  0  0
 58 59  1  0  0  0  0
 58 67  1  0  0  0  0
 59 60  1  0  0  0  0
 60 55  1  0  0  0  0
 60 68  1  0  0  0  0
 60 69  1  0  0  0  0
 64 57  1  0  0  0  0
 65 57  1  0  0  0  0
 66 58  1  0  0  0  0
 70 55  1  0  0  0  0
 70 71  1  0  0  0  0
 72 70  1  0  0  0  0
 73 70  1  0  0  0  0
M  END
>  <MODEL>
12

>  <REMARK>
 VINA RESULT:    -7.348      1.396      2.770
 INTER + INTRA:         -11.341
 INTER:                 -10.465
 INTRA:                  -0.877
 UNBOUND:                -0.772
  Name = 
  9 active torsions:
  status: ('A' for Active; 'I' for Inactive)
    1  A    between atoms: C_1  and  C_2
    2  A    between atoms: N_6  and  C_7
    3  A    between atoms: C_7  and  C_8
    4  A    between atoms: C_12  and  C_13
    5  A    between atoms: N_19  and  C_20
    6  A    between atoms: C_24  and  C_25
    7  A    between atoms: C_25  and  C_26
    8  A    between atoms: N_30  and  C_31
    9  A    between atoms: C_33  and  C_34
                            x       y       z     vdW  Elec       q    Type
                         _______ _______ _______ _____ _____    ______ ____

>  <TORSDO>
F 9

$$$$
=
 OpenBabel07192307433D

 73 78  0  0  1  0  0  0  0  0999 V2000
   -3.3970   12.1620   19.6120 C   0  0  0  0  0  0  0  0  0  0  0  0
   -2.1470   11.7420   20.0860 C   0  0  0  0  0  0  0  0  0  0  0  0
   -1.3740   10.9480   19.2580 C   0  0  0  0  0  0  0  0  0  0  0  0
   -1.7890   10.5490   17.9930 C   0  0  0  0  0  0  0  0  0  0  0  0
   -3.0300   10.9380   17.4980 C   0  0  0  0  0  0  0  0  0  0  0  0
   -3.8280   11.7500   18.3260 C   0  0  0  0  0  0  0  0  0  0  0  0
   -0.7270    9.7100   17.3620 C   0  0  0  0  0  0  0  0  0  0  0  0
    0.3340    9.6880   18.3590 N   0  0  0  0  0  0  0  0  0  0  0  0
   -0.0360   10.3970   19.5080 C   0  0  0  0  0  0  0  0  0  0  0  0
    0.5400   10.5780   20.5630 O   0  0  0  0  0  0  0  0  0  0  0  0
   -1.7760   12.0310   21.0660 H   0  0  0  0  0  0  0  0  0  0  0  0
   -4.8030   12.0910   17.9710 H   0  0  0  0  0  0  0  0  0  0  0  0
   -0.3590   10.1740   16.4410 H   0  0  0  0  0  0  0  0  0  0  0  0
   -1.0920    8.6920   17.1890 H   0  0  0  0  0  0  0  0  0  0  0  0
    1.5650    9.0070   18.1440 C   0  0  0  0  0  0  0  0  0  0  0  0
    2.6940    9.6990   17.6930 C   0  0  0  0  0  0  0  0  0  0  0  0
    3.8980    9.0320   17.4670 C   0  0  0  0  0  0  0  0  0  0  0  0
    3.9950    7.6590   17.6890 C   0  0  0  0  0  0  0  0  0  0  0  0
    2.9020    6.9070   18.1550 C   0  0  0  0  0  0  0  0  0  0  0  0
    1.7000    7.6280   18.3760 C   0  0  0  0  0  0  0  0  0  0  0  0
    2.6690   10.7660   17.4950 H   0  0  0  0  0  0  0  0  0  0  0  0
    4.7630    9.5850   17.1070 H   0  0  0  0  0  0  0  0  0  0  0  0
    4.9490    7.1740   17.4940 H   0  0  0  0  0  0  0  0  0  0  0  0
    0.8570    7.0530   18.7580 H   0  0  0  0  0  0  0  0  0  0  0  0
    2.9740    5.3180   18.4340 C   0  0  2  0  0  0  0  0  0  0  0  0
    1.6750    4.4480   18.2610 C   0  0  0  0  0  0  0  0  0  0  0  0
    1.3830    4.6750   19.7620 C   0  0  2  0  0  0  0  0  0  0  0  0
    2.9050    4.8740   19.9470 C   0  0  0  0  0  0  0  0  0  0  0  0
    1.8650    3.3980   18.0000 H   0  0  0  0  0  0  0  0  0  0  0  0
    0.9010    4.8240   17.5850 H   0  0  0  0  0  0  0  0  0  0  0  0
    0.8180    5.6020   19.9390 H   0  0  0  0  0  0  0  0  0  0  0  0
    3.1770    5.6250   20.6950 H   0  0  0  0  0  0  0  0  0  0  0  0
    3.4470    3.9500   20.1850 H   0  0  0  0  0  0  0  0  0  0  0  0
    4.2160    4.6920   17.6790 C   0  0  0  0  0  0  0  0  0  0  0  0
    4.1230    4.0560   16.5270 N   0  0  0  0  0  0  0  0  0  0  0  0
    5.3860    3.6630   16.1530 N   0  0  0  0  0  0  0  0  0  0  0  0
    6.2180    4.0630   17.0870 C   0  0  0  0  0  0  0  0  0  0  0  0
    5.5260    4.6990   18.0720 N   0  0  0  0  0  0  0  0  0  0  0  0
    7.2880    3.9110   17.0920 H   0  0  0  0  0  0  0  0  0  0  0  0
    6.0900    5.2470   19.2730 C   0  0  0  0  0  0  0  0  0  0  0  0
    6.2630    6.3160   19.1360 H   0  0  0  0  0  0  0  0  0  0  0  0
    7.0430    4.7570   19.4850 H   0  0  0  0  0  0  0  0  0  0  0  0
    5.3960    5.0710   20.0980 H   0  0  0  0  0  0  0  0  0  0  0  0
    0.7540    3.5160   20.5090 C   0  0  0  0  0  0  0  0  0  0  0  0
   -0.0850    3.1030   19.9420 H   0  0  0  0  0  0  0  0  0  0  0  0
    1.4840    2.7140   20.6600 H   0  0  0  0  0  0  0  0  0  0  0  0
    0.3820    3.8210   21.4910 H   0  0  0  0  0  0  0  0  0  0  0  0
   -3.4850   10.5230   16.1250 C   0  0  0  0  0  0  0  0  0  0  0  0
   -4.7910   10.8330   15.9000 F   0  0  0  0  0  0  0  0  0  0  0  0
   -3.3640    9.1910   15.8770 F   0  0  0  0  0  0  0  0  0  0  0  0
   -2.7840   11.1540   15.1400 F   0  0  0  0  0  0  0  0  0  0  0  0
   -4.2870   13.0420   20.4690 C   0  0  0  0  0  0  0  0  0  0  0  0
   -5.3270   12.6960   20.4340 H   0  0  0  0  0  0  0  0  0  0  0  0
   -4.2740   14.0340   19.9970 H   0  0  0  0  0  0  0  0  0  0  0  0
   -4.4210   13.6720   24.2230 C   0  0  1  0  0  0  0  0  0  0  0  0
   -3.1270   14.4810   24.3680 C   0  0  0  0  0  0  0  0  0  0  0  0
   -2.0660   14.0470   23.3610 C   0  0  0  0  0  0  0  0  0  0  0  0
   -2.6250   13.9990   21.9380 C   0  0  0  0  0  0  0  0  0  0  0  0
   -3.8160   13.1380   21.8610 N   0  0  0  0  0  0  0  0  0  0  0  0
   -4.8740   13.6500   22.7530 C   0  0  0  0  0  0  0  0  0  0  0  0
   -5.2010   14.1720   24.8140 H   0  0  0  0  0  0  0  0  0  0  0  0
   -3.3520   15.5440   24.2040 H   0  0  0  0  0  0  0  0  0  0  0  0
   -2.7320   14.3990   25.3870 H   0  0  0  0  0  0  0  0  0  0  0  0
   -1.6750   13.0600   23.6360 H   0  0  0  0  0  0  0  0  0  0  0  0
   -1.2200   14.7420   23.3990 H   0  0  0  0  0  0  0  0  0  0  0  0
   -1.8390   13.6070   21.2830 H   0  0  0  0  0  0  0  0  0  0  0  0
   -2.8560   15.0170   21.5970 H   0  0  0  0  0  0  0  0  0  0  0  0
   -5.7720   13.0250   22.6850 H   0  0  0  0  0  0  0  0  0  0  0  0
   -5.1720   14.6630   22.4480 H   0  0  0  0  0  0  0  0  0  0  0  0
   -4.2660   12.2540   24.7840 C   0  0  0  0  0  0  0  0  0  0  0  0
   -5.2370   11.7510   24.8240 H   0  0  0  0  0  0  0  0  0  0  0  0
   -3.5950   11.6380   24.1790 H   0  0  0  0  0  0  0  0  0  0  0  0
   -3.8670   12.2860   25.8030 H   0  0  0  0  0  0  0  0  0  0  0  0
  1  2  1  0  0  0  0
  1 52  1  0  0  0  0
  2 11  1  0  0  0  0
  3  9  1  0  0  0  0
  3  2  2  0  0  0  0
  4  3  1  0  0  0  0
  5  4  2  0  0  0  0
  5  6  1  0  0  0  0
  6  1  2  0  0  0  0
  7  4  1  0  0  0  0
  7  8  1  0  0  0  0
  8  9  1  0  0  0  0
  9 10  2  0  0  0  0
 12  6  1  0  0  0  0
 13  7  1  0  0  0  0
 14  7  1  0  0  0  0
 15  8  1  0  0  0  0
 15 20  1  0  0  0  0
 16 15  2  0  0  0  0
 17 18  2  0  0  0  0
 17 16  1  0  0  0  0
 18 19  1  0  0  0  0
 19 20  2  0  0  0  0
 19 25  1  0  0  0  0
 20 24  1  0  0  0  0
 21 16  1  0  0  0  0
 22 17  1  0  0  0  0
 23 18  1  0  0  0  0
 25 34  1  6  0  0  0
 25 28  1  0  0  0  0
 26 25  1  0  0  0  0
 26 27  1  0  0  0  0
 27 31  1  1  0  0  0
 27 28  1  0  0  0  0
 27 44  1  0  0  0  0
 28 33  1  0  0  0  0
 28 32  1  0  0  0  0
 29 26  1  0  0  0  0
 30 26  1  0  0  0  0
 34 38  1  0  0  0  0
 35 34  2  0  0  0  0
 36 35  1  0  0  0  0
 36 37  2  0  0  0  0
 37 39  1  0  0  0  0
 37 38  1  0  0  0  0
 38 40  1  0  0  0  0
 40 42  1  0  0  0  0
 40 43  1  0  0  0  0
 41 40  1  0  0  0  0
 44 46  1  0  0  0  0
 44 47  1  0  0  0  0
 45 44  1  0  0  0  0
 48  5  1  0  0  0  0
 49 48  1  0  0  0  0
 50 48  1  0  0  0  0
 51 48  1  0  0  0  0
 52 59  1  0  0  0  0
 53 52  1  0  0  0  0
 54 52  1  0  0  0  0
 55 56  1  0  0  0  0
 55 70  1  0  0  0  0
 55 61  1  1  0  0  0
 56 63  1  0  0  0  0
 57 65  1  0  0  0  0
 57 64  1  0  0  0  0
 57 56  1  0  0  0  0
 58 57  1  0  0  0  0
 59 58  1  0  0  0  0
 59 60  1  0  0  0  0
 60 55  1  0  0  0  0
 62 56  1  0  0  0  0
 66 58  1  0  0  0  0
 67 58  1  0  0  0  0
 68 60  1  0  0  0  0
 69 60  1  0  0  0  0
 70 71  1  0  0  0  0
 70 73  1  0  0  0  0
 72 70  1  0  0  0  0
M  END
>  <MODEL>
13

>  <REMARK>
 VINA RESULT:    -7.135      3.185      4.617
 INTER + INTRA:         -11.035
 INTER:                 -10.569
 INTRA:                  -0.466
 UNBOUND:                -0.772
  Name = 
  9 active torsions:
  status: ('A' for Active; 'I' for Inactive)
    1  A    between atoms: C_1  and  C_2
    2  A    between atoms: N_6  and  C_7
    3  A    between atoms: C_7  and  C_8
    4  A    between atoms: C_12  and  C_13
    5  A    between atoms: N_19  and  C_20
    6  A    between atoms: C_24  and  C_25
    7  A    between atoms: C_25  and  C_26
    8  A    between atoms: N_30  and  C_31
    9  A    between atoms: C_33  and  C_34
                            x       y       z     vdW  Elec       q    Type
                         _______ _______ _______ _____ _____    ______ ____

>  <TORSDO>
F 9

$$$$
=
 OpenBabel07192307433D

 73 78  0  0  1  0  0  0  0  0999 V2000
   -1.0420   12.5730   19.9510 C   0  0  0  0  0  0  0  0  0  0  0  0
   -0.9870   11.1910   20.1730 C   0  0  0  0  0  0  0  0  0  0  0  0
    0.1310   10.5080   19.7260 C   0  0  0  0  0  0  0  0  0  0  0  0
    1.1840   11.1320   19.0680 C   0  0  0  0  0  0  0  0  0  0  0  0
    1.1540   12.5010   18.8200 C   0  0  0  0  0  0  0  0  0  0  0  0
    0.0250   13.2120   19.2710 C   0  0  0  0  0  0  0  0  0  0  0  0
    2.2290   10.1210   18.7270 C   0  0  0  0  0  0  0  0  0  0  0  0
    1.6970    8.8780   19.2700 N   0  0  0  0  0  0  0  0  0  0  0  0
    0.4380    9.0770   19.8490 C   0  0  0  0  0  0  0  0  0  0  0  0
   -0.3430    8.3000   20.3640 O   0  0  0  0  0  0  0  0  0  0  0  0
   -1.7810   10.6570   20.6860 H   0  0  0  0  0  0  0  0  0  0  0  0
   -0.0330   14.2920   19.1120 H   0  0  0  0  0  0  0  0  0  0  0  0
    3.1780   10.3620   19.2170 H   0  0  0  0  0  0  0  0  0  0  0  0
    2.3400   10.0320   17.6420 H   0  0  0  0  0  0  0  0  0  0  0  0
    2.4050    7.6480   19.1850 C   0  0  0  0  0  0  0  0  0  0  0  0
    2.0550    6.5650   19.9990 C   0  0  0  0  0  0  0  0  0  0  0  0
    2.7570    5.3610   19.9280 C   0  0  0  0  0  0  0  0  0  0  0  0
    3.8230    5.2180   19.0410 C   0  0  0  0  0  0  0  0  0  0  0  0
    4.2170    6.2630   18.1860 C   0  0  0  0  0  0  0  0  0  0  0  0
    3.4720    7.4660   18.2880 C   0  0  0  0  0  0  0  0  0  0  0  0
    1.2410    6.6270   20.7130 H   0  0  0  0  0  0  0  0  0  0  0  0
    2.4760    4.5340   20.5750 H   0  0  0  0  0  0  0  0  0  0  0  0
    4.3490    4.2670   19.0210 H   0  0  0  0  0  0  0  0  0  0  0  0
    3.7600    8.2700   17.6120 H   0  0  0  0  0  0  0  0  0  0  0  0
    5.4390    6.1370   17.1380 C   0  0  2  0  0  0  0  0  0  0  0  0
    5.1550    6.3160   15.6010 C   0  0  0  0  0  0  0  0  0  0  0  0
    4.9490    4.7870   15.5110 C   0  0  2  0  0  0  0  0  0  0  0  0
    5.8710    4.6690   16.7470 C   0  0  0  0  0  0  0  0  0  0  0  0
    6.0130    6.6840   15.0220 H   0  0  0  0  0  0  0  0  0  0  0  0
    4.2820    6.9100   15.3150 H   0  0  0  0  0  0  0  0  0  0  0  0
    3.9130    4.4940   15.7350 H   0  0  0  0  0  0  0  0  0  0  0  0
    5.5970    3.8720   17.4430 H   0  0  0  0  0  0  0  0  0  0  0  0
    6.9330    4.5480   16.4980 H   0  0  0  0  0  0  0  0  0  0  0  0
    6.6620    7.0150   17.6250 C   0  0  0  0  0  0  0  0  0  0  0  0
    6.9360    8.2120   17.1450 N   0  0  0  0  0  0  0  0  0  0  0  0
    8.0460    8.6910   17.7990 N   0  0  0  0  0  0  0  0  0  0  0  0
    8.4260    7.7740   18.6570 C   0  0  0  0  0  0  0  0  0  0  0  0
    7.5970    6.6970   18.5720 N   0  0  0  0  0  0  0  0  0  0  0  0
    9.2700    7.8430   19.3290 H   0  0  0  0  0  0  0  0  0  0  0  0
    7.7150    5.4850   19.3320 C   0  0  0  0  0  0  0  0  0  0  0  0
    8.6480    5.5040   19.9000 H   0  0  0  0  0  0  0  0  0  0  0  0
    7.7300    4.6290   18.6530 H   0  0  0  0  0  0  0  0  0  0  0  0
    6.8560    5.4070   20.0020 H   0  0  0  0  0  0  0  0  0  0  0  0
    5.4300    4.1160   14.2390 C   0  0  0  0  0  0  0  0  0  0  0  0
    6.5060    3.9300   14.2870 H   0  0  0  0  0  0  0  0  0  0  0  0
    4.9280    3.1540   14.0980 H   0  0  0  0  0  0  0  0  0  0  0  0
    5.2320    4.7320   13.3570 H   0  0  0  0  0  0  0  0  0  0  0  0
    2.2920   13.1910   18.1190 C   0  0  0  0  0  0  0  0  0  0  0  0
    1.9700   14.4580   17.7380 F   0  0  0  0  0  0  0  0  0  0  0  0
    2.7220   12.5550   16.9960 F   0  0  0  0  0  0  0  0  0  0  0  0
    3.3880   13.3180   18.9220 F   0  0  0  0  0  0  0  0  0  0  0  0
   -2.2360   13.3790   20.4250 C   0  0  0  0  0  0  0  0  0  0  0  0
   -3.1600   13.0170   19.9580 H   0  0  0  0  0  0  0  0  0  0  0  0
   -2.0790   14.4000   20.0520 H   0  0  0  0  0  0  0  0  0  0  0  0
   -3.8800   13.7750   23.8390 C   0  0  1  0  0  0  0  0  0  0  0  0
   -2.7760   14.5800   24.5340 C   0  0  0  0  0  0  0  0  0  0  0  0
   -1.3880   14.2140   24.0150 C   0  0  0  0  0  0  0  0  0  0  0  0
   -1.3300   14.2510   22.4870 C   0  0  0  0  0  0  0  0  0  0  0  0
   -2.3640   13.3910   21.8920 N   0  0  0  0  0  0  0  0  0  0  0  0
   -3.7050   13.8410   22.3120 C   0  0  0  0  0  0  0  0  0  0  0  0
   -4.8450   14.2330   24.0940 H   0  0  0  0  0  0  0  0  0  0  0  0
   -2.9470   15.6490   24.3520 H   0  0  0  0  0  0  0  0  0  0  0  0
   -2.8180   14.4370   25.6200 H   0  0  0  0  0  0  0  0  0  0  0  0
   -1.1110   13.2150   24.3700 H   0  0  0  0  0  0  0  0  0  0  0  0
   -0.6490   14.9100   24.4270 H   0  0  0  0  0  0  0  0  0  0  0  0
   -0.3360   13.9050   22.1810 H   0  0  0  0  0  0  0  0  0  0  0  0
   -1.4350   15.2880   22.1380 H   0  0  0  0  0  0  0  0  0  0  0  0
   -4.4830   13.2160   21.8550 H   0  0  0  0  0  0  0  0  0  0  0  0
   -3.8870   14.8690   21.9690 H   0  0  0  0  0  0  0  0  0  0  0  0
   -3.9200   12.3260   24.3360 C   0  0  0  0  0  0  0  0  0  0  0  0
   -3.4390   12.2440   25.3160 H   0  0  0  0  0  0  0  0  0  0  0  0
   -4.9410   11.9450   24.4320 H   0  0  0  0  0  0  0  0  0  0  0  0
   -3.3800   11.6670   23.6470 H   0  0  0  0  0  0  0  0  0  0  0  0
  1  2  1  0  0  0  0
  1 52  1  0  0  0  0
  2 11  1  0  0  0  0
  3  9  1  0  0  0  0
  3  2  2  0  0  0  0
  4  3  1  0  0  0  0
  5  4  2  0  0  0  0
  5  6  1  0  0  0  0
  6  1  2  0  0  0  0
  7  4  1  0  0  0  0
  7 13  1  0  0  0  0
  7  8  1  0  0  0  0
  8  9  1  0  0  0  0
  9 10  2  0  0  0  0
 12  6  1  0  0  0  0
 14  7  1  0  0  0  0
 15  8  1  0  0  0  0
 15 16  1  0  0  0  0
 16 21  1  0  0  0  0
 17 16  2  0  0  0  0
 17 22  1  0  0  0  0
 18 17  1  0  0  0  0
 19 20  1  0  0  0  0
 19 18  2  0  0  0  0
 20 15  2  0  0  0  0
 23 18  1  0  0  0  0
 24 20  1  0  0  0  0
 25 34  1  1  0  0  0
 25 19  1  0  0  0  0
 26 25  1  0  0  0  0
 27 26  1  0  0  0  0
 27 31  1  1  0  0  0
 27 28  1  0  0  0  0
 28 25  1  0  0  0  0
 28 32  1  0  0  0  0
 29 26  1  0  0  0  0
 30 26  1  0  0  0  0
 33 28  1  0  0  0  0
 34 38  1  0  0  0  0
 35 34  2  0  0  0  0
 35 36  1  0  0  0  0
 36 37  2  0  0  0  0
 37 39  1  0  0  0  0
 38 37  1  0  0  0  0
 38 40  1  0  0  0  0
 40 41  1  0  0  0  0
 40 43  1  0  0  0  0
 42 40  1  0  0  0  0
 44 45  1  0  0  0  0
 44 27  1  0  0  0  0
 46 44  1  0  0  0  0
 47 44  1  0  0  0  0
 48  5  1  0  0  0  0
 48 51  1  0  0  0  0
 49 48  1  0  0  0  0
 50 48  1  0  0  0  0
 52 59  1  0  0  0  0
 53 52  1  0  0  0  0
 54 52  1  0  0  0  0
 55 61  1  1  0  0  0
 55 70  1  0  0  0  0
 55 56  1  0  0  0  0
 56 63  1  0  0  0  0
 57 64  1  0  0  0  0
 57 65  1  0  0  0  0
 57 56  1  0  0  0  0
 58 57  1  0  0  0  0
 59 60  1  0  0  0  0
 59 58  1  0  0  0  0
 60 55  1  0  0  0  0
 62 56  1  0  0  0  0
 66 58  1  0  0  0  0
 67 58  1  0  0  0  0
 68 60  1  0  0  0  0
 69 60  1  0  0  0  0
 70 72  1  0  0  0  0
 70 71  1  0  0  0  0
 73 70  1  0  0  0  0
M  END
>  <MODEL>
14

>  <REMARK>
 VINA RESULT:    -7.028      2.517      2.988
 INTER + INTRA:         -10.881
 INTER:                  -9.707
 INTRA:                  -1.174
 UNBOUND:                -0.772
  Name = 
  9 active torsions:
  status: ('A' for Active; 'I' for Inactive)
    1  A    between atoms: C_1  and  C_2
    2  A    between atoms: N_6  and  C_7
    3  A    between atoms: C_7  and  C_8
    4  A    between atoms: C_12  and  C_13
    5  A    between atoms: N_19  and  C_20
    6  A    between atoms: C_24  and  C_25
    7  A    between atoms: C_25  and  C_26
    8  A    between atoms: N_30  and  C_31
    9  A    between atoms: C_33  and  C_34
                            x       y       z     vdW  Elec       q    Type
                         _______ _______ _______ _____ _____    ______ ____

>  <TORSDO>
F 9

$$$$
=
 OpenBabel07192307433D

 73 78  0  0  1  0  0  0  0  0999 V2000
    4.4150    4.3910   18.2060 C   0  0  0  0  0  0  0  0  0  0  0  0
    4.1640    5.7550   18.0080 C   0  0  0  0  0  0  0  0  0  0  0  0
    3.1440    6.3370   18.7400 C   0  0  0  0  0  0  0  0  0  0  0  0
    2.3650    5.6280   19.6460 C   0  0  0  0  0  0  0  0  0  0  0  0
    2.5810    4.2690   19.8550 C   0  0  0  0  0  0  0  0  0  0  0  0
    3.6170    3.6610   19.1210 C   0  0  0  0  0  0  0  0  0  0  0  0
    1.3650    6.5450   20.2690 C   0  0  0  0  0  0  0  0  0  0  0  0
    1.6570    7.8370   19.6650 N   0  0  0  0  0  0  0  0  0  0  0  0
    2.6970    7.7360   18.7330 C   0  0  0  0  0  0  0  0  0  0  0  0
    3.2020    8.5620   17.9970 O   0  0  0  0  0  0  0  0  0  0  0  0
    4.7470    6.3540   17.3150 H   0  0  0  0  0  0  0  0  0  0  0  0
    3.8310    2.5990   19.2660 H   0  0  0  0  0  0  0  0  0  0  0  0
    1.5110    6.6020   21.3530 H   0  0  0  0  0  0  0  0  0  0  0  0
    0.3460    6.2390   20.0100 H   0  0  0  0  0  0  0  0  0  0  0  0
    0.9390    9.0160   20.0070 C   0  0  0  0  0  0  0  0  0  0  0  0
    1.3180    9.7880   21.1120 C   0  0  0  0  0  0  0  0  0  0  0  0
    0.6070   10.9370   21.4590 C   0  0  0  0  0  0  0  0  0  0  0  0
   -0.4970   11.3360   20.7080 C   0  0  0  0  0  0  0  0  0  0  0  0
   -0.9230   10.6130   19.5790 C   0  0  0  0  0  0  0  0  0  0  0  0
   -0.1670    9.4550   19.2600 C   0  0  0  0  0  0  0  0  0  0  0  0
    2.1640    9.5150   21.7350 H   0  0  0  0  0  0  0  0  0  0  0  0
    0.9120   11.5180   22.3260 H   0  0  0  0  0  0  0  0  0  0  0  0
   -1.0290   12.2320   21.0150 H   0  0  0  0  0  0  0  0  0  0  0  0
   -0.4800    8.9060   18.3730 H   0  0  0  0  0  0  0  0  0  0  0  0
   -2.1900   11.0450   18.6760 C   0  0  2  0  0  0  0  0  0  0  0  0
   -3.0310    9.9330   17.9500 C   0  0  0  0  0  0  0  0  0  0  0  0
   -2.1180   10.1160   16.7160 C   0  0  2  0  0  0  0  0  0  0  0  0
   -1.8630   11.5560   17.2190 C   0  0  0  0  0  0  0  0  0  0  0  0
   -4.0800   10.2030   17.7700 H   0  0  0  0  0  0  0  0  0  0  0  0
   -3.0170    8.9270   18.3800 H   0  0  0  0  0  0  0  0  0  0  0  0
   -1.2160    9.4910   16.7710 H   0  0  0  0  0  0  0  0  0  0  0  0
   -0.8490   11.9270   17.0410 H   0  0  0  0  0  0  0  0  0  0  0  0
   -2.5660   12.2970   16.8180 H   0  0  0  0  0  0  0  0  0  0  0  0
   -3.1050   12.0570   19.4780 C   0  0  0  0  0  0  0  0  0  0  0  0
   -4.3650   11.8140   19.7840 N   0  0  0  0  0  0  0  0  0  0  0  0
   -4.8480   12.8890   20.4910 N   0  0  0  0  0  0  0  0  0  0  0  0
   -3.8740   13.7640   20.5960 C   0  0  0  0  0  0  0  0  0  0  0  0
   -2.7670   13.2920   19.9610 N   0  0  0  0  0  0  0  0  0  0  0  0
   -3.9290   14.7190   21.0970 H   0  0  0  0  0  0  0  0  0  0  0  0
   -1.5140   13.9810   19.8340 C   0  0  0  0  0  0  0  0  0  0  0  0
   -0.7850   13.3220   19.3580 H   0  0  0  0  0  0  0  0  0  0  0  0
   -1.1480   14.2570   20.8260 H   0  0  0  0  0  0  0  0  0  0  0  0
   -1.6690   14.8830   19.2370 H   0  0  0  0  0  0  0  0  0  0  0  0
   -2.7820    9.9790   15.3600 C   0  0  0  0  0  0  0  0  0  0  0  0
   -3.1900    8.9720   15.2330 H   0  0  0  0  0  0  0  0  0  0  0  0
   -3.6070   10.6910   15.2620 H   0  0  0  0  0  0  0  0  0  0  0  0
   -2.0780   10.1650   14.5440 H   0  0  0  0  0  0  0  0  0  0  0  0
    1.7530    3.4920   20.8420 C   0  0  0  0  0  0  0  0  0  0  0  0
    2.0630    3.8000   22.1310 F   0  0  0  0  0  0  0  0  0  0  0  0
    1.8790    2.1420   20.7340 F   0  0  0  0  0  0  0  0  0  0  0  0
    0.4200    3.7550   20.7130 F   0  0  0  0  0  0  0  0  0  0  0  0
    5.5260    3.6970   17.4400 C   0  0  0  0  0  0  0  0  0  0  0  0
    5.3160    2.6250   17.3350 H   0  0  0  0  0  0  0  0  0  0  0  0
    6.4220    3.7770   18.0690 H   0  0  0  0  0  0  0  0  0  0  0  0
    6.3280    3.9140   13.7230 C   0  0  1  0  0  0  0  0  0  0  0  0
    7.3490    5.0560   13.7730 C   0  0  0  0  0  0  0  0  0  0  0  0
    7.0440    6.0460   14.8940 C   0  0  0  0  0  0  0  0  0  0  0  0
    6.8250    5.3340   16.2300 C   0  0  0  0  0  0  0  0  0  0  0  0
    5.7750    4.3100   16.1240 N   0  0  0  0  0  0  0  0  0  0  0  0
    6.1510    3.2960   15.1210 C   0  0  0  0  0  0  0  0  0  0  0  0
    6.7220    3.1380   13.0520 H   0  0  0  0  0  0  0  0  0  0  0  0
    8.3480    4.6330   13.9420 H   0  0  0  0  0  0  0  0  0  0  0  0
    7.3900    5.5810   12.8120 H   0  0  0  0  0  0  0  0  0  0  0  0
    6.1530    6.6320   14.6390 H   0  0  0  0  0  0  0  0  0  0  0  0
    7.8720    6.7570   14.9890 H   0  0  0  0  0  0  0  0  0  0  0  0
    6.5350    6.0910   16.9690 H   0  0  0  0  0  0  0  0  0  0  0  0
    7.7710    4.8920   16.5720 H   0  0  0  0  0  0  0  0  0  0  0  0
    5.3810    2.5180   15.0510 H   0  0  0  0  0  0  0  0  0  0  0  0
    7.0810    2.7930   15.4170 H   0  0  0  0  0  0  0  0  0  0  0  0
    4.9890    4.3780   13.1400 C   0  0  0  0  0  0  0  0  0  0  0  0
    5.1370    4.8310   12.1550 H   0  0  0  0  0  0  0  0  0  0  0  0
    4.2760    3.5570   13.0270 H   0  0  0  0  0  0  0  0  0  0  0  0
    4.5300    5.1340   13.7860 H   0  0  0  0  0  0  0  0  0  0  0  0
  1  6  1  0  0  0  0
  2  1  2  0  0  0  0
  2  3  1  0  0  0  0
  3  4  2  0  0  0  0
  4  5  1  0  0  0  0
  4  7  1  0  0  0  0
  5 48  1  0  0  0  0
  6 12  1  0  0  0  0
  6  5  2  0  0  0  0
  7 13  1  0  0  0  0
  8 15  1  0  0  0  0
  8  7  1  0  0  0  0
  9  3  1  0  0  0  0
  9  8  1  0  0  0  0
 10  9  2  0  0  0  0
 11  2  1  0  0  0  0
 14  7  1  0  0  0  0
 15 16  1  0  0  0  0
 16 17  2  0  0  0  0
 16 21  1  0  0  0  0
 17 22  1  0  0  0  0
 18 23  1  0  0  0  0
 18 17  1  0  0  0  0
 19 18  2  0  0  0  0
 20 19  1  0  0  0  0
 20 15  2  0  0  0  0
 24 20  1  0  0  0  0
 25 34  1  1  0  0  0
 25 19  1  0  0  0  0
 26 30  1  0  0  0  0
 26 25  1  0  0  0  0
 27 31  1  1  0  0  0
 27 28  1  0  0  0  0
 27 26  1  0  0  0  0
 28 25  1  0  0  0  0
 29 26  1  0  0  0  0
 32 28  1  0  0  0  0
 33 28  1  0  0  0  0
 34 35  2  0  0  0  0
 34 38  1  0  0  0  0
 35 36  1  0  0  0  0
 36 37  2  0  0  0  0
 37 39  1  0  0  0  0
 38 37  1  0  0  0  0
 40 38  1  0  0  0  0
 40 42  1  0  0  0  0
 41 40  1  0  0  0  0
 43 40  1  0  0  0  0
 44 27  1  0  0  0  0
 45 44  1  0  0  0  0
 46 44  1  0  0  0  0
 47 44  1  0  0  0  0
 48 49  1  0  0  0  0
 50 48  1  0  0  0  0
 51 48  1  0  0  0  0
 52 54  1  0  0  0  0
 52  1  1  0  0  0  0
 53 52  1  0  0  0  0
 55 61  1  6  0  0  0
 55 56  1  0  0  0  0
 55 60  1  0  0  0  0
 56 62  1  0  0  0  0
 56 57  1  0  0  0  0
 57 65  1  0  0  0  0
 57 58  1  0  0  0  0
 58 67  1  0  0  0  0
 58 66  1  0  0  0  0
 59 58  1  0  0  0  0
 59 52  1  0  0  0  0
 60 69  1  0  0  0  0
 60 59  1  0  0  0  0
 63 56  1  0  0  0  0
 64 57  1  0  0  0  0
 68 60  1  0  0  0  0
 70 55  1  0  0  0  0
 70 73  1  0  0  0  0
 71 70  1  0  0  0  0
 72 70  1  0  0  0  0
M  END
>  <MODEL>
15

>  <REMARK>
 VINA RESULT:    -6.595      2.502     10.120
 INTER + INTRA:         -10.258
 INTER:                 -10.242
 INTRA:                  -0.016
 UNBOUND:                -0.772
  Name = 
  9 active torsions:
  status: ('A' for Active; 'I' for Inactive)
    1  A    between atoms: C_1  and  C_2
    2  A    between atoms: N_6  and  C_7
    3  A    between atoms: C_7  and  C_8
    4  A    between atoms: C_12  and  C_13
    5  A    between atoms: N_19  and  C_20
    6  A    between atoms: C_24  and  C_25
    7  A    between atoms: C_25  and  C_26
    8  A    between atoms: N_30  and  C_31
    9  A    between atoms: C_33  and  C_34
                            x       y       z     vdW  Elec       q    Type
                         _______ _______ _______ _____ _____    ______ ____

>  <TORSDO>
F 9

$$$$
