=
 OpenBabel07192307433D

 50 53  0  0  1  0  0  0  0  0999 V2000
    7.7270    6.4590   18.3870 C   0  0  2  0  0  0  0  0  0  0  0  0
    6.5390    6.5750   17.4320 C   0  0  0  0  0  0  0  0  0  0  0  0
    5.8130    5.2430   17.6410 C   0  0  1  0  0  0  0  0  0  0  0  0
    5.9470    4.9640   19.1490 C   0  0  0  0  0  0  0  0  0  0  0  0
    7.0570    5.8910   19.6550 C   0  0  1  0  0  0  0  0  0  0  0  0
    8.4530    5.7250   18.0110 H   0  0  0  0  0  0  0  0  0  0  0  0
    5.8940    7.4200   17.7030 H   0  0  0  0  0  0  0  0  0  0  0  0
    6.8490    6.7020   16.3900 H   0  0  0  0  0  0  0  0  0  0  0  0
    6.3740    4.4640   17.1060 H   0  0  0  0  0  0  0  0  0  0  0  0
    6.1710    3.9070   19.3300 H   0  0  0  0  0  0  0  0  0  0  0  0
    5.0180    5.1940   19.6840 H   0  0  0  0  0  0  0  0  0  0  0  0
    6.6130    6.6880   20.2660 H   0  0  0  0  0  0  0  0  0  0  0  0
    4.3720    5.2800   17.1320 C   0  0  0  0  0  0  0  0  0  0  0  0
    4.3410    5.3880   16.0420 H   0  0  0  0  0  0  0  0  0  0  0  0
    3.8540    4.3430   17.3680 H   0  0  0  0  0  0  0  0  0  0  0  0
    3.5940    6.3670   17.7010 N   0  0  0  0  0  0  0  0  0  0  0  0
    3.6880    7.6810   17.3300 C   0  0  0  0  0  0  0  0  0  0  0  0
    2.7580    8.3360   18.0960 C   0  0  0  0  0  0  0  0  0  0  0  0
    2.0950    7.4560   18.9090 N   0  0  0  0  0  0  0  0  0  0  0  0
    2.6060    6.2660   18.6590 C   0  0  0  0  0  0  0  0  0  0  0  0
    4.3850    8.0320   16.5820 H   0  0  0  0  0  0  0  0  0  0  0  0
    2.5260    9.3940   18.1050 H   0  0  0  0  0  0  0  0  0  0  0  0
    2.1880    5.0210   19.2950 C   0  0  0  0  0  0  0  0  0  0  0  0
    2.3850    4.8320   20.6680 C   0  0  0  0  0  0  0  0  0  0  0  0
    1.9760    3.6460   21.2810 C   0  0  0  0  0  0  0  0  0  0  0  0
    1.3740    2.6430   20.5230 C   0  0  0  0  0  0  0  0  0  0  0  0
    1.1850    2.8190   19.1510 C   0  0  0  0  0  0  0  0  0  0  0  0
    1.5970    4.0030   18.5370 C   0  0  0  0  0  0  0  0  0  0  0  0
    2.8680    5.6050   21.2600 H   0  0  0  0  0  0  0  0  0  0  0  0
    2.1380    3.5010   22.3450 H   0  0  0  0  0  0  0  0  0  0  0  0
    1.0620    1.7160   20.9980 H   0  0  0  0  0  0  0  0  0  0  0  0
    0.7260    2.0310   18.5590 H   0  0  0  0  0  0  0  0  0  0  0  0
    1.4700    4.1250   17.4640 H   0  0  0  0  0  0  0  0  0  0  0  0
    8.4140    7.7250   18.6540 N   0  0  0  0  0  0  0  0  0  0  0  0
    9.4170    7.5970   18.5080 H   0  0  0  0  0  0  0  0  0  0  0  0
    7.9850    8.7890   17.7380 C   0  0  0  0  0  0  0  0  0  0  0  0
    8.3010    8.5760   16.7100 H   0  0  0  0  0  0  0  0  0  0  0  0
    6.8950    8.8960   17.7480 H   0  0  0  0  0  0  0  0  0  0  0  0
    9.2580   12.0960   18.5070 N   0  0  0  0  0  0  0  0  0  0  0  0
    8.4740   11.3430   17.6880 C   0  0  0  0  0  0  0  0  0  0  0  0
    8.6090   10.0640   18.1840 C   0  0  0  0  0  0  0  0  0  0  0  0
    9.4560   10.0920   19.2650 N   0  0  0  0  0  0  0  0  0  0  0  0
    9.8510   11.3460   19.4490 N   0  0  0  0  0  0  0  0  0  0  0  0
    7.9000   11.7540   16.8700 H   0  0  0  0  0  0  0  0  0  0  0  0
    9.4900   13.5140   18.4600 C   0  0  0  0  0  0  0  0  0  0  0  0
    8.5300   14.0380   18.4620 H   0  0  0  0  0  0  0  0  0  0  0  0
   10.0390   13.7470   17.5430 H   0  0  0  0  0  0  0  0  0  0  0  0
   10.0730   13.8000   19.3410 H   0  0  0  0  0  0  0  0  0  0  0  0
    7.9790    5.1730   20.4590 O   0  0  0  0  0  0  0  0  0  0  0  0
    8.4210    5.8210   21.0340 H   0  0  0  0  0  0  0  0  0  0  0  0
  1  6  1  6  0  0  0
  1 34  1  0  0  0  0
  1  5  1  0  0  0  0
  2  3  1  0  0  0  0
  2  7  1  0  0  0  0
  2  1  1  0  0  0  0
  3  9  1  6  0  0  0
  3  4  1  0  0  0  0
  4 10  1  0  0  0  0
  4  5  1  0  0  0  0
  4 11  1  0  0  0  0
  5 12  1  1  0  0  0
  5 49  1  0  0  0  0
  8  2  1  0  0  0  0
 13 15  1  0  0  0  0
 13  3  1  0  0  0  0
 13 16  1  0  0  0  0
 14 13  1  0  0  0  0
 16 20  1  0  0  0  0
 17 16  1  0  0  0  0
 17 18  2  0  0  0  0
 18 22  1  0  0  0  0
 18 19  1  0  0  0  0
 20 19  2  0  0  0  0
 20 23  1  0  0  0  0
 21 17  1  0  0  0  0
 23 24  1  0  0  0  0
 24 29  1  0  0  0  0
 24 25  2  0  0  0  0
 25 30  1  0  0  0  0
 26 31  1  0  0  0  0
 26 25  1  0  0  0  0
 27 26  2  0  0  0  0
 28 27  1  0  0  0  0
 28 23  2  0  0  0  0
 32 27  1  0  0  0  0
 33 28  1  0  0  0  0
 35 34  1  0  0  0  0
 36 38  1  0  0  0  0
 36 41  1  0  0  0  0
 36 34  1  0  0  0  0
 37 36  1  0  0  0  0
 39 43  1  0  0  0  0
 40 41  2  0  0  0  0
 40 39  1  0  0  0  0
 41 42  1  0  0  0  0
 42 43  2  0  0  0  0
 44 40  1  0  0  0  0
 45 46  1  0  0  0  0
 45 39  1  0  0  0  0
 45 48  1  0  0  0  0
 47 45  1  0  0  0  0
 49 50  1  0  0  0  0
M  END
>  <MODEL>
1

>  <REMARK>
 VINA RESULT:    -7.635      0.000      0.000
 INTER + INTRA:         -11.589
 INTER:                 -11.020
 INTRA:                  -0.570
 UNBOUND:                -0.830
  Name = 
  8 active torsions:
  status: ('A' for Active; 'I' for Inactive)
    1  A    between atoms: C_1  and  N_2
    2  A    between atoms: C_4  and  C_5
    3  A    between atoms: C_5  and  N_6
    4  A    between atoms: N_6  and  C_7
    5  A    between atoms: C_9  and  C_10
    6  A    between atoms: C_10  and  N_11
    7  A    between atoms: C_15  and  C_16
    8  A    between atoms: C_23  and  O_24
                            x       y       z     vdW  Elec       q    Type
                         _______ _______ _______ _____ _____    ______ ____

>  <TORSDO>
F 8

$$$$
=
 OpenBabel07192307433D

 50 53  0  0  1  0  0  0  0  0999 V2000
    1.1900   10.2730   18.9010 C   0  0  2  0  0  0  0  0  0  0  0  0
    1.4740    9.2820   17.7740 C   0  0  0  0  0  0  0  0  0  0  0  0
    2.3520    8.2350   18.4650 C   0  0  1  0  0  0  0  0  0  0  0  0
    1.7530    8.1020   19.8770 C   0  0  0  0  0  0  0  0  0  0  0  0
    0.8570    9.3300   20.0750 C   0  0  1  0  0  0  0  0  0  0  0  0
    2.0960   10.8430   19.1500 H   0  0  0  0  0  0  0  0  0  0  0  0
    0.5460    8.8300   17.4000 H   0  0  0  0  0  0  0  0  0  0  0  0
    1.9940    9.7440   16.9290 H   0  0  0  0  0  0  0  0  0  0  0  0
    3.3610    8.6540   18.5680 H   0  0  0  0  0  0  0  0  0  0  0  0
    2.5460    8.0390   20.6310 H   0  0  0  0  0  0  0  0  0  0  0  0
    1.1440    7.1960   19.9720 H   0  0  0  0  0  0  0  0  0  0  0  0
   -0.1960    9.0170   20.0530 H   0  0  0  0  0  0  0  0  0  0  0  0
    2.4160    6.9220   17.6830 C   0  0  0  0  0  0  0  0  0  0  0  0
    1.6200    6.2370   17.9970 H   0  0  0  0  0  0  0  0  0  0  0  0
    2.2700    7.1020   16.6120 H   0  0  0  0  0  0  0  0  0  0  0  0
    3.6800    6.2240   17.8420 N   0  0  0  0  0  0  0  0  0  0  0  0
    4.8920    6.6770   17.3950 C   0  0  0  0  0  0  0  0  0  0  0  0
    5.7970    5.7240   17.7890 C   0  0  0  0  0  0  0  0  0  0  0  0
    5.1710    4.7170   18.4730 N   0  0  0  0  0  0  0  0  0  0  0  0
    3.8900    5.0300   18.5020 C   0  0  0  0  0  0  0  0  0  0  0  0
    5.0090    7.6030   16.8500 H   0  0  0  0  0  0  0  0  0  0  0  0
    6.8660    5.7100   17.6210 H   0  0  0  0  0  0  0  0  0  0  0  0
    2.8450    4.2400   19.1440 C   0  0  0  0  0  0  0  0  0  0  0  0
    2.5890    4.3910   20.5120 C   0  0  0  0  0  0  0  0  0  0  0  0
    1.5830    3.6440   21.1260 C   0  0  0  0  0  0  0  0  0  0  0  0
    0.8320    2.7390   20.3770 C   0  0  0  0  0  0  0  0  0  0  0  0
    1.0890    2.5740   19.0150 C   0  0  0  0  0  0  0  0  0  0  0  0
    2.0980    3.3180   18.4010 C   0  0  0  0  0  0  0  0  0  0  0  0
    3.1820    5.0840   21.1030 H   0  0  0  0  0  0  0  0  0  0  0  0
    1.3930    3.7600   22.1900 H   0  0  0  0  0  0  0  0  0  0  0  0
    0.0530    2.1510   20.8570 H   0  0  0  0  0  0  0  0  0  0  0  0
    0.5110    1.8590   18.4350 H   0  0  0  0  0  0  0  0  0  0  0  0
    2.3100    3.1680   17.3450 H   0  0  0  0  0  0  0  0  0  0  0  0
    0.0950   11.2070   18.6240 N   0  0  0  0  0  0  0  0  0  0  0  0
    0.0500   11.3790   17.6180 H   0  0  0  0  0  0  0  0  0  0  0  0
   -1.2100   10.6610   19.0200 C   0  0  0  0  0  0  0  0  0  0  0  0
   -1.1170    9.6200   19.3520 H   0  0  0  0  0  0  0  0  0  0  0  0
   -1.6450   11.2460   19.8370 H   0  0  0  0  0  0  0  0  0  0  0  0
   -3.1510   10.4690   15.9640 N   0  0  0  0  0  0  0  0  0  0  0  0
   -2.0550   10.0320   16.6420 C   0  0  0  0  0  0  0  0  0  0  0  0
   -2.1120   10.7160   17.8380 C   0  0  0  0  0  0  0  0  0  0  0  0
   -3.2210   11.5260   17.8360 N   0  0  0  0  0  0  0  0  0  0  0  0
   -3.8470   11.3690   16.6770 N   0  0  0  0  0  0  0  0  0  0  0  0
   -1.3650    9.2990   16.2490 H   0  0  0  0  0  0  0  0  0  0  0  0
   -3.5990   10.0840   14.6530 C   0  0  0  0  0  0  0  0  0  0  0  0
   -3.1820    9.1050   14.4020 H   0  0  0  0  0  0  0  0  0  0  0  0
   -3.2520   10.8310   13.9330 H   0  0  0  0  0  0  0  0  0  0  0  0
   -4.6920   10.0340   14.6590 H   0  0  0  0  0  0  0  0  0  0  0  0
    1.1150    9.9400   21.3280 O   0  0  0  0  0  0  0  0  0  0  0  0
    0.2810   10.3400   21.6290 H   0  0  0  0  0  0  0  0  0  0  0  0
  1  6  1  1  0  0  0
  1  5  1  0  0  0  0
  2  3  1  0  0  0  0
  2  1  1  0  0  0  0
  3  9  1  1  0  0  0
  3  4  1  0  0  0  0
  4 11  1  0  0  0  0
  4  5  1  0  0  0  0
  4 10  1  0  0  0  0
  5 12  1  6  0  0  0
  5 49  1  0  0  0  0
  7  2  1  0  0  0  0
  8  2  1  0  0  0  0
 13 16  1  0  0  0  0
 13 14  1  0  0  0  0
 13  3  1  0  0  0  0
 15 13  1  0  0  0  0
 16 20  1  0  0  0  0
 17 18  2  0  0  0  0
 17 16  1  0  0  0  0
 18 19  1  0  0  0  0
 19 20  2  0  0  0  0
 20 23  1  0  0  0  0
 21 17  1  0  0  0  0
 22 18  1  0  0  0  0
 23 24  1  0  0  0  0
 24 29  1  0  0  0  0
 24 25  2  0  0  0  0
 25 30  1  0  0  0  0
 26 31  1  0  0  0  0
 26 25  1  0  0  0  0
 27 26  2  0  0  0  0
 28 27  1  0  0  0  0
 28 23  2  0  0  0  0
 32 27  1  0  0  0  0
 33 28  1  0  0  0  0
 34  1  1  0  0  0  0
 34 36  1  0  0  0  0
 35 34  1  0  0  0  0
 36 37  1  0  0  0  0
 36 38  1  0  0  0  0
 39 40  1  0  0  0  0
 39 43  1  0  0  0  0
 40 41  2  0  0  0  0
 41 36  1  0  0  0  0
 42 41  1  0  0  0  0
 43 42  2  0  0  0  0
 44 40  1  0  0  0  0
 45 48  1  0  0  0  0
 45 39  1  0  0  0  0
 46 45  1  0  0  0  0
 47 45  1  0  0  0  0
 49 50  1  0  0  0  0
M  END
>  <MODEL>
2

>  <REMARK>
 VINA RESULT:    -7.598      4.126      7.418
 INTER + INTRA:         -11.537
 INTER:                 -10.418
 INTRA:                  -1.119
 UNBOUND:                -0.830
  Name = 
  8 active torsions:
  status: ('A' for Active; 'I' for Inactive)
    1  A    between atoms: C_1  and  N_2
    2  A    between atoms: C_4  and  C_5
    3  A    between atoms: C_5  and  N_6
    4  A    between atoms: N_6  and  C_7
    5  A    between atoms: C_9  and  C_10
    6  A    between atoms: C_10  and  N_11
    7  A    between atoms: C_15  and  C_16
    8  A    between atoms: C_23  and  O_24
                            x       y       z     vdW  Elec       q    Type
                         _______ _______ _______ _____ _____    ______ ____

>  <TORSDO>
F 8

$$$$
=
 OpenBabel07192307433D

 50 53  0  0  1  0  0  0  0  0999 V2000
    1.0400    9.1440   19.6320 C   0  0  2  0  0  0  0  0  0  0  0  0
    1.6300    7.9380   20.3620 C   0  0  0  0  0  0  0  0  0  0  0  0
    2.0540    7.0250   19.2070 C   0  0  1  0  0  0  0  0  0  0  0  0
    2.5880    7.9880   18.1310 C   0  0  0  0  0  0  0  0  0  0  0  0
    2.0830    9.3820   18.5210 C   0  0  1  0  0  0  0  0  0  0  0  0
    0.0800    8.8800   19.1670 H   0  0  0  0  0  0  0  0  0  0  0  0
    2.4960    8.2280   20.9700 H   0  0  0  0  0  0  0  0  0  0  0  0
    0.9030    7.4450   21.0140 H   0  0  0  0  0  0  0  0  0  0  0  0
    1.1520    6.5450   18.8070 H   0  0  0  0  0  0  0  0  0  0  0  0
    2.2490    7.6850   17.1350 H   0  0  0  0  0  0  0  0  0  0  0  0
    3.6840    7.9990   18.1100 H   0  0  0  0  0  0  0  0  0  0  0  0
    2.9260    9.9850   18.8840 H   0  0  0  0  0  0  0  0  0  0  0  0
    3.0540    5.9560   19.6480 C   0  0  0  0  0  0  0  0  0  0  0  0
    4.0280    6.4010   19.8870 H   0  0  0  0  0  0  0  0  0  0  0  0
    2.7080    5.4540   20.5590 H   0  0  0  0  0  0  0  0  0  0  0  0
    3.2790    4.9340   18.6410 N   0  0  0  0  0  0  0  0  0  0  0  0
    2.3440    4.0290   18.2150 C   0  0  0  0  0  0  0  0  0  0  0  0
    2.9770    3.2910   17.2480 C   0  0  0  0  0  0  0  0  0  0  0  0
    4.2610    3.7300   17.0660 N   0  0  0  0  0  0  0  0  0  0  0  0
    4.4330    4.7270   17.9130 C   0  0  0  0  0  0  0  0  0  0  0  0
    1.3430    3.9820   18.6210 H   0  0  0  0  0  0  0  0  0  0  0  0
    2.5770    2.4680   16.6690 H   0  0  0  0  0  0  0  0  0  0  0  0
    5.6570    5.5060   18.0560 C   0  0  0  0  0  0  0  0  0  0  0  0
    5.9070    6.5880   17.2030 C   0  0  0  0  0  0  0  0  0  0  0  0
    7.0730    7.3420   17.3440 C   0  0  0  0  0  0  0  0  0  0  0  0
    7.9970    7.0150   18.3370 C   0  0  0  0  0  0  0  0  0  0  0  0
    7.7600    5.9310   19.1840 C   0  0  0  0  0  0  0  0  0  0  0  0
    6.5970    5.1750   19.0400 C   0  0  0  0  0  0  0  0  0  0  0  0
    5.1970    6.8370   16.4180 H   0  0  0  0  0  0  0  0  0  0  0  0
    7.2650    8.1760   16.6740 H   0  0  0  0  0  0  0  0  0  0  0  0
    8.9090    7.5980   18.4430 H   0  0  0  0  0  0  0  0  0  0  0  0
    8.4880    5.6700   19.9490 H   0  0  0  0  0  0  0  0  0  0  0  0
    6.4300    4.3160   19.6860 H   0  0  0  0  0  0  0  0  0  0  0  0
    0.8580   10.3300   20.4730 N   0  0  0  0  0  0  0  0  0  0  0  0
    1.3080   11.1300   20.0240 H   0  0  0  0  0  0  0  0  0  0  0  0
   -0.5590   10.6780   20.6370 C   0  0  0  0  0  0  0  0  0  0  0  0
   -1.1290    9.8310   21.0370 H   0  0  0  0  0  0  0  0  0  0  0  0
   -0.6750   11.5250   21.3220 H   0  0  0  0  0  0  0  0  0  0  0  0
   -2.1600   11.2140   17.4290 N   0  0  0  0  0  0  0  0  0  0  0  0
   -2.0510   10.4130   18.5240 C   0  0  0  0  0  0  0  0  0  0  0  0
   -1.1040   11.0440   19.3020 C   0  0  0  0  0  0  0  0  0  0  0  0
   -0.6840   12.1820   18.6580 N   0  0  0  0  0  0  0  0  0  0  0  0
   -1.3370   12.2720   17.5070 N   0  0  0  0  0  0  0  0  0  0  0  0
   -2.6330    9.5130   18.6640 H   0  0  0  0  0  0  0  0  0  0  0  0
   -3.0130   11.0450   16.2840 C   0  0  0  0  0  0  0  0  0  0  0  0
   -3.6170   11.9460   16.1460 H   0  0  0  0  0  0  0  0  0  0  0  0
   -3.6650   10.1830   16.4590 H   0  0  0  0  0  0  0  0  0  0  0  0
   -2.3850   10.8790   15.4030 H   0  0  0  0  0  0  0  0  0  0  0  0
    1.5150   10.0390   17.4000 O   0  0  0  0  0  0  0  0  0  0  0  0
    1.2130    9.3460   16.7870 H   0  0  0  0  0  0  0  0  0  0  0  0
  1  6  1  6  0  0  0
  1  2  1  0  0  0  0
  1 34  1  0  0  0  0
  2  7  1  0  0  0  0
  2  8  1  0  0  0  0
  3  9  1  6  0  0  0
  3 13  1  0  0  0  0
  3  2  1  0  0  0  0
  4  5  1  0  0  0  0
  4  3  1  0  0  0  0
  5 12  1  1  0  0  0
  5  1  1  0  0  0  0
 10  4  1  0  0  0  0
 11  4  1  0  0  0  0
 13 14  1  0  0  0  0
 13 15  1  0  0  0  0
 16 13  1  0  0  0  0
 17 21  1  0  0  0  0
 17 16  1  0  0  0  0
 18 17  2  0  0  0  0
 19 18  1  0  0  0  0
 19 20  2  0  0  0  0
 20 23  1  0  0  0  0
 20 16  1  0  0  0  0
 22 18  1  0  0  0  0
 23 28  1  0  0  0  0
 24 25  1  0  0  0  0
 24 23  2  0  0  0  0
 25 26  2  0  0  0  0
 26 31  1  0  0  0  0
 26 27  1  0  0  0  0
 27 32  1  0  0  0  0
 28 27  2  0  0  0  0
 28 33  1  0  0  0  0
 29 24  1  0  0  0  0
 30 25  1  0  0  0  0
 34 36  1  0  0  0  0
 35 34  1  0  0  0  0
 36 37  1  0  0  0  0
 36 38  1  0  0  0  0
 39 43  1  0  0  0  0
 39 40  1  0  0  0  0
 40 44  1  0  0  0  0
 40 41  2  0  0  0  0
 41 36  1  0  0  0  0
 42 41  1  0  0  0  0
 43 42  2  0  0  0  0
 45 47  1  0  0  0  0
 45 39  1  0  0  0  0
 46 45  1  0  0  0  0
 48 45  1  0  0  0  0
 49  5  1  0  0  0  0
 50 49  1  0  0  0  0
M  END
>  <MODEL>
3

>  <REMARK>
 VINA RESULT:    -7.518      4.177      7.508
 INTER + INTRA:         -11.424
 INTER:                 -10.154
 INTRA:                  -1.270
 UNBOUND:                -0.830
  Name = 
  8 active torsions:
  status: ('A' for Active; 'I' for Inactive)
    1  A    between atoms: C_1  and  N_2
    2  A    between atoms: C_4  and  C_5
    3  A    between atoms: C_5  and  N_6
    4  A    between atoms: N_6  and  C_7
    5  A    between atoms: C_9  and  C_10
    6  A    between atoms: C_10  and  N_11
    7  A    between atoms: C_15  and  C_16
    8  A    between atoms: C_23  and  O_24
                            x       y       z     vdW  Elec       q    Type
                         _______ _______ _______ _____ _____    ______ ____

>  <TORSDO>
F 8

$$$$
=
 OpenBabel07192307433D

 50 53  0  0  1  0  0  0  0  0999 V2000
    1.2080    8.9050   19.5050 C   0  0  2  0  0  0  0  0  0  0  0  0
    1.8790    7.6940   20.1520 C   0  0  0  0  0  0  0  0  0  0  0  0
    2.3540    6.8900   18.9380 C   0  0  1  0  0  0  0  0  0  0  0  0
    2.8180    7.9550   17.9280 C   0  0  0  0  0  0  0  0  0  0  0  0
    2.2260    9.2840   18.4110 C   0  0  1  0  0  0  0  0  0  0  0  0
    0.2640    8.6120   19.0260 H   0  0  0  0  0  0  0  0  0  0  0  0
    2.7280    7.9980   20.7760 H   0  0  0  0  0  0  0  0  0  0  0  0
    1.1890    7.1130   20.7710 H   0  0  0  0  0  0  0  0  0  0  0  0
    1.4820    6.3800   18.5080 H   0  0  0  0  0  0  0  0  0  0  0  0
    2.4920    7.6980   16.9140 H   0  0  0  0  0  0  0  0  0  0  0  0
    3.9110    8.0380   17.9050 H   0  0  0  0  0  0  0  0  0  0  0  0
    3.0310    9.9140   18.8120 H   0  0  0  0  0  0  0  0  0  0  0  0
    3.4240    5.8600   19.3040 C   0  0  0  0  0  0  0  0  0  0  0  0
    4.3820    6.1020   18.8290 H   0  0  0  0  0  0  0  0  0  0  0  0
    3.6030    5.8560   20.3850 H   0  0  0  0  0  0  0  0  0  0  0  0
    3.0720    4.5070   18.9120 N   0  0  0  0  0  0  0  0  0  0  0  0
    1.9790    3.8160   19.3600 C   0  0  0  0  0  0  0  0  0  0  0  0
    2.0280    2.6090   18.7100 C   0  0  0  0  0  0  0  0  0  0  0  0
    3.1090    2.5550   17.8720 N   0  0  0  0  0  0  0  0  0  0  0  0
    3.7340    3.7100   18.0000 C   0  0  0  0  0  0  0  0  0  0  0  0
    1.2820    4.2210   20.0800 H   0  0  0  0  0  0  0  0  0  0  0  0
    1.3410    1.7760   18.7960 H   0  0  0  0  0  0  0  0  0  0  0  0
    4.9410    4.0970   17.2800 C   0  0  0  0  0  0  0  0  0  0  0  0
    6.1370    4.3130   17.9760 C   0  0  0  0  0  0  0  0  0  0  0  0
    7.2970    4.6740   17.2880 C   0  0  0  0  0  0  0  0  0  0  0  0
    7.2650    4.8250   15.9020 C   0  0  0  0  0  0  0  0  0  0  0  0
    6.0740    4.6230   15.2020 C   0  0  0  0  0  0  0  0  0  0  0  0
    4.9140    4.2670   15.8900 C   0  0  0  0  0  0  0  0  0  0  0  0
    6.1630    4.2110   19.0580 H   0  0  0  0  0  0  0  0  0  0  0  0
    8.2200    4.8470   17.8340 H   0  0  0  0  0  0  0  0  0  0  0  0
    8.1670    5.1130   15.3660 H   0  0  0  0  0  0  0  0  0  0  0  0
    6.0490    4.7530   14.1230 H   0  0  0  0  0  0  0  0  0  0  0  0
    3.9830    4.1350   15.3430 H   0  0  0  0  0  0  0  0  0  0  0  0
    0.9560   10.0180   20.4240 N   0  0  0  0  0  0  0  0  0  0  0  0
    1.3750   10.8680   20.0430 H   0  0  0  0  0  0  0  0  0  0  0  0
   -0.4790   10.2880   20.5840 C   0  0  0  0  0  0  0  0  0  0  0  0
   -1.0240    9.3750   20.8540 H   0  0  0  0  0  0  0  0  0  0  0  0
   -0.6500   11.0350   21.3660 H   0  0  0  0  0  0  0  0  0  0  0  0
   -2.0120   11.1690   17.4190 N   0  0  0  0  0  0  0  0  0  0  0  0
   -1.9040   10.2420   18.4090 C   0  0  0  0  0  0  0  0  0  0  0  0
   -1.0010   10.8000   19.2880 C   0  0  0  0  0  0  0  0  0  0  0  0
   -0.6040   12.0220   18.8040 N   0  0  0  0  0  0  0  0  0  0  0  0
   -1.2290   12.2340   17.6530 N   0  0  0  0  0  0  0  0  0  0  0  0
   -2.4580    9.3140   18.4190 H   0  0  0  0  0  0  0  0  0  0  0  0
   -2.8280   11.1180   16.2370 C   0  0  0  0  0  0  0  0  0  0  0  0
   -3.4940   10.2530   16.2940 H   0  0  0  0  0  0  0  0  0  0  0  0
   -2.1730   11.0260   15.3650 H   0  0  0  0  0  0  0  0  0  0  0  0
   -3.4170   12.0390   16.1790 H   0  0  0  0  0  0  0  0  0  0  0  0
    1.6100    9.9760   17.3380 O   0  0  0  0  0  0  0  0  0  0  0  0
    2.1660    9.8340   16.5510 H   0  0  0  0  0  0  0  0  0  0  0  0
  1  6  1  6  0  0  0
  1  2  1  0  0  0  0
  1 34  1  0  0  0  0
  2  8  1  0  0  0  0
  2  7  1  0  0  0  0
  3  9  1  6  0  0  0
  3 13  1  0  0  0  0
  3  2  1  0  0  0  0
  4  5  1  0  0  0  0
  4  3  1  0  0  0  0
  5 12  1  1  0  0  0
  5  1  1  0  0  0  0
 10  4  1  0  0  0  0
 11  4  1  0  0  0  0
 13 15  1  0  0  0  0
 14 13  1  0  0  0  0
 16 13  1  0  0  0  0
 16 17  1  0  0  0  0
 17 21  1  0  0  0  0
 18 22  1  0  0  0  0
 18 17  2  0  0  0  0
 19 20  2  0  0  0  0
 19 18  1  0  0  0  0
 20 16  1  0  0  0  0
 23 24  1  0  0  0  0
 23 20  1  0  0  0  0
 24 29  1  0  0  0  0
 25 30  1  0  0  0  0
 25 24  2  0  0  0  0
 26 25  1  0  0  0  0
 27 28  1  0  0  0  0
 27 26  2  0  0  0  0
 28 23  2  0  0  0  0
 31 26  1  0  0  0  0
 32 27  1  0  0  0  0
 33 28  1  0  0  0  0
 34 36  1  0  0  0  0
 35 34  1  0  0  0  0
 36 37  1  0  0  0  0
 36 38  1  0  0  0  0
 39 43  1  0  0  0  0
 39 40  1  0  0  0  0
 40 44  1  0  0  0  0
 40 41  2  0  0  0  0
 41 36  1  0  0  0  0
 42 41  1  0  0  0  0
 43 42  2  0  0  0  0
 45 46  1  0  0  0  0
 45 39  1  0  0  0  0
 47 45  1  0  0  0  0
 48 45  1  0  0  0  0
 49  5  1  0  0  0  0
 50 49  1  0  0  0  0
M  END
>  <MODEL>
4

>  <REMARK>
 VINA RESULT:    -7.425      4.624      7.342
 INTER + INTRA:         -11.294
 INTER:                 -10.314
 INTRA:                  -0.980
 UNBOUND:                -0.830
  Name = 
  8 active torsions:
  status: ('A' for Active; 'I' for Inactive)
    1  A    between atoms: C_1  and  N_2
    2  A    between atoms: C_4  and  C_5
    3  A    between atoms: C_5  and  N_6
    4  A    between atoms: N_6  and  C_7
    5  A    between atoms: C_9  and  C_10
    6  A    between atoms: C_10  and  N_11
    7  A    between atoms: C_15  and  C_16
    8  A    between atoms: C_23  and  O_24
                            x       y       z     vdW  Elec       q    Type
                         _______ _______ _______ _____ _____    ______ ____

>  <TORSDO>
F 8

$$$$
=
 OpenBabel07192307433D

 50 53  0  0  1  0  0  0  0  0999 V2000
    1.0280    9.2190   19.6500 C   0  0  2  0  0  0  0  0  0  0  0  0
    1.6260    8.0360   20.4100 C   0  0  0  0  0  0  0  0  0  0  0  0
    1.9890    7.0650   19.2810 C   0  0  1  0  0  0  0  0  0  0  0  0
    2.4950    7.9700   18.1430 C   0  0  0  0  0  0  0  0  0  0  0  0
    2.0300    9.3890   18.4900 C   0  0  1  0  0  0  0  0  0  0  0  0
    0.0460    8.9530   19.2350 H   0  0  0  0  0  0  0  0  0  0  0  0
    2.5210    8.3360   20.9700 H   0  0  0  0  0  0  0  0  0  0  0  0
    0.9180    7.5850   21.1110 H   0  0  0  0  0  0  0  0  0  0  0  0
    1.0630    6.5840   18.9380 H   0  0  0  0  0  0  0  0  0  0  0  0
    2.1120    7.6300   17.1760 H   0  0  0  0  0  0  0  0  0  0  0  0
    3.5900    7.9590   18.0790 H   0  0  0  0  0  0  0  0  0  0  0  0
    2.8970    9.9910   18.7920 H   0  0  0  0  0  0  0  0  0  0  0  0
    2.9880    5.9980   19.7300 C   0  0  0  0  0  0  0  0  0  0  0  0
    3.9690    6.4400   19.9380 H   0  0  0  0  0  0  0  0  0  0  0  0
    2.6550    5.5230   20.6600 H   0  0  0  0  0  0  0  0  0  0  0  0
    3.1820    4.9480   18.7460 N   0  0  0  0  0  0  0  0  0  0  0  0
    2.2330    4.0380   18.3660 C   0  0  0  0  0  0  0  0  0  0  0  0
    2.8390    3.2700   17.4050 C   0  0  0  0  0  0  0  0  0  0  0  0
    4.1200    3.6970   17.1810 N   0  0  0  0  0  0  0  0  0  0  0  0
    4.3170    4.7150   17.9960 C   0  0  0  0  0  0  0  0  0  0  0  0
    1.2420    4.0080   18.7970 H   0  0  0  0  0  0  0  0  0  0  0  0
    2.4210    2.4340   16.8570 H   0  0  0  0  0  0  0  0  0  0  0  0
    5.5490    5.4910   18.0890 C   0  0  0  0  0  0  0  0  0  0  0  0
    6.5050    5.1770   19.0630 C   0  0  0  0  0  0  0  0  0  0  0  0
    7.6900    5.9110   19.1480 C   0  0  0  0  0  0  0  0  0  0  0  0
    7.9210    6.9640   18.2640 C   0  0  0  0  0  0  0  0  0  0  0  0
    6.9670    7.2900   17.2980 C   0  0  0  0  0  0  0  0  0  0  0  0
    5.7810    6.5600   17.2160 C   0  0  0  0  0  0  0  0  0  0  0  0
    6.3230    4.3670   19.7640 H   0  0  0  0  0  0  0  0  0  0  0  0
    8.4250    5.6680   19.9100 H   0  0  0  0  0  0  0  0  0  0  0  0
    8.8410    7.5400   18.3340 H   0  0  0  0  0  0  0  0  0  0  0  0
    7.1440    8.1200   16.6170 H   0  0  0  0  0  0  0  0  0  0  0  0
    5.0310    6.8340   16.4770 H   0  0  0  0  0  0  0  0  0  0  0  0
    0.9000   10.4440   20.4430 N   0  0  0  0  0  0  0  0  0  0  0  0
    0.1880   11.0430   20.0200 H   0  0  0  0  0  0  0  0  0  0  0  0
    0.4600   10.1680   21.8170 C   0  0  0  0  0  0  0  0  0  0  0  0
    0.1910    9.1120   21.9400 H   0  0  0  0  0  0  0  0  0  0  0  0
    1.2520   10.4080   22.5350 H   0  0  0  0  0  0  0  0  0  0  0  0
   -2.4020   12.3770   22.0840 N   0  0  0  0  0  0  0  0  0  0  0  0
   -1.3590   11.9580   21.3160 C   0  0  0  0  0  0  0  0  0  0  0  0
   -0.7330   11.0110   22.0990 C   0  0  0  0  0  0  0  0  0  0  0  0
   -1.4090   10.8980   23.2890 N   0  0  0  0  0  0  0  0  0  0  0  0
   -2.4290   11.7460   23.2690 N   0  0  0  0  0  0  0  0  0  0  0  0
   -1.1630   12.3330   20.3230 H   0  0  0  0  0  0  0  0  0  0  0  0
   -3.4030   13.3590   21.7650 C   0  0  0  0  0  0  0  0  0  0  0  0
   -3.4380   13.5020   20.6820 H   0  0  0  0  0  0  0  0  0  0  0  0
   -3.1370   14.3000   22.2560 H   0  0  0  0  0  0  0  0  0  0  0  0
   -4.3720   12.9980   22.1250 H   0  0  0  0  0  0  0  0  0  0  0  0
    1.4290   10.0060   17.3630 O   0  0  0  0  0  0  0  0  0  0  0  0
    0.7700   10.6370   17.7010 H   0  0  0  0  0  0  0  0  0  0  0  0
  1  6  1  6  0  0  0
  1  2  1  0  0  0  0
  1 34  1  0  0  0  0
  2  7  1  0  0  0  0
  2  8  1  0  0  0  0
  3  9  1  6  0  0  0
  3 13  1  0  0  0  0
  3  2  1  0  0  0  0
  4  5  1  0  0  0  0
  4  3  1  0  0  0  0
  5 12  1  1  0  0  0
  5  1  1  0  0  0  0
 10  4  1  0  0  0  0
 11  4  1  0  0  0  0
 13 14  1  0  0  0  0
 13 15  1  0  0  0  0
 16 13  1  0  0  0  0
 17 16  1  0  0  0  0
 17 21  1  0  0  0  0
 18 17  2  0  0  0  0
 19 18  1  0  0  0  0
 19 20  2  0  0  0  0
 20 23  1  0  0  0  0
 20 16  1  0  0  0  0
 22 18  1  0  0  0  0
 23 24  1  0  0  0  0
 24 25  2  0  0  0  0
 24 29  1  0  0  0  0
 25 30  1  0  0  0  0
 26 31  1  0  0  0  0
 26 25  1  0  0  0  0
 27 26  2  0  0  0  0
 28 27  1  0  0  0  0
 28 23  2  0  0  0  0
 32 27  1  0  0  0  0
 33 28  1  0  0  0  0
 34 36  1  0  0  0  0
 35 34  1  0  0  0  0
 36 37  1  0  0  0  0
 36 41  1  0  0  0  0
 36 38  1  0  0  0  0
 39 43  1  0  0  0  0
 40 39  1  0  0  0  0
 40 41  2  0  0  0  0
 41 42  1  0  0  0  0
 43 42  2  0  0  0  0
 44 40  1  0  0  0  0
 45 39  1  0  0  0  0
 45 48  1  0  0  0  0
 45 47  1  0  0  0  0
 46 45  1  0  0  0  0
 49 50  1  0  0  0  0
 49  5  1  0  0  0  0
M  END
>  <MODEL>
5

>  <REMARK>
 VINA RESULT:    -7.412      4.186      7.684
 INTER + INTRA:         -11.276
 INTER:                 -10.260
 INTRA:                  -1.016
 UNBOUND:                -0.830
  Name = 
  8 active torsions:
  status: ('A' for Active; 'I' for Inactive)
    1  A    between atoms: C_1  and  N_2
    2  A    between atoms: C_4  and  C_5
    3  A    between atoms: C_5  and  N_6
    4  A    between atoms: N_6  and  C_7
    5  A    between atoms: C_9  and  C_10
    6  A    between atoms: C_10  and  N_11
    7  A    between atoms: C_15  and  C_16
    8  A    between atoms: C_23  and  O_24
                            x       y       z     vdW  Elec       q    Type
                         _______ _______ _______ _____ _____    ______ ____

>  <TORSDO>
F 8

$$$$
=
 OpenBabel07192307433D

 50 53  0  0  1  0  0  0  0  0999 V2000
    1.2310    8.8540   19.3880 C   0  0  2  0  0  0  0  0  0  0  0  0
    2.1170    7.7240   19.9090 C   0  0  0  0  0  0  0  0  0  0  0  0
    2.7160    7.1500   18.6210 C   0  0  1  0  0  0  0  0  0  0  0  0
    2.9680    8.3820   17.7320 C   0  0  0  0  0  0  0  0  0  0  0  0
    2.1510    9.5240   18.3480 C   0  0  1  0  0  0  0  0  0  0  0  0
    0.3500    8.4460   18.8730 H   0  0  0  0  0  0  0  0  0  0  0  0
    2.9050    8.1090   20.5690 H   0  0  0  0  0  0  0  0  0  0  0  0
    1.5510    6.9650   20.4580 H   0  0  0  0  0  0  0  0  0  0  0  0
    1.9460    6.5380   18.1330 H   0  0  0  0  0  0  0  0  0  0  0  0
    2.6830    8.1780   16.6950 H   0  0  0  0  0  0  0  0  0  0  0  0
    4.0280    8.6630   17.7270 H   0  0  0  0  0  0  0  0  0  0  0  0
    2.8330   10.2440   18.8190 H   0  0  0  0  0  0  0  0  0  0  0  0
    3.9590    6.3000   18.8850 C   0  0  0  0  0  0  0  0  0  0  0  0
    4.8730    6.9000   18.8030 H   0  0  0  0  0  0  0  0  0  0  0  0
    3.9410    5.8950   19.9040 H   0  0  0  0  0  0  0  0  0  0  0  0
    4.0890    5.1800   17.9700 N   0  0  0  0  0  0  0  0  0  0  0  0
    4.7960    5.1980   16.7980 C   0  0  0  0  0  0  0  0  0  0  0  0
    4.6720    3.9320   16.2860 C   0  0  0  0  0  0  0  0  0  0  0  0
    3.9230    3.1440   17.1190 N   0  0  0  0  0  0  0  0  0  0  0  0
    3.5780    3.9090   18.1370 C   0  0  0  0  0  0  0  0  0  0  0  0
    5.3080    6.0780   16.4340 H   0  0  0  0  0  0  0  0  0  0  0  0
    5.0840    3.5410   15.3640 H   0  0  0  0  0  0  0  0  0  0  0  0
    2.7800    3.4780   19.2790 C   0  0  0  0  0  0  0  0  0  0  0  0
    3.3990    2.8850   20.3860 C   0  0  0  0  0  0  0  0  0  0  0  0
    2.6390    2.4800   21.4850 C   0  0  0  0  0  0  0  0  0  0  0  0
    1.2570    2.6630   21.4810 C   0  0  0  0  0  0  0  0  0  0  0  0
    0.6310    3.2430   20.3760 C   0  0  0  0  0  0  0  0  0  0  0  0
    1.3900    3.6430   19.2750 C   0  0  0  0  0  0  0  0  0  0  0  0
    4.4750    2.7270   20.3880 H   0  0  0  0  0  0  0  0  0  0  0  0
    3.1240    2.0140   22.3390 H   0  0  0  0  0  0  0  0  0  0  0  0
    0.6630    2.3410   22.3330 H   0  0  0  0  0  0  0  0  0  0  0  0
   -0.4490    3.3720   20.3680 H   0  0  0  0  0  0  0  0  0  0  0  0
    0.8940    4.0710   18.4070 H   0  0  0  0  0  0  0  0  0  0  0  0
    0.7910    9.8000   20.4170 N   0  0  0  0  0  0  0  0  0  0  0  0
    1.1440   10.7310   20.1870 H   0  0  0  0  0  0  0  0  0  0  0  0
   -0.6720    9.9050   20.4810 C   0  0  0  0  0  0  0  0  0  0  0  0
   -1.1340    8.9160   20.5890 H   0  0  0  0  0  0  0  0  0  0  0  0
   -0.9810   10.5240   21.3310 H   0  0  0  0  0  0  0  0  0  0  0  0
   -2.0860   11.0570   17.3480 N   0  0  0  0  0  0  0  0  0  0  0  0
   -2.0040   10.0430   18.2520 C   0  0  0  0  0  0  0  0  0  0  0  0
   -1.1470   10.5290   19.2170 C   0  0  0  0  0  0  0  0  0  0  0  0
   -0.7500   11.7950   18.8640 N   0  0  0  0  0  0  0  0  0  0  0  0
   -1.3300   12.1050   17.7110 N   0  0  0  0  0  0  0  0  0  0  0  0
   -2.5430    9.1120   18.1530 H   0  0  0  0  0  0  0  0  0  0  0  0
   -2.8500   11.1050   16.1310 C   0  0  0  0  0  0  0  0  0  0  0  0
   -2.7140   12.0810   15.6570 H   0  0  0  0  0  0  0  0  0  0  0  0
   -3.9060   10.9550   16.3760 H   0  0  0  0  0  0  0  0  0  0  0  0
   -2.4940   10.3140   15.4640 H   0  0  0  0  0  0  0  0  0  0  0  0
    1.4080   10.2010   17.3480 O   0  0  0  0  0  0  0  0  0  0  0  0
    0.4680   10.1010   17.5750 H   0  0  0  0  0  0  0  0  0  0  0  0
  1  6  1  6  0  0  0
  1  2  1  0  0  0  0
  1 34  1  0  0  0  0
  2  8  1  0  0  0  0
  2  7  1  0  0  0  0
  3  9  1  6  0  0  0
  3 13  1  0  0  0  0
  3  2  1  0  0  0  0
  4  5  1  0  0  0  0
  4  3  1  0  0  0  0
  5 12  1  1  0  0  0
  5  1  1  0  0  0  0
 10  4  1  0  0  0  0
 11  4  1  0  0  0  0
 13 15  1  0  0  0  0
 14 13  1  0  0  0  0
 16 20  1  0  0  0  0
 16 13  1  0  0  0  0
 17 16  1  0  0  0  0
 18 17  2  0  0  0  0
 18 19  1  0  0  0  0
 19 20  2  0  0  0  0
 20 23  1  0  0  0  0
 21 17  1  0  0  0  0
 22 18  1  0  0  0  0
 23 24  1  0  0  0  0
 24 29  1  0  0  0  0
 24 25  2  0  0  0  0
 25 30  1  0  0  0  0
 26 25  1  0  0  0  0
 26 31  1  0  0  0  0
 27 26  2  0  0  0  0
 28 23  2  0  0  0  0
 28 27  1  0  0  0  0
 32 27  1  0  0  0  0
 33 28  1  0  0  0  0
 34 36  1  0  0  0  0
 35 34  1  0  0  0  0
 36 37  1  0  0  0  0
 36 38  1  0  0  0  0
 39 43  1  0  0  0  0
 39 40  1  0  0  0  0
 40 41  2  0  0  0  0
 41 36  1  0  0  0  0
 42 41  1  0  0  0  0
 43 42  2  0  0  0  0
 44 40  1  0  0  0  0
 45 47  1  0  0  0  0
 45 39  1  0  0  0  0
 46 45  1  0  0  0  0
 48 45  1  0  0  0  0
 49 50  1  0  0  0  0
 49  5  1  0  0  0  0
M  END
>  <MODEL>
6

>  <REMARK>
 VINA RESULT:    -7.346      4.530      6.802
 INTER + INTRA:         -11.182
 INTER:                  -9.806
 INTRA:                  -1.375
 UNBOUND:                -0.830
  Name = 
  8 active torsions:
  status: ('A' for Active; 'I' for Inactive)
    1  A    between atoms: C_1  and  N_2
    2  A    between atoms: C_4  and  C_5
    3  A    between atoms: C_5  and  N_6
    4  A    between atoms: N_6  and  C_7
    5  A    between atoms: C_9  and  C_10
    6  A    between atoms: C_10  and  N_11
    7  A    between atoms: C_15  and  C_16
    8  A    between atoms: C_23  and  O_24
                            x       y       z     vdW  Elec       q    Type
                         _______ _______ _______ _____ _____    ______ ____

>  <TORSDO>
F 8

$$$$
=
 OpenBabel07192307433D

 50 53  0  0  1  0  0  0  0  0999 V2000
    6.8310    6.6470   16.8870 C   0  0  2  0  0  0  0  0  0  0  0  0
    6.2500    6.1290   18.2020 C   0  0  0  0  0  0  0  0  0  0  0  0
    5.3900    4.9470   17.7430 C   0  0  1  0  0  0  0  0  0  0  0  0
    6.2020    4.3000   16.6060 C   0  0  0  0  0  0  0  0  0  0  0  0
    7.2510    5.3370   16.1900 C   0  0  1  0  0  0  0  0  0  0  0  0
    6.0500    7.1340   16.2860 H   0  0  0  0  0  0  0  0  0  0  0  0
    7.0430    5.7960   18.8820 H   0  0  0  0  0  0  0  0  0  0  0  0
    5.6490    6.8820   18.7200 H   0  0  0  0  0  0  0  0  0  0  0  0
    4.4660    5.3490   17.3070 H   0  0  0  0  0  0  0  0  0  0  0  0
    5.5470    4.0120   15.7760 H   0  0  0  0  0  0  0  0  0  0  0  0
    6.7130    3.3910   16.9450 H   0  0  0  0  0  0  0  0  0  0  0  0
    8.2420    5.0030   16.5240 H   0  0  0  0  0  0  0  0  0  0  0  0
    5.0460    3.9980   18.8910 C   0  0  0  0  0  0  0  0  0  0  0  0
    5.7920    3.1980   18.9790 H   0  0  0  0  0  0  0  0  0  0  0  0
    5.0470    4.5320   19.8480 H   0  0  0  0  0  0  0  0  0  0  0  0
    3.7470    3.3670   18.7410 N   0  0  0  0  0  0  0  0  0  0  0  0
    3.5390    2.0320   18.5230 C   0  0  0  0  0  0  0  0  0  0  0  0
    2.1760    1.8850   18.4800 C   0  0  0  0  0  0  0  0  0  0  0  0
    1.5530    3.0870   18.6790 N   0  0  0  0  0  0  0  0  0  0  0  0
    2.5130    3.9780   18.8390 C   0  0  0  0  0  0  0  0  0  0  0  0
    4.3460    1.3220   18.4150 H   0  0  0  0  0  0  0  0  0  0  0  0
    1.6080    0.9770   18.3200 H   0  0  0  0  0  0  0  0  0  0  0  0
    2.3070    5.4000   19.0920 C   0  0  0  0  0  0  0  0  0  0  0  0
    1.9690    5.8440   20.3760 C   0  0  0  0  0  0  0  0  0  0  0  0
    1.7810    7.2050   20.6230 C   0  0  0  0  0  0  0  0  0  0  0  0
    1.9270    8.1270   19.5880 C   0  0  0  0  0  0  0  0  0  0  0  0
    2.2530    7.6910   18.3020 C   0  0  0  0  0  0  0  0  0  0  0  0
    2.4360    6.3300   18.0540 C   0  0  0  0  0  0  0  0  0  0  0  0
    1.8400    5.1280   21.1830 H   0  0  0  0  0  0  0  0  0  0  0  0
    1.5110    7.5440   21.6200 H   0  0  0  0  0  0  0  0  0  0  0  0
    1.7740    9.1870   19.7780 H   0  0  0  0  0  0  0  0  0  0  0  0
    2.3530    8.4100   17.4930 H   0  0  0  0  0  0  0  0  0  0  0  0
    2.6650    5.9940   17.0450 H   0  0  0  0  0  0  0  0  0  0  0  0
    7.9600    7.5660   17.0450 N   0  0  0  0  0  0  0  0  0  0  0  0
    7.7610    8.4300   16.5370 H   0  0  0  0  0  0  0  0  0  0  0  0
    8.1740    7.9400   18.4490 C   0  0  0  0  0  0  0  0  0  0  0  0
    7.2540    7.8230   19.0330 H   0  0  0  0  0  0  0  0  0  0  0  0
    8.9520    7.3170   18.9040 H   0  0  0  0  0  0  0  0  0  0  0  0
    8.9560   11.4700   18.1770 N   0  0  0  0  0  0  0  0  0  0  0  0
    8.3280   10.4000   17.6180 C   0  0  0  0  0  0  0  0  0  0  0  0
    8.5990    9.3660   18.4890 C   0  0  0  0  0  0  0  0  0  0  0  0
    9.3670    9.8430   19.5230 N   0  0  0  0  0  0  0  0  0  0  0  0
    9.5830   11.1350   19.3160 N   0  0  0  0  0  0  0  0  0  0  0  0
    7.7580   10.4560   16.7020 H   0  0  0  0  0  0  0  0  0  0  0  0
    9.0040   12.8240   17.6970 C   0  0  0  0  0  0  0  0  0  0  0  0
    8.4280   12.9010   16.7710 H   0  0  0  0  0  0  0  0  0  0  0  0
   10.0480   13.0900   17.5080 H   0  0  0  0  0  0  0  0  0  0  0  0
    8.5730   13.4800   18.4600 H   0  0  0  0  0  0  0  0  0  0  0  0
    7.2800    5.4780   14.7790 O   0  0  0  0  0  0  0  0  0  0  0  0
    6.5090    5.0000   14.4290 H   0  0  0  0  0  0  0  0  0  0  0  0
  1  6  1  6  0  0  0
  1 34  1  0  0  0  0
  1  2  1  0  0  0  0
  2  8  1  0  0  0  0
  2  7  1  0  0  0  0
  3  9  1  6  0  0  0
  3  2  1  0  0  0  0
  3 13  1  0  0  0  0
  4 11  1  0  0  0  0
  4  3  1  0  0  0  0
  5 12  1  1  0  0  0
  5  4  1  0  0  0  0
  5  1  1  0  0  0  0
 10  4  1  0  0  0  0
 13 14  1  0  0  0  0
 13 15  1  0  0  0  0
 16 20  1  0  0  0  0
 16 13  1  0  0  0  0
 17 16  1  0  0  0  0
 18 17  2  0  0  0  0
 18 19  1  0  0  0  0
 19 20  2  0  0  0  0
 20 23  1  0  0  0  0
 21 17  1  0  0  0  0
 22 18  1  0  0  0  0
 23 24  1  0  0  0  0
 24 25  2  0  0  0  0
 24 29  1  0  0  0  0
 25 30  1  0  0  0  0
 26 31  1  0  0  0  0
 26 25  1  0  0  0  0
 27 26  2  0  0  0  0
 28 27  1  0  0  0  0
 28 23  2  0  0  0  0
 32 27  1  0  0  0  0
 33 28  1  0  0  0  0
 34 36  1  0  0  0  0
 35 34  1  0  0  0  0
 36 41  1  0  0  0  0
 36 38  1  0  0  0  0
 36 37  1  0  0  0  0
 39 43  1  0  0  0  0
 40 39  1  0  0  0  0
 40 41  2  0  0  0  0
 41 42  1  0  0  0  0
 43 42  2  0  0  0  0
 44 40  1  0  0  0  0
 45 39  1  0  0  0  0
 45 48  1  0  0  0  0
 46 45  1  0  0  0  0
 47 45  1  0  0  0  0
 49  5  1  0  0  0  0
 50 49  1  0  0  0  0
M  END
>  <MODEL>
7

>  <REMARK>
 VINA RESULT:    -7.282      1.952      3.147
 INTER + INTRA:         -11.093
 INTER:                 -10.210
 INTRA:                  -0.883
 UNBOUND:                -0.830
  Name = 
  8 active torsions:
  status: ('A' for Active; 'I' for Inactive)
    1  A    between atoms: C_1  and  N_2
    2  A    between atoms: C_4  and  C_5
    3  A    between atoms: C_5  and  N_6
    4  A    between atoms: N_6  and  C_7
    5  A    between atoms: C_9  and  C_10
    6  A    between atoms: C_10  and  N_11
    7  A    between atoms: C_15  and  C_16
    8  A    between atoms: C_23  and  O_24
                            x       y       z     vdW  Elec       q    Type
                         _______ _______ _______ _____ _____    ______ ____

>  <TORSDO>
F 8

$$$$
=
 OpenBabel07192307433D

 50 53  0  0  1  0  0  0  0  0999 V2000
    1.0190    8.9000   19.9150 C   0  0  2  0  0  0  0  0  0  0  0  0
    1.7130    7.7010   20.5600 C   0  0  0  0  0  0  0  0  0  0  0  0
    2.0230    6.8080   19.3540 C   0  0  1  0  0  0  0  0  0  0  0  0
    2.4130    7.7920   18.2370 C   0  0  0  0  0  0  0  0  0  0  0  0
    1.9260    9.1710   18.6970 C   0  0  1  0  0  0  0  0  0  0  0  0
    0.0190    8.6200   19.5570 H   0  0  0  0  0  0  0  0  0  0  0  0
    2.6350    8.0040   21.0700 H   0  0  0  0  0  0  0  0  0  0  0  0
    1.0740    7.1860   21.2840 H   0  0  0  0  0  0  0  0  0  0  0  0
    1.0910    6.3110   19.0520 H   0  0  0  0  0  0  0  0  0  0  0  0
    1.9700    7.4910   17.2810 H   0  0  0  0  0  0  0  0  0  0  0  0
    3.4990    7.8270   18.0930 H   0  0  0  0  0  0  0  0  0  0  0  0
    2.7920    9.7890   18.9700 H   0  0  0  0  0  0  0  0  0  0  0  0
    3.0890    5.7570   19.6680 C   0  0  0  0  0  0  0  0  0  0  0  0
    4.0480    6.2290   19.9120 H   0  0  0  0  0  0  0  0  0  0  0  0
    2.8010    5.1630   20.5430 H   0  0  0  0  0  0  0  0  0  0  0  0
    3.3220    4.8360   18.5700 N   0  0  0  0  0  0  0  0  0  0  0  0
    2.4060    3.9450   18.0800 C   0  0  0  0  0  0  0  0  0  0  0  0
    3.0410    3.3150   17.0400 C   0  0  0  0  0  0  0  0  0  0  0  0
    4.3080    3.8070   16.8780 N   0  0  0  0  0  0  0  0  0  0  0  0
    4.4680    4.7300   17.8070 C   0  0  0  0  0  0  0  0  0  0  0  0
    1.4150    3.8320   18.4970 H   0  0  0  0  0  0  0  0  0  0  0  0
    2.6540    2.5350   16.3960 H   0  0  0  0  0  0  0  0  0  0  0  0
    5.6720    5.5290   18.0000 C   0  0  0  0  0  0  0  0  0  0  0  0
    6.6040    5.1720   18.9820 C   0  0  0  0  0  0  0  0  0  0  0  0
    7.7630    5.9290   19.1620 C   0  0  0  0  0  0  0  0  0  0  0  0
    7.9930    7.0490   18.3640 C   0  0  0  0  0  0  0  0  0  0  0  0
    7.0630    7.4190   17.3900 C   0  0  0  0  0  0  0  0  0  0  0  0
    5.9020    6.6640   17.2130 C   0  0  0  0  0  0  0  0  0  0  0  0
    6.4220    4.3080   19.6170 H   0  0  0  0  0  0  0  0  0  0  0  0
    8.4790    5.6520   19.9310 H   0  0  0  0  0  0  0  0  0  0  0  0
    8.8920    7.6440   18.5080 H   0  0  0  0  0  0  0  0  0  0  0  0
    7.2380    8.3000   16.7770 H   0  0  0  0  0  0  0  0  0  0  0  0
    5.1690    6.9710   16.4700 H   0  0  0  0  0  0  0  0  0  0  0  0
    0.9080   10.0740   20.7840 N   0  0  0  0  0  0  0  0  0  0  0  0
    1.5340   10.8050   20.4400 H   0  0  0  0  0  0  0  0  0  0  0  0
   -0.4470   10.6390   20.7790 C   0  0  0  0  0  0  0  0  0  0  0  0
   -1.1670    9.9320   20.3490 H   0  0  0  0  0  0  0  0  0  0  0  0
   -0.7710   10.8840   21.7960 H   0  0  0  0  0  0  0  0  0  0  0  0
   -0.2220   13.8590   19.1290 N   0  0  0  0  0  0  0  0  0  0  0  0
   -0.0450   13.1600   20.2830 C   0  0  0  0  0  0  0  0  0  0  0  0
   -0.4300   11.8770   19.9540 C   0  0  0  0  0  0  0  0  0  0  0  0
   -0.8180   11.8510   18.6370 N   0  0  0  0  0  0  0  0  0  0  0  0
   -0.6900   13.0760   18.1430 N   0  0  0  0  0  0  0  0  0  0  0  0
    0.3330   13.6000   21.1940 H   0  0  0  0  0  0  0  0  0  0  0  0
    0.0300   15.2530   18.8860 C   0  0  0  0  0  0  0  0  0  0  0  0
   -0.7690   15.8490   19.3360 H   0  0  0  0  0  0  0  0  0  0  0  0
    0.0530   15.4200   17.8050 H   0  0  0  0  0  0  0  0  0  0  0  0
    0.9910   15.5180   19.3360 H   0  0  0  0  0  0  0  0  0  0  0  0
    1.2220    9.8250   17.6540 O   0  0  0  0  0  0  0  0  0  0  0  0
    0.4640   10.2780   18.0620 H   0  0  0  0  0  0  0  0  0  0  0  0
  1  6  1  6  0  0  0
  1  2  1  0  0  0  0
  1 34  1  0  0  0  0
  2  7  1  0  0  0  0
  2  8  1  0  0  0  0
  3  9  1  6  0  0  0
  3 13  1  0  0  0  0
  3  2  1  0  0  0  0
  4  5  1  0  0  0  0
  4  3  1  0  0  0  0
  5 12  1  1  0  0  0
  5  1  1  0  0  0  0
 10  4  1  0  0  0  0
 11  4  1  0  0  0  0
 13 14  1  0  0  0  0
 13 15  1  0  0  0  0
 16 13  1  0  0  0  0
 17 21  1  0  0  0  0
 17 16  1  0  0  0  0
 18 17  2  0  0  0  0
 19 18  1  0  0  0  0
 19 20  2  0  0  0  0
 20 23  1  0  0  0  0
 20 16  1  0  0  0  0
 22 18  1  0  0  0  0
 23 24  1  0  0  0  0
 24 25  2  0  0  0  0
 24 29  1  0  0  0  0
 25 30  1  0  0  0  0
 26 31  1  0  0  0  0
 26 25  1  0  0  0  0
 27 26  2  0  0  0  0
 28 27  1  0  0  0  0
 28 23  2  0  0  0  0
 32 27  1  0  0  0  0
 33 28  1  0  0  0  0
 35 34  1  0  0  0  0
 36 34  1  0  0  0  0
 36 38  1  0  0  0  0
 37 36  1  0  0  0  0
 39 40  1  0  0  0  0
 40 44  1  0  0  0  0
 41 40  2  0  0  0  0
 41 36  1  0  0  0  0
 42 41  1  0  0  0  0
 43 42  2  0  0  0  0
 43 39  1  0  0  0  0
 45 39  1  0  0  0  0
 45 46  1  0  0  0  0
 45 48  1  0  0  0  0
 47 45  1  0  0  0  0
 49 50  1  0  0  0  0
 49  5  1  0  0  0  0
M  END
>  <MODEL>
8

>  <REMARK>
 VINA RESULT:    -7.276      4.187      7.040
 INTER + INTRA:         -11.083
 INTER:                  -9.763
 INTRA:                  -1.320
 UNBOUND:                -0.830
  Name = 
  8 active torsions:
  status: ('A' for Active; 'I' for Inactive)
    1  A    between atoms: C_1  and  N_2
    2  A    between atoms: C_4  and  C_5
    3  A    between atoms: C_5  and  N_6
    4  A    between atoms: N_6  and  C_7
    5  A    between atoms: C_9  and  C_10
    6  A    between atoms: C_10  and  N_11
    7  A    between atoms: C_15  and  C_16
    8  A    between atoms: C_23  and  O_24
                            x       y       z     vdW  Elec       q    Type
                         _______ _______ _______ _____ _____    ______ ____

>  <TORSDO>
F 8

$$$$
=
 OpenBabel07192307433D

 50 53  0  0  1  0  0  0  0  0999 V2000
    1.3720    8.7040   19.3860 C   0  0  2  0  0  0  0  0  0  0  0  0
    1.9750    7.5750   20.2210 C   0  0  0  0  0  0  0  0  0  0  0  0
    2.4100    6.5670   19.1530 C   0  0  1  0  0  0  0  0  0  0  0  0
    2.9340    7.4360   17.9950 C   0  0  0  0  0  0  0  0  0  0  0  0
    2.4130    8.8530   18.2590 C   0  0  1  0  0  0  0  0  0  0  0  0
    0.4150    8.3890   18.9470 H   0  0  0  0  0  0  0  0  0  0  0  0
    2.8370    7.9270   20.8010 H   0  0  0  0  0  0  0  0  0  0  0  0
    1.2520    7.1340   20.9150 H   0  0  0  0  0  0  0  0  0  0  0  0
    1.5130    6.0420   18.7970 H   0  0  0  0  0  0  0  0  0  0  0  0
    2.5990    7.0410   17.0300 H   0  0  0  0  0  0  0  0  0  0  0  0
    4.0300    7.4570   17.9730 H   0  0  0  0  0  0  0  0  0  0  0  0
    3.2490    9.4950   18.5660 H   0  0  0  0  0  0  0  0  0  0  0  0
    3.4210    5.5530   19.6870 C   0  0  0  0  0  0  0  0  0  0  0  0
    4.4400    5.8100   19.3740 H   0  0  0  0  0  0  0  0  0  0  0  0
    3.4230    5.5490   20.7830 H   0  0  0  0  0  0  0  0  0  0  0  0
    3.1580    4.1950   19.2440 N   0  0  0  0  0  0  0  0  0  0  0  0
    2.1810    3.3780   19.7450 C   0  0  0  0  0  0  0  0  0  0  0  0
    2.2770    2.2190   19.0170 C   0  0  0  0  0  0  0  0  0  0  0  0
    3.2730    2.3150   18.0830 N   0  0  0  0  0  0  0  0  0  0  0  0
    3.7990    3.5170   18.2270 C   0  0  0  0  0  0  0  0  0  0  0  0
    1.5230    3.6740   20.5500 H   0  0  0  0  0  0  0  0  0  0  0  0
    1.6800    1.3210   19.1130 H   0  0  0  0  0  0  0  0  0  0  0  0
    4.8910    4.0580   17.4250 C   0  0  0  0  0  0  0  0  0  0  0  0
    6.1360    4.3090   18.0130 C   0  0  0  0  0  0  0  0  0  0  0  0
    7.1870    4.8170   17.2460 C   0  0  0  0  0  0  0  0  0  0  0  0
    6.9950    5.0800   15.8900 C   0  0  0  0  0  0  0  0  0  0  0  0
    5.7520    4.8430   15.3000 C   0  0  0  0  0  0  0  0  0  0  0  0
    4.7010    4.3400   16.0670 C   0  0  0  0  0  0  0  0  0  0  0  0
    6.2870    4.1200   19.0730 H   0  0  0  0  0  0  0  0  0  0  0  0
    8.1490    5.0180   17.7090 H   0  0  0  0  0  0  0  0  0  0  0  0
    7.8100    5.4830   15.2940 H   0  0  0  0  0  0  0  0  0  0  0  0
    5.6000    5.0610   14.2460 H   0  0  0  0  0  0  0  0  0  0  0  0
    3.7280    4.1800   15.6080 H   0  0  0  0  0  0  0  0  0  0  0  0
    1.1760    9.9580   20.1180 N   0  0  0  0  0  0  0  0  0  0  0  0
    0.3930   10.4670   19.7040 H   0  0  0  0  0  0  0  0  0  0  0  0
    0.8340    9.7270   21.5270 C   0  0  0  0  0  0  0  0  0  0  0  0
    0.5630    8.6790   21.7010 H   0  0  0  0  0  0  0  0  0  0  0  0
    1.6790    9.9770   22.1790 H   0  0  0  0  0  0  0  0  0  0  0  0
   -1.9720   11.6540   22.7750 N   0  0  0  0  0  0  0  0  0  0  0  0
   -1.0610   10.6770   23.0340 C   0  0  0  0  0  0  0  0  0  0  0  0
   -0.3260   10.5940   21.8700 C   0  0  0  0  0  0  0  0  0  0  0  0
   -0.8140   11.5070   20.9680 N   0  0  0  0  0  0  0  0  0  0  0  0
   -1.8280   12.1480   21.5340 N   0  0  0  0  0  0  0  0  0  0  0  0
   -0.9990   10.1550   23.9780 H   0  0  0  0  0  0  0  0  0  0  0  0
   -2.9980   12.1670   23.6420 C   0  0  0  0  0  0  0  0  0  0  0  0
   -2.5770   12.9580   24.2700 H   0  0  0  0  0  0  0  0  0  0  0  0
   -3.3660   11.3500   24.2690 H   0  0  0  0  0  0  0  0  0  0  0  0
   -3.8060   12.5720   23.0250 H   0  0  0  0  0  0  0  0  0  0  0  0
    1.8380    9.4000   17.0830 O   0  0  0  0  0  0  0  0  0  0  0  0
    1.8250    8.6920   16.4160 H   0  0  0  0  0  0  0  0  0  0  0  0
  1  6  1  6  0  0  0
  1 34  1  0  0  0  0
  1  2  1  0  0  0  0
  2  7  1  0  0  0  0
  2  8  1  0  0  0  0
  3  9  1  6  0  0  0
  3 13  1  0  0  0  0
  3  2  1  0  0  0  0
  4  5  1  0  0  0  0
  4  3  1  0  0  0  0
  5 12  1  1  0  0  0
  5  1  1  0  0  0  0
 10  4  1  0  0  0  0
 11  4  1  0  0  0  0
 13 15  1  0  0  0  0
 14 13  1  0  0  0  0
 16 13  1  0  0  0  0
 16 17  1  0  0  0  0
 17 21  1  0  0  0  0
 18 22  1  0  0  0  0
 18 17  2  0  0  0  0
 19 20  2  0  0  0  0
 19 18  1  0  0  0  0
 20 16  1  0  0  0  0
 23 24  1  0  0  0  0
 23 20  1  0  0  0  0
 24 29  1  0  0  0  0
 25 30  1  0  0  0  0
 25 24  2  0  0  0  0
 26 25  1  0  0  0  0
 27 26  2  0  0  0  0
 27 28  1  0  0  0  0
 28 23  2  0  0  0  0
 31 26  1  0  0  0  0
 32 27  1  0  0  0  0
 33 28  1  0  0  0  0
 34 36  1  0  0  0  0
 35 34  1  0  0  0  0
 36 37  1  0  0  0  0
 36 41  1  0  0  0  0
 36 38  1  0  0  0  0
 39 40  1  0  0  0  0
 39 45  1  0  0  0  0
 40 44  1  0  0  0  0
 41 40  2  0  0  0  0
 42 43  2  0  0  0  0
 42 41  1  0  0  0  0
 43 39  1  0  0  0  0
 45 47  1  0  0  0  0
 45 46  1  0  0  0  0
 48 45  1  0  0  0  0
 49  5  1  0  0  0  0
 50 49  1  0  0  0  0
M  END
>  <MODEL>
9

>  <REMARK>
 VINA RESULT:    -7.269      4.548      7.437
 INTER + INTRA:         -11.074
 INTER:                 -10.139
 INTRA:                  -0.935
 UNBOUND:                -0.830
  Name = 
  8 active torsions:
  status: ('A' for Active; 'I' for Inactive)
    1  A    between atoms: C_1  and  N_2
    2  A    between atoms: C_4  and  C_5
    3  A    between atoms: C_5  and  N_6
    4  A    between atoms: N_6  and  C_7
    5  A    between atoms: C_9  and  C_10
    6  A    between atoms: C_10  and  N_11
    7  A    between atoms: C_15  and  C_16
    8  A    between atoms: C_23  and  O_24
                            x       y       z     vdW  Elec       q    Type
                         _______ _______ _______ _____ _____    ______ ____

>  <TORSDO>
F 8

$$$$
=
 OpenBabel07192307433D

 50 53  0  0  1  0  0  0  0  0999 V2000
    1.9270    9.0190   19.3790 C   0  0  2  0  0  0  0  0  0  0  0  0
    1.9720    8.0730   18.1800 C   0  0  0  0  0  0  0  0  0  0  0  0
    2.5920    6.8060   18.7800 C   0  0  1  0  0  0  0  0  0  0  0  0
    1.9860    6.7130   20.1920 C   0  0  0  0  0  0  0  0  0  0  0  0
    1.3940    8.0950   20.4920 C   0  0  1  0  0  0  0  0  0  0  0  0
    2.9410    9.3490   19.6470 H   0  0  0  0  0  0  0  0  0  0  0  0
    0.9650    7.8710   17.7960 H   0  0  0  0  0  0  0  0  0  0  0  0
    2.5800    8.4640   17.3590 H   0  0  0  0  0  0  0  0  0  0  0  0
    3.6710    6.9770   18.8900 H   0  0  0  0  0  0  0  0  0  0  0  0
    2.7470    6.4180   20.9230 H   0  0  0  0  0  0  0  0  0  0  0  0
    1.1870    5.9640   20.2370 H   0  0  0  0  0  0  0  0  0  0  0  0
    0.2980    8.0310   20.4710 H   0  0  0  0  0  0  0  0  0  0  0  0
    2.3520    5.5730   17.9090 C   0  0  0  0  0  0  0  0  0  0  0  0
    1.3060    5.5150   17.5870 H   0  0  0  0  0  0  0  0  0  0  0  0
    2.9580    5.6200   16.9960 H   0  0  0  0  0  0  0  0  0  0  0  0
    2.6710    4.3270   18.5830 N   0  0  0  0  0  0  0  0  0  0  0  0
    1.7520    3.4430   19.0820 C   0  0  0  0  0  0  0  0  0  0  0  0
    2.4930    2.4090   19.5950 C   0  0  0  0  0  0  0  0  0  0  0  0
    3.8310    2.6340   19.4100 N   0  0  0  0  0  0  0  0  0  0  0  0
    3.9280    3.7970   18.7940 C   0  0  0  0  0  0  0  0  0  0  0  0
    0.6860    3.6160   19.0360 H   0  0  0  0  0  0  0  0  0  0  0  0
    2.1360    1.5120   20.0850 H   0  0  0  0  0  0  0  0  0  0  0  0
    5.1760    4.4300   18.3850 C   0  0  0  0  0  0  0  0  0  0  0  0
    5.9180    5.1820   19.3040 C   0  0  0  0  0  0  0  0  0  0  0  0
    7.1190    5.7800   18.9190 C   0  0  0  0  0  0  0  0  0  0  0  0
    7.5810    5.6340   17.6120 C   0  0  0  0  0  0  0  0  0  0  0  0
    6.8420    4.8950   16.6860 C   0  0  0  0  0  0  0  0  0  0  0  0
    5.6390    4.3010   17.0700 C   0  0  0  0  0  0  0  0  0  0  0  0
    5.5540    5.3110   20.3210 H   0  0  0  0  0  0  0  0  0  0  0  0
    7.6860    6.3690   19.6350 H   0  0  0  0  0  0  0  0  0  0  0  0
    8.5130    6.1050   17.3090 H   0  0  0  0  0  0  0  0  0  0  0  0
    7.1970    4.7930   15.6640 H   0  0  0  0  0  0  0  0  0  0  0  0
    5.0550    3.7480   16.3380 H   0  0  0  0  0  0  0  0  0  0  0  0
    1.0730   10.1940   19.1900 N   0  0  0  0  0  0  0  0  0  0  0  0
    1.0130   10.4060   18.1920 H   0  0  0  0  0  0  0  0  0  0  0  0
   -0.2990    9.9600   19.6570 C   0  0  0  0  0  0  0  0  0  0  0  0
   -0.4700    8.8960   19.8620 H   0  0  0  0  0  0  0  0  0  0  0  0
   -0.5010   10.5240   20.5740 H   0  0  0  0  0  0  0  0  0  0  0  0
   -2.4050   10.7100   16.8030 N   0  0  0  0  0  0  0  0  0  0  0  0
   -1.3910    9.9490   17.2960 C   0  0  0  0  0  0  0  0  0  0  0  0
   -1.2350   10.4040   18.5880 C   0  0  0  0  0  0  0  0  0  0  0  0
   -2.1440   11.4070   18.8210 N   0  0  0  0  0  0  0  0  0  0  0  0
   -2.8530   11.5880   17.7150 N   0  0  0  0  0  0  0  0  0  0  0  0
   -0.8960    9.1750   16.7270 H   0  0  0  0  0  0  0  0  0  0  0  0
   -2.9980   10.6630   15.4940 C   0  0  0  0  0  0  0  0  0  0  0  0
   -2.4240    9.9800   14.8610 H   0  0  0  0  0  0  0  0  0  0  0  0
   -2.9780   11.6700   15.0660 H   0  0  0  0  0  0  0  0  0  0  0  0
   -4.0280   10.3060   15.5900 H   0  0  0  0  0  0  0  0  0  0  0  0
    1.7910    8.5390   21.7790 O   0  0  0  0  0  0  0  0  0  0  0  0
    1.7140    7.7780   22.3790 H   0  0  0  0  0  0  0  0  0  0  0  0
  1  6  1  1  0  0  0
  1  5  1  0  0  0  0
  2  3  1  0  0  0  0
  2  1  1  0  0  0  0
  3  9  1  1  0  0  0
  3  4  1  0  0  0  0
  4 11  1  0  0  0  0
  4  5  1  0  0  0  0
  4 10  1  0  0  0  0
  5 12  1  6  0  0  0
  5 49  1  0  0  0  0
  7  2  1  0  0  0  0
  8  2  1  0  0  0  0
 13 16  1  0  0  0  0
 13  3  1  0  0  0  0
 14 13  1  0  0  0  0
 15 13  1  0  0  0  0
 16 20  1  0  0  0  0
 16 17  1  0  0  0  0
 17 18  2  0  0  0  0
 18 22  1  0  0  0  0
 19 18  1  0  0  0  0
 20 19  2  0  0  0  0
 21 17  1  0  0  0  0
 23 20  1  0  0  0  0
 23 24  1  0  0  0  0
 24 29  1  0  0  0  0
 25 24  2  0  0  0  0
 25 30  1  0  0  0  0
 26 25  1  0  0  0  0
 27 28  1  0  0  0  0
 27 26  2  0  0  0  0
 28 23  2  0  0  0  0
 31 26  1  0  0  0  0
 32 27  1  0  0  0  0
 33 28  1  0  0  0  0
 34  1  1  0  0  0  0
 34 36  1  0  0  0  0
 35 34  1  0  0  0  0
 36 37  1  0  0  0  0
 36 38  1  0  0  0  0
 39 40  1  0  0  0  0
 39 43  1  0  0  0  0
 40 41  2  0  0  0  0
 41 42  1  0  0  0  0
 41 36  1  0  0  0  0
 43 42  2  0  0  0  0
 44 40  1  0  0  0  0
 45 48  1  0  0  0  0
 45 39  1  0  0  0  0
 46 45  1  0  0  0  0
 47 45  1  0  0  0  0
 49 50  1  0  0  0  0
M  END
>  <MODEL>
10

>  <REMARK>
 VINA RESULT:    -7.256      4.328      7.386
 INTER + INTRA:         -11.055
 INTER:                 -10.109
 INTRA:                  -0.946
 UNBOUND:                -0.830
  Name = 
  8 active torsions:
  status: ('A' for Active; 'I' for Inactive)
    1  A    between atoms: C_1  and  N_2
    2  A    between atoms: C_4  and  C_5
    3  A    between atoms: C_5  and  N_6
    4  A    between atoms: N_6  and  C_7
    5  A    between atoms: C_9  and  C_10
    6  A    between atoms: C_10  and  N_11
    7  A    between atoms: C_15  and  C_16
    8  A    between atoms: C_23  and  O_24
                            x       y       z     vdW  Elec       q    Type
                         _______ _______ _______ _____ _____    ______ ____

>  <TORSDO>
F 8

$$$$
=
 OpenBabel07192307433D

 50 53  0  0  1  0  0  0  0  0999 V2000
    0.8730   10.0070   19.6040 C   0  0  2  0  0  0  0  0  0  0  0  0
    1.1360    9.2710   18.2900 C   0  0  0  0  0  0  0  0  0  0  0  0
    2.2330    8.2760   18.6800 C   0  0  1  0  0  0  0  0  0  0  0  0
    1.8530    7.8220   20.1010 C   0  0  0  0  0  0  0  0  0  0  0  0
    0.8330    8.8440   20.6150 C   0  0  1  0  0  0  0  0  0  0  0  0
    1.7190   10.6640   19.8520 H   0  0  0  0  0  0  0  0  0  0  0  0
    0.2370    8.7470   17.9440 H   0  0  0  0  0  0  0  0  0  0  0  0
    1.4700    9.9420   17.4930 H   0  0  0  0  0  0  0  0  0  0  0  0
    3.1810    8.8270   18.7480 H   0  0  0  0  0  0  0  0  0  0  0  0
    2.7410    7.7620   20.7400 H   0  0  0  0  0  0  0  0  0  0  0  0
    1.3910    6.8280   20.0950 H   0  0  0  0  0  0  0  0  0  0  0  0
   -0.1610    8.3770   20.6510 H   0  0  0  0  0  0  0  0  0  0  0  0
    2.3710    7.1370   17.6710 C   0  0  0  0  0  0  0  0  0  0  0  0
    1.5770    6.3920   17.8060 H   0  0  0  0  0  0  0  0  0  0  0  0
    2.2730    7.5140   16.6460 H   0  0  0  0  0  0  0  0  0  0  0  0
    3.6420    6.4410   17.7640 N   0  0  0  0  0  0  0  0  0  0  0  0
    4.8370    6.9190   17.2980 C   0  0  0  0  0  0  0  0  0  0  0  0
    5.7590    5.9580   17.6270 C   0  0  0  0  0  0  0  0  0  0  0  0
    5.1600    4.9190   18.2880 N   0  0  0  0  0  0  0  0  0  0  0  0
    3.8780    5.2240   18.3690 C   0  0  0  0  0  0  0  0  0  0  0  0
    4.9330    7.8670   16.7870 H   0  0  0  0  0  0  0  0  0  0  0  0
    6.8230    5.9570   17.4260 H   0  0  0  0  0  0  0  0  0  0  0  0
    2.8580    4.4020   19.0090 C   0  0  0  0  0  0  0  0  0  0  0  0
    2.7350    4.3930   20.4040 C   0  0  0  0  0  0  0  0  0  0  0  0
    1.7530    3.6150   21.0190 C   0  0  0  0  0  0  0  0  0  0  0  0
    0.8920    2.8400   20.2430 C   0  0  0  0  0  0  0  0  0  0  0  0
    1.0160    2.8340   18.8530 C   0  0  0  0  0  0  0  0  0  0  0  0
    2.0000    3.6080   18.2380 C   0  0  0  0  0  0  0  0  0  0  0  0
    3.4130    4.9840   21.0140 H   0  0  0  0  0  0  0  0  0  0  0  0
    1.6670    3.6060   22.1020 H   0  0  0  0  0  0  0  0  0  0  0  0
    0.1310    2.2280   20.7220 H   0  0  0  0  0  0  0  0  0  0  0  0
    0.3520    2.2190   18.2500 H   0  0  0  0  0  0  0  0  0  0  0  0
    2.1080    3.5800   17.1560 H   0  0  0  0  0  0  0  0  0  0  0  0
   -0.3660   10.7890   19.6210 N   0  0  0  0  0  0  0  0  0  0  0  0
   -1.0950   10.2490   20.0910 H   0  0  0  0  0  0  0  0  0  0  0  0
   -0.2160   12.0430   20.3700 C   0  0  0  0  0  0  0  0  0  0  0  0
    0.7880   12.1270   20.8020 H   0  0  0  0  0  0  0  0  0  0  0  0
   -0.3840   12.9080   19.7190 H   0  0  0  0  0  0  0  0  0  0  0  0
   -2.9020   12.3430   22.7870 N   0  0  0  0  0  0  0  0  0  0  0  0
   -2.3940   12.7630   21.5970 C   0  0  0  0  0  0  0  0  0  0  0  0
   -1.2210   12.0490   21.4680 C   0  0  0  0  0  0  0  0  0  0  0  0
   -1.0670   11.2400   22.5670 N   0  0  0  0  0  0  0  0  0  0  0  0
   -2.1040   11.4340   23.3720 N   0  0  0  0  0  0  0  0  0  0  0  0
   -2.8850   13.4850   20.9620 H   0  0  0  0  0  0  0  0  0  0  0  0
   -4.1220   12.7500   23.4280 C   0  0  0  0  0  0  0  0  0  0  0  0
   -3.9560   12.8320   24.5060 H   0  0  0  0  0  0  0  0  0  0  0  0
   -4.8900   11.9980   23.2260 H   0  0  0  0  0  0  0  0  0  0  0  0
   -4.4210   13.7220   23.0230 H   0  0  0  0  0  0  0  0  0  0  0  0
    1.1710    9.2730   21.9230 O   0  0  0  0  0  0  0  0  0  0  0  0
    1.2330    8.4770   22.4780 H   0  0  0  0  0  0  0  0  0  0  0  0
  1 34  1  0  0  0  0
  1  6  1  1  0  0  0
  1  5  1  0  0  0  0
  2  3  1  0  0  0  0
  2  1  1  0  0  0  0
  3  9  1  1  0  0  0
  3  4  1  0  0  0  0
  4  5  1  0  0  0  0
  4 10  1  0  0  0  0
  5 12  1  1  0  0  0
  5 49  1  0  0  0  0
  7  2  1  0  0  0  0
  8  2  1  0  0  0  0
 11  4  1  0  0  0  0
 13 16  1  0  0  0  0
 13 14  1  0  0  0  0
 13  3  1  0  0  0  0
 15 13  1  0  0  0  0
 16 20  1  0  0  0  0
 17 18  2  0  0  0  0
 17 16  1  0  0  0  0
 18 19  1  0  0  0  0
 19 20  2  0  0  0  0
 20 23  1  0  0  0  0
 21 17  1  0  0  0  0
 22 18  1  0  0  0  0
 23 24  1  0  0  0  0
 24 29  1  0  0  0  0
 24 25  2  0  0  0  0
 25 30  1  0  0  0  0
 26 31  1  0  0  0  0
 26 25  1  0  0  0  0
 27 26  2  0  0  0  0
 28 27  1  0  0  0  0
 28 23  2  0  0  0  0
 32 27  1  0  0  0  0
 33 28  1  0  0  0  0
 34 35  1  0  0  0  0
 34 36  1  0  0  0  0
 36 37  1  0  0  0  0
 36 41  1  0  0  0  0
 38 36  1  0  0  0  0
 39 43  1  0  0  0  0
 39 45  1  0  0  0  0
 40 39  1  0  0  0  0
 41 40  2  0  0  0  0
 41 42  1  0  0  0  0
 42 43  2  0  0  0  0
 44 40  1  0  0  0  0
 45 46  1  0  0  0  0
 47 45  1  0  0  0  0
 48 45  1  0  0  0  0
 49 50  1  0  0  0  0
M  END
>  <MODEL>
11

>  <REMARK>
 VINA RESULT:    -7.143      4.392      7.295
 INTER + INTRA:         -10.896
 INTER:                  -9.628
 INTRA:                  -1.268
 UNBOUND:                -0.830
  Name = 
  8 active torsions:
  status: ('A' for Active; 'I' for Inactive)
    1  A    between atoms: C_1  and  N_2
    2  A    between atoms: C_4  and  C_5
    3  A    between atoms: C_5  and  N_6
    4  A    between atoms: N_6  and  C_7
    5  A    between atoms: C_9  and  C_10
    6  A    between atoms: C_10  and  N_11
    7  A    between atoms: C_15  and  C_16
    8  A    between atoms: C_23  and  O_24
                            x       y       z     vdW  Elec       q    Type
                         _______ _______ _______ _____ _____    ______ ____

>  <TORSDO>
F 8

$$$$
=
 OpenBabel07192307433D

 50 53  0  0  1  0  0  0  0  0999 V2000
    1.2380   10.4750   18.8570 C   0  0  2  0  0  0  0  0  0  0  0  0
    1.5240    9.4810   17.7320 C   0  0  0  0  0  0  0  0  0  0  0  0
    2.3090    8.3810   18.4530 C   0  0  1  0  0  0  0  0  0  0  0  0
    1.6350    8.2670   19.8320 C   0  0  0  0  0  0  0  0  0  0  0  0
    0.7970    9.5400   20.0000 C   0  0  1  0  0  0  0  0  0  0  0  0
    2.1600   10.9930   19.1560 H   0  0  0  0  0  0  0  0  0  0  0  0
    0.5930    9.0840   17.3080 H   0  0  0  0  0  0  0  0  0  0  0  0
    2.1090    9.9220   16.9200 H   0  0  0  0  0  0  0  0  0  0  0  0
    3.3330    8.7430   18.6100 H   0  0  0  0  0  0  0  0  0  0  0  0
    2.3840    8.1540   20.6230 H   0  0  0  0  0  0  0  0  0  0  0  0
    0.9740    7.3950   19.8860 H   0  0  0  0  0  0  0  0  0  0  0  0
   -0.2680    9.2850   19.9230 H   0  0  0  0  0  0  0  0  0  0  0  0
    2.3420    7.0740   17.6590 C   0  0  0  0  0  0  0  0  0  0  0  0
    1.5640    6.3830   18.0040 H   0  0  0  0  0  0  0  0  0  0  0  0
    2.1450    7.2620   16.5970 H   0  0  0  0  0  0  0  0  0  0  0  0
    3.6140    6.3800   17.7530 N   0  0  0  0  0  0  0  0  0  0  0  0
    4.8020    6.8390   17.2500 C   0  0  0  0  0  0  0  0  0  0  0  0
    5.7280    5.8880   17.5950 C   0  0  0  0  0  0  0  0  0  0  0  0
    5.1400    4.8760   18.3040 N   0  0  0  0  0  0  0  0  0  0  0  0
    3.8600    5.1850   18.3970 C   0  0  0  0  0  0  0  0  0  0  0  0
    4.8880    7.7680   16.7030 H   0  0  0  0  0  0  0  0  0  0  0  0
    6.7880    5.8790   17.3760 H   0  0  0  0  0  0  0  0  0  0  0  0
    2.8510    4.3880   19.0850 C   0  0  0  0  0  0  0  0  0  0  0  0
    2.6590    4.5340   20.4640 C   0  0  0  0  0  0  0  0  0  0  0  0
    1.6860    3.7800   21.1230 C   0  0  0  0  0  0  0  0  0  0  0  0
    0.9040    2.8740   20.4080 C   0  0  0  0  0  0  0  0  0  0  0  0
    1.0980    2.7140   19.0340 C   0  0  0  0  0  0  0  0  0  0  0  0
    2.0730    3.4640   18.3760 C   0  0  0  0  0  0  0  0  0  0  0  0
    3.2750    5.2290   21.0290 H   0  0  0  0  0  0  0  0  0  0  0  0
    1.5460    3.8930   22.1950 H   0  0  0  0  0  0  0  0  0  0  0  0
    0.1520    2.2810   20.9220 H   0  0  0  0  0  0  0  0  0  0  0  0
    0.4970    1.9970   18.4800 H   0  0  0  0  0  0  0  0  0  0  0  0
    2.2360    3.3170   17.3110 H   0  0  0  0  0  0  0  0  0  0  0  0
    0.2100   11.4690   18.5370 N   0  0  0  0  0  0  0  0  0  0  0  0
    0.5200   12.0250   17.7380 H   0  0  0  0  0  0  0  0  0  0  0  0
   -1.0620   10.8440   18.1520 C   0  0  0  0  0  0  0  0  0  0  0  0
   -1.2430   10.9500   17.0760 H   0  0  0  0  0  0  0  0  0  0  0  0
   -1.0610    9.7760   18.3980 H   0  0  0  0  0  0  0  0  0  0  0  0
   -3.4070   12.6380   20.2550 N   0  0  0  0  0  0  0  0  0  0  0  0
   -2.1180   12.2430   20.0730 C   0  0  0  0  0  0  0  0  0  0  0  0
   -2.1560   11.5220   18.8990 C   0  0  0  0  0  0  0  0  0  0  0  0
   -3.4450   11.5080   18.4250 N   0  0  0  0  0  0  0  0  0  0  0  0
   -4.2040   12.1930   19.2700 N   0  0  0  0  0  0  0  0  0  0  0  0
   -1.3150   12.5030   20.7470 H   0  0  0  0  0  0  0  0  0  0  0  0
   -3.9530   13.4300   21.3230 C   0  0  0  0  0  0  0  0  0  0  0  0
   -3.4710   13.1500   22.2640 H   0  0  0  0  0  0  0  0  0  0  0  0
   -5.0290   13.2380   21.3850 H   0  0  0  0  0  0  0  0  0  0  0  0
   -3.7640   14.4860   21.1070 H   0  0  0  0  0  0  0  0  0  0  0  0
    1.0250   10.1230   21.2730 O   0  0  0  0  0  0  0  0  0  0  0  0
    0.3920    9.7170   21.8900 H   0  0  0  0  0  0  0  0  0  0  0  0
  1  6  1  1  0  0  0
  1  5  1  0  0  0  0
  2  3  1  0  0  0  0
  2  1  1  0  0  0  0
  3  9  1  1  0  0  0
  3  4  1  0  0  0  0
  4 11  1  0  0  0  0
  4  5  1  0  0  0  0
  4 10  1  0  0  0  0
  5 12  1  6  0  0  0
  5 49  1  0  0  0  0
  7  2  1  0  0  0  0
  8  2  1  0  0  0  0
 13 16  1  0  0  0  0
 13 14  1  0  0  0  0
 13  3  1  0  0  0  0
 15 13  1  0  0  0  0
 16 20  1  0  0  0  0
 17 18  2  0  0  0  0
 17 16  1  0  0  0  0
 18 19  1  0  0  0  0
 19 20  2  0  0  0  0
 20 23  1  0  0  0  0
 21 17  1  0  0  0  0
 22 18  1  0  0  0  0
 23 24  1  0  0  0  0
 24 29  1  0  0  0  0
 24 25  2  0  0  0  0
 25 30  1  0  0  0  0
 26 31  1  0  0  0  0
 26 25  1  0  0  0  0
 27 26  2  0  0  0  0
 28 27  1  0  0  0  0
 28 23  2  0  0  0  0
 32 27  1  0  0  0  0
 33 28  1  0  0  0  0
 34  1  1  0  0  0  0
 35 34  1  0  0  0  0
 36 38  1  0  0  0  0
 36 34  1  0  0  0  0
 36 41  1  0  0  0  0
 37 36  1  0  0  0  0
 39 45  1  0  0  0  0
 40 39  1  0  0  0  0
 40 44  1  0  0  0  0
 41 40  2  0  0  0  0
 42 41  1  0  0  0  0
 42 43  2  0  0  0  0
 43 39  1  0  0  0  0
 45 47  1  0  0  0  0
 45 46  1  0  0  0  0
 48 45  1  0  0  0  0
 49 50  1  0  0  0  0
M  END
>  <MODEL>
12

>  <REMARK>
 VINA RESULT:    -7.118      4.292      7.447
 INTER + INTRA:         -10.861
 INTER:                  -9.737
 INTRA:                  -1.124
 UNBOUND:                -0.830
  Name = 
  8 active torsions:
  status: ('A' for Active; 'I' for Inactive)
    1  A    between atoms: C_1  and  N_2
    2  A    between atoms: C_4  and  C_5
    3  A    between atoms: C_5  and  N_6
    4  A    between atoms: N_6  and  C_7
    5  A    between atoms: C_9  and  C_10
    6  A    between atoms: C_10  and  N_11
    7  A    between atoms: C_15  and  C_16
    8  A    between atoms: C_23  and  O_24
                            x       y       z     vdW  Elec       q    Type
                         _______ _______ _______ _____ _____    ______ ____

>  <TORSDO>
F 8

$$$$
=
 OpenBabel07192307433D

 50 53  0  0  1  0  0  0  0  0999 V2000
    0.9400    8.3780   19.6120 C   0  0  2  0  0  0  0  0  0  0  0  0
    2.0740    7.4060   19.9400 C   0  0  0  0  0  0  0  0  0  0  0  0
    2.6590    7.1000   18.5580 C   0  0  1  0  0  0  0  0  0  0  0  0
    2.5860    8.4390   17.8030 C   0  0  0  0  0  0  0  0  0  0  0  0
    1.6170    9.3220   18.5990 C   0  0  1  0  0  0  0  0  0  0  0  0
    0.1150    7.8520   19.1110 H   0  0  0  0  0  0  0  0  0  0  0  0
    2.8240    7.8770   20.5870 H   0  0  0  0  0  0  0  0  0  0  0  0
    1.7180    6.4970   20.4330 H   0  0  0  0  0  0  0  0  0  0  0  0
    1.9840    6.3950   18.0540 H   0  0  0  0  0  0  0  0  0  0  0  0
    2.2570    8.2860   16.7700 H   0  0  0  0  0  0  0  0  0  0  0  0
    3.5650    8.9310   17.7620 H   0  0  0  0  0  0  0  0  0  0  0  0
    2.1830   10.1160   19.1050 H   0  0  0  0  0  0  0  0  0  0  0  0
    4.0620    6.4990   18.6410 C   0  0  0  0  0  0  0  0  0  0  0  0
    4.8270    7.2500   18.4100 H   0  0  0  0  0  0  0  0  0  0  0  0
    4.2710    6.1430   19.6560 H   0  0  0  0  0  0  0  0  0  0  0  0
    4.2600    5.3820   17.7340 N   0  0  0  0  0  0  0  0  0  0  0  0
    5.0360    5.4110   16.6070 C   0  0  0  0  0  0  0  0  0  0  0  0
    4.9570    4.1440   16.0870 C   0  0  0  0  0  0  0  0  0  0  0  0
    4.1680    3.3470   16.8720 N   0  0  0  0  0  0  0  0  0  0  0  0
    3.7530    4.1060   17.8690 C   0  0  0  0  0  0  0  0  0  0  0  0
    5.5590    6.2970   16.2750 H   0  0  0  0  0  0  0  0  0  0  0  0
    5.4280    3.7600   15.1900 H   0  0  0  0  0  0  0  0  0  0  0  0
    2.8930    3.6640   18.9600 C   0  0  0  0  0  0  0  0  0  0  0  0
    3.4550    3.1930   20.1520 C   0  0  0  0  0  0  0  0  0  0  0  0
    2.6340    2.7790   21.2030 C   0  0  0  0  0  0  0  0  0  0  0  0
    1.2480    2.8300   21.0640 C   0  0  0  0  0  0  0  0  0  0  0  0
    0.6800    3.2870   19.8740 C   0  0  0  0  0  0  0  0  0  0  0  0
    1.5000    3.6970   18.8220 C   0  0  0  0  0  0  0  0  0  0  0  0
    4.5360    3.1370   20.2600 H   0  0  0  0  0  0  0  0  0  0  0  0
    3.0760    2.4070   22.1230 H   0  0  0  0  0  0  0  0  0  0  0  0
    0.6080    2.5000   21.8790 H   0  0  0  0  0  0  0  0  0  0  0  0
   -0.4020    3.3140   19.7620 H   0  0  0  0  0  0  0  0  0  0  0  0
    1.0520    4.0290   17.8880 H   0  0  0  0  0  0  0  0  0  0  0  0
    0.4150    9.1060   20.7700 N   0  0  0  0  0  0  0  0  0  0  0  0
    0.7720    8.6760   21.6250 H   0  0  0  0  0  0  0  0  0  0  0  0
    0.8520   10.5080   20.7850 C   0  0  0  0  0  0  0  0  0  0  0  0
    1.8950   10.5920   21.1140 H   0  0  0  0  0  0  0  0  0  0  0  0
    0.7690   10.9530   19.7880 H   0  0  0  0  0  0  0  0  0  0  0  0
   -1.1190   12.7010   22.8940 N   0  0  0  0  0  0  0  0  0  0  0  0
   -0.1800   12.6120   21.9130 C   0  0  0  0  0  0  0  0  0  0  0  0
   -0.0190   11.2540   21.7330 C   0  0  0  0  0  0  0  0  0  0  0  0
   -0.8510   10.5870   22.5990 N   0  0  0  0  0  0  0  0  0  0  0  0
   -1.5170   11.4880   23.3100 N   0  0  0  0  0  0  0  0  0  0  0  0
    0.2650   13.4720   21.4340 H   0  0  0  0  0  0  0  0  0  0  0  0
   -1.6810   13.8870   23.4820 C   0  0  0  0  0  0  0  0  0  0  0  0
   -0.9940   14.7240   23.3360 H   0  0  0  0  0  0  0  0  0  0  0  0
   -1.8290   13.7090   24.5510 H   0  0  0  0  0  0  0  0  0  0  0  0
   -2.6370   14.0990   22.9920 H   0  0  0  0  0  0  0  0  0  0  0  0
    0.6720    9.9300   17.7340 O   0  0  0  0  0  0  0  0  0  0  0  0
    0.1860    9.2120   17.2930 H   0  0  0  0  0  0  0  0  0  0  0  0
  1  6  1  6  0  0  0
  1  2  1  0  0  0  0
  1 34  1  0  0  0  0
  2  8  1  0  0  0  0
  2  7  1  0  0  0  0
  3  9  1  6  0  0  0
  3 13  1  0  0  0  0
  3  2  1  0  0  0  0
  4  3  1  0  0  0  0
  4  5  1  0  0  0  0
  5 12  1  1  0  0  0
  5  1  1  0  0  0  0
 10  4  1  0  0  0  0
 11  4  1  0  0  0  0
 13 15  1  0  0  0  0
 14 13  1  0  0  0  0
 16 20  1  0  0  0  0
 16 13  1  0  0  0  0
 17 16  1  0  0  0  0
 18 17  2  0  0  0  0
 18 19  1  0  0  0  0
 19 20  2  0  0  0  0
 20 23  1  0  0  0  0
 21 17  1  0  0  0  0
 22 18  1  0  0  0  0
 23 24  1  0  0  0  0
 24 29  1  0  0  0  0
 24 25  2  0  0  0  0
 25 30  1  0  0  0  0
 26 25  1  0  0  0  0
 26 31  1  0  0  0  0
 27 26  2  0  0  0  0
 28 23  2  0  0  0  0
 28 27  1  0  0  0  0
 32 27  1  0  0  0  0
 33 28  1  0  0  0  0
 34 36  1  0  0  0  0
 34 35  1  0  0  0  0
 36 37  1  0  0  0  0
 36 41  1  0  0  0  0
 38 36  1  0  0  0  0
 39 43  1  0  0  0  0
 39 45  1  0  0  0  0
 40 39  1  0  0  0  0
 41 40  2  0  0  0  0
 41 42  1  0  0  0  0
 42 43  2  0  0  0  0
 44 40  1  0  0  0  0
 45 47  1  0  0  0  0
 46 45  1  0  0  0  0
 48 45  1  0  0  0  0
 49  5  1  0  0  0  0
 50 49  1  0  0  0  0
M  END
>  <MODEL>
13

>  <REMARK>
 VINA RESULT:    -7.000      4.507      6.735
 INTER + INTRA:         -10.695
 INTER:                  -9.778
 INTRA:                  -0.916
 UNBOUND:                -0.830
  Name = 
  8 active torsions:
  status: ('A' for Active; 'I' for Inactive)
    1  A    between atoms: C_1  and  N_2
    2  A    between atoms: C_4  and  C_5
    3  A    between atoms: C_5  and  N_6
    4  A    between atoms: N_6  and  C_7
    5  A    between atoms: C_9  and  C_10
    6  A    between atoms: C_10  and  N_11
    7  A    between atoms: C_15  and  C_16
    8  A    between atoms: C_23  and  O_24
                            x       y       z     vdW  Elec       q    Type
                         _______ _______ _______ _____ _____    ______ ____

>  <TORSDO>
F 8

$$$$
=
 OpenBabel07192307433D

 50 53  0  0  1  0  0  0  0  0999 V2000
    1.9790    8.8110   19.3950 C   0  0  2  0  0  0  0  0  0  0  0  0
    1.9670    7.9140   18.1580 C   0  0  0  0  0  0  0  0  0  0  0  0
    2.5810    6.6130   18.6850 C   0  0  1  0  0  0  0  0  0  0  0  0
    2.0200    6.4730   20.1110 C   0  0  0  0  0  0  0  0  0  0  0  0
    1.4640    7.8520   20.4860 C   0  0  1  0  0  0  0  0  0  0  0  0
    3.0070    9.1120   19.6420 H   0  0  0  0  0  0  0  0  0  0  0  0
    0.9430    7.7470   17.8000 H   0  0  0  0  0  0  0  0  0  0  0  0
    2.5550    8.3270   17.3330 H   0  0  0  0  0  0  0  0  0  0  0  0
    3.6660    6.7600   18.7660 H   0  0  0  0  0  0  0  0  0  0  0  0
    2.7980    6.1340   20.8040 H   0  0  0  0  0  0  0  0  0  0  0  0
    1.2070    5.7380   20.1530 H   0  0  0  0  0  0  0  0  0  0  0  0
    0.3670    7.8090   20.4990 H   0  0  0  0  0  0  0  0  0  0  0  0
    2.2890    5.4210   17.7730 C   0  0  0  0  0  0  0  0  0  0  0  0
    1.2310    5.3930   17.4870 H   0  0  0  0  0  0  0  0  0  0  0  0
    2.8620    5.4960   16.8420 H   0  0  0  0  0  0  0  0  0  0  0  0
    2.6090    4.1430   18.3840 N   0  0  0  0  0  0  0  0  0  0  0  0
    1.6930    3.2070   18.7810 C   0  0  0  0  0  0  0  0  0  0  0  0
    2.4370    2.1620   19.2650 C   0  0  0  0  0  0  0  0  0  0  0  0
    3.7750    2.4300   19.1600 N   0  0  0  0  0  0  0  0  0  0  0  0
    3.8690    3.6320   18.6230 C   0  0  0  0  0  0  0  0  0  0  0  0
    0.6260    3.3560   18.6940 H   0  0  0  0  0  0  0  0  0  0  0  0
    2.0820    1.2270   19.6810 H   0  0  0  0  0  0  0  0  0  0  0  0
    5.1180    4.3200   18.3160 C   0  0  0  0  0  0  0  0  0  0  0  0
    5.7930    5.0300   19.3150 C   0  0  0  0  0  0  0  0  0  0  0  0
    6.9940    5.6810   19.0270 C   0  0  0  0  0  0  0  0  0  0  0  0
    7.5220    5.6290   17.7370 C   0  0  0  0  0  0  0  0  0  0  0  0
    6.8480    4.9320   16.7330 C   0  0  0  0  0  0  0  0  0  0  0  0
    5.6450    4.2850   17.0190 C   0  0  0  0  0  0  0  0  0  0  0  0
    5.3780    5.0860   20.3180 H   0  0  0  0  0  0  0  0  0  0  0  0
    7.5100    6.2370   19.8050 H   0  0  0  0  0  0  0  0  0  0  0  0
    8.4540    6.1410   17.5100 H   0  0  0  0  0  0  0  0  0  0  0  0
    7.2550    4.9030   15.7250 H   0  0  0  0  0  0  0  0  0  0  0  0
    5.1120    3.7650   16.2270 H   0  0  0  0  0  0  0  0  0  0  0  0
    1.1420   10.0080   19.2810 N   0  0  0  0  0  0  0  0  0  0  0  0
    1.0760   10.2780   18.2980 H   0  0  0  0  0  0  0  0  0  0  0  0
   -0.2300    9.7690   19.7480 C   0  0  0  0  0  0  0  0  0  0  0  0
   -0.9590   10.0030   18.9630 H   0  0  0  0  0  0  0  0  0  0  0  0
   -0.3640    8.7220   20.0410 H   0  0  0  0  0  0  0  0  0  0  0  0
   -0.8640   12.2480   22.3150 N   0  0  0  0  0  0  0  0  0  0  0  0
   -0.6430   12.0140   20.9930 C   0  0  0  0  0  0  0  0  0  0  0  0
   -0.4790   10.6470   20.9230 C   0  0  0  0  0  0  0  0  0  0  0  0
   -0.6040   10.1170   22.1830 N   0  0  0  0  0  0  0  0  0  0  0  0
   -0.8350   11.1120   23.0300 N   0  0  0  0  0  0  0  0  0  0  0  0
   -0.6350   12.7920   20.2440 H   0  0  0  0  0  0  0  0  0  0  0  0
   -1.1090   13.5060   22.9670 C   0  0  0  0  0  0  0  0  0  0  0  0
   -1.3170   14.2700   22.2140 H   0  0  0  0  0  0  0  0  0  0  0  0
   -0.2170   13.7810   23.5390 H   0  0  0  0  0  0  0  0  0  0  0  0
   -1.9710   13.3920   23.6320 H   0  0  0  0  0  0  0  0  0  0  0  0
    1.9110    8.2350   21.7760 O   0  0  0  0  0  0  0  0  0  0  0  0
    2.5860    7.5900   22.0480 H   0  0  0  0  0  0  0  0  0  0  0  0
  1  6  1  1  0  0  0
  1  5  1  0  0  0  0
  2  3  1  0  0  0  0
  2  1  1  0  0  0  0
  3  9  1  1  0  0  0
  3  4  1  0  0  0  0
  4 11  1  0  0  0  0
  4  5  1  0  0  0  0
  4 10  1  0  0  0  0
  5 12  1  6  0  0  0
  5 49  1  0  0  0  0
  7  2  1  0  0  0  0
  8  2  1  0  0  0  0
 13 16  1  0  0  0  0
 13  3  1  0  0  0  0
 14 13  1  0  0  0  0
 15 13  1  0  0  0  0
 16 20  1  0  0  0  0
 16 17  1  0  0  0  0
 17 18  2  0  0  0  0
 18 22  1  0  0  0  0
 19 18  1  0  0  0  0
 20 19  2  0  0  0  0
 21 17  1  0  0  0  0
 23 20  1  0  0  0  0
 23 24  1  0  0  0  0
 24 29  1  0  0  0  0
 25 24  2  0  0  0  0
 25 30  1  0  0  0  0
 26 25  1  0  0  0  0
 27 28  1  0  0  0  0
 27 26  2  0  0  0  0
 28 23  2  0  0  0  0
 31 26  1  0  0  0  0
 32 27  1  0  0  0  0
 33 28  1  0  0  0  0
 34  1  1  0  0  0  0
 34 36  1  0  0  0  0
 35 34  1  0  0  0  0
 36 38  1  0  0  0  0
 36 41  1  0  0  0  0
 37 36  1  0  0  0  0
 39 45  1  0  0  0  0
 39 43  1  0  0  0  0
 40 39  1  0  0  0  0
 41 40  2  0  0  0  0
 41 42  1  0  0  0  0
 42 43  2  0  0  0  0
 44 40  1  0  0  0  0
 45 47  1  0  0  0  0
 45 48  1  0  0  0  0
 46 45  1  0  0  0  0
 49 50  1  0  0  0  0
M  END
>  <MODEL>
14

>  <REMARK>
 VINA RESULT:    -6.949      4.323      6.984
 INTER + INTRA:         -10.623
 INTER:                  -9.635
 INTRA:                  -0.988
 UNBOUND:                -0.830
  Name = 
  8 active torsions:
  status: ('A' for Active; 'I' for Inactive)
    1  A    between atoms: C_1  and  N_2
    2  A    between atoms: C_4  and  C_5
    3  A    between atoms: C_5  and  N_6
    4  A    between atoms: N_6  and  C_7
    5  A    between atoms: C_9  and  C_10
    6  A    between atoms: C_10  and  N_11
    7  A    between atoms: C_15  and  C_16
    8  A    between atoms: C_23  and  O_24
                            x       y       z     vdW  Elec       q    Type
                         _______ _______ _______ _____ _____    ______ ____

>  <TORSDO>
F 8

$$$$
=
 OpenBabel07192307433D

 50 53  0  0  1  0  0  0  0  0999 V2000
    3.6650    4.0340   19.0180 C   0  0  2  0  0  0  0  0  0  0  0  0
    3.6060    5.5470   19.2250 C   0  0  0  0  0  0  0  0  0  0  0  0
    2.1600    5.7640   19.6820 C   0  0  1  0  0  0  0  0  0  0  0  0
    1.8540    4.5510   20.5790 C   0  0  0  0  0  0  0  0  0  0  0  0
    2.9420    3.5150   20.2770 C   0  0  1  0  0  0  0  0  0  0  0  0
    3.0840    3.7440   18.1300 H   0  0  0  0  0  0  0  0  0  0  0  0
    4.3140    5.8690   19.9990 H   0  0  0  0  0  0  0  0  0  0  0  0
    3.8230    6.1050   18.3090 H   0  0  0  0  0  0  0  0  0  0  0  0
    1.5120    5.6980   18.7980 H   0  0  0  0  0  0  0  0  0  0  0  0
    0.8470    4.1680   20.3830 H   0  0  0  0  0  0  0  0  0  0  0  0
    1.8980    4.8160   21.6420 H   0  0  0  0  0  0  0  0  0  0  0  0
    3.6260    3.4480   21.1340 H   0  0  0  0  0  0  0  0  0  0  0  0
    1.9630    7.1180   20.3650 C   0  0  0  0  0  0  0  0  0  0  0  0
    1.0720    7.1120   21.0030 H   0  0  0  0  0  0  0  0  0  0  0  0
    2.8130    7.3500   21.0170 H   0  0  0  0  0  0  0  0  0  0  0  0
    1.8190    8.2160   19.4250 N   0  0  0  0  0  0  0  0  0  0  0  0
    2.3080    8.2290   18.1470 C   0  0  0  0  0  0  0  0  0  0  0  0
    1.9140    9.4340   17.6250 C   0  0  0  0  0  0  0  0  0  0  0  0
    1.1900   10.1450   18.5440 N   0  0  0  0  0  0  0  0  0  0  0  0
    1.1360    9.3970   19.6300 C   0  0  0  0  0  0  0  0  0  0  0  0
    2.8790    7.4120   17.7280 H   0  0  0  0  0  0  0  0  0  0  0  0
    2.1090    9.8290   16.6360 H   0  0  0  0  0  0  0  0  0  0  0  0
    0.4490    9.7570   20.8650 C   0  0  0  0  0  0  0  0  0  0  0  0
   -0.4910   10.7950   20.8700 C   0  0  0  0  0  0  0  0  0  0  0  0
   -1.1580   11.1350   22.0490 C   0  0  0  0  0  0  0  0  0  0  0  0
   -0.8850   10.4420   23.2270 C   0  0  0  0  0  0  0  0  0  0  0  0
    0.0590    9.4130   23.2330 C   0  0  0  0  0  0  0  0  0  0  0  0
    0.7290    9.0760   22.0560 C   0  0  0  0  0  0  0  0  0  0  0  0
   -0.6960   11.3490   19.9570 H   0  0  0  0  0  0  0  0  0  0  0  0
   -1.8800   11.9470   22.0490 H   0  0  0  0  0  0  0  0  0  0  0  0
   -1.3990   10.7110   24.1470 H   0  0  0  0  0  0  0  0  0  0  0  0
    0.2790    8.8820   24.1550 H   0  0  0  0  0  0  0  0  0  0  0  0
    1.4810    8.2910   22.0710 H   0  0  0  0  0  0  0  0  0  0  0  0
    5.0210    3.4920   18.9040 N   0  0  0  0  0  0  0  0  0  0  0  0
    5.0480    2.8190   18.1350 H   0  0  0  0  0  0  0  0  0  0  0  0
    6.0070    4.5330   18.5910 C   0  0  0  0  0  0  0  0  0  0  0  0
    5.6370    5.5250   18.8770 H   0  0  0  0  0  0  0  0  0  0  0  0
    6.9480    4.3510   19.1230 H   0  0  0  0  0  0  0  0  0  0  0  0
    6.2750    4.1810   14.9930 N   0  0  0  0  0  0  0  0  0  0  0  0
    5.6600    3.7610   16.1320 C   0  0  0  0  0  0  0  0  0  0  0  0
    6.2570    4.5100   17.1250 C   0  0  0  0  0  0  0  0  0  0  0  0
    7.1930    5.3380   16.5570 N   0  0  0  0  0  0  0  0  0  0  0  0
    7.1980    5.1230   15.2480 N   0  0  0  0  0  0  0  0  0  0  0  0
    4.8800    3.0140   16.1470 H   0  0  0  0  0  0  0  0  0  0  0  0
    6.0430    3.7430   13.6440 C   0  0  0  0  0  0  0  0  0  0  0  0
    5.5280    2.7790   13.6590 H   0  0  0  0  0  0  0  0  0  0  0  0
    7.0090    3.6400   13.1400 H   0  0  0  0  0  0  0  0  0  0  0  0
    5.4230    4.4890   13.1370 H   0  0  0  0  0  0  0  0  0  0  0  0
    2.3680    2.2360   20.0630 O   0  0  0  0  0  0  0  0  0  0  0  0
    1.5660    2.1880   20.6120 H   0  0  0  0  0  0  0  0  0  0  0  0
  1  6  1  6  0  0  0
  1  2  1  0  0  0  0
  1  5  1  0  0  0  0
  2  3  1  0  0  0  0
  2  7  1  0  0  0  0
  3  9  1  6  0  0  0
  3 13  1  0  0  0  0
  3  4  1  0  0  0  0
  4 11  1  0  0  0  0
  5  4  1  0  0  0  0
  5 12  1  1  0  0  0
  8  2  1  0  0  0  0
 10  4  1  0  0  0  0
 13 14  1  0  0  0  0
 13 15  1  0  0  0  0
 16 20  1  0  0  0  0
 16 13  1  0  0  0  0
 17 16  1  0  0  0  0
 18 17  2  0  0  0  0
 18 19  1  0  0  0  0
 19 20  2  0  0  0  0
 20 23  1  0  0  0  0
 21 17  1  0  0  0  0
 22 18  1  0  0  0  0
 23 24  2  0  0  0  0
 23 28  1  0  0  0  0
 24 25  1  0  0  0  0
 25 26  2  0  0  0  0
 26 27  1  0  0  0  0
 26 31  1  0  0  0  0
 27 32  1  0  0  0  0
 28 33  1  0  0  0  0
 28 27  2  0  0  0  0
 29 24  1  0  0  0  0
 30 25  1  0  0  0  0
 34  1  1  0  0  0  0
 35 34  1  0  0  0  0
 36 37  1  0  0  0  0
 36 34  1  0  0  0  0
 36 38  1  0  0  0  0
 39 43  1  0  0  0  0
 39 40  1  0  0  0  0
 40 44  1  0  0  0  0
 40 41  2  0  0  0  0
 41 36  1  0  0  0  0
 42 41  1  0  0  0  0
 43 42  2  0  0  0  0
 45 46  1  0  0  0  0
 45 39  1  0  0  0  0
 47 45  1  0  0  0  0
 48 45  1  0  0  0  0
 49  5  1  0  0  0  0
 49 50  1  0  0  0  0
M  END
>  <MODEL>
15

>  <REMARK>
 VINA RESULT:    -6.938      4.037      6.118
 INTER + INTRA:         -10.607
 INTER:                 -10.925
 INTRA:                   0.318
 UNBOUND:                -0.830
  Name = 
  8 active torsions:
  status: ('A' for Active; 'I' for Inactive)
    1  A    between atoms: C_1  and  N_2
    2  A    between atoms: C_4  and  C_5
    3  A    between atoms: C_5  and  N_6
    4  A    between atoms: N_6  and  C_7
    5  A    between atoms: C_9  and  C_10
    6  A    between atoms: C_10  and  N_11
    7  A    between atoms: C_15  and  C_16
    8  A    between atoms: C_23  and  O_24
                            x       y       z     vdW  Elec       q    Type
                         _______ _______ _______ _____ _____    ______ ____

>  <TORSDO>
F 8

$$$$
=
 OpenBabel07192307433D

 50 53  0  0  1  0  0  0  0  0999 V2000
    2.3650    6.9880   19.6170 C   0  0  2  0  0  0  0  0  0  0  0  0
    1.2940    7.7210   20.4240 C   0  0  0  0  0  0  0  0  0  0  0  0
    1.4720    9.1730   19.9690 C   0  0  1  0  0  0  0  0  0  0  0  0
    1.7930    9.0700   18.4670 C   0  0  0  0  0  0  0  0  0  0  0  0
    2.1870    7.6100   18.2170 C   0  0  1  0  0  0  0  0  0  0  0  0
    3.3680    7.2380   19.9910 H   0  0  0  0  0  0  0  0  0  0  0  0
    0.2910    7.3530   20.1760 H   0  0  0  0  0  0  0  0  0  0  0  0
    1.4400    7.6200   21.5030 H   0  0  0  0  0  0  0  0  0  0  0  0
    2.3590    9.5800   20.4730 H   0  0  0  0  0  0  0  0  0  0  0  0
    2.5890    9.7700   18.1910 H   0  0  0  0  0  0  0  0  0  0  0  0
    0.9190    9.3140   17.8520 H   0  0  0  0  0  0  0  0  0  0  0  0
    1.3880    7.1100   17.6540 H   0  0  0  0  0  0  0  0  0  0  0  0
    0.2530   10.0380   20.2940 C   0  0  0  0  0  0  0  0  0  0  0  0
   -0.6610    9.6060   19.8710 H   0  0  0  0  0  0  0  0  0  0  0  0
    0.0980   10.0960   21.3780 H   0  0  0  0  0  0  0  0  0  0  0  0
    0.3670   11.3960   19.7940 N   0  0  0  0  0  0  0  0  0  0  0  0
    1.3780   12.2660   20.0980 C   0  0  0  0  0  0  0  0  0  0  0  0
    1.0970   13.4040   19.3860 C   0  0  0  0  0  0  0  0  0  0  0  0
   -0.0460   13.2440   18.6500 N   0  0  0  0  0  0  0  0  0  0  0  0
   -0.4790   12.0230   18.9020 C   0  0  0  0  0  0  0  0  0  0  0  0
    2.1840   12.0170   20.7740 H   0  0  0  0  0  0  0  0  0  0  0  0
    1.6570   14.3310   19.3600 H   0  0  0  0  0  0  0  0  0  0  0  0
   -1.6710   11.4170   18.3190 C   0  0  0  0  0  0  0  0  0  0  0  0
   -2.9430   11.8580   18.7030 C   0  0  0  0  0  0  0  0  0  0  0  0
   -4.0860   11.2870   18.1390 C   0  0  0  0  0  0  0  0  0  0  0  0
   -3.9610   10.2710   17.1930 C   0  0  0  0  0  0  0  0  0  0  0  0
   -2.6960    9.8180   16.8140 C   0  0  0  0  0  0  0  0  0  0  0  0
   -1.5540   10.3850   17.3810 C   0  0  0  0  0  0  0  0  0  0  0  0
   -3.0460   12.6400   19.4510 H   0  0  0  0  0  0  0  0  0  0  0  0
   -5.0710   11.6280   18.4460 H   0  0  0  0  0  0  0  0  0  0  0  0
   -4.8510    9.8210   16.7590 H   0  0  0  0  0  0  0  0  0  0  0  0
   -2.6010    9.0160   16.0860 H   0  0  0  0  0  0  0  0  0  0  0  0
   -0.5720   10.0110   17.1000 H   0  0  0  0  0  0  0  0  0  0  0  0
    2.2110    5.5310   19.5910 N   0  0  0  0  0  0  0  0  0  0  0  0
    2.0410    5.2310   18.6290 H   0  0  0  0  0  0  0  0  0  0  0  0
    3.4240    4.8390   20.0440 C   0  0  0  0  0  0  0  0  0  0  0  0
    3.9300    5.4080   20.8330 H   0  0  0  0  0  0  0  0  0  0  0  0
    3.1820    3.8450   20.4370 H   0  0  0  0  0  0  0  0  0  0  0  0
    5.9930    4.5650   17.5010 N   0  0  0  0  0  0  0  0  0  0  0  0
    5.7120    4.8200   18.8080 C   0  0  0  0  0  0  0  0  0  0  0  0
    4.3400    4.7000   18.8800 C   0  0  0  0  0  0  0  0  0  0  0  0
    3.8540    4.3850   17.6350 N   0  0  0  0  0  0  0  0  0  0  0  0
    4.8790    4.3100   16.7960 N   0  0  0  0  0  0  0  0  0  0  0  0
    6.4680    5.0400   19.5480 H   0  0  0  0  0  0  0  0  0  0  0  0
    7.2770    4.5450   16.8550 C   0  0  0  0  0  0  0  0  0  0  0  0
    8.0440    4.2600   17.5810 H   0  0  0  0  0  0  0  0  0  0  0  0
    7.4880    5.5460   16.4660 H   0  0  0  0  0  0  0  0  0  0  0  0
    7.2460    3.8150   16.0400 H   0  0  0  0  0  0  0  0  0  0  0  0
    3.3810    7.5390   17.4550 O   0  0  0  0  0  0  0  0  0  0  0  0
    3.1370    7.7030   16.5280 H   0  0  0  0  0  0  0  0  0  0  0  0
  1  6  1  1  0  0  0
  1  2  1  0  0  0  0
  2  8  1  0  0  0  0
  3 13  1  0  0  0  0
  3  2  1  0  0  0  0
  3  9  1  1  0  0  0
  4  3  1  0  0  0  0
  5 12  1  6  0  0  0
  5  4  1  0  0  0  0
  5  1  1  0  0  0  0
  7  2  1  0  0  0  0
 10  4  1  0  0  0  0
 11  4  1  0  0  0  0
 13 15  1  0  0  0  0
 14 13  1  0  0  0  0
 16 17  1  0  0  0  0
 16 13  1  0  0  0  0
 17 21  1  0  0  0  0
 18 17  2  0  0  0  0
 19 20  2  0  0  0  0
 19 18  1  0  0  0  0
 20 16  1  0  0  0  0
 22 18  1  0  0  0  0
 23 24  1  0  0  0  0
 23 20  1  0  0  0  0
 24 29  1  0  0  0  0
 25 30  1  0  0  0  0
 25 24  2  0  0  0  0
 26 25  1  0  0  0  0
 27 26  2  0  0  0  0
 27 28  1  0  0  0  0
 28 23  2  0  0  0  0
 31 26  1  0  0  0  0
 32 27  1  0  0  0  0
 33 28  1  0  0  0  0
 34  1  1  0  0  0  0
 34 36  1  0  0  0  0
 35 34  1  0  0  0  0
 36 38  1  0  0  0  0
 36 37  1  0  0  0  0
 39 40  1  0  0  0  0
 40 41  2  0  0  0  0
 40 44  1  0  0  0  0
 41 36  1  0  0  0  0
 42 41  1  0  0  0  0
 43 39  1  0  0  0  0
 43 42  2  0  0  0  0
 45 39  1  0  0  0  0
 45 46  1  0  0  0  0
 47 45  1  0  0  0  0
 48 45  1  0  0  0  0
 49  5  1  0  0  0  0
 50 49  1  0  0  0  0
M  END
>  <MODEL>
16

>  <REMARK>
 VINA RESULT:    -6.701      4.256      7.321
 INTER + INTRA:         -10.274
 INTER:                  -9.114
 INTRA:                  -1.160
 UNBOUND:                -0.830
  Name = 
  8 active torsions:
  status: ('A' for Active; 'I' for Inactive)
    1  A    between atoms: C_1  and  N_2
    2  A    between atoms: C_4  and  C_5
    3  A    between atoms: C_5  and  N_6
    4  A    between atoms: N_6  and  C_7
    5  A    between atoms: C_9  and  C_10
    6  A    between atoms: C_10  and  N_11
    7  A    between atoms: C_15  and  C_16
    8  A    between atoms: C_23  and  O_24
                            x       y       z     vdW  Elec       q    Type
                         _______ _______ _______ _____ _____    ______ ____

>  <TORSDO>
F 8

$$$$
=
 OpenBabel07192307433D

 50 53  0  0  1  0  0  0  0  0999 V2000
    1.2750   10.0550   18.9900 C   0  0  2  0  0  0  0  0  0  0  0  0
    1.6440    9.1900   17.7850 C   0  0  0  0  0  0  0  0  0  0  0  0
    2.5790    8.1450   18.4010 C   0  0  1  0  0  0  0  0  0  0  0  0
    1.9690    7.8480   19.7820 C   0  0  0  0  0  0  0  0  0  0  0  0
    0.9870    8.9900   20.0670 C   0  0  1  0  0  0  0  0  0  0  0  0
    2.1360   10.6590   19.3080 H   0  0  0  0  0  0  0  0  0  0  0  0
    0.7550    8.7140   17.3530 H   0  0  0  0  0  0  0  0  0  0  0  0
    2.1450    9.7600   16.9970 H   0  0  0  0  0  0  0  0  0  0  0  0
    3.5560    8.6200   18.5630 H   0  0  0  0  0  0  0  0  0  0  0  0
    2.7510    7.7690   20.5450 H   0  0  0  0  0  0  0  0  0  0  0  0
    1.4200    6.8980   19.7830 H   0  0  0  0  0  0  0  0  0  0  0  0
   -0.0410    8.6120   19.9950 H   0  0  0  0  0  0  0  0  0  0  0  0
    2.7460    6.9160   17.5080 C   0  0  0  0  0  0  0  0  0  0  0  0
    1.9060    6.2220   17.6310 H   0  0  0  0  0  0  0  0  0  0  0  0
    2.7610    7.2040   16.4500 H   0  0  0  0  0  0  0  0  0  0  0  0
    3.9660    6.1750   17.7770 N   0  0  0  0  0  0  0  0  0  0  0  0
    5.2240    6.5650   17.4050 C   0  0  0  0  0  0  0  0  0  0  0  0
    6.0580    5.5910   17.8910 C   0  0  0  0  0  0  0  0  0  0  0  0
    5.3460    4.6320   18.5570 N   0  0  0  0  0  0  0  0  0  0  0  0
    4.0790    4.9960   18.4860 C   0  0  0  0  0  0  0  0  0  0  0  0
    5.4160    7.4680   16.8420 H   0  0  0  0  0  0  0  0  0  0  0  0
    7.1360    5.5300   17.8000 H   0  0  0  0  0  0  0  0  0  0  0  0
    2.9610    4.2680   19.0740 C   0  0  0  0  0  0  0  0  0  0  0  0
    2.7020    4.3660   20.4460 C   0  0  0  0  0  0  0  0  0  0  0  0
    1.6250    3.6790   21.0100 C   0  0  0  0  0  0  0  0  0  0  0  0
    0.8070    2.8870   20.2060 C   0  0  0  0  0  0  0  0  0  0  0  0
    1.0660    2.7750   18.8390 C   0  0  0  0  0  0  0  0  0  0  0  0
    2.1440    3.4580   18.2750 C   0  0  0  0  0  0  0  0  0  0  0  0
    3.3460    4.9700   21.0800 H   0  0  0  0  0  0  0  0  0  0  0  0
    1.4330    3.7530   22.0770 H   0  0  0  0  0  0  0  0  0  0  0  0
   -0.0270    2.3460   20.6460 H   0  0  0  0  0  0  0  0  0  0  0  0
    0.4340    2.1470   18.2150 H   0  0  0  0  0  0  0  0  0  0  0  0
    2.3560    3.3470   17.2140 H   0  0  0  0  0  0  0  0  0  0  0  0
    0.1240   10.9350   18.7720 N   0  0  0  0  0  0  0  0  0  0  0  0
   -0.7360   10.4010   18.9100 H   0  0  0  0  0  0  0  0  0  0  0  0
    0.0900   12.0480   19.7290 C   0  0  0  0  0  0  0  0  0  0  0  0
   -0.8210   12.6460   19.6070 H   0  0  0  0  0  0  0  0  0  0  0  0
    0.1230   11.6770   20.7600 H   0  0  0  0  0  0  0  0  0  0  0  0
    3.0780   14.0940   19.5540 N   0  0  0  0  0  0  0  0  0  0  0  0
    2.2360   13.3800   20.3490 C   0  0  0  0  0  0  0  0  0  0  0  0
    1.2760   12.9110   19.4780 C   0  0  0  0  0  0  0  0  0  0  0  0
    1.5690   13.3540   18.2110 N   0  0  0  0  0  0  0  0  0  0  0  0
    2.6750   14.0840   18.2730 N   0  0  0  0  0  0  0  0  0  0  0  0
    2.3850   13.2550   21.4120 H   0  0  0  0  0  0  0  0  0  0  0  0
    4.2700   14.8050   19.9300 C   0  0  0  0  0  0  0  0  0  0  0  0
    4.4070   14.7340   21.0120 H   0  0  0  0  0  0  0  0  0  0  0  0
    4.1580   15.8530   19.6370 H   0  0  0  0  0  0  0  0  0  0  0  0
    5.1230   14.3510   19.4160 H   0  0  0  0  0  0  0  0  0  0  0  0
    1.1830    9.5010   21.3760 O   0  0  0  0  0  0  0  0  0  0  0  0
    2.1410    9.4910   21.5450 H   0  0  0  0  0  0  0  0  0  0  0  0
  1  6  1  1  0  0  0
  1  5  1  0  0  0  0
  2  3  1  0  0  0  0
  2  1  1  0  0  0  0
  3  9  1  1  0  0  0
  3  4  1  0  0  0  0
  4 11  1  0  0  0  0
  4  5  1  0  0  0  0
  4 10  1  0  0  0  0
  5 12  1  6  0  0  0
  5 49  1  0  0  0  0
  7  2  1  0  0  0  0
  8  2  1  0  0  0  0
 13 14  1  0  0  0  0
 13 16  1  0  0  0  0
 13  3  1  0  0  0  0
 15 13  1  0  0  0  0
 16 20  1  0  0  0  0
 17 16  1  0  0  0  0
 17 18  2  0  0  0  0
 18 19  1  0  0  0  0
 20 19  2  0  0  0  0
 20 23  1  0  0  0  0
 21 17  1  0  0  0  0
 22 18  1  0  0  0  0
 23 24  1  0  0  0  0
 24 25  2  0  0  0  0
 24 29  1  0  0  0  0
 25 30  1  0  0  0  0
 26 31  1  0  0  0  0
 26 25  1  0  0  0  0
 27 26  2  0  0  0  0
 28 27  1  0  0  0  0
 28 23  2  0  0  0  0
 32 27  1  0  0  0  0
 33 28  1  0  0  0  0
 34 35  1  0  0  0  0
 34  1  1  0  0  0  0
 34 36  1  0  0  0  0
 36 38  1  0  0  0  0
 37 36  1  0  0  0  0
 39 45  1  0  0  0  0
 39 40  1  0  0  0  0
 40 44  1  0  0  0  0
 41 36  1  0  0  0  0
 41 40  2  0  0  0  0
 42 43  2  0  0  0  0
 42 41  1  0  0  0  0
 43 39  1  0  0  0  0
 45 46  1  0  0  0  0
 47 45  1  0  0  0  0
 48 45  1  0  0  0  0
 49 50  1  0  0  0  0
M  END
>  <MODEL>
17

>  <REMARK>
 VINA RESULT:    -6.671      3.705      5.456
 INTER + INTRA:         -10.231
 INTER:                  -9.278
 INTRA:                  -0.953
 UNBOUND:                -0.830
  Name = 
  8 active torsions:
  status: ('A' for Active; 'I' for Inactive)
    1  A    between atoms: C_1  and  N_2
    2  A    between atoms: C_4  and  C_5
    3  A    between atoms: C_5  and  N_6
    4  A    between atoms: N_6  and  C_7
    5  A    between atoms: C_9  and  C_10
    6  A    between atoms: C_10  and  N_11
    7  A    between atoms: C_15  and  C_16
    8  A    between atoms: C_23  and  O_24
                            x       y       z     vdW  Elec       q    Type
                         _______ _______ _______ _____ _____    ______ ____

>  <TORSDO>
F 8

$$$$
=
 OpenBabel07192307433D

 50 53  0  0  1  0  0  0  0  0999 V2000
    3.5950    4.1780   18.8940 C   0  0  2  0  0  0  0  0  0  0  0  0
    3.4960    5.6890   19.1000 C   0  0  0  0  0  0  0  0  0  0  0  0
    2.0880    5.8530   19.6800 C   0  0  1  0  0  0  0  0  0  0  0  0
    1.9070    4.6350   20.6040 C   0  0  0  0  0  0  0  0  0  0  0  0
    3.0050    3.6390   20.2130 C   0  0  1  0  0  0  0  0  0  0  0  0
    2.9520    3.8600   18.0610 H   0  0  0  0  0  0  0  0  0  0  0  0
    4.2550    6.0420   19.8090 H   0  0  0  0  0  0  0  0  0  0  0  0
    3.6110    6.2480   18.1670 H   0  0  0  0  0  0  0  0  0  0  0  0
    1.3690    5.7560   18.8550 H   0  0  0  0  0  0  0  0  0  0  0  0
    0.9020    4.2120   20.4970 H   0  0  0  0  0  0  0  0  0  0  0  0
    2.0320    4.9090   21.6580 H   0  0  0  0  0  0  0  0  0  0  0  0
    3.7620    3.6050   21.0080 H   0  0  0  0  0  0  0  0  0  0  0  0
    1.8970    7.2030   20.3720 C   0  0  0  0  0  0  0  0  0  0  0  0
    1.0000    7.2000   21.0020 H   0  0  0  0  0  0  0  0  0  0  0  0
    2.7430    7.4200   21.0350 H   0  0  0  0  0  0  0  0  0  0  0  0
    1.7730    8.3100   19.4410 N   0  0  0  0  0  0  0  0  0  0  0  0
    2.2840    8.3330   18.1710 C   0  0  0  0  0  0  0  0  0  0  0  0
    1.9030    9.5450   17.6550 C   0  0  0  0  0  0  0  0  0  0  0  0
    1.1660   10.2500   18.5680 N   0  0  0  0  0  0  0  0  0  0  0  0
    1.0910    9.4920   19.6450 C   0  0  0  0  0  0  0  0  0  0  0  0
    2.8590    7.5180   17.7540 H   0  0  0  0  0  0  0  0  0  0  0  0
    2.1160    9.9480   16.6720 H   0  0  0  0  0  0  0  0  0  0  0  0
    0.3840    9.8430   20.8720 C   0  0  0  0  0  0  0  0  0  0  0  0
    0.5000    9.0310   22.0070 C   0  0  0  0  0  0  0  0  0  0  0  0
   -0.1670    9.3690   23.1860 C   0  0  0  0  0  0  0  0  0  0  0  0
   -0.9550   10.5180   23.2340 C   0  0  0  0  0  0  0  0  0  0  0  0
   -1.0850   11.3270   22.1030 C   0  0  0  0  0  0  0  0  0  0  0  0
   -0.4220   10.9860   20.9230 C   0  0  0  0  0  0  0  0  0  0  0  0
    1.1010    8.1260   21.9700 H   0  0  0  0  0  0  0  0  0  0  0  0
   -0.0800    8.7320   24.0610 H   0  0  0  0  0  0  0  0  0  0  0  0
   -1.4810   10.7790   24.1500 H   0  0  0  0  0  0  0  0  0  0  0  0
   -1.7100   12.2160   22.1380 H   0  0  0  0  0  0  0  0  0  0  0  0
   -0.5460   11.6060   20.0380 H   0  0  0  0  0  0  0  0  0  0  0  0
    4.9570    3.6870   18.6660 N   0  0  0  0  0  0  0  0  0  0  0  0
    4.9370    2.6680   18.5960 H   0  0  0  0  0  0  0  0  0  0  0  0
    5.5200    4.1880   17.4050 C   0  0  0  0  0  0  0  0  0  0  0  0
    6.0910    3.4060   16.8910 H   0  0  0  0  0  0  0  0  0  0  0  0
    4.7260    4.5330   16.7340 H   0  0  0  0  0  0  0  0  0  0  0  0
    7.5010    7.1890   17.8630 N   0  0  0  0  0  0  0  0  0  0  0  0
    6.5170    6.5760   17.1500 C   0  0  0  0  0  0  0  0  0  0  0  0
    6.4260    5.3250   17.7220 C   0  0  0  0  0  0  0  0  0  0  0  0
    7.3430    5.2320   18.7400 N   0  0  0  0  0  0  0  0  0  0  0  0
    8.0000    6.3820   18.8130 N   0  0  0  0  0  0  0  0  0  0  0  0
    5.9780    7.0550   16.3460 H   0  0  0  0  0  0  0  0  0  0  0  0
    8.0150    8.5230   17.7060 C   0  0  0  0  0  0  0  0  0  0  0  0
    8.6690    8.7610   18.5500 H   0  0  0  0  0  0  0  0  0  0  0  0
    7.1730    9.2200   17.6790 H   0  0  0  0  0  0  0  0  0  0  0  0
    8.5830    8.5690   16.7710 H   0  0  0  0  0  0  0  0  0  0  0  0
    2.4640    2.3380   20.0540 O   0  0  0  0  0  0  0  0  0  0  0  0
    1.9340    2.1510   20.8470 H   0  0  0  0  0  0  0  0  0  0  0  0
  1  6  1  6  0  0  0
  1  2  1  0  0  0  0
  1  5  1  0  0  0  0
  2  3  1  0  0  0  0
  2  7  1  0  0  0  0
  3  9  1  6  0  0  0
  3 13  1  0  0  0  0
  3  4  1  0  0  0  0
  4 11  1  0  0  0  0
  5  4  1  0  0  0  0
  5 12  1  1  0  0  0
  8  2  1  0  0  0  0
 10  4  1  0  0  0  0
 13 14  1  0  0  0  0
 13 15  1  0  0  0  0
 16 20  1  0  0  0  0
 16 13  1  0  0  0  0
 17 16  1  0  0  0  0
 18 17  2  0  0  0  0
 18 19  1  0  0  0  0
 19 20  2  0  0  0  0
 20 23  1  0  0  0  0
 21 17  1  0  0  0  0
 22 18  1  0  0  0  0
 23 28  2  0  0  0  0
 23 24  1  0  0  0  0
 24 25  2  0  0  0  0
 25 26  1  0  0  0  0
 25 30  1  0  0  0  0
 26 31  1  0  0  0  0
 27 32  1  0  0  0  0
 27 26  2  0  0  0  0
 28 27  1  0  0  0  0
 29 24  1  0  0  0  0
 33 28  1  0  0  0  0
 34  1  1  0  0  0  0
 35 34  1  0  0  0  0
 36 41  1  0  0  0  0
 36 34  1  0  0  0  0
 37 36  1  0  0  0  0
 38 36  1  0  0  0  0
 39 43  1  0  0  0  0
 40 41  2  0  0  0  0
 40 39  1  0  0  0  0
 41 42  1  0  0  0  0
 42 43  2  0  0  0  0
 44 40  1  0  0  0  0
 45 39  1  0  0  0  0
 45 46  1  0  0  0  0
 47 45  1  0  0  0  0
 48 45  1  0  0  0  0
 49  5  1  0  0  0  0
 49 50  1  0  0  0  0
M  END
>  <MODEL>
18

>  <REMARK>
 VINA RESULT:    -6.662      3.234      5.283
 INTER + INTRA:         -10.218
 INTER:                 -10.778
 INTRA:                   0.560
 UNBOUND:                -0.830
  Name = 
  8 active torsions:
  status: ('A' for Active; 'I' for Inactive)
    1  A    between atoms: C_1  and  N_2
    2  A    between atoms: C_4  and  C_5
    3  A    between atoms: C_5  and  N_6
    4  A    between atoms: N_6  and  C_7
    5  A    between atoms: C_9  and  C_10
    6  A    between atoms: C_10  and  N_11
    7  A    between atoms: C_15  and  C_16
    8  A    between atoms: C_23  and  O_24
                            x       y       z     vdW  Elec       q    Type
                         _______ _______ _______ _____ _____    ______ ____

>  <TORSDO>
F 8

$$$$
=
 OpenBabel07192307433D

 50 53  0  0  1  0  0  0  0  0999 V2000
    1.8510    9.1260   18.7340 C   0  0  2  0  0  0  0  0  0  0  0  0
    1.9750    7.9300   17.7910 C   0  0  0  0  0  0  0  0  0  0  0  0
    2.5680    6.8490   18.6990 C   0  0  1  0  0  0  0  0  0  0  0  0
    1.8810    7.0690   20.0590 C   0  0  0  0  0  0  0  0  0  0  0  0
    1.2600    8.4700   19.9990 C   0  0  1  0  0  0  0  0  0  0  0  0
    2.8440    9.5300   18.9750 H   0  0  0  0  0  0  0  0  0  0  0  0
    0.9930    7.6240   17.4080 H   0  0  0  0  0  0  0  0  0  0  0  0
    2.6270    8.1360   16.9360 H   0  0  0  0  0  0  0  0  0  0  0  0
    3.6380    7.0640   18.8270 H   0  0  0  0  0  0  0  0  0  0  0  0
    2.6000    6.9660   20.8790 H   0  0  0  0  0  0  0  0  0  0  0  0
    1.0870    6.3340   20.2310 H   0  0  0  0  0  0  0  0  0  0  0  0
    0.1680    8.3790   19.9320 H   0  0  0  0  0  0  0  0  0  0  0  0
    2.3910    5.4440   18.1240 C   0  0  0  0  0  0  0  0  0  0  0  0
    1.3300    5.1730   18.0640 H   0  0  0  0  0  0  0  0  0  0  0  0
    2.7850    5.3910   17.1020 H   0  0  0  0  0  0  0  0  0  0  0  0
    3.0590    4.4180   18.9050 N   0  0  0  0  0  0  0  0  0  0  0  0
    2.5060    3.7480   19.9630 C   0  0  0  0  0  0  0  0  0  0  0  0
    3.4720    2.8630   20.3700 C   0  0  0  0  0  0  0  0  0  0  0  0
    4.5860    2.9680   19.5820 N   0  0  0  0  0  0  0  0  0  0  0  0
    4.3250    3.9100   18.6960 C   0  0  0  0  0  0  0  0  0  0  0  0
    1.5100    3.9500   20.3300 H   0  0  0  0  0  0  0  0  0  0  0  0
    3.4240    2.1530   21.1860 H   0  0  0  0  0  0  0  0  0  0  0  0
    5.2340    4.3490   17.6430 C   0  0  0  0  0  0  0  0  0  0  0  0
    6.2140    5.3110   17.9160 C   0  0  0  0  0  0  0  0  0  0  0  0
    7.0920    5.7260   16.9120 C   0  0  0  0  0  0  0  0  0  0  0  0
    6.9900    5.1840   15.6320 C   0  0  0  0  0  0  0  0  0  0  0  0
    6.0080    4.2330   15.3490 C   0  0  0  0  0  0  0  0  0  0  0  0
    5.1270    3.8220   16.3510 C   0  0  0  0  0  0  0  0  0  0  0  0
    6.2870    5.7470   18.9090 H   0  0  0  0  0  0  0  0  0  0  0  0
    7.8460    6.4780   17.1280 H   0  0  0  0  0  0  0  0  0  0  0  0
    7.6690    5.5120   14.8480 H   0  0  0  0  0  0  0  0  0  0  0  0
    5.9220    3.8210   14.3460 H   0  0  0  0  0  0  0  0  0  0  0  0
    4.3480    3.0990   16.1180 H   0  0  0  0  0  0  0  0  0  0  0  0
    0.9990   10.2070   18.2320 N   0  0  0  0  0  0  0  0  0  0  0  0
    0.0220    9.9820   18.4300 H   0  0  0  0  0  0  0  0  0  0  0  0
    1.2830   11.4860   18.8940 C   0  0  0  0  0  0  0  0  0  0  0  0
    2.1230   11.3910   19.5930 H   0  0  0  0  0  0  0  0  0  0  0  0
    1.5340   12.2580   18.1580 H   0  0  0  0  0  0  0  0  0  0  0  0
   -1.8740   12.5480   20.3260 N   0  0  0  0  0  0  0  0  0  0  0  0
   -1.1500   12.3560   19.1890 C   0  0  0  0  0  0  0  0  0  0  0  0
    0.0670   11.8980   19.6470 C   0  0  0  0  0  0  0  0  0  0  0  0
    0.0330   11.8340   21.0180 N   0  0  0  0  0  0  0  0  0  0  0  0
   -1.1630   12.2410   21.4230 N   0  0  0  0  0  0  0  0  0  0  0  0
   -1.5400   12.5350   18.1980 H   0  0  0  0  0  0  0  0  0  0  0  0
   -3.2280   13.0140   20.4500 C   0  0  0  0  0  0  0  0  0  0  0  0
   -3.8710   12.4430   19.7750 H   0  0  0  0  0  0  0  0  0  0  0  0
   -3.2580   14.0750   20.1820 H   0  0  0  0  0  0  0  0  0  0  0  0
   -3.5530   12.8700   21.4850 H   0  0  0  0  0  0  0  0  0  0  0  0
    1.5770    9.2060   21.1690 O   0  0  0  0  0  0  0  0  0  0  0  0
    0.7390    9.5510   21.5240 H   0  0  0  0  0  0  0  0  0  0  0  0
  1  6  1  1  0  0  0
  1  5  1  0  0  0  0
  2  3  1  0  0  0  0
  2  1  1  0  0  0  0
  3  9  1  1  0  0  0
  3  4  1  0  0  0  0
  4 11  1  0  0  0  0
  4 10  1  0  0  0  0
  5 12  1  6  0  0  0
  5  4  1  0  0  0  0
  5 49  1  0  0  0  0
  7  2  1  0  0  0  0
  8  2  1  0  0  0  0
 13  3  1  0  0  0  0
 13 16  1  0  0  0  0
 14 13  1  0  0  0  0
 15 13  1  0  0  0  0
 16 17  1  0  0  0  0
 17 21  1  0  0  0  0
 17 18  2  0  0  0  0
 18 22  1  0  0  0  0
 19 18  1  0  0  0  0
 20 16  1  0  0  0  0
 20 19  2  0  0  0  0
 23 24  1  0  0  0  0
 23 20  1  0  0  0  0
 24 29  1  0  0  0  0
 25 30  1  0  0  0  0
 25 24  2  0  0  0  0
 26 25  1  0  0  0  0
 27 26  2  0  0  0  0
 27 28  1  0  0  0  0
 28 23  2  0  0  0  0
 31 26  1  0  0  0  0
 32 27  1  0  0  0  0
 33 28  1  0  0  0  0
 34 35  1  0  0  0  0
 34  1  1  0  0  0  0
 34 36  1  0  0  0  0
 36 37  1  0  0  0  0
 36 41  1  0  0  0  0
 38 36  1  0  0  0  0
 39 45  1  0  0  0  0
 39 43  1  0  0  0  0
 40 41  2  0  0  0  0
 40 39  1  0  0  0  0
 41 42  1  0  0  0  0
 42 43  2  0  0  0  0
 44 40  1  0  0  0  0
 45 48  1  0  0  0  0
 46 45  1  0  0  0  0
 47 45  1  0  0  0  0
 49 50  1  0  0  0  0
M  END
>  <MODEL>
19

>  <REMARK>
 VINA RESULT:    -6.616      4.402      7.100
 INTER + INTRA:         -10.153
 INTER:                  -9.265
 INTRA:                  -0.888
 UNBOUND:                -0.830
  Name = 
  8 active torsions:
  status: ('A' for Active; 'I' for Inactive)
    1  A    between atoms: C_1  and  N_2
    2  A    between atoms: C_4  and  C_5
    3  A    between atoms: C_5  and  N_6
    4  A    between atoms: N_6  and  C_7
    5  A    between atoms: C_9  and  C_10
    6  A    between atoms: C_10  and  N_11
    7  A    between atoms: C_15  and  C_16
    8  A    between atoms: C_23  and  O_24
                            x       y       z     vdW  Elec       q    Type
                         _______ _______ _______ _____ _____    ______ ____

>  <TORSDO>
F 8

$$$$
=
 OpenBabel07192307433D

 50 53  0  0  1  0  0  0  0  0999 V2000
   -0.6330   10.9710   20.9030 C   0  0  2  0  0  0  0  0  0  0  0  0
   -0.1610    9.7060   20.1860 C   0  0  0  0  0  0  0  0  0  0  0  0
    0.8810    9.1430   21.1570 C   0  0  1  0  0  0  0  0  0  0  0  0
    0.2960    9.4230   22.5540 C   0  0  0  0  0  0  0  0  0  0  0  0
   -0.8080   10.4670   22.3500 C   0  0  1  0  0  0  0  0  0  0  0  0
    0.1540   11.7380   20.8870 H   0  0  0  0  0  0  0  0  0  0  0  0
   -0.9880    8.9990   20.0450 H   0  0  0  0  0  0  0  0  0  0  0  0
    0.2800    9.9180   19.2070 H   0  0  0  0  0  0  0  0  0  0  0  0
    1.7980    9.7380   21.0530 H   0  0  0  0  0  0  0  0  0  0  0  0
    1.0770    9.7710   23.2390 H   0  0  0  0  0  0  0  0  0  0  0  0
   -0.1430    8.5210   22.9940 H   0  0  0  0  0  0  0  0  0  0  0  0
   -1.7870    9.9920   22.4940 H   0  0  0  0  0  0  0  0  0  0  0  0
    1.1900    7.6700   20.8890 C   0  0  0  0  0  0  0  0  0  0  0  0
    1.7830    7.2360   21.7020 H   0  0  0  0  0  0  0  0  0  0  0  0
    0.2640    7.0840   20.8310 H   0  0  0  0  0  0  0  0  0  0  0  0
    1.9220    7.4560   19.6530 N   0  0  0  0  0  0  0  0  0  0  0  0
    2.3880    8.4470   18.8320 C   0  0  0  0  0  0  0  0  0  0  0  0
    3.0380    7.7930   17.8160 C   0  0  0  0  0  0  0  0  0  0  0  0
    2.9900    6.4380   18.0050 N   0  0  0  0  0  0  0  0  0  0  0  0
    2.3150    6.2440   19.1220 C   0  0  0  0  0  0  0  0  0  0  0  0
    2.2230    9.4970   19.0260 H   0  0  0  0  0  0  0  0  0  0  0  0
    3.5400    8.2240   16.9590 H   0  0  0  0  0  0  0  0  0  0  0  0
    2.0300    4.9440   19.7170 C   0  0  0  0  0  0  0  0  0  0  0  0
    1.4310    3.9360   18.9520 C   0  0  0  0  0  0  0  0  0  0  0  0
    1.1660    2.6870   19.5160 C   0  0  0  0  0  0  0  0  0  0  0  0
    1.4960    2.4410   20.8480 C   0  0  0  0  0  0  0  0  0  0  0  0
    2.0830    3.4440   21.6210 C   0  0  0  0  0  0  0  0  0  0  0  0
    2.3430    4.6950   21.0590 C   0  0  0  0  0  0  0  0  0  0  0  0
    1.1580    4.1280   17.9170 H   0  0  0  0  0  0  0  0  0  0  0  0
    0.6940    1.9110   18.9200 H   0  0  0  0  0  0  0  0  0  0  0  0
    1.2830    1.4710   21.2900 H   0  0  0  0  0  0  0  0  0  0  0  0
    2.3280    3.2550   22.6630 H   0  0  0  0  0  0  0  0  0  0  0  0
    2.7780    5.4800   21.6720 H   0  0  0  0  0  0  0  0  0  0  0  0
   -1.8730   11.5410   20.3700 N   0  0  0  0  0  0  0  0  0  0  0  0
   -2.2770   12.1710   21.0650 H   0  0  0  0  0  0  0  0  0  0  0  0
   -1.6380   12.3390   19.1590 C   0  0  0  0  0  0  0  0  0  0  0  0
   -1.9370   13.3830   19.3120 H   0  0  0  0  0  0  0  0  0  0  0  0
   -0.5790   12.3210   18.8810 H   0  0  0  0  0  0  0  0  0  0  0  0
   -3.2200   10.8400   16.2620 N   0  0  0  0  0  0  0  0  0  0  0  0
   -2.0550   11.2510   16.8340 C   0  0  0  0  0  0  0  0  0  0  0  0
   -2.4480   11.7560   18.0560 C   0  0  0  0  0  0  0  0  0  0  0  0
   -3.8110   11.6330   18.1720 N   0  0  0  0  0  0  0  0  0  0  0  0
   -4.2730   11.0740   17.0610 N   0  0  0  0  0  0  0  0  0  0  0  0
   -1.0900   11.1460   16.3610 H   0  0  0  0  0  0  0  0  0  0  0  0
   -3.4110   10.2240   14.9770 C   0  0  0  0  0  0  0  0  0  0  0  0
   -3.4750   11.0000   14.2090 H   0  0  0  0  0  0  0  0  0  0  0  0
   -4.3400    9.6470   15.0020 H   0  0  0  0  0  0  0  0  0  0  0  0
   -2.5580    9.5690   14.7740 H   0  0  0  0  0  0  0  0  0  0  0  0
   -0.6790   11.5200   23.2910 O   0  0  0  0  0  0  0  0  0  0  0  0
   -0.0380   11.2270   23.9610 H   0  0  0  0  0  0  0  0  0  0  0  0
  1  6  1  6  0  0  0
  1  5  1  0  0  0  0
  2  1  1  0  0  0  0
  2  3  1  0  0  0  0
  3  9  1  6  0  0  0
  3  4  1  0  0  0  0
  4 11  1  0  0  0  0
  4 10  1  0  0  0  0
  5 12  1  1  0  0  0
  5  4  1  0  0  0  0
  5 49  1  0  0  0  0
  7  2  1  0  0  0  0
  8  2  1  0  0  0  0
 13  3  1  0  0  0  0
 13 14  1  0  0  0  0
 15 13  1  0  0  0  0
 16 13  1  0  0  0  0
 17 21  1  0  0  0  0
 17 16  1  0  0  0  0
 18 19  1  0  0  0  0
 18 17  2  0  0  0  0
 19 20  2  0  0  0  0
 20 16  1  0  0  0  0
 20 23  1  0  0  0  0
 22 18  1  0  0  0  0
 23 28  1  0  0  0  0
 24 25  1  0  0  0  0
 24 23  2  0  0  0  0
 25 26  2  0  0  0  0
 26 31  1  0  0  0  0
 26 27  1  0  0  0  0
 27 32  1  0  0  0  0
 28 27  2  0  0  0  0
 28 33  1  0  0  0  0
 29 24  1  0  0  0  0
 30 25  1  0  0  0  0
 34  1  1  0  0  0  0
 34 35  1  0  0  0  0
 36 37  1  0  0  0  0
 36 34  1  0  0  0  0
 38 36  1  0  0  0  0
 39 40  1  0  0  0  0
 39 43  1  0  0  0  0
 40 41  2  0  0  0  0
 41 42  1  0  0  0  0
 41 36  1  0  0  0  0
 43 42  2  0  0  0  0
 44 40  1  0  0  0  0
 45 47  1  0  0  0  0
 45 39  1  0  0  0  0
 46 45  1  0  0  0  0
 48 45  1  0  0  0  0
 49 50  1  0  0  0  0
M  END
>  <MODEL>
20

>  <REMARK>
 VINA RESULT:    -6.603      4.950      8.231
 INTER + INTRA:         -10.136
 INTER:                  -9.951
 INTRA:                  -0.185
 UNBOUND:                -0.830
  Name = 
  8 active torsions:
  status: ('A' for Active; 'I' for Inactive)
    1  A    between atoms: C_1  and  N_2
    2  A    between atoms: C_4  and  C_5
    3  A    between atoms: C_5  and  N_6
    4  A    between atoms: N_6  and  C_7
    5  A    between atoms: C_9  and  C_10
    6  A    between atoms: C_10  and  N_11
    7  A    between atoms: C_15  and  C_16
    8  A    between atoms: C_23  and  O_24
                            x       y       z     vdW  Elec       q    Type
                         _______ _______ _______ _____ _____    ______ ____

>  <TORSDO>
F 8

$$$$
=
 OpenBabel07192307433D

 50 53  0  0  1  0  0  0  0  0999 V2000
    1.6360    9.1090   19.0540 C   0  0  2  0  0  0  0  0  0  0  0  0
    2.1700    8.5190   17.7490 C   0  0  0  0  0  0  0  0  0  0  0  0
    3.2870    7.5910   18.2360 C   0  0  1  0  0  0  0  0  0  0  0  0
    2.7400    6.9800   19.5390 C   0  0  0  0  0  0  0  0  0  0  0  0
    1.5560    7.8610   19.9550 C   0  0  1  0  0  0  0  0  0  0  0  0
    2.3640    9.8110   19.4850 H   0  0  0  0  0  0  0  0  0  0  0  0
    1.3910    7.9520   17.2230 H   0  0  0  0  0  0  0  0  0  0  0  0
    2.5550    9.2850   17.0690 H   0  0  0  0  0  0  0  0  0  0  0  0
    4.1540    8.2130   18.4970 H   0  0  0  0  0  0  0  0  0  0  0  0
    3.5200    6.9400   20.3070 H   0  0  0  0  0  0  0  0  0  0  0  0
    2.3850    5.9550   19.3840 H   0  0  0  0  0  0  0  0  0  0  0  0
    0.6200    7.3090   19.7950 H   0  0  0  0  0  0  0  0  0  0  0  0
    3.6910    6.5630   17.1790 C   0  0  0  0  0  0  0  0  0  0  0  0
    2.9600    5.7470   17.1240 H   0  0  0  0  0  0  0  0  0  0  0  0
    3.7220    7.0220   16.1840 H   0  0  0  0  0  0  0  0  0  0  0  0
    4.9920    5.9670   17.4290 N   0  0  0  0  0  0  0  0  0  0  0  0
    6.1950    6.5850   17.2170 C   0  0  0  0  0  0  0  0  0  0  0  0
    7.1390    5.6740   17.6160 C   0  0  0  0  0  0  0  0  0  0  0  0
    6.5440    4.5300   18.0760 N   0  0  0  0  0  0  0  0  0  0  0  0
    5.2430    4.7190   17.9610 C   0  0  0  0  0  0  0  0  0  0  0  0
    6.2800    7.5830   16.8110 H   0  0  0  0  0  0  0  0  0  0  0  0
    8.2170    5.7790   17.6000 H   0  0  0  0  0  0  0  0  0  0  0  0
    4.2160    3.7570   18.3470 C   0  0  0  0  0  0  0  0  0  0  0  0
    3.4450    3.1210   17.3670 C   0  0  0  0  0  0  0  0  0  0  0  0
    2.4690    2.1920   17.7320 C   0  0  0  0  0  0  0  0  0  0  0  0
    2.2560    1.8990   19.0780 C   0  0  0  0  0  0  0  0  0  0  0  0
    3.0130    2.5390   20.0620 C   0  0  0  0  0  0  0  0  0  0  0  0
    3.9860    3.4700   19.6970 C   0  0  0  0  0  0  0  0  0  0  0  0
    3.5970    3.3570   16.3160 H   0  0  0  0  0  0  0  0  0  0  0  0
    1.8690    1.7070   16.9670 H   0  0  0  0  0  0  0  0  0  0  0  0
    1.4910    1.1820   19.3640 H   0  0  0  0  0  0  0  0  0  0  0  0
    2.8370    2.3190   21.1120 H   0  0  0  0  0  0  0  0  0  0  0  0
    4.5550    3.9840   20.4690 H   0  0  0  0  0  0  0  0  0  0  0  0
    0.3380    9.7770   18.9290 N   0  0  0  0  0  0  0  0  0  0  0  0
   -0.2850    9.4350   19.6640 H   0  0  0  0  0  0  0  0  0  0  0  0
    0.4460   11.2300   19.1060 C   0  0  0  0  0  0  0  0  0  0  0  0
    1.4650   11.5180   19.3930 H   0  0  0  0  0  0  0  0  0  0  0  0
    0.1880   11.7560   18.1800 H   0  0  0  0  0  0  0  0  0  0  0  0
   -1.6560   11.9020   21.9830 N   0  0  0  0  0  0  0  0  0  0  0  0
   -0.6860   11.1130   21.4440 C   0  0  0  0  0  0  0  0  0  0  0  0
   -0.4960   11.6370   20.1830 C   0  0  0  0  0  0  0  0  0  0  0  0
   -1.3440   12.7040   20.0110 N   0  0  0  0  0  0  0  0  0  0  0  0
   -2.0540   12.8520   21.1220 N   0  0  0  0  0  0  0  0  0  0  0  0
   -0.2220   10.2940   21.9750 H   0  0  0  0  0  0  0  0  0  0  0  0
   -2.2470   11.8180   23.2910 C   0  0  0  0  0  0  0  0  0  0  0  0
   -1.4640   11.6280   24.0300 H   0  0  0  0  0  0  0  0  0  0  0  0
   -2.9690   10.9970   23.2950 H   0  0  0  0  0  0  0  0  0  0  0  0
   -2.7430   12.7680   23.5100 H   0  0  0  0  0  0  0  0  0  0  0  0
    1.6450    8.1990   21.3300 O   0  0  0  0  0  0  0  0  0  0  0  0
    1.9900    7.4170   21.7940 H   0  0  0  0  0  0  0  0  0  0  0  0
  1  6  1  1  0  0  0
  1  5  1  0  0  0  0
  2  3  1  0  0  0  0
  2  1  1  0  0  0  0
  3  9  1  1  0  0  0
  3  4  1  0  0  0  0
  4  5  1  0  0  0  0
  4 10  1  0  0  0  0
  5 12  1  6  0  0  0
  5 49  1  0  0  0  0
  7  2  1  0  0  0  0
  8  2  1  0  0  0  0
 11  4  1  0  0  0  0
 13 16  1  0  0  0  0
 13  3  1  0  0  0  0
 14 13  1  0  0  0  0
 15 13  1  0  0  0  0
 16 20  1  0  0  0  0
 17 16  1  0  0  0  0
 17 18  2  0  0  0  0
 18 19  1  0  0  0  0
 20 19  2  0  0  0  0
 20 23  1  0  0  0  0
 21 17  1  0  0  0  0
 22 18  1  0  0  0  0
 23 28  1  0  0  0  0
 24 25  1  0  0  0  0
 24 23  2  0  0  0  0
 25 26  2  0  0  0  0
 26 31  1  0  0  0  0
 26 27  1  0  0  0  0
 27 32  1  0  0  0  0
 28 27  2  0  0  0  0
 28 33  1  0  0  0  0
 29 24  1  0  0  0  0
 30 25  1  0  0  0  0
 34  1  1  0  0  0  0
 34 36  1  0  0  0  0
 34 35  1  0  0  0  0
 36 37  1  0  0  0  0
 36 41  1  0  0  0  0
 38 36  1  0  0  0  0
 39 45  1  0  0  0  0
 40 44  1  0  0  0  0
 40 39  1  0  0  0  0
 41 40  2  0  0  0  0
 42 41  1  0  0  0  0
 42 43  2  0  0  0  0
 43 39  1  0  0  0  0
 45 47  1  0  0  0  0
 45 48  1  0  0  0  0
 45 46  1  0  0  0  0
 49 50  1  0  0  0  0
M  END
>  <MODEL>
21

>  <REMARK>
 VINA RESULT:    -6.574      3.829      6.779
 INTER + INTRA:         -10.094
 INTER:                  -9.094
 INTRA:                  -1.000
 UNBOUND:                -0.830
  Name = 
  8 active torsions:
  status: ('A' for Active; 'I' for Inactive)
    1  A    between atoms: C_1  and  N_2
    2  A    between atoms: C_4  and  C_5
    3  A    between atoms: C_5  and  N_6
    4  A    between atoms: N_6  and  C_7
    5  A    between atoms: C_9  and  C_10
    6  A    between atoms: C_10  and  N_11
    7  A    between atoms: C_15  and  C_16
    8  A    between atoms: C_23  and  O_24
                            x       y       z     vdW  Elec       q    Type
                         _______ _______ _______ _____ _____    ______ ____

>  <TORSDO>
F 8

$$$$
=
 OpenBabel07192307433D

 50 53  0  0  1  0  0  0  0  0999 V2000
    2.7920    5.9160   19.7540 C   0  0  2  0  0  0  0  0  0  0  0  0
    3.4750    6.6670   18.6120 C   0  0  0  0  0  0  0  0  0  0  0  0
    3.9270    5.5300   17.6910 C   0  0  1  0  0  0  0  0  0  0  0  0
    2.7850    4.5000   17.7600 C   0  0  0  0  0  0  0  0  0  0  0  0
    1.9500    4.8750   18.9900 C   0  0  1  0  0  0  0  0  0  0  0  0
    3.5360    5.3890   20.3680 H   0  0  0  0  0  0  0  0  0  0  0  0
    2.7690    7.3300   18.0970 H   0  0  0  0  0  0  0  0  0  0  0  0
    4.3240    7.2670   18.9520 H   0  0  0  0  0  0  0  0  0  0  0  0
    4.8190    5.0690   18.1350 H   0  0  0  0  0  0  0  0  0  0  0  0
    3.1820    3.4810   17.8200 H   0  0  0  0  0  0  0  0  0  0  0  0
    2.1480    4.5470   16.8690 H   0  0  0  0  0  0  0  0  0  0  0  0
    0.9910    5.2960   18.6620 H   0  0  0  0  0  0  0  0  0  0  0  0
    4.2500    6.0180   16.2790 C   0  0  0  0  0  0  0  0  0  0  0  0
    3.3580    6.0020   15.6420 H   0  0  0  0  0  0  0  0  0  0  0  0
    4.6000    7.0570   16.2990 H   0  0  0  0  0  0  0  0  0  0  0  0
    5.2720    5.2240   15.6190 N   0  0  0  0  0  0  0  0  0  0  0  0
    5.0740    4.4540   14.5050 C   0  0  0  0  0  0  0  0  0  0  0  0
    6.3030    3.9180   14.2180 C   0  0  0  0  0  0  0  0  0  0  0  0
    7.2410    4.3510   15.1160 N   0  0  0  0  0  0  0  0  0  0  0  0
    6.6070    5.1450   15.9580 C   0  0  0  0  0  0  0  0  0  0  0  0
    4.1100    4.3490   14.0270 H   0  0  0  0  0  0  0  0  0  0  0  0
    6.5660    3.2450   13.4110 H   0  0  0  0  0  0  0  0  0  0  0  0
    7.2230    5.8440   17.0800 C   0  0  0  0  0  0  0  0  0  0  0  0
    7.5510    5.1470   18.2490 C   0  0  0  0  0  0  0  0  0  0  0  0
    8.1500    5.8110   19.3210 C   0  0  0  0  0  0  0  0  0  0  0  0
    8.4200    7.1760   19.2300 C   0  0  0  0  0  0  0  0  0  0  0  0
    8.0840    7.8810   18.0720 C   0  0  0  0  0  0  0  0  0  0  0  0
    7.4810    7.2180   17.0030 C   0  0  0  0  0  0  0  0  0  0  0  0
    7.3300    4.0850   18.3300 H   0  0  0  0  0  0  0  0  0  0  0  0
    8.3960    5.2660   20.2280 H   0  0  0  0  0  0  0  0  0  0  0  0
    8.8800    7.6960   20.0670 H   0  0  0  0  0  0  0  0  0  0  0  0
    8.2830    8.9480   18.0080 H   0  0  0  0  0  0  0  0  0  0  0  0
    7.2000    7.7770   16.1130 H   0  0  0  0  0  0  0  0  0  0  0  0
    1.9630    6.7580   20.6210 N   0  0  0  0  0  0  0  0  0  0  0  0
    2.4650    6.9370   21.4920 H   0  0  0  0  0  0  0  0  0  0  0  0
    1.6840    8.0660   20.0150 C   0  0  0  0  0  0  0  0  0  0  0  0
    2.6110    8.5640   19.7080 H   0  0  0  0  0  0  0  0  0  0  0  0
    1.0420    7.9590   19.1340 H   0  0  0  0  0  0  0  0  0  0  0  0
   -0.2520   10.2730   22.1430 N   0  0  0  0  0  0  0  0  0  0  0  0
    0.0040    9.8560   20.8730 C   0  0  0  0  0  0  0  0  0  0  0  0
    0.9920    8.9080   21.0290 C   0  0  0  0  0  0  0  0  0  0  0  0
    1.2910    8.7900   22.3640 N   0  0  0  0  0  0  0  0  0  0  0  0
    0.5240    9.6380   23.0370 N   0  0  0  0  0  0  0  0  0  0  0  0
   -0.5180   10.2350   20.0060 H   0  0  0  0  0  0  0  0  0  0  0  0
   -1.2050   11.2550   22.5830 C   0  0  0  0  0  0  0  0  0  0  0  0
   -0.6770   12.1690   22.8690 H   0  0  0  0  0  0  0  0  0  0  0  0
   -1.7460   10.8540   23.4450 H   0  0  0  0  0  0  0  0  0  0  0  0
   -1.8940   11.4650   21.7600 H   0  0  0  0  0  0  0  0  0  0  0  0
    1.6870    3.7280   19.7820 O   0  0  0  0  0  0  0  0  0  0  0  0
    2.3100    3.0370   19.4980 H   0  0  0  0  0  0  0  0  0  0  0  0
  1  6  1  1  0  0  0
  1 34  1  0  0  0  0
  2  8  1  0  0  0  0
  2  1  1  0  0  0  0
  3  4  1  0  0  0  0
  3  9  1  1  0  0  0
  3  2  1  0  0  0  0
  4 10  1  0  0  0  0
  4  5  1  0  0  0  0
  5 12  1  6  0  0  0
  5  1  1  0  0  0  0
  5 49  1  0  0  0  0
  7  2  1  0  0  0  0
 11  4  1  0  0  0  0
 13 15  1  0  0  0  0
 13  3  1  0  0  0  0
 14 13  1  0  0  0  0
 16 20  1  0  0  0  0
 16 13  1  0  0  0  0
 17 16  1  0  0  0  0
 18 17  2  0  0  0  0
 18 19  1  0  0  0  0
 19 20  2  0  0  0  0
 20 23  1  0  0  0  0
 21 17  1  0  0  0  0
 22 18  1  0  0  0  0
 23 24  1  0  0  0  0
 24 29  1  0  0  0  0
 24 25  2  0  0  0  0
 25 30  1  0  0  0  0
 26 25  1  0  0  0  0
 26 31  1  0  0  0  0
 27 26  2  0  0  0  0
 28 23  2  0  0  0  0
 28 27  1  0  0  0  0
 32 27  1  0  0  0  0
 33 28  1  0  0  0  0
 34 35  1  0  0  0  0
 36 34  1  0  0  0  0
 36 41  1  0  0  0  0
 37 36  1  0  0  0  0
 38 36  1  0  0  0  0
 39 45  1  0  0  0  0
 39 43  1  0  0  0  0
 40 41  2  0  0  0  0
 40 39  1  0  0  0  0
 41 42  1  0  0  0  0
 42 43  2  0  0  0  0
 44 40  1  0  0  0  0
 45 46  1  0  0  0  0
 45 47  1  0  0  0  0
 48 45  1  0  0  0  0
 50 49  1  0  0  0  0
M  END
>  <MODEL>
22

>  <REMARK>
 VINA RESULT:    -6.571      3.777      6.924
 INTER + INTRA:         -10.090
 INTER:                  -9.072
 INTRA:                  -1.018
 UNBOUND:                -0.830
  Name = 
  8 active torsions:
  status: ('A' for Active; 'I' for Inactive)
    1  A    between atoms: C_1  and  N_2
    2  A    between atoms: C_4  and  C_5
    3  A    between atoms: C_5  and  N_6
    4  A    between atoms: N_6  and  C_7
    5  A    between atoms: C_9  and  C_10
    6  A    between atoms: C_10  and  N_11
    7  A    between atoms: C_15  and  C_16
    8  A    between atoms: C_23  and  O_24
                            x       y       z     vdW  Elec       q    Type
                         _______ _______ _______ _____ _____    ______ ____

>  <TORSDO>
F 8

$$$$
=
 OpenBabel07192307433D

 50 53  0  0  1  0  0  0  0  0999 V2000
    1.9140    8.7170   19.2730 C   0  0  2  0  0  0  0  0  0  0  0  0
    1.9420    7.7510   18.0900 C   0  0  0  0  0  0  0  0  0  0  0  0
    2.6320    6.5190   18.6830 C   0  0  1  0  0  0  0  0  0  0  0  0
    2.0910    6.4300   20.1210 C   0  0  0  0  0  0  0  0  0  0  0  0
    1.4620    7.7950   20.4230 C   0  0  1  0  0  0  0  0  0  0  0  0
    2.9250    9.0880   19.4920 H   0  0  0  0  0  0  0  0  0  0  0  0
    0.9270    7.5070   17.7530 H   0  0  0  0  0  0  0  0  0  0  0  0
    2.5000    8.1480   17.2360 H   0  0  0  0  0  0  0  0  0  0  0  0
    3.7080    6.7300   18.7440 H   0  0  0  0  0  0  0  0  0  0  0  0
    2.8920    6.1750   20.8230 H   0  0  0  0  0  0  0  0  0  0  0  0
    1.3220    5.6540   20.2140 H   0  0  0  0  0  0  0  0  0  0  0  0
    0.3690    7.6920   20.4510 H   0  0  0  0  0  0  0  0  0  0  0  0
    2.4010    5.2620   17.8440 C   0  0  0  0  0  0  0  0  0  0  0  0
    1.3350    5.1240   17.6260 H   0  0  0  0  0  0  0  0  0  0  0  0
    2.9090    5.3430   16.8760 H   0  0  0  0  0  0  0  0  0  0  0  0
    2.8750    4.0500   18.4880 N   0  0  0  0  0  0  0  0  0  0  0  0
    2.0750    3.0500   18.9730 C   0  0  0  0  0  0  0  0  0  0  0  0
    2.9410    2.1040   19.4580 C   0  0  0  0  0  0  0  0  0  0  0  0
    4.2390    2.4930   19.2700 N   0  0  0  0  0  0  0  0  0  0  0  0
    4.1880    3.6720   18.6790 C   0  0  0  0  0  0  0  0  0  0  0  0
    0.9950    3.0930   18.9380 H   0  0  0  0  0  0  0  0  0  0  0  0
    2.7000    1.1590   19.9310 H   0  0  0  0  0  0  0  0  0  0  0  0
    5.3470    4.4610   18.2770 C   0  0  0  0  0  0  0  0  0  0  0  0
    6.0690    5.1880   19.2310 C   0  0  0  0  0  0  0  0  0  0  0  0
    7.1850    5.9360   18.8510 C   0  0  0  0  0  0  0  0  0  0  0  0
    7.5810    5.9640   17.5140 C   0  0  0  0  0  0  0  0  0  0  0  0
    6.8590    5.2520   16.5550 C   0  0  0  0  0  0  0  0  0  0  0  0
    5.7410    4.5080   16.9340 C   0  0  0  0  0  0  0  0  0  0  0  0
    5.7560    5.1810   20.2720 H   0  0  0  0  0  0  0  0  0  0  0  0
    7.7370    6.5040   19.5950 H   0  0  0  0  0  0  0  0  0  0  0  0
    8.4450    6.5520   17.2160 H   0  0  0  0  0  0  0  0  0  0  0  0
    7.1610    5.2850   15.5110 H   0  0  0  0  0  0  0  0  0  0  0  0
    5.1680    3.9750   16.1790 H   0  0  0  0  0  0  0  0  0  0  0  0
    1.0100    9.8570   19.1010 N   0  0  0  0  0  0  0  0  0  0  0  0
    0.6940   10.1740   20.0190 H   0  0  0  0  0  0  0  0  0  0  0  0
    1.6780   11.0000   18.4640 C   0  0  0  0  0  0  0  0  0  0  0  0
    2.7680   10.8990   18.5180 H   0  0  0  0  0  0  0  0  0  0  0  0
    1.3910   11.0810   17.4100 H   0  0  0  0  0  0  0  0  0  0  0  0
    0.8870   13.8380   20.5770 N   0  0  0  0  0  0  0  0  0  0  0  0
    1.4430   12.5980   20.5030 C   0  0  0  0  0  0  0  0  0  0  0  0
    1.2670   12.2360   19.1840 C   0  0  0  0  0  0  0  0  0  0  0  0
    0.6210   13.2530   18.5240 N   0  0  0  0  0  0  0  0  0  0  0  0
    0.3890   14.2280   19.3930 N   0  0  0  0  0  0  0  0  0  0  0  0
    1.9080   12.1020   21.3420 H   0  0  0  0  0  0  0  0  0  0  0  0
    0.7920   14.7030   21.7210 C   0  0  0  0  0  0  0  0  0  0  0  0
    0.7930   15.7450   21.3880 H   0  0  0  0  0  0  0  0  0  0  0  0
    1.6530   14.5190   22.3700 H   0  0  0  0  0  0  0  0  0  0  0  0
   -0.1410   14.4820   22.2490 H   0  0  0  0  0  0  0  0  0  0  0  0
    1.8970    8.2760   21.6840 O   0  0  0  0  0  0  0  0  0  0  0  0
    2.3250    7.5320   22.1420 H   0  0  0  0  0  0  0  0  0  0  0  0
  1  6  1  1  0  0  0
  1  5  1  0  0  0  0
  2  3  1  0  0  0  0
  2  1  1  0  0  0  0
  3  9  1  1  0  0  0
  3  4  1  0  0  0  0
  4 11  1  0  0  0  0
  4  5  1  0  0  0  0
  4 10  1  0  0  0  0
  5 12  1  6  0  0  0
  5 49  1  0  0  0  0
  7  2  1  0  0  0  0
  8  2  1  0  0  0  0
 13 16  1  0  0  0  0
 13  3  1  0  0  0  0
 14 13  1  0  0  0  0
 15 13  1  0  0  0  0
 16 20  1  0  0  0  0
 16 17  1  0  0  0  0
 17 18  2  0  0  0  0
 18 22  1  0  0  0  0
 19 18  1  0  0  0  0
 20 19  2  0  0  0  0
 21 17  1  0  0  0  0
 23 20  1  0  0  0  0
 23 24  1  0  0  0  0
 24 29  1  0  0  0  0
 25 24  2  0  0  0  0
 25 30  1  0  0  0  0
 26 25  1  0  0  0  0
 27 28  1  0  0  0  0
 27 26  2  0  0  0  0
 28 23  2  0  0  0  0
 31 26  1  0  0  0  0
 32 27  1  0  0  0  0
 33 28  1  0  0  0  0
 34  1  1  0  0  0  0
 34 35  1  0  0  0  0
 36 37  1  0  0  0  0
 36 34  1  0  0  0  0
 36 41  1  0  0  0  0
 38 36  1  0  0  0  0
 39 45  1  0  0  0  0
 40 39  1  0  0  0  0
 40 44  1  0  0  0  0
 41 40  2  0  0  0  0
 42 41  1  0  0  0  0
 42 43  2  0  0  0  0
 43 39  1  0  0  0  0
 45 48  1  0  0  0  0
 45 47  1  0  0  0  0
 46 45  1  0  0  0  0
 49 50  1  0  0  0  0
M  END
>  <MODEL>
23

>  <REMARK>
 VINA RESULT:    -6.547      4.280      6.378
 INTER + INTRA:         -10.057
 INTER:                  -9.189
 INTRA:                  -0.869
 UNBOUND:                -0.830
  Name = 
  8 active torsions:
  status: ('A' for Active; 'I' for Inactive)
    1  A    between atoms: C_1  and  N_2
    2  A    between atoms: C_4  and  C_5
    3  A    between atoms: C_5  and  N_6
    4  A    between atoms: N_6  and  C_7
    5  A    between atoms: C_9  and  C_10
    6  A    between atoms: C_10  and  N_11
    7  A    between atoms: C_15  and  C_16
    8  A    between atoms: C_23  and  O_24
                            x       y       z     vdW  Elec       q    Type
                         _______ _______ _______ _____ _____    ______ ____

>  <TORSDO>
F 8

$$$$
=
 OpenBabel07192307433D

 50 53  0  0  1  0  0  0  0  0999 V2000
    2.3830    7.2940   20.1750 C   0  0  2  0  0  0  0  0  0  0  0  0
    1.1720    8.1470   20.5530 C   0  0  0  0  0  0  0  0  0  0  0  0
    1.2290    9.2800   19.5250 C   0  0  1  0  0  0  0  0  0  0  0  0
    1.6900    8.5970   18.2240 C   0  0  0  0  0  0  0  0  0  0  0  0
    2.2610    7.2360   18.6390 C   0  0  1  0  0  0  0  0  0  0  0  0
    3.3160    7.8130   20.4380 H   0  0  0  0  0  0  0  0  0  0  0  0
    0.2400    7.5760   20.4560 H   0  0  0  0  0  0  0  0  0  0  0  0
    1.2330    8.5320   21.5760 H   0  0  0  0  0  0  0  0  0  0  0  0
    2.0190    9.9780   19.8330 H   0  0  0  0  0  0  0  0  0  0  0  0
    2.4250    9.2160   17.6990 H   0  0  0  0  0  0  0  0  0  0  0  0
    0.8510    8.4380   17.5360 H   0  0  0  0  0  0  0  0  0  0  0  0
    1.5720    6.4420   18.3200 H   0  0  0  0  0  0  0  0  0  0  0  0
   -0.1000   10.0270   19.4080 C   0  0  0  0  0  0  0  0  0  0  0  0
   -0.7560    9.5510   18.6690 H   0  0  0  0  0  0  0  0  0  0  0  0
   -0.6390   10.0090   20.3620 H   0  0  0  0  0  0  0  0  0  0  0  0
    0.0580   11.4170   19.0190 N   0  0  0  0  0  0  0  0  0  0  0  0
    1.1990   12.1560   19.1830 C   0  0  0  0  0  0  0  0  0  0  0  0
    0.9070   13.3860   18.6510 C   0  0  0  0  0  0  0  0  0  0  0  0
   -0.3700   13.4100   18.1590 N   0  0  0  0  0  0  0  0  0  0  0  0
   -0.8750   12.2110   18.3840 C   0  0  0  0  0  0  0  0  0  0  0  0
    2.0910   11.7640   19.6500 H   0  0  0  0  0  0  0  0  0  0  0  0
    1.5480   14.2570   18.5930 H   0  0  0  0  0  0  0  0  0  0  0  0
   -2.2170   11.7810   18.0110 C   0  0  0  0  0  0  0  0  0  0  0  0
   -2.4440   11.1870   16.7640 C   0  0  0  0  0  0  0  0  0  0  0  0
   -3.7260   10.7640   16.4080 C   0  0  0  0  0  0  0  0  0  0  0  0
   -4.7870   10.9370   17.2950 C   0  0  0  0  0  0  0  0  0  0  0  0
   -4.5710   11.5390   18.5360 C   0  0  0  0  0  0  0  0  0  0  0  0
   -3.2900   11.9660   18.8910 C   0  0  0  0  0  0  0  0  0  0  0  0
   -1.6230   11.0640   16.0620 H   0  0  0  0  0  0  0  0  0  0  0  0
   -3.8980   10.3110   15.4350 H   0  0  0  0  0  0  0  0  0  0  0  0
   -5.7870   10.6150   17.0160 H   0  0  0  0  0  0  0  0  0  0  0  0
   -5.4020   11.6850   19.2220 H   0  0  0  0  0  0  0  0  0  0  0  0
   -3.1330   12.4560   19.8490 H   0  0  0  0  0  0  0  0  0  0  0  0
    2.3910    5.9570   20.7730 N   0  0  0  0  0  0  0  0  0  0  0  0
    2.3710    6.0460   21.7910 H   0  0  0  0  0  0  0  0  0  0  0  0
    1.2080    5.1750   20.3920 C   0  0  0  0  0  0  0  0  0  0  0  0
    0.5820    4.9550   21.2660 H   0  0  0  0  0  0  0  0  0  0  0  0
    0.5990    5.7190   19.6610 H   0  0  0  0  0  0  0  0  0  0  0  0
    2.7390    2.2580   18.8790 N   0  0  0  0  0  0  0  0  0  0  0  0
    2.8890    3.5630   19.2350 C   0  0  0  0  0  0  0  0  0  0  0  0
    1.6720    3.8950   19.7920 C   0  0  0  0  0  0  0  0  0  0  0  0
    0.8480    2.7970   19.7510 N   0  0  0  0  0  0  0  0  0  0  0  0
    1.5140    1.8000   19.1830 N   0  0  0  0  0  0  0  0  0  0  0  0
    3.8020    4.1200   19.0860 H   0  0  0  0  0  0  0  0  0  0  0  0
    3.7010    1.3900   18.2550 C   0  0  0  0  0  0  0  0  0  0  0  0
    4.7080    1.7730   18.4390 H   0  0  0  0  0  0  0  0  0  0  0  0
    3.5030    1.3660   17.1790 H   0  0  0  0  0  0  0  0  0  0  0  0
    3.5980    0.3890   18.6870 H   0  0  0  0  0  0  0  0  0  0  0  0
    3.5170    7.0130   18.0210 O   0  0  0  0  0  0  0  0  0  0  0  0
    3.6300    6.0500   17.9440 H   0  0  0  0  0  0  0  0  0  0  0  0
  1  6  1  1  0  0  0
  1  2  1  0  0  0  0
  1 34  1  0  0  0  0
  2  8  1  0  0  0  0
  3  9  1  1  0  0  0
  3  2  1  0  0  0  0
  4  5  1  0  0  0  0
  4  3  1  0  0  0  0
  5 12  1  6  0  0  0
  5  1  1  0  0  0  0
  7  2  1  0  0  0  0
 10  4  1  0  0  0  0
 11  4  1  0  0  0  0
 13  3  1  0  0  0  0
 13 15  1  0  0  0  0
 14 13  1  0  0  0  0
 16 17  1  0  0  0  0
 16 13  1  0  0  0  0
 17 21  1  0  0  0  0
 18 17  2  0  0  0  0
 19 20  2  0  0  0  0
 19 18  1  0  0  0  0
 20 16  1  0  0  0  0
 22 18  1  0  0  0  0
 23 20  1  0  0  0  0
 23 28  1  0  0  0  0
 24 23  2  0  0  0  0
 25 24  1  0  0  0  0
 25 26  2  0  0  0  0
 26 27  1  0  0  0  0
 27 28  2  0  0  0  0
 27 32  1  0  0  0  0
 28 33  1  0  0  0  0
 29 24  1  0  0  0  0
 30 25  1  0  0  0  0
 31 26  1  0  0  0  0
 34 35  1  0  0  0  0
 36 34  1  0  0  0  0
 36 37  1  0  0  0  0
 38 36  1  0  0  0  0
 39 43  1  0  0  0  0
 39 40  1  0  0  0  0
 40 41  2  0  0  0  0
 41 36  1  0  0  0  0
 42 41  1  0  0  0  0
 43 42  2  0  0  0  0
 44 40  1  0  0  0  0
 45 46  1  0  0  0  0
 45 48  1  0  0  0  0
 45 39  1  0  0  0  0
 47 45  1  0  0  0  0
 49  5  1  0  0  0  0
 50 49  1  0  0  0  0
M  END
>  <MODEL>
24

>  <REMARK>
 VINA RESULT:    -6.521      5.064      8.561
 INTER + INTRA:         -10.020
 INTER:                  -9.146
 INTRA:                  -0.875
 UNBOUND:                -0.830
  Name = 
  8 active torsions:
  status: ('A' for Active; 'I' for Inactive)
    1  A    between atoms: C_1  and  N_2
    2  A    between atoms: C_4  and  C_5
    3  A    between atoms: C_5  and  N_6
    4  A    between atoms: N_6  and  C_7
    5  A    between atoms: C_9  and  C_10
    6  A    between atoms: C_10  and  N_11
    7  A    between atoms: C_15  and  C_16
    8  A    between atoms: C_23  and  O_24
                            x       y       z     vdW  Elec       q    Type
                         _______ _______ _______ _____ _____    ______ ____

>  <TORSDO>
F 8

$$$$
=
 OpenBabel07192307433D

 50 53  0  0  1  0  0  0  0  0999 V2000
    6.6930    5.2250   17.1860 C   0  0  2  0  0  0  0  0  0  0  0  0
    5.5510    4.3080   17.6200 C   0  0  0  0  0  0  0  0  0  0  0  0
    5.8140    4.1360   19.1190 C   0  0  1  0  0  0  0  0  0  0  0  0
    6.3110    5.5170   19.5840 C   0  0  0  0  0  0  0  0  0  0  0  0
    6.6990    6.2790   18.3120 C   0  0  1  0  0  0  0  0  0  0  0  0
    7.6490    4.6830   17.2020 H   0  0  0  0  0  0  0  0  0  0  0  0
    4.5760    4.7810   17.4460 H   0  0  0  0  0  0  0  0  0  0  0  0
    5.5630    3.3460   17.0990 H   0  0  0  0  0  0  0  0  0  0  0  0
    6.6440    3.4260   19.2370 H   0  0  0  0  0  0  0  0  0  0  0  0
    7.1500    5.4140   20.2810 H   0  0  0  0  0  0  0  0  0  0  0  0
    5.5230    6.0720   20.1060 H   0  0  0  0  0  0  0  0  0  0  0  0
    5.9610    7.0710   18.1250 H   0  0  0  0  0  0  0  0  0  0  0  0
    4.5860    3.6220   19.8700 C   0  0  0  0  0  0  0  0  0  0  0  0
    4.8310    2.7370   20.4700 H   0  0  0  0  0  0  0  0  0  0  0  0
    4.2150    4.3810   20.5700 H   0  0  0  0  0  0  0  0  0  0  0  0
    3.4870    3.2630   18.9910 N   0  0  0  0  0  0  0  0  0  0  0  0
    3.3030    2.0310   18.4240 C   0  0  0  0  0  0  0  0  0  0  0  0
    2.1380    2.1380   17.7080 C   0  0  0  0  0  0  0  0  0  0  0  0
    1.6050    3.3920   17.8350 N   0  0  0  0  0  0  0  0  0  0  0  0
    2.4290    4.0650   18.6170 C   0  0  0  0  0  0  0  0  0  0  0  0
    3.9910    1.2090   18.5670 H   0  0  0  0  0  0  0  0  0  0  0  0
    1.6510    1.3780   17.1090 H   0  0  0  0  0  0  0  0  0  0  0  0
    2.2470    5.4510   19.0340 C   0  0  0  0  0  0  0  0  0  0  0  0
    1.7780    5.7420   20.3210 C   0  0  0  0  0  0  0  0  0  0  0  0
    1.6130    7.0670   20.7270 C   0  0  0  0  0  0  0  0  0  0  0  0
    1.9130    8.1070   19.8480 C   0  0  0  0  0  0  0  0  0  0  0  0
    2.3700    7.8240   18.5590 C   0  0  0  0  0  0  0  0  0  0  0  0
    2.5310    6.4990   18.1510 C   0  0  0  0  0  0  0  0  0  0  0  0
    1.5290    4.9340   21.0050 H   0  0  0  0  0  0  0  0  0  0  0  0
    1.2410    7.2870   21.7240 H   0  0  0  0  0  0  0  0  0  0  0  0
    1.7780    9.1390   20.1610 H   0  0  0  0  0  0  0  0  0  0  0  0
    2.5910    8.6360   17.8700 H   0  0  0  0  0  0  0  0  0  0  0  0
    2.8640    6.2850   17.1380 H   0  0  0  0  0  0  0  0  0  0  0  0
    6.5100    5.8370   15.8670 N   0  0  0  0  0  0  0  0  0  0  0  0
    6.5390    6.8540   15.9630 H   0  0  0  0  0  0  0  0  0  0  0  0
    7.5820    5.4690   14.9340 C   0  0  0  0  0  0  0  0  0  0  0  0
    8.0910    6.3600   14.5460 H   0  0  0  0  0  0  0  0  0  0  0  0
    8.3270    4.8340   15.4260 H   0  0  0  0  0  0  0  0  0  0  0  0
    5.7330    3.6090   12.4310 N   0  0  0  0  0  0  0  0  0  0  0  0
    5.7520    4.0890   13.7040 C   0  0  0  0  0  0  0  0  0  0  0  0
    6.9730    4.7240   13.7990 C   0  0  0  0  0  0  0  0  0  0  0  0
    7.6320    4.6040   12.6000 N   0  0  0  0  0  0  0  0  0  0  0  0
    6.8620    3.9130   11.7700 N   0  0  0  0  0  0  0  0  0  0  0  0
    4.9370    3.9620   14.4000 H   0  0  0  0  0  0  0  0  0  0  0  0
    4.6920    2.8640   11.7760 C   0  0  0  0  0  0  0  0  0  0  0  0
    4.7700    1.8100   12.0580 H   0  0  0  0  0  0  0  0  0  0  0  0
    4.8150    2.9690   10.6940 H   0  0  0  0  0  0  0  0  0  0  0  0
    3.7240    3.2640   12.0940 H   0  0  0  0  0  0  0  0  0  0  0  0
    7.9730    6.8820   18.4600 O   0  0  0  0  0  0  0  0  0  0  0  0
    7.8570    7.6530   19.0430 H   0  0  0  0  0  0  0  0  0  0  0  0
  1  6  1  1  0  0  0
  1  2  1  0  0  0  0
  1  5  1  0  0  0  0
  2  3  1  0  0  0  0
  3  9  1  1  0  0  0
  3  4  1  0  0  0  0
  3 13  1  0  0  0  0
  4 11  1  0  0  0  0
  4 10  1  0  0  0  0
  5 12  1  6  0  0  0
  5 49  1  0  0  0  0
  5  4  1  0  0  0  0
  7  2  1  0  0  0  0
  8  2  1  0  0  0  0
 13 14  1  0  0  0  0
 13 15  1  0  0  0  0
 16 13  1  0  0  0  0
 17 21  1  0  0  0  0
 17 16  1  0  0  0  0
 18 19  1  0  0  0  0
 18 17  2  0  0  0  0
 19 20  2  0  0  0  0
 20 16  1  0  0  0  0
 20 23  1  0  0  0  0
 22 18  1  0  0  0  0
 23 24  1  0  0  0  0
 24 25  2  0  0  0  0
 24 29  1  0  0  0  0
 25 30  1  0  0  0  0
 26 31  1  0  0  0  0
 26 25  1  0  0  0  0
 27 26  2  0  0  0  0
 28 27  1  0  0  0  0
 28 23  2  0  0  0  0
 32 27  1  0  0  0  0
 33 28  1  0  0  0  0
 34 35  1  0  0  0  0
 34  1  1  0  0  0  0
 36 38  1  0  0  0  0
 36 34  1  0  0  0  0
 37 36  1  0  0  0  0
 39 40  1  0  0  0  0
 40 41  2  0  0  0  0
 40 44  1  0  0  0  0
 41 36  1  0  0  0  0
 42 41  1  0  0  0  0
 43 39  1  0  0  0  0
 43 42  2  0  0  0  0
 45 46  1  0  0  0  0
 45 48  1  0  0  0  0
 45 39  1  0  0  0  0
 47 45  1  0  0  0  0
 49 50  1  0  0  0  0
M  END
>  <MODEL>
25

>  <REMARK>
 VINA RESULT:    -6.465      3.626      5.824
 INTER + INTRA:          -9.942
 INTER:                  -8.887
 INTRA:                  -1.054
 UNBOUND:                -0.830
  Name = 
  8 active torsions:
  status: ('A' for Active; 'I' for Inactive)
    1  A    between atoms: C_1  and  N_2
    2  A    between atoms: C_4  and  C_5
    3  A    between atoms: C_5  and  N_6
    4  A    between atoms: N_6  and  C_7
    5  A    between atoms: C_9  and  C_10
    6  A    between atoms: C_10  and  N_11
    7  A    between atoms: C_15  and  C_16
    8  A    between atoms: C_23  and  O_24
                            x       y       z     vdW  Elec       q    Type
                         _______ _______ _______ _____ _____    ______ ____

>  <TORSDO>
F 8

$$$$
=
 OpenBabel07192307433D

 50 53  0  0  1  0  0  0  0  0999 V2000
    2.3690    6.8770   18.5640 C   0  0  2  0  0  0  0  0  0  0  0  0
    2.3970    8.2480   17.8920 C   0  0  0  0  0  0  0  0  0  0  0  0
    1.2920    9.0060   18.6340 C   0  0  1  0  0  0  0  0  0  0  0  0
    1.4120    8.5290   20.0930 C   0  0  0  0  0  0  0  0  0  0  0  0
    2.2680    7.2580   20.0550 C   0  0  1  0  0  0  0  0  0  0  0  0
    1.4620    6.3250   18.2770 H   0  0  0  0  0  0  0  0  0  0  0  0
    3.3690    8.7380   18.0310 H   0  0  0  0  0  0  0  0  0  0  0  0
    2.1920    8.1940   16.8180 H   0  0  0  0  0  0  0  0  0  0  0  0
    0.3240    8.6570   18.2480 H   0  0  0  0  0  0  0  0  0  0  0  0
    0.4220    8.3530   20.5280 H   0  0  0  0  0  0  0  0  0  0  0  0
    1.9120    9.2770   20.7200 H   0  0  0  0  0  0  0  0  0  0  0  0
    3.2560    7.4730   20.4830 H   0  0  0  0  0  0  0  0  0  0  0  0
    1.4030   10.5200   18.4550 C   0  0  0  0  0  0  0  0  0  0  0  0
    2.4430   10.8530   18.5500 H   0  0  0  0  0  0  0  0  0  0  0  0
    1.0690   10.8170   17.4540 H   0  0  0  0  0  0  0  0  0  0  0  0
    0.6150   11.2680   19.4190 N   0  0  0  0  0  0  0  0  0  0  0  0
    1.1160   11.8940   20.5300 C   0  0  0  0  0  0  0  0  0  0  0  0
    0.0330   12.4930   21.1210 C   0  0  0  0  0  0  0  0  0  0  0  0
   -1.1040   12.2610   20.3950 N   0  0  0  0  0  0  0  0  0  0  0  0
   -0.7400   11.5200   19.3650 C   0  0  0  0  0  0  0  0  0  0  0  0
    2.1610   11.8600   20.8020 H   0  0  0  0  0  0  0  0  0  0  0  0
    0.0100   13.0830   22.0290 H   0  0  0  0  0  0  0  0  0  0  0  0
   -1.6330   11.0430   18.3150 C   0  0  0  0  0  0  0  0  0  0  0  0
   -1.7300   11.7390   17.1040 C   0  0  0  0  0  0  0  0  0  0  0  0
   -2.5760   11.2790   16.0930 C   0  0  0  0  0  0  0  0  0  0  0  0
   -3.3320   10.1240   16.2910 C   0  0  0  0  0  0  0  0  0  0  0  0
   -3.2500    9.4320   17.5000 C   0  0  0  0  0  0  0  0  0  0  0  0
   -2.4070    9.8940   18.5120 C   0  0  0  0  0  0  0  0  0  0  0  0
   -1.1540   12.6480   16.9510 H   0  0  0  0  0  0  0  0  0  0  0  0
   -2.6530   11.8270   15.1580 H   0  0  0  0  0  0  0  0  0  0  0  0
   -3.9970    9.7690   15.5070 H   0  0  0  0  0  0  0  0  0  0  0  0
   -3.8500    8.5380   17.6570 H   0  0  0  0  0  0  0  0  0  0  0  0
   -2.3660    9.3640   19.4610 H   0  0  0  0  0  0  0  0  0  0  0  0
    3.5440    6.0460   18.2920 N   0  0  0  0  0  0  0  0  0  0  0  0
    3.2410    5.1670   17.8680 H   0  0  0  0  0  0  0  0  0  0  0  0
    4.4620    6.6830   17.3390 C   0  0  0  0  0  0  0  0  0  0  0  0
    3.9400    7.4310   16.7290 H   0  0  0  0  0  0  0  0  0  0  0  0
    5.2850    7.1800   17.8630 H   0  0  0  0  0  0  0  0  0  0  0  0
    5.8590    4.4340   14.8620 N   0  0  0  0  0  0  0  0  0  0  0  0
    5.4480    5.7010   15.1420 C   0  0  0  0  0  0  0  0  0  0  0  0
    5.0110    5.6250   16.4470 C   0  0  0  0  0  0  0  0  0  0  0  0
    5.1700    4.3380   16.8970 N   0  0  0  0  0  0  0  0  0  0  0  0
    5.6870    3.6150   15.9120 N   0  0  0  0  0  0  0  0  0  0  0  0
    5.5090    6.5170   14.4360 H   0  0  0  0  0  0  0  0  0  0  0  0
    6.4190    3.9310   13.6370 C   0  0  0  0  0  0  0  0  0  0  0  0
    7.2130    3.2160   13.8700 H   0  0  0  0  0  0  0  0  0  0  0  0
    6.8300    4.7710   13.0700 H   0  0  0  0  0  0  0  0  0  0  0  0
    5.6260    3.4350   13.0690 H   0  0  0  0  0  0  0  0  0  0  0  0
    1.6650    6.2280   20.8210 O   0  0  0  0  0  0  0  0  0  0  0  0
    2.0830    6.2440   21.6990 H   0  0  0  0  0  0  0  0  0  0  0  0
  1  6  1  6  0  0  0
  1  5  1  0  0  0  0
  2  7  1  0  0  0  0
  2  1  1  0  0  0  0
  2  3  1  0  0  0  0
  3  9  1  6  0  0  0
  3  4  1  0  0  0  0
  4 10  1  0  0  0  0
  4 11  1  0  0  0  0
  5  4  1  0  0  0  0
  5 12  1  1  0  0  0
  5 49  1  0  0  0  0
  8  2  1  0  0  0  0
 13 14  1  0  0  0  0
 13  3  1  0  0  0  0
 13 16  1  0  0  0  0
 15 13  1  0  0  0  0
 16 17  1  0  0  0  0
 17 21  1  0  0  0  0
 17 18  2  0  0  0  0
 18 22  1  0  0  0  0
 19 18  1  0  0  0  0
 20 16  1  0  0  0  0
 20 19  2  0  0  0  0
 23 28  1  0  0  0  0
 23 20  1  0  0  0  0
 24 23  2  0  0  0  0
 25 26  2  0  0  0  0
 25 24  1  0  0  0  0
 26 27  1  0  0  0  0
 27 32  1  0  0  0  0
 27 28  2  0  0  0  0
 28 33  1  0  0  0  0
 29 24  1  0  0  0  0
 30 25  1  0  0  0  0
 31 26  1  0  0  0  0
 34  1  1  0  0  0  0
 35 34  1  0  0  0  0
 36 38  1  0  0  0  0
 36 34  1  0  0  0  0
 37 36  1  0  0  0  0
 39 40  1  0  0  0  0
 39 43  1  0  0  0  0
 40 41  2  0  0  0  0
 41 42  1  0  0  0  0
 41 36  1  0  0  0  0
 43 42  2  0  0  0  0
 44 40  1  0  0  0  0
 45 46  1  0  0  0  0
 45 39  1  0  0  0  0
 47 45  1  0  0  0  0
 48 45  1  0  0  0  0
 49 50  1  0  0  0  0
M  END
>  <MODEL>
26

>  <REMARK>
 VINA RESULT:    -6.459      4.542      7.156
 INTER + INTRA:          -9.932
 INTER:                  -9.063
 INTRA:                  -0.869
 UNBOUND:                -0.830
  Name = 
  8 active torsions:
  status: ('A' for Active; 'I' for Inactive)
    1  A    between atoms: C_1  and  N_2
    2  A    between atoms: C_4  and  C_5
    3  A    between atoms: C_5  and  N_6
    4  A    between atoms: N_6  and  C_7
    5  A    between atoms: C_9  and  C_10
    6  A    between atoms: C_10  and  N_11
    7  A    between atoms: C_15  and  C_16
    8  A    between atoms: C_23  and  O_24
                            x       y       z     vdW  Elec       q    Type
                         _______ _______ _______ _____ _____    ______ ____

>  <TORSDO>
F 8

$$$$
=
 OpenBabel07192307433D

 50 53  0  0  1  0  0  0  0  0999 V2000
    3.0620    7.3990   18.6750 C   0  0  2  0  0  0  0  0  0  0  0  0
    4.1870    6.6710   17.9390 C   0  0  0  0  0  0  0  0  0  0  0  0
    4.8960    5.9220   19.0710 C   0  0  1  0  0  0  0  0  0  0  0  0
    3.7580    5.4650   20.0010 C   0  0  0  0  0  0  0  0  0  0  0  0
    2.5290    6.2930   19.6090 C   0  0  1  0  0  0  0  0  0  0  0  0
    3.4690    8.2150   19.2880 H   0  0  0  0  0  0  0  0  0  0  0  0
    3.7860    5.9700   17.1970 H   0  0  0  0  0  0  0  0  0  0  0  0
    4.8670    7.3590   17.4280 H   0  0  0  0  0  0  0  0  0  0  0  0
    5.5080    6.6460   19.6250 H   0  0  0  0  0  0  0  0  0  0  0  0
    4.0350    5.6020   21.0520 H   0  0  0  0  0  0  0  0  0  0  0  0
    3.5300    4.4010   19.8640 H   0  0  0  0  0  0  0  0  0  0  0  0
    1.8060    5.6470   19.0940 H   0  0  0  0  0  0  0  0  0  0  0  0
    5.7810    4.7880   18.5540 C   0  0  0  0  0  0  0  0  0  0  0  0
    6.8430    5.0260   18.6830 H   0  0  0  0  0  0  0  0  0  0  0  0
    5.5970    3.8660   19.1170 H   0  0  0  0  0  0  0  0  0  0  0  0
    5.5680    4.4940   17.1480 N   0  0  0  0  0  0  0  0  0  0  0  0
    6.4260    4.8260   16.1340 C   0  0  0  0  0  0  0  0  0  0  0  0
    5.8440    4.3290   14.9960 C   0  0  0  0  0  0  0  0  0  0  0  0
    4.6670    3.6950   15.2910 N   0  0  0  0  0  0  0  0  0  0  0  0
    4.5110    3.7980   16.5980 C   0  0  0  0  0  0  0  0  0  0  0  0
    7.3450    5.3710   16.2970 H   0  0  0  0  0  0  0  0  0  0  0  0
    6.2100    4.3900   13.9780 H   0  0  0  0  0  0  0  0  0  0  0  0
    3.3910    3.2510   17.3560 C   0  0  0  0  0  0  0  0  0  0  0  0
    2.1390    3.8770   17.3110 C   0  0  0  0  0  0  0  0  0  0  0  0
    1.0630    3.3500   18.0270 C   0  0  0  0  0  0  0  0  0  0  0  0
    1.2340    2.1980   18.7940 C   0  0  0  0  0  0  0  0  0  0  0  0
    2.4820    1.5760   18.8530 C   0  0  0  0  0  0  0  0  0  0  0  0
    3.5600    2.1050   18.1410 C   0  0  0  0  0  0  0  0  0  0  0  0
    2.0040    4.7830   16.7260 H   0  0  0  0  0  0  0  0  0  0  0  0
    0.0950    3.8440   17.9950 H   0  0  0  0  0  0  0  0  0  0  0  0
    0.3980    1.7910   19.3580 H   0  0  0  0  0  0  0  0  0  0  0  0
    2.6180    0.6850   19.4620 H   0  0  0  0  0  0  0  0  0  0  0  0
    4.5360    1.6290   18.2100 H   0  0  0  0  0  0  0  0  0  0  0  0
    2.0120    7.9290   17.8020 N   0  0  0  0  0  0  0  0  0  0  0  0
    1.1010    7.6340   18.1590 H   0  0  0  0  0  0  0  0  0  0  0  0
    2.0040    9.3970   17.7780 C   0  0  0  0  0  0  0  0  0  0  0  0
    2.9570    9.8030   18.1380 H   0  0  0  0  0  0  0  0  0  0  0  0
    1.8330    9.7690   16.7620 H   0  0  0  0  0  0  0  0  0  0  0  0
   -0.3540   10.5790   20.2650 N   0  0  0  0  0  0  0  0  0  0  0  0
    0.9250   10.1930   20.0060 C   0  0  0  0  0  0  0  0  0  0  0  0
    0.9070    9.8690   18.6660 C   0  0  0  0  0  0  0  0  0  0  0  0
   -0.3600   10.0660   18.1760 N   0  0  0  0  0  0  0  0  0  0  0  0
   -1.1260   10.4980   19.1700 N   0  0  0  0  0  0  0  0  0  0  0  0
    1.7090   10.1930   20.7500 H   0  0  0  0  0  0  0  0  0  0  0  0
   -0.9120   11.0330   21.5100 C   0  0  0  0  0  0  0  0  0  0  0  0
   -0.8020   10.2480   22.2640 H   0  0  0  0  0  0  0  0  0  0  0  0
   -1.9730   11.2540   21.3570 H   0  0  0  0  0  0  0  0  0  0  0  0
   -0.3740   11.9320   21.8260 H   0  0  0  0  0  0  0  0  0  0  0  0
    1.9040    6.8350   20.7600 O   0  0  0  0  0  0  0  0  0  0  0  0
    0.9630    6.9530   20.5440 H   0  0  0  0  0  0  0  0  0  0  0  0
  1  6  1  1  0  0  0
  1  5  1  0  0  0  0
  2  1  1  0  0  0  0
  2  3  1  0  0  0  0
  3  9  1  1  0  0  0
  3  4  1  0  0  0  0
  4 10  1  0  0  0  0
  5 12  1  6  0  0  0
  5  4  1  0  0  0  0
  5 49  1  0  0  0  0
  7  2  1  0  0  0  0
  8  2  1  0  0  0  0
 11  4  1  0  0  0  0
 13 14  1  0  0  0  0
 13  3  1  0  0  0  0
 13 15  1  0  0  0  0
 16 13  1  0  0  0  0
 17 21  1  0  0  0  0
 17 16  1  0  0  0  0
 18 19  1  0  0  0  0
 18 17  2  0  0  0  0
 19 20  2  0  0  0  0
 20 16  1  0  0  0  0
 20 23  1  0  0  0  0
 22 18  1  0  0  0  0
 23 28  1  0  0  0  0
 24 23  2  0  0  0  0
 24 25  1  0  0  0  0
 25 26  2  0  0  0  0
 26 27  1  0  0  0  0
 26 31  1  0  0  0  0
 27 32  1  0  0  0  0
 28 33  1  0  0  0  0
 28 27  2  0  0  0  0
 29 24  1  0  0  0  0
 30 25  1  0  0  0  0
 34 35  1  0  0  0  0
 34  1  1  0  0  0  0
 36 34  1  0  0  0  0
 36 37  1  0  0  0  0
 36 41  1  0  0  0  0
 38 36  1  0  0  0  0
 39 45  1  0  0  0  0
 40 39  1  0  0  0  0
 40 44  1  0  0  0  0
 41 40  2  0  0  0  0
 42 41  1  0  0  0  0
 42 43  2  0  0  0  0
 43 39  1  0  0  0  0
 45 48  1  0  0  0  0
 45 46  1  0  0  0  0
 47 45  1  0  0  0  0
 50 49  1  0  0  0  0
M  END
>  <MODEL>
27

>  <REMARK>
 VINA RESULT:    -6.444      4.221      5.876
 INTER + INTRA:          -9.911
 INTER:                  -9.094
 INTRA:                  -0.817
 UNBOUND:                -0.830
  Name = 
  8 active torsions:
  status: ('A' for Active; 'I' for Inactive)
    1  A    between atoms: C_1  and  N_2
    2  A    between atoms: C_4  and  C_5
    3  A    between atoms: C_5  and  N_6
    4  A    between atoms: N_6  and  C_7
    5  A    between atoms: C_9  and  C_10
    6  A    between atoms: C_10  and  N_11
    7  A    between atoms: C_15  and  C_16
    8  A    between atoms: C_23  and  O_24
                            x       y       z     vdW  Elec       q    Type
                         _______ _______ _______ _____ _____    ______ ____

>  <TORSDO>
F 8

$$$$
=
 OpenBabel07192307433D

 50 53  0  0  1  0  0  0  0  0999 V2000
    2.3230    7.3310   18.5330 C   0  0  2  0  0  0  0  0  0  0  0  0
    2.3250    8.7270   17.9090 C   0  0  0  0  0  0  0  0  0  0  0  0
    1.1780    9.4230   18.6490 C   0  0  1  0  0  0  0  0  0  0  0  0
    1.2770    8.8980   20.0930 C   0  0  0  0  0  0  0  0  0  0  0  0
    2.1730    7.6560   20.0330 C   0  0  1  0  0  0  0  0  0  0  0  0
    1.4420    6.7640   18.2020 H   0  0  0  0  0  0  0  0  0  0  0  0
    3.2770    9.2410   18.0910 H   0  0  0  0  0  0  0  0  0  0  0  0
    2.1480    8.7050   16.8300 H   0  0  0  0  0  0  0  0  0  0  0  0
    0.2320    9.0590   18.2260 H   0  0  0  0  0  0  0  0  0  0  0  0
    0.2820    8.6760   20.4950 H   0  0  0  0  0  0  0  0  0  0  0  0
    1.7370    9.6380   20.7580 H   0  0  0  0  0  0  0  0  0  0  0  0
    3.1420    7.8860   20.4930 H   0  0  0  0  0  0  0  0  0  0  0  0
    1.2460   10.9450   18.5260 C   0  0  0  0  0  0  0  0  0  0  0  0
    2.2620   11.3110   18.7140 H   0  0  0  0  0  0  0  0  0  0  0  0
    0.9820   11.2640   17.5110 H   0  0  0  0  0  0  0  0  0  0  0  0
    0.3570   11.6330   19.4460 N   0  0  0  0  0  0  0  0  0  0  0  0
    0.7570   12.3450   20.5440 C   0  0  0  0  0  0  0  0  0  0  0  0
   -0.3990   12.8390   21.0910 C   0  0  0  0  0  0  0  0  0  0  0  0
   -1.4860   12.4590   20.3490 N   0  0  0  0  0  0  0  0  0  0  0  0
   -1.0160   11.7310   19.3540 C   0  0  0  0  0  0  0  0  0  0  0  0
    1.7930   12.4360   20.8400 H   0  0  0  0  0  0  0  0  0  0  0  0
   -0.5100   13.4520   21.9770 H   0  0  0  0  0  0  0  0  0  0  0  0
   -1.8250   11.1240   18.3030 C   0  0  0  0  0  0  0  0  0  0  0  0
   -1.8890   11.7150   17.0350 C   0  0  0  0  0  0  0  0  0  0  0  0
   -2.6540   11.1310   16.0240 C   0  0  0  0  0  0  0  0  0  0  0  0
   -3.3610    9.9560   16.2770 C   0  0  0  0  0  0  0  0  0  0  0  0
   -3.3110    9.3670   17.5410 C   0  0  0  0  0  0  0  0  0  0  0  0
   -2.5500    9.9530   18.5540 C   0  0  0  0  0  0  0  0  0  0  0  0
   -1.3520   12.6390   16.8380 H   0  0  0  0  0  0  0  0  0  0  0  0
   -2.7060   11.5980   15.0440 H   0  0  0  0  0  0  0  0  0  0  0  0
   -3.9620    9.5040   15.4920 H   0  0  0  0  0  0  0  0  0  0  0  0
   -3.8730    8.4580   17.7410 H   0  0  0  0  0  0  0  0  0  0  0  0
   -2.5350    9.5040   19.5440 H   0  0  0  0  0  0  0  0  0  0  0  0
    3.5300    6.5470   18.2620 N   0  0  0  0  0  0  0  0  0  0  0  0
    4.0240    6.3800   19.1410 H   0  0  0  0  0  0  0  0  0  0  0  0
    3.2180    5.2300   17.6940 C   0  0  0  0  0  0  0  0  0  0  0  0
    2.4890    5.3160   16.8790 H   0  0  0  0  0  0  0  0  0  0  0  0
    4.1210    4.7510   17.2990 H   0  0  0  0  0  0  0  0  0  0  0  0
    2.2280    3.1740   20.5110 N   0  0  0  0  0  0  0  0  0  0  0  0
    3.2480    3.8060   19.8690 C   0  0  0  0  0  0  0  0  0  0  0  0
    2.6420    4.3840   18.7740 C   0  0  0  0  0  0  0  0  0  0  0  0
    1.3020    4.0840   18.7950 N   0  0  0  0  0  0  0  0  0  0  0  0
    1.0620    3.3360   19.8650 N   0  0  0  0  0  0  0  0  0  0  0  0
    4.2670    3.8070   20.2290 H   0  0  0  0  0  0  0  0  0  0  0  0
    2.2790    2.4090   21.7270 C   0  0  0  0  0  0  0  0  0  0  0  0
    3.1020    1.6910   21.6680 H   0  0  0  0  0  0  0  0  0  0  0  0
    1.3300    1.8760   21.8440 H   0  0  0  0  0  0  0  0  0  0  0  0
    2.4410    3.0940   22.5640 H   0  0  0  0  0  0  0  0  0  0  0  0
    1.5840    6.5810   20.7460 O   0  0  0  0  0  0  0  0  0  0  0  0
    1.3050    6.9310   21.6090 H   0  0  0  0  0  0  0  0  0  0  0  0
  1  6  1  6  0  0  0
  1  5  1  0  0  0  0
  2  7  1  0  0  0  0
  2  1  1  0  0  0  0
  2  3  1  0  0  0  0
  3  9  1  6  0  0  0
  3  4  1  0  0  0  0
  4 10  1  0  0  0  0
  4 11  1  0  0  0  0
  5  4  1  0  0  0  0
  5 12  1  1  0  0  0
  5 49  1  0  0  0  0
  8  2  1  0  0  0  0
 13  3  1  0  0  0  0
 13 14  1  0  0  0  0
 13 16  1  0  0  0  0
 15 13  1  0  0  0  0
 16 17  1  0  0  0  0
 17 21  1  0  0  0  0
 17 18  2  0  0  0  0
 18 22  1  0  0  0  0
 19 18  1  0  0  0  0
 20 16  1  0  0  0  0
 20 19  2  0  0  0  0
 23 28  1  0  0  0  0
 23 20  1  0  0  0  0
 24 23  2  0  0  0  0
 25 26  2  0  0  0  0
 25 24  1  0  0  0  0
 26 27  1  0  0  0  0
 27 32  1  0  0  0  0
 27 28  2  0  0  0  0
 28 33  1  0  0  0  0
 29 24  1  0  0  0  0
 30 25  1  0  0  0  0
 31 26  1  0  0  0  0
 34  1  1  0  0  0  0
 34 35  1  0  0  0  0
 36 34  1  0  0  0  0
 36 41  1  0  0  0  0
 37 36  1  0  0  0  0
 38 36  1  0  0  0  0
 39 45  1  0  0  0  0
 40 44  1  0  0  0  0
 40 39  1  0  0  0  0
 41 42  1  0  0  0  0
 41 40  2  0  0  0  0
 42 43  2  0  0  0  0
 43 39  1  0  0  0  0
 45 47  1  0  0  0  0
 45 48  1  0  0  0  0
 46 45  1  0  0  0  0
 49 50  1  0  0  0  0
M  END
>  <MODEL>
28

>  <REMARK>
 VINA RESULT:    -6.412      4.521      8.041
 INTER + INTRA:          -9.867
 INTER:                  -8.812
 INTRA:                  -1.055
 UNBOUND:                -0.830
  Name = 
  8 active torsions:
  status: ('A' for Active; 'I' for Inactive)
    1  A    between atoms: C_1  and  N_2
    2  A    between atoms: C_4  and  C_5
    3  A    between atoms: C_5  and  N_6
    4  A    between atoms: N_6  and  C_7
    5  A    between atoms: C_9  and  C_10
    6  A    between atoms: C_10  and  N_11
    7  A    between atoms: C_15  and  C_16
    8  A    between atoms: C_23  and  O_24
                            x       y       z     vdW  Elec       q    Type
                         _______ _______ _______ _____ _____    ______ ____

>  <TORSDO>
F 8

$$$$
=
 OpenBabel07192307433D

 50 53  0  0  1  0  0  0  0  0999 V2000
    2.8460    7.3870   18.3210 C   0  0  2  0  0  0  0  0  0  0  0  0
    3.4750    6.3470   17.3950 C   0  0  0  0  0  0  0  0  0  0  0  0
    4.3210    5.5100   18.3600 C   0  0  1  0  0  0  0  0  0  0  0  0
    3.4710    5.4240   19.6400 C   0  0  0  0  0  0  0  0  0  0  0  0
    2.4050    6.5180   19.5170 C   0  0  1  0  0  0  0  0  0  0  0  0
    3.6030    8.1050   18.6640 H   0  0  0  0  0  0  0  0  0  0  0  0
    2.7080    5.7300   16.9110 H   0  0  0  0  0  0  0  0  0  0  0  0
    4.0930    6.8000   16.6130 H   0  0  0  0  0  0  0  0  0  0  0  0
    5.2270    6.0820   18.5990 H   0  0  0  0  0  0  0  0  0  0  0  0
    4.0960    5.5490   20.5310 H   0  0  0  0  0  0  0  0  0  0  0  0
    2.9740    4.4500   19.7280 H   0  0  0  0  0  0  0  0  0  0  0  0
    1.4270    6.0530   19.3360 H   0  0  0  0  0  0  0  0  0  0  0  0
    4.7080    4.1550   17.7690 C   0  0  0  0  0  0  0  0  0  0  0  0
    5.3500    3.5930   18.4570 H   0  0  0  0  0  0  0  0  0  0  0  0
    3.8180    3.5380   17.5980 H   0  0  0  0  0  0  0  0  0  0  0  0
    5.4150    4.2640   16.5050 N   0  0  0  0  0  0  0  0  0  0  0  0
    5.0570    3.6330   15.3440 C   0  0  0  0  0  0  0  0  0  0  0  0
    5.9770    4.0450   14.4150 C   0  0  0  0  0  0  0  0  0  0  0  0
    6.8730    4.9170   14.9740 N   0  0  0  0  0  0  0  0  0  0  0  0
    6.5220    5.0450   16.2390 C   0  0  0  0  0  0  0  0  0  0  0  0
    4.2110    2.9630   15.2760 H   0  0  0  0  0  0  0  0  0  0  0  0
    6.0430    3.7650   13.3700 H   0  0  0  0  0  0  0  0  0  0  0  0
    7.1950    5.8930   17.2170 C   0  0  0  0  0  0  0  0  0  0  0  0
    7.3530    7.2620   16.9700 C   0  0  0  0  0  0  0  0  0  0  0  0
    7.9880    8.0780   17.9080 C   0  0  0  0  0  0  0  0  0  0  0  0
    8.4710    7.5280   19.0950 C   0  0  0  0  0  0  0  0  0  0  0  0
    8.3280    6.1610   19.3430 C   0  0  0  0  0  0  0  0  0  0  0  0
    7.6970    5.3450   18.4030 C   0  0  0  0  0  0  0  0  0  0  0  0
    6.9910    7.6920   16.0390 H   0  0  0  0  0  0  0  0  0  0  0  0
    8.1150    9.1380   17.7080 H   0  0  0  0  0  0  0  0  0  0  0  0
    8.9720    8.1610   19.8230 H   0  0  0  0  0  0  0  0  0  0  0  0
    8.7160    5.7320   20.2630 H   0  0  0  0  0  0  0  0  0  0  0  0
    7.6100    4.2770   18.5910 H   0  0  0  0  0  0  0  0  0  0  0  0
    1.7210    8.1180   17.7330 N   0  0  0  0  0  0  0  0  0  0  0  0
    0.8650    7.8760   18.2370 H   0  0  0  0  0  0  0  0  0  0  0  0
    1.8860    9.5720   17.8500 C   0  0  0  0  0  0  0  0  0  0  0  0
    2.8610    9.8240   18.2820 H   0  0  0  0  0  0  0  0  0  0  0  0
    1.8090   10.0530   16.8680 H   0  0  0  0  0  0  0  0  0  0  0  0
   -0.4170   10.8620   20.3350 N   0  0  0  0  0  0  0  0  0  0  0  0
    0.8470   10.4300   20.0740 C   0  0  0  0  0  0  0  0  0  0  0  0
    0.8110   10.0900   18.7380 C   0  0  0  0  0  0  0  0  0  0  0  0
   -0.4520   10.3240   18.2530 N   0  0  0  0  0  0  0  0  0  0  0  0
   -1.1980   10.7930   19.2450 N   0  0  0  0  0  0  0  0  0  0  0  0
    1.6350   10.4130   20.8130 H   0  0  0  0  0  0  0  0  0  0  0  0
   -0.9520   11.3490   21.5770 C   0  0  0  0  0  0  0  0  0  0  0  0
   -1.8780   10.8150   21.8070 H   0  0  0  0  0  0  0  0  0  0  0  0
   -1.1560   12.4190   21.4740 H   0  0  0  0  0  0  0  0  0  0  0  0
   -0.2150   11.1730   22.3670 H   0  0  0  0  0  0  0  0  0  0  0  0
    2.3250    7.2750   20.7140 O   0  0  0  0  0  0  0  0  0  0  0  0
    3.2340    7.3910   21.0390 H   0  0  0  0  0  0  0  0  0  0  0  0
  1  6  1  1  0  0  0
  1  5  1  0  0  0  0
  2  1  1  0  0  0  0
  2  3  1  0  0  0  0
  3  9  1  1  0  0  0
  3  4  1  0  0  0  0
  4 11  1  0  0  0  0
  4 10  1  0  0  0  0
  5 12  1  6  0  0  0
  5  4  1  0  0  0  0
  5 49  1  0  0  0  0
  7  2  1  0  0  0  0
  8  2  1  0  0  0  0
 13  3  1  0  0  0  0
 13 14  1  0  0  0  0
 15 13  1  0  0  0  0
 16 13  1  0  0  0  0
 17 16  1  0  0  0  0
 18 19  1  0  0  0  0
 18 17  2  0  0  0  0
 19 20  2  0  0  0  0
 20 16  1  0  0  0  0
 20 23  1  0  0  0  0
 21 17  1  0  0  0  0
 22 18  1  0  0  0  0
 23 28  1  0  0  0  0
 24 23  2  0  0  0  0
 24 25  1  0  0  0  0
 25 26  2  0  0  0  0
 26 27  1  0  0  0  0
 26 31  1  0  0  0  0
 27 32  1  0  0  0  0
 28 33  1  0  0  0  0
 28 27  2  0  0  0  0
 29 24  1  0  0  0  0
 30 25  1  0  0  0  0
 34 36  1  0  0  0  0
 34 35  1  0  0  0  0
 34  1  1  0  0  0  0
 36 37  1  0  0  0  0
 36 41  1  0  0  0  0
 38 36  1  0  0  0  0
 39 45  1  0  0  0  0
 40 39  1  0  0  0  0
 40 44  1  0  0  0  0
 41 40  2  0  0  0  0
 42 41  1  0  0  0  0
 42 43  2  0  0  0  0
 43 39  1  0  0  0  0
 45 46  1  0  0  0  0
 45 48  1  0  0  0  0
 47 45  1  0  0  0  0
 49 50  1  0  0  0  0
M  END
>  <MODEL>
29

>  <REMARK>
 VINA RESULT:    -6.412      3.763      6.842
 INTER + INTRA:          -9.867
 INTER:                  -9.294
 INTRA:                  -0.572
 UNBOUND:                -0.830
  Name = 
  8 active torsions:
  status: ('A' for Active; 'I' for Inactive)
    1  A    between atoms: C_1  and  N_2
    2  A    between atoms: C_4  and  C_5
    3  A    between atoms: C_5  and  N_6
    4  A    between atoms: N_6  and  C_7
    5  A    between atoms: C_9  and  C_10
    6  A    between atoms: C_10  and  N_11
    7  A    between atoms: C_15  and  C_16
    8  A    between atoms: C_23  and  O_24
                            x       y       z     vdW  Elec       q    Type
                         _______ _______ _______ _____ _____    ______ ____

>  <TORSDO>
F 8

$$$$
=
 OpenBabel07192307433D

 50 53  0  0  1  0  0  0  0  0999 V2000
    3.6870    5.3620   17.7290 C   0  0  2  0  0  0  0  0  0  0  0  0
    2.3750    6.0720   18.0620 C   0  0  0  0  0  0  0  0  0  0  0  0
    2.8520    7.4540   18.5190 C   0  0  1  0  0  0  0  0  0  0  0  0
    4.0370    7.7790   17.5920 C   0  0  0  0  0  0  0  0  0  0  0  0
    4.4460    6.4510   16.9440 C   0  0  1  0  0  0  0  0  0  0  0  0
    4.2450    5.1340   18.6480 H   0  0  0  0  0  0  0  0  0  0  0  0
    1.7330    6.1530   17.1760 H   0  0  0  0  0  0  0  0  0  0  0  0
    1.8110    5.5640   18.8490 H   0  0  0  0  0  0  0  0  0  0  0  0
    3.2450    7.3560   19.5400 H   0  0  0  0  0  0  0  0  0  0  0  0
    4.8570    8.2390   18.1540 H   0  0  0  0  0  0  0  0  0  0  0  0
    3.7490    8.4860   16.8050 H   0  0  0  0  0  0  0  0  0  0  0  0
    4.1540    6.4600   15.8850 H   0  0  0  0  0  0  0  0  0  0  0  0
    1.7310    8.4940   18.4970 C   0  0  0  0  0  0  0  0  0  0  0  0
    2.0840    9.4460   18.0840 H   0  0  0  0  0  0  0  0  0  0  0  0
    0.9080    8.1610   17.8530 H   0  0  0  0  0  0  0  0  0  0  0  0
    1.1780    8.7660   19.8120 N   0  0  0  0  0  0  0  0  0  0  0  0
    1.6620    8.2640   20.9890 C   0  0  0  0  0  0  0  0  0  0  0  0
    0.8620    8.8050   21.9640 C   0  0  0  0  0  0  0  0  0  0  0  0
   -0.0820    9.6290   21.4120 N   0  0  0  0  0  0  0  0  0  0  0  0
    0.1200    9.6000   20.1090 C   0  0  0  0  0  0  0  0  0  0  0  0
    2.5020    7.5860   21.0380 H   0  0  0  0  0  0  0  0  0  0  0  0
    0.9160    8.6490   23.0340 H   0  0  0  0  0  0  0  0  0  0  0  0
   -0.6540   10.3460   19.1220 C   0  0  0  0  0  0  0  0  0  0  0  0
   -0.4280   11.7160   18.9410 C   0  0  0  0  0  0  0  0  0  0  0  0
   -1.1590   12.4310   17.9910 C   0  0  0  0  0  0  0  0  0  0  0  0
   -2.1220   11.7800   17.2200 C   0  0  0  0  0  0  0  0  0  0  0  0
   -2.3610   10.4160   17.4030 C   0  0  0  0  0  0  0  0  0  0  0  0
   -1.6330    9.7030   18.3560 C   0  0  0  0  0  0  0  0  0  0  0  0
    0.3110   12.2310   19.5500 H   0  0  0  0  0  0  0  0  0  0  0  0
   -0.9860   13.4950   17.8600 H   0  0  0  0  0  0  0  0  0  0  0  0
   -2.6970   12.3370   16.4840 H   0  0  0  0  0  0  0  0  0  0  0  0
   -3.1200    9.9130   16.8100 H   0  0  0  0  0  0  0  0  0  0  0  0
   -1.8400    8.6460   18.5110 H   0  0  0  0  0  0  0  0  0  0  0  0
    3.5280    4.1350   16.9450 N   0  0  0  0  0  0  0  0  0  0  0  0
    4.1430    4.1770   16.1300 H   0  0  0  0  0  0  0  0  0  0  0  0
    3.9130    2.9400   17.7060 C   0  0  0  0  0  0  0  0  0  0  0  0
    3.9130    2.0490   17.0670 H   0  0  0  0  0  0  0  0  0  0  0  0
    4.9150    3.0570   18.1340 H   0  0  0  0  0  0  0  0  0  0  0  0
    1.8520    2.5550   20.6640 N   0  0  0  0  0  0  0  0  0  0  0  0
    3.1060    2.7470   20.1710 C   0  0  0  0  0  0  0  0  0  0  0  0
    2.9260    2.7510   18.8040 C   0  0  0  0  0  0  0  0  0  0  0  0
    1.5940    2.5640   18.5280 N   0  0  0  0  0  0  0  0  0  0  0  0
    0.9460    2.4400   19.6790 N   0  0  0  0  0  0  0  0  0  0  0  0
    3.9790    2.8740   20.7950 H   0  0  0  0  0  0  0  0  0  0  0  0
    1.4400    2.4720   22.0380 C   0  0  0  0  0  0  0  0  0  0  0  0
    1.1080    3.4580   22.3770 H   0  0  0  0  0  0  0  0  0  0  0  0
    2.2910    2.1400   22.6390 H   0  0  0  0  0  0  0  0  0  0  0  0
    0.6150    1.7560   22.1120 H   0  0  0  0  0  0  0  0  0  0  0  0
    5.8500    6.2710   17.0190 O   0  0  0  0  0  0  0  0  0  0  0  0
    6.2090    7.0310   17.5090 H   0  0  0  0  0  0  0  0  0  0  0  0
  1  2  1  0  0  0  0
  1  6  1  1  0  0  0
  2  3  1  0  0  0  0
  2  8  1  0  0  0  0
  3  9  1  1  0  0  0
  4 10  1  0  0  0  0
  4  3  1  0  0  0  0
  5 12  1  6  0  0  0
  5 49  1  0  0  0  0
  5  4  1  0  0  0  0
  5  1  1  0  0  0  0
  7  2  1  0  0  0  0
 11  4  1  0  0  0  0
 13  3  1  0  0  0  0
 13 16  1  0  0  0  0
 14 13  1  0  0  0  0
 15 13  1  0  0  0  0
 16 20  1  0  0  0  0
 16 17  1  0  0  0  0
 17 21  1  0  0  0  0
 17 18  2  0  0  0  0
 18 22  1  0  0  0  0
 19 18  1  0  0  0  0
 20 19  2  0  0  0  0
 23 20  1  0  0  0  0
 24 23  1  0  0  0  0
 24 29  1  0  0  0  0
 25 24  2  0  0  0  0
 26 27  2  0  0  0  0
 26 25  1  0  0  0  0
 27 28  1  0  0  0  0
 28 33  1  0  0  0  0
 28 23  2  0  0  0  0
 30 25  1  0  0  0  0
 31 26  1  0  0  0  0
 32 27  1  0  0  0  0
 34 36  1  0  0  0  0
 34  1  1  0  0  0  0
 35 34  1  0  0  0  0
 36 38  1  0  0  0  0
 36 41  1  0  0  0  0
 37 36  1  0  0  0  0
 39 45  1  0  0  0  0
 40 39  1  0  0  0  0
 40 44  1  0  0  0  0
 41 40  2  0  0  0  0
 42 41  1  0  0  0  0
 42 43  2  0  0  0  0
 43 39  1  0  0  0  0
 45 48  1  0  0  0  0
 45 46  1  0  0  0  0
 45 47  1  0  0  0  0
 49 50  1  0  0  0  0
M  END
>  <MODEL>
30

>  <REMARK>
 VINA RESULT:    -6.281      4.386      7.676
 INTER + INTRA:          -9.681
 INTER:                  -8.851
 INTRA:                  -0.830
 UNBOUND:                -0.830
  Name = 
  8 active torsions:
  status: ('A' for Active; 'I' for Inactive)
    1  A    between atoms: C_1  and  N_2
    2  A    between atoms: C_4  and  C_5
    3  A    between atoms: C_5  and  N_6
    4  A    between atoms: N_6  and  C_7
    5  A    between atoms: C_9  and  C_10
    6  A    between atoms: C_10  and  N_11
    7  A    between atoms: C_15  and  C_16
    8  A    between atoms: C_23  and  O_24
                            x       y       z     vdW  Elec       q    Type
                         _______ _______ _______ _____ _____    ______ ____

>  <TORSDO>
F 8

$$$$
=
 OpenBabel07192307433D

 50 53  0  0  1  0  0  0  0  0999 V2000
    2.7270    6.4570   18.5160 C   0  0  2  0  0  0  0  0  0  0  0  0
    2.7750    7.7930   17.7760 C   0  0  0  0  0  0  0  0  0  0  0  0
    1.6230    8.5710   18.4200 C   0  0  1  0  0  0  0  0  0  0  0  0
    1.6710    8.1700   19.9060 C   0  0  0  0  0  0  0  0  0  0  0  0
    2.5420    6.9110   19.9780 C   0  0  1  0  0  0  0  0  0  0  0  0
    1.8440    5.8790   18.2090 H   0  0  0  0  0  0  0  0  0  0  0  0
    3.7320    8.3030   17.9410 H   0  0  0  0  0  0  0  0  0  0  0  0
    2.6270    7.6820   16.6980 H   0  0  0  0  0  0  0  0  0  0  0  0
    0.6820    8.1900   18.0020 H   0  0  0  0  0  0  0  0  0  0  0  0
    0.6620    8.0020   20.2960 H   0  0  0  0  0  0  0  0  0  0  0  0
    2.1280    8.9560   20.5190 H   0  0  0  0  0  0  0  0  0  0  0  0
    3.5040    7.1620   20.4450 H   0  0  0  0  0  0  0  0  0  0  0  0
    1.7250   10.0760   18.1710 C   0  0  0  0  0  0  0  0  0  0  0  0
    2.5300   10.5210   18.7670 H   0  0  0  0  0  0  0  0  0  0  0  0
    1.9660   10.2780   17.1200 H   0  0  0  0  0  0  0  0  0  0  0  0
    0.5020   10.7920   18.4860 N   0  0  0  0  0  0  0  0  0  0  0  0
   -0.7620   10.2780   18.3780 C   0  0  0  0  0  0  0  0  0  0  0  0
   -1.5940   11.2810   18.8070 C   0  0  0  0  0  0  0  0  0  0  0  0
   -0.8710   12.3810   19.1830 N   0  0  0  0  0  0  0  0  0  0  0  0
    0.3980   12.0730   18.9880 C   0  0  0  0  0  0  0  0  0  0  0  0
   -0.9620    9.2790   18.0160 H   0  0  0  0  0  0  0  0  0  0  0  0
   -2.6750   11.2710   18.8680 H   0  0  0  0  0  0  0  0  0  0  0  0
    1.5280   12.9510   19.2670 C   0  0  0  0  0  0  0  0  0  0  0  0
    2.0080   13.0850   20.5750 C   0  0  0  0  0  0  0  0  0  0  0  0
    3.0970   13.9160   20.8440 C   0  0  0  0  0  0  0  0  0  0  0  0
    3.7070   14.6210   19.8070 C   0  0  0  0  0  0  0  0  0  0  0  0
    3.2270   14.5020   18.5020 C   0  0  0  0  0  0  0  0  0  0  0  0
    2.1360   13.6740   18.2340 C   0  0  0  0  0  0  0  0  0  0  0  0
    1.5260   12.5490   21.3890 H   0  0  0  0  0  0  0  0  0  0  0  0
    3.4610   14.0220   21.8630 H   0  0  0  0  0  0  0  0  0  0  0  0
    4.5500   15.2750   20.0170 H   0  0  0  0  0  0  0  0  0  0  0  0
    3.6960   15.0620   17.6970 H   0  0  0  0  0  0  0  0  0  0  0  0
    1.7500   13.6050   17.2190 H   0  0  0  0  0  0  0  0  0  0  0  0
    3.9250    5.6300   18.3480 N   0  0  0  0  0  0  0  0  0  0  0  0
    3.7250    4.8840   17.6790 H   0  0  0  0  0  0  0  0  0  0  0  0
    5.0530    6.3970   17.8030 C   0  0  0  0  0  0  0  0  0  0  0  0
    4.7120    7.3430   17.3670 H   0  0  0  0  0  0  0  0  0  0  0  0
    5.7850    6.6230   18.5860 H   0  0  0  0  0  0  0  0  0  0  0  0
    6.3170    4.5650   14.9420 N   0  0  0  0  0  0  0  0  0  0  0  0
    5.3470    5.3880   15.4240 C   0  0  0  0  0  0  0  0  0  0  0  0
    5.7010    5.5780   16.7430 C   0  0  0  0  0  0  0  0  0  0  0  0
    6.8500    4.8720   17.0030 N   0  0  0  0  0  0  0  0  0  0  0  0
    7.2150    4.2500   15.8890 N   0  0  0  0  0  0  0  0  0  0  0  0
    4.5340    5.7670   14.8220 H   0  0  0  0  0  0  0  0  0  0  0  0
    6.4580    4.0400   13.6110 C   0  0  0  0  0  0  0  0  0  0  0  0
    5.5220    3.5630   13.3080 H   0  0  0  0  0  0  0  0  0  0  0  0
    7.2680    3.3040   13.6100 H   0  0  0  0  0  0  0  0  0  0  0  0
    6.6910    4.8680   12.9330 H   0  0  0  0  0  0  0  0  0  0  0  0
    1.9120    5.9120   20.7620 O   0  0  0  0  0  0  0  0  0  0  0  0
    1.0250    5.7720   20.3870 H   0  0  0  0  0  0  0  0  0  0  0  0
  1  6  1  6  0  0  0
  1  5  1  0  0  0  0
  2  7  1  0  0  0  0
  2  3  1  0  0  0  0
  2  1  1  0  0  0  0
  3  9  1  6  0  0  0
  3  4  1  0  0  0  0
  4  5  1  0  0  0  0
  4 10  1  0  0  0  0
  4 11  1  0  0  0  0
  5 12  1  1  0  0  0
  5 49  1  0  0  0  0
  8  2  1  0  0  0  0
 13  3  1  0  0  0  0
 13 16  1  0  0  0  0
 13 14  1  0  0  0  0
 15 13  1  0  0  0  0
 16 20  1  0  0  0  0
 17 16  1  0  0  0  0
 17 18  2  0  0  0  0
 18 22  1  0  0  0  0
 18 19  1  0  0  0  0
 20 19  2  0  0  0  0
 20 23  1  0  0  0  0
 21 17  1  0  0  0  0
 23 24  1  0  0  0  0
 24 25  2  0  0  0  0
 24 29  1  0  0  0  0
 25 30  1  0  0  0  0
 26 31  1  0  0  0  0
 26 25  1  0  0  0  0
 27 26  2  0  0  0  0
 28 27  1  0  0  0  0
 28 23  2  0  0  0  0
 32 27  1  0  0  0  0
 33 28  1  0  0  0  0
 34  1  1  0  0  0  0
 35 34  1  0  0  0  0
 36 34  1  0  0  0  0
 36 38  1  0  0  0  0
 37 36  1  0  0  0  0
 39 40  1  0  0  0  0
 39 43  1  0  0  0  0
 40 41  2  0  0  0  0
 41 42  1  0  0  0  0
 41 36  1  0  0  0  0
 43 42  2  0  0  0  0
 44 40  1  0  0  0  0
 45 39  1  0  0  0  0
 46 45  1  0  0  0  0
 47 45  1  0  0  0  0
 48 45  1  0  0  0  0
 50 49  1  0  0  0  0
M  END
>  <MODEL>
31

>  <REMARK>
 VINA RESULT:    -6.196      4.095      7.336
 INTER + INTRA:          -9.562
 INTER:                  -8.793
 INTRA:                  -0.769
 UNBOUND:                -0.830
  Name = 
  8 active torsions:
  status: ('A' for Active; 'I' for Inactive)
    1  A    between atoms: C_1  and  N_2
    2  A    between atoms: C_4  and  C_5
    3  A    between atoms: C_5  and  N_6
    4  A    between atoms: N_6  and  C_7
    5  A    between atoms: C_9  and  C_10
    6  A    between atoms: C_10  and  N_11
    7  A    between atoms: C_15  and  C_16
    8  A    between atoms: C_23  and  O_24
                            x       y       z     vdW  Elec       q    Type
                         _______ _______ _______ _____ _____    ______ ____

>  <TORSDO>
F 8

$$$$
=
 OpenBabel07192307433D

 50 53  0  0  1  0  0  0  0  0999 V2000
    2.1840    5.0050   20.5010 C   0  0  2  0  0  0  0  0  0  0  0  0
    3.3890    5.2480   19.5930 C   0  0  0  0  0  0  0  0  0  0  0  0
    3.7880    3.8280   19.1820 C   0  0  1  0  0  0  0  0  0  0  0  0
    2.4500    3.0880   19.0050 C   0  0  0  0  0  0  0  0  0  0  0  0
    1.3920    3.9530   19.6990 C   0  0  1  0  0  0  0  0  0  0  0  0
    2.5040    4.5580   21.4530 H   0  0  0  0  0  0  0  0  0  0  0  0
    3.1090    5.8460   18.7160 H   0  0  0  0  0  0  0  0  0  0  0  0
    4.2070    5.7600   20.1090 H   0  0  0  0  0  0  0  0  0  0  0  0
    4.3160    3.3670   20.0270 H   0  0  0  0  0  0  0  0  0  0  0  0
    2.5050    2.0780   19.4260 H   0  0  0  0  0  0  0  0  0  0  0  0
    2.1860    2.9820   17.9460 H   0  0  0  0  0  0  0  0  0  0  0  0
    0.7540    4.4230   18.9400 H   0  0  0  0  0  0  0  0  0  0  0  0
    4.6860    3.8110   17.9440 C   0  0  0  0  0  0  0  0  0  0  0  0
    5.0240    2.7930   17.7160 H   0  0  0  0  0  0  0  0  0  0  0  0
    4.1360    4.1620   17.0630 H   0  0  0  0  0  0  0  0  0  0  0  0
    5.8680    4.6420   18.0850 N   0  0  0  0  0  0  0  0  0  0  0  0
    6.3560    5.1250   19.2690 C   0  0  0  0  0  0  0  0  0  0  0  0
    7.4880    5.8220   18.9310 C   0  0  0  0  0  0  0  0  0  0  0  0
    7.7070    5.7640   17.5810 N   0  0  0  0  0  0  0  0  0  0  0  0
    6.7220    5.0450   17.0780 C   0  0  0  0  0  0  0  0  0  0  0  0
    5.8750    4.9430   20.2200 H   0  0  0  0  0  0  0  0  0  0  0  0
    8.1610    6.3600   19.5880 H   0  0  0  0  0  0  0  0  0  0  0  0
    6.5590    4.7140   15.6670 C   0  0  0  0  0  0  0  0  0  0  0  0
    7.5580    5.0500   14.7460 C   0  0  0  0  0  0  0  0  0  0  0  0
    7.4090    4.7250   13.3960 C   0  0  0  0  0  0  0  0  0  0  0  0
    6.2590    4.0680   12.9610 C   0  0  0  0  0  0  0  0  0  0  0  0
    5.2530    3.7400   13.8720 C   0  0  0  0  0  0  0  0  0  0  0  0
    5.4000    4.0690   15.2200 C   0  0  0  0  0  0  0  0  0  0  0  0
    8.4500    5.5760   15.0780 H   0  0  0  0  0  0  0  0  0  0  0  0
    8.1850    4.9950   12.6840 H   0  0  0  0  0  0  0  0  0  0  0  0
    6.1400    3.8210   11.9090 H   0  0  0  0  0  0  0  0  0  0  0  0
    4.3510    3.2390   13.5290 H   0  0  0  0  0  0  0  0  0  0  0  0
    4.6010    3.8330   15.9210 H   0  0  0  0  0  0  0  0  0  0  0  0
    1.3820    6.2000   20.7750 N   0  0  0  0  0  0  0  0  0  0  0  0
    1.3330    6.3440   21.7850 H   0  0  0  0  0  0  0  0  0  0  0  0
    1.9830    7.4110   20.2020 C   0  0  0  0  0  0  0  0  0  0  0  0
    3.0230    7.5290   20.5300 H   0  0  0  0  0  0  0  0  0  0  0  0
    1.9700    7.3710   19.1070 H   0  0  0  0  0  0  0  0  0  0  0  0
    0.0310   10.0590   21.7250 N   0  0  0  0  0  0  0  0  0  0  0  0
    0.5810    8.8240   21.8760 C   0  0  0  0  0  0  0  0  0  0  0  0
    1.1910    8.5830   20.6630 C   0  0  0  0  0  0  0  0  0  0  0  0
    0.9880    9.6630   19.8390 N   0  0  0  0  0  0  0  0  0  0  0  0
    0.2700   10.5610   20.5020 N   0  0  0  0  0  0  0  0  0  0  0  0
    0.5130    8.2490   22.7880 H   0  0  0  0  0  0  0  0  0  0  0  0
   -0.7250   10.8200   22.6820 C   0  0  0  0  0  0  0  0  0  0  0  0
   -0.0820   11.0770   23.5290 H   0  0  0  0  0  0  0  0  0  0  0  0
   -1.5660   10.2110   23.0250 H   0  0  0  0  0  0  0  0  0  0  0  0
   -1.0840   11.7330   22.1970 H   0  0  0  0  0  0  0  0  0  0  0  0
    0.5720    3.1590   20.5410 O   0  0  0  0  0  0  0  0  0  0  0  0
    1.1530    2.5080   20.9720 H   0  0  0  0  0  0  0  0  0  0  0  0
  1 34  1  0  0  0  0
  1  6  1  1  0  0  0
  2  8  1  0  0  0  0
  2  1  1  0  0  0  0
  3  2  1  0  0  0  0
  3  9  1  1  0  0  0
  4  3  1  0  0  0  0
  4 10  1  0  0  0  0
  4  5  1  0  0  0  0
  5 12  1  6  0  0  0
  5  1  1  0  0  0  0
  5 49  1  0  0  0  0
  7  2  1  0  0  0  0
 11  4  1  0  0  0  0
 13 16  1  0  0  0  0
 13  3  1  0  0  0  0
 14 13  1  0  0  0  0
 15 13  1  0  0  0  0
 16 17  1  0  0  0  0
 17 21  1  0  0  0  0
 18 17  2  0  0  0  0
 18 22  1  0  0  0  0
 19 18  1  0  0  0  0
 20 19  2  0  0  0  0
 20 16  1  0  0  0  0
 23 20  1  0  0  0  0
 24 29  1  0  0  0  0
 24 23  2  0  0  0  0
 25 24  1  0  0  0  0
 26 25  2  0  0  0  0
 26 27  1  0  0  0  0
 27 28  2  0  0  0  0
 28 23  1  0  0  0  0
 28 33  1  0  0  0  0
 30 25  1  0  0  0  0
 31 26  1  0  0  0  0
 32 27  1  0  0  0  0
 34 35  1  0  0  0  0
 36 37  1  0  0  0  0
 36 41  1  0  0  0  0
 36 34  1  0  0  0  0
 38 36  1  0  0  0  0
 39 40  1  0  0  0  0
 39 45  1  0  0  0  0
 40 44  1  0  0  0  0
 41 40  2  0  0  0  0
 42 43  2  0  0  0  0
 42 41  1  0  0  0  0
 43 39  1  0  0  0  0
 45 47  1  0  0  0  0
 45 46  1  0  0  0  0
 48 45  1  0  0  0  0
 49 50  1  0  0  0  0
M  END
>  <MODEL>
32

>  <REMARK>
 VINA RESULT:    -6.150      3.666      6.998
 INTER + INTRA:          -9.497
 INTER:                 -10.001
 INTRA:                   0.504
 UNBOUND:                -0.830
  Name = 
  8 active torsions:
  status: ('A' for Active; 'I' for Inactive)
    1  A    between atoms: C_1  and  N_2
    2  A    between atoms: C_4  and  C_5
    3  A    between atoms: C_5  and  N_6
    4  A    between atoms: N_6  and  C_7
    5  A    between atoms: C_9  and  C_10
    6  A    between atoms: C_10  and  N_11
    7  A    between atoms: C_15  and  C_16
    8  A    between atoms: C_23  and  O_24
                            x       y       z     vdW  Elec       q    Type
                         _______ _______ _______ _____ _____    ______ ____

>  <TORSDO>
F 8

$$$$
=
 OpenBabel07192307433D

 50 53  0  0  1  0  0  0  0  0999 V2000
    2.1550    7.9680   18.5120 C   0  0  2  0  0  0  0  0  0  0  0  0
    1.7390    9.3030   17.8940 C   0  0  0  0  0  0  0  0  0  0  0  0
    0.4650    9.6460   18.6710 C   0  0  1  0  0  0  0  0  0  0  0  0
    0.7540    9.1790   20.1090 C   0  0  0  0  0  0  0  0  0  0  0  0
    1.9650    8.2440   20.0170 C   0  0  1  0  0  0  0  0  0  0  0  0
    1.4640    7.1710   18.2060 H   0  0  0  0  0  0  0  0  0  0  0  0
    2.5100   10.0680   18.0480 H   0  0  0  0  0  0  0  0  0  0  0  0
    1.5440    9.2250   16.8200 H   0  0  0  0  0  0  0  0  0  0  0  0
   -0.3500    9.0250   18.2760 H   0  0  0  0  0  0  0  0  0  0  0  0
   -0.1230    8.6840   20.5410 H   0  0  0  0  0  0  0  0  0  0  0  0
    1.0030   10.0230   20.7630 H   0  0  0  0  0  0  0  0  0  0  0  0
    2.8420    8.7440   20.4480 H   0  0  0  0  0  0  0  0  0  0  0  0
    0.0910   11.1230   18.5520 C   0  0  0  0  0  0  0  0  0  0  0  0
    0.4410   11.6910   19.4220 H   0  0  0  0  0  0  0  0  0  0  0  0
    0.5670   11.5740   17.6730 H   0  0  0  0  0  0  0  0  0  0  0  0
   -1.3400   11.3430   18.4360 N   0  0  0  0  0  0  0  0  0  0  0  0
   -2.1210   10.9180   17.3940 C   0  0  0  0  0  0  0  0  0  0  0  0
   -3.3940   11.3120   17.7180 C   0  0  0  0  0  0  0  0  0  0  0  0
   -3.4090   11.9510   18.9290 N   0  0  0  0  0  0  0  0  0  0  0  0
   -2.1610   11.9610   19.3570 C   0  0  0  0  0  0  0  0  0  0  0  0
   -1.7220   10.3920   16.5380 H   0  0  0  0  0  0  0  0  0  0  0  0
   -4.3020   11.1690   17.1460 H   0  0  0  0  0  0  0  0  0  0  0  0
   -1.7100   12.5330   20.6200 C   0  0  0  0  0  0  0  0  0  0  0  0
   -2.0340   11.9080   21.8300 C   0  0  0  0  0  0  0  0  0  0  0  0
   -1.5950   12.4470   23.0410 C   0  0  0  0  0  0  0  0  0  0  0  0
   -0.8350   13.6160   23.0470 C   0  0  0  0  0  0  0  0  0  0  0  0
   -0.5180   14.2520   21.8450 C   0  0  0  0  0  0  0  0  0  0  0  0
   -0.9610   13.7150   20.6350 C   0  0  0  0  0  0  0  0  0  0  0  0
   -2.6380   11.0040   21.8320 H   0  0  0  0  0  0  0  0  0  0  0  0
   -1.8550   11.9620   23.9780 H   0  0  0  0  0  0  0  0  0  0  0  0
   -0.4990   14.0410   23.9900 H   0  0  0  0  0  0  0  0  0  0  0  0
    0.0640   15.1710   21.8520 H   0  0  0  0  0  0  0  0  0  0  0  0
   -0.7320   14.2290   19.7040 H   0  0  0  0  0  0  0  0  0  0  0  0
    3.5280    7.5600   18.2010 N   0  0  0  0  0  0  0  0  0  0  0  0
    4.0220    7.3610   19.0720 H   0  0  0  0  0  0  0  0  0  0  0  0
    3.5700    6.3320   17.3980 C   0  0  0  0  0  0  0  0  0  0  0  0
    3.0230    6.4570   16.4560 H   0  0  0  0  0  0  0  0  0  0  0  0
    4.6040    6.0570   17.1610 H   0  0  0  0  0  0  0  0  0  0  0  0
    1.7780    3.5920   18.9550 N   0  0  0  0  0  0  0  0  0  0  0  0
    1.9040    4.3890   17.8590 C   0  0  0  0  0  0  0  0  0  0  0  0
    2.9380    5.2400   18.1870 C   0  0  0  0  0  0  0  0  0  0  0  0
    3.3880    4.9310   19.4470 N   0  0  0  0  0  0  0  0  0  0  0  0
    2.6640    3.9200   19.9100 N   0  0  0  0  0  0  0  0  0  0  0  0
    1.2930    4.2860   16.9750 H   0  0  0  0  0  0  0  0  0  0  0  0
    0.8540    2.5110   19.1680 C   0  0  0  0  0  0  0  0  0  0  0  0
   -0.1550    2.8400   18.9030 H   0  0  0  0  0  0  0  0  0  0  0  0
    0.8870    2.2280   20.2240 H   0  0  0  0  0  0  0  0  0  0  0  0
    1.1500    1.6700   18.5350 H   0  0  0  0  0  0  0  0  0  0  0  0
    1.7300    7.0490   20.7440 O   0  0  0  0  0  0  0  0  0  0  0  0
    1.3900    7.3090   21.6170 H   0  0  0  0  0  0  0  0  0  0  0  0
  1  6  1  6  0  0  0
  1  5  1  0  0  0  0
  2  7  1  0  0  0  0
  2  1  1  0  0  0  0
  2  3  1  0  0  0  0
  3  9  1  6  0  0  0
  3  4  1  0  0  0  0
  4 10  1  0  0  0  0
  4 11  1  0  0  0  0
  5  4  1  0  0  0  0
  5 12  1  1  0  0  0
  5 49  1  0  0  0  0
  8  2  1  0  0  0  0
 13  3  1  0  0  0  0
 13 14  1  0  0  0  0
 15 13  1  0  0  0  0
 16 13  1  0  0  0  0
 16 20  1  0  0  0  0
 17 18  2  0  0  0  0
 17 16  1  0  0  0  0
 18 19  1  0  0  0  0
 19 20  2  0  0  0  0
 20 23  1  0  0  0  0
 21 17  1  0  0  0  0
 22 18  1  0  0  0  0
 23 28  2  0  0  0  0
 23 24  1  0  0  0  0
 24 29  1  0  0  0  0
 24 25  2  0  0  0  0
 25 26  1  0  0  0  0
 25 30  1  0  0  0  0
 26 31  1  0  0  0  0
 27 32  1  0  0  0  0
 27 26  2  0  0  0  0
 28 27  1  0  0  0  0
 33 28  1  0  0  0  0
 34  1  1  0  0  0  0
 34 35  1  0  0  0  0
 36 41  1  0  0  0  0
 36 34  1  0  0  0  0
 37 36  1  0  0  0  0
 38 36  1  0  0  0  0
 39 45  1  0  0  0  0
 39 43  1  0  0  0  0
 40 41  2  0  0  0  0
 40 39  1  0  0  0  0
 41 42  1  0  0  0  0
 42 43  2  0  0  0  0
 44 40  1  0  0  0  0
 45 47  1  0  0  0  0
 46 45  1  0  0  0  0
 48 45  1  0  0  0  0
 49 50  1  0  0  0  0
M  END
>  <MODEL>
33

>  <REMARK>
 VINA RESULT:    -6.128      4.956      8.416
 INTER + INTRA:          -9.466
 INTER:                  -8.224
 INTRA:                  -1.242
 UNBOUND:                -0.830
  Name = 
  8 active torsions:
  status: ('A' for Active; 'I' for Inactive)
    1  A    between atoms: C_1  and  N_2
    2  A    between atoms: C_4  and  C_5
    3  A    between atoms: C_5  and  N_6
    4  A    between atoms: N_6  and  C_7
    5  A    between atoms: C_9  and  C_10
    6  A    between atoms: C_10  and  N_11
    7  A    between atoms: C_15  and  C_16
    8  A    between atoms: C_23  and  O_24
                            x       y       z     vdW  Elec       q    Type
                         _______ _______ _______ _____ _____    ______ ____

>  <TORSDO>
F 8

$$$$
