=
 OpenBabel07192307433D

 51 54  0  0  1  0  0  0  0  0999 V2000
    1.5410    8.6610   19.2810 C   0  0  0  0  0  0  0  0  0  0  0  0
    1.4130    8.1730   20.5890 C   0  0  0  0  0  0  0  0  0  0  0  0
    0.5050    8.7530   21.4790 C   0  0  0  0  0  0  0  0  0  0  0  0
   -0.2940    9.8170   21.0640 C   0  0  0  0  0  0  0  0  0  0  0  0
   -0.1850   10.2830   19.7500 C   0  0  0  0  0  0  0  0  0  0  0  0
    0.7290    9.7170   18.8540 C   0  0  0  0  0  0  0  0  0  0  0  0
    2.0320    7.3400   20.9220 H   0  0  0  0  0  0  0  0  0  0  0  0
    0.4240    8.3750   22.4950 H   0  0  0  0  0  0  0  0  0  0  0  0
   -0.9950   10.2710   21.7620 H   0  0  0  0  0  0  0  0  0  0  0  0
    0.7770   10.0890   17.8340 H   0  0  0  0  0  0  0  0  0  0  0  0
    2.7360    8.4740   17.2620 O   0  0  0  0  0  0  0  0  0  0  0  0
    2.5230    8.0070   18.3740 C   0  0  0  0  0  0  0  0  0  0  0  0
    3.1410    6.8720   18.8530 N   0  0  0  0  0  0  0  0  0  0  0  0
    2.7610    6.4170   19.6740 H   0  0  0  0  0  0  0  0  0  0  0  0
    4.0160    6.0710   18.0110 C   0  0  0  0  0  0  0  0  0  0  0  0
    4.3860    6.7310   17.2190 H   0  0  0  0  0  0  0  0  0  0  0  0
    4.8920    5.7860   18.6050 H   0  0  0  0  0  0  0  0  0  0  0  0
    3.3700    4.8030   17.4170 C   0  0  1  0  0  0  0  0  0  0  0  0
    4.2540    3.5600   17.5060 C   0  0  0  0  0  0  0  0  0  0  0  0
    4.5390    3.2120   18.8650 O   0  0  0  0  0  0  0  0  0  0  0  0
    3.3890    3.1940   19.6120 C   0  0  0  0  0  0  0  0  0  0  0  0
    3.4400    2.5120   20.8260 C   0  0  0  0  0  0  0  0  0  0  0  0
    2.3020    2.4440   21.6320 C   0  0  0  0  0  0  0  0  0  0  0  0
    1.1190    3.0620   21.2250 C   0  0  0  0  0  0  0  0  0  0  0  0
    1.0740    3.7580   20.0150 C   0  0  0  0  0  0  0  0  0  0  0  0
    2.2120    3.8350   19.2150 C   0  0  0  0  0  0  0  0  0  0  0  0
    2.1010    4.5650   18.0610 O   0  0  0  0  0  0  0  0  0  0  0  0
    3.1430    4.9760   16.3600 H   0  0  0  0  0  0  0  0  0  0  0  0
    3.7660    2.7000   17.0280 H   0  0  0  0  0  0  0  0  0  0  0  0
    5.2080    3.7170   16.9940 H   0  0  0  0  0  0  0  0  0  0  0  0
    4.3600    2.0260   21.1390 H   0  0  0  0  0  0  0  0  0  0  0  0
    2.3380    1.9070   22.5770 H   0  0  0  0  0  0  0  0  0  0  0  0
    0.2320    3.0060   21.8510 H   0  0  0  0  0  0  0  0  0  0  0  0
    0.1570    4.2480   19.7030 H   0  0  0  0  0  0  0  0  0  0  0  0
   -1.1960   11.6290   19.1920 S   0  0  0  0  0  0  0  0  0  0  0  0
   -0.4590   12.3050   18.1470 O   0  0  0  0  0  0  0  0  0  0  0  0
   -1.6940   12.3480   20.3450 O   0  0  0  0  0  0  0  0  0  0  0  0
   -2.5200   10.8260   18.4750 N   0  0  0  0  0  0  0  0  0  0  0  0
   -3.7930   11.6210   18.4090 C   0  0  0  0  0  0  0  0  0  0  0  0
   -4.7390   11.0320   17.3580 C   0  0  0  0  0  0  0  0  0  0  0  0
   -4.2030   11.0890   16.0290 O   0  0  0  0  0  0  0  0  0  0  0  0
   -2.7710   11.0000   15.9910 C   0  0  0  0  0  0  0  0  0  0  0  0
   -2.1900   10.1890   17.1530 C   0  0  0  0  0  0  0  0  0  0  0  0
   -4.2790   11.5890   19.3890 H   0  0  0  0  0  0  0  0  0  0  0  0
   -3.5750   12.6630   18.1510 H   0  0  0  0  0  0  0  0  0  0  0  0
   -4.9690    9.9850   17.5850 H   0  0  0  0  0  0  0  0  0  0  0  0
   -5.6850   11.5810   17.3520 H   0  0  0  0  0  0  0  0  0  0  0  0
   -2.4990   10.5390   15.0370 H   0  0  0  0  0  0  0  0  0  0  0  0
   -2.3700   12.0190   15.9890 H   0  0  0  0  0  0  0  0  0  0  0  0
   -1.1110   10.0730   17.0230 H   0  0  0  0  0  0  0  0  0  0  0  0
   -2.6220    9.1810   17.1670 H   0  0  0  0  0  0  0  0  0  0  0  0
  1  2  1  0  0  0  0
  2  7  1  0  0  0  0
  2  3  2  0  0  0  0
  3  8  1  0  0  0  0
  4  3  1  0  0  0  0
  4  9  1  0  0  0  0
  5  4  2  0  0  0  0
  6  1  2  0  0  0  0
  6  5  1  0  0  0  0
 10  6  1  0  0  0  0
 11 12  2  0  0  0  0
 12 13  1  0  0  0  0
 12  1  1  0  0  0  0
 13 14  1  0  0  0  0
 15 17  1  0  0  0  0
 15 13  1  0  0  0  0
 16 15  1  0  0  0  0
 18 28  1  6  0  0  0
 18 19  1  0  0  0  0
 18 15  1  0  0  0  0
 18 27  1  0  0  0  0
 19 20  1  0  0  0  0
 20 21  1  0  0  0  0
 21 22  1  0  0  0  0
 22 31  1  0  0  0  0
 22 23  2  0  0  0  0
 23 32  1  0  0  0  0
 24 23  1  0  0  0  0
 24 33  1  0  0  0  0
 25 24  2  0  0  0  0
 26 21  2  0  0  0  0
 26 25  1  0  0  0  0
 27 26  1  0  0  0  0
 29 19  1  0  0  0  0
 30 19  1  0  0  0  0
 34 25  1  0  0  0  0
 35  5  1  0  0  0  0
 35 37  2  0  0  0  0
 36 35  2  0  0  0  0
 38 35  1  0  0  0  0
 39 38  1  0  0  0  0
 39 44  1  0  0  0  0
 40 46  1  0  0  0  0
 40 39  1  0  0  0  0
 41 40  1  0  0  0  0
 42 41  1  0  0  0  0
 42 43  1  0  0  0  0
 43 51  1  0  0  0  0
 43 38  1  0  0  0  0
 45 39  1  0  0  0  0
 47 40  1  0  0  0  0
 48 42  1  0  0  0  0
 49 42  1  0  0  0  0
 50 43  1  0  0  0  0
M  END
>  <MODEL>
1

>  <REMARK>
 VINA RESULT:    -9.014      0.000      0.000
 INTER + INTRA:         -11.729
 INTER:                 -11.158
 INTRA:                  -0.571
 UNBOUND:                -0.080
  Name = 
  5 active torsions:
  status: ('A' for Active; 'I' for Inactive)
    1  A    between atoms: C_2  and  C_15
    2  A    between atoms: N_3  and  C_4
    3  A    between atoms: C_4  and  C_5
    4  A    between atoms: C_19  and  S_20
    5  A    between atoms: S_20  and  N_23
                            x       y       z     vdW  Elec       q    Type
                         _______ _______ _______ _____ _____    ______ ____

>  <TORSDO>
F 5

$$$$
=
 OpenBabel07192307433D

 51 54  0  0  1  0  0  0  0  0999 V2000
    1.8370    7.8280   19.5000 C   0  0  0  0  0  0  0  0  0  0  0  0
    2.3430    8.1780   18.2400 C   0  0  0  0  0  0  0  0  0  0  0  0
    2.1200    9.4530   17.7140 C   0  0  0  0  0  0  0  0  0  0  0  0
    1.4000   10.3940   18.4480 C   0  0  0  0  0  0  0  0  0  0  0  0
    0.9210   10.0510   19.7160 C   0  0  0  0  0  0  0  0  0  0  0  0
    1.1290    8.7740   20.2490 C   0  0  0  0  0  0  0  0  0  0  0  0
    2.9080    7.4490   17.6600 H   0  0  0  0  0  0  0  0  0  0  0  0
    2.5060    9.7090   16.7300 H   0  0  0  0  0  0  0  0  0  0  0  0
    1.2220   11.3830   18.0310 H   0  0  0  0  0  0  0  0  0  0  0  0
    0.7600    8.5440   21.2440 H   0  0  0  0  0  0  0  0  0  0  0  0
    1.6030    6.0900   21.0700 O   0  0  0  0  0  0  0  0  0  0  0  0
    2.1020    6.4570   20.0140 C   0  0  0  0  0  0  0  0  0  0  0  0
    2.9350    5.6650   19.2520 N   0  0  0  0  0  0  0  0  0  0  0  0
    3.4870    6.0970   18.5220 H   0  0  0  0  0  0  0  0  0  0  0  0
    3.3760    4.3600   19.7170 C   0  0  0  0  0  0  0  0  0  0  0  0
    3.8430    4.5130   20.6960 H   0  0  0  0  0  0  0  0  0  0  0  0
    2.4870    3.7450   19.8970 H   0  0  0  0  0  0  0  0  0  0  0  0
    4.3270    3.6120   18.7610 C   0  0  1  0  0  0  0  0  0  0  0  0
    4.0850    3.9190   17.2850 C   0  0  0  0  0  0  0  0  0  0  0  0
    4.3020    5.3020   16.9910 O   0  0  0  0  0  0  0  0  0  0  0  0
    5.4980    5.7270   17.5110 C   0  0  0  0  0  0  0  0  0  0  0  0
    6.0240    6.9090   16.9930 C   0  0  0  0  0  0  0  0  0  0  0  0
    7.2440    7.3930   17.4690 C   0  0  0  0  0  0  0  0  0  0  0  0
    7.9310    6.6980   18.4660 C   0  0  0  0  0  0  0  0  0  0  0  0
    7.3950    5.5220   18.9940 C   0  0  0  0  0  0  0  0  0  0  0  0
    6.1730    5.0440   18.5260 C   0  0  0  0  0  0  0  0  0  0  0  0
    5.6940    3.9040   19.1190 O   0  0  0  0  0  0  0  0  0  0  0  0
    4.2040    2.5330   18.9030 H   0  0  0  0  0  0  0  0  0  0  0  0
    4.7560    3.3250   16.6490 H   0  0  0  0  0  0  0  0  0  0  0  0
    3.0600    3.6720   16.9930 H   0  0  0  0  0  0  0  0  0  0  0  0
    5.4910    7.4460   16.2140 H   0  0  0  0  0  0  0  0  0  0  0  0
    7.6590    8.3110   17.0620 H   0  0  0  0  0  0  0  0  0  0  0  0
    8.8820    7.0730   18.8340 H   0  0  0  0  0  0  0  0  0  0  0  0
    7.9250    4.9860   19.7760 H   0  0  0  0  0  0  0  0  0  0  0  0
    0.0110   11.2320   20.6760 S   0  0  0  0  0  0  0  0  0  0  0  0
    0.9420   12.2730   21.0560 O   0  0  0  0  0  0  0  0  0  0  0  0
   -0.7720   10.5260   21.6680 O   0  0  0  0  0  0  0  0  0  0  0  0
   -1.0750   11.8830   19.5320 N   0  0  0  0  0  0  0  0  0  0  0  0
   -1.9910   10.8880   18.8790 C   0  0  0  0  0  0  0  0  0  0  0  0
   -3.2030   11.5960   18.2640 C   0  0  0  0  0  0  0  0  0  0  0  0
   -4.0170   12.2590   19.2390 O   0  0  0  0  0  0  0  0  0  0  0  0
   -3.2730   12.7320   20.3730 C   0  0  0  0  0  0  0  0  0  0  0  0
   -1.8240   13.0880   20.0320 C   0  0  0  0  0  0  0  0  0  0  0  0
   -1.4400   10.3660   18.0900 H   0  0  0  0  0  0  0  0  0  0  0  0
   -2.3410   10.1570   19.6160 H   0  0  0  0  0  0  0  0  0  0  0  0
   -2.8830   12.3420   17.5270 H   0  0  0  0  0  0  0  0  0  0  0  0
   -3.8380   10.8740   17.7430 H   0  0  0  0  0  0  0  0  0  0  0  0
   -3.7960   13.6110   20.7610 H   0  0  0  0  0  0  0  0  0  0  0  0
   -3.3120   11.9580   21.1480 H   0  0  0  0  0  0  0  0  0  0  0  0
   -1.3340   13.5300   20.9040 H   0  0  0  0  0  0  0  0  0  0  0  0
   -1.7930   13.8380   19.2320 H   0  0  0  0  0  0  0  0  0  0  0  0
  1 12  1  0  0  0  0
  1  6  1  0  0  0  0
  2  1  2  0  0  0  0
  3  2  1  0  0  0  0
  3  4  2  0  0  0  0
  4  5  1  0  0  0  0
  5  6  2  0  0  0  0
  5 35  1  0  0  0  0
  6 10  1  0  0  0  0
  7  2  1  0  0  0  0
  8  3  1  0  0  0  0
  9  4  1  0  0  0  0
 12 11  2  0  0  0  0
 13 15  1  0  0  0  0
 13 12  1  0  0  0  0
 14 13  1  0  0  0  0
 15 17  1  0  0  0  0
 15 16  1  0  0  0  0
 18 28  1  1  0  0  0
 18 27  1  0  0  0  0
 18 15  1  0  0  0  0
 19 18  1  0  0  0  0
 20 19  1  0  0  0  0
 20 21  1  0  0  0  0
 21 26  1  0  0  0  0
 22 23  1  0  0  0  0
 22 21  2  0  0  0  0
 23 24  2  0  0  0  0
 24 33  1  0  0  0  0
 24 25  1  0  0  0  0
 25 34  1  0  0  0  0
 26 25  2  0  0  0  0
 26 27  1  0  0  0  0
 29 19  1  0  0  0  0
 30 19  1  0  0  0  0
 31 22  1  0  0  0  0
 32 23  1  0  0  0  0
 35 36  2  0  0  0  0
 35 37  2  0  0  0  0
 38 43  1  0  0  0  0
 38 35  1  0  0  0  0
 39 38  1  0  0  0  0
 39 45  1  0  0  0  0
 40 39  1  0  0  0  0
 40 41  1  0  0  0  0
 41 42  1  0  0  0  0
 42 48  1  0  0  0  0
 42 49  1  0  0  0  0
 43 42  1  0  0  0  0
 43 50  1  0  0  0  0
 44 39  1  0  0  0  0
 46 40  1  0  0  0  0
 47 40  1  0  0  0  0
 51 43  1  0  0  0  0
M  END
>  <MODEL>
2

>  <REMARK>
 VINA RESULT:    -8.543      2.167      3.870
 INTER + INTRA:         -11.121
 INTER:                 -10.607
 INTRA:                  -0.514
 UNBOUND:                -0.080
  Name = 
  5 active torsions:
  status: ('A' for Active; 'I' for Inactive)
    1  A    between atoms: C_2  and  C_15
    2  A    between atoms: N_3  and  C_4
    3  A    between atoms: C_4  and  C_5
    4  A    between atoms: C_19  and  S_20
    5  A    between atoms: S_20  and  N_23
                            x       y       z     vdW  Elec       q    Type
                         _______ _______ _______ _____ _____    ______ ____

>  <TORSDO>
F 5

$$$$
=
 OpenBabel07192307433D

 51 54  0  0  1  0  0  0  0  0999 V2000
    1.6060    8.7090   19.0490 C   0  0  0  0  0  0  0  0  0  0  0  0
    1.5540    8.0770   20.2990 C   0  0  0  0  0  0  0  0  0  0  0  0
    0.6650    8.5200   21.2840 C   0  0  0  0  0  0  0  0  0  0  0  0
   -0.1880    9.5900   21.0210 C   0  0  0  0  0  0  0  0  0  0  0  0
   -0.1530   10.2000   19.7630 C   0  0  0  0  0  0  0  0  0  0  0  0
    0.7400    9.7720   18.7740 C   0  0  0  0  0  0  0  0  0  0  0  0
    2.2160    7.2380   20.5130 H   0  0  0  0  0  0  0  0  0  0  0  0
    0.6430    8.0300   22.2540 H   0  0  0  0  0  0  0  0  0  0  0  0
   -0.8730    9.9360   21.7920 H   0  0  0  0  0  0  0  0  0  0  0  0
    0.7300   10.2550   17.8010 H   0  0  0  0  0  0  0  0  0  0  0  0
    2.8000    8.8490   17.0250 O   0  0  0  0  0  0  0  0  0  0  0  0
    2.5700    8.1990   18.0370 C   0  0  0  0  0  0  0  0  0  0  0  0
    3.1520    6.9770   18.3030 N   0  0  0  0  0  0  0  0  0  0  0  0
    2.7560    6.3950   19.0310 H   0  0  0  0  0  0  0  0  0  0  0  0
    4.0030    6.3130   17.3290 C   0  0  0  0  0  0  0  0  0  0  0  0
    3.3940    6.1500   16.4330 H   0  0  0  0  0  0  0  0  0  0  0  0
    4.7940    7.0140   17.0350 H   0  0  0  0  0  0  0  0  0  0  0  0
    4.6440    4.9960   17.8100 C   0  0  1  0  0  0  0  0  0  0  0  0
    4.9610    4.9730   19.3040 C   0  0  0  0  0  0  0  0  0  0  0  0
    3.7770    5.1020   20.0970 O   0  0  0  0  0  0  0  0  0  0  0  0
    2.8090    4.2310   19.6690 C   0  0  0  0  0  0  0  0  0  0  0  0
    1.7680    3.9630   20.5550 C   0  0  0  0  0  0  0  0  0  0  0  0
    0.7540    3.0770   20.1880 C   0  0  0  0  0  0  0  0  0  0  0  0
    0.7810    2.4640   18.9340 C   0  0  0  0  0  0  0  0  0  0  0  0
    1.8170    2.7450   18.0410 C   0  0  0  0  0  0  0  0  0  0  0  0
    2.8240    3.6380   18.4030 C   0  0  0  0  0  0  0  0  0  0  0  0
    3.7860    3.8900   17.4610 O   0  0  0  0  0  0  0  0  0  0  0  0
    5.5810    4.8330   17.2660 H   0  0  0  0  0  0  0  0  0  0  0  0
    5.4580    4.0340   19.5820 H   0  0  0  0  0  0  0  0  0  0  0  0
    5.6370    5.7890   19.5770 H   0  0  0  0  0  0  0  0  0  0  0  0
    1.7510    4.4360   21.5330 H   0  0  0  0  0  0  0  0  0  0  0  0
   -0.0550    2.8620   20.8810 H   0  0  0  0  0  0  0  0  0  0  0  0
   -0.0060    1.7700   18.6500 H   0  0  0  0  0  0  0  0  0  0  0  0
    1.8340    2.2760   17.0620 H   0  0  0  0  0  0  0  0  0  0  0  0
   -1.2350   11.5570   19.3990 S   0  0  0  0  0  0  0  0  0  0  0  0
   -0.5620   12.3810   18.4180 O   0  0  0  0  0  0  0  0  0  0  0  0
   -1.7200   12.1160   20.6430 O   0  0  0  0  0  0  0  0  0  0  0  0
   -2.5520   10.7870   18.6330 N   0  0  0  0  0  0  0  0  0  0  0  0
   -3.7640   11.6490   18.4230 C   0  0  0  0  0  0  0  0  0  0  0  0
   -4.6670   11.0490   17.3400 C   0  0  0  0  0  0  0  0  0  0  0  0
   -4.0340   10.9870   16.0550 O   0  0  0  0  0  0  0  0  0  0  0  0
   -2.6110   10.8120   16.1310 C   0  0  0  0  0  0  0  0  0  0  0  0
   -2.1680   10.0470   17.3810 C   0  0  0  0  0  0  0  0  0  0  0  0
   -4.3210   11.7100   19.3630 H   0  0  0  0  0  0  0  0  0  0  0  0
   -3.4630   12.6570   18.1180 H   0  0  0  0  0  0  0  0  0  0  0  0
   -4.9780   10.0340   17.6130 H   0  0  0  0  0  0  0  0  0  0  0  0
   -5.5740   11.6500   17.2290 H   0  0  0  0  0  0  0  0  0  0  0  0
   -2.3010   10.2750   15.2310 H   0  0  0  0  0  0  0  0  0  0  0  0
   -2.1480   11.8050   16.0980 H   0  0  0  0  0  0  0  0  0  0  0  0
   -1.0910    9.8600   17.3410 H   0  0  0  0  0  0  0  0  0  0  0  0
   -2.6620    9.0690   17.4240 H   0  0  0  0  0  0  0  0  0  0  0  0
  1  2  1  0  0  0  0
  2  7  1  0  0  0  0
  2  3  2  0  0  0  0
  3  8  1  0  0  0  0
  4  3  1  0  0  0  0
  4  9  1  0  0  0  0
  5  4  2  0  0  0  0
  6  1  2  0  0  0  0
  6  5  1  0  0  0  0
 10  6  1  0  0  0  0
 11 12  2  0  0  0  0
 12 13  1  0  0  0  0
 12  1  1  0  0  0  0
 13 14  1  0  0  0  0
 15 18  1  0  0  0  0
 15 13  1  0  0  0  0
 16 15  1  0  0  0  0
 17 15  1  0  0  0  0
 18 28  1  6  0  0  0
 18 19  1  0  0  0  0
 19 30  1  0  0  0  0
 19 29  1  0  0  0  0
 19 20  1  0  0  0  0
 21 20  1  0  0  0  0
 21 22  1  0  0  0  0
 22 31  1  0  0  0  0
 23 22  2  0  0  0  0
 23 32  1  0  0  0  0
 24 23  1  0  0  0  0
 25 26  1  0  0  0  0
 25 24  2  0  0  0  0
 26 21  2  0  0  0  0
 27 18  1  0  0  0  0
 27 26  1  0  0  0  0
 33 24  1  0  0  0  0
 34 25  1  0  0  0  0
 35  5  1  0  0  0  0
 35 37  2  0  0  0  0
 36 35  2  0  0  0  0
 38 35  1  0  0  0  0
 39 38  1  0  0  0  0
 39 44  1  0  0  0  0
 40 46  1  0  0  0  0
 40 39  1  0  0  0  0
 41 42  1  0  0  0  0
 41 40  1  0  0  0  0
 42 43  1  0  0  0  0
 43 51  1  0  0  0  0
 43 38  1  0  0  0  0
 45 39  1  0  0  0  0
 47 40  1  0  0  0  0
 48 42  1  0  0  0  0
 49 42  1  0  0  0  0
 50 43  1  0  0  0  0
M  END
>  <MODEL>
3

>  <REMARK>
 VINA RESULT:    -8.541      0.933      1.210
 INTER + INTRA:         -11.118
 INTER:                 -10.808
 INTRA:                  -0.310
 UNBOUND:                -0.080
  Name = 
  5 active torsions:
  status: ('A' for Active; 'I' for Inactive)
    1  A    between atoms: C_2  and  C_15
    2  A    between atoms: N_3  and  C_4
    3  A    between atoms: C_4  and  C_5
    4  A    between atoms: C_19  and  S_20
    5  A    between atoms: S_20  and  N_23
                            x       y       z     vdW  Elec       q    Type
                         _______ _______ _______ _____ _____    ______ ____

>  <TORSDO>
F 5

$$$$
=
 OpenBabel07192307433D

 51 54  0  0  1  0  0  0  0  0999 V2000
    0.6630    9.4240   20.8400 C   0  0  0  0  0  0  0  0  0  0  0  0
    0.7020    8.8860   22.1330 C   0  0  0  0  0  0  0  0  0  0  0  0
   -0.0080    9.4890   23.1760 C   0  0  0  0  0  0  0  0  0  0  0  0
   -0.7730   10.6280   22.9300 C   0  0  0  0  0  0  0  0  0  0  0  0
   -0.8320   11.1450   21.6320 C   0  0  0  0  0  0  0  0  0  0  0  0
   -0.1170   10.5560   20.5830 C   0  0  0  0  0  0  0  0  0  0  0  0
    1.2960    7.9950   22.3340 H   0  0  0  0  0  0  0  0  0  0  0  0
    0.0400    9.0700   24.1780 H   0  0  0  0  0  0  0  0  0  0  0  0
   -1.3180   11.0990   23.7460 H   0  0  0  0  0  0  0  0  0  0  0  0
   -0.1980   10.9710   19.5830 H   0  0  0  0  0  0  0  0  0  0  0  0
    1.4530    9.2080   18.6330 O   0  0  0  0  0  0  0  0  0  0  0  0
    1.4370    8.7430   19.7660 C   0  0  0  0  0  0  0  0  0  0  0  0
    2.0960    7.5860   20.1220 N   0  0  0  0  0  0  0  0  0  0  0  0
    1.8610    7.1400   21.0000 H   0  0  0  0  0  0  0  0  0  0  0  0
    2.7700    6.7610   19.1330 C   0  0  0  0  0  0  0  0  0  0  0  0
    2.0760    6.6390   18.2940 H   0  0  0  0  0  0  0  0  0  0  0  0
    3.6230    7.3290   18.7420 H   0  0  0  0  0  0  0  0  0  0  0  0
    3.2630    5.3940   19.6470 C   0  0  1  0  0  0  0  0  0  0  0  0
    2.7120    4.2040   18.8640 C   0  0  0  0  0  0  0  0  0  0  0  0
    3.1250    4.2370   17.4940 O   0  0  0  0  0  0  0  0  0  0  0  0
    4.4750    4.4530   17.3990 C   0  0  0  0  0  0  0  0  0  0  0  0
    5.0790    4.1330   16.1850 C   0  0  0  0  0  0  0  0  0  0  0  0
    6.4530    4.3170   16.0230 C   0  0  0  0  0  0  0  0  0  0  0  0
    7.2190    4.8260   17.0730 C   0  0  0  0  0  0  0  0  0  0  0  0
    6.6100    5.1610   18.2840 C   0  0  0  0  0  0  0  0  0  0  0  0
    5.2370    4.9870   18.4420 C   0  0  0  0  0  0  0  0  0  0  0  0
    4.7050    5.3730   19.6460 O   0  0  0  0  0  0  0  0  0  0  0  0
    2.9620    5.2730   20.6940 H   0  0  0  0  0  0  0  0  0  0  0  0
    3.0560    3.2570   19.3010 H   0  0  0  0  0  0  0  0  0  0  0  0
    1.6180    4.1900   18.8840 H   0  0  0  0  0  0  0  0  0  0  0  0
    4.4830    3.7310   15.3710 H   0  0  0  0  0  0  0  0  0  0  0  0
    6.9270    4.0610   15.0790 H   0  0  0  0  0  0  0  0  0  0  0  0
    8.2900    4.9660   16.9480 H   0  0  0  0  0  0  0  0  0  0  0  0
    7.2040    5.5670   19.0980 H   0  0  0  0  0  0  0  0  0  0  0  0
   -1.8060   12.5880   21.2900 S   0  0  0  0  0  0  0  0  0  0  0  0
   -2.6980   12.2450   20.2030 O   0  0  0  0  0  0  0  0  0  0  0  0
   -0.9290   13.7360   21.2080 O   0  0  0  0  0  0  0  0  0  0  0  0
   -2.7380   12.7520   22.7100 N   0  0  0  0  0  0  0  0  0  0  0  0
   -2.3660   13.9110   23.5900 C   0  0  0  0  0  0  0  0  0  0  0  0
   -3.5180   14.2530   24.5410 C   0  0  0  0  0  0  0  0  0  0  0  0
   -4.7020   14.6790   23.8550 O   0  0  0  0  0  0  0  0  0  0  0  0
   -4.8540   14.0800   22.5590 C   0  0  0  0  0  0  0  0  0  0  0  0
   -4.2200   12.6890   22.4660 C   0  0  0  0  0  0  0  0  0  0  0  0
   -1.4830   13.6390   24.1770 H   0  0  0  0  0  0  0  0  0  0  0  0
   -2.1340   14.7900   22.9800 H   0  0  0  0  0  0  0  0  0  0  0  0
   -3.7790   13.3880   25.1610 H   0  0  0  0  0  0  0  0  0  0  0  0
   -3.2220   15.0610   25.2170 H   0  0  0  0  0  0  0  0  0  0  0  0
   -5.9260   14.0200   22.3520 H   0  0  0  0  0  0  0  0  0  0  0  0
   -4.4130   14.7580   21.8210 H   0  0  0  0  0  0  0  0  0  0  0  0
   -4.4470   12.2420   21.4940 H   0  0  0  0  0  0  0  0  0  0  0  0
   -4.6430   12.0250   23.2300 H   0  0  0  0  0  0  0  0  0  0  0  0
  1  2  1  0  0  0  0
  2  7  1  0  0  0  0
  2  3  2  0  0  0  0
  3  8  1  0  0  0  0
  4  3  1  0  0  0  0
  4  9  1  0  0  0  0
  5  4  2  0  0  0  0
  6  1  2  0  0  0  0
  6  5  1  0  0  0  0
 10  6  1  0  0  0  0
 11 12  2  0  0  0  0
 12 13  1  0  0  0  0
 12  1  1  0  0  0  0
 13 14  1  0  0  0  0
 15 18  1  0  0  0  0
 15 13  1  0  0  0  0
 16 15  1  0  0  0  0
 17 15  1  0  0  0  0
 18 28  1  1  0  0  0
 19 30  1  0  0  0  0
 19 29  1  0  0  0  0
 19 18  1  0  0  0  0
 20 19  1  0  0  0  0
 21 20  1  0  0  0  0
 21 26  1  0  0  0  0
 22 21  2  0  0  0  0
 23 22  1  0  0  0  0
 23 24  2  0  0  0  0
 24 25  1  0  0  0  0
 25 26  2  0  0  0  0
 25 34  1  0  0  0  0
 26 27  1  0  0  0  0
 27 18  1  0  0  0  0
 31 22  1  0  0  0  0
 32 23  1  0  0  0  0
 33 24  1  0  0  0  0
 35  5  1  0  0  0  0
 35 38  1  0  0  0  0
 36 35  2  0  0  0  0
 37 35  2  0  0  0  0
 38 39  1  0  0  0  0
 39 44  1  0  0  0  0
 39 40  1  0  0  0  0
 40 46  1  0  0  0  0
 40 47  1  0  0  0  0
 41 40  1  0  0  0  0
 42 41  1  0  0  0  0
 43 42  1  0  0  0  0
 43 38  1  0  0  0  0
 43 51  1  0  0  0  0
 45 39  1  0  0  0  0
 48 42  1  0  0  0  0
 49 42  1  0  0  0  0
 50 43  1  0  0  0  0
M  END
>  <MODEL>
4

>  <REMARK>
 VINA RESULT:    -8.540      2.852      4.402
 INTER + INTRA:         -11.117
 INTER:                 -10.516
 INTRA:                  -0.601
 UNBOUND:                -0.080
  Name = 
  5 active torsions:
  status: ('A' for Active; 'I' for Inactive)
    1  A    between atoms: C_2  and  C_15
    2  A    between atoms: N_3  and  C_4
    3  A    between atoms: C_4  and  C_5
    4  A    between atoms: C_19  and  S_20
    5  A    between atoms: S_20  and  N_23
                            x       y       z     vdW  Elec       q    Type
                         _______ _______ _______ _____ _____    ______ ____

>  <TORSDO>
F 5

$$$$
=
 OpenBabel07192307433D

 51 54  0  0  1  0  0  0  0  0999 V2000
    1.4400    8.6860   19.5220 C   0  0  0  0  0  0  0  0  0  0  0  0
    1.3190    8.0970   20.7890 C   0  0  0  0  0  0  0  0  0  0  0  0
    0.4740    8.6540   21.7530 C   0  0  0  0  0  0  0  0  0  0  0  0
   -0.2670    9.7960   21.4550 C   0  0  0  0  0  0  0  0  0  0  0  0
   -0.1650   10.3640   20.1810 C   0  0  0  0  0  0  0  0  0  0  0  0
    0.6850    9.8220   19.2110 C   0  0  0  0  0  0  0  0  0  0  0  0
    1.8940    7.2040   21.0300 H   0  0  0  0  0  0  0  0  0  0  0  0
    0.3980    8.1960   22.7370 H   0  0  0  0  0  0  0  0  0  0  0  0
   -0.9180   10.2300   22.2110 H   0  0  0  0  0  0  0  0  0  0  0  0
    0.7280   10.2760   18.2250 H   0  0  0  0  0  0  0  0  0  0  0  0
    2.4580    8.5250   17.4060 O   0  0  0  0  0  0  0  0  0  0  0  0
    2.3540    8.0540   18.5320 C   0  0  0  0  0  0  0  0  0  0  0  0
    3.0360    6.9320   18.9530 N   0  0  0  0  0  0  0  0  0  0  0  0
    2.7390    6.4700   19.8030 H   0  0  0  0  0  0  0  0  0  0  0  0
    3.8510    6.1510   18.0370 C   0  0  0  0  0  0  0  0  0  0  0  0
    4.1760    6.8300   17.2420 H   0  0  0  0  0  0  0  0  0  0  0  0
    4.7600    5.8450   18.5670 H   0  0  0  0  0  0  0  0  0  0  0  0
    3.1610    4.9030   17.4500 C   0  0  1  0  0  0  0  0  0  0  0  0
    4.0420    3.6560   17.4420 C   0  0  0  0  0  0  0  0  0  0  0  0
    4.4150    3.2650   18.7670 O   0  0  0  0  0  0  0  0  0  0  0  0
    3.3180    3.2280   19.5890 C   0  0  0  0  0  0  0  0  0  0  0  0
    3.4460    2.5090   20.7760 C   0  0  0  0  0  0  0  0  0  0  0  0
    2.3640    2.4200   21.6540 C   0  0  0  0  0  0  0  0  0  0  0  0
    1.1600    3.0540   21.3460 C   0  0  0  0  0  0  0  0  0  0  0  0
    1.0380    3.7860   20.1630 C   0  0  0  0  0  0  0  0  0  0  0  0
    2.1210    3.8840   19.2910 C   0  0  0  0  0  0  0  0  0  0  0  0
    1.9360    4.6500   18.1690 O   0  0  0  0  0  0  0  0  0  0  0  0
    2.8640    5.1090   16.4150 H   0  0  0  0  0  0  0  0  0  0  0  0
    3.5190    2.8120   16.9710 H   0  0  0  0  0  0  0  0  0  0  0  0
    4.9610    3.8250   16.8720 H   0  0  0  0  0  0  0  0  0  0  0  0
    4.3820    2.0110   21.0110 H   0  0  0  0  0  0  0  0  0  0  0  0
    2.4610    1.8540   22.5770 H   0  0  0  0  0  0  0  0  0  0  0  0
    0.3170    2.9820   22.0280 H   0  0  0  0  0  0  0  0  0  0  0  0
    0.1040    4.2880   19.9270 H   0  0  0  0  0  0  0  0  0  0  0  0
   -1.1050   11.8110   19.7710 S   0  0  0  0  0  0  0  0  0  0  0  0
   -2.0700   12.0020   20.8340 O   0  0  0  0  0  0  0  0  0  0  0  0
   -1.5200   11.7240   18.3880 O   0  0  0  0  0  0  0  0  0  0  0  0
    0.0590   13.0540   19.8830 N   0  0  0  0  0  0  0  0  0  0  0  0
    1.2080   12.7730   20.8090 C   0  0  0  0  0  0  0  0  0  0  0  0
    2.3950   13.6870   20.4830 C   0  0  0  0  0  0  0  0  0  0  0  0
    2.9230   13.4700   19.1680 O   0  0  0  0  0  0  0  0  0  0  0  0
    1.9320   13.0360   18.2230 C   0  0  0  0  0  0  0  0  0  0  0  0
    0.5290   13.5570   18.5460 C   0  0  0  0  0  0  0  0  0  0  0  0
    0.8840   12.9570   21.8380 H   0  0  0  0  0  0  0  0  0  0  0  0
    1.5250   11.7290   20.7140 H   0  0  0  0  0  0  0  0  0  0  0  0
    2.1060   14.7410   20.5610 H   0  0  0  0  0  0  0  0  0  0  0  0
    3.2080   13.5170   21.1940 H   0  0  0  0  0  0  0  0  0  0  0  0
    2.2480   13.3890   17.2370 H   0  0  0  0  0  0  0  0  0  0  0  0
    1.9450   11.9410   18.2010 H   0  0  0  0  0  0  0  0  0  0  0  0
   -0.1640   13.2790   17.7470 H   0  0  0  0  0  0  0  0  0  0  0  0
    0.5320   14.6530   18.6000 H   0  0  0  0  0  0  0  0  0  0  0  0
  1  2  1  0  0  0  0
  2  7  1  0  0  0  0
  2  3  2  0  0  0  0
  3  8  1  0  0  0  0
  4  3  1  0  0  0  0
  4  9  1  0  0  0  0
  5  4  2  0  0  0  0
  6  1  2  0  0  0  0
  6  5  1  0  0  0  0
 10  6  1  0  0  0  0
 11 12  2  0  0  0  0
 12 13  1  0  0  0  0
 12  1  1  0  0  0  0
 13 14  1  0  0  0  0
 15 17  1  0  0  0  0
 15 13  1  0  0  0  0
 16 15  1  0  0  0  0
 18 28  1  6  0  0  0
 18 15  1  0  0  0  0
 18 27  1  0  0  0  0
 19 18  1  0  0  0  0
 19 20  1  0  0  0  0
 20 21  1  0  0  0  0
 21 22  1  0  0  0  0
 22 31  1  0  0  0  0
 22 23  2  0  0  0  0
 23 32  1  0  0  0  0
 24 23  1  0  0  0  0
 24 33  1  0  0  0  0
 25 24  2  0  0  0  0
 26 21  2  0  0  0  0
 26 25  1  0  0  0  0
 27 26  1  0  0  0  0
 29 19  1  0  0  0  0
 30 19  1  0  0  0  0
 34 25  1  0  0  0  0
 35 38  1  0  0  0  0
 35  5  1  0  0  0  0
 35 36  2  0  0  0  0
 37 35  2  0  0  0  0
 38 39  1  0  0  0  0
 39 44  1  0  0  0  0
 40 46  1  0  0  0  0
 40 39  1  0  0  0  0
 40 47  1  0  0  0  0
 41 40  1  0  0  0  0
 42 43  1  0  0  0  0
 42 41  1  0  0  0  0
 43 51  1  0  0  0  0
 43 38  1  0  0  0  0
 45 39  1  0  0  0  0
 48 42  1  0  0  0  0
 49 42  1  0  0  0  0
 50 43  1  0  0  0  0
M  END
>  <MODEL>
5

>  <REMARK>
 VINA RESULT:    -8.501      1.982      2.921
 INTER + INTRA:         -11.066
 INTER:                 -10.509
 INTRA:                  -0.557
 UNBOUND:                -0.080
  Name = 
  5 active torsions:
  status: ('A' for Active; 'I' for Inactive)
    1  A    between atoms: C_2  and  C_15
    2  A    between atoms: N_3  and  C_4
    3  A    between atoms: C_4  and  C_5
    4  A    between atoms: C_19  and  S_20
    5  A    between atoms: S_20  and  N_23
                            x       y       z     vdW  Elec       q    Type
                         _______ _______ _______ _____ _____    ______ ____

>  <TORSDO>
F 5

$$$$
=
 OpenBabel07192307433D

 51 54  0  0  1  0  0  0  0  0999 V2000
    1.2550    8.6580   20.1400 C   0  0  0  0  0  0  0  0  0  0  0  0
    1.2210    8.5440   21.5370 C   0  0  0  0  0  0  0  0  0  0  0  0
    0.5030    9.4620   22.3080 C   0  0  0  0  0  0  0  0  0  0  0  0
   -0.1990   10.4940   21.6880 C   0  0  0  0  0  0  0  0  0  0  0  0
   -0.1870   10.5880   20.2930 C   0  0  0  0  0  0  0  0  0  0  0  0
    0.5380    9.6810   19.5120 C   0  0  0  0  0  0  0  0  0  0  0  0
    1.7660    7.7400   22.0310 H   0  0  0  0  0  0  0  0  0  0  0  0
    0.4950    9.3720   23.3920 H   0  0  0  0  0  0  0  0  0  0  0  0
   -0.7510   11.2110   22.2920 H   0  0  0  0  0  0  0  0  0  0  0  0
    0.5120    9.7690   18.4290 H   0  0  0  0  0  0  0  0  0  0  0  0
    2.6500    7.9950   18.3640 O   0  0  0  0  0  0  0  0  0  0  0  0
    2.0350    7.6540   19.3670 C   0  0  0  0  0  0  0  0  0  0  0  0
    2.0030    6.3570   19.8340 N   0  0  0  0  0  0  0  0  0  0  0  0
    1.3050    6.1020   20.5220 H   0  0  0  0  0  0  0  0  0  0  0  0
    2.6120    5.2670   19.0890 C   0  0  0  0  0  0  0  0  0  0  0  0
    1.8360    4.5050   18.9490 H   0  0  0  0  0  0  0  0  0  0  0  0
    2.8590    5.6360   18.0870 H   0  0  0  0  0  0  0  0  0  0  0  0
    3.8740    4.6600   19.7320 C   0  0  1  0  0  0  0  0  0  0  0  0
    4.1820    3.2380   19.2690 C   0  0  0  0  0  0  0  0  0  0  0  0
    4.4400    3.1860   17.8620 O   0  0  0  0  0  0  0  0  0  0  0  0
    5.3430    4.1510   17.4980 C   0  0  0  0  0  0  0  0  0  0  0  0
    5.9790    3.9860   16.2690 C   0  0  0  0  0  0  0  0  0  0  0  0
    6.9180    4.9260   15.8420 C   0  0  0  0  0  0  0  0  0  0  0  0
    7.2170    6.0300   16.6420 C   0  0  0  0  0  0  0  0  0  0  0  0
    6.5680    6.2010   17.8660 C   0  0  0  0  0  0  0  0  0  0  0  0
    5.6220    5.2690   18.2880 C   0  0  0  0  0  0  0  0  0  0  0  0
    5.0020    5.5250   19.4840 O   0  0  0  0  0  0  0  0  0  0  0  0
    3.7480    4.6370   20.8200 H   0  0  0  0  0  0  0  0  0  0  0  0
    5.0610    2.8390   19.7920 H   0  0  0  0  0  0  0  0  0  0  0  0
    3.3460    2.5640   19.4800 H   0  0  0  0  0  0  0  0  0  0  0  0
    5.7500    3.1230   15.6510 H   0  0  0  0  0  0  0  0  0  0  0  0
    7.4200    4.7950   14.8860 H   0  0  0  0  0  0  0  0  0  0  0  0
    7.9510    6.7590   16.3110 H   0  0  0  0  0  0  0  0  0  0  0  0
    6.7920    7.0660   18.4840 H   0  0  0  0  0  0  0  0  0  0  0  0
   -1.0800   11.8860   19.4770 S   0  0  0  0  0  0  0  0  0  0  0  0
   -0.2420   12.3580   18.3960 O   0  0  0  0  0  0  0  0  0  0  0  0
   -1.6000   12.7940   20.4760 O   0  0  0  0  0  0  0  0  0  0  0  0
   -2.4050   11.0530   18.7970 N   0  0  0  0  0  0  0  0  0  0  0  0
   -3.6750   11.8480   18.6910 C   0  0  0  0  0  0  0  0  0  0  0  0
   -4.6220   11.2120   17.6680 C   0  0  0  0  0  0  0  0  0  0  0  0
   -4.0840   11.2020   16.3390 O   0  0  0  0  0  0  0  0  0  0  0  0
   -2.6520   11.1060   16.3080 C   0  0  0  0  0  0  0  0  0  0  0  0
   -2.0760   10.3510   17.5090 C   0  0  0  0  0  0  0  0  0  0  0  0
   -4.1630   11.8660   19.6710 H   0  0  0  0  0  0  0  0  0  0  0  0
   -3.4530   12.8750   18.3820 H   0  0  0  0  0  0  0  0  0  0  0  0
   -4.8560   10.1780   17.9460 H   0  0  0  0  0  0  0  0  0  0  0  0
   -5.5660   11.7630   17.6340 H   0  0  0  0  0  0  0  0  0  0  0  0
   -2.3800   10.5980   15.3780 H   0  0  0  0  0  0  0  0  0  0  0  0
   -2.2470   12.1230   16.2570 H   0  0  0  0  0  0  0  0  0  0  0  0
   -0.9960   10.2250   17.3860 H   0  0  0  0  0  0  0  0  0  0  0  0
   -2.5110    9.3460   17.5710 H   0  0  0  0  0  0  0  0  0  0  0  0
  1  2  1  0  0  0  0
  2  7  1  0  0  0  0
  2  3  2  0  0  0  0
  3  8  1  0  0  0  0
  4  9  1  0  0  0  0
  4  3  1  0  0  0  0
  5  4  2  0  0  0  0
  6  1  2  0  0  0  0
  6  5  1  0  0  0  0
 10  6  1  0  0  0  0
 11 12  2  0  0  0  0
 12 13  1  0  0  0  0
 12  1  1  0  0  0  0
 13 14  1  0  0  0  0
 15 18  1  0  0  0  0
 15 13  1  0  0  0  0
 16 15  1  0  0  0  0
 17 15  1  0  0  0  0
 18 28  1  1  0  0  0
 19 30  1  0  0  0  0
 19 18  1  0  0  0  0
 19 29  1  0  0  0  0
 20 19  1  0  0  0  0
 21 20  1  0  0  0  0
 21 26  1  0  0  0  0
 22 21  2  0  0  0  0
 23 22  1  0  0  0  0
 23 24  2  0  0  0  0
 24 25  1  0  0  0  0
 25 26  2  0  0  0  0
 25 34  1  0  0  0  0
 26 27  1  0  0  0  0
 27 18  1  0  0  0  0
 31 22  1  0  0  0  0
 32 23  1  0  0  0  0
 33 24  1  0  0  0  0
 35  5  1  0  0  0  0
 35 37  2  0  0  0  0
 36 35  2  0  0  0  0
 38 35  1  0  0  0  0
 39 38  1  0  0  0  0
 39 44  1  0  0  0  0
 40 46  1  0  0  0  0
 40 39  1  0  0  0  0
 41 40  1  0  0  0  0
 42 41  1  0  0  0  0
 42 43  1  0  0  0  0
 43 51  1  0  0  0  0
 43 38  1  0  0  0  0
 45 39  1  0  0  0  0
 47 40  1  0  0  0  0
 48 42  1  0  0  0  0
 49 42  1  0  0  0  0
 50 43  1  0  0  0  0
M  END
>  <MODEL>
6

>  <REMARK>
 VINA RESULT:    -8.468      1.472      2.985
 INTER + INTRA:         -11.024
 INTER:                 -10.474
 INTRA:                  -0.550
 UNBOUND:                -0.080
  Name = 
  5 active torsions:
  status: ('A' for Active; 'I' for Inactive)
    1  A    between atoms: C_2  and  C_15
    2  A    between atoms: N_3  and  C_4
    3  A    between atoms: C_4  and  C_5
    4  A    between atoms: C_19  and  S_20
    5  A    between atoms: S_20  and  N_23
                            x       y       z     vdW  Elec       q    Type
                         _______ _______ _______ _____ _____    ______ ____

>  <TORSDO>
F 5

$$$$
=
 OpenBabel07192307433D

 51 54  0  0  1  0  0  0  0  0999 V2000
    2.7460    6.4640   18.8120 C   0  0  0  0  0  0  0  0  0  0  0  0
    2.3640    5.2190   19.3300 C   0  0  0  0  0  0  0  0  0  0  0  0
    2.8790    4.0370   18.7920 C   0  0  0  0  0  0  0  0  0  0  0  0
    3.7910    4.0900   17.7390 C   0  0  0  0  0  0  0  0  0  0  0  0
    4.1920    5.3350   17.2440 C   0  0  0  0  0  0  0  0  0  0  0  0
    3.6750    6.5250   17.7680 C   0  0  0  0  0  0  0  0  0  0  0  0
    1.6530    5.1680   20.1540 H   0  0  0  0  0  0  0  0  0  0  0  0
    2.5660    3.0760   19.1930 H   0  0  0  0  0  0  0  0  0  0  0  0
    4.1850    3.1670   17.3180 H   0  0  0  0  0  0  0  0  0  0  0  0
    4.0200    7.4760   17.3730 H   0  0  0  0  0  0  0  0  0  0  0  0
    2.0430    8.7100   18.7510 O   0  0  0  0  0  0  0  0  0  0  0  0
    2.1680    7.6920   19.4210 C   0  0  0  0  0  0  0  0  0  0  0  0
    1.8120    7.6100   20.7510 N   0  0  0  0  0  0  0  0  0  0  0  0
    2.1460    6.8270   21.2990 H   0  0  0  0  0  0  0  0  0  0  0  0
    1.3650    8.7800   21.4910 C   0  0  0  0  0  0  0  0  0  0  0  0
    1.8240    8.7230   22.4840 H   0  0  0  0  0  0  0  0  0  0  0  0
    1.7900    9.6690   21.0100 H   0  0  0  0  0  0  0  0  0  0  0  0
   -0.1650    8.9410   21.5970 C   0  0  1  0  0  0  0  0  0  0  0  0
   -0.6080    9.9530   22.6510 C   0  0  0  0  0  0  0  0  0  0  0  0
   -0.1320   11.2700   22.3520 O   0  0  0  0  0  0  0  0  0  0  0  0
   -0.3980   11.5960   21.0470 C   0  0  0  0  0  0  0  0  0  0  0  0
   -0.3510   12.9490   20.7160 C   0  0  0  0  0  0  0  0  0  0  0  0
   -0.6220   13.3530   19.4070 C   0  0  0  0  0  0  0  0  0  0  0  0
   -0.9340   12.4040   18.4330 C   0  0  0  0  0  0  0  0  0  0  0  0
   -0.9660   11.0480   18.7630 C   0  0  0  0  0  0  0  0  0  0  0  0
   -0.6850   10.6430   20.0660 C   0  0  0  0  0  0  0  0  0  0  0  0
   -0.7000    9.2930   20.3050 O   0  0  0  0  0  0  0  0  0  0  0  0
   -0.6110    7.9740   21.8530 H   0  0  0  0  0  0  0  0  0  0  0  0
   -1.7030    9.9930   22.7170 H   0  0  0  0  0  0  0  0  0  0  0  0
   -0.2340    9.6800   23.6430 H   0  0  0  0  0  0  0  0  0  0  0  0
   -0.1140   13.6870   21.4770 H   0  0  0  0  0  0  0  0  0  0  0  0
   -0.5930   14.4090   19.1490 H   0  0  0  0  0  0  0  0  0  0  0  0
   -1.1500   12.7200   17.4150 H   0  0  0  0  0  0  0  0  0  0  0  0
   -1.1990   10.3080   18.0020 H   0  0  0  0  0  0  0  0  0  0  0  0
    5.3590    5.4320   15.9110 S   0  0  0  0  0  0  0  0  0  0  0  0
    5.0380    6.6240   15.1560 O   0  0  0  0  0  0  0  0  0  0  0  0
    5.4460    4.1370   15.2710 O   0  0  0  0  0  0  0  0  0  0  0  0
    6.8330    5.7020   16.7280 N   0  0  0  0  0  0  0  0  0  0  0  0
    6.9560    7.0370   17.4050 C   0  0  0  0  0  0  0  0  0  0  0  0
    8.0530    6.9990   18.4730 C   0  0  0  0  0  0  0  0  0  0  0  0
    7.7700    6.0770   19.5330 O   0  0  0  0  0  0  0  0  0  0  0  0
    6.9920    4.9460   19.1090 C   0  0  0  0  0  0  0  0  0  0  0  0
    7.2280    4.5740   17.6420 C   0  0  0  0  0  0  0  0  0  0  0  0
    7.2110    7.7910   16.6530 H   0  0  0  0  0  0  0  0  0  0  0  0
    6.0060    7.3100   17.8770 H   0  0  0  0  0  0  0  0  0  0  0  0
    9.0170    6.7190   18.0310 H   0  0  0  0  0  0  0  0  0  0  0  0
    8.1760    7.9880   18.9240 H   0  0  0  0  0  0  0  0  0  0  0  0
    7.2570    4.1070   19.7580 H   0  0  0  0  0  0  0  0  0  0  0  0
    5.9360    5.1780   19.2870 H   0  0  0  0  0  0  0  0  0  0  0  0
    6.6870    3.6550   17.4010 H   0  0  0  0  0  0  0  0  0  0  0  0
    8.2920    4.3770   17.4660 H   0  0  0  0  0  0  0  0  0  0  0  0
  1  2  1  0  0  0  0
  1 12  1  0  0  0  0
  2  7  1  0  0  0  0
  3  8  1  0  0  0  0
  3  2  2  0  0  0  0
  4  3  1  0  0  0  0
  5  4  2  0  0  0  0
  5  6  1  0  0  0  0
  6  1  2  0  0  0  0
  9  4  1  0  0  0  0
 10  6  1  0  0  0  0
 11 12  2  0  0  0  0
 12 13  1  0  0  0  0
 13 14  1  0  0  0  0
 13 15  1  0  0  0  0
 15 18  1  0  0  0  0
 15 16  1  0  0  0  0
 17 15  1  0  0  0  0
 18 28  1  1  0  0  0
 18 19  1  0  0  0  0
 19 29  1  0  0  0  0
 19 30  1  0  0  0  0
 20 19  1  0  0  0  0
 21 20  1  0  0  0  0
 22 21  1  0  0  0  0
 22 31  1  0  0  0  0
 23 22  2  0  0  0  0
 24 25  2  0  0  0  0
 24 23  1  0  0  0  0
 25 26  1  0  0  0  0
 26 27  1  0  0  0  0
 26 21  2  0  0  0  0
 27 18  1  0  0  0  0
 32 23  1  0  0  0  0
 33 24  1  0  0  0  0
 34 25  1  0  0  0  0
 35 38  1  0  0  0  0
 35  5  1  0  0  0  0
 36 35  2  0  0  0  0
 37 35  2  0  0  0  0
 38 39  1  0  0  0  0
 38 43  1  0  0  0  0
 39 45  1  0  0  0  0
 39 40  1  0  0  0  0
 40 47  1  0  0  0  0
 40 41  1  0  0  0  0
 42 49  1  0  0  0  0
 42 41  1  0  0  0  0
 42 48  1  0  0  0  0
 43 42  1  0  0  0  0
 44 39  1  0  0  0  0
 46 40  1  0  0  0  0
 50 43  1  0  0  0  0
 51 43  1  0  0  0  0
M  END
>  <MODEL>
7

>  <REMARK>
 VINA RESULT:    -8.402      3.264      8.778
 INTER + INTRA:         -10.938
 INTER:                 -10.476
 INTRA:                  -0.462
 UNBOUND:                -0.080
  Name = 
  5 active torsions:
  status: ('A' for Active; 'I' for Inactive)
    1  A    between atoms: C_2  and  C_15
    2  A    between atoms: N_3  and  C_4
    3  A    between atoms: C_4  and  C_5
    4  A    between atoms: C_19  and  S_20
    5  A    between atoms: S_20  and  N_23
                            x       y       z     vdW  Elec       q    Type
                         _______ _______ _______ _____ _____    ______ ____

>  <TORSDO>
F 5

$$$$
=
 OpenBabel07192307433D

 51 54  0  0  1  0  0  0  0  0999 V2000
    1.0700    8.9480   19.9370 C   0  0  0  0  0  0  0  0  0  0  0  0
    1.3320    9.4870   18.6690 C   0  0  0  0  0  0  0  0  0  0  0  0
    2.1640    8.8160   17.7690 C   0  0  0  0  0  0  0  0  0  0  0  0
    2.7310    7.5940   18.1240 C   0  0  0  0  0  0  0  0  0  0  0  0
    2.4460    7.0450   19.3770 C   0  0  0  0  0  0  0  0  0  0  0  0
    1.6230    7.7130   20.2910 C   0  0  0  0  0  0  0  0  0  0  0  0
    0.8910   10.4420   18.3830 H   0  0  0  0  0  0  0  0  0  0  0  0
    2.3710    9.2510   16.7940 H   0  0  0  0  0  0  0  0  0  0  0  0
    3.3850    7.0780   17.4220 H   0  0  0  0  0  0  0  0  0  0  0  0
    1.4050    7.2510   21.2500 H   0  0  0  0  0  0  0  0  0  0  0  0
   -0.3960    9.1210   21.7700 O   0  0  0  0  0  0  0  0  0  0  0  0
    0.1780    9.7030   20.8570 C   0  0  0  0  0  0  0  0  0  0  0  0
    0.0340   11.0510   20.6070 N   0  0  0  0  0  0  0  0  0  0  0  0
    0.3480   11.4190   19.7180 H   0  0  0  0  0  0  0  0  0  0  0  0
   -0.9140   11.8650   21.3510 C   0  0  0  0  0  0  0  0  0  0  0  0
   -1.7260   11.2000   21.6640 H   0  0  0  0  0  0  0  0  0  0  0  0
   -0.4230   12.2010   22.2720 H   0  0  0  0  0  0  0  0  0  0  0  0
   -1.4620   13.0890   20.5910 C   0  0  1  0  0  0  0  0  0  0  0  0
   -0.7540   13.3630   19.2660 C   0  0  0  0  0  0  0  0  0  0  0  0
   -0.9120   12.2750   18.3490 O   0  0  0  0  0  0  0  0  0  0  0  0
   -2.2280   11.8980   18.2670 C   0  0  0  0  0  0  0  0  0  0  0  0
   -2.5950   11.1370   17.1590 C   0  0  0  0  0  0  0  0  0  0  0  0
   -3.9210   10.7280   17.0070 C   0  0  0  0  0  0  0  0  0  0  0  0
   -4.8750   11.0750   17.9650 C   0  0  0  0  0  0  0  0  0  0  0  0
   -4.5020   11.8250   19.0820 C   0  0  0  0  0  0  0  0  0  0  0  0
   -3.1760   12.2250   19.2400 C   0  0  0  0  0  0  0  0  0  0  0  0
   -2.8800   12.9260   20.3800 O   0  0  0  0  0  0  0  0  0  0  0  0
   -1.3530   13.9800   21.2190 H   0  0  0  0  0  0  0  0  0  0  0  0
   -1.1510   14.2700   18.7920 H   0  0  0  0  0  0  0  0  0  0  0  0
    0.3190   13.5190   19.4170 H   0  0  0  0  0  0  0  0  0  0  0  0
   -1.8530   10.8720   16.4110 H   0  0  0  0  0  0  0  0  0  0  0  0
   -4.2110   10.1400   16.1390 H   0  0  0  0  0  0  0  0  0  0  0  0
   -5.9080   10.7600   17.8440 H   0  0  0  0  0  0  0  0  0  0  0  0
   -5.2410   12.0880   19.8330 H   0  0  0  0  0  0  0  0  0  0  0  0
    3.1460    5.4850   19.8500 S   0  0  0  0  0  0  0  0  0  0  0  0
    2.5950    5.1510   21.1460 O   0  0  0  0  0  0  0  0  0  0  0  0
    4.5760    5.5290   19.6310 O   0  0  0  0  0  0  0  0  0  0  0  0
    2.4810    4.4160   18.6980 N   0  0  0  0  0  0  0  0  0  0  0  0
    3.4640    3.4860   18.0450 C   0  0  0  0  0  0  0  0  0  0  0  0
    2.7370    2.2890   17.4220 C   0  0  0  0  0  0  0  0  0  0  0  0
    2.0580    1.4810   18.3920 O   0  0  0  0  0  0  0  0  0  0  0  0
    1.5940    2.2270   19.5280 C   0  0  0  0  0  0  0  0  0  0  0  0
    1.2630    3.6840   19.1920 C   0  0  0  0  0  0  0  0  0  0  0  0
    3.9970    4.0320   17.2600 H   0  0  0  0  0  0  0  0  0  0  0  0
    4.1870    3.1210   18.7820 H   0  0  0  0  0  0  0  0  0  0  0  0
    1.9990    2.6240   16.6840 H   0  0  0  0  0  0  0  0  0  0  0  0
    3.4510    1.6440   16.9010 H   0  0  0  0  0  0  0  0  0  0  0  0
    0.7060    1.7180   19.9110 H   0  0  0  0  0  0  0  0  0  0  0  0
    2.3650    2.1730   20.3040 H   0  0  0  0  0  0  0  0  0  0  0  0
    0.8270    4.1770   20.0650 H   0  0  0  0  0  0  0  0  0  0  0  0
    0.5160    3.7300   18.3900 H   0  0  0  0  0  0  0  0  0  0  0  0
  1  6  1  0  0  0  0
  1 12  1  0  0  0  0
  2  1  2  0  0  0  0
  3  4  2  0  0  0  0
  3  2  1  0  0  0  0
  4  5  1  0  0  0  0
  5 35  1  0  0  0  0
  5  6  2  0  0  0  0
  6 10  1  0  0  0  0
  7  2  1  0  0  0  0
  8  3  1  0  0  0  0
  9  4  1  0  0  0  0
 12 11  2  0  0  0  0
 13 12  1  0  0  0  0
 13 15  1  0  0  0  0
 14 13  1  0  0  0  0
 15 16  1  0  0  0  0
 15 17  1  0  0  0  0
 18 28  1  1  0  0  0
 18 15  1  0  0  0  0
 19 30  1  0  0  0  0
 19 18  1  0  0  0  0
 20 19  1  0  0  0  0
 21 20  1  0  0  0  0
 21 26  1  0  0  0  0
 22 21  2  0  0  0  0
 23 22  1  0  0  0  0
 23 24  2  0  0  0  0
 24 25  1  0  0  0  0
 25 26  2  0  0  0  0
 25 34  1  0  0  0  0
 26 27  1  0  0  0  0
 27 18  1  0  0  0  0
 29 19  1  0  0  0  0
 31 22  1  0  0  0  0
 32 23  1  0  0  0  0
 33 24  1  0  0  0  0
 35 36  2  0  0  0  0
 37 35  2  0  0  0  0
 38 43  1  0  0  0  0
 38 35  1  0  0  0  0
 39 38  1  0  0  0  0
 39 45  1  0  0  0  0
 40 39  1  0  0  0  0
 40 41  1  0  0  0  0
 41 42  1  0  0  0  0
 42 48  1  0  0  0  0
 42 49  1  0  0  0  0
 43 42  1  0  0  0  0
 43 50  1  0  0  0  0
 44 39  1  0  0  0  0
 46 40  1  0  0  0  0
 47 40  1  0  0  0  0
 51 43  1  0  0  0  0
M  END
>  <MODEL>
8

>  <REMARK>
 VINA RESULT:    -8.389      2.364      8.623
 INTER + INTRA:         -10.922
 INTER:                  -9.998
 INTRA:                  -0.924
 UNBOUND:                -0.080
  Name = 
  5 active torsions:
  status: ('A' for Active; 'I' for Inactive)
    1  A    between atoms: C_2  and  C_15
    2  A    between atoms: N_3  and  C_4
    3  A    between atoms: C_4  and  C_5
    4  A    between atoms: C_19  and  S_20
    5  A    between atoms: S_20  and  N_23
                            x       y       z     vdW  Elec       q    Type
                         _______ _______ _______ _____ _____    ______ ____

>  <TORSDO>
F 5

$$$$
=
 OpenBabel07192307433D

 51 54  0  0  1  0  0  0  0  0999 V2000
    2.6880    7.3240   18.7730 C   0  0  0  0  0  0  0  0  0  0  0  0
    2.6980    8.2240   17.6980 C   0  0  0  0  0  0  0  0  0  0  0  0
    1.9780    9.4210   17.7660 C   0  0  0  0  0  0  0  0  0  0  0  0
    1.2550    9.7340   18.9150 C   0  0  0  0  0  0  0  0  0  0  0  0
    1.2700    8.8470   19.9970 C   0  0  0  0  0  0  0  0  0  0  0  0
    1.9780    7.6410   19.9350 C   0  0  0  0  0  0  0  0  0  0  0  0
    3.2620    7.9880   16.7960 H   0  0  0  0  0  0  0  0  0  0  0  0
    1.9830   10.1050   16.9210 H   0  0  0  0  0  0  0  0  0  0  0  0
    0.6900   10.6630   18.9610 H   0  0  0  0  0  0  0  0  0  0  0  0
    1.9850    6.9820   20.7990 H   0  0  0  0  0  0  0  0  0  0  0  0
    4.1860    5.6940   19.5710 O   0  0  0  0  0  0  0  0  0  0  0  0
    3.4700    6.0650   18.6490 C   0  0  0  0  0  0  0  0  0  0  0  0
    3.3490    5.3800   17.4580 N   0  0  0  0  0  0  0  0  0  0  0  0
    2.9280    5.8480   16.6660 H   0  0  0  0  0  0  0  0  0  0  0  0
    4.1650    4.2120   17.1670 C   0  0  0  0  0  0  0  0  0  0  0  0
    4.6500    4.3960   16.2020 H   0  0  0  0  0  0  0  0  0  0  0  0
    4.9720    4.1680   17.9090 H   0  0  0  0  0  0  0  0  0  0  0  0
    3.4080    2.8690   17.1600 C   0  0  1  0  0  0  0  0  0  0  0  0
    4.1330    1.7460   17.8980 C   0  0  0  0  0  0  0  0  0  0  0  0
    4.3030    2.0510   19.2870 O   0  0  0  0  0  0  0  0  0  0  0  0
    3.1220    2.4760   19.8380 C   0  0  0  0  0  0  0  0  0  0  0  0
    3.0270    2.4380   21.2270 C   0  0  0  0  0  0  0  0  0  0  0  0
    1.8490    2.8450   21.8550 C   0  0  0  0  0  0  0  0  0  0  0  0
    0.7690    3.2940   21.0920 C   0  0  0  0  0  0  0  0  0  0  0  0
    0.8710    3.3450   19.7000 C   0  0  0  0  0  0  0  0  0  0  0  0
    2.0510    2.9480   19.0740 C   0  0  0  0  0  0  0  0  0  0  0  0
    2.0880    3.0610   17.7090 O   0  0  0  0  0  0  0  0  0  0  0  0
    3.2590    2.5460   16.1240 H   0  0  0  0  0  0  0  0  0  0  0  0
    3.5740    0.8050   17.8210 H   0  0  0  0  0  0  0  0  0  0  0  0
    5.1250    1.5690   17.4710 H   0  0  0  0  0  0  0  0  0  0  0  0
    3.8660    2.0830   21.8200 H   0  0  0  0  0  0  0  0  0  0  0  0
    1.7710    2.8100   22.9390 H   0  0  0  0  0  0  0  0  0  0  0  0
   -0.1500    3.6070   21.5800 H   0  0  0  0  0  0  0  0  0  0  0  0
    0.0350    3.7030   19.1060 H   0  0  0  0  0  0  0  0  0  0  0  0
    0.3660    9.2260   21.4750 S   0  0  0  0  0  0  0  0  0  0  0  0
    1.3290    9.2860   22.5540 O   0  0  0  0  0  0  0  0  0  0  0  0
   -0.7920    8.3610   21.5490 O   0  0  0  0  0  0  0  0  0  0  0  0
   -0.1930   10.8100   21.1720 N   0  0  0  0  0  0  0  0  0  0  0  0
   -1.3780   10.9070   20.2540 C   0  0  0  0  0  0  0  0  0  0  0  0
   -2.0800   12.2580   20.4260 C   0  0  0  0  0  0  0  0  0  0  0  0
   -2.6190   12.4450   21.7410 O   0  0  0  0  0  0  0  0  0  0  0  0
   -1.8690   11.7690   22.7630 C   0  0  0  0  0  0  0  0  0  0  0  0
   -0.3840   11.6270   22.4200 C   0  0  0  0  0  0  0  0  0  0  0  0
   -1.0310   10.8100   19.2200 H   0  0  0  0  0  0  0  0  0  0  0  0
   -2.0900   10.1040   20.4700 H   0  0  0  0  0  0  0  0  0  0  0  0
   -1.3870   13.0840   20.2250 H   0  0  0  0  0  0  0  0  0  0  0  0
   -2.9080   12.3460   19.7170 H   0  0  0  0  0  0  0  0  0  0  0  0
   -1.9900   12.3420   23.6870 H   0  0  0  0  0  0  0  0  0  0  0  0
   -2.3280   10.7870   22.9230 H   0  0  0  0  0  0  0  0  0  0  0  0
    0.1540   11.1940   23.2690 H   0  0  0  0  0  0  0  0  0  0  0  0
    0.0590   12.6120   22.2290 H   0  0  0  0  0  0  0  0  0  0  0  0
  1  6  1  0  0  0  0
  2  3  1  0  0  0  0
  2  1  2  0  0  0  0
  3  4  2  0  0  0  0
  4  9  1  0  0  0  0
  4  5  1  0  0  0  0
  5 35  1  0  0  0  0
  6  5  2  0  0  0  0
  6 10  1  0  0  0  0
  7  2  1  0  0  0  0
  8  3  1  0  0  0  0
 12  1  1  0  0  0  0
 12 11  2  0  0  0  0
 13 12  1  0  0  0  0
 14 13  1  0  0  0  0
 15 13  1  0  0  0  0
 15 17  1  0  0  0  0
 16 15  1  0  0  0  0
 18 28  1  6  0  0  0
 18 15  1  0  0  0  0
 18 27  1  0  0  0  0
 18 19  1  0  0  0  0
 19 20  1  0  0  0  0
 20 21  1  0  0  0  0
 21 22  1  0  0  0  0
 22 31  1  0  0  0  0
 22 23  2  0  0  0  0
 23 32  1  0  0  0  0
 24 33  1  0  0  0  0
 24 23  1  0  0  0  0
 25 24  2  0  0  0  0
 26 25  1  0  0  0  0
 26 21  2  0  0  0  0
 27 26  1  0  0  0  0
 29 19  1  0  0  0  0
 30 19  1  0  0  0  0
 34 25  1  0  0  0  0
 35 37  2  0  0  0  0
 35 36  2  0  0  0  0
 38 35  1  0  0  0  0
 38 43  1  0  0  0  0
 39 40  1  0  0  0  0
 39 45  1  0  0  0  0
 39 38  1  0  0  0  0
 40 41  1  0  0  0  0
 41 42  1  0  0  0  0
 42 49  1  0  0  0  0
 42 48  1  0  0  0  0
 43 42  1  0  0  0  0
 43 50  1  0  0  0  0
 44 39  1  0  0  0  0
 46 40  1  0  0  0  0
 47 40  1  0  0  0  0
 51 43  1  0  0  0  0
M  END
>  <MODEL>
9

>  <REMARK>
 VINA RESULT:    -8.356      2.480      3.277
 INTER + INTRA:         -10.879
 INTER:                 -10.283
 INTRA:                  -0.597
 UNBOUND:                -0.080
  Name = 
  5 active torsions:
  status: ('A' for Active; 'I' for Inactive)
    1  A    between atoms: C_2  and  C_15
    2  A    between atoms: N_3  and  C_4
    3  A    between atoms: C_4  and  C_5
    4  A    between atoms: C_19  and  S_20
    5  A    between atoms: S_20  and  N_23
                            x       y       z     vdW  Elec       q    Type
                         _______ _______ _______ _____ _____    ______ ____

>  <TORSDO>
F 5

$$$$
=
 OpenBabel07192307433D

 51 54  0  0  1  0  0  0  0  0999 V2000
    1.7190    8.4490   19.3110 C   0  0  0  0  0  0  0  0  0  0  0  0
    1.5630    7.8140   20.5510 C   0  0  0  0  0  0  0  0  0  0  0  0
    0.7210    8.3560   21.5260 C   0  0  0  0  0  0  0  0  0  0  0  0
    0.0170    9.5300   21.2640 C   0  0  0  0  0  0  0  0  0  0  0  0
    0.1520   10.1450   20.0150 C   0  0  0  0  0  0  0  0  0  0  0  0
    1.0010    9.6170   19.0360 C   0  0  0  0  0  0  0  0  0  0  0  0
    2.1090    6.8950   20.7650 H   0  0  0  0  0  0  0  0  0  0  0  0
    0.6180    7.8620   22.4900 H   0  0  0  0  0  0  0  0  0  0  0  0
   -0.6330    9.9520   22.0290 H   0  0  0  0  0  0  0  0  0  0  0  0
    1.0700   10.1080   18.0690 H   0  0  0  0  0  0  0  0  0  0  0  0
    2.7680    8.3470   17.2070 O   0  0  0  0  0  0  0  0  0  0  0  0
    2.6280    7.8310   18.3090 C   0  0  0  0  0  0  0  0  0  0  0  0
    3.2650    6.6680   18.6900 N   0  0  0  0  0  0  0  0  0  0  0  0
    2.9370    6.1790   19.5130 H   0  0  0  0  0  0  0  0  0  0  0  0
    4.0690    5.9000   17.7520 C   0  0  0  0  0  0  0  0  0  0  0  0
    4.3220    6.5730   16.9250 H   0  0  0  0  0  0  0  0  0  0  0  0
    5.0170    5.6520   18.2430 H   0  0  0  0  0  0  0  0  0  0  0  0
    3.4100    4.6070   17.2320 C   0  0  1  0  0  0  0  0  0  0  0  0
    4.2740    3.3600   17.4080 C   0  0  0  0  0  0  0  0  0  0  0  0
    4.5400    3.0930   18.7890 O   0  0  0  0  0  0  0  0  0  0  0  0
    3.3840    3.1380   19.5240 C   0  0  0  0  0  0  0  0  0  0  0  0
    3.4120    2.5340   20.7790 C   0  0  0  0  0  0  0  0  0  0  0  0
    2.2650    2.5330   21.5750 C   0  0  0  0  0  0  0  0  0  0  0  0
    1.0950    3.1410   21.1170 C   0  0  0  0  0  0  0  0  0  0  0  0
    1.0730    3.7600   19.8660 C   0  0  0  0  0  0  0  0  0  0  0  0
    2.2200    3.7700   19.0750 C   0  0  0  0  0  0  0  0  0  0  0  0
    2.1320    4.4280   17.8760 O   0  0  0  0  0  0  0  0  0  0  0  0
    3.1960    4.7170   16.1640 H   0  0  0  0  0  0  0  0  0  0  0  0
    3.7790    2.4790   16.9800 H   0  0  0  0  0  0  0  0  0  0  0  0
    5.2360    3.4700   16.8980 H   0  0  0  0  0  0  0  0  0  0  0  0
    4.3210    2.0550   21.1310 H   0  0  0  0  0  0  0  0  0  0  0  0
    2.2840    2.0550   22.5520 H   0  0  0  0  0  0  0  0  0  0  0  0
    0.2020    3.1370   21.7360 H   0  0  0  0  0  0  0  0  0  0  0  0
    0.1660    4.2420   19.5130 H   0  0  0  0  0  0  0  0  0  0  0  0
   -0.7410   11.6340   19.6520 S   0  0  0  0  0  0  0  0  0  0  0  0
   -1.9180   11.2470   18.9040 O   0  0  0  0  0  0  0  0  0  0  0  0
    0.1850   12.6200   19.1380 O   0  0  0  0  0  0  0  0  0  0  0  0
   -1.2410   12.1530   21.1980 N   0  0  0  0  0  0  0  0  0  0  0  0
   -0.3110   13.1140   21.8840 C   0  0  0  0  0  0  0  0  0  0  0  0
   -1.0460   13.8700   22.9960 C   0  0  0  0  0  0  0  0  0  0  0  0
   -2.1170   14.6850   22.5040 O   0  0  0  0  0  0  0  0  0  0  0  0
   -2.7340   14.1580   21.3190 C   0  0  0  0  0  0  0  0  0  0  0  0
   -2.6670   12.6300   21.2390 C   0  0  0  0  0  0  0  0  0  0  0  0
    0.5190   12.5500   22.3200 H   0  0  0  0  0  0  0  0  0  0  0  0
    0.0850   13.8360   21.1620 H   0  0  0  0  0  0  0  0  0  0  0  0
   -1.4630   13.1710   23.7310 H   0  0  0  0  0  0  0  0  0  0  0  0
   -0.3520   14.5270   23.5270 H   0  0  0  0  0  0  0  0  0  0  0  0
   -3.7770   14.4890   21.3200 H   0  0  0  0  0  0  0  0  0  0  0  0
   -2.2440   14.6150   20.4520 H   0  0  0  0  0  0  0  0  0  0  0  0
   -3.2320   12.2780   20.3710 H   0  0  0  0  0  0  0  0  0  0  0  0
   -3.1290   12.1810   22.1260 H   0  0  0  0  0  0  0  0  0  0  0  0
  1  2  1  0  0  0  0
  2  7  1  0  0  0  0
  2  3  2  0  0  0  0
  3  8  1  0  0  0  0
  4  3  1  0  0  0  0
  4  9  1  0  0  0  0
  5  4  2  0  0  0  0
  6  1  2  0  0  0  0
  6  5  1  0  0  0  0
 10  6  1  0  0  0  0
 11 12  2  0  0  0  0
 12 13  1  0  0  0  0
 12  1  1  0  0  0  0
 13 14  1  0  0  0  0
 15 17  1  0  0  0  0
 15 13  1  0  0  0  0
 16 15  1  0  0  0  0
 18 28  1  6  0  0  0
 18 19  1  0  0  0  0
 18 15  1  0  0  0  0
 18 27  1  0  0  0  0
 19 20  1  0  0  0  0
 20 21  1  0  0  0  0
 21 22  1  0  0  0  0
 22 31  1  0  0  0  0
 22 23  2  0  0  0  0
 23 32  1  0  0  0  0
 24 23  1  0  0  0  0
 24 33  1  0  0  0  0
 25 24  2  0  0  0  0
 26 21  2  0  0  0  0
 26 25  1  0  0  0  0
 27 26  1  0  0  0  0
 29 19  1  0  0  0  0
 30 19  1  0  0  0  0
 34 25  1  0  0  0  0
 35  5  1  0  0  0  0
 35 38  1  0  0  0  0
 36 35  2  0  0  0  0
 37 35  2  0  0  0  0
 38 43  1  0  0  0  0
 38 39  1  0  0  0  0
 39 44  1  0  0  0  0
 39 40  1  0  0  0  0
 40 47  1  0  0  0  0
 40 46  1  0  0  0  0
 41 40  1  0  0  0  0
 42 48  1  0  0  0  0
 42 41  1  0  0  0  0
 43 42  1  0  0  0  0
 43 51  1  0  0  0  0
 45 39  1  0  0  0  0
 49 42  1  0  0  0  0
 50 43  1  0  0  0  0
M  END
>  <MODEL>
10

>  <REMARK>
 VINA RESULT:    -8.354      1.879      2.767
 INTER + INTRA:         -10.876
 INTER:                 -10.194
 INTRA:                  -0.682
 UNBOUND:                -0.080
  Name = 
  5 active torsions:
  status: ('A' for Active; 'I' for Inactive)
    1  A    between atoms: C_2  and  C_15
    2  A    between atoms: N_3  and  C_4
    3  A    between atoms: C_4  and  C_5
    4  A    between atoms: C_19  and  S_20
    5  A    between atoms: S_20  and  N_23
                            x       y       z     vdW  Elec       q    Type
                         _______ _______ _______ _____ _____    ______ ____

>  <TORSDO>
F 5

$$$$
=
 OpenBabel07192307433D

 51 54  0  0  1  0  0  0  0  0999 V2000
    1.2830    9.1640   19.6460 C   0  0  0  0  0  0  0  0  0  0  0  0
    1.3190    8.3860   20.8110 C   0  0  0  0  0  0  0  0  0  0  0  0
    0.6470    8.8020   21.9650 C   0  0  0  0  0  0  0  0  0  0  0  0
   -0.0770    9.9920   21.9580 C   0  0  0  0  0  0  0  0  0  0  0  0
   -0.1340   10.7520   20.7850 C   0  0  0  0  0  0  0  0  0  0  0  0
    0.5430   10.3510   19.6280 C   0  0  0  0  0  0  0  0  0  0  0  0
    1.8810    7.4530   20.8260 H   0  0  0  0  0  0  0  0  0  0  0  0
    0.6930    8.1970   22.8670 H   0  0  0  0  0  0  0  0  0  0  0  0
   -0.5920   10.3160   22.8600 H   0  0  0  0  0  0  0  0  0  0  0  0
    0.4640   10.9530   18.7270 H   0  0  0  0  0  0  0  0  0  0  0  0
    1.9540    9.3000   17.3940 O   0  0  0  0  0  0  0  0  0  0  0  0
    2.0150    8.6760   18.4460 C   0  0  0  0  0  0  0  0  0  0  0  0
    2.7260    7.5040   18.5940 N   0  0  0  0  0  0  0  0  0  0  0  0
    2.5540    6.9260   19.4080 H   0  0  0  0  0  0  0  0  0  0  0  0
    3.3680    6.8570   17.4610 C   0  0  0  0  0  0  0  0  0  0  0  0
    2.5750    6.5950   16.7520 H   0  0  0  0  0  0  0  0  0  0  0  0
    3.9940    7.6020   16.9550 H   0  0  0  0  0  0  0  0  0  0  0  0
    4.2260    5.6250   17.8110 C   0  0  1  0  0  0  0  0  0  0  0  0
    4.6070    5.5360   19.2870 C   0  0  0  0  0  0  0  0  0  0  0  0
    3.4520    5.4140   20.1240 O   0  0  0  0  0  0  0  0  0  0  0  0
    2.6140    4.4360   19.6530 C   0  0  0  0  0  0  0  0  0  0  0  0
    1.6660    3.9390   20.5450 C   0  0  0  0  0  0  0  0  0  0  0  0
    0.7880    2.9340   20.1360 C   0  0  0  0  0  0  0  0  0  0  0  0
    0.8560    2.4320   18.8350 C   0  0  0  0  0  0  0  0  0  0  0  0
    1.7970    2.9430   17.9390 C   0  0  0  0  0  0  0  0  0  0  0  0
    2.6670    3.9530   18.3430 C   0  0  0  0  0  0  0  0  0  0  0  0
    3.5370    4.4280   17.3960 O   0  0  0  0  0  0  0  0  0  0  0  0
    5.1530    5.6550   17.2270 H   0  0  0  0  0  0  0  0  0  0  0  0
    5.2550    4.6690   19.4710 H   0  0  0  0  0  0  0  0  0  0  0  0
    5.1590    6.4260   19.6070 H   0  0  0  0  0  0  0  0  0  0  0  0
    1.6180    4.3260   21.5590 H   0  0  0  0  0  0  0  0  0  0  0  0
    0.0520    2.5400   20.8330 H   0  0  0  0  0  0  0  0  0  0  0  0
    0.1750    1.6470   18.5180 H   0  0  0  0  0  0  0  0  0  0  0  0
    1.8440    2.5600   16.9230 H   0  0  0  0  0  0  0  0  0  0  0  0
   -1.0570   12.2660   20.7460 S   0  0  0  0  0  0  0  0  0  0  0  0
   -2.3730   11.9440   20.2370 O   0  0  0  0  0  0  0  0  0  0  0  0
   -0.2440   13.2930   20.1310 O   0  0  0  0  0  0  0  0  0  0  0  0
   -1.2080   12.6510   22.4010 N   0  0  0  0  0  0  0  0  0  0  0  0
   -0.7870   14.0440   22.7760 C   0  0  0  0  0  0  0  0  0  0  0  0
   -1.3920   14.4420   24.1270 C   0  0  0  0  0  0  0  0  0  0  0  0
   -2.8250   14.4860   24.1060 O   0  0  0  0  0  0  0  0  0  0  0  0
   -3.4080   13.5510   23.1840 C   0  0  0  0  0  0  0  0  0  0  0  0
   -2.5510   12.2990   22.9790 C   0  0  0  0  0  0  0  0  0  0  0  0
    0.3050   14.0740   22.8480 H   0  0  0  0  0  0  0  0  0  0  0  0
   -1.1160   14.7570   22.0130 H   0  0  0  0  0  0  0  0  0  0  0  0
   -1.0870   13.7390   24.9110 H   0  0  0  0  0  0  0  0  0  0  0  0
   -1.0380   15.4340   24.4210 H   0  0  0  0  0  0  0  0  0  0  0  0
   -4.3900   13.2760   23.5790 H   0  0  0  0  0  0  0  0  0  0  0  0
   -3.5700   14.0720   22.2340 H   0  0  0  0  0  0  0  0  0  0  0  0
   -3.0840   11.5830   22.3470 H   0  0  0  0  0  0  0  0  0  0  0  0
   -2.3660   11.8030   23.9400 H   0  0  0  0  0  0  0  0  0  0  0  0
  1  2  1  0  0  0  0
  2  7  1  0  0  0  0
  2  3  2  0  0  0  0
  3  8  1  0  0  0  0
  4  3  1  0  0  0  0
  4  9  1  0  0  0  0
  5  4  2  0  0  0  0
  6  1  2  0  0  0  0
  6  5  1  0  0  0  0
 10  6  1  0  0  0  0
 11 12  2  0  0  0  0
 12 13  1  0  0  0  0
 12  1  1  0  0  0  0
 13 14  1  0  0  0  0
 15 18  1  0  0  0  0
 15 13  1  0  0  0  0
 16 15  1  0  0  0  0
 17 15  1  0  0  0  0
 18 28  1  6  0  0  0
 18 19  1  0  0  0  0
 19 29  1  0  0  0  0
 19 30  1  0  0  0  0
 19 20  1  0  0  0  0
 21 20  1  0  0  0  0
 21 22  1  0  0  0  0
 22 31  1  0  0  0  0
 23 22  2  0  0  0  0
 23 32  1  0  0  0  0
 24 23  1  0  0  0  0
 25 26  1  0  0  0  0
 25 24  2  0  0  0  0
 26 21  2  0  0  0  0
 27 18  1  0  0  0  0
 27 26  1  0  0  0  0
 33 24  1  0  0  0  0
 34 25  1  0  0  0  0
 35  5  1  0  0  0  0
 35 38  1  0  0  0  0
 36 35  2  0  0  0  0
 37 35  2  0  0  0  0
 38 39  1  0  0  0  0
 38 43  1  0  0  0  0
 39 44  1  0  0  0  0
 39 40  1  0  0  0  0
 40 47  1  0  0  0  0
 40 46  1  0  0  0  0
 41 40  1  0  0  0  0
 42 48  1  0  0  0  0
 42 41  1  0  0  0  0
 43 42  1  0  0  0  0
 43 51  1  0  0  0  0
 45 39  1  0  0  0  0
 49 42  1  0  0  0  0
 50 43  1  0  0  0  0
M  END
>  <MODEL>
11

>  <REMARK>
 VINA RESULT:    -8.340      2.449      3.547
 INTER + INTRA:         -10.858
 INTER:                 -10.205
 INTRA:                  -0.653
 UNBOUND:                -0.080
  Name = 
  5 active torsions:
  status: ('A' for Active; 'I' for Inactive)
    1  A    between atoms: C_2  and  C_15
    2  A    between atoms: N_3  and  C_4
    3  A    between atoms: C_4  and  C_5
    4  A    between atoms: C_19  and  S_20
    5  A    between atoms: S_20  and  N_23
                            x       y       z     vdW  Elec       q    Type
                         _______ _______ _______ _____ _____    ______ ____

>  <TORSDO>
F 5

$$$$
=
 OpenBabel07192307433D

 51 54  0  0  1  0  0  0  0  0999 V2000
    1.1490    8.7100   19.9800 C   0  0  0  0  0  0  0  0  0  0  0  0
    1.2710    9.5890   18.8940 C   0  0  0  0  0  0  0  0  0  0  0  0
    2.0370    9.2380   17.7790 C   0  0  0  0  0  0  0  0  0  0  0  0
    2.6750    8.0000   17.7330 C   0  0  0  0  0  0  0  0  0  0  0  0
    2.5270    7.1140   18.8050 C   0  0  0  0  0  0  0  0  0  0  0  0
    1.7720    7.4590   19.9310 C   0  0  0  0  0  0  0  0  0  0  0  0
    0.7750   10.5580   18.9210 H   0  0  0  0  0  0  0  0  0  0  0  0
    2.1360    9.9340   16.9490 H   0  0  0  0  0  0  0  0  0  0  0  0
    3.2770    7.7340   16.8660 H   0  0  0  0  0  0  0  0  0  0  0  0
    1.6610    6.7410   20.7400 H   0  0  0  0  0  0  0  0  0  0  0  0
   -0.4200    8.3270   21.6920 O   0  0  0  0  0  0  0  0  0  0  0  0
    0.3220    9.1320   21.1420 C   0  0  0  0  0  0  0  0  0  0  0  0
    0.4340   10.4500   21.5310 N   0  0  0  0  0  0  0  0  0  0  0  0
    0.8830   11.1070   20.9060 H   0  0  0  0  0  0  0  0  0  0  0  0
   -0.4210   11.0120   22.5640 C   0  0  0  0  0  0  0  0  0  0  0  0
   -1.3540   10.4380   22.5520 H   0  0  0  0  0  0  0  0  0  0  0  0
    0.0450   10.8140   23.5360 H   0  0  0  0  0  0  0  0  0  0  0  0
   -0.6990   12.5230   22.4320 C   0  0  1  0  0  0  0  0  0  0  0  0
   -0.3080   13.1070   21.0760 C   0  0  0  0  0  0  0  0  0  0  0  0
   -1.0560   12.5130   20.0100 O   0  0  0  0  0  0  0  0  0  0  0  0
   -2.3950   12.5050   20.3030 C   0  0  0  0  0  0  0  0  0  0  0  0
   -3.2710   12.3240   19.2350 C   0  0  0  0  0  0  0  0  0  0  0  0
   -4.6490   12.3170   19.4610 C   0  0  0  0  0  0  0  0  0  0  0  0
   -5.1470   12.4850   20.7540 C   0  0  0  0  0  0  0  0  0  0  0  0
   -4.2670   12.6510   21.8250 C   0  0  0  0  0  0  0  0  0  0  0  0
   -2.8910   12.6480   21.6020 C   0  0  0  0  0  0  0  0  0  0  0  0
   -2.0910   12.7800   22.7070 O   0  0  0  0  0  0  0  0  0  0  0  0
   -0.1360   13.0610   23.2030 H   0  0  0  0  0  0  0  0  0  0  0  0
   -0.4820   14.1910   21.0540 H   0  0  0  0  0  0  0  0  0  0  0  0
    0.7550   12.9460   20.8680 H   0  0  0  0  0  0  0  0  0  0  0  0
   -2.8830   12.1990   18.2290 H   0  0  0  0  0  0  0  0  0  0  0  0
   -5.3340   12.1830   18.6270 H   0  0  0  0  0  0  0  0  0  0  0  0
   -6.2190   12.4830   20.9290 H   0  0  0  0  0  0  0  0  0  0  0  0
   -4.6530   12.7720   22.8330 H   0  0  0  0  0  0  0  0  0  0  0  0
    3.3210    5.5280   18.7680 S   0  0  0  0  0  0  0  0  0  0  0  0
    2.6340    4.7370   17.7700 O   0  0  0  0  0  0  0  0  0  0  0  0
    3.4780    5.0520   20.1260 O   0  0  0  0  0  0  0  0  0  0  0  0
    4.8740    5.9040   18.1710 N   0  0  0  0  0  0  0  0  0  0  0  0
    6.0200    5.4170   19.0120 C   0  0  0  0  0  0  0  0  0  0  0  0
    7.3100    5.3700   18.1870 C   0  0  0  0  0  0  0  0  0  0  0  0
    7.2400    4.4470   17.0930 O   0  0  0  0  0  0  0  0  0  0  0  0
    5.9150    4.2970   16.5600 C   0  0  0  0  0  0  0  0  0  0  0  0
    5.0600    5.5560   16.7200 C   0  0  0  0  0  0  0  0  0  0  0  0
    6.1550    6.1030   19.8540 H   0  0  0  0  0  0  0  0  0  0  0  0
    5.8060    4.4140   19.3980 H   0  0  0  0  0  0  0  0  0  0  0  0
    7.5460    6.3610   17.7790 H   0  0  0  0  0  0  0  0  0  0  0  0
    8.1510    5.0680   18.8180 H   0  0  0  0  0  0  0  0  0  0  0  0
    6.0180    4.0420   15.5010 H   0  0  0  0  0  0  0  0  0  0  0  0
    5.4470    3.4420   17.0600 H   0  0  0  0  0  0  0  0  0  0  0  0
    4.0990    5.4200   16.2150 H   0  0  0  0  0  0  0  0  0  0  0  0
    5.5520    6.4140   16.2450 H   0  0  0  0  0  0  0  0  0  0  0  0
  1 12  1  0  0  0  0
  2  7  1  0  0  0  0
  2  1  2  0  0  0  0
  3  2  1  0  0  0  0
  4  3  2  0  0  0  0
  4  5  1  0  0  0  0
  5  6  2  0  0  0  0
  6  1  1  0  0  0  0
  6 10  1  0  0  0  0
  8  3  1  0  0  0  0
  9  4  1  0  0  0  0
 12 13  1  0  0  0  0
 12 11  2  0  0  0  0
 13 15  1  0  0  0  0
 14 13  1  0  0  0  0
 15 17  1  0  0  0  0
 16 15  1  0  0  0  0
 18 15  1  0  0  0  0
 18 27  1  0  0  0  0
 18 28  1  1  0  0  0
 19 18  1  0  0  0  0
 20 21  1  0  0  0  0
 20 19  1  0  0  0  0
 21 26  1  0  0  0  0
 22 23  1  0  0  0  0
 22 21  2  0  0  0  0
 23 24  2  0  0  0  0
 24 33  1  0  0  0  0
 24 25  1  0  0  0  0
 25 34  1  0  0  0  0
 26 25  2  0  0  0  0
 26 27  1  0  0  0  0
 29 19  1  0  0  0  0
 30 19  1  0  0  0  0
 31 22  1  0  0  0  0
 32 23  1  0  0  0  0
 35  5  1  0  0  0  0
 35 37  2  0  0  0  0
 36 35  2  0  0  0  0
 38 35  1  0  0  0  0
 38 39  1  0  0  0  0
 39 45  1  0  0  0  0
 39 44  1  0  0  0  0
 40 47  1  0  0  0  0
 40 39  1  0  0  0  0
 41 40  1  0  0  0  0
 42 43  1  0  0  0  0
 42 49  1  0  0  0  0
 42 41  1  0  0  0  0
 43 38  1  0  0  0  0
 46 40  1  0  0  0  0
 48 42  1  0  0  0  0
 50 43  1  0  0  0  0
 51 43  1  0  0  0  0
M  END
>  <MODEL>
12

>  <REMARK>
 VINA RESULT:    -8.337      3.145      9.077
 INTER + INTRA:         -10.854
 INTER:                  -9.899
 INTRA:                  -0.955
 UNBOUND:                -0.080
  Name = 
  5 active torsions:
  status: ('A' for Active; 'I' for Inactive)
    1  A    between atoms: C_2  and  C_15
    2  A    between atoms: N_3  and  C_4
    3  A    between atoms: C_4  and  C_5
    4  A    between atoms: C_19  and  S_20
    5  A    between atoms: S_20  and  N_23
                            x       y       z     vdW  Elec       q    Type
                         _______ _______ _______ _____ _____    ______ ____

>  <TORSDO>
F 5

$$$$
=
 OpenBabel07192307433D

 51 54  0  0  1  0  0  0  0  0999 V2000
    2.0450    6.8000   19.5710 C   0  0  0  0  0  0  0  0  0  0  0  0
    2.7790    6.9840   18.3910 C   0  0  0  0  0  0  0  0  0  0  0  0
    2.7810    8.2210   17.7400 C   0  0  0  0  0  0  0  0  0  0  0  0
    2.0610    9.2890   18.2720 C   0  0  0  0  0  0  0  0  0  0  0  0
    1.3530    9.1100   19.4650 C   0  0  0  0  0  0  0  0  0  0  0  0
    1.3350    7.8740   20.1190 C   0  0  0  0  0  0  0  0  0  0  0  0
    3.3460    6.1550   17.9690 H   0  0  0  0  0  0  0  0  0  0  0  0
    3.3440    8.3470   16.8180 H   0  0  0  0  0  0  0  0  0  0  0  0
    2.0600   10.2480   17.7580 H   0  0  0  0  0  0  0  0  0  0  0  0
    0.7900    7.7720   21.0540 H   0  0  0  0  0  0  0  0  0  0  0  0
    1.9430    5.3700   21.4380 O   0  0  0  0  0  0  0  0  0  0  0  0
    2.0760    5.4640   20.2240 C   0  0  0  0  0  0  0  0  0  0  0  0
    2.2750    4.3790   19.3960 N   0  0  0  0  0  0  0  0  0  0  0  0
    2.6000    4.5390   18.4510 H   0  0  0  0  0  0  0  0  0  0  0  0
    2.4600    3.0390   19.9310 C   0  0  0  0  0  0  0  0  0  0  0  0
    2.4180    3.1240   21.0220 H   0  0  0  0  0  0  0  0  0  0  0  0
    1.5930    2.4350   19.6390 H   0  0  0  0  0  0  0  0  0  0  0  0
    3.7510    2.3280   19.4800 C   0  0  1  0  0  0  0  0  0  0  0  0
    3.7160    1.8440   18.0320 C   0  0  0  0  0  0  0  0  0  0  0  0
    3.5720    2.9330   17.1150 O   0  0  0  0  0  0  0  0  0  0  0  0
    4.4700    3.9290   17.4000 C   0  0  0  0  0  0  0  0  0  0  0  0
    4.7170    4.8600   16.3930 C   0  0  0  0  0  0  0  0  0  0  0  0
    5.6290    5.8940   16.6120 C   0  0  0  0  0  0  0  0  0  0  0  0
    6.2860    5.9990   17.8390 C   0  0  0  0  0  0  0  0  0  0  0  0
    6.0260    5.0750   18.8520 C   0  0  0  0  0  0  0  0  0  0  0  0
    5.1080    4.0480   18.6380 C   0  0  0  0  0  0  0  0  0  0  0  0
    4.8790    3.2020   19.6910 O   0  0  0  0  0  0  0  0  0  0  0  0
    3.9230    1.4550   20.1200 H   0  0  0  0  0  0  0  0  0  0  0  0
    4.6390    1.3040   17.7790 H   0  0  0  0  0  0  0  0  0  0  0  0
    2.8830    1.1540   17.8660 H   0  0  0  0  0  0  0  0  0  0  0  0
    4.2090    4.7740   15.4370 H   0  0  0  0  0  0  0  0  0  0  0  0
    5.8280    6.6170   15.8250 H   0  0  0  0  0  0  0  0  0  0  0  0
    6.9990    6.8020   18.0080 H   0  0  0  0  0  0  0  0  0  0  0  0
    6.5300    5.1610   19.8100 H   0  0  0  0  0  0  0  0  0  0  0  0
    0.4360   10.4560   20.1690 S   0  0  0  0  0  0  0  0  0  0  0  0
    1.3970   11.4750   20.5340 O   0  0  0  0  0  0  0  0  0  0  0  0
   -0.5020    9.9270   21.1350 O   0  0  0  0  0  0  0  0  0  0  0  0
   -0.4630   11.0290   18.8360 N   0  0  0  0  0  0  0  0  0  0  0  0
   -1.4130   10.0350   18.2300 C   0  0  0  0  0  0  0  0  0  0  0  0
   -2.4810   10.7530   17.3980 C   0  0  0  0  0  0  0  0  0  0  0  0
   -3.3100   11.6200   18.1810 O   0  0  0  0  0  0  0  0  0  0  0  0
   -2.6310   12.1840   19.3140 C   0  0  0  0  0  0  0  0  0  0  0  0
   -1.1270   12.3550   19.0860 C   0  0  0  0  0  0  0  0  0  0  0  0
   -0.8470    9.3570   17.5820 H   0  0  0  0  0  0  0  0  0  0  0  0
   -1.9040    9.4530   19.0160 H   0  0  0  0  0  0  0  0  0  0  0  0
   -2.0180   11.3530   16.6050 H   0  0  0  0  0  0  0  0  0  0  0  0
   -3.1360   10.0230   16.9140 H   0  0  0  0  0  0  0  0  0  0  0  0
   -3.0940   13.1530   19.5210 H   0  0  0  0  0  0  0  0  0  0  0  0
   -2.8230   11.5370   20.1770 H   0  0  0  0  0  0  0  0  0  0  0  0
   -0.6780   12.8730   19.9380 H   0  0  0  0  0  0  0  0  0  0  0  0
   -0.9440   12.9760   18.2000 H   0  0  0  0  0  0  0  0  0  0  0  0
  1  6  1  0  0  0  0
  1 12  1  0  0  0  0
  2  1  2  0  0  0  0
  3  4  2  0  0  0  0
  3  2  1  0  0  0  0
  4  5  1  0  0  0  0
  5  6  2  0  0  0  0
  5 35  1  0  0  0  0
  6 10  1  0  0  0  0
  7  2  1  0  0  0  0
  8  3  1  0  0  0  0
  9  4  1  0  0  0  0
 12 11  2  0  0  0  0
 13 15  1  0  0  0  0
 13 12  1  0  0  0  0
 14 13  1  0  0  0  0
 15 16  1  0  0  0  0
 17 15  1  0  0  0  0
 18 27  1  0  0  0  0
 18 15  1  0  0  0  0
 18 28  1  1  0  0  0
 19 18  1  0  0  0  0
 20 21  1  0  0  0  0
 20 19  1  0  0  0  0
 21 26  1  0  0  0  0
 22 23  1  0  0  0  0
 22 21  2  0  0  0  0
 23 24  2  0  0  0  0
 24 33  1  0  0  0  0
 24 25  1  0  0  0  0
 25 34  1  0  0  0  0
 26 25  2  0  0  0  0
 26 27  1  0  0  0  0
 29 19  1  0  0  0  0
 30 19  1  0  0  0  0
 31 22  1  0  0  0  0
 32 23  1  0  0  0  0
 35 36  2  0  0  0  0
 35 37  2  0  0  0  0
 38 43  1  0  0  0  0
 38 35  1  0  0  0  0
 39 38  1  0  0  0  0
 39 45  1  0  0  0  0
 40 41  1  0  0  0  0
 40 39  1  0  0  0  0
 41 42  1  0  0  0  0
 42 48  1  0  0  0  0
 42 49  1  0  0  0  0
 43 42  1  0  0  0  0
 43 50  1  0  0  0  0
 44 39  1  0  0  0  0
 46 40  1  0  0  0  0
 47 40  1  0  0  0  0
 51 43  1  0  0  0  0
M  END
>  <MODEL>
13

>  <REMARK>
 VINA RESULT:    -8.320      1.949      3.610
 INTER + INTRA:         -10.832
 INTER:                 -10.137
 INTRA:                  -0.695
 UNBOUND:                -0.080
  Name = 
  5 active torsions:
  status: ('A' for Active; 'I' for Inactive)
    1  A    between atoms: C_2  and  C_15
    2  A    between atoms: N_3  and  C_4
    3  A    between atoms: C_4  and  C_5
    4  A    between atoms: C_19  and  S_20
    5  A    between atoms: S_20  and  N_23
                            x       y       z     vdW  Elec       q    Type
                         _______ _______ _______ _____ _____    ______ ____

>  <TORSDO>
F 5

$$$$
=
 OpenBabel07192307433D

 51 54  0  0  1  0  0  0  0  0999 V2000
    1.1510    8.8620   19.9490 C   0  0  0  0  0  0  0  0  0  0  0  0
    1.2970    9.7710   18.8930 C   0  0  0  0  0  0  0  0  0  0  0  0
    2.0740    9.4470   17.7770 C   0  0  0  0  0  0  0  0  0  0  0  0
    2.7010    8.2050   17.7030 C   0  0  0  0  0  0  0  0  0  0  0  0
    2.5300    7.2890   18.7450 C   0  0  0  0  0  0  0  0  0  0  0  0
    1.7640    7.6070   19.8710 C   0  0  0  0  0  0  0  0  0  0  0  0
    0.8090   10.7450   18.9420 H   0  0  0  0  0  0  0  0  0  0  0  0
    2.1910   10.1670   16.9700 H   0  0  0  0  0  0  0  0  0  0  0  0
    3.3110    7.9590   16.8350 H   0  0  0  0  0  0  0  0  0  0  0  0
    1.6350    6.8660   20.6560 H   0  0  0  0  0  0  0  0  0  0  0  0
   -0.4620    8.4510   21.6130 O   0  0  0  0  0  0  0  0  0  0  0  0
    0.3130    9.2560   21.1130 C   0  0  0  0  0  0  0  0  0  0  0  0
    0.4550   10.5530   21.5620 N   0  0  0  0  0  0  0  0  0  0  0  0
    0.9350   11.2230   20.9750 H   0  0  0  0  0  0  0  0  0  0  0  0
   -0.4050   11.0940   22.6020 C   0  0  0  0  0  0  0  0  0  0  0  0
   -1.3240   10.4980   22.5980 H   0  0  0  0  0  0  0  0  0  0  0  0
    0.0740   10.9080   23.5710 H   0  0  0  0  0  0  0  0  0  0  0  0
   -0.7210   12.5980   22.4720 C   0  0  1  0  0  0  0  0  0  0  0  0
   -0.3300   13.1970   21.1230 C   0  0  0  0  0  0  0  0  0  0  0  0
   -1.0500   12.5880   20.0460 O   0  0  0  0  0  0  0  0  0  0  0  0
   -2.3920   12.5440   20.3250 C   0  0  0  0  0  0  0  0  0  0  0  0
   -3.2510   12.3440   19.2460 C   0  0  0  0  0  0  0  0  0  0  0  0
   -4.6300   12.3000   19.4560 C   0  0  0  0  0  0  0  0  0  0  0  0
   -5.1470   12.4500   20.7440 C   0  0  0  0  0  0  0  0  0  0  0  0
   -4.2840   12.6350   21.8260 C   0  0  0  0  0  0  0  0  0  0  0  0
   -2.9060   12.6690   21.6180 C   0  0  0  0  0  0  0  0  0  0  0  0
   -2.1220   12.8170   22.7330 O   0  0  0  0  0  0  0  0  0  0  0  0
   -0.1810   13.1470   23.2510 H   0  0  0  0  0  0  0  0  0  0  0  0
   -0.5320   14.2760   21.1030 H   0  0  0  0  0  0  0  0  0  0  0  0
    0.7390   13.0650   20.9270 H   0  0  0  0  0  0  0  0  0  0  0  0
   -2.8480   12.2340   18.2430 H   0  0  0  0  0  0  0  0  0  0  0  0
   -5.3030   12.1510   18.6140 H   0  0  0  0  0  0  0  0  0  0  0  0
   -6.2210   12.4200   20.9070 H   0  0  0  0  0  0  0  0  0  0  0  0
   -4.6850   12.7420   22.8300 H   0  0  0  0  0  0  0  0  0  0  0  0
    3.3090    5.6970   18.6710 S   0  0  0  0  0  0  0  0  0  0  0  0
    4.3540    5.6910   19.6720 O   0  0  0  0  0  0  0  0  0  0  0  0
    3.5930    5.3790   17.2880 O   0  0  0  0  0  0  0  0  0  0  0  0
    2.0660    4.6510   19.1940 N   0  0  0  0  0  0  0  0  0  0  0  0
    1.6240    3.6270   18.1880 C   0  0  0  0  0  0  0  0  0  0  0  0
    0.8900    2.4750   18.8830 C   0  0  0  0  0  0  0  0  0  0  0  0
    1.7240    1.7530   19.7980 O   0  0  0  0  0  0  0  0  0  0  0  0
    2.7400    2.5660   20.4040 C   0  0  0  0  0  0  0  0  0  0  0  0
    2.3280    4.0350   20.5410 C   0  0  0  0  0  0  0  0  0  0  0  0
    0.9480    4.1050   17.4720 H   0  0  0  0  0  0  0  0  0  0  0  0
    2.4900    3.2260   17.6510 H   0  0  0  0  0  0  0  0  0  0  0  0
    0.0210    2.8460   19.4380 H   0  0  0  0  0  0  0  0  0  0  0  0
    0.5230    1.7600   18.1410 H   0  0  0  0  0  0  0  0  0  0  0  0
    2.9530    2.1410   21.3890 H   0  0  0  0  0  0  0  0  0  0  0  0
    3.6500    2.4720   19.8010 H   0  0  0  0  0  0  0  0  0  0  0  0
    3.0950    4.5870   21.0910 H   0  0  0  0  0  0  0  0  0  0  0  0
    1.3980    4.1170   21.1170 H   0  0  0  0  0  0  0  0  0  0  0  0
  1 12  1  0  0  0  0
  2  7  1  0  0  0  0
  2  1  2  0  0  0  0
  3  2  1  0  0  0  0
  4  3  2  0  0  0  0
  4  5  1  0  0  0  0
  5  6  2  0  0  0  0
  6  1  1  0  0  0  0
  6 10  1  0  0  0  0
  8  3  1  0  0  0  0
  9  4  1  0  0  0  0
 12 13  1  0  0  0  0
 12 11  2  0  0  0  0
 13 15  1  0  0  0  0
 14 13  1  0  0  0  0
 15 17  1  0  0  0  0
 16 15  1  0  0  0  0
 18 15  1  0  0  0  0
 18 27  1  0  0  0  0
 18 28  1  1  0  0  0
 19 18  1  0  0  0  0
 20 21  1  0  0  0  0
 20 19  1  0  0  0  0
 21 26  1  0  0  0  0
 22 23  1  0  0  0  0
 22 21  2  0  0  0  0
 23 24  2  0  0  0  0
 24 33  1  0  0  0  0
 24 25  1  0  0  0  0
 25 34  1  0  0  0  0
 26 25  2  0  0  0  0
 26 27  1  0  0  0  0
 29 19  1  0  0  0  0
 30 19  1  0  0  0  0
 31 22  1  0  0  0  0
 32 23  1  0  0  0  0
 35  5  1  0  0  0  0
 35 38  1  0  0  0  0
 35 36  2  0  0  0  0
 37 35  2  0  0  0  0
 38 43  1  0  0  0  0
 39 40  1  0  0  0  0
 39 38  1  0  0  0  0
 40 46  1  0  0  0  0
 40 41  1  0  0  0  0
 41 42  1  0  0  0  0
 42 43  1  0  0  0  0
 42 48  1  0  0  0  0
 43 50  1  0  0  0  0
 43 51  1  0  0  0  0
 44 39  1  0  0  0  0
 45 39  1  0  0  0  0
 47 40  1  0  0  0  0
 49 42  1  0  0  0  0
M  END
>  <MODEL>
14

>  <REMARK>
 VINA RESULT:    -8.275      2.674      8.763
 INTER + INTRA:         -10.774
 INTER:                  -9.709
 INTRA:                  -1.065
 UNBOUND:                -0.080
  Name = 
  5 active torsions:
  status: ('A' for Active; 'I' for Inactive)
    1  A    between atoms: C_2  and  C_15
    2  A    between atoms: N_3  and  C_4
    3  A    between atoms: C_4  and  C_5
    4  A    between atoms: C_19  and  S_20
    5  A    between atoms: S_20  and  N_23
                            x       y       z     vdW  Elec       q    Type
                         _______ _______ _______ _____ _____    ______ ____

>  <TORSDO>
F 5

$$$$
=
 OpenBabel07192307433D

 51 54  0  0  1  0  0  0  0  0999 V2000
    0.9410    8.8160   20.2590 C   0  0  0  0  0  0  0  0  0  0  0  0
    1.0100    9.8140   19.2770 C   0  0  0  0  0  0  0  0  0  0  0  0
    1.7870    9.6290   18.1290 C   0  0  0  0  0  0  0  0  0  0  0  0
    2.4890    8.4390   17.9480 C   0  0  0  0  0  0  0  0  0  0  0  0
    2.3940    7.4340   18.9160 C   0  0  0  0  0  0  0  0  0  0  0  0
    1.6290    7.6130   20.0730 C   0  0  0  0  0  0  0  0  0  0  0  0
    0.4630   10.7470   19.4100 H   0  0  0  0  0  0  0  0  0  0  0  0
    1.8440   10.4160   17.3810 H   0  0  0  0  0  0  0  0  0  0  0  0
    3.0980    8.3020   17.0560 H   0  0  0  0  0  0  0  0  0  0  0  0
    1.5610    6.8060   20.7980 H   0  0  0  0  0  0  0  0  0  0  0  0
   -0.5340    8.1450   21.9660 O   0  0  0  0  0  0  0  0  0  0  0  0
    0.1000    9.0630   21.4610 C   0  0  0  0  0  0  0  0  0  0  0  0
    0.0750   10.3560   21.9390 N   0  0  0  0  0  0  0  0  0  0  0  0
    0.4320   11.1010   21.3540 H   0  0  0  0  0  0  0  0  0  0  0  0
   -0.8130   10.7490   23.0220 C   0  0  0  0  0  0  0  0  0  0  0  0
   -1.4300    9.8750   23.2600 H   0  0  0  0  0  0  0  0  0  0  0  0
   -0.2010   10.9390   23.9110 H   0  0  0  0  0  0  0  0  0  0  0  0
   -1.6900   11.9840   22.7340 C   0  0  1  0  0  0  0  0  0  0  0  0
   -0.9730   13.3150   22.9520 C   0  0  0  0  0  0  0  0  0  0  0  0
    0.1470   13.4610   22.0720 O   0  0  0  0  0  0  0  0  0  0  0  0
   -0.2090   13.1670   20.7810 C   0  0  0  0  0  0  0  0  0  0  0  0
    0.6400   13.6260   19.7760 C   0  0  0  0  0  0  0  0  0  0  0  0
    0.3320   13.3720   18.4380 C   0  0  0  0  0  0  0  0  0  0  0  0
   -0.8200   12.6570   18.1090 C   0  0  0  0  0  0  0  0  0  0  0  0
   -1.6620   12.1850   19.1180 C   0  0  0  0  0  0  0  0  0  0  0  0
   -1.3500   12.4290   20.4540 C   0  0  0  0  0  0  0  0  0  0  0  0
   -2.2040   11.9030   21.3890 O   0  0  0  0  0  0  0  0  0  0  0  0
   -2.5660   11.9640   23.3920 H   0  0  0  0  0  0  0  0  0  0  0  0
   -1.6550   14.1570   22.7790 H   0  0  0  0  0  0  0  0  0  0  0  0
   -0.6050   13.4020   23.9790 H   0  0  0  0  0  0  0  0  0  0  0  0
    1.5330   14.1870   20.0330 H   0  0  0  0  0  0  0  0  0  0  0  0
    0.9900   13.7350   17.6520 H   0  0  0  0  0  0  0  0  0  0  0  0
   -1.0620   12.4630   17.0670 H   0  0  0  0  0  0  0  0  0  0  0  0
   -2.5540   11.6200   18.8630 H   0  0  0  0  0  0  0  0  0  0  0  0
    3.2700    5.9060   18.7040 S   0  0  0  0  0  0  0  0  0  0  0  0
    4.3320    5.8900   19.6870 O   0  0  0  0  0  0  0  0  0  0  0  0
    3.5460    5.7160   17.2970 O   0  0  0  0  0  0  0  0  0  0  0  0
    2.1050    4.7450   19.1620 N   0  0  0  0  0  0  0  0  0  0  0  0
    1.6220    3.8510   18.0550 C   0  0  0  0  0  0  0  0  0  0  0  0
    0.9820    2.5840   18.6310 C   0  0  0  0  0  0  0  0  0  0  0  0
    1.9060    1.7790   19.3750 O   0  0  0  0  0  0  0  0  0  0  0  0
    2.9380    2.5450   20.0150 C   0  0  0  0  0  0  0  0  0  0  0  0
    2.4890    3.9610   20.3870 C   0  0  0  0  0  0  0  0  0  0  0  0
    0.8780    4.3940   17.4640 H   0  0  0  0  0  0  0  0  0  0  0  0
    2.4580    3.5670   17.4070 H   0  0  0  0  0  0  0  0  0  0  0  0
    0.1450    2.8370   19.2930 H   0  0  0  0  0  0  0  0  0  0  0  0
    0.5830    1.9630   17.8240 H   0  0  0  0  0  0  0  0  0  0  0  0
    3.2390    1.9970   20.9130 H   0  0  0  0  0  0  0  0  0  0  0  0
    3.8020    2.5740   19.3420 H   0  0  0  0  0  0  0  0  0  0  0  0
    3.2770    4.4640   20.9540 H   0  0  0  0  0  0  0  0  0  0  0  0
    1.6040    3.9230   21.0330 H   0  0  0  0  0  0  0  0  0  0  0  0
  1 12  1  0  0  0  0
  2  7  1  0  0  0  0
  2  1  2  0  0  0  0
  3  2  1  0  0  0  0
  4  3  2  0  0  0  0
  4  5  1  0  0  0  0
  5  6  2  0  0  0  0
  6  1  1  0  0  0  0
  6 10  1  0  0  0  0
  8  3  1  0  0  0  0
  9  4  1  0  0  0  0
 12 13  1  0  0  0  0
 12 11  2  0  0  0  0
 13 15  1  0  0  0  0
 14 13  1  0  0  0  0
 15 16  1  0  0  0  0
 15 17  1  0  0  0  0
 18 19  1  0  0  0  0
 18 15  1  0  0  0  0
 18 28  1  1  0  0  0
 19 30  1  0  0  0  0
 20 19  1  0  0  0  0
 21 20  1  0  0  0  0
 22 31  1  0  0  0  0
 22 21  2  0  0  0  0
 23 22  1  0  0  0  0
 24 23  2  0  0  0  0
 24 25  1  0  0  0  0
 25 26  2  0  0  0  0
 26 21  1  0  0  0  0
 26 27  1  0  0  0  0
 27 18  1  0  0  0  0
 29 19  1  0  0  0  0
 32 23  1  0  0  0  0
 33 24  1  0  0  0  0
 34 25  1  0  0  0  0
 35  5  1  0  0  0  0
 35 38  1  0  0  0  0
 35 36  2  0  0  0  0
 37 35  2  0  0  0  0
 38 43  1  0  0  0  0
 39 40  1  0  0  0  0
 39 38  1  0  0  0  0
 40 46  1  0  0  0  0
 40 41  1  0  0  0  0
 41 42  1  0  0  0  0
 42 43  1  0  0  0  0
 42 48  1  0  0  0  0
 43 50  1  0  0  0  0
 43 51  1  0  0  0  0
 44 39  1  0  0  0  0
 45 39  1  0  0  0  0
 47 40  1  0  0  0  0
 49 42  1  0  0  0  0
M  END
>  <MODEL>
15

>  <REMARK>
 VINA RESULT:    -8.241      2.787      8.553
 INTER + INTRA:         -10.730
 INTER:                  -9.938
 INTRA:                  -0.792
 UNBOUND:                -0.080
  Name = 
  5 active torsions:
  status: ('A' for Active; 'I' for Inactive)
    1  A    between atoms: C_2  and  C_15
    2  A    between atoms: N_3  and  C_4
    3  A    between atoms: C_4  and  C_5
    4  A    between atoms: C_19  and  S_20
    5  A    between atoms: S_20  and  N_23
                            x       y       z     vdW  Elec       q    Type
                         _______ _______ _______ _____ _____    ______ ____

>  <TORSDO>
F 5

$$$$
=
 OpenBabel07192307433D

 51 54  0  0  1  0  0  0  0  0999 V2000
    0.7530    9.3800   20.6440 C   0  0  0  0  0  0  0  0  0  0  0  0
    0.8430    8.9400   21.9720 C   0  0  0  0  0  0  0  0  0  0  0  0
    0.1240    9.5820   22.9840 C   0  0  0  0  0  0  0  0  0  0  0  0
   -0.7020   10.6600   22.6750 C   0  0  0  0  0  0  0  0  0  0  0  0
   -0.8120   11.0790   21.3450 C   0  0  0  0  0  0  0  0  0  0  0  0
   -0.0880   10.4510   20.3250 C   0  0  0  0  0  0  0  0  0  0  0  0
    1.4860    8.0960   22.2230 H   0  0  0  0  0  0  0  0  0  0  0  0
    0.2120    9.2400   24.0130 H   0  0  0  0  0  0  0  0  0  0  0  0
   -1.2550   11.1620   23.4670 H   0  0  0  0  0  0  0  0  0  0  0  0
   -0.2090   10.7880   19.2990 H   0  0  0  0  0  0  0  0  0  0  0  0
    1.6480    9.1360   18.4810 O   0  0  0  0  0  0  0  0  0  0  0  0
    1.5400    8.6620   19.6060 C   0  0  0  0  0  0  0  0  0  0  0  0
    2.1040    7.4610   19.9810 N   0  0  0  0  0  0  0  0  0  0  0  0
    1.7940    7.0230   20.8390 H   0  0  0  0  0  0  0  0  0  0  0  0
    2.7790    6.6050   19.0190 C   0  0  0  0  0  0  0  0  0  0  0  0
    2.0910    6.4690   18.1770 H   0  0  0  0  0  0  0  0  0  0  0  0
    3.6410    7.1540   18.6210 H   0  0  0  0  0  0  0  0  0  0  0  0
    3.2530    5.2460   19.5720 C   0  0  1  0  0  0  0  0  0  0  0  0
    2.8630    4.0550   18.7000 C   0  0  0  0  0  0  0  0  0  0  0  0
    3.4560    4.1350   17.3990 O   0  0  0  0  0  0  0  0  0  0  0  0
    4.7970    4.4050   17.4940 C   0  0  0  0  0  0  0  0  0  0  0  0
    5.5730    4.1360   16.3680 C   0  0  0  0  0  0  0  0  0  0  0  0
    6.9470    4.3770   16.3990 C   0  0  0  0  0  0  0  0  0  0  0  0
    7.5420    4.8910   17.5520 C   0  0  0  0  0  0  0  0  0  0  0  0
    6.7610    5.1740   18.6740 C   0  0  0  0  0  0  0  0  0  0  0  0
    5.3870    4.9440   18.6410 C   0  0  0  0  0  0  0  0  0  0  0  0
    4.6820    5.2810   19.7670 O   0  0  0  0  0  0  0  0  0  0  0  0
    2.8180    5.0910   20.5650 H   0  0  0  0  0  0  0  0  0  0  0  0
    3.1830    3.1120   19.1630 H   0  0  0  0  0  0  0  0  0  0  0  0
    1.7780    3.9990   18.5690 H   0  0  0  0  0  0  0  0  0  0  0  0
    5.1100    3.7310   15.4730 H   0  0  0  0  0  0  0  0  0  0  0  0
    7.5550    4.1610   15.5240 H   0  0  0  0  0  0  0  0  0  0  0  0
    8.6130    5.0740   17.5770 H   0  0  0  0  0  0  0  0  0  0  0  0
    7.2210    5.5830   19.5690 H   0  0  0  0  0  0  0  0  0  0  0  0
   -1.8650   12.4430   20.9220 S   0  0  0  0  0  0  0  0  0  0  0  0
   -2.6700   12.7310   22.0890 O   0  0  0  0  0  0  0  0  0  0  0  0
   -2.4730   12.1820   19.6350 O   0  0  0  0  0  0  0  0  0  0  0  0
   -0.7520   13.7200   20.7160 N   0  0  0  0  0  0  0  0  0  0  0  0
    0.5090   13.6080   21.5250 C   0  0  0  0  0  0  0  0  0  0  0  0
    1.6070   14.4970   20.9330 C   0  0  0  0  0  0  0  0  0  0  0  0
    1.9870   14.1090   19.6070 O   0  0  0  0  0  0  0  0  0  0  0  0
    0.9130   13.5170   18.8590 C   0  0  0  0  0  0  0  0  0  0  0  0
   -0.4650   14.0400   19.2750 C   0  0  0  0  0  0  0  0  0  0  0  0
    0.3000   13.9280   22.5510 H   0  0  0  0  0  0  0  0  0  0  0  0
    0.8590   12.5700   21.5380 H   0  0  0  0  0  0  0  0  0  0  0  0
    1.2820   15.5440   20.8980 H   0  0  0  0  0  0  0  0  0  0  0  0
    2.5050   14.4540   21.5560 H   0  0  0  0  0  0  0  0  0  0  0  0
    1.0950   13.7330   17.8020 H   0  0  0  0  0  0  0  0  0  0  0  0
    0.9720   12.4300   18.9880 H   0  0  0  0  0  0  0  0  0  0  0  0
   -1.2330   13.6300   18.6130 H   0  0  0  0  0  0  0  0  0  0  0  0
   -0.5040   15.1310   19.1750 H   0  0  0  0  0  0  0  0  0  0  0  0
  1  2  1  0  0  0  0
  2  7  1  0  0  0  0
  2  3  2  0  0  0  0
  3  8  1  0  0  0  0
  4  3  1  0  0  0  0
  4  9  1  0  0  0  0
  5  4  2  0  0  0  0
  6  1  2  0  0  0  0
  6  5  1  0  0  0  0
 10  6  1  0  0  0  0
 11 12  2  0  0  0  0
 12 13  1  0  0  0  0
 12  1  1  0  0  0  0
 13 14  1  0  0  0  0
 15 18  1  0  0  0  0
 15 13  1  0  0  0  0
 16 15  1  0  0  0  0
 17 15  1  0  0  0  0
 18 27  1  0  0  0  0
 18 28  1  1  0  0  0
 19 29  1  0  0  0  0
 19 18  1  0  0  0  0
 20 21  1  0  0  0  0
 20 19  1  0  0  0  0
 21 26  1  0  0  0  0
 22 23  1  0  0  0  0
 22 21  2  0  0  0  0
 23 24  2  0  0  0  0
 24 33  1  0  0  0  0
 24 25  1  0  0  0  0
 25 34  1  0  0  0  0
 26 25  2  0  0  0  0
 26 27  1  0  0  0  0
 30 19  1  0  0  0  0
 31 22  1  0  0  0  0
 32 23  1  0  0  0  0
 35  5  1  0  0  0  0
 35 36  2  0  0  0  0
 37 35  2  0  0  0  0
 38 35  1  0  0  0  0
 38 39  1  0  0  0  0
 39 45  1  0  0  0  0
 39 44  1  0  0  0  0
 40 39  1  0  0  0  0
 40 47  1  0  0  0  0
 41 40  1  0  0  0  0
 42 49  1  0  0  0  0
 42 43  1  0  0  0  0
 42 41  1  0  0  0  0
 43 38  1  0  0  0  0
 46 40  1  0  0  0  0
 48 42  1  0  0  0  0
 50 43  1  0  0  0  0
 51 43  1  0  0  0  0
M  END
>  <MODEL>
16

>  <REMARK>
 VINA RESULT:    -8.174      2.604      4.142
 INTER + INTRA:         -10.644
 INTER:                 -10.201
 INTRA:                  -0.443
 UNBOUND:                -0.080
  Name = 
  5 active torsions:
  status: ('A' for Active; 'I' for Inactive)
    1  A    between atoms: C_2  and  C_15
    2  A    between atoms: N_3  and  C_4
    3  A    between atoms: C_4  and  C_5
    4  A    between atoms: C_19  and  S_20
    5  A    between atoms: S_20  and  N_23
                            x       y       z     vdW  Elec       q    Type
                         _______ _______ _______ _____ _____    ______ ____

>  <TORSDO>
F 5

$$$$
=
 OpenBabel07192307433D

 51 54  0  0  1  0  0  0  0  0999 V2000
    2.7210    5.4670   18.8130 C   0  0  0  0  0  0  0  0  0  0  0  0
    2.4210    4.1010   18.9070 C   0  0  0  0  0  0  0  0  0  0  0  0
    3.0010    3.1830   18.0260 C   0  0  0  0  0  0  0  0  0  0  0  0
    3.8960    3.6230   17.0530 C   0  0  0  0  0  0  0  0  0  0  0  0
    4.2160    4.9820   16.9800 C   0  0  0  0  0  0  0  0  0  0  0  0
    3.6330    5.9110   17.8490 C   0  0  0  0  0  0  0  0  0  0  0  0
    1.7230    3.7480   19.6650 H   0  0  0  0  0  0  0  0  0  0  0  0
    2.7500    2.1280   18.0990 H   0  0  0  0  0  0  0  0  0  0  0  0
    4.3400    2.9060   16.3640 H   0  0  0  0  0  0  0  0  0  0  0  0
    3.9160    6.9580   17.7800 H   0  0  0  0  0  0  0  0  0  0  0  0
    1.6200    5.9780   20.8290 O   0  0  0  0  0  0  0  0  0  0  0  0
    2.0770    6.4010   19.7740 C   0  0  0  0  0  0  0  0  0  0  0  0
    2.0180    7.7270   19.3990 N   0  0  0  0  0  0  0  0  0  0  0  0
    2.2050    7.9710   18.4350 H   0  0  0  0  0  0  0  0  0  0  0  0
    1.2940    8.7090   20.1910 C   0  0  0  0  0  0  0  0  0  0  0  0
    0.2520    8.3740   20.2370 H   0  0  0  0  0  0  0  0  0  0  0  0
    1.6740    8.6630   21.2180 H   0  0  0  0  0  0  0  0  0  0  0  0
    1.3880   10.1600   19.6780 C   0  0  1  0  0  0  0  0  0  0  0  0
    1.6350   10.2690   18.1750 C   0  0  0  0  0  0  0  0  0  0  0  0
    0.5620    9.6950   17.4210 O   0  0  0  0  0  0  0  0  0  0  0  0
   -0.6480   10.1540   17.8730 C   0  0  0  0  0  0  0  0  0  0  0  0
   -1.7380    9.9990   17.0180 C   0  0  0  0  0  0  0  0  0  0  0  0
   -2.9980   10.4550   17.4090 C   0  0  0  0  0  0  0  0  0  0  0  0
   -3.1670   11.0590   18.6560 C   0  0  0  0  0  0  0  0  0  0  0  0
   -2.0770   11.1990   19.5180 C   0  0  0  0  0  0  0  0  0  0  0  0
   -0.8210   10.7360   19.1320 C   0  0  0  0  0  0  0  0  0  0  0  0
    0.1910   10.8760   20.0450 O   0  0  0  0  0  0  0  0  0  0  0  0
    2.2120   10.6690   20.1900 H   0  0  0  0  0  0  0  0  0  0  0  0
    1.7400   11.3200   17.8730 H   0  0  0  0  0  0  0  0  0  0  0  0
    2.5570    9.7560   17.8880 H   0  0  0  0  0  0  0  0  0  0  0  0
   -1.6040    9.5350   16.0450 H   0  0  0  0  0  0  0  0  0  0  0  0
   -3.8470   10.3410   16.7410 H   0  0  0  0  0  0  0  0  0  0  0  0
   -4.1470   11.4170   18.9600 H   0  0  0  0  0  0  0  0  0  0  0  0
   -2.2100   11.6600   20.4930 H   0  0  0  0  0  0  0  0  0  0  0  0
    5.3600    5.5670   15.7570 S   0  0  0  0  0  0  0  0  0  0  0  0
    4.9180    6.8880   15.3640 O   0  0  0  0  0  0  0  0  0  0  0  0
    5.5710    4.5230   14.7780 O   0  0  0  0  0  0  0  0  0  0  0  0
    6.8040    5.7340   16.6510 N   0  0  0  0  0  0  0  0  0  0  0  0
    6.9390    7.0190   17.4170 C   0  0  0  0  0  0  0  0  0  0  0  0
    7.9870    6.8760   18.5260 C   0  0  0  0  0  0  0  0  0  0  0  0
    7.6280    5.8980   19.5110 O   0  0  0  0  0  0  0  0  0  0  0  0
    6.8350    4.8240   18.9820 C   0  0  0  0  0  0  0  0  0  0  0  0
    7.1230    4.5380   17.5050 C   0  0  0  0  0  0  0  0  0  0  0  0
    7.2500    7.8100   16.7270 H   0  0  0  0  0  0  0  0  0  0  0  0
    5.9780    7.2940   17.8660 H   0  0  0  0  0  0  0  0  0  0  0  0
    8.9590    6.5920   18.1070 H   0  0  0  0  0  0  0  0  0  0  0  0
    8.1200    7.8290   19.0450 H   0  0  0  0  0  0  0  0  0  0  0  0
    7.0460    3.9370   19.5860 H   0  0  0  0  0  0  0  0  0  0  0  0
    5.7800    5.0800   19.1300 H   0  0  0  0  0  0  0  0  0  0  0  0
    6.5660    3.6550   17.1820 H   0  0  0  0  0  0  0  0  0  0  0  0
    8.1880    4.3160   17.3610 H   0  0  0  0  0  0  0  0  0  0  0  0
  1  2  1  0  0  0  0
  1 12  1  0  0  0  0
  2  7  1  0  0  0  0
  3  8  1  0  0  0  0
  3  2  2  0  0  0  0
  4  3  1  0  0  0  0
  5  4  2  0  0  0  0
  5  6  1  0  0  0  0
  6  1  2  0  0  0  0
  9  4  1  0  0  0  0
 10  6  1  0  0  0  0
 12 11  2  0  0  0  0
 13 12  1  0  0  0  0
 13 15  1  0  0  0  0
 14 13  1  0  0  0  0
 15 16  1  0  0  0  0
 15 17  1  0  0  0  0
 18 27  1  0  0  0  0
 18 28  1  1  0  0  0
 18 15  1  0  0  0  0
 19 18  1  0  0  0  0
 20 21  1  0  0  0  0
 20 19  1  0  0  0  0
 21 26  1  0  0  0  0
 22 23  1  0  0  0  0
 22 21  2  0  0  0  0
 23 24  2  0  0  0  0
 24 33  1  0  0  0  0
 24 25  1  0  0  0  0
 25 34  1  0  0  0  0
 26 25  2  0  0  0  0
 26 27  1  0  0  0  0
 29 19  1  0  0  0  0
 30 19  1  0  0  0  0
 31 22  1  0  0  0  0
 32 23  1  0  0  0  0
 35 38  1  0  0  0  0
 35  5  1  0  0  0  0
 36 35  2  0  0  0  0
 37 35  2  0  0  0  0
 38 39  1  0  0  0  0
 38 43  1  0  0  0  0
 39 45  1  0  0  0  0
 39 40  1  0  0  0  0
 40 47  1  0  0  0  0
 40 41  1  0  0  0  0
 42 49  1  0  0  0  0
 42 41  1  0  0  0  0
 42 48  1  0  0  0  0
 43 42  1  0  0  0  0
 44 39  1  0  0  0  0
 46 40  1  0  0  0  0
 50 43  1  0  0  0  0
 51 43  1  0  0  0  0
M  END
>  <MODEL>
17

>  <REMARK>
 VINA RESULT:    -8.155      2.954      8.584
 INTER + INTRA:         -10.619
 INTER:                  -9.900
 INTRA:                  -0.719
 UNBOUND:                -0.080
  Name = 
  5 active torsions:
  status: ('A' for Active; 'I' for Inactive)
    1  A    between atoms: C_2  and  C_15
    2  A    between atoms: N_3  and  C_4
    3  A    between atoms: C_4  and  C_5
    4  A    between atoms: C_19  and  S_20
    5  A    between atoms: S_20  and  N_23
                            x       y       z     vdW  Elec       q    Type
                         _______ _______ _______ _____ _____    ______ ____

>  <TORSDO>
F 5

$$$$
=
 OpenBabel07192307433D

 51 54  0  0  1  0  0  0  0  0999 V2000
    0.7830    9.4900   20.7120 C   0  0  0  0  0  0  0  0  0  0  0  0
    0.1820    8.7640   21.7490 C   0  0  0  0  0  0  0  0  0  0  0  0
   -0.5530    9.4190   22.7420 C   0  0  0  0  0  0  0  0  0  0  0  0
   -0.7050   10.8030   22.6960 C   0  0  0  0  0  0  0  0  0  0  0  0
   -0.1280   11.5210   21.6430 C   0  0  0  0  0  0  0  0  0  0  0  0
    0.6190   10.8770   20.6510 C   0  0  0  0  0  0  0  0  0  0  0  0
    0.2940    7.6810   21.7920 H   0  0  0  0  0  0  0  0  0  0  0  0
   -1.0040    8.8470   23.5490 H   0  0  0  0  0  0  0  0  0  0  0  0
   -1.2730   11.3100   23.4750 H   0  0  0  0  0  0  0  0  0  0  0  0
    1.0390   11.4610   19.8360 H   0  0  0  0  0  0  0  0  0  0  0  0
    1.7000    9.2170   18.5610 O   0  0  0  0  0  0  0  0  0  0  0  0
    1.5550    8.7440   19.6810 C   0  0  0  0  0  0  0  0  0  0  0  0
    2.0640    7.5200   20.0600 N   0  0  0  0  0  0  0  0  0  0  0  0
    1.7230    7.0910   20.9110 H   0  0  0  0  0  0  0  0  0  0  0  0
    2.7180    6.6400   19.1040 C   0  0  0  0  0  0  0  0  0  0  0  0
    1.9880    6.4310   18.3140 H   0  0  0  0  0  0  0  0  0  0  0  0
    3.5300    7.2010   18.6270 H   0  0  0  0  0  0  0  0  0  0  0  0
    3.2820    5.3340   19.6970 C   0  0  1  0  0  0  0  0  0  0  0  0
    2.7710    4.0710   19.0060 C   0  0  0  0  0  0  0  0  0  0  0  0
    3.1550    4.0300   17.6280 O   0  0  0  0  0  0  0  0  0  0  0  0
    4.4920    4.2990   17.4890 C   0  0  0  0  0  0  0  0  0  0  0  0
    5.0870    3.9250   16.2860 C   0  0  0  0  0  0  0  0  0  0  0  0
    6.4480    4.1580   16.0820 C   0  0  0  0  0  0  0  0  0  0  0  0
    7.2100    4.7700   17.0790 C   0  0  0  0  0  0  0  0  0  0  0  0
    6.6090    5.1590   18.2780 C   0  0  0  0  0  0  0  0  0  0  0  0
    5.2480    4.9350   18.4780 C   0  0  0  0  0  0  0  0  0  0  0  0
    4.7230    5.3760   19.6650 O   0  0  0  0  0  0  0  0  0  0  0  0
    3.0070    5.2710   20.7550 H   0  0  0  0  0  0  0  0  0  0  0  0
    3.1660    3.1710   19.4970 H   0  0  0  0  0  0  0  0  0  0  0  0
    1.6790    4.0100   19.0510 H   0  0  0  0  0  0  0  0  0  0  0  0
    4.4940    3.4430   15.5140 H   0  0  0  0  0  0  0  0  0  0  0  0
    6.9150    3.8610   15.1460 H   0  0  0  0  0  0  0  0  0  0  0  0
    8.2700    4.9490   16.9210 H   0  0  0  0  0  0  0  0  0  0  0  0
    7.1990    5.6440   19.0500 H   0  0  0  0  0  0  0  0  0  0  0  0
   -0.3150   13.2830   21.5560 S   0  0  0  0  0  0  0  0  0  0  0  0
    0.7490   13.7780   20.7090 O   0  0  0  0  0  0  0  0  0  0  0  0
   -0.5120   13.7990   22.8930 O   0  0  0  0  0  0  0  0  0  0  0  0
   -1.7890   13.4580   20.7140 N   0  0  0  0  0  0  0  0  0  0  0  0
   -2.2180   12.2600   19.9160 C   0  0  0  0  0  0  0  0  0  0  0  0
   -3.7180   12.3280   19.6100 C   0  0  0  0  0  0  0  0  0  0  0  0
   -4.5310   12.2930   20.7890 O   0  0  0  0  0  0  0  0  0  0  0  0
   -3.8960   12.8820   21.9350 C   0  0  0  0  0  0  0  0  0  0  0  0
   -2.9070   13.9920   21.5660 C   0  0  0  0  0  0  0  0  0  0  0  0
   -1.6580   12.2440   18.9750 H   0  0  0  0  0  0  0  0  0  0  0  0
   -2.0080   11.3410   20.4730 H   0  0  0  0  0  0  0  0  0  0  0  0
   -3.9600   13.2440   19.0590 H   0  0  0  0  0  0  0  0  0  0  0  0
   -4.0130   11.4820   18.9830 H   0  0  0  0  0  0  0  0  0  0  0  0
   -4.6870   13.2800   22.5760 H   0  0  0  0  0  0  0  0  0  0  0  0
   -3.3930   12.0820   22.4900 H   0  0  0  0  0  0  0  0  0  0  0  0
   -2.5270   14.4680   22.4740 H   0  0  0  0  0  0  0  0  0  0  0  0
   -3.4110   14.7720   20.9820 H   0  0  0  0  0  0  0  0  0  0  0  0
  1  2  1  0  0  0  0
  2  7  1  0  0  0  0
  2  3  2  0  0  0  0
  3  8  1  0  0  0  0
  4  3  1  0  0  0  0
  4  9  1  0  0  0  0
  5  4  2  0  0  0  0
  6  1  2  0  0  0  0
  6  5  1  0  0  0  0
 10  6  1  0  0  0  0
 11 12  2  0  0  0  0
 12 13  1  0  0  0  0
 12  1  1  0  0  0  0
 13 14  1  0  0  0  0
 15 18  1  0  0  0  0
 15 13  1  0  0  0  0
 16 15  1  0  0  0  0
 17 15  1  0  0  0  0
 18 28  1  1  0  0  0
 19 30  1  0  0  0  0
 19 29  1  0  0  0  0
 19 18  1  0  0  0  0
 20 19  1  0  0  0  0
 21 20  1  0  0  0  0
 21 26  1  0  0  0  0
 22 21  2  0  0  0  0
 23 22  1  0  0  0  0
 23 24  2  0  0  0  0
 24 25  1  0  0  0  0
 25 26  2  0  0  0  0
 25 34  1  0  0  0  0
 26 27  1  0  0  0  0
 27 18  1  0  0  0  0
 31 22  1  0  0  0  0
 32 23  1  0  0  0  0
 33 24  1  0  0  0  0
 35  5  1  0  0  0  0
 35 37  2  0  0  0  0
 36 35  2  0  0  0  0
 38 35  1  0  0  0  0
 38 43  1  0  0  0  0
 39 45  1  0  0  0  0
 39 38  1  0  0  0  0
 40 39  1  0  0  0  0
 40 41  1  0  0  0  0
 41 42  1  0  0  0  0
 42 49  1  0  0  0  0
 42 48  1  0  0  0  0
 43 42  1  0  0  0  0
 43 50  1  0  0  0  0
 44 39  1  0  0  0  0
 46 40  1  0  0  0  0
 47 40  1  0  0  0  0
 51 43  1  0  0  0  0
M  END
>  <MODEL>
18

>  <REMARK>
 VINA RESULT:    -8.134      2.340      3.718
 INTER + INTRA:         -10.592
 INTER:                 -10.215
 INTRA:                  -0.377
 UNBOUND:                -0.080
  Name = 
  5 active torsions:
  status: ('A' for Active; 'I' for Inactive)
    1  A    between atoms: C_2  and  C_15
    2  A    between atoms: N_3  and  C_4
    3  A    between atoms: C_4  and  C_5
    4  A    between atoms: C_19  and  S_20
    5  A    between atoms: S_20  and  N_23
                            x       y       z     vdW  Elec       q    Type
                         _______ _______ _______ _____ _____    ______ ____

>  <TORSDO>
F 5

$$$$
=
 OpenBabel07192307433D

 51 54  0  0  1  0  0  0  0  0999 V2000
    1.3760    8.7810   20.3230 C   0  0  0  0  0  0  0  0  0  0  0  0
    1.2050    9.5710   19.1780 C   0  0  0  0  0  0  0  0  0  0  0  0
    1.6550    9.1240   17.9320 C   0  0  0  0  0  0  0  0  0  0  0  0
    2.2670    7.8770   17.8190 C   0  0  0  0  0  0  0  0  0  0  0  0
    2.4100    7.0790   18.9580 C   0  0  0  0  0  0  0  0  0  0  0  0
    1.9740    7.5210   20.2120 C   0  0  0  0  0  0  0  0  0  0  0  0
    0.7270   10.5470   19.2570 H   0  0  0  0  0  0  0  0  0  0  0  0
    1.5290    9.7520   17.0530 H   0  0  0  0  0  0  0  0  0  0  0  0
    2.6220    7.5360   16.8480 H   0  0  0  0  0  0  0  0  0  0  0  0
    2.0820    6.8690   21.0750 H   0  0  0  0  0  0  0  0  0  0  0  0
    1.4100    8.9490   22.6700 O   0  0  0  0  0  0  0  0  0  0  0  0
    0.8800    9.3030   21.6240 C   0  0  0  0  0  0  0  0  0  0  0  0
   -0.1910   10.1700   21.5710 N   0  0  0  0  0  0  0  0  0  0  0  0
   -0.7190   10.2430   20.7100 H   0  0  0  0  0  0  0  0  0  0  0  0
   -0.8490   10.6390   22.7800 C   0  0  0  0  0  0  0  0  0  0  0  0
   -1.4310    9.7980   23.1720 H   0  0  0  0  0  0  0  0  0  0  0  0
   -0.0760   10.8480   23.5290 H   0  0  0  0  0  0  0  0  0  0  0  0
   -1.7340   11.8890   22.6010 C   0  0  1  0  0  0  0  0  0  0  0  0
   -1.0490   13.1940   23.0020 C   0  0  0  0  0  0  0  0  0  0  0  0
    0.1030   13.4550   22.1940 O   0  0  0  0  0  0  0  0  0  0  0  0
   -0.1940   13.3100   20.8630 C   0  0  0  0  0  0  0  0  0  0  0  0
    0.6870   13.8920   19.9550 C   0  0  0  0  0  0  0  0  0  0  0  0
    0.4390   13.7930   18.5850 C   0  0  0  0  0  0  0  0  0  0  0  0
   -0.6870   13.1070   18.1260 C   0  0  0  0  0  0  0  0  0  0  0  0
   -1.5610   12.5110   19.0370 C   0  0  0  0  0  0  0  0  0  0  0  0
   -1.3080   12.6010   20.4040 C   0  0  0  0  0  0  0  0  0  0  0  0
   -2.1910   11.9600   21.2340 O   0  0  0  0  0  0  0  0  0  0  0  0
   -2.6360   11.7820   23.2140 H   0  0  0  0  0  0  0  0  0  0  0  0
   -1.7380   14.0430   22.8990 H   0  0  0  0  0  0  0  0  0  0  0  0
   -0.7250   13.1650   24.0460 H   0  0  0  0  0  0  0  0  0  0  0  0
    1.5600   14.4310   20.3140 H   0  0  0  0  0  0  0  0  0  0  0  0
    1.1220   14.2530   17.8750 H   0  0  0  0  0  0  0  0  0  0  0  0
   -0.8820   13.0330   17.0600 H   0  0  0  0  0  0  0  0  0  0  0  0
   -2.4320   11.9680   18.6800 H   0  0  0  0  0  0  0  0  0  0  0  0
    3.1760    5.4840   18.8400 S   0  0  0  0  0  0  0  0  0  0  0  0
    2.4710    4.7530   17.8080 O   0  0  0  0  0  0  0  0  0  0  0  0
    3.3320    4.9400   20.1720 O   0  0  0  0  0  0  0  0  0  0  0  0
    4.7330    5.8620   18.2520 N   0  0  0  0  0  0  0  0  0  0  0  0
    5.8740    5.3420   19.0780 C   0  0  0  0  0  0  0  0  0  0  0  0
    7.1630    5.3070   18.2510 C   0  0  0  0  0  0  0  0  0  0  0  0
    7.0850    4.4150   17.1310 O   0  0  0  0  0  0  0  0  0  0  0  0
    5.7580    4.2910   16.5960 C   0  0  0  0  0  0  0  0  0  0  0  0
    4.9140    5.5530   16.7910 C   0  0  0  0  0  0  0  0  0  0  0  0
    6.0160    6.0030   19.9390 H   0  0  0  0  0  0  0  0  0  0  0  0
    5.6520    4.3310   19.4360 H   0  0  0  0  0  0  0  0  0  0  0  0
    7.4080    6.3060   17.8710 H   0  0  0  0  0  0  0  0  0  0  0  0
    8.0020    4.9790   18.8720 H   0  0  0  0  0  0  0  0  0  0  0  0
    5.8570    4.0650   15.5300 H   0  0  0  0  0  0  0  0  0  0  0  0
    5.2820    3.4270   17.0720 H   0  0  0  0  0  0  0  0  0  0  0  0
    3.9520    5.4390   16.2830 H   0  0  0  0  0  0  0  0  0  0  0  0
    5.4140    6.4190   16.3400 H   0  0  0  0  0  0  0  0  0  0  0  0
  1 12  1  0  0  0  0
  2  7  1  0  0  0  0
  2  1  2  0  0  0  0
  3  2  1  0  0  0  0
  4  3  2  0  0  0  0
  4  5  1  0  0  0  0
  5  6  2  0  0  0  0
  6  1  1  0  0  0  0
  6 10  1  0  0  0  0
  8  3  1  0  0  0  0
  9  4  1  0  0  0  0
 12 11  2  0  0  0  0
 13 12  1  0  0  0  0
 13 15  1  0  0  0  0
 14 13  1  0  0  0  0
 15 16  1  0  0  0  0
 15 17  1  0  0  0  0
 18 15  1  0  0  0  0
 18 19  1  0  0  0  0
 18 28  1  1  0  0  0
 19 30  1  0  0  0  0
 20 19  1  0  0  0  0
 21 20  1  0  0  0  0
 22 31  1  0  0  0  0
 22 21  2  0  0  0  0
 23 22  1  0  0  0  0
 24 23  2  0  0  0  0
 24 25  1  0  0  0  0
 25 26  2  0  0  0  0
 26 21  1  0  0  0  0
 26 27  1  0  0  0  0
 27 18  1  0  0  0  0
 29 19  1  0  0  0  0
 32 23  1  0  0  0  0
 33 24  1  0  0  0  0
 34 25  1  0  0  0  0
 35  5  1  0  0  0  0
 35 37  2  0  0  0  0
 36 35  2  0  0  0  0
 38 35  1  0  0  0  0
 38 39  1  0  0  0  0
 39 45  1  0  0  0  0
 39 44  1  0  0  0  0
 40 47  1  0  0  0  0
 40 39  1  0  0  0  0
 41 40  1  0  0  0  0
 42 43  1  0  0  0  0
 42 49  1  0  0  0  0
 42 41  1  0  0  0  0
 43 38  1  0  0  0  0
 46 40  1  0  0  0  0
 48 42  1  0  0  0  0
 50 43  1  0  0  0  0
 51 43  1  0  0  0  0
M  END
>  <MODEL>
19

>  <REMARK>
 VINA RESULT:    -8.097      3.244      8.942
 INTER + INTRA:         -10.545
 INTER:                 -10.039
 INTRA:                  -0.506
 UNBOUND:                -0.080
  Name = 
  5 active torsions:
  status: ('A' for Active; 'I' for Inactive)
    1  A    between atoms: C_2  and  C_15
    2  A    between atoms: N_3  and  C_4
    3  A    between atoms: C_4  and  C_5
    4  A    between atoms: C_19  and  S_20
    5  A    between atoms: S_20  and  N_23
                            x       y       z     vdW  Elec       q    Type
                         _______ _______ _______ _____ _____    ______ ____

>  <TORSDO>
F 5

$$$$
=
 OpenBabel07192307433D

 51 54  0  0  1  0  0  0  0  0999 V2000
    1.9940    7.4480   19.1590 C   0  0  0  0  0  0  0  0  0  0  0  0
    1.5100    7.1970   20.4500 C   0  0  0  0  0  0  0  0  0  0  0  0
    1.7200    5.9570   21.0600 C   0  0  0  0  0  0  0  0  0  0  0  0
    2.4290    4.9620   20.3890 C   0  0  0  0  0  0  0  0  0  0  0  0
    2.9360    5.2260   19.1130 C   0  0  0  0  0  0  0  0  0  0  0  0
    2.7210    6.4590   18.4880 C   0  0  0  0  0  0  0  0  0  0  0  0
    0.9550    7.9690   20.9830 H   0  0  0  0  0  0  0  0  0  0  0  0
    1.3280    5.7690   22.0570 H   0  0  0  0  0  0  0  0  0  0  0  0
    2.5850    3.9960   20.8650 H   0  0  0  0  0  0  0  0  0  0  0  0
    3.1430    6.6400   17.5030 H   0  0  0  0  0  0  0  0  0  0  0  0
    2.3240    9.1140   17.5300 O   0  0  0  0  0  0  0  0  0  0  0  0
    1.7420    8.7840   18.5560 C   0  0  0  0  0  0  0  0  0  0  0  0
    0.8500    9.6010   19.2190 N   0  0  0  0  0  0  0  0  0  0  0  0
    0.5820    9.3640   20.1660 H   0  0  0  0  0  0  0  0  0  0  0  0
    0.6260   10.9760   18.8030 C   0  0  0  0  0  0  0  0  0  0  0  0
    1.1110   11.0960   17.8280 H   0  0  0  0  0  0  0  0  0  0  0  0
   -0.4480   11.1070   18.6280 H   0  0  0  0  0  0  0  0  0  0  0  0
    1.1120   12.0480   19.7990 C   0  0  1  0  0  0  0  0  0  0  0  0
    0.5710   13.4470   19.5140 C   0  0  0  0  0  0  0  0  0  0  0  0
   -0.8560   13.4910   19.6130 O   0  0  0  0  0  0  0  0  0  0  0  0
   -1.2800   12.9020   20.7770 C   0  0  0  0  0  0  0  0  0  0  0  0
   -2.5740   13.2020   21.1980 C   0  0  0  0  0  0  0  0  0  0  0  0
   -3.0660   12.6450   22.3800 C   0  0  0  0  0  0  0  0  0  0  0  0
   -2.2650   11.7870   23.1350 C   0  0  0  0  0  0  0  0  0  0  0  0
   -0.9740   11.4760   22.7030 C   0  0  0  0  0  0  0  0  0  0  0  0
   -0.4860   12.0230   21.5180 C   0  0  0  0  0  0  0  0  0  0  0  0
    0.7760   11.6420   21.1420 O   0  0  0  0  0  0  0  0  0  0  0  0
    2.2060   12.0990   19.7670 H   0  0  0  0  0  0  0  0  0  0  0  0
    0.9850   14.1770   20.2230 H   0  0  0  0  0  0  0  0  0  0  0  0
    0.8460   13.7800   18.5090 H   0  0  0  0  0  0  0  0  0  0  0  0
   -3.1940   13.8750   20.6120 H   0  0  0  0  0  0  0  0  0  0  0  0
   -4.0730   12.8830   22.7130 H   0  0  0  0  0  0  0  0  0  0  0  0
   -2.6470   11.3570   24.0570 H   0  0  0  0  0  0  0  0  0  0  0  0
   -0.3540   10.8000   23.2850 H   0  0  0  0  0  0  0  0  0  0  0  0
    3.8500    3.9810   18.2400 S   0  0  0  0  0  0  0  0  0  0  0  0
    2.9110    3.2950   17.3790 O   0  0  0  0  0  0  0  0  0  0  0  0
    4.6710    3.2550   19.1860 O   0  0  0  0  0  0  0  0  0  0  0  0
    4.8930    4.9070   17.2580 N   0  0  0  0  0  0  0  0  0  0  0  0
    6.2960    5.0560   17.7740 C   0  0  0  0  0  0  0  0  0  0  0  0
    7.2440    5.4640   16.6410 C   0  0  0  0  0  0  0  0  0  0  0  0
    7.3370    4.4770   15.6060 O   0  0  0  0  0  0  0  0  0  0  0  0
    6.1310    3.7160   15.4380 C   0  0  0  0  0  0  0  0  0  0  0  0
    4.8700    4.5020   15.8090 C   0  0  0  0  0  0  0  0  0  0  0  0
    6.3070    5.8290   18.5480 H   0  0  0  0  0  0  0  0  0  0  0  0
    6.6420    4.1110   18.2050 H   0  0  0  0  0  0  0  0  0  0  0  0
    6.9180    6.4050   16.1820 H   0  0  0  0  0  0  0  0  0  0  0  0
    8.2530    5.6240   17.0320 H   0  0  0  0  0  0  0  0  0  0  0  0
    6.0860    3.4050   14.3900 H   0  0  0  0  0  0  0  0  0  0  0  0
    6.2170    2.8090   16.0460 H   0  0  0  0  0  0  0  0  0  0  0  0
    3.9810    3.9120   15.5730 H   0  0  0  0  0  0  0  0  0  0  0  0
    4.8090    5.4250   15.2200 H   0  0  0  0  0  0  0  0  0  0  0  0
  1  2  1  0  0  0  0
  2  7  1  0  0  0  0
  2  3  2  0  0  0  0
  3  8  1  0  0  0  0
  4  9  1  0  0  0  0
  4  3  1  0  0  0  0
  5  4  2  0  0  0  0
  6  5  1  0  0  0  0
  6  1  2  0  0  0  0
 10  6  1  0  0  0  0
 11 12  2  0  0  0  0
 12  1  1  0  0  0  0
 12 13  1  0  0  0  0
 13 14  1  0  0  0  0
 15 13  1  0  0  0  0
 15 18  1  0  0  0  0
 16 15  1  0  0  0  0
 17 15  1  0  0  0  0
 18 28  1  6  0  0  0
 18 27  1  0  0  0  0
 19 20  1  0  0  0  0
 19 18  1  0  0  0  0
 19 29  1  0  0  0  0
 20 21  1  0  0  0  0
 21 22  2  0  0  0  0
 21 26  1  0  0  0  0
 22 23  1  0  0  0  0
 23 32  1  0  0  0  0
 23 24  2  0  0  0  0
 24 33  1  0  0  0  0
 25 24  1  0  0  0  0
 25 34  1  0  0  0  0
 26 25  2  0  0  0  0
 27 26  1  0  0  0  0
 30 19  1  0  0  0  0
 31 22  1  0  0  0  0
 35  5  1  0  0  0  0
 35 37  2  0  0  0  0
 36 35  2  0  0  0  0
 38 39  1  0  0  0  0
 38 35  1  0  0  0  0
 39 45  1  0  0  0  0
 39 44  1  0  0  0  0
 40 47  1  0  0  0  0
 40 39  1  0  0  0  0
 41 40  1  0  0  0  0
 42 41  1  0  0  0  0
 42 43  1  0  0  0  0
 42 49  1  0  0  0  0
 43 38  1  0  0  0  0
 46 40  1  0  0  0  0
 48 42  1  0  0  0  0
 50 43  1  0  0  0  0
 51 43  1  0  0  0  0
M  END
>  <MODEL>
20

>  <REMARK>
 VINA RESULT:    -8.094      3.057      8.850
 INTER + INTRA:         -10.540
 INTER:                  -9.746
 INTRA:                  -0.795
 UNBOUND:                -0.080
  Name = 
  5 active torsions:
  status: ('A' for Active; 'I' for Inactive)
    1  A    between atoms: C_2  and  C_15
    2  A    between atoms: N_3  and  C_4
    3  A    between atoms: C_4  and  C_5
    4  A    between atoms: C_19  and  S_20
    5  A    between atoms: S_20  and  N_23
                            x       y       z     vdW  Elec       q    Type
                         _______ _______ _______ _____ _____    ______ ____

>  <TORSDO>
F 5

$$$$
=
 OpenBabel07192307433D

 51 54  0  0  1  0  0  0  0  0999 V2000
    2.0300    7.3730   19.2400 C   0  0  0  0  0  0  0  0  0  0  0  0
    1.5490    7.0070   20.5040 C   0  0  0  0  0  0  0  0  0  0  0  0
    1.7140    5.7020   20.9770 C   0  0  0  0  0  0  0  0  0  0  0  0
    2.3750    4.7570   20.1950 C   0  0  0  0  0  0  0  0  0  0  0  0
    2.8790    5.1330   18.9460 C   0  0  0  0  0  0  0  0  0  0  0  0
    2.7090    6.4330   18.4580 C   0  0  0  0  0  0  0  0  0  0  0  0
    1.0320    7.7400   21.1230 H   0  0  0  0  0  0  0  0  0  0  0  0
    1.3250    5.4260   21.9550 H   0  0  0  0  0  0  0  0  0  0  0  0
    2.4950    3.7400   20.5650 H   0  0  0  0  0  0  0  0  0  0  0  0
    3.1280    6.6990   17.4920 H   0  0  0  0  0  0  0  0  0  0  0  0
    2.2850    9.1430   17.7090 O   0  0  0  0  0  0  0  0  0  0  0  0
    1.8270    8.7750   18.7840 C   0  0  0  0  0  0  0  0  0  0  0  0
    1.1270    9.6040   19.6350 N   0  0  0  0  0  0  0  0  0  0  0  0
    0.9750    9.3070   20.5910 H   0  0  0  0  0  0  0  0  0  0  0  0
    0.9820   11.0250   19.3620 C   0  0  0  0  0  0  0  0  0  0  0  0
    1.8530   11.5230   19.8030 H   0  0  0  0  0  0  0  0  0  0  0  0
    1.0640   11.1730   18.2790 H   0  0  0  0  0  0  0  0  0  0  0  0
   -0.3310   11.6570   19.8650 C   0  0  1  0  0  0  0  0  0  0  0  0
   -0.6930   12.9670   19.1680 C   0  0  0  0  0  0  0  0  0  0  0  0
   -0.9030   12.7780   17.7650 O   0  0  0  0  0  0  0  0  0  0  0  0
   -1.7440   11.7180   17.5390 C   0  0  0  0  0  0  0  0  0  0  0  0
   -2.3430   11.6480   16.2840 C   0  0  0  0  0  0  0  0  0  0  0  0
   -3.2190   10.6010   15.9900 C   0  0  0  0  0  0  0  0  0  0  0  0
   -3.4900    9.6250   16.9500 C   0  0  0  0  0  0  0  0  0  0  0  0
   -2.8770    9.6890   18.2030 C   0  0  0  0  0  0  0  0  0  0  0  0
   -1.9940   10.7280   18.4930 C   0  0  0  0  0  0  0  0  0  0  0  0
   -1.4040   10.7030   19.7300 O   0  0  0  0  0  0  0  0  0  0  0  0
   -0.2440   11.8620   20.9380 H   0  0  0  0  0  0  0  0  0  0  0  0
   -1.6080   13.3960   19.5960 H   0  0  0  0  0  0  0  0  0  0  0  0
    0.1010   13.7110   19.2890 H   0  0  0  0  0  0  0  0  0  0  0  0
   -2.1360   12.4110   15.5390 H   0  0  0  0  0  0  0  0  0  0  0  0
   -3.6930   10.5490   15.0130 H   0  0  0  0  0  0  0  0  0  0  0  0
   -4.1750    8.8130   16.7230 H   0  0  0  0  0  0  0  0  0  0  0  0
   -3.0790    8.9250   18.9480 H   0  0  0  0  0  0  0  0  0  0  0  0
    3.7320    3.9510   17.9350 S   0  0  0  0  0  0  0  0  0  0  0  0
    2.7650    3.4230   16.9980 O   0  0  0  0  0  0  0  0  0  0  0  0
    4.5060    3.0770   18.7900 O   0  0  0  0  0  0  0  0  0  0  0  0
    4.8310    4.9290   17.0700 N   0  0  0  0  0  0  0  0  0  0  0  0
    6.1880    5.0770   17.6960 C   0  0  0  0  0  0  0  0  0  0  0  0
    7.2120    5.5420   16.6540 C   0  0  0  0  0  0  0  0  0  0  0  0
    7.3980    4.5960   15.5930 O   0  0  0  0  0  0  0  0  0  0  0  0
    6.2210    3.8260   15.3060 C   0  0  0  0  0  0  0  0  0  0  0  0
    4.9240    4.5800   15.6100 C   0  0  0  0  0  0  0  0  0  0  0  0
    6.1270    5.8200   18.4970 H   0  0  0  0  0  0  0  0  0  0  0  0
    6.5160    4.1210   18.1170 H   0  0  0  0  0  0  0  0  0  0  0  0
    6.9050    6.4950   16.2070 H   0  0  0  0  0  0  0  0  0  0  0  0
    8.1850    5.7000   17.1270 H   0  0  0  0  0  0  0  0  0  0  0  0
    6.2600    3.5550   14.2470 H   0  0  0  0  0  0  0  0  0  0  0  0
    6.2760    2.8970   15.8850 H   0  0  0  0  0  0  0  0  0  0  0  0
    4.0640    3.9870   15.2840 H   0  0  0  0  0  0  0  0  0  0  0  0
    4.8920    5.5230   15.0520 H   0  0  0  0  0  0  0  0  0  0  0  0
  1  2  1  0  0  0  0
  2  3  2  0  0  0  0
  2  7  1  0  0  0  0
  3  8  1  0  0  0  0
  4  9  1  0  0  0  0
  4  3  1  0  0  0  0
  5  4  2  0  0  0  0
  6  5  1  0  0  0  0
  6  1  2  0  0  0  0
 10  6  1  0  0  0  0
 11 12  2  0  0  0  0
 12  1  1  0  0  0  0
 12 13  1  0  0  0  0
 13 14  1  0  0  0  0
 15 13  1  0  0  0  0
 15 16  1  0  0  0  0
 15 18  1  0  0  0  0
 17 15  1  0  0  0  0
 18 28  1  1  0  0  0
 19 30  1  0  0  0  0
 19 29  1  0  0  0  0
 19 18  1  0  0  0  0
 20 19  1  0  0  0  0
 21 20  1  0  0  0  0
 21 26  1  0  0  0  0
 22 21  2  0  0  0  0
 23 22  1  0  0  0  0
 23 24  2  0  0  0  0
 24 25  1  0  0  0  0
 25 26  2  0  0  0  0
 25 34  1  0  0  0  0
 26 27  1  0  0  0  0
 27 18  1  0  0  0  0
 31 22  1  0  0  0  0
 32 23  1  0  0  0  0
 33 24  1  0  0  0  0
 35 37  2  0  0  0  0
 35  5  1  0  0  0  0
 36 35  2  0  0  0  0
 38 39  1  0  0  0  0
 38 35  1  0  0  0  0
 39 45  1  0  0  0  0
 39 44  1  0  0  0  0
 40 47  1  0  0  0  0
 40 39  1  0  0  0  0
 41 40  1  0  0  0  0
 42 41  1  0  0  0  0
 42 43  1  0  0  0  0
 42 49  1  0  0  0  0
 43 38  1  0  0  0  0
 46 40  1  0  0  0  0
 48 42  1  0  0  0  0
 50 43  1  0  0  0  0
 51 43  1  0  0  0  0
M  END
>  <MODEL>
21

>  <REMARK>
 VINA RESULT:    -8.080      2.645      8.675
 INTER + INTRA:         -10.522
 INTER:                  -9.729
 INTRA:                  -0.793
 UNBOUND:                -0.080
  Name = 
  5 active torsions:
  status: ('A' for Active; 'I' for Inactive)
    1  A    between atoms: C_2  and  C_15
    2  A    between atoms: N_3  and  C_4
    3  A    between atoms: C_4  and  C_5
    4  A    between atoms: C_19  and  S_20
    5  A    between atoms: S_20  and  N_23
                            x       y       z     vdW  Elec       q    Type
                         _______ _______ _______ _____ _____    ______ ____

>  <TORSDO>
F 5

$$$$
=
 OpenBabel07192307433D

 51 54  0  0  1  0  0  0  0  0999 V2000
    0.8970    9.2110   19.3900 C   0  0  0  0  0  0  0  0  0  0  0  0
    0.3190    9.5460   18.1570 C   0  0  0  0  0  0  0  0  0  0  0  0
   -0.5760   10.6160   18.0590 C   0  0  0  0  0  0  0  0  0  0  0  0
   -0.8900   11.3670   19.1900 C   0  0  0  0  0  0  0  0  0  0  0  0
   -0.2910   11.0480   20.4120 C   0  0  0  0  0  0  0  0  0  0  0  0
    0.5980    9.9730   20.5240 C   0  0  0  0  0  0  0  0  0  0  0  0
    0.5600    8.9660   17.2680 H   0  0  0  0  0  0  0  0  0  0  0  0
   -1.0280   10.8580   17.1000 H   0  0  0  0  0  0  0  0  0  0  0  0
   -1.5940   12.1940   19.1100 H   0  0  0  0  0  0  0  0  0  0  0  0
    1.0620    9.7620   21.4840 H   0  0  0  0  0  0  0  0  0  0  0  0
    2.0220    7.4620   20.4910 O   0  0  0  0  0  0  0  0  0  0  0  0
    1.8430    8.0640   19.4400 C   0  0  0  0  0  0  0  0  0  0  0  0
    2.4920    7.7500   18.2640 N   0  0  0  0  0  0  0  0  0  0  0  0
    2.4720    8.4160   17.5020 H   0  0  0  0  0  0  0  0  0  0  0  0
    3.5370    6.7400   18.2200 C   0  0  0  0  0  0  0  0  0  0  0  0
    4.4080    7.2050   17.7440 H   0  0  0  0  0  0  0  0  0  0  0  0
    3.8370    6.5170   19.2510 H   0  0  0  0  0  0  0  0  0  0  0  0
    3.1510    5.4290   17.5080 C   0  0  1  0  0  0  0  0  0  0  0  0
    4.2430    4.3620   17.5420 C   0  0  0  0  0  0  0  0  0  0  0  0
    4.5490    3.9620   18.8810 O   0  0  0  0  0  0  0  0  0  0  0  0
    3.4020    3.6780   19.5770 C   0  0  0  0  0  0  0  0  0  0  0  0
    3.5420    2.9210   20.7380 C   0  0  0  0  0  0  0  0  0  0  0  0
    2.4140    2.5860   21.4890 C   0  0  0  0  0  0  0  0  0  0  0  0
    1.1500    3.0120   21.0800 C   0  0  0  0  0  0  0  0  0  0  0  0
    1.0130    3.7830   19.9240 C   0  0  0  0  0  0  0  0  0  0  0  0
    2.1390    4.1270   19.1800 C   0  0  0  0  0  0  0  0  0  0  0  0
    1.9290    4.9160   18.0790 O   0  0  0  0  0  0  0  0  0  0  0  0
    2.9240    5.6430   16.4580 H   0  0  0  0  0  0  0  0  0  0  0  0
    3.9340    3.4700   16.9810 H   0  0  0  0  0  0  0  0  0  0  0  0
    5.1670    4.7280   17.0830 H   0  0  0  0  0  0  0  0  0  0  0  0
    4.5260    2.5850   21.0520 H   0  0  0  0  0  0  0  0  0  0  0  0
    2.5210    1.9900   22.3920 H   0  0  0  0  0  0  0  0  0  0  0  0
    0.2710    2.7480   21.6620 H   0  0  0  0  0  0  0  0  0  0  0  0
    0.0300    4.1240   19.6100 H   0  0  0  0  0  0  0  0  0  0  0  0
   -0.6650   11.9940   21.8650 S   0  0  0  0  0  0  0  0  0  0  0  0
    0.2140   13.1430   21.8570 O   0  0  0  0  0  0  0  0  0  0  0  0
   -0.7250   11.1010   23.0020 O   0  0  0  0  0  0  0  0  0  0  0  0
   -2.2520   12.5380   21.5530 N   0  0  0  0  0  0  0  0  0  0  0  0
   -3.2350   12.3190   22.6680 C   0  0  0  0  0  0  0  0  0  0  0  0
   -4.4500   13.2390   22.5010 C   0  0  0  0  0  0  0  0  0  0  0  0
   -4.1130   14.6300   22.5770 O   0  0  0  0  0  0  0  0  0  0  0  0
   -2.7880   14.9200   22.1050 C   0  0  0  0  0  0  0  0  0  0  0  0
   -2.3110   13.9450   21.0250 C   0  0  0  0  0  0  0  0  0  0  0  0
   -3.5670   11.2770   22.6460 H   0  0  0  0  0  0  0  0  0  0  0  0
   -2.7630   12.5250   23.6340 H   0  0  0  0  0  0  0  0  0  0  0  0
   -4.9400   13.0620   21.5360 H   0  0  0  0  0  0  0  0  0  0  0  0
   -5.1870   13.0370   23.2830 H   0  0  0  0  0  0  0  0  0  0  0  0
   -2.7990   15.9410   21.7130 H   0  0  0  0  0  0  0  0  0  0  0  0
   -2.1130   14.9060   22.9680 H   0  0  0  0  0  0  0  0  0  0  0  0
   -1.3420   14.2670   20.6350 H   0  0  0  0  0  0  0  0  0  0  0  0
   -3.0110   13.9410   20.1800 H   0  0  0  0  0  0  0  0  0  0  0  0
  1 12  1  0  0  0  0
  1  6  1  0  0  0  0
  2  1  2  0  0  0  0
  3  2  1  0  0  0  0
  3  4  2  0  0  0  0
  4  5  1  0  0  0  0
  5  6  2  0  0  0  0
  5 35  1  0  0  0  0
  6 10  1  0  0  0  0
  7  2  1  0  0  0  0
  8  3  1  0  0  0  0
  9  4  1  0  0  0  0
 12 11  2  0  0  0  0
 13 12  1  0  0  0  0
 14 13  1  0  0  0  0
 15 13  1  0  0  0  0
 15 17  1  0  0  0  0
 16 15  1  0  0  0  0
 18 28  1  6  0  0  0
 18 19  1  0  0  0  0
 18 27  1  0  0  0  0
 18 15  1  0  0  0  0
 19 20  1  0  0  0  0
 20 21  1  0  0  0  0
 21 22  1  0  0  0  0
 22 31  1  0  0  0  0
 22 23  2  0  0  0  0
 23 32  1  0  0  0  0
 24 23  1  0  0  0  0
 24 33  1  0  0  0  0
 25 24  2  0  0  0  0
 26 21  2  0  0  0  0
 26 25  1  0  0  0  0
 27 26  1  0  0  0  0
 29 19  1  0  0  0  0
 30 19  1  0  0  0  0
 34 25  1  0  0  0  0
 35 37  2  0  0  0  0
 36 35  2  0  0  0  0
 38 35  1  0  0  0  0
 38 39  1  0  0  0  0
 39 45  1  0  0  0  0
 40 41  1  0  0  0  0
 40 39  1  0  0  0  0
 40 47  1  0  0  0  0
 42 41  1  0  0  0  0
 42 49  1  0  0  0  0
 43 38  1  0  0  0  0
 43 42  1  0  0  0  0
 44 39  1  0  0  0  0
 46 40  1  0  0  0  0
 48 42  1  0  0  0  0
 50 43  1  0  0  0  0
 51 43  1  0  0  0  0
M  END
>  <MODEL>
22

>  <REMARK>
 VINA RESULT:    -7.995      2.365      3.144
 INTER + INTRA:         -10.413
 INTER:                  -9.679
 INTRA:                  -0.733
 UNBOUND:                -0.080
  Name = 
  5 active torsions:
  status: ('A' for Active; 'I' for Inactive)
    1  A    between atoms: C_2  and  C_15
    2  A    between atoms: N_3  and  C_4
    3  A    between atoms: C_4  and  C_5
    4  A    between atoms: C_19  and  S_20
    5  A    between atoms: S_20  and  N_23
                            x       y       z     vdW  Elec       q    Type
                         _______ _______ _______ _____ _____    ______ ____

>  <TORSDO>
F 5

$$$$
=
 OpenBabel07192307433D

 51 54  0  0  1  0  0  0  0  0999 V2000
    2.0440    6.8280   19.5780 C   0  0  0  0  0  0  0  0  0  0  0  0
    2.6960    7.0130   18.3510 C   0  0  0  0  0  0  0  0  0  0  0  0
    2.6640    8.2540   17.7090 C   0  0  0  0  0  0  0  0  0  0  0  0
    1.9920    9.3240   18.2960 C   0  0  0  0  0  0  0  0  0  0  0  0
    1.3670    9.1450   19.5340 C   0  0  0  0  0  0  0  0  0  0  0  0
    1.3830    7.9040   20.1800 C   0  0  0  0  0  0  0  0  0  0  0  0
    3.2250    6.1820   17.8860 H   0  0  0  0  0  0  0  0  0  0  0  0
    3.1620    8.3820   16.7510 H   0  0  0  0  0  0  0  0  0  0  0  0
    1.9640   10.2870   17.7890 H   0  0  0  0  0  0  0  0  0  0  0  0
    0.9040    7.8010   21.1500 H   0  0  0  0  0  0  0  0  0  0  0  0
    2.0140    5.3830   21.4360 O   0  0  0  0  0  0  0  0  0  0  0  0
    2.1080    5.4870   20.2190 C   0  0  0  0  0  0  0  0  0  0  0  0
    2.2910    4.4100   19.3770 N   0  0  0  0  0  0  0  0  0  0  0  0
    2.5840    4.5800   18.4230 H   0  0  0  0  0  0  0  0  0  0  0  0
    2.5050    3.0690   19.8950 C   0  0  0  0  0  0  0  0  0  0  0  0
    2.4650    3.1390   20.9880 H   0  0  0  0  0  0  0  0  0  0  0  0
    1.6490    2.4500   19.5990 H   0  0  0  0  0  0  0  0  0  0  0  0
    3.8090    2.3890   19.4310 C   0  0  1  0  0  0  0  0  0  0  0  0
    3.7780    1.9200   17.9780 C   0  0  0  0  0  0  0  0  0  0  0  0
    3.6070    3.0150   17.0730 O   0  0  0  0  0  0  0  0  0  0  0  0
    4.4850    4.0270   17.3660 C   0  0  0  0  0  0  0  0  0  0  0  0
    4.7090    4.9730   16.3680 C   0  0  0  0  0  0  0  0  0  0  0  0
    5.5990    6.0240   16.5940 C   0  0  0  0  0  0  0  0  0  0  0  0
    6.2600    6.1300   17.8190 C   0  0  0  0  0  0  0  0  0  0  0  0
    6.0230    5.1890   18.8240 C   0  0  0  0  0  0  0  0  0  0  0  0
    5.1260    4.1460   18.6020 C   0  0  0  0  0  0  0  0  0  0  0  0
    4.9190    3.2840   19.6480 O   0  0  0  0  0  0  0  0  0  0  0  0
    4.0010    1.5130   20.0610 H   0  0  0  0  0  0  0  0  0  0  0  0
    4.7100    1.4020   17.7160 H   0  0  0  0  0  0  0  0  0  0  0  0
    2.9580    1.2150   17.8080 H   0  0  0  0  0  0  0  0  0  0  0  0
    4.1990    4.8870   15.4130 H   0  0  0  0  0  0  0  0  0  0  0  0
    5.7800    6.7590   15.8140 H   0  0  0  0  0  0  0  0  0  0  0  0
    6.9560    6.9460   17.9940 H   0  0  0  0  0  0  0  0  0  0  0  0
    6.5290    5.2760   19.7810 H   0  0  0  0  0  0  0  0  0  0  0  0
    0.5130   10.4930   20.3080 S   0  0  0  0  0  0  0  0  0  0  0  0
    0.8250   10.4340   21.7200 O   0  0  0  0  0  0  0  0  0  0  0  0
   -0.8560   10.5090   19.8400 O   0  0  0  0  0  0  0  0  0  0  0  0
    1.2990   11.8570   19.6470 N   0  0  0  0  0  0  0  0  0  0  0  0
    0.4700   12.6780   18.7010 C   0  0  0  0  0  0  0  0  0  0  0  0
    1.0610   14.0840   18.5510 C   0  0  0  0  0  0  0  0  0  0  0  0
    1.0590   14.8250   19.7780 O   0  0  0  0  0  0  0  0  0  0  0  0
    1.1900   13.9950   20.9430 C   0  0  0  0  0  0  0  0  0  0  0  0
    1.9830   12.7130   20.6770 C   0  0  0  0  0  0  0  0  0  0  0  0
    0.4590   12.1860   17.7240 H   0  0  0  0  0  0  0  0  0  0  0  0
   -0.5570   12.7600   19.0720 H   0  0  0  0  0  0  0  0  0  0  0  0
    2.0950   14.0330   18.1890 H   0  0  0  0  0  0  0  0  0  0  0  0
    0.4860   14.6590   17.8200 H   0  0  0  0  0  0  0  0  0  0  0  0
    1.6860   14.5930   21.7130 H   0  0  0  0  0  0  0  0  0  0  0  0
    0.1830   13.7620   21.3050 H   0  0  0  0  0  0  0  0  0  0  0  0
    2.1340   12.1680   21.6140 H   0  0  0  0  0  0  0  0  0  0  0  0
    2.9780   12.9540   20.2830 H   0  0  0  0  0  0  0  0  0  0  0  0
  1  6  1  0  0  0  0
  1 12  1  0  0  0  0
  2  1  2  0  0  0  0
  3  4  2  0  0  0  0
  3  2  1  0  0  0  0
  4  5  1  0  0  0  0
  5  6  2  0  0  0  0
  5 35  1  0  0  0  0
  6 10  1  0  0  0  0
  7  2  1  0  0  0  0
  8  3  1  0  0  0  0
  9  4  1  0  0  0  0
 12 11  2  0  0  0  0
 13 15  1  0  0  0  0
 13 12  1  0  0  0  0
 14 13  1  0  0  0  0
 15 16  1  0  0  0  0
 17 15  1  0  0  0  0
 18 27  1  0  0  0  0
 18 15  1  0  0  0  0
 18 28  1  1  0  0  0
 19 18  1  0  0  0  0
 20 21  1  0  0  0  0
 20 19  1  0  0  0  0
 21 26  1  0  0  0  0
 22 23  1  0  0  0  0
 22 21  2  0  0  0  0
 23 24  2  0  0  0  0
 24 33  1  0  0  0  0
 24 25  1  0  0  0  0
 25 34  1  0  0  0  0
 26 25  2  0  0  0  0
 26 27  1  0  0  0  0
 29 19  1  0  0  0  0
 30 19  1  0  0  0  0
 31 22  1  0  0  0  0
 32 23  1  0  0  0  0
 35 36  2  0  0  0  0
 37 35  2  0  0  0  0
 38 35  1  0  0  0  0
 38 43  1  0  0  0  0
 39 45  1  0  0  0  0
 39 38  1  0  0  0  0
 40 39  1  0  0  0  0
 40 41  1  0  0  0  0
 41 42  1  0  0  0  0
 42 49  1  0  0  0  0
 42 48  1  0  0  0  0
 43 42  1  0  0  0  0
 43 50  1  0  0  0  0
 44 39  1  0  0  0  0
 46 40  1  0  0  0  0
 47 40  1  0  0  0  0
 51 43  1  0  0  0  0
M  END
>  <MODEL>
23

>  <REMARK>
 VINA RESULT:    -7.989      2.735      4.392
 INTER + INTRA:         -10.405
 INTER:                  -9.677
 INTRA:                  -0.727
 UNBOUND:                -0.080
  Name = 
  5 active torsions:
  status: ('A' for Active; 'I' for Inactive)
    1  A    between atoms: C_2  and  C_15
    2  A    between atoms: N_3  and  C_4
    3  A    between atoms: C_4  and  C_5
    4  A    between atoms: C_19  and  S_20
    5  A    between atoms: S_20  and  N_23
                            x       y       z     vdW  Elec       q    Type
                         _______ _______ _______ _____ _____    ______ ____

>  <TORSDO>
F 5

$$$$
=
 OpenBabel07192307433D

 51 54  0  0  1  0  0  0  0  0999 V2000
    1.2250    8.7240   20.3800 C   0  0  0  0  0  0  0  0  0  0  0  0
    1.2300    8.4690   21.7580 C   0  0  0  0  0  0  0  0  0  0  0  0
    0.5530    9.3170   22.6400 C   0  0  0  0  0  0  0  0  0  0  0  0
   -0.1450   10.4180   22.1500 C   0  0  0  0  0  0  0  0  0  0  0  0
   -0.1720   10.6540   20.7720 C   0  0  0  0  0  0  0  0  0  0  0  0
    0.5110    9.8190   19.8800 C   0  0  0  0  0  0  0  0  0  0  0  0
    1.7720    7.6090   22.1500 H   0  0  0  0  0  0  0  0  0  0  0  0
    0.5750    9.1160   23.7090 H   0  0  0  0  0  0  0  0  0  0  0  0
   -0.6650   11.0800   22.8410 H   0  0  0  0  0  0  0  0  0  0  0  0
    0.4560   10.0180   18.8140 H   0  0  0  0  0  0  0  0  0  0  0  0
    2.4540    8.2030   18.4410 O   0  0  0  0  0  0  0  0  0  0  0  0
    1.9610    7.7920   19.4850 C   0  0  0  0  0  0  0  0  0  0  0  0
    2.0320    6.4760   19.8910 N   0  0  0  0  0  0  0  0  0  0  0  0
    1.4210    6.1600   20.6340 H   0  0  0  0  0  0  0  0  0  0  0  0
    2.6050    5.4470   19.0380 C   0  0  0  0  0  0  0  0  0  0  0  0
    1.7970    4.7490   18.7940 H   0  0  0  0  0  0  0  0  0  0  0  0
    2.8980    5.9160   18.0910 H   0  0  0  0  0  0  0  0  0  0  0  0
    3.8170    4.7040   19.6330 C   0  0  1  0  0  0  0  0  0  0  0  0
    4.0030    3.2890   19.0890 C   0  0  0  0  0  0  0  0  0  0  0  0
    4.2470    3.2940   17.6790 O   0  0  0  0  0  0  0  0  0  0  0  0
    5.2250    4.2010   17.3590 C   0  0  0  0  0  0  0  0  0  0  0  0
    5.8370    4.0530   16.1160 C   0  0  0  0  0  0  0  0  0  0  0  0
    6.8490    4.9340   15.7310 C   0  0  0  0  0  0  0  0  0  0  0  0
    7.2430    5.9640   16.5870 C   0  0  0  0  0  0  0  0  0  0  0  0
    6.6180    6.1200   17.8260 C   0  0  0  0  0  0  0  0  0  0  0  0
    5.6010    5.2470   18.2060 C   0  0  0  0  0  0  0  0  0  0  0  0
    5.0110    5.4860   19.4200 O   0  0  0  0  0  0  0  0  0  0  0  0
    3.6960    4.6310   20.7200 H   0  0  0  0  0  0  0  0  0  0  0  0
    4.8490    2.7910   19.5800 H   0  0  0  0  0  0  0  0  0  0  0  0
    3.1160    2.6760   19.2720 H   0  0  0  0  0  0  0  0  0  0  0  0
    5.5340    3.2470   15.4530 H   0  0  0  0  0  0  0  0  0  0  0  0
    7.3320    4.8160   14.7640 H   0  0  0  0  0  0  0  0  0  0  0  0
    8.0330    6.6480   16.2890 H   0  0  0  0  0  0  0  0  0  0  0  0
    6.9170    6.9270   18.4880 H   0  0  0  0  0  0  0  0  0  0  0  0
   -1.0620   12.0430   20.1200 S   0  0  0  0  0  0  0  0  0  0  0  0
   -2.1410   11.5120   19.3160 O   0  0  0  0  0  0  0  0  0  0  0  0
   -0.1140   12.9910   19.5740 O   0  0  0  0  0  0  0  0  0  0  0  0
   -1.7380   12.7410   21.5220 N   0  0  0  0  0  0  0  0  0  0  0  0
   -1.2360   14.1160   21.8600 C   0  0  0  0  0  0  0  0  0  0  0  0
   -2.2110   14.8270   22.8040 C   0  0  0  0  0  0  0  0  0  0  0  0
   -3.5010   15.0420   22.2170 O   0  0  0  0  0  0  0  0  0  0  0  0
   -3.8650   14.0330   21.2620 C   0  0  0  0  0  0  0  0  0  0  0  0
   -3.2400   12.6690   21.5640 C   0  0  0  0  0  0  0  0  0  0  0  0
   -0.2620   14.0240   22.3510 H   0  0  0  0  0  0  0  0  0  0  0  0
   -1.1230   14.7120   20.9490 H   0  0  0  0  0  0  0  0  0  0  0  0
   -2.3520   14.2480   23.7250 H   0  0  0  0  0  0  0  0  0  0  0  0
   -1.8150   15.8050   23.0900 H   0  0  0  0  0  0  0  0  0  0  0  0
   -4.9560   13.9580   21.2690 H   0  0  0  0  0  0  0  0  0  0  0  0
   -3.5660   14.3870   20.2690 H   0  0  0  0  0  0  0  0  0  0  0  0
   -3.6240   11.9200   20.8660 H   0  0  0  0  0  0  0  0  0  0  0  0
   -3.5170   12.3380   22.5730 H   0  0  0  0  0  0  0  0  0  0  0  0
  1  2  1  0  0  0  0
  2  7  1  0  0  0  0
  2  3  2  0  0  0  0
  3  8  1  0  0  0  0
  4  3  1  0  0  0  0
  4  9  1  0  0  0  0
  5  4  2  0  0  0  0
  6  1  2  0  0  0  0
  6  5  1  0  0  0  0
 10  6  1  0  0  0  0
 11 12  2  0  0  0  0
 12 13  1  0  0  0  0
 12  1  1  0  0  0  0
 13 14  1  0  0  0  0
 15 18  1  0  0  0  0
 15 13  1  0  0  0  0
 16 15  1  0  0  0  0
 17 15  1  0  0  0  0
 18 28  1  1  0  0  0
 19 30  1  0  0  0  0
 19 29  1  0  0  0  0
 19 18  1  0  0  0  0
 20 19  1  0  0  0  0
 21 20  1  0  0  0  0
 21 26  1  0  0  0  0
 22 21  2  0  0  0  0
 23 22  1  0  0  0  0
 23 24  2  0  0  0  0
 24 25  1  0  0  0  0
 25 26  2  0  0  0  0
 25 34  1  0  0  0  0
 26 27  1  0  0  0  0
 27 18  1  0  0  0  0
 31 22  1  0  0  0  0
 32 23  1  0  0  0  0
 33 24  1  0  0  0  0
 35  5  1  0  0  0  0
 35 38  1  0  0  0  0
 36 35  2  0  0  0  0
 37 35  2  0  0  0  0
 38 43  1  0  0  0  0
 38 39  1  0  0  0  0
 39 44  1  0  0  0  0
 39 40  1  0  0  0  0
 40 47  1  0  0  0  0
 40 46  1  0  0  0  0
 41 40  1  0  0  0  0
 42 48  1  0  0  0  0
 42 43  1  0  0  0  0
 42 41  1  0  0  0  0
 43 51  1  0  0  0  0
 45 39  1  0  0  0  0
 49 42  1  0  0  0  0
 50 43  1  0  0  0  0
M  END
>  <MODEL>
24

>  <REMARK>
 VINA RESULT:    -7.950      2.454      4.067
 INTER + INTRA:         -10.355
 INTER:                  -9.653
 INTRA:                  -0.701
 UNBOUND:                -0.080
  Name = 
  5 active torsions:
  status: ('A' for Active; 'I' for Inactive)
    1  A    between atoms: C_2  and  C_15
    2  A    between atoms: N_3  and  C_4
    3  A    between atoms: C_4  and  C_5
    4  A    between atoms: C_19  and  S_20
    5  A    between atoms: S_20  and  N_23
                            x       y       z     vdW  Elec       q    Type
                         _______ _______ _______ _____ _____    ______ ____

>  <TORSDO>
F 5

$$$$
=
 OpenBabel07192307433D

 51 54  0  0  1  0  0  0  0  0999 V2000
    1.6890    6.5240   20.5690 C   0  0  0  0  0  0  0  0  0  0  0  0
    0.7530    5.4940   20.7390 C   0  0  0  0  0  0  0  0  0  0  0  0
    1.0500    4.1900   20.3340 C   0  0  0  0  0  0  0  0  0  0  0  0
    2.2900    3.9020   19.7690 C   0  0  0  0  0  0  0  0  0  0  0  0
    3.2330    4.9250   19.6270 C   0  0  0  0  0  0  0  0  0  0  0  0
    2.9420    6.2370   20.0180 C   0  0  0  0  0  0  0  0  0  0  0  0
   -0.2190    5.7100   21.1820 H   0  0  0  0  0  0  0  0  0  0  0  0
    0.3110    3.4020   20.4590 H   0  0  0  0  0  0  0  0  0  0  0  0
    2.5150    2.8860   19.4480 H   0  0  0  0  0  0  0  0  0  0  0  0
    3.7020    7.0060   19.9120 H   0  0  0  0  0  0  0  0  0  0  0  0
    1.9480    8.4320   21.9230 O   0  0  0  0  0  0  0  0  0  0  0  0
    1.3230    7.8950   21.0170 C   0  0  0  0  0  0  0  0  0  0  0  0
    0.2580    8.4880   20.3730 N   0  0  0  0  0  0  0  0  0  0  0  0
   -0.3490    7.9150   19.8010 H   0  0  0  0  0  0  0  0  0  0  0  0
   -0.2790    9.7670   20.8130 C   0  0  0  0  0  0  0  0  0  0  0  0
   -1.3590    9.6340   20.9330 H   0  0  0  0  0  0  0  0  0  0  0  0
    0.1150    9.9730   21.8150 H   0  0  0  0  0  0  0  0  0  0  0  0
    0.0340   10.9600   19.8880 C   0  0  1  0  0  0  0  0  0  0  0  0
    0.6560   10.5590   18.5520 C   0  0  0  0  0  0  0  0  0  0  0  0
   -0.2270    9.7360   17.7840 O   0  0  0  0  0  0  0  0  0  0  0  0
   -1.4800   10.2890   17.7280 C   0  0  0  0  0  0  0  0  0  0  0  0
   -2.3270    9.8260   16.7230 C   0  0  0  0  0  0  0  0  0  0  0  0
   -3.6130   10.3540   16.6010 C   0  0  0  0  0  0  0  0  0  0  0  0
   -4.0510   11.3400   17.4860 C   0  0  0  0  0  0  0  0  0  0  0  0
   -3.2060   11.7930   18.5020 C   0  0  0  0  0  0  0  0  0  0  0  0
   -1.9260   11.2590   18.6300 C   0  0  0  0  0  0  0  0  0  0  0  0
   -1.1690   11.7270   19.6730 O   0  0  0  0  0  0  0  0  0  0  0  0
    0.7330   11.6340   20.3940 H   0  0  0  0  0  0  0  0  0  0  0  0
    0.9010   11.4480   17.9550 H   0  0  0  0  0  0  0  0  0  0  0  0
    1.5870   10.0030   18.7010 H   0  0  0  0  0  0  0  0  0  0  0  0
   -1.9830    9.0620   16.0310 H   0  0  0  0  0  0  0  0  0  0  0  0
   -4.2730    9.9980   15.8140 H   0  0  0  0  0  0  0  0  0  0  0  0
   -5.0510   11.7540   17.3890 H   0  0  0  0  0  0  0  0  0  0  0  0
   -3.5500   12.5530   19.1970 H   0  0  0  0  0  0  0  0  0  0  0  0
    4.8230    4.5830   18.9190 S   0  0  0  0  0  0  0  0  0  0  0  0
    5.0270    3.1540   19.0130 O   0  0  0  0  0  0  0  0  0  0  0  0
    5.7860    5.5170   19.4600 O   0  0  0  0  0  0  0  0  0  0  0  0
    4.5900    4.9790   17.2750 N   0  0  0  0  0  0  0  0  0  0  0  0
    5.2260    6.2640   16.8290 C   0  0  0  0  0  0  0  0  0  0  0  0
    5.3770    6.2870   15.3040 C   0  0  0  0  0  0  0  0  0  0  0  0
    6.2450    5.2590   14.8130 O   0  0  0  0  0  0  0  0  0  0  0  0
    6.2360    4.0730   15.6220 C   0  0  0  0  0  0  0  0  0  0  0  0
    4.9000    3.8460   16.3360 C   0  0  0  0  0  0  0  0  0  0  0  0
    4.5900    7.0990   17.1410 H   0  0  0  0  0  0  0  0  0  0  0  0
    6.2140    6.3760   17.2870 H   0  0  0  0  0  0  0  0  0  0  0  0
    4.4020    6.1680   14.8160 H   0  0  0  0  0  0  0  0  0  0  0  0
    5.7890    7.2470   14.9800 H   0  0  0  0  0  0  0  0  0  0  0  0
    6.4600    3.2280   14.9640 H   0  0  0  0  0  0  0  0  0  0  0  0
    7.0550    4.1520   16.3460 H   0  0  0  0  0  0  0  0  0  0  0  0
    4.9160    2.8850   16.8580 H   0  0  0  0  0  0  0  0  0  0  0  0
    4.0820    3.8010   15.6070 H   0  0  0  0  0  0  0  0  0  0  0  0
  1  2  1  0  0  0  0
  1 12  1  0  0  0  0
  2  7  1  0  0  0  0
  3  8  1  0  0  0  0
  3  2  2  0  0  0  0
  4  3  1  0  0  0  0
  5  4  2  0  0  0  0
  5  6  1  0  0  0  0
  6  1  2  0  0  0  0
  9  4  1  0  0  0  0
 10  6  1  0  0  0  0
 12 11  2  0  0  0  0
 13 15  1  0  0  0  0
 13 12  1  0  0  0  0
 14 13  1  0  0  0  0
 15 16  1  0  0  0  0
 15 17  1  0  0  0  0
 18 28  1  1  0  0  0
 18 15  1  0  0  0  0
 19 30  1  0  0  0  0
 19 18  1  0  0  0  0
 20 19  1  0  0  0  0
 21 20  1  0  0  0  0
 21 26  1  0  0  0  0
 22 21  2  0  0  0  0
 23 22  1  0  0  0  0
 23 24  2  0  0  0  0
 24 25  1  0  0  0  0
 25 26  2  0  0  0  0
 25 34  1  0  0  0  0
 26 27  1  0  0  0  0
 27 18  1  0  0  0  0
 29 19  1  0  0  0  0
 31 22  1  0  0  0  0
 32 23  1  0  0  0  0
 33 24  1  0  0  0  0
 35 36  2  0  0  0  0
 35 37  2  0  0  0  0
 35  5  1  0  0  0  0
 38 35  1  0  0  0  0
 39 44  1  0  0  0  0
 39 38  1  0  0  0  0
 39 45  1  0  0  0  0
 40 39  1  0  0  0  0
 41 40  1  0  0  0  0
 41 42  1  0  0  0  0
 42 43  1  0  0  0  0
 42 49  1  0  0  0  0
 43 50  1  0  0  0  0
 43 38  1  0  0  0  0
 46 40  1  0  0  0  0
 47 40  1  0  0  0  0
 48 42  1  0  0  0  0
 51 43  1  0  0  0  0
M  END
>  <MODEL>
25

>  <REMARK>
 VINA RESULT:    -7.941      2.715      8.386
 INTER + INTRA:         -10.343
 INTER:                  -9.272
 INTRA:                  -1.071
 UNBOUND:                -0.080
  Name = 
  5 active torsions:
  status: ('A' for Active; 'I' for Inactive)
    1  A    between atoms: C_2  and  C_15
    2  A    between atoms: N_3  and  C_4
    3  A    between atoms: C_4  and  C_5
    4  A    between atoms: C_19  and  S_20
    5  A    between atoms: S_20  and  N_23
                            x       y       z     vdW  Elec       q    Type
                         _______ _______ _______ _____ _____    ______ ____

>  <TORSDO>
F 5

$$$$
=
 OpenBabel07192307433D

 51 54  0  0  1  0  0  0  0  0999 V2000
    1.9670    7.8650   19.1420 C   0  0  0  0  0  0  0  0  0  0  0  0
    1.4610    7.6730   20.4350 C   0  0  0  0  0  0  0  0  0  0  0  0
    1.5770    6.4310   21.0660 C   0  0  0  0  0  0  0  0  0  0  0  0
    2.2110    5.3750   20.4150 C   0  0  0  0  0  0  0  0  0  0  0  0
    2.7400    5.5780   19.1370 C   0  0  0  0  0  0  0  0  0  0  0  0
    2.6210    6.8140   18.4910 C   0  0  0  0  0  0  0  0  0  0  0  0
    0.9650    8.4930   20.9520 H   0  0  0  0  0  0  0  0  0  0  0  0
    1.1680    6.2900   22.0640 H   0  0  0  0  0  0  0  0  0  0  0  0
    2.2920    4.4080   20.9070 H   0  0  0  0  0  0  0  0  0  0  0  0
    3.0590    6.9450   17.5050 H   0  0  0  0  0  0  0  0  0  0  0  0
    2.2130    9.3960   17.3710 O   0  0  0  0  0  0  0  0  0  0  0  0
    1.8180    9.2060   18.5150 C   0  0  0  0  0  0  0  0  0  0  0  0
    1.2410   10.1880   19.2930 N   0  0  0  0  0  0  0  0  0  0  0  0
    1.1460   10.0310   20.2880 H   0  0  0  0  0  0  0  0  0  0  0  0
    1.1650   11.5680   18.8410 C   0  0  0  0  0  0  0  0  0  0  0  0
    1.7250   12.1700   19.5640 H   0  0  0  0  0  0  0  0  0  0  0  0
    1.7120   11.6450   17.8930 H   0  0  0  0  0  0  0  0  0  0  0  0
   -0.2630   12.1170   18.6500 C   0  0  1  0  0  0  0  0  0  0  0  0
   -1.3560   11.1910   19.1790 C   0  0  0  0  0  0  0  0  0  0  0  0
   -1.2390   10.9870   20.5910 O   0  0  0  0  0  0  0  0  0  0  0  0
   -1.0900   12.1840   21.2420 C   0  0  0  0  0  0  0  0  0  0  0  0
   -1.3480   12.1910   22.6120 C   0  0  0  0  0  0  0  0  0  0  0  0
   -1.2280   13.3780   23.3350 C   0  0  0  0  0  0  0  0  0  0  0  0
   -0.8440   14.5550   22.6900 C   0  0  0  0  0  0  0  0  0  0  0  0
   -0.5720   14.5430   21.3210 C   0  0  0  0  0  0  0  0  0  0  0  0
   -0.6820   13.3560   20.6000 C   0  0  0  0  0  0  0  0  0  0  0  0
   -0.3630   13.4170   19.2680 O   0  0  0  0  0  0  0  0  0  0  0  0
   -0.4470   12.2770   17.5820 H   0  0  0  0  0  0  0  0  0  0  0  0
   -2.3510   11.6070   18.9750 H   0  0  0  0  0  0  0  0  0  0  0  0
   -1.3110   10.2100   18.6950 H   0  0  0  0  0  0  0  0  0  0  0  0
   -1.6520   11.2760   23.1120 H   0  0  0  0  0  0  0  0  0  0  0  0
   -1.4350   13.3860   24.4030 H   0  0  0  0  0  0  0  0  0  0  0  0
   -0.7540   15.4800   23.2530 H   0  0  0  0  0  0  0  0  0  0  0  0
   -0.2640   15.4570   20.8190 H   0  0  0  0  0  0  0  0  0  0  0  0
    3.5620    4.2540   18.2900 S   0  0  0  0  0  0  0  0  0  0  0  0
    2.6900    3.8390   17.2120 O   0  0  0  0  0  0  0  0  0  0  0  0
    4.0510    3.3060   19.2670 O   0  0  0  0  0  0  0  0  0  0  0  0
    4.9160    5.0350   17.6060 N   0  0  0  0  0  0  0  0  0  0  0  0
    6.2360    4.7050   18.2440 C   0  0  0  0  0  0  0  0  0  0  0  0
    7.3910    5.0500   17.2970 C   0  0  0  0  0  0  0  0  0  0  0  0
    7.3680    4.2830   16.0860 O   0  0  0  0  0  0  0  0  0  0  0  0
    6.0430    3.9160   15.6710 C   0  0  0  0  0  0  0  0  0  0  0  0
    4.9780    4.9270   16.1070 C   0  0  0  0  0  0  0  0  0  0  0  0
    6.3380    5.2900   19.1640 H   0  0  0  0  0  0  0  0  0  0  0  0
    6.2810    3.6390   18.4900 H   0  0  0  0  0  0  0  0  0  0  0  0
    7.3660    6.1110   17.0260 H   0  0  0  0  0  0  0  0  0  0  0  0
    8.3500    4.8590   17.7870 H   0  0  0  0  0  0  0  0  0  0  0  0
    6.0560    3.8290   14.5810 H   0  0  0  0  0  0  0  0  0  0  0  0
    5.8260    2.9220   16.0780 H   0  0  0  0  0  0  0  0  0  0  0  0
    4.0080    4.6500   15.6850 H   0  0  0  0  0  0  0  0  0  0  0  0
    5.2210    5.9250   15.7240 H   0  0  0  0  0  0  0  0  0  0  0  0
  1  2  1  0  0  0  0
  2  7  1  0  0  0  0
  2  3  2  0  0  0  0
  3  8  1  0  0  0  0
  4  9  1  0  0  0  0
  4  3  1  0  0  0  0
  5  4  2  0  0  0  0
  6  5  1  0  0  0  0
  6  1  2  0  0  0  0
 10  6  1  0  0  0  0
 11 12  2  0  0  0  0
 12  1  1  0  0  0  0
 12 13  1  0  0  0  0
 13 14  1  0  0  0  0
 15 13  1  0  0  0  0
 15 16  1  0  0  0  0
 17 15  1  0  0  0  0
 18 28  1  6  0  0  0
 18 15  1  0  0  0  0
 18 19  1  0  0  0  0
 18 27  1  0  0  0  0
 19 20  1  0  0  0  0
 20 21  1  0  0  0  0
 21 22  1  0  0  0  0
 22 31  1  0  0  0  0
 22 23  2  0  0  0  0
 23 32  1  0  0  0  0
 24 33  1  0  0  0  0
 24 23  1  0  0  0  0
 25 24  2  0  0  0  0
 26 21  2  0  0  0  0
 26 25  1  0  0  0  0
 27 26  1  0  0  0  0
 29 19  1  0  0  0  0
 30 19  1  0  0  0  0
 34 25  1  0  0  0  0
 35  5  1  0  0  0  0
 35 37  2  0  0  0  0
 36 35  2  0  0  0  0
 38 39  1  0  0  0  0
 38 35  1  0  0  0  0
 39 45  1  0  0  0  0
 39 44  1  0  0  0  0
 40 47  1  0  0  0  0
 40 39  1  0  0  0  0
 41 40  1  0  0  0  0
 42 49  1  0  0  0  0
 42 41  1  0  0  0  0
 42 43  1  0  0  0  0
 43 38  1  0  0  0  0
 46 40  1  0  0  0  0
 48 42  1  0  0  0  0
 50 43  1  0  0  0  0
 51 43  1  0  0  0  0
M  END
>  <MODEL>
26

>  <REMARK>
 VINA RESULT:    -7.910      3.048      8.869
 INTER + INTRA:         -10.303
 INTER:                  -9.261
 INTRA:                  -1.042
 UNBOUND:                -0.080
  Name = 
  5 active torsions:
  status: ('A' for Active; 'I' for Inactive)
    1  A    between atoms: C_2  and  C_15
    2  A    between atoms: N_3  and  C_4
    3  A    between atoms: C_4  and  C_5
    4  A    between atoms: C_19  and  S_20
    5  A    between atoms: S_20  and  N_23
                            x       y       z     vdW  Elec       q    Type
                         _______ _______ _______ _____ _____    ______ ____

>  <TORSDO>
F 5

$$$$
=
 OpenBabel07192307433D

 51 54  0  0  1  0  0  0  0  0999 V2000
    2.6910    7.2800   18.4630 C   0  0  0  0  0  0  0  0  0  0  0  0
    2.5770    6.4810   19.6090 C   0  0  0  0  0  0  0  0  0  0  0  0
    3.2870    5.2820   19.7140 C   0  0  0  0  0  0  0  0  0  0  0  0
    4.1270    4.8780   18.6780 C   0  0  0  0  0  0  0  0  0  0  0  0
    4.2610    5.6910   17.5480 C   0  0  0  0  0  0  0  0  0  0  0  0
    3.5470    6.8880   17.4280 C   0  0  0  0  0  0  0  0  0  0  0  0
    1.9230    6.7900   20.4240 H   0  0  0  0  0  0  0  0  0  0  0  0
    3.1800    4.6640   20.6020 H   0  0  0  0  0  0  0  0  0  0  0  0
    4.6730    3.9390   18.7610 H   0  0  0  0  0  0  0  0  0  0  0  0
    3.6860    7.5070   16.5460 H   0  0  0  0  0  0  0  0  0  0  0  0
    1.9510    9.2420   17.3950 O   0  0  0  0  0  0  0  0  0  0  0  0
    1.9130    8.5470   18.4020 C   0  0  0  0  0  0  0  0  0  0  0  0
    1.1860    8.8770   19.5260 N   0  0  0  0  0  0  0  0  0  0  0  0
    1.3740    8.3860   20.3920 H   0  0  0  0  0  0  0  0  0  0  0  0
    0.4980   10.1530   19.6380 C   0  0  0  0  0  0  0  0  0  0  0  0
    0.5250   10.6170   18.6450 H   0  0  0  0  0  0  0  0  0  0  0  0
   -0.5590    9.9510   19.8490 H   0  0  0  0  0  0  0  0  0  0  0  0
    1.0580   11.1070   20.7110 C   0  0  1  0  0  0  0  0  0  0  0  0
    1.0460   12.5780   20.2970 C   0  0  0  0  0  0  0  0  0  0  0  0
   -0.2850   13.0490   20.0630 O   0  0  0  0  0  0  0  0  0  0  0  0
   -1.1110   12.7040   21.1010 C   0  0  0  0  0  0  0  0  0  0  0  0
   -2.3110   13.4040   21.2080 C   0  0  0  0  0  0  0  0  0  0  0  0
   -3.1950   13.1120   22.2490 C   0  0  0  0  0  0  0  0  0  0  0  0
   -2.8800   12.1160   23.1750 C   0  0  0  0  0  0  0  0  0  0  0  0
   -1.6840   11.4050   23.0570 C   0  0  0  0  0  0  0  0  0  0  0  0
   -0.8060   11.6900   22.0130 C   0  0  0  0  0  0  0  0  0  0  0  0
    0.3290   10.9250   21.9420 O   0  0  0  0  0  0  0  0  0  0  0  0
    2.0950   10.8310   20.9320 H   0  0  0  0  0  0  0  0  0  0  0  0
    1.4980   13.2050   21.0770 H   0  0  0  0  0  0  0  0  0  0  0  0
    1.6230   12.7350   19.3810 H   0  0  0  0  0  0  0  0  0  0  0  0
   -2.5520   14.1820   20.4900 H   0  0  0  0  0  0  0  0  0  0  0  0
   -4.1280   13.6620   22.3380 H   0  0  0  0  0  0  0  0  0  0  0  0
   -3.5670   11.8910   23.9870 H   0  0  0  0  0  0  0  0  0  0  0  0
   -1.4430   10.6240   23.7720 H   0  0  0  0  0  0  0  0  0  0  0  0
    5.3320    5.2050   16.2210 S   0  0  0  0  0  0  0  0  0  0  0  0
    4.9290    5.9620   15.0550 O   0  0  0  0  0  0  0  0  0  0  0  0
    5.4110    3.7610   16.1880 O   0  0  0  0  0  0  0  0  0  0  0  0
    6.8500    5.7920   16.7350 N   0  0  0  0  0  0  0  0  0  0  0  0
    6.8390    7.1780   17.3130 C   0  0  0  0  0  0  0  0  0  0  0  0
    8.0940    7.4170   18.1590 C   0  0  0  0  0  0  0  0  0  0  0  0
    8.1760    6.5470   19.2950 O   0  0  0  0  0  0  0  0  0  0  0  0
    7.5600    5.2680   19.0770 C   0  0  0  0  0  0  0  0  0  0  0  0
    7.6010    4.8270   17.6110 C   0  0  0  0  0  0  0  0  0  0  0  0
    6.8150    7.9020   16.4920 H   0  0  0  0  0  0  0  0  0  0  0  0
    5.9530    7.3190   17.9410 H   0  0  0  0  0  0  0  0  0  0  0  0
    9.0000    7.2740   17.5580 H   0  0  0  0  0  0  0  0  0  0  0  0
    8.1080    8.4450   18.5320 H   0  0  0  0  0  0  0  0  0  0  0  0
    8.0860    4.5430   19.7040 H   0  0  0  0  0  0  0  0  0  0  0  0
    6.5270    5.3260   19.4370 H   0  0  0  0  0  0  0  0  0  0  0  0
    7.2060    3.8110   17.5180 H   0  0  0  0  0  0  0  0  0  0  0  0
    8.6350    4.8040   17.2490 H   0  0  0  0  0  0  0  0  0  0  0  0
  1  2  1  0  0  0  0
  2  3  2  0  0  0  0
  2  7  1  0  0  0  0
  3  8  1  0  0  0  0
  4  9  1  0  0  0  0
  4  3  1  0  0  0  0
  5  4  2  0  0  0  0
  6  5  1  0  0  0  0
  6  1  2  0  0  0  0
 10  6  1  0  0  0  0
 11 12  2  0  0  0  0
 12  1  1  0  0  0  0
 12 13  1  0  0  0  0
 13 15  1  0  0  0  0
 13 14  1  0  0  0  0
 15 17  1  0  0  0  0
 15 18  1  0  0  0  0
 16 15  1  0  0  0  0
 18 28  1  1  0  0  0
 18 27  1  0  0  0  0
 19 18  1  0  0  0  0
 19 29  1  0  0  0  0
 20 19  1  0  0  0  0
 20 21  1  0  0  0  0
 21 22  2  0  0  0  0
 21 26  1  0  0  0  0
 22 23  1  0  0  0  0
 23 32  1  0  0  0  0
 23 24  2  0  0  0  0
 24 33  1  0  0  0  0
 25 24  1  0  0  0  0
 25 34  1  0  0  0  0
 26 25  2  0  0  0  0
 27 26  1  0  0  0  0
 30 19  1  0  0  0  0
 31 22  1  0  0  0  0
 35 38  1  0  0  0  0
 35  5  1  0  0  0  0
 36 35  2  0  0  0  0
 37 35  2  0  0  0  0
 38 39  1  0  0  0  0
 38 43  1  0  0  0  0
 39 45  1  0  0  0  0
 39 40  1  0  0  0  0
 40 47  1  0  0  0  0
 40 41  1  0  0  0  0
 42 41  1  0  0  0  0
 42 49  1  0  0  0  0
 42 48  1  0  0  0  0
 43 42  1  0  0  0  0
 44 39  1  0  0  0  0
 46 40  1  0  0  0  0
 50 43  1  0  0  0  0
 51 43  1  0  0  0  0
M  END
>  <MODEL>
27

>  <REMARK>
 VINA RESULT:    -7.895      3.394      9.074
 INTER + INTRA:         -10.284
 INTER:                  -9.846
 INTRA:                  -0.438
 UNBOUND:                -0.080
  Name = 
  5 active torsions:
  status: ('A' for Active; 'I' for Inactive)
    1  A    between atoms: C_2  and  C_15
    2  A    between atoms: N_3  and  C_4
    3  A    between atoms: C_4  and  C_5
    4  A    between atoms: C_19  and  S_20
    5  A    between atoms: S_20  and  N_23
                            x       y       z     vdW  Elec       q    Type
                         _______ _______ _______ _____ _____    ______ ____

>  <TORSDO>
F 5

$$$$
=
 OpenBabel07192307433D

 51 54  0  0  1  0  0  0  0  0999 V2000
    2.0510    5.9680   20.1590 C   0  0  0  0  0  0  0  0  0  0  0  0
    1.7450    5.1270   21.2390 C   0  0  0  0  0  0  0  0  0  0  0  0
    1.9960    3.7540   21.1640 C   0  0  0  0  0  0  0  0  0  0  0  0
    2.5680    3.2130   20.0150 C   0  0  0  0  0  0  0  0  0  0  0  0
    2.8990    4.0580   18.9510 C   0  0  0  0  0  0  0  0  0  0  0  0
    2.6420    5.4320   19.0100 C   0  0  0  0  0  0  0  0  0  0  0  0
    1.2990    5.5420   22.1420 H   0  0  0  0  0  0  0  0  0  0  0  0
    1.7420    3.1100   22.0030 H   0  0  0  0  0  0  0  0  0  0  0  0
    2.7560    2.1420   19.9580 H   0  0  0  0  0  0  0  0  0  0  0  0
    2.9270    6.0650   18.1750 H   0  0  0  0  0  0  0  0  0  0  0  0
    1.9080    8.1650   19.3280 O   0  0  0  0  0  0  0  0  0  0  0  0
    1.7640    7.4220   20.2900 C   0  0  0  0  0  0  0  0  0  0  0  0
    1.3530    7.8580   21.5320 N   0  0  0  0  0  0  0  0  0  0  0  0
    1.4700    7.2450   22.3290 H   0  0  0  0  0  0  0  0  0  0  0  0
    1.1740    9.2730   21.8190 C   0  0  0  0  0  0  0  0  0  0  0  0
    1.7840    9.4980   22.7010 H   0  0  0  0  0  0  0  0  0  0  0  0
    1.6110    9.8450   20.9920 H   0  0  0  0  0  0  0  0  0  0  0  0
   -0.2870    9.7170   22.0280 C   0  0  1  0  0  0  0  0  0  0  0  0
   -0.4300   11.1450   22.5530 C   0  0  0  0  0  0  0  0  0  0  0  0
    0.1040   12.1010   21.6310 O   0  0  0  0  0  0  0  0  0  0  0  0
   -0.3670   11.8700   20.3650 C   0  0  0  0  0  0  0  0  0  0  0  0
   -0.2560   12.9170   19.4520 C   0  0  0  0  0  0  0  0  0  0  0  0
   -0.7260   12.7540   18.1480 C   0  0  0  0  0  0  0  0  0  0  0  0
   -1.3020   11.5430   17.7580 C   0  0  0  0  0  0  0  0  0  0  0  0
   -1.3990   10.4900   18.6700 C   0  0  0  0  0  0  0  0  0  0  0  0
   -0.9200   10.6490   19.9690 C   0  0  0  0  0  0  0  0  0  0  0  0
   -1.0180    9.5590   20.7950 O   0  0  0  0  0  0  0  0  0  0  0  0
   -0.7670    9.0470   22.7500 H   0  0  0  0  0  0  0  0  0  0  0  0
   -1.4850   11.3920   22.7280 H   0  0  0  0  0  0  0  0  0  0  0  0
    0.0940   11.2700   23.5050 H   0  0  0  0  0  0  0  0  0  0  0  0
    0.1870   13.8600   19.7580 H   0  0  0  0  0  0  0  0  0  0  0  0
   -0.6460   13.5720   17.4360 H   0  0  0  0  0  0  0  0  0  0  0  0
   -1.6720   11.4180   16.7440 H   0  0  0  0  0  0  0  0  0  0  0  0
   -1.8380    9.5450   18.3640 H   0  0  0  0  0  0  0  0  0  0  0  0
    3.6370    3.3960   17.4800 S   0  0  0  0  0  0  0  0  0  0  0  0
    2.6280    3.4440   16.4440 O   0  0  0  0  0  0  0  0  0  0  0  0
    4.3140    2.1610   17.8120 O   0  0  0  0  0  0  0  0  0  0  0  0
    4.8330    4.5560   17.1110 N   0  0  0  0  0  0  0  0  0  0  0  0
    6.1070    4.4360   17.9000 C   0  0  0  0  0  0  0  0  0  0  0  0
    7.2480    5.1720   17.1890 C   0  0  0  0  0  0  0  0  0  0  0  0
    7.5590    4.6140   15.9060 O   0  0  0  0  0  0  0  0  0  0  0  0
    6.4230    4.0280   15.2520 C   0  0  0  0  0  0  0  0  0  0  0  0
    5.1000    4.6950   15.6380 C   0  0  0  0  0  0  0  0  0  0  0  0
    5.9520    4.8810   18.8880 H   0  0  0  0  0  0  0  0  0  0  0  0
    6.3800    3.3830   18.0190 H   0  0  0  0  0  0  0  0  0  0  0  0
    6.9990    6.2300   17.0470 H   0  0  0  0  0  0  0  0  0  0  0  0
    8.1590    5.1280   17.7940 H   0  0  0  0  0  0  0  0  0  0  0  0
    6.5880    4.1140   14.1740 H   0  0  0  0  0  0  0  0  0  0  0  0
    6.4070    2.9610   15.4970 H   0  0  0  0  0  0  0  0  0  0  0  0
    4.2840    4.2760   15.0420 H   0  0  0  0  0  0  0  0  0  0  0  0
    5.1370    5.7690   15.4190 H   0  0  0  0  0  0  0  0  0  0  0  0
  1 12  1  0  0  0  0
  1  2  1  0  0  0  0
  2  7  1  0  0  0  0
  3  2  2  0  0  0  0
  3  8  1  0  0  0  0
  4  3  1  0  0  0  0
  5  6  1  0  0  0  0
  5  4  2  0  0  0  0
  6  1  2  0  0  0  0
  9  4  1  0  0  0  0
 10  6  1  0  0  0  0
 11 12  2  0  0  0  0
 12 13  1  0  0  0  0
 13 15  1  0  0  0  0
 13 14  1  0  0  0  0
 15 18  1  0  0  0  0
 15 16  1  0  0  0  0
 17 15  1  0  0  0  0
 18 19  1  0  0  0  0
 18 28  1  1  0  0  0
 19 29  1  0  0  0  0
 19 30  1  0  0  0  0
 20 19  1  0  0  0  0
 21 20  1  0  0  0  0
 22 31  1  0  0  0  0
 22 21  2  0  0  0  0
 23 22  1  0  0  0  0
 24 23  2  0  0  0  0
 24 25  1  0  0  0  0
 25 26  2  0  0  0  0
 26 21  1  0  0  0  0
 26 27  1  0  0  0  0
 27 18  1  0  0  0  0
 32 23  1  0  0  0  0
 33 24  1  0  0  0  0
 34 25  1  0  0  0  0
 35 37  2  0  0  0  0
 35  5  1  0  0  0  0
 36 35  2  0  0  0  0
 38 35  1  0  0  0  0
 38 39  1  0  0  0  0
 39 45  1  0  0  0  0
 39 44  1  0  0  0  0
 40 47  1  0  0  0  0
 40 39  1  0  0  0  0
 41 40  1  0  0  0  0
 42 49  1  0  0  0  0
 42 43  1  0  0  0  0
 42 41  1  0  0  0  0
 43 38  1  0  0  0  0
 46 40  1  0  0  0  0
 48 42  1  0  0  0  0
 50 43  1  0  0  0  0
 51 43  1  0  0  0  0
M  END
>  <MODEL>
28

>  <REMARK>
 VINA RESULT:    -7.852      3.021      8.770
 INTER + INTRA:         -10.227
 INTER:                  -9.360
 INTRA:                  -0.867
 UNBOUND:                -0.080
  Name = 
  5 active torsions:
  status: ('A' for Active; 'I' for Inactive)
    1  A    between atoms: C_2  and  C_15
    2  A    between atoms: N_3  and  C_4
    3  A    between atoms: C_4  and  C_5
    4  A    between atoms: C_19  and  S_20
    5  A    between atoms: S_20  and  N_23
                            x       y       z     vdW  Elec       q    Type
                         _______ _______ _______ _____ _____    ______ ____

>  <TORSDO>
F 5

$$$$
=
 OpenBabel07192307433D

 51 54  0  0  1  0  0  0  0  0999 V2000
    0.7080    9.0050   20.9810 C   0  0  0  0  0  0  0  0  0  0  0  0
    0.2990    9.0250   22.3210 C   0  0  0  0  0  0  0  0  0  0  0  0
   -0.5550   10.0270   22.7900 C   0  0  0  0  0  0  0  0  0  0  0  0
   -1.0190   11.0100   21.9180 C   0  0  0  0  0  0  0  0  0  0  0  0
   -0.6320   10.9720   20.5740 C   0  0  0  0  0  0  0  0  0  0  0  0
    0.2320    9.9790   20.0970 C   0  0  0  0  0  0  0  0  0  0  0  0
    0.6550    8.2590   23.0100 H   0  0  0  0  0  0  0  0  0  0  0  0
   -0.8550   10.0400   23.8350 H   0  0  0  0  0  0  0  0  0  0  0  0
   -1.6780   11.7940   22.2880 H   0  0  0  0  0  0  0  0  0  0  0  0
    0.4990    9.9660   19.0440 H   0  0  0  0  0  0  0  0  0  0  0  0
    1.9650    7.0440   21.3210 O   0  0  0  0  0  0  0  0  0  0  0  0
    1.6180    7.9170   20.5340 C   0  0  0  0  0  0  0  0  0  0  0  0
    2.0410    7.9680   19.2220 N   0  0  0  0  0  0  0  0  0  0  0  0
    1.9050    8.8220   18.6980 H   0  0  0  0  0  0  0  0  0  0  0  0
    3.0360    7.0400   18.7090 C   0  0  0  0  0  0  0  0  0  0  0  0
    3.7440    7.6290   18.1160 H   0  0  0  0  0  0  0  0  0  0  0  0
    3.6060    6.6470   19.5600 H   0  0  0  0  0  0  0  0  0  0  0  0
    2.4720    5.8630   17.8890 C   0  0  1  0  0  0  0  0  0  0  0  0
    3.5250    4.8380   17.4730 C   0  0  0  0  0  0  0  0  0  0  0  0
    4.1360    4.2180   18.6090 O   0  0  0  0  0  0  0  0  0  0  0  0
    3.1840    3.7840   19.4950 C   0  0  0  0  0  0  0  0  0  0  0  0
    3.5870    2.8400   20.4380 C   0  0  0  0  0  0  0  0  0  0  0  0
    2.6660    2.3470   21.3630 C   0  0  0  0  0  0  0  0  0  0  0  0
    1.3470    2.8020   21.3490 C   0  0  0  0  0  0  0  0  0  0  0  0
    0.9490    3.7600   20.4140 C   0  0  0  0  0  0  0  0  0  0  0  0
    1.8700    4.2600   19.4960 C   0  0  0  0  0  0  0  0  0  0  0  0
    1.4140    5.2240   18.6340 O   0  0  0  0  0  0  0  0  0  0  0  0
    2.0040    6.2510   16.9770 H   0  0  0  0  0  0  0  0  0  0  0  0
    3.0770    4.0490   16.8530 H   0  0  0  0  0  0  0  0  0  0  0  0
    4.3170    5.3040   16.8800 H   0  0  0  0  0  0  0  0  0  0  0  0
    4.6120    2.4820   20.4440 H   0  0  0  0  0  0  0  0  0  0  0  0
    2.9770    1.6050   22.0950 H   0  0  0  0  0  0  0  0  0  0  0  0
    0.6290    2.4150   22.0670 H   0  0  0  0  0  0  0  0  0  0  0  0
   -0.0750    4.1220   20.4080 H   0  0  0  0  0  0  0  0  0  0  0  0
   -1.2150   12.2050   19.4410 S   0  0  0  0  0  0  0  0  0  0  0  0
   -2.4530   12.7240   19.9840 O   0  0  0  0  0  0  0  0  0  0  0  0
   -1.1490   11.6740   18.0970 O   0  0  0  0  0  0  0  0  0  0  0  0
   -0.0260   13.4220   19.5730 N   0  0  0  0  0  0  0  0  0  0  0  0
    0.6840   13.4830   20.8950 C   0  0  0  0  0  0  0  0  0  0  0  0
    2.0080   14.2430   20.7580 C   0  0  0  0  0  0  0  0  0  0  0  0
    2.9340   13.5980   19.8740 O   0  0  0  0  0  0  0  0  0  0  0  0
    2.2940   12.8600   18.8210 C   0  0  0  0  0  0  0  0  0  0  0  0
    0.9380   13.4470   18.4190 C   0  0  0  0  0  0  0  0  0  0  0  0
    0.0440   14.0020   21.6150 H   0  0  0  0  0  0  0  0  0  0  0  0
    0.8890   12.4720   21.2610 H   0  0  0  0  0  0  0  0  0  0  0  0
    1.8360   15.2590   20.3840 H   0  0  0  0  0  0  0  0  0  0  0  0
    2.4940   14.3320   21.7340 H   0  0  0  0  0  0  0  0  0  0  0  0
    2.9740   12.8600   17.9650 H   0  0  0  0  0  0  0  0  0  0  0  0
    2.1850   11.8220   19.1550 H   0  0  0  0  0  0  0  0  0  0  0  0
    0.5410   12.9070   17.5540 H   0  0  0  0  0  0  0  0  0  0  0  0
    1.0510   14.4960   18.1180 H   0  0  0  0  0  0  0  0  0  0  0  0
  1  2  1  0  0  0  0
  2  3  2  0  0  0  0
  2  7  1  0  0  0  0
  3  8  1  0  0  0  0
  4  9  1  0  0  0  0
  4  3  1  0  0  0  0
  5  4  2  0  0  0  0
  6  5  1  0  0  0  0
  6  1  2  0  0  0  0
 10  6  1  0  0  0  0
 12  1  1  0  0  0  0
 12 11  2  0  0  0  0
 13 12  1  0  0  0  0
 14 13  1  0  0  0  0
 15 13  1  0  0  0  0
 15 17  1  0  0  0  0
 16 15  1  0  0  0  0
 18 28  1  6  0  0  0
 18 27  1  0  0  0  0
 18 15  1  0  0  0  0
 19 18  1  0  0  0  0
 19 20  1  0  0  0  0
 20 21  1  0  0  0  0
 21 26  2  0  0  0  0
 21 22  1  0  0  0  0
 22 31  1  0  0  0  0
 22 23  2  0  0  0  0
 23 32  1  0  0  0  0
 24 23  1  0  0  0  0
 24 33  1  0  0  0  0
 25 24  2  0  0  0  0
 26 25  1  0  0  0  0
 27 26  1  0  0  0  0
 29 19  1  0  0  0  0
 30 19  1  0  0  0  0
 34 25  1  0  0  0  0
 35 38  1  0  0  0  0
 35 36  2  0  0  0  0
 35  5  1  0  0  0  0
 37 35  2  0  0  0  0
 38 39  1  0  0  0  0
 39 45  1  0  0  0  0
 39 44  1  0  0  0  0
 40 39  1  0  0  0  0
 40 47  1  0  0  0  0
 41 40  1  0  0  0  0
 42 49  1  0  0  0  0
 42 41  1  0  0  0  0
 43 42  1  0  0  0  0
 43 38  1  0  0  0  0
 46 40  1  0  0  0  0
 48 42  1  0  0  0  0
 50 43  1  0  0  0  0
 51 43  1  0  0  0  0
M  END
>  <MODEL>
29

>  <REMARK>
 VINA RESULT:    -7.730      2.237      3.286
 INTER + INTRA:         -10.070
 INTER:                  -9.460
 INTRA:                  -0.609
 UNBOUND:                -0.080
  Name = 
  5 active torsions:
  status: ('A' for Active; 'I' for Inactive)
    1  A    between atoms: C_2  and  C_15
    2  A    between atoms: N_3  and  C_4
    3  A    between atoms: C_4  and  C_5
    4  A    between atoms: C_19  and  S_20
    5  A    between atoms: S_20  and  N_23
                            x       y       z     vdW  Elec       q    Type
                         _______ _______ _______ _____ _____    ______ ____

>  <TORSDO>
F 5

$$$$
=
 OpenBabel07192307433D

 51 54  0  0  1  0  0  0  0  0999 V2000
    1.9040    5.8520   20.0410 C   0  0  0  0  0  0  0  0  0  0  0  0
    0.9350    5.1000   20.7190 C   0  0  0  0  0  0  0  0  0  0  0  0
    0.9730    3.7030   20.6950 C   0  0  0  0  0  0  0  0  0  0  0  0
    1.9900    3.0460   20.0040 C   0  0  0  0  0  0  0  0  0  0  0  0
    2.9720    3.7990   19.3530 C   0  0  0  0  0  0  0  0  0  0  0  0
    2.9370    5.1980   19.3610 C   0  0  0  0  0  0  0  0  0  0  0  0
    0.1370    5.6050   21.2630 H   0  0  0  0  0  0  0  0  0  0  0  0
    0.2080    3.1300   21.2130 H   0  0  0  0  0  0  0  0  0  0  0  0
    2.0120    1.9580   19.9810 H   0  0  0  0  0  0  0  0  0  0  0  0
    3.7250    5.7540   18.8610 H   0  0  0  0  0  0  0  0  0  0  0  0
    2.4080    8.0180   19.2700 O   0  0  0  0  0  0  0  0  0  0  0  0
    1.8170    7.3360   20.0980 C   0  0  0  0  0  0  0  0  0  0  0  0
    1.0650    7.8690   21.1240 N   0  0  0  0  0  0  0  0  0  0  0  0
    0.7960    7.2710   21.8940 H   0  0  0  0  0  0  0  0  0  0  0  0
    1.0170    9.3020   21.3640 C   0  0  0  0  0  0  0  0  0  0  0  0
    0.8410    9.4390   22.4370 H   0  0  0  0  0  0  0  0  0  0  0  0
    2.0130    9.7140   21.1640 H   0  0  0  0  0  0  0  0  0  0  0  0
   -0.0270   10.0700   20.5300 C   0  0  1  0  0  0  0  0  0  0  0  0
   -0.6620   11.2480   21.2660 C   0  0  0  0  0  0  0  0  0  0  0  0
    0.3110   12.2380   21.6160 O   0  0  0  0  0  0  0  0  0  0  0  0
    1.0960   12.5500   20.5360 C   0  0  0  0  0  0  0  0  0  0  0  0
    1.8130   13.7420   20.6030 C   0  0  0  0  0  0  0  0  0  0  0  0
    2.6240   14.1270   19.5340 C   0  0  0  0  0  0  0  0  0  0  0  0
    2.7200   13.3150   18.4020 C   0  0  0  0  0  0  0  0  0  0  0  0
    2.0120   12.1130   18.3430 C   0  0  0  0  0  0  0  0  0  0  0  0
    1.2110   11.7240   19.4140 C   0  0  0  0  0  0  0  0  0  0  0  0
    0.5770   10.5140   19.2970 O   0  0  0  0  0  0  0  0  0  0  0  0
   -0.8310    9.3850   20.2400 H   0  0  0  0  0  0  0  0  0  0  0  0
   -1.4290   11.7290   20.6440 H   0  0  0  0  0  0  0  0  0  0  0  0
   -1.1510   10.9200   22.1880 H   0  0  0  0  0  0  0  0  0  0  0  0
    1.7330   14.3760   21.4820 H   0  0  0  0  0  0  0  0  0  0  0  0
    3.1790   15.0600   19.5820 H   0  0  0  0  0  0  0  0  0  0  0  0
    3.3480   13.6170   17.5680 H   0  0  0  0  0  0  0  0  0  0  0  0
    2.0940   11.4760   17.4660 H   0  0  0  0  0  0  0  0  0  0  0  0
    4.2830    2.9880   18.4740 S   0  0  0  0  0  0  0  0  0  0  0  0
    3.6610    2.1160   17.5010 O   0  0  0  0  0  0  0  0  0  0  0  0
    5.2430    2.4820   19.4310 O   0  0  0  0  0  0  0  0  0  0  0  0
    5.0210    4.2780   17.6360 N   0  0  0  0  0  0  0  0  0  0  0  0
    6.4450    4.5610   18.0210 C   0  0  0  0  0  0  0  0  0  0  0  0
    7.1470    5.3700   16.9250 C   0  0  0  0  0  0  0  0  0  0  0  0
    7.2370    4.6640   15.6810 O   0  0  0  0  0  0  0  0  0  0  0  0
    6.1480    3.7530   15.4640 C   0  0  0  0  0  0  0  0  0  0  0  0
    4.8500    4.2000   16.1440 C   0  0  0  0  0  0  0  0  0  0  0  0
    6.4500    5.1370   18.9520 H   0  0  0  0  0  0  0  0  0  0  0  0
    6.9880    3.6230   18.1760 H   0  0  0  0  0  0  0  0  0  0  0  0
    6.6190    6.3130   16.7400 H   0  0  0  0  0  0  0  0  0  0  0  0
    8.1650    5.6200   17.2340 H   0  0  0  0  0  0  0  0  0  0  0  0
    6.0000    3.6740   14.3840 H   0  0  0  0  0  0  0  0  0  0  0  0
    6.4570    2.7660   15.8270 H   0  0  0  0  0  0  0  0  0  0  0  0
    4.0350    3.5250   15.8690 H   0  0  0  0  0  0  0  0  0  0  0  0
    4.5660    5.2020   15.8010 H   0  0  0  0  0  0  0  0  0  0  0  0
  1 12  1  0  0  0  0
  1  2  1  0  0  0  0
  2  7  1  0  0  0  0
  3  2  2  0  0  0  0
  3  8  1  0  0  0  0
  4  3  1  0  0  0  0
  5  6  1  0  0  0  0
  5  4  2  0  0  0  0
  6  1  2  0  0  0  0
  9  4  1  0  0  0  0
 10  6  1  0  0  0  0
 11 12  2  0  0  0  0
 12 13  1  0  0  0  0
 13 15  1  0  0  0  0
 13 14  1  0  0  0  0
 15 16  1  0  0  0  0
 17 15  1  0  0  0  0
 18 28  1  6  0  0  0
 18 19  1  0  0  0  0
 18 15  1  0  0  0  0
 19 20  1  0  0  0  0
 19 30  1  0  0  0  0
 21 22  1  0  0  0  0
 21 20  1  0  0  0  0
 22 31  1  0  0  0  0
 23 32  1  0  0  0  0
 23 22  2  0  0  0  0
 24 23  1  0  0  0  0
 25 24  2  0  0  0  0
 25 26  1  0  0  0  0
 26 21  2  0  0  0  0
 27 26  1  0  0  0  0
 27 18  1  0  0  0  0
 29 19  1  0  0  0  0
 33 24  1  0  0  0  0
 34 25  1  0  0  0  0
 35  5  1  0  0  0  0
 35 37  2  0  0  0  0
 36 35  2  0  0  0  0
 38 39  1  0  0  0  0
 38 35  1  0  0  0  0
 39 45  1  0  0  0  0
 39 44  1  0  0  0  0
 40 47  1  0  0  0  0
 40 39  1  0  0  0  0
 41 40  1  0  0  0  0
 42 41  1  0  0  0  0
 42 49  1  0  0  0  0
 42 43  1  0  0  0  0
 43 38  1  0  0  0  0
 46 40  1  0  0  0  0
 48 42  1  0  0  0  0
 50 43  1  0  0  0  0
 51 43  1  0  0  0  0
M  END
>  <MODEL>
30

>  <REMARK>
 VINA RESULT:    -7.717      3.372      8.954
 INTER + INTRA:         -10.053
 INTER:                  -9.367
 INTRA:                  -0.686
 UNBOUND:                -0.080
  Name = 
  5 active torsions:
  status: ('A' for Active; 'I' for Inactive)
    1  A    between atoms: C_2  and  C_15
    2  A    between atoms: N_3  and  C_4
    3  A    between atoms: C_4  and  C_5
    4  A    between atoms: C_19  and  S_20
    5  A    between atoms: S_20  and  N_23
                            x       y       z     vdW  Elec       q    Type
                         _______ _______ _______ _____ _____    ______ ____

>  <TORSDO>
F 5

$$$$
=
 OpenBabel07192307433D

 51 54  0  0  1  0  0  0  0  0999 V2000
    2.0590    7.0630   19.3400 C   0  0  0  0  0  0  0  0  0  0  0  0
    2.8160    7.0700   18.1610 C   0  0  0  0  0  0  0  0  0  0  0  0
    2.9290    8.2340   17.3950 C   0  0  0  0  0  0  0  0  0  0  0  0
    2.2960    9.4040   17.8100 C   0  0  0  0  0  0  0  0  0  0  0  0
    1.5650    9.4020   19.0020 C   0  0  0  0  0  0  0  0  0  0  0  0
    1.4360    8.2400   19.7710 C   0  0  0  0  0  0  0  0  0  0  0  0
    3.3150    6.1600   17.8300 H   0  0  0  0  0  0  0  0  0  0  0  0
    3.5080    8.2230   16.4740 H   0  0  0  0  0  0  0  0  0  0  0  0
    2.3800   10.3060   17.2060 H   0  0  0  0  0  0  0  0  0  0  0  0
    0.8770    8.2750   20.7010 H   0  0  0  0  0  0  0  0  0  0  0  0
    1.7360    5.8310   21.3200 O   0  0  0  0  0  0  0  0  0  0  0  0
    1.9710    5.7980   20.1180 C   0  0  0  0  0  0  0  0  0  0  0  0
    2.1820    4.6290   19.4180 N   0  0  0  0  0  0  0  0  0  0  0  0
    2.5890    4.6800   18.4920 H   0  0  0  0  0  0  0  0  0  0  0  0
    2.2560    3.3430   20.0920 C   0  0  0  0  0  0  0  0  0  0  0  0
    2.1410    3.5380   21.1640 H   0  0  0  0  0  0  0  0  0  0  0  0
    1.3810    2.7520   19.7950 H   0  0  0  0  0  0  0  0  0  0  0  0
    3.5360    2.5300   19.8110 C   0  0  1  0  0  0  0  0  0  0  0  0
    3.5170    1.7870   18.4770 C   0  0  0  0  0  0  0  0  0  0  0  0
    3.4190    2.6900   17.3710 O   0  0  0  0  0  0  0  0  0  0  0  0
    4.3370    3.7010   17.4880 C   0  0  0  0  0  0  0  0  0  0  0  0
    4.6280    4.4230   16.3330 C   0  0  0  0  0  0  0  0  0  0  0  0
    5.5630    5.4590   16.3780 C   0  0  0  0  0  0  0  0  0  0  0  0
    6.1990    5.7750   17.5790 C   0  0  0  0  0  0  0  0  0  0  0  0
    5.8950    5.0610   18.7400 C   0  0  0  0  0  0  0  0  0  0  0  0
    4.9550    4.0330   18.6970 C   0  0  0  0  0  0  0  0  0  0  0  0
    4.6830    3.4030   19.8840 O   0  0  0  0  0  0  0  0  0  0  0  0
    3.6730    1.7890   20.6060 H   0  0  0  0  0  0  0  0  0  0  0  0
    4.4290    1.1890   18.3510 H   0  0  0  0  0  0  0  0  0  0  0  0
    2.6680    1.0980   18.4220 H   0  0  0  0  0  0  0  0  0  0  0  0
    4.1370    4.1720   15.3970 H   0  0  0  0  0  0  0  0  0  0  0  0
    5.7960    6.0180   15.4750 H   0  0  0  0  0  0  0  0  0  0  0  0
    6.9290    6.5790   17.6130 H   0  0  0  0  0  0  0  0  0  0  0  0
    6.3830    5.3130   19.6770 H   0  0  0  0  0  0  0  0  0  0  0  0
    0.7590   10.8800   19.5580 S   0  0  0  0  0  0  0  0  0  0  0  0
   -0.0490   11.3590   18.4560 O   0  0  0  0  0  0  0  0  0  0  0  0
    1.7360   11.7330   20.1990 O   0  0  0  0  0  0  0  0  0  0  0  0
   -0.2900   10.2970   20.7710 N   0  0  0  0  0  0  0  0  0  0  0  0
    0.3560   10.0210   22.0990 C   0  0  0  0  0  0  0  0  0  0  0  0
   -0.6980    9.9760   23.2100 C   0  0  0  0  0  0  0  0  0  0  0  0
   -1.3790   11.2250   23.3860 O   0  0  0  0  0  0  0  0  0  0  0  0
   -1.4910   11.9860   22.1740 C   0  0  0  0  0  0  0  0  0  0  0  0
   -1.5470   11.1100   20.9190 C   0  0  0  0  0  0  0  0  0  0  0  0
    0.8680    9.0550   22.0470 H   0  0  0  0  0  0  0  0  0  0  0  0
    1.0880   10.8020   22.3320 H   0  0  0  0  0  0  0  0  0  0  0  0
   -1.4510    9.2070   22.9990 H   0  0  0  0  0  0  0  0  0  0  0  0
   -0.2300    9.7210   24.1640 H   0  0  0  0  0  0  0  0  0  0  0  0
   -2.3990   12.5910   22.2520 H   0  0  0  0  0  0  0  0  0  0  0  0
   -0.6400   12.6750   22.1290 H   0  0  0  0  0  0  0  0  0  0  0  0
   -1.7280   11.7320   20.0380 H   0  0  0  0  0  0  0  0  0  0  0  0
   -2.3810   10.4000   20.9870 H   0  0  0  0  0  0  0  0  0  0  0  0
  1  6  1  0  0  0  0
  1 12  1  0  0  0  0
  2  1  2  0  0  0  0
  3  4  2  0  0  0  0
  3  2  1  0  0  0  0
  4  5  1  0  0  0  0
  5 35  1  0  0  0  0
  5  6  2  0  0  0  0
  6 10  1  0  0  0  0
  7  2  1  0  0  0  0
  8  3  1  0  0  0  0
  9  4  1  0  0  0  0
 12 11  2  0  0  0  0
 13 15  1  0  0  0  0
 13 12  1  0  0  0  0
 14 13  1  0  0  0  0
 15 16  1  0  0  0  0
 17 15  1  0  0  0  0
 18 27  1  0  0  0  0
 18 15  1  0  0  0  0
 18 28  1  1  0  0  0
 19 18  1  0  0  0  0
 20 21  1  0  0  0  0
 20 19  1  0  0  0  0
 21 26  1  0  0  0  0
 22 23  1  0  0  0  0
 22 21  2  0  0  0  0
 23 24  2  0  0  0  0
 24 33  1  0  0  0  0
 24 25  1  0  0  0  0
 25 34  1  0  0  0  0
 26 25  2  0  0  0  0
 26 27  1  0  0  0  0
 29 19  1  0  0  0  0
 30 19  1  0  0  0  0
 31 22  1  0  0  0  0
 32 23  1  0  0  0  0
 35 37  2  0  0  0  0
 35 38  1  0  0  0  0
 36 35  2  0  0  0  0
 38 43  1  0  0  0  0
 38 39  1  0  0  0  0
 39 45  1  0  0  0  0
 39 40  1  0  0  0  0
 40 41  1  0  0  0  0
 40 47  1  0  0  0  0
 42 48  1  0  0  0  0
 42 41  1  0  0  0  0
 43 51  1  0  0  0  0
 43 42  1  0  0  0  0
 44 39  1  0  0  0  0
 46 40  1  0  0  0  0
 49 42  1  0  0  0  0
 50 43  1  0  0  0  0
M  END
>  <MODEL>
31

>  <REMARK>
 VINA RESULT:    -7.683      2.478      4.297
 INTER + INTRA:         -10.009
 INTER:                  -9.513
 INTRA:                  -0.496
 UNBOUND:                -0.080
  Name = 
  5 active torsions:
  status: ('A' for Active; 'I' for Inactive)
    1  A    between atoms: C_2  and  C_15
    2  A    between atoms: N_3  and  C_4
    3  A    between atoms: C_4  and  C_5
    4  A    between atoms: C_19  and  S_20
    5  A    between atoms: S_20  and  N_23
                            x       y       z     vdW  Elec       q    Type
                         _______ _______ _______ _____ _____    ______ ____

>  <TORSDO>
F 5

$$$$
=
 OpenBabel07192307433D

 51 54  0  0  1  0  0  0  0  0999 V2000
    1.4500    9.1230   19.6850 C   0  0  0  0  0  0  0  0  0  0  0  0
    1.9590    9.2970   18.3910 C   0  0  0  0  0  0  0  0  0  0  0  0
    1.8460   10.5310   17.7430 C   0  0  0  0  0  0  0  0  0  0  0  0
    1.2350   11.6030   18.3900 C   0  0  0  0  0  0  0  0  0  0  0  0
    0.7540   11.4340   19.6920 C   0  0  0  0  0  0  0  0  0  0  0  0
    0.8520   10.2010   20.3460 C   0  0  0  0  0  0  0  0  0  0  0  0
    2.4390    8.4650   17.8780 H   0  0  0  0  0  0  0  0  0  0  0  0
    2.2320   10.6510   16.7330 H   0  0  0  0  0  0  0  0  0  0  0  0
    1.1420   12.5600   17.8790 H   0  0  0  0  0  0  0  0  0  0  0  0
    0.4860   10.1060   21.3640 H   0  0  0  0  0  0  0  0  0  0  0  0
    1.0650    7.5690   21.4110 O   0  0  0  0  0  0  0  0  0  0  0  0
    1.5970    7.7900   20.3290 C   0  0  0  0  0  0  0  0  0  0  0  0
    2.3600    6.8600   19.6540 N   0  0  0  0  0  0  0  0  0  0  0  0
    2.9480    7.1720   18.8920 H   0  0  0  0  0  0  0  0  0  0  0  0
    2.6870    5.5730   20.2450 C   0  0  0  0  0  0  0  0  0  0  0  0
    3.4090    5.7650   21.0470 H   0  0  0  0  0  0  0  0  0  0  0  0
    1.7860    5.1840   20.7340 H   0  0  0  0  0  0  0  0  0  0  0  0
    3.2240    4.5170   19.2580 C   0  0  1  0  0  0  0  0  0  0  0  0
    2.9850    4.8660   17.7900 C   0  0  0  0  0  0  0  0  0  0  0  0
    3.6560    6.0740   17.4190 O   0  0  0  0  0  0  0  0  0  0  0  0
    4.9640    6.0500   17.8320 C   0  0  0  0  0  0  0  0  0  0  0  0
    5.8320    6.9550   17.2240 C   0  0  0  0  0  0  0  0  0  0  0  0
    7.1790    6.9760   17.5880 C   0  0  0  0  0  0  0  0  0  0  0  0
    7.6540    6.0960   18.5630 C   0  0  0  0  0  0  0  0  0  0  0  0
    6.7800    5.2010   19.1810 C   0  0  0  0  0  0  0  0  0  0  0  0
    5.4330    5.1860   18.8250 C   0  0  0  0  0  0  0  0  0  0  0  0
    4.6300    4.3050   19.5020 O   0  0  0  0  0  0  0  0  0  0  0  0
    2.7360    3.5570   19.4570 H   0  0  0  0  0  0  0  0  0  0  0  0
    3.3440    4.0610   17.1350 H   0  0  0  0  0  0  0  0  0  0  0  0
    1.9190    4.9990   17.5850 H   0  0  0  0  0  0  0  0  0  0  0  0
    5.4620    7.6340   16.4620 H   0  0  0  0  0  0  0  0  0  0  0  0
    7.8590    7.6770   17.1100 H   0  0  0  0  0  0  0  0  0  0  0  0
    8.7040    6.1100   18.8440 H   0  0  0  0  0  0  0  0  0  0  0  0
    7.1470    4.5230   19.9470 H   0  0  0  0  0  0  0  0  0  0  0  0
   -0.0190   12.7860   20.5420 S   0  0  0  0  0  0  0  0  0  0  0  0
   -0.5700   13.6600   19.5290 O   0  0  0  0  0  0  0  0  0  0  0  0
    0.8910   13.2840   21.5510 O   0  0  0  0  0  0  0  0  0  0  0  0
   -1.3150   12.0240   21.3480 N   0  0  0  0  0  0  0  0  0  0  0  0
   -1.2950   12.1390   22.8460 C   0  0  0  0  0  0  0  0  0  0  0  0
   -2.6880   11.8660   23.4240 C   0  0  0  0  0  0  0  0  0  0  0  0
   -3.6670   12.8210   22.9960 O   0  0  0  0  0  0  0  0  0  0  0  0
   -3.4080   13.3540   21.6890 C   0  0  0  0  0  0  0  0  0  0  0  0
   -2.6630   12.3720   20.7790 C   0  0  0  0  0  0  0  0  0  0  0  0
   -0.5890   11.4050   23.2460 H   0  0  0  0  0  0  0  0  0  0  0  0
   -0.9750   13.1430   23.1430 H   0  0  0  0  0  0  0  0  0  0  0  0
   -3.0390   10.8680   23.1340 H   0  0  0  0  0  0  0  0  0  0  0  0
   -2.6550   11.8970   24.5170 H   0  0  0  0  0  0  0  0  0  0  0  0
   -4.3730   13.6180   21.2480 H   0  0  0  0  0  0  0  0  0  0  0  0
   -2.8370   14.2810   21.8100 H   0  0  0  0  0  0  0  0  0  0  0  0
   -2.5770   12.7910   19.7720 H   0  0  0  0  0  0  0  0  0  0  0  0
   -3.2250   11.4350   20.6900 H   0  0  0  0  0  0  0  0  0  0  0  0
  1 12  1  0  0  0  0
  1  6  1  0  0  0  0
  2  1  2  0  0  0  0
  3  4  2  0  0  0  0
  3  2  1  0  0  0  0
  4  5  1  0  0  0  0
  5  6  2  0  0  0  0
  5 35  1  0  0  0  0
  6 10  1  0  0  0  0
  7  2  1  0  0  0  0
  8  3  1  0  0  0  0
  9  4  1  0  0  0  0
 12 11  2  0  0  0  0
 13 15  1  0  0  0  0
 13 12  1  0  0  0  0
 14 13  1  0  0  0  0
 15 17  1  0  0  0  0
 15 16  1  0  0  0  0
 18 28  1  1  0  0  0
 18 27  1  0  0  0  0
 18 15  1  0  0  0  0
 19 18  1  0  0  0  0
 20 19  1  0  0  0  0
 20 21  1  0  0  0  0
 21 26  1  0  0  0  0
 22 23  1  0  0  0  0
 22 21  2  0  0  0  0
 23 24  2  0  0  0  0
 24 33  1  0  0  0  0
 24 25  1  0  0  0  0
 25 34  1  0  0  0  0
 26 25  2  0  0  0  0
 26 27  1  0  0  0  0
 29 19  1  0  0  0  0
 30 19  1  0  0  0  0
 31 22  1  0  0  0  0
 32 23  1  0  0  0  0
 35 38  1  0  0  0  0
 35 37  2  0  0  0  0
 36 35  2  0  0  0  0
 38 39  1  0  0  0  0
 39 45  1  0  0  0  0
 39 44  1  0  0  0  0
 39 40  1  0  0  0  0
 40 47  1  0  0  0  0
 41 40  1  0  0  0  0
 42 49  1  0  0  0  0
 42 41  1  0  0  0  0
 43 38  1  0  0  0  0
 43 42  1  0  0  0  0
 46 40  1  0  0  0  0
 48 42  1  0  0  0  0
 50 43  1  0  0  0  0
 51 43  1  0  0  0  0
M  END
>  <MODEL>
32

>  <REMARK>
 VINA RESULT:    -7.676      2.521      4.266
 INTER + INTRA:         -10.000
 INTER:                  -9.206
 INTRA:                  -0.793
 UNBOUND:                -0.080
  Name = 
  5 active torsions:
  status: ('A' for Active; 'I' for Inactive)
    1  A    between atoms: C_2  and  C_15
    2  A    between atoms: N_3  and  C_4
    3  A    between atoms: C_4  and  C_5
    4  A    between atoms: C_19  and  S_20
    5  A    between atoms: S_20  and  N_23
                            x       y       z     vdW  Elec       q    Type
                         _______ _______ _______ _____ _____    ______ ____

>  <TORSDO>
F 5

$$$$
=
 OpenBabel07192307433D

 51 54  0  0  1  0  0  0  0  0999 V2000
    2.1240    7.8070   19.0270 C   0  0  0  0  0  0  0  0  0  0  0  0
    1.6400    7.3340   20.2550 C   0  0  0  0  0  0  0  0  0  0  0  0
    2.1090    6.1300   20.7880 C   0  0  0  0  0  0  0  0  0  0  0  0
    3.0770    5.3960   20.1040 C   0  0  0  0  0  0  0  0  0  0  0  0
    3.5790    5.8850   18.8950 C   0  0  0  0  0  0  0  0  0  0  0  0
    3.1090    7.0840   18.3460 C   0  0  0  0  0  0  0  0  0  0  0  0
    0.8840    7.9020   20.7970 H   0  0  0  0  0  0  0  0  0  0  0  0
    1.7160    5.7660   21.7340 H   0  0  0  0  0  0  0  0  0  0  0  0
    3.4340    4.4550   20.5200 H   0  0  0  0  0  0  0  0  0  0  0  0
    3.5320    7.4460   17.4140 H   0  0  0  0  0  0  0  0  0  0  0  0
    2.0760    9.5950   17.4970 O   0  0  0  0  0  0  0  0  0  0  0  0
    1.5920    9.0940   18.5040 C   0  0  0  0  0  0  0  0  0  0  0  0
    0.5620    9.6690   19.2190 N   0  0  0  0  0  0  0  0  0  0  0  0
    0.3630    9.3280   20.1510 H   0  0  0  0  0  0  0  0  0  0  0  0
    0.0510   10.9890   18.8850 C   0  0  0  0  0  0  0  0  0  0  0  0
    0.3100   11.1750   17.8370 H   0  0  0  0  0  0  0  0  0  0  0  0
   -1.0440   10.9500   18.9260 H   0  0  0  0  0  0  0  0  0  0  0  0
    0.5520   12.1320   19.7900 C   0  0  1  0  0  0  0  0  0  0  0  0
   -0.0860   13.4860   19.4870 C   0  0  0  0  0  0  0  0  0  0  0  0
   -1.5020   13.4610   19.6970 O   0  0  0  0  0  0  0  0  0  0  0  0
   -1.8010   12.9080   20.9160 C   0  0  0  0  0  0  0  0  0  0  0  0
   -3.0730   13.1610   21.4250 C   0  0  0  0  0  0  0  0  0  0  0  0
   -3.4410   12.6380   22.6660 C   0  0  0  0  0  0  0  0  0  0  0  0
   -2.5380   11.8610   23.3930 C   0  0  0  0  0  0  0  0  0  0  0  0
   -1.2690   11.5960   22.8740 C   0  0  0  0  0  0  0  0  0  0  0  0
   -0.9050   12.1090   21.6310 C   0  0  0  0  0  0  0  0  0  0  0  0
    0.3430   11.7760   21.1720 O   0  0  0  0  0  0  0  0  0  0  0  0
    1.6360   12.2380   19.6680 H   0  0  0  0  0  0  0  0  0  0  0  0
    0.3410   14.2700   20.1260 H   0  0  0  0  0  0  0  0  0  0  0  0
    0.0920   13.7830   18.4490 H   0  0  0  0  0  0  0  0  0  0  0  0
   -3.7730   13.7710   20.8610 H   0  0  0  0  0  0  0  0  0  0  0  0
   -4.4310   12.8400   23.0680 H   0  0  0  0  0  0  0  0  0  0  0  0
   -2.8230   11.4570   24.3610 H   0  0  0  0  0  0  0  0  0  0  0  0
   -0.5690   10.9820   23.4340 H   0  0  0  0  0  0  0  0  0  0  0  0
    4.8190    4.9760   18.0100 S   0  0  0  0  0  0  0  0  0  0  0  0
    5.9310    4.7880   18.9170 O   0  0  0  0  0  0  0  0  0  0  0  0
    5.0050    5.5840   16.7090 O   0  0  0  0  0  0  0  0  0  0  0  0
    4.0680    3.4630   17.7690 N   0  0  0  0  0  0  0  0  0  0  0  0
    3.9790    2.5900   18.9880 C   0  0  0  0  0  0  0  0  0  0  0  0
    2.9040    1.5150   18.8010 C   0  0  0  0  0  0  0  0  0  0  0  0
    1.5880    2.0610   18.6450 O   0  0  0  0  0  0  0  0  0  0  0  0
    1.5800    3.3530   18.0170 C   0  0  0  0  0  0  0  0  0  0  0  0
    2.7500    3.5550   17.0500 C   0  0  0  0  0  0  0  0  0  0  0  0
    4.9480    2.1070   19.1470 H   0  0  0  0  0  0  0  0  0  0  0  0
    3.7310    3.1940   19.8680 H   0  0  0  0  0  0  0  0  0  0  0  0
    3.1200    0.8980   17.9210 H   0  0  0  0  0  0  0  0  0  0  0  0
    2.8810    0.8490   19.6680 H   0  0  0  0  0  0  0  0  0  0  0  0
    0.6300    3.4500   17.4850 H   0  0  0  0  0  0  0  0  0  0  0  0
    1.5930    4.1120   18.8070 H   0  0  0  0  0  0  0  0  0  0  0  0
    2.6430    4.5110   16.5310 H   0  0  0  0  0  0  0  0  0  0  0  0
    2.7490    2.7720   16.2820 H   0  0  0  0  0  0  0  0  0  0  0  0
  1  2  1  0  0  0  0
  2  3  2  0  0  0  0
  2  7  1  0  0  0  0
  3  8  1  0  0  0  0
  4  9  1  0  0  0  0
  4  3  1  0  0  0  0
  5  4  2  0  0  0  0
  6  5  1  0  0  0  0
  6  1  2  0  0  0  0
 10  6  1  0  0  0  0
 11 12  2  0  0  0  0
 12  1  1  0  0  0  0
 12 13  1  0  0  0  0
 13 14  1  0  0  0  0
 15 17  1  0  0  0  0
 15 13  1  0  0  0  0
 15 18  1  0  0  0  0
 16 15  1  0  0  0  0
 18 28  1  6  0  0  0
 18 27  1  0  0  0  0
 19 20  1  0  0  0  0
 19 18  1  0  0  0  0
 19 29  1  0  0  0  0
 20 21  1  0  0  0  0
 21 22  2  0  0  0  0
 21 26  1  0  0  0  0
 22 23  1  0  0  0  0
 23 32  1  0  0  0  0
 23 24  2  0  0  0  0
 24 33  1  0  0  0  0
 25 24  1  0  0  0  0
 25 34  1  0  0  0  0
 26 25  2  0  0  0  0
 27 26  1  0  0  0  0
 30 19  1  0  0  0  0
 31 22  1  0  0  0  0
 35  5  1  0  0  0  0
 35 36  2  0  0  0  0
 37 35  2  0  0  0  0
 38 35  1  0  0  0  0
 38 39  1  0  0  0  0
 39 44  1  0  0  0  0
 39 45  1  0  0  0  0
 40 39  1  0  0  0  0
 40 47  1  0  0  0  0
 41 40  1  0  0  0  0
 42 41  1  0  0  0  0
 42 49  1  0  0  0  0
 43 38  1  0  0  0  0
 43 42  1  0  0  0  0
 46 40  1  0  0  0  0
 48 42  1  0  0  0  0
 50 43  1  0  0  0  0
 51 43  1  0  0  0  0
M  END
>  <MODEL>
33

>  <REMARK>
 VINA RESULT:    -7.592      3.027      8.639
 INTER + INTRA:          -9.892
 INTER:                  -9.811
 INTRA:                  -0.080
 UNBOUND:                -0.080
  Name = 
  5 active torsions:
  status: ('A' for Active; 'I' for Inactive)
    1  A    between atoms: C_2  and  C_15
    2  A    between atoms: N_3  and  C_4
    3  A    between atoms: C_4  and  C_5
    4  A    between atoms: C_19  and  S_20
    5  A    between atoms: S_20  and  N_23
                            x       y       z     vdW  Elec       q    Type
                         _______ _______ _______ _____ _____    ______ ____

>  <TORSDO>
F 5

$$$$
