=
 OpenBabel07192307433D

 54 58  0  0  1  0  0  0  0  0999 V2000
    0.4100   10.2060   19.7180 C   0  0  0  0  0  0  0  0  0  0  0  0
    0.3800   10.3830   21.1060 C   0  0  0  0  0  0  0  0  0  0  0  0
    0.9640    9.4370   21.9450 C   0  0  0  0  0  0  0  0  0  0  0  0
    1.5720    8.2960   21.4120 C   0  0  0  0  0  0  0  0  0  0  0  0
    1.6190    8.0720   20.0310 C   0  0  0  0  0  0  0  0  0  0  0  0
    1.0390    9.0550   19.2050 C   0  0  0  0  0  0  0  0  0  0  0  0
    1.0600    8.9050   17.8710 F   0  0  0  0  0  0  0  0  0  0  0  0
   -0.0980   11.2520   21.5520 H   0  0  0  0  0  0  0  0  0  0  0  0
    0.9470    9.5810   23.0230 H   0  0  0  0  0  0  0  0  0  0  0  0
    2.0080    7.5940   22.1170 H   0  0  0  0  0  0  0  0  0  0  0  0
    2.2190    6.8970   19.4870 N   0  0  0  0  0  0  0  0  0  0  0  0
    3.1950    6.9520   18.4010 C   0  0  0  0  0  0  0  0  0  0  0  0
    3.5300    5.5230   18.1690 C   0  0  0  0  0  0  0  0  0  0  0  0
    2.8100    4.7160   19.0350 C   0  0  0  0  0  0  0  0  0  0  0  0
    2.9210    3.3470   19.0360 C   0  0  0  0  0  0  0  0  0  0  0  0
    3.8040    2.8360   18.1110 C   0  0  0  0  0  0  0  0  0  0  0  0
    4.5300    3.5960   17.2420 N   0  0  0  0  0  0  0  0  0  0  0  0
    4.3980    4.9500   17.2650 C   0  0  0  0  0  0  0  0  0  0  0  0
    1.9690    5.5770   19.8720 C   0  0  0  0  0  0  0  0  0  0  0  0
    1.2200    5.1150   20.7140 O   0  0  0  0  0  0  0  0  0  0  0  0
    4.0810    7.5070   18.7270 H   0  0  0  0  0  0  0  0  0  0  0  0
    2.7330    7.3870   17.5080 H   0  0  0  0  0  0  0  0  0  0  0  0
    2.3560    2.7210   19.7140 H   0  0  0  0  0  0  0  0  0  0  0  0
    3.9700    1.7640   18.0250 H   0  0  0  0  0  0  0  0  0  0  0  0
    5.2660    5.7430   16.2140 C   0  0  0  0  0  0  0  0  0  0  0  0
    6.7900    5.9390   16.4530 C   0  0  0  0  0  0  0  0  0  0  0  0
    7.0380    4.7240   15.5400 C   0  0  0  0  0  0  0  0  0  0  0  0
    5.6610    4.9980   14.9070 C   0  0  0  0  0  0  0  0  0  0  0  0
    4.7840    6.7080   15.9940 H   0  0  0  0  0  0  0  0  0  0  0  0
    7.1500    5.8410   17.4810 H   0  0  0  0  0  0  0  0  0  0  0  0
    7.1770    6.8800   16.0420 H   0  0  0  0  0  0  0  0  0  0  0  0
    7.8940    4.8040   14.8650 H   0  0  0  0  0  0  0  0  0  0  0  0
    7.0970    3.7710   16.0760 H   0  0  0  0  0  0  0  0  0  0  0  0
    5.0770    4.1090   14.6540 H   0  0  0  0  0  0  0  0  0  0  0  0
    5.7030    5.6510   14.0260 H   0  0  0  0  0  0  0  0  0  0  0  0
   -0.2590   11.1860   18.7630 C   0  0  2  0  0  0  0  0  0  0  0  0
   -0.0040   10.9000   17.7330 H   0  0  0  0  0  0  0  0  0  0  0  0
    0.2760   12.6140   18.9380 C   0  0  0  0  0  0  0  0  0  0  0  0
    1.1540   12.7850   18.3050 H   0  0  0  0  0  0  0  0  0  0  0  0
    0.5600   12.8260   19.9750 H   0  0  0  0  0  0  0  0  0  0  0  0
   -0.4870   13.3460   18.6530 H   0  0  0  0  0  0  0  0  0  0  0  0
   -1.7940   11.1670   18.9160 C   0  0  0  0  0  0  0  0  0  0  0  0
   -2.1330   12.1450   19.2820 H   0  0  0  0  0  0  0  0  0  0  0  0
   -2.1020   10.4370   19.6760 H   0  0  0  0  0  0  0  0  0  0  0  0
   -2.4880   10.9170   17.6180 C   0  0  0  0  0  0  0  0  0  0  0  0
   -1.9590   10.3260   16.5640 N   0  0  0  0  0  0  0  0  0  0  0  0
   -2.9170   10.2590   15.5800 N   0  0  0  0  0  0  0  0  0  0  0  0
   -4.0070   10.8190   16.0500 C   0  0  0  0  0  0  0  0  0  0  0  0
   -3.7840   11.2540   17.3200 N   0  0  0  0  0  0  0  0  0  0  0  0
   -4.9440   10.9260   15.5240 H   0  0  0  0  0  0  0  0  0  0  0  0
   -4.7380   11.9330   18.1530 C   0  0  0  0  0  0  0  0  0  0  0  0
   -4.8390   11.4000   19.1030 H   0  0  0  0  0  0  0  0  0  0  0  0
   -4.3810   12.9470   18.3400 H   0  0  0  0  0  0  0  0  0  0  0  0
   -5.7060   11.9490   17.6450 H   0  0  0  0  0  0  0  0  0  0  0  0
  1  2  1  0  0  0  0
  2  8  1  0  0  0  0
  2  3  2  0  0  0  0
  3  9  1  0  0  0  0
  4  3  1  0  0  0  0
  4 10  1  0  0  0  0
  5  4  2  0  0  0  0
  6  1  2  0  0  0  0
  6  5  1  0  0  0  0
  7  6  1  0  0  0  0
 11 19  1  0  0  0  0
 11  5  1  0  0  0  0
 12 21  1  0  0  0  0
 12 11  1  0  0  0  0
 13 12  1  0  0  0  0
 13 14  1  0  0  0  0
 14 15  2  0  0  0  0
 14 19  1  0  0  0  0
 15 23  1  0  0  0  0
 16 15  1  0  0  0  0
 17 18  1  0  0  0  0
 17 16  2  0  0  0  0
 18 13  2  0  0  0  0
 19 20  2  0  0  0  0
 22 12  1  0  0  0  0
 24 16  1  0  0  0  0
 25 26  1  0  0  0  0
 25 18  1  0  0  0  0
 26 30  1  0  0  0  0
 27 33  1  0  0  0  0
 27 26  1  0  0  0  0
 28 27  1  0  0  0  0
 28 25  1  0  0  0  0
 29 25  1  0  0  0  0
 31 26  1  0  0  0  0
 32 27  1  0  0  0  0
 34 28  1  0  0  0  0
 35 28  1  0  0  0  0
 36 37  1  6  0  0  0
 36 42  1  0  0  0  0
 36 38  1  0  0  0  0
 36  1  1  0  0  0  0
 38 40  1  0  0  0  0
 39 38  1  0  0  0  0
 41 38  1  0  0  0  0
 42 43  1  0  0  0  0
 42 44  1  0  0  0  0
 45 42  1  0  0  0  0
 46 45  2  0  0  0  0
 47 48  2  0  0  0  0
 47 46  1  0  0  0  0
 48 49  1  0  0  0  0
 49 45  1  0  0  0  0
 49 51  1  0  0  0  0
 50 48  1  0  0  0  0
 51 53  1  0  0  0  0
 51 52  1  0  0  0  0
 54 51  1  0  0  0  0
M  END
>  <MODEL>
1

>  <REMARK>
 VINA RESULT:    -8.199      0.000      0.000
 INTER + INTRA:         -12.181
 INTER:                 -11.430
 INTRA:                  -0.751
 UNBOUND:                -1.106
  Name = 
  7 active torsions:
  status: ('A' for Active; 'I' for Inactive)
    1  A    between atoms: C_1  and  C_2
    2  A    between atoms: C_2  and  C_3
    3  A    between atoms: C_2  and  C_10
    4  A    between atoms: C_3  and  C_4
    5  A    between atoms: N_8  and  C_9
    6  A    between atoms: C_14  and  N_15
    7  A    between atoms: C_22  and  C_23
                            x       y       z     vdW  Elec       q    Type
                         _______ _______ _______ _____ _____    ______ ____

>  <TORSDO>
F 7

$$$$
=
 OpenBabel07192307433D

 54 58  0  0  1  0  0  0  0  0999 V2000
   -0.2430   10.6310   19.6290 C   0  0  0  0  0  0  0  0  0  0  0  0
   -0.2830   10.7320   21.0240 C   0  0  0  0  0  0  0  0  0  0  0  0
    0.4580    9.8540   21.8110 C   0  0  0  0  0  0  0  0  0  0  0  0
    1.2370    8.8540   21.2170 C   0  0  0  0  0  0  0  0  0  0  0  0
    1.3000    8.7100   19.8270 C   0  0  0  0  0  0  0  0  0  0  0  0
    0.5570    9.6240   19.0550 C   0  0  0  0  0  0  0  0  0  0  0  0
    0.5840    9.5460   17.7150 F   0  0  0  0  0  0  0  0  0  0  0  0
   -0.8900   11.4880   21.5170 H   0  0  0  0  0  0  0  0  0  0  0  0
    0.4330    9.9400   22.8950 H   0  0  0  0  0  0  0  0  0  0  0  0
    1.7900    8.1990   21.8840 H   0  0  0  0  0  0  0  0  0  0  0  0
    2.0760    7.6770   19.2200 N   0  0  0  0  0  0  0  0  0  0  0  0
    1.9810    6.2820   19.6430 C   0  0  0  0  0  0  0  0  0  0  0  0
    2.9510    5.5880   18.7560 C   0  0  0  0  0  0  0  0  0  0  0  0
    3.5540    6.4980   17.9030 C   0  0  0  0  0  0  0  0  0  0  0  0
    4.4980    6.1300   16.9750 C   0  0  0  0  0  0  0  0  0  0  0  0
    4.7990    4.7850   16.9560 C   0  0  0  0  0  0  0  0  0  0  0  0
    4.2280    3.8600   17.7780 N   0  0  0  0  0  0  0  0  0  0  0  0
    3.2950    4.2550   18.6870 C   0  0  0  0  0  0  0  0  0  0  0  0
    3.0120    7.8290   18.1930 C   0  0  0  0  0  0  0  0  0  0  0  0
    3.3880    8.8180   17.5910 O   0  0  0  0  0  0  0  0  0  0  0  0
    0.9660    5.9100   19.4700 H   0  0  0  0  0  0  0  0  0  0  0  0
    2.2880    6.1890   20.6910 H   0  0  0  0  0  0  0  0  0  0  0  0
    4.9670    6.8440   16.3120 H   0  0  0  0  0  0  0  0  0  0  0  0
    5.5330    4.3850   16.2600 H   0  0  0  0  0  0  0  0  0  0  0  0
    2.7020    3.1170   19.6030 C   0  0  0  0  0  0  0  0  0  0  0  0
    1.2310    3.2050   20.0990 C   0  0  0  0  0  0  0  0  0  0  0  0
    0.8360    2.2840   18.9300 C   0  0  0  0  0  0  0  0  0  0  0  0
    2.2920    1.7850   18.9120 C   0  0  0  0  0  0  0  0  0  0  0  0
    3.3830    2.9360   20.4490 H   0  0  0  0  0  0  0  0  0  0  0  0
    0.7650    4.1940   20.1020 H   0  0  0  0  0  0  0  0  0  0  0  0
    1.0770    2.7500   21.0850 H   0  0  0  0  0  0  0  0  0  0  0  0
    0.0780    1.5280   19.1560 H   0  0  0  0  0  0  0  0  0  0  0  0
    0.5400    2.8210   18.0220 H   0  0  0  0  0  0  0  0  0  0  0  0
    2.7110    1.6000   17.9200 H   0  0  0  0  0  0  0  0  0  0  0  0
    2.4630    0.8980   19.5350 H   0  0  0  0  0  0  0  0  0  0  0  0
   -1.0760   11.5350   18.7290 C   0  0  2  0  0  0  0  0  0  0  0  0
   -0.6070   11.5670   17.7350 H   0  0  0  0  0  0  0  0  0  0  0  0
   -1.0870   12.9870   19.2260 C   0  0  0  0  0  0  0  0  0  0  0  0
   -0.6420   13.0640   20.2250 H   0  0  0  0  0  0  0  0  0  0  0  0
   -2.1000   13.4000   19.2750 H   0  0  0  0  0  0  0  0  0  0  0  0
   -0.5060   13.6260   18.5530 H   0  0  0  0  0  0  0  0  0  0  0  0
   -2.5180   11.0090   18.5780 C   0  0  0  0  0  0  0  0  0  0  0  0
   -3.2200   11.7670   18.9520 H   0  0  0  0  0  0  0  0  0  0  0  0
   -2.6770   10.1180   19.1970 H   0  0  0  0  0  0  0  0  0  0  0  0
   -2.8760   10.7440   17.1520 C   0  0  0  0  0  0  0  0  0  0  0  0
   -2.1420   10.0700   16.2870 N   0  0  0  0  0  0  0  0  0  0  0  0
   -2.8210   10.0190   15.0930 N   0  0  0  0  0  0  0  0  0  0  0  0
   -3.9490   10.6700   15.2500 C   0  0  0  0  0  0  0  0  0  0  0  0
   -4.0240   11.1500   16.5220 N   0  0  0  0  0  0  0  0  0  0  0  0
   -4.7110   10.8130   14.4980 H   0  0  0  0  0  0  0  0  0  0  0  0
   -5.1050   11.9290   17.0610 C   0  0  0  0  0  0  0  0  0  0  0  0
   -6.0470   11.6160   16.6010 H   0  0  0  0  0  0  0  0  0  0  0  0
   -5.1530   11.7620   18.1390 H   0  0  0  0  0  0  0  0  0  0  0  0
   -4.9290   12.9840   16.8380 H   0  0  0  0  0  0  0  0  0  0  0  0
  1  2  1  0  0  0  0
  2  8  1  0  0  0  0
  2  3  2  0  0  0  0
  3  9  1  0  0  0  0
  4  3  1  0  0  0  0
  4 10  1  0  0  0  0
  5  4  2  0  0  0  0
  6  1  2  0  0  0  0
  6  5  1  0  0  0  0
  7  6  1  0  0  0  0
 11 12  1  0  0  0  0
 11  5  1  0  0  0  0
 12 22  1  0  0  0  0
 13 12  1  0  0  0  0
 14 19  1  0  0  0  0
 14 13  2  0  0  0  0
 15 14  1  0  0  0  0
 16 15  2  0  0  0  0
 16 17  1  0  0  0  0
 17 18  2  0  0  0  0
 18 13  1  0  0  0  0
 18 25  1  0  0  0  0
 19 11  1  0  0  0  0
 20 19  2  0  0  0  0
 21 12  1  0  0  0  0
 23 15  1  0  0  0  0
 24 16  1  0  0  0  0
 25 26  1  0  0  0  0
 25 29  1  0  0  0  0
 26 30  1  0  0  0  0
 26 31  1  0  0  0  0
 27 32  1  0  0  0  0
 27 26  1  0  0  0  0
 28 27  1  0  0  0  0
 28 35  1  0  0  0  0
 28 25  1  0  0  0  0
 33 27  1  0  0  0  0
 34 28  1  0  0  0  0
 36 37  1  6  0  0  0
 36 38  1  0  0  0  0
 36  1  1  0  0  0  0
 38 40  1  0  0  0  0
 38 39  1  0  0  0  0
 41 38  1  0  0  0  0
 42 36  1  0  0  0  0
 42 43  1  0  0  0  0
 42 44  1  0  0  0  0
 45 42  1  0  0  0  0
 46 45  2  0  0  0  0
 47 48  2  0  0  0  0
 47 46  1  0  0  0  0
 48 49  1  0  0  0  0
 49 51  1  0  0  0  0
 49 45  1  0  0  0  0
 50 48  1  0  0  0  0
 51 53  1  0  0  0  0
 52 51  1  0  0  0  0
 54 51  1  0  0  0  0
M  END
>  <MODEL>
2

>  <REMARK>
 VINA RESULT:    -7.920      1.470      2.904
 INTER + INTRA:         -11.804
 INTER:                 -11.036
 INTRA:                  -0.768
 UNBOUND:                -1.106
  Name = 
  7 active torsions:
  status: ('A' for Active; 'I' for Inactive)
    1  A    between atoms: C_1  and  C_2
    2  A    between atoms: C_2  and  C_3
    3  A    between atoms: C_2  and  C_10
    4  A    between atoms: C_3  and  C_4
    5  A    between atoms: N_8  and  C_9
    6  A    between atoms: C_14  and  N_15
    7  A    between atoms: C_22  and  C_23
                            x       y       z     vdW  Elec       q    Type
                         _______ _______ _______ _____ _____    ______ ____

>  <TORSDO>
F 7

$$$$
=
 OpenBabel07192307433D

 54 58  0  0  1  0  0  0  0  0999 V2000
    4.4420    5.0210   16.7200 C   0  0  0  0  0  0  0  0  0  0  0  0
    3.7880    3.7830   16.7050 C   0  0  0  0  0  0  0  0  0  0  0  0
    2.6080    3.6060   17.4220 C   0  0  0  0  0  0  0  0  0  0  0  0
    2.0710    4.6550   18.1760 C   0  0  0  0  0  0  0  0  0  0  0  0
    2.6950    5.9070   18.2290 C   0  0  0  0  0  0  0  0  0  0  0  0
    3.8760    6.0650   17.4780 C   0  0  0  0  0  0  0  0  0  0  0  0
    4.5160    7.2450   17.4780 F   0  0  0  0  0  0  0  0  0  0  0  0
    4.1880    2.9430   16.1400 H   0  0  0  0  0  0  0  0  0  0  0  0
    2.0970    2.6460   17.4010 H   0  0  0  0  0  0  0  0  0  0  0  0
    1.1500    4.4540   18.7150 H   0  0  0  0  0  0  0  0  0  0  0  0
    2.1610    6.9710   19.0160 N   0  0  0  0  0  0  0  0  0  0  0  0
    1.9300    8.3060   18.4670 C   0  0  0  0  0  0  0  0  0  0  0  0
    1.3860    9.0620   19.6250 C   0  0  0  0  0  0  0  0  0  0  0  0
    1.3150    8.2440   20.7400 C   0  0  0  0  0  0  0  0  0  0  0  0
    0.8510    8.6860   21.9560 C   0  0  0  0  0  0  0  0  0  0  0  0
    0.4600   10.0080   21.9810 C   0  0  0  0  0  0  0  0  0  0  0  0
    0.5150   10.8440   20.9060 N   0  0  0  0  0  0  0  0  0  0  0  0
    0.9800   10.3760   19.7150 C   0  0  0  0  0  0  0  0  0  0  0  0
    1.8110    6.9150   20.3680 C   0  0  0  0  0  0  0  0  0  0  0  0
    1.8700    6.0050   21.1750 O   0  0  0  0  0  0  0  0  0  0  0  0
    1.1920    8.2520   17.6610 H   0  0  0  0  0  0  0  0  0  0  0  0
    2.8800    8.7410   18.1380 H   0  0  0  0  0  0  0  0  0  0  0  0
    0.7980    8.0440   22.8240 H   0  0  0  0  0  0  0  0  0  0  0  0
    0.0770   10.4620   22.8910 H   0  0  0  0  0  0  0  0  0  0  0  0
    1.0210   11.4210   18.5340 C   0  0  0  0  0  0  0  0  0  0  0  0
    0.6050   12.8980   18.7880 C   0  0  0  0  0  0  0  0  0  0  0  0
    2.0970   13.2350   18.9590 C   0  0  0  0  0  0  0  0  0  0  0  0
    2.4130   11.9810   18.1240 C   0  0  0  0  0  0  0  0  0  0  0  0
    0.4820   11.0130   17.6660 H   0  0  0  0  0  0  0  0  0  0  0  0
   -0.0290   13.0940   19.6570 H   0  0  0  0  0  0  0  0  0  0  0  0
    0.1460   13.3760   17.9140 H   0  0  0  0  0  0  0  0  0  0  0  0
    2.4210   14.1860   18.5270 H   0  0  0  0  0  0  0  0  0  0  0  0
    2.4490   13.1790   19.9950 H   0  0  0  0  0  0  0  0  0  0  0  0
    3.2860   11.4090   18.4510 H   0  0  0  0  0  0  0  0  0  0  0  0
    2.5060   12.1780   17.0490 H   0  0  0  0  0  0  0  0  0  0  0  0
    5.7610    5.2480   15.9940 C   0  0  2  0  0  0  0  0  0  0  0  0
    5.7850    6.2840   15.6280 H   0  0  0  0  0  0  0  0  0  0  0  0
    5.8880    4.3660   14.7440 C   0  0  0  0  0  0  0  0  0  0  0  0
    6.5560    3.5170   14.9280 H   0  0  0  0  0  0  0  0  0  0  0  0
    6.2750    4.9220   13.8840 H   0  0  0  0  0  0  0  0  0  0  0  0
    4.9090    3.9640   14.4600 H   0  0  0  0  0  0  0  0  0  0  0  0
    6.9680    5.0270   16.9300 C   0  0  0  0  0  0  0  0  0  0  0  0
    7.7820    4.5550   16.3640 H   0  0  0  0  0  0  0  0  0  0  0  0
    6.7140    4.3270   17.7370 H   0  0  0  0  0  0  0  0  0  0  0  0
    7.5000    6.3100   17.4790 C   0  0  0  0  0  0  0  0  0  0  0  0
    7.5720    7.4550   16.8270 N   0  0  0  0  0  0  0  0  0  0  0  0
    8.0910    8.4020   17.6760 N   0  0  0  0  0  0  0  0  0  0  0  0
    8.3340    7.8160   18.8240 C   0  0  0  0  0  0  0  0  0  0  0  0
    7.9870    6.5020   18.7460 N   0  0  0  0  0  0  0  0  0  0  0  0
    8.7450    8.2880   19.7050 H   0  0  0  0  0  0  0  0  0  0  0  0
    8.1250    5.5350   19.8010 C   0  0  0  0  0  0  0  0  0  0  0  0
    8.2760    6.0510   20.7530 H   0  0  0  0  0  0  0  0  0  0  0  0
    7.2120    4.9380   19.8500 H   0  0  0  0  0  0  0  0  0  0  0  0
    8.9920    4.9020   19.5930 H   0  0  0  0  0  0  0  0  0  0  0  0
  1  6  1  0  0  0  0
  2  1  2  0  0  0  0
  2  3  1  0  0  0  0
  3  4  2  0  0  0  0
  4  5  1  0  0  0  0
  4 10  1  0  0  0  0
  5 11  1  0  0  0  0
  6  5  2  0  0  0  0
  7  6  1  0  0  0  0
  8  2  1  0  0  0  0
  9  3  1  0  0  0  0
 11 19  1  0  0  0  0
 12 11  1  0  0  0  0
 12 13  1  0  0  0  0
 13 18  2  0  0  0  0
 13 14  1  0  0  0  0
 14 15  2  0  0  0  0
 15 16  1  0  0  0  0
 15 23  1  0  0  0  0
 16 24  1  0  0  0  0
 17 16  2  0  0  0  0
 18 17  1  0  0  0  0
 19 14  1  0  0  0  0
 19 20  2  0  0  0  0
 21 12  1  0  0  0  0
 22 12  1  0  0  0  0
 25 26  1  0  0  0  0
 25 18  1  0  0  0  0
 26 27  1  0  0  0  0
 26 30  1  0  0  0  0
 27 33  1  0  0  0  0
 28 34  1  0  0  0  0
 28 25  1  0  0  0  0
 28 27  1  0  0  0  0
 29 25  1  0  0  0  0
 31 26  1  0  0  0  0
 32 27  1  0  0  0  0
 35 28  1  0  0  0  0
 36 37  1  6  0  0  0
 36  1  1  0  0  0  0
 36 42  1  0  0  0  0
 38 39  1  0  0  0  0
 38 36  1  0  0  0  0
 40 38  1  0  0  0  0
 41 38  1  0  0  0  0
 42 45  1  0  0  0  0
 42 44  1  0  0  0  0
 43 42  1  0  0  0  0
 45 49  1  0  0  0  0
 46 45  2  0  0  0  0
 46 47  1  0  0  0  0
 47 48  2  0  0  0  0
 48 50  1  0  0  0  0
 49 48  1  0  0  0  0
 49 51  1  0  0  0  0
 51 53  1  0  0  0  0
 51 52  1  0  0  0  0
 54 51  1  0  0  0  0
M  END
>  <MODEL>
3

>  <REMARK>
 VINA RESULT:    -7.759      2.815      8.317
 INTER + INTRA:         -11.586
 INTER:                 -10.495
 INTRA:                  -1.091
 UNBOUND:                -1.106
  Name = 
  7 active torsions:
  status: ('A' for Active; 'I' for Inactive)
    1  A    between atoms: C_1  and  C_2
    2  A    between atoms: C_2  and  C_3
    3  A    between atoms: C_2  and  C_10
    4  A    between atoms: C_3  and  C_4
    5  A    between atoms: N_8  and  C_9
    6  A    between atoms: C_14  and  N_15
    7  A    between atoms: C_22  and  C_23
                            x       y       z     vdW  Elec       q    Type
                         _______ _______ _______ _____ _____    ______ ____

>  <TORSDO>
F 7

$$$$
=
 OpenBabel07192307433D

 54 58  0  0  1  0  0  0  0  0999 V2000
    0.2070   10.0720   19.2890 C   0  0  0  0  0  0  0  0  0  0  0  0
    0.0370   10.4670   20.6200 C   0  0  0  0  0  0  0  0  0  0  0  0
    0.6240    9.7340   21.6480 C   0  0  0  0  0  0  0  0  0  0  0  0
    1.3770    8.5890   21.3630 C   0  0  0  0  0  0  0  0  0  0  0  0
    1.5670    8.1520   20.0470 C   0  0  0  0  0  0  0  0  0  0  0  0
    0.9780    8.9230   19.0260 C   0  0  0  0  0  0  0  0  0  0  0  0
    1.1330    8.5630   17.7420 F   0  0  0  0  0  0  0  0  0  0  0  0
   -0.5550   11.3420   20.8760 H   0  0  0  0  0  0  0  0  0  0  0  0
    0.4980   10.0470   22.6820 H   0  0  0  0  0  0  0  0  0  0  0  0
    1.8080    8.0600   22.2070 H   0  0  0  0  0  0  0  0  0  0  0  0
    2.3150    6.9720   19.7560 N   0  0  0  0  0  0  0  0  0  0  0  0
    3.4750    6.9850   18.8670 C   0  0  0  0  0  0  0  0  0  0  0  0
    3.9170    5.5660   18.8600 C   0  0  0  0  0  0  0  0  0  0  0  0
    3.0870    4.8030   19.6640 C   0  0  0  0  0  0  0  0  0  0  0  0
    3.2620    3.4510   19.8390 C   0  0  0  0  0  0  0  0  0  0  0  0
    4.3280    2.9120   19.1520 C   0  0  0  0  0  0  0  0  0  0  0  0
    5.1670    3.6290   18.3520 N   0  0  0  0  0  0  0  0  0  0  0  0
    4.9680    4.9670   18.1990 C   0  0  0  0  0  0  0  0  0  0  0  0
    2.0620    5.6830   20.2330 C   0  0  0  0  0  0  0  0  0  0  0  0
    1.1910    5.2580   20.9700 O   0  0  0  0  0  0  0  0  0  0  0  0
    4.2550    7.6290   19.2850 H   0  0  0  0  0  0  0  0  0  0  0  0
    3.1700    7.2950   17.8620 H   0  0  0  0  0  0  0  0  0  0  0  0
    2.6110    2.8590   20.4670 H   0  0  0  0  0  0  0  0  0  0  0  0
    4.5590    1.8510   19.2180 H   0  0  0  0  0  0  0  0  0  0  0  0
    5.9780    5.7080   17.2420 C   0  0  0  0  0  0  0  0  0  0  0  0
    7.0860    4.9020   16.5060 C   0  0  0  0  0  0  0  0  0  0  0  0
    6.1630    4.8560   15.2740 C   0  0  0  0  0  0  0  0  0  0  0  0
    5.4620    6.1090   15.8310 C   0  0  0  0  0  0  0  0  0  0  0  0
    6.4160    6.5700   17.7690 H   0  0  0  0  0  0  0  0  0  0  0  0
    7.3600    3.9310   16.9290 H   0  0  0  0  0  0  0  0  0  0  0  0
    8.0050    5.4770   16.3420 H   0  0  0  0  0  0  0  0  0  0  0  0
    6.6560    4.9790   14.3060 H   0  0  0  0  0  0  0  0  0  0  0  0
    5.5200    3.9700   15.2340 H   0  0  0  0  0  0  0  0  0  0  0  0
    4.3780    6.1370   15.6960 H   0  0  0  0  0  0  0  0  0  0  0  0
    5.8850    7.0520   15.4620 H   0  0  0  0  0  0  0  0  0  0  0  0
   -0.4590   10.8110   18.1350 C   0  0  2  0  0  0  0  0  0  0  0  0
    0.3000   11.0130   17.3650 H   0  0  0  0  0  0  0  0  0  0  0  0
   -0.9880   12.1870   18.5630 C   0  0  0  0  0  0  0  0  0  0  0  0
   -2.0830   12.1890   18.6130 H   0  0  0  0  0  0  0  0  0  0  0  0
   -0.6790   12.9810   17.8760 H   0  0  0  0  0  0  0  0  0  0  0  0
   -0.6080   12.4490   19.5570 H   0  0  0  0  0  0  0  0  0  0  0  0
   -1.5910    9.9740   17.5040 C   0  0  0  0  0  0  0  0  0  0  0  0
   -1.7590    9.0760   18.1140 H   0  0  0  0  0  0  0  0  0  0  0  0
   -1.3040    9.6140   16.5090 H   0  0  0  0  0  0  0  0  0  0  0  0
   -2.8850   10.7200   17.4540 C   0  0  0  0  0  0  0  0  0  0  0  0
   -3.5320   11.2090   18.4940 N   0  0  0  0  0  0  0  0  0  0  0  0
   -4.6610   11.8470   18.0390 N   0  0  0  0  0  0  0  0  0  0  0  0
   -4.6840   11.7260   16.7330 C   0  0  0  0  0  0  0  0  0  0  0  0
   -3.5960   11.0200   16.3210 N   0  0  0  0  0  0  0  0  0  0  0  0
   -5.4420   12.1200   16.0720 H   0  0  0  0  0  0  0  0  0  0  0  0
   -3.2880   10.6720   14.9610 C   0  0  0  0  0  0  0  0  0  0  0  0
   -2.8730   11.5420   14.4450 H   0  0  0  0  0  0  0  0  0  0  0  0
   -2.5540    9.8650   14.9640 H   0  0  0  0  0  0  0  0  0  0  0  0
   -4.2070   10.3600   14.4570 H   0  0  0  0  0  0  0  0  0  0  0  0
  1  2  1  0  0  0  0
  2  8  1  0  0  0  0
  2  3  2  0  0  0  0
  3  9  1  0  0  0  0
  4  3  1  0  0  0  0
  4 10  1  0  0  0  0
  5  4  2  0  0  0  0
  6  1  2  0  0  0  0
  6  5  1  0  0  0  0
  7  6  1  0  0  0  0
 11  5  1  0  0  0  0
 11 19  1  0  0  0  0
 12 21  1  0  0  0  0
 12 11  1  0  0  0  0
 13 12  1  0  0  0  0
 13 14  1  0  0  0  0
 14 15  2  0  0  0  0
 14 19  1  0  0  0  0
 15 23  1  0  0  0  0
 16 24  1  0  0  0  0
 16 15  1  0  0  0  0
 17 16  2  0  0  0  0
 18 17  1  0  0  0  0
 18 13  2  0  0  0  0
 19 20  2  0  0  0  0
 22 12  1  0  0  0  0
 25 29  1  0  0  0  0
 25 18  1  0  0  0  0
 26 30  1  0  0  0  0
 26 25  1  0  0  0  0
 27 28  1  0  0  0  0
 27 26  1  0  0  0  0
 28 25  1  0  0  0  0
 31 26  1  0  0  0  0
 32 27  1  0  0  0  0
 33 27  1  0  0  0  0
 34 28  1  0  0  0  0
 35 28  1  0  0  0  0
 36 37  1  6  0  0  0
 36 38  1  0  0  0  0
 36  1  1  0  0  0  0
 38 39  1  0  0  0  0
 38 41  1  0  0  0  0
 40 38  1  0  0  0  0
 42 43  1  0  0  0  0
 42 36  1  0  0  0  0
 44 42  1  0  0  0  0
 45 42  1  0  0  0  0
 45 46  2  0  0  0  0
 47 46  1  0  0  0  0
 48 47  2  0  0  0  0
 49 48  1  0  0  0  0
 49 45  1  0  0  0  0
 50 48  1  0  0  0  0
 51 53  1  0  0  0  0
 51 49  1  0  0  0  0
 52 51  1  0  0  0  0
 54 51  1  0  0  0  0
M  END
>  <MODEL>
4

>  <REMARK>
 VINA RESULT:    -7.386      0.911      1.356
 INTER + INTRA:         -11.083
 INTER:                 -10.929
 INTRA:                  -0.155
 UNBOUND:                -1.106
  Name = 
  7 active torsions:
  status: ('A' for Active; 'I' for Inactive)
    1  A    between atoms: C_1  and  C_2
    2  A    between atoms: C_2  and  C_3
    3  A    between atoms: C_2  and  C_10
    4  A    between atoms: C_3  and  C_4
    5  A    between atoms: N_8  and  C_9
    6  A    between atoms: C_14  and  N_15
    7  A    between atoms: C_22  and  C_23
                            x       y       z     vdW  Elec       q    Type
                         _______ _______ _______ _____ _____    ______ ____

>  <TORSDO>
F 7

$$$$
=
 OpenBabel07192307433D

 54 58  0  0  1  0  0  0  0  0999 V2000
    4.6580    4.3820   16.9920 C   0  0  0  0  0  0  0  0  0  0  0  0
    3.8370    3.2750   16.7530 C   0  0  0  0  0  0  0  0  0  0  0  0
    2.5240    3.2650   17.2160 C   0  0  0  0  0  0  0  0  0  0  0  0
    2.0160    4.3520   17.9350 C   0  0  0  0  0  0  0  0  0  0  0  0
    2.8030    5.4770   18.2050 C   0  0  0  0  0  0  0  0  0  0  0  0
    4.1210    5.4700   17.7090 C   0  0  0  0  0  0  0  0  0  0  0  0
    4.9240    6.5240   17.9250 F   0  0  0  0  0  0  0  0  0  0  0  0
    4.2060    2.4080   16.2100 H   0  0  0  0  0  0  0  0  0  0  0  0
    1.8840    2.4060   17.0210 H   0  0  0  0  0  0  0  0  0  0  0  0
    0.9860    4.2830   18.2710 H   0  0  0  0  0  0  0  0  0  0  0  0
    2.2950    6.5770   18.9590 N   0  0  0  0  0  0  0  0  0  0  0  0
    2.0690    7.8920   18.3630 C   0  0  0  0  0  0  0  0  0  0  0  0
    1.5530    8.7000   19.4990 C   0  0  0  0  0  0  0  0  0  0  0  0
    1.4910    7.9260   20.6460 C   0  0  0  0  0  0  0  0  0  0  0  0
    1.0520    8.4210   21.8510 C   0  0  0  0  0  0  0  0  0  0  0  0
    0.6770    9.7460   21.8300 C   0  0  0  0  0  0  0  0  0  0  0  0
    0.7230   10.5390   20.7230 N   0  0  0  0  0  0  0  0  0  0  0  0
    1.1620   10.0210   19.5430 C   0  0  0  0  0  0  0  0  0  0  0  0
    1.9660    6.5780   20.3180 C   0  0  0  0  0  0  0  0  0  0  0  0
    2.0290    5.7000   21.1580 O   0  0  0  0  0  0  0  0  0  0  0  0
    1.3170    7.8160   17.5710 H   0  0  0  0  0  0  0  0  0  0  0  0
    3.0180    8.3040   18.0010 H   0  0  0  0  0  0  0  0  0  0  0  0
    1.0070    7.8130   22.7440 H   0  0  0  0  0  0  0  0  0  0  0  0
    0.3130   10.2400   22.7290 H   0  0  0  0  0  0  0  0  0  0  0  0
    1.1950   11.0180   18.3230 C   0  0  0  0  0  0  0  0  0  0  0  0
    0.7680   12.5010   18.5180 C   0  0  0  0  0  0  0  0  0  0  0  0
    2.2590   12.8550   18.6740 C   0  0  0  0  0  0  0  0  0  0  0  0
    2.5830   11.5710   17.8890 C   0  0  0  0  0  0  0  0  0  0  0  0
    0.6580   10.5720   17.4720 H   0  0  0  0  0  0  0  0  0  0  0  0
    0.1350   12.7270   19.3800 H   0  0  0  0  0  0  0  0  0  0  0  0
    0.3060   12.9410   17.6260 H   0  0  0  0  0  0  0  0  0  0  0  0
    2.5760   13.7910   18.2040 H   0  0  0  0  0  0  0  0  0  0  0  0
    2.6120   12.8420   19.7110 H   0  0  0  0  0  0  0  0  0  0  0  0
    3.4600   11.0190   18.2370 H   0  0  0  0  0  0  0  0  0  0  0  0
    2.6730   11.7260   16.8070 H   0  0  0  0  0  0  0  0  0  0  0  0
    6.1160    4.4180   16.5510 C   0  0  2  0  0  0  0  0  0  0  0  0
    6.4160    3.4030   16.2540 H   0  0  0  0  0  0  0  0  0  0  0  0
    7.0540    4.8060   17.7030 C   0  0  0  0  0  0  0  0  0  0  0  0
    6.7690    5.7730   18.1320 H   0  0  0  0  0  0  0  0  0  0  0  0
    8.0980    4.8720   17.3800 H   0  0  0  0  0  0  0  0  0  0  0  0
    7.0060    4.0590   18.5020 H   0  0  0  0  0  0  0  0  0  0  0  0
    6.3210    5.3650   15.3510 C   0  0  0  0  0  0  0  0  0  0  0  0
    7.2780    5.8910   15.4650 H   0  0  0  0  0  0  0  0  0  0  0  0
    5.5480    6.1440   15.3300 H   0  0  0  0  0  0  0  0  0  0  0  0
    6.3750    4.6280   14.0520 C   0  0  0  0  0  0  0  0  0  0  0  0
    5.5360    3.6860   13.6670 N   0  0  0  0  0  0  0  0  0  0  0  0
    5.9000    3.2740   12.4070 N   0  0  0  0  0  0  0  0  0  0  0  0
    6.9580    3.9640   12.0550 C   0  0  0  0  0  0  0  0  0  0  0  0
    7.2980    4.8200   13.0570 N   0  0  0  0  0  0  0  0  0  0  0  0
    7.4890    3.8800   11.1170 H   0  0  0  0  0  0  0  0  0  0  0  0
    8.4130    5.7260   13.0430 C   0  0  0  0  0  0  0  0  0  0  0  0
    8.3430    6.4060   13.8970 H   0  0  0  0  0  0  0  0  0  0  0  0
    9.3360    5.1480   13.1110 H   0  0  0  0  0  0  0  0  0  0  0  0
    8.3870    6.3080   12.1170 H   0  0  0  0  0  0  0  0  0  0  0  0
  1  6  1  0  0  0  0
  2  1  2  0  0  0  0
  2  3  1  0  0  0  0
  3  4  2  0  0  0  0
  4  5  1  0  0  0  0
  4 10  1  0  0  0  0
  5 11  1  0  0  0  0
  6  7  1  0  0  0  0
  6  5  2  0  0  0  0
  8  2  1  0  0  0  0
  9  3  1  0  0  0  0
 11 19  1  0  0  0  0
 12 11  1  0  0  0  0
 12 13  1  0  0  0  0
 13 18  2  0  0  0  0
 13 14  1  0  0  0  0
 14 15  2  0  0  0  0
 15 23  1  0  0  0  0
 16 15  1  0  0  0  0
 16 24  1  0  0  0  0
 17 16  2  0  0  0  0
 18 17  1  0  0  0  0
 19 14  1  0  0  0  0
 19 20  2  0  0  0  0
 21 12  1  0  0  0  0
 22 12  1  0  0  0  0
 25 26  1  0  0  0  0
 25 18  1  0  0  0  0
 26 27  1  0  0  0  0
 26 30  1  0  0  0  0
 27 33  1  0  0  0  0
 28 34  1  0  0  0  0
 28 25  1  0  0  0  0
 28 27  1  0  0  0  0
 29 25  1  0  0  0  0
 31 26  1  0  0  0  0
 32 27  1  0  0  0  0
 35 28  1  0  0  0  0
 36 37  1  6  0  0  0
 36  1  1  0  0  0  0
 36 38  1  0  0  0  0
 38 39  1  0  0  0  0
 38 41  1  0  0  0  0
 40 38  1  0  0  0  0
 42 43  1  0  0  0  0
 42 36  1  0  0  0  0
 44 42  1  0  0  0  0
 45 42  1  0  0  0  0
 46 45  2  0  0  0  0
 47 46  1  0  0  0  0
 48 47  2  0  0  0  0
 48 49  1  0  0  0  0
 49 45  1  0  0  0  0
 50 48  1  0  0  0  0
 51 49  1  0  0  0  0
 51 53  1  0  0  0  0
 51 52  1  0  0  0  0
 54 51  1  0  0  0  0
M  END
>  <MODEL>
5

>  <REMARK>
 VINA RESULT:    -7.326      2.827      8.431
 INTER + INTRA:         -11.001
 INTER:                 -10.324
 INTRA:                  -0.677
 UNBOUND:                -1.106
  Name = 
  7 active torsions:
  status: ('A' for Active; 'I' for Inactive)
    1  A    between atoms: C_1  and  C_2
    2  A    between atoms: C_2  and  C_3
    3  A    between atoms: C_2  and  C_10
    4  A    between atoms: C_3  and  C_4
    5  A    between atoms: N_8  and  C_9
    6  A    between atoms: C_14  and  N_15
    7  A    between atoms: C_22  and  C_23
                            x       y       z     vdW  Elec       q    Type
                         _______ _______ _______ _____ _____    ______ ____

>  <TORSDO>
F 7

$$$$
=
 OpenBabel07192307433D

 54 58  0  0  1  0  0  0  0  0999 V2000
   -0.5950   10.7220   19.9720 C   0  0  0  0  0  0  0  0  0  0  0  0
   -0.5240   10.8480   21.3640 C   0  0  0  0  0  0  0  0  0  0  0  0
    0.3250   10.0240   22.0980 C   0  0  0  0  0  0  0  0  0  0  0  0
    1.1020    9.0540   21.4570 C   0  0  0  0  0  0  0  0  0  0  0  0
    1.0570    8.8860   20.0680 C   0  0  0  0  0  0  0  0  0  0  0  0
    0.2050    9.7460   19.3480 C   0  0  0  0  0  0  0  0  0  0  0  0
    0.1250    9.6420   18.0120 F   0  0  0  0  0  0  0  0  0  0  0  0
   -1.1260   11.5830   21.8940 H   0  0  0  0  0  0  0  0  0  0  0  0
    0.3860   10.1310   23.1790 H   0  0  0  0  0  0  0  0  0  0  0  0
    1.7430    8.4410   22.0850 H   0  0  0  0  0  0  0  0  0  0  0  0
    1.8320    7.8810   19.4150 N   0  0  0  0  0  0  0  0  0  0  0  0
    1.7850    6.4770   19.8170 C   0  0  0  0  0  0  0  0  0  0  0  0
    2.7350    5.8210   18.8810 C   0  0  0  0  0  0  0  0  0  0  0  0
    3.2840    6.7580   18.0220 C   0  0  0  0  0  0  0  0  0  0  0  0
    4.2000    6.4280   17.0520 C   0  0  0  0  0  0  0  0  0  0  0  0
    4.5300    5.0910   16.9980 C   0  0  0  0  0  0  0  0  0  0  0  0
    4.0130    4.1400   17.8250 N   0  0  0  0  0  0  0  0  0  0  0  0
    3.1070    4.4980   18.7770 C   0  0  0  0  0  0  0  0  0  0  0  0
    2.7230    8.0720   18.3550 C   0  0  0  0  0  0  0  0  0  0  0  0
    3.0530    9.0790   17.7560 O   0  0  0  0  0  0  0  0  0  0  0  0
    0.7740    6.0840   19.6770 H   0  0  0  0  0  0  0  0  0  0  0  0
    2.1350    6.3750   20.8500 H   0  0  0  0  0  0  0  0  0  0  0  0
    4.6260    7.1640   16.3840 H   0  0  0  0  0  0  0  0  0  0  0  0
    5.2450    4.7190   16.2680 H   0  0  0  0  0  0  0  0  0  0  0  0
    2.5770    3.3310   19.6950 C   0  0  0  0  0  0  0  0  0  0  0  0
    1.0530    3.1870   19.9680 C   0  0  0  0  0  0  0  0  0  0  0  0
    1.0020    2.1410   18.8390 C   0  0  0  0  0  0  0  0  0  0  0  0
    2.5060    1.9080   19.0720 C   0  0  0  0  0  0  0  0  0  0  0  0
    3.1390    3.3270   20.6420 H   0  0  0  0  0  0  0  0  0  0  0  0
    0.4340    4.0770   19.8180 H   0  0  0  0  0  0  0  0  0  0  0  0
    0.8250    2.7740   20.9580 H   0  0  0  0  0  0  0  0  0  0  0  0
    0.3550    1.2780   19.0210 H   0  0  0  0  0  0  0  0  0  0  0  0
    0.7650    2.5600   17.8550 H   0  0  0  0  0  0  0  0  0  0  0  0
    3.0980    1.7390   18.1690 H   0  0  0  0  0  0  0  0  0  0  0  0
    2.7220    1.1060   19.7880 H   0  0  0  0  0  0  0  0  0  0  0  0
   -1.5460   11.5650   19.1320 C   0  0  2  0  0  0  0  0  0  0  0  0
   -2.1440   12.1950   19.8050 H   0  0  0  0  0  0  0  0  0  0  0  0
   -2.5600   10.6990   18.3710 C   0  0  0  0  0  0  0  0  0  0  0  0
   -2.0690   10.1270   17.5750 H   0  0  0  0  0  0  0  0  0  0  0  0
   -3.3560   11.2980   17.9160 H   0  0  0  0  0  0  0  0  0  0  0  0
   -3.0370    9.9840   19.0500 H   0  0  0  0  0  0  0  0  0  0  0  0
   -0.7790   12.4770   18.1520 C   0  0  0  0  0  0  0  0  0  0  0  0
   -1.4990   13.0470   17.5510 H   0  0  0  0  0  0  0  0  0  0  0  0
   -0.1940   11.8820   17.4400 H   0  0  0  0  0  0  0  0  0  0  0  0
    0.0850   13.4670   18.8620 C   0  0  0  0  0  0  0  0  0  0  0  0
   -0.3440   14.4800   19.5900 N   0  0  0  0  0  0  0  0  0  0  0  0
    0.7500   15.1410   20.0960 N   0  0  0  0  0  0  0  0  0  0  0  0
    1.8220   14.5250   19.6590 C   0  0  0  0  0  0  0  0  0  0  0  0
    1.4560   13.4750   18.8740 N   0  0  0  0  0  0  0  0  0  0  0  0
    2.8450   14.7960   19.8780 H   0  0  0  0  0  0  0  0  0  0  0  0
    2.3560   12.5770   18.2030 C   0  0  0  0  0  0  0  0  0  0  0  0
    2.7660   11.8640   18.9240 H   0  0  0  0  0  0  0  0  0  0  0  0
    1.8020   12.0380   17.4330 H   0  0  0  0  0  0  0  0  0  0  0  0
    3.1730   13.1540   17.7630 H   0  0  0  0  0  0  0  0  0  0  0  0
  1  2  1  0  0  0  0
  2  8  1  0  0  0  0
  2  3  2  0  0  0  0
  3  9  1  0  0  0  0
  4 10  1  0  0  0  0
  4  3  1  0  0  0  0
  5  4  2  0  0  0  0
  6  1  2  0  0  0  0
  6  5  1  0  0  0  0
  7  6  1  0  0  0  0
 11 12  1  0  0  0  0
 11  5  1  0  0  0  0
 12 22  1  0  0  0  0
 13 12  1  0  0  0  0
 14 19  1  0  0  0  0
 14 13  2  0  0  0  0
 15 14  1  0  0  0  0
 16 15  2  0  0  0  0
 16 17  1  0  0  0  0
 17 18  2  0  0  0  0
 18 13  1  0  0  0  0
 18 25  1  0  0  0  0
 19 11  1  0  0  0  0
 20 19  2  0  0  0  0
 21 12  1  0  0  0  0
 23 15  1  0  0  0  0
 24 16  1  0  0  0  0
 25 26  1  0  0  0  0
 25 29  1  0  0  0  0
 26 31  1  0  0  0  0
 27 32  1  0  0  0  0
 27 28  1  0  0  0  0
 27 26  1  0  0  0  0
 28 25  1  0  0  0  0
 28 35  1  0  0  0  0
 30 26  1  0  0  0  0
 33 27  1  0  0  0  0
 34 28  1  0  0  0  0
 36 37  1  1  0  0  0
 36  1  1  0  0  0  0
 38 41  1  0  0  0  0
 38 36  1  0  0  0  0
 39 38  1  0  0  0  0
 40 38  1  0  0  0  0
 42 45  1  0  0  0  0
 42 36  1  0  0  0  0
 43 42  1  0  0  0  0
 44 42  1  0  0  0  0
 45 49  1  0  0  0  0
 45 46  2  0  0  0  0
 46 47  1  0  0  0  0
 48 50  1  0  0  0  0
 48 47  2  0  0  0  0
 49 48  1  0  0  0  0
 51 49  1  0  0  0  0
 51 52  1  0  0  0  0
 53 51  1  0  0  0  0
 54 51  1  0  0  0  0
M  END
>  <MODEL>
6

>  <REMARK>
 VINA RESULT:    -7.184      2.423      4.153
 INTER + INTRA:         -10.810
 INTER:                  -9.968
 INTRA:                  -0.842
 UNBOUND:                -1.106
  Name = 
  7 active torsions:
  status: ('A' for Active; 'I' for Inactive)
    1  A    between atoms: C_1  and  C_2
    2  A    between atoms: C_2  and  C_3
    3  A    between atoms: C_2  and  C_10
    4  A    between atoms: C_3  and  C_4
    5  A    between atoms: N_8  and  C_9
    6  A    between atoms: C_14  and  N_15
    7  A    between atoms: C_22  and  C_23
                            x       y       z     vdW  Elec       q    Type
                         _______ _______ _______ _____ _____    ______ ____

>  <TORSDO>
F 7

$$$$
=
 OpenBabel07192307433D

 54 58  0  0  1  0  0  0  0  0999 V2000
    0.4610   10.1900   20.5390 C   0  0  0  0  0  0  0  0  0  0  0  0
   -0.0280   10.7730   19.3650 C   0  0  0  0  0  0  0  0  0  0  0  0
    0.2460   10.1930   18.1290 C   0  0  0  0  0  0  0  0  0  0  0  0
    1.0220    9.0320   18.0460 C   0  0  0  0  0  0  0  0  0  0  0  0
    1.5390    8.4180   19.1930 C   0  0  0  0  0  0  0  0  0  0  0  0
    1.2300    9.0150   20.4310 C   0  0  0  0  0  0  0  0  0  0  0  0
    1.6870    8.4680   21.5690 F   0  0  0  0  0  0  0  0  0  0  0  0
   -0.6210   11.6840   19.3940 H   0  0  0  0  0  0  0  0  0  0  0  0
   -0.1420   10.6430   17.2180 H   0  0  0  0  0  0  0  0  0  0  0  0
    1.2020    8.6280   17.0540 H   0  0  0  0  0  0  0  0  0  0  0  0
    2.3500    7.2470   19.1090 N   0  0  0  0  0  0  0  0  0  0  0  0
    3.4800    7.1460   18.1880 C   0  0  0  0  0  0  0  0  0  0  0  0
    4.0080    5.7800   18.4430 C   0  0  0  0  0  0  0  0  0  0  0  0
    3.2510    5.1480   19.4150 C   0  0  0  0  0  0  0  0  0  0  0  0
    3.5150    3.8700   19.8460 C   0  0  0  0  0  0  0  0  0  0  0  0
    4.5920    3.2640   19.2350 C   0  0  0  0  0  0  0  0  0  0  0  0
    5.3600    3.8530   18.2750 N   0  0  0  0  0  0  0  0  0  0  0  0
    5.0740    5.1200   17.8700 C   0  0  0  0  0  0  0  0  0  0  0  0
    2.1910    6.0670   19.8420 C   0  0  0  0  0  0  0  0  0  0  0  0
    1.3700    5.7500   20.6830 O   0  0  0  0  0  0  0  0  0  0  0  0
    4.2300    7.9020   18.4380 H   0  0  0  0  0  0  0  0  0  0  0  0
    3.1250    7.2320   17.1550 H   0  0  0  0  0  0  0  0  0  0  0  0
    2.9210    3.3810   20.6050 H   0  0  0  0  0  0  0  0  0  0  0  0
    4.8900    2.2520   19.5000 H   0  0  0  0  0  0  0  0  0  0  0  0
    6.0080    5.7100   16.7450 C   0  0  0  0  0  0  0  0  0  0  0  0
    7.0400    4.7920   16.0300 C   0  0  0  0  0  0  0  0  0  0  0  0
    6.0150    4.6090   14.8950 C   0  0  0  0  0  0  0  0  0  0  0  0
    5.3780    5.9380   15.3410 C   0  0  0  0  0  0  0  0  0  0  0  0
    6.4970    6.6230   17.1170 H   0  0  0  0  0  0  0  0  0  0  0  0
    7.3380    3.8780   16.5510 H   0  0  0  0  0  0  0  0  0  0  0  0
    7.9480    5.3210   15.7170 H   0  0  0  0  0  0  0  0  0  0  0  0
    6.4260    4.5970   13.8820 H   0  0  0  0  0  0  0  0  0  0  0  0
    5.3610    3.7390   15.0240 H   0  0  0  0  0  0  0  0  0  0  0  0
    4.2860    5.9730   15.2940 H   0  0  0  0  0  0  0  0  0  0  0  0
    5.7780    6.8160   14.8190 H   0  0  0  0  0  0  0  0  0  0  0  0
    0.2320   10.8150   21.9090 C   0  0  2  0  0  0  0  0  0  0  0  0
    1.1910   10.8420   22.4460 H   0  0  0  0  0  0  0  0  0  0  0  0
   -0.7040    9.9650   22.7790 C   0  0  0  0  0  0  0  0  0  0  0  0
   -0.1990    9.0570   23.1280 H   0  0  0  0  0  0  0  0  0  0  0  0
   -1.6090    9.6640   22.2410 H   0  0  0  0  0  0  0  0  0  0  0  0
   -1.0220   10.5300   23.6620 H   0  0  0  0  0  0  0  0  0  0  0  0
   -0.3080   12.2560   21.7900 C   0  0  0  0  0  0  0  0  0  0  0  0
   -0.3260   12.5480   20.7320 H   0  0  0  0  0  0  0  0  0  0  0  0
    0.3620   12.9670   22.2890 H   0  0  0  0  0  0  0  0  0  0  0  0
   -1.7050   12.3800   22.3050 C   0  0  0  0  0  0  0  0  0  0  0  0
   -2.0610   12.3570   23.5750 N   0  0  0  0  0  0  0  0  0  0  0  0
   -3.4230   12.5270   23.6440 N   0  0  0  0  0  0  0  0  0  0  0  0
   -3.8710   12.6410   22.4160 C   0  0  0  0  0  0  0  0  0  0  0  0
   -2.8320   12.5470   21.5420 N   0  0  0  0  0  0  0  0  0  0  0  0
   -4.9010   12.7870   22.1260 H   0  0  0  0  0  0  0  0  0  0  0  0
   -2.9330   12.6080   20.1100 C   0  0  0  0  0  0  0  0  0  0  0  0
   -1.9320   12.6740   19.6750 H   0  0  0  0  0  0  0  0  0  0  0  0
   -3.4260   11.7020   19.7540 H   0  0  0  0  0  0  0  0  0  0  0  0
   -3.5050   13.4970   19.8310 H   0  0  0  0  0  0  0  0  0  0  0  0
  1 36  1  0  0  0  0
  2  8  1  0  0  0  0
  2  1  2  0  0  0  0
  3  2  1  0  0  0  0
  4  3  2  0  0  0  0
  4  5  1  0  0  0  0
  5  6  2  0  0  0  0
  6  1  1  0  0  0  0
  6  7  1  0  0  0  0
  9  3  1  0  0  0  0
 10  4  1  0  0  0  0
 11  5  1  0  0  0  0
 11 19  1  0  0  0  0
 12 21  1  0  0  0  0
 12 13  1  0  0  0  0
 12 11  1  0  0  0  0
 13 14  1  0  0  0  0
 14 19  1  0  0  0  0
 14 15  2  0  0  0  0
 15 23  1  0  0  0  0
 16 24  1  0  0  0  0
 16 15  1  0  0  0  0
 17 16  2  0  0  0  0
 18 17  1  0  0  0  0
 18 13  2  0  0  0  0
 19 20  2  0  0  0  0
 22 12  1  0  0  0  0
 25 29  1  0  0  0  0
 25 18  1  0  0  0  0
 26 30  1  0  0  0  0
 26 25  1  0  0  0  0
 27 33  1  0  0  0  0
 27 28  1  0  0  0  0
 27 26  1  0  0  0  0
 28 25  1  0  0  0  0
 31 26  1  0  0  0  0
 32 27  1  0  0  0  0
 34 28  1  0  0  0  0
 35 28  1  0  0  0  0
 36 37  1  1  0  0  0
 36 38  1  0  0  0  0
 38 39  1  0  0  0  0
 38 41  1  0  0  0  0
 40 38  1  0  0  0  0
 42 36  1  0  0  0  0
 42 44  1  0  0  0  0
 42 45  1  0  0  0  0
 43 42  1  0  0  0  0
 45 46  2  0  0  0  0
 46 47  1  0  0  0  0
 48 47  2  0  0  0  0
 49 45  1  0  0  0  0
 49 48  1  0  0  0  0
 50 48  1  0  0  0  0
 51 49  1  0  0  0  0
 52 51  1  0  0  0  0
 53 51  1  0  0  0  0
 54 51  1  0  0  0  0
M  END
>  <MODEL>
7

>  <REMARK>
 VINA RESULT:    -7.155      2.436      3.299
 INTER + INTRA:         -10.771
 INTER:                 -10.566
 INTRA:                  -0.205
 UNBOUND:                -1.106
  Name = 
  7 active torsions:
  status: ('A' for Active; 'I' for Inactive)
    1  A    between atoms: C_1  and  C_2
    2  A    between atoms: C_2  and  C_3
    3  A    between atoms: C_2  and  C_10
    4  A    between atoms: C_3  and  C_4
    5  A    between atoms: N_8  and  C_9
    6  A    between atoms: C_14  and  N_15
    7  A    between atoms: C_22  and  C_23
                            x       y       z     vdW  Elec       q    Type
                         _______ _______ _______ _____ _____    ______ ____

>  <TORSDO>
F 7

$$$$
=
 OpenBabel07192307433D

 54 58  0  0  1  0  0  0  0  0999 V2000
    0.5480   10.2160   20.1360 C   0  0  0  0  0  0  0  0  0  0  0  0
    0.5400   10.2660   21.5340 C   0  0  0  0  0  0  0  0  0  0  0  0
    1.0800    9.2180   22.2750 C   0  0  0  0  0  0  0  0  0  0  0  0
    1.6220    8.1000   21.6320 C   0  0  0  0  0  0  0  0  0  0  0  0
    1.6450    8.0020   20.2360 C   0  0  0  0  0  0  0  0  0  0  0  0
    1.1090    9.0850   19.5110 C   0  0  0  0  0  0  0  0  0  0  0  0
    1.1110    9.0570   18.1690 F   0  0  0  0  0  0  0  0  0  0  0  0
    0.1120   11.1130   22.0640 H   0  0  0  0  0  0  0  0  0  0  0  0
    1.0810    9.2630   23.3620 H   0  0  0  0  0  0  0  0  0  0  0  0
    2.0270    7.3150   22.2640 H   0  0  0  0  0  0  0  0  0  0  0  0
    2.1760    6.8530   19.5790 N   0  0  0  0  0  0  0  0  0  0  0  0
    3.1220    6.9570   18.4690 C   0  0  0  0  0  0  0  0  0  0  0  0
    3.3860    5.5390   18.1100 C   0  0  0  0  0  0  0  0  0  0  0  0
    2.6580    4.6940   18.9310 C   0  0  0  0  0  0  0  0  0  0  0  0
    2.7100    3.3250   18.8180 C   0  0  0  0  0  0  0  0  0  0  0  0
    3.5430    2.8570   17.8250 C   0  0  0  0  0  0  0  0  0  0  0  0
    4.2740    3.6560   16.9980 N   0  0  0  0  0  0  0  0  0  0  0  0
    4.2020    5.0080   17.1350 C   0  0  0  0  0  0  0  0  0  0  0  0
    1.8810    5.5160   19.8640 C   0  0  0  0  0  0  0  0  0  0  0  0
    1.1380    5.0180   20.6890 O   0  0  0  0  0  0  0  0  0  0  0  0
    4.0400    7.4460   18.8090 H   0  0  0  0  0  0  0  0  0  0  0  0
    2.6530    7.4820   17.6300 H   0  0  0  0  0  0  0  0  0  0  0  0
    2.1390    2.6700   19.4610 H   0  0  0  0  0  0  0  0  0  0  0  0
    3.6590    1.7900   17.6480 H   0  0  0  0  0  0  0  0  0  0  0  0
    5.0720    5.8490   16.1230 C   0  0  0  0  0  0  0  0  0  0  0  0
    6.5230    6.2620   16.5010 C   0  0  0  0  0  0  0  0  0  0  0  0
    7.0230    5.0410   15.7080 C   0  0  0  0  0  0  0  0  0  0  0  0
    5.7010    5.0900   14.9200 C   0  0  0  0  0  0  0  0  0  0  0  0
    4.4980    6.7260   15.7880 H   0  0  0  0  0  0  0  0  0  0  0  0
    6.7760    6.2720   17.5650 H   0  0  0  0  0  0  0  0  0  0  0  0
    6.8290    7.2210   16.0660 H   0  0  0  0  0  0  0  0  0  0  0  0
    7.9320    5.1970   15.1190 H   0  0  0  0  0  0  0  0  0  0  0  0
    7.1450    4.1370   16.3140 H   0  0  0  0  0  0  0  0  0  0  0  0
    5.2670    4.1180   14.6740 H   0  0  0  0  0  0  0  0  0  0  0  0
    5.7550    5.6910   14.0040 H   0  0  0  0  0  0  0  0  0  0  0  0
   -0.0780   11.3130   19.2840 C   0  0  2  0  0  0  0  0  0  0  0  0
   -0.6760   11.9640   19.9370 H   0  0  0  0  0  0  0  0  0  0  0  0
   -1.0630   10.7460   18.2520 C   0  0  0  0  0  0  0  0  0  0  0  0
   -0.9930    9.6540   18.2010 H   0  0  0  0  0  0  0  0  0  0  0  0
   -0.8840   11.1450   17.2480 H   0  0  0  0  0  0  0  0  0  0  0  0
   -2.0920   11.0020   18.5260 H   0  0  0  0  0  0  0  0  0  0  0  0
    0.9980   12.1690   18.5840 C   0  0  0  0  0  0  0  0  0  0  0  0
    0.5670   12.6230   17.6820 H   0  0  0  0  0  0  0  0  0  0  0  0
    1.8320   11.5440   18.2400 H   0  0  0  0  0  0  0  0  0  0  0  0
    1.4840   13.2850   19.4500 C   0  0  0  0  0  0  0  0  0  0  0  0
    2.5100   13.2270   20.2770 N   0  0  0  0  0  0  0  0  0  0  0  0
    2.6550   14.4570   20.8710 N   0  0  0  0  0  0  0  0  0  0  0  0
    1.7100   15.2370   20.4040 C   0  0  0  0  0  0  0  0  0  0  0  0
    0.9450   14.5440   19.5160 N   0  0  0  0  0  0  0  0  0  0  0  0
    1.5490   16.2720   20.6700 H   0  0  0  0  0  0  0  0  0  0  0  0
   -0.1960   15.0600   18.8110 C   0  0  0  0  0  0  0  0  0  0  0  0
    0.0780   15.9890   18.3020 H   0  0  0  0  0  0  0  0  0  0  0  0
   -0.5160   14.3210   18.0750 H   0  0  0  0  0  0  0  0  0  0  0  0
   -0.9950   15.2650   19.5290 H   0  0  0  0  0  0  0  0  0  0  0  0
  1  2  1  0  0  0  0
  2  8  1  0  0  0  0
  2  3  2  0  0  0  0
  3  9  1  0  0  0  0
  4 10  1  0  0  0  0
  4  3  1  0  0  0  0
  5  4  2  0  0  0  0
  6  1  2  0  0  0  0
  6  5  1  0  0  0  0
  7  6  1  0  0  0  0
 11 19  1  0  0  0  0
 11  5  1  0  0  0  0
 12 21  1  0  0  0  0
 12 11  1  0  0  0  0
 13 12  1  0  0  0  0
 13 14  1  0  0  0  0
 14 19  1  0  0  0  0
 15 14  2  0  0  0  0
 15 23  1  0  0  0  0
 16 15  1  0  0  0  0
 17 18  1  0  0  0  0
 17 16  2  0  0  0  0
 18 13  2  0  0  0  0
 19 20  2  0  0  0  0
 22 12  1  0  0  0  0
 24 16  1  0  0  0  0
 25 26  1  0  0  0  0
 25 18  1  0  0  0  0
 26 30  1  0  0  0  0
 27 33  1  0  0  0  0
 27 26  1  0  0  0  0
 28 27  1  0  0  0  0
 28 25  1  0  0  0  0
 29 25  1  0  0  0  0
 31 26  1  0  0  0  0
 32 27  1  0  0  0  0
 34 28  1  0  0  0  0
 35 28  1  0  0  0  0
 36 37  1  1  0  0  0
 36  1  1  0  0  0  0
 38 41  1  0  0  0  0
 38 36  1  0  0  0  0
 39 38  1  0  0  0  0
 40 38  1  0  0  0  0
 42 36  1  0  0  0  0
 42 45  1  0  0  0  0
 43 42  1  0  0  0  0
 44 42  1  0  0  0  0
 45 49  1  0  0  0  0
 45 46  2  0  0  0  0
 46 47  1  0  0  0  0
 48 50  1  0  0  0  0
 48 47  2  0  0  0  0
 49 48  1  0  0  0  0
 51 49  1  0  0  0  0
 51 54  1  0  0  0  0
 52 51  1  0  0  0  0
 53 51  1  0  0  0  0
M  END
>  <MODEL>
8

>  <REMARK>
 VINA RESULT:    -7.144      2.286      3.165
 INTER + INTRA:         -10.756
 INTER:                 -10.323
 INTRA:                  -0.433
 UNBOUND:                -1.106
  Name = 
  7 active torsions:
  status: ('A' for Active; 'I' for Inactive)
    1  A    between atoms: C_1  and  C_2
    2  A    between atoms: C_2  and  C_3
    3  A    between atoms: C_2  and  C_10
    4  A    between atoms: C_3  and  C_4
    5  A    between atoms: N_8  and  C_9
    6  A    between atoms: C_14  and  N_15
    7  A    between atoms: C_22  and  C_23
                            x       y       z     vdW  Elec       q    Type
                         _______ _______ _______ _____ _____    ______ ____

>  <TORSDO>
F 7

$$$$
=
 OpenBabel07192307433D

 54 58  0  0  1  0  0  0  0  0999 V2000
    0.3850   10.0890   20.5740 C   0  0  0  0  0  0  0  0  0  0  0  0
   -0.0920   10.6830   19.4000 C   0  0  0  0  0  0  0  0  0  0  0  0
    0.2070   10.1230   18.1610 C   0  0  0  0  0  0  0  0  0  0  0  0
    0.9960    8.9710   18.0740 C   0  0  0  0  0  0  0  0  0  0  0  0
    1.5020    8.3470   19.2210 C   0  0  0  0  0  0  0  0  0  0  0  0
    1.1680    8.9240   20.4620 C   0  0  0  0  0  0  0  0  0  0  0  0
    1.6130    8.3660   21.6000 F   0  0  0  0  0  0  0  0  0  0  0  0
   -0.6950   11.5880   19.4320 H   0  0  0  0  0  0  0  0  0  0  0  0
   -0.1730   10.5810   17.2500 H   0  0  0  0  0  0  0  0  0  0  0  0
    1.1950    8.5830   17.0800 H   0  0  0  0  0  0  0  0  0  0  0  0
    2.3260    7.1860   19.1340 N   0  0  0  0  0  0  0  0  0  0  0  0
    3.4530    7.0980   18.2080 C   0  0  0  0  0  0  0  0  0  0  0  0
    3.9990    5.7380   18.4600 C   0  0  0  0  0  0  0  0  0  0  0  0
    3.2530    5.0980   19.4360 C   0  0  0  0  0  0  0  0  0  0  0  0
    3.5340    3.8230   19.8650 C   0  0  0  0  0  0  0  0  0  0  0  0
    4.6160    3.2300   19.2510 C   0  0  0  0  0  0  0  0  0  0  0  0
    5.3730    3.8270   18.2870 N   0  0  0  0  0  0  0  0  0  0  0  0
    5.0700    5.0910   17.8830 C   0  0  0  0  0  0  0  0  0  0  0  0
    2.1840    6.0040   19.8670 C   0  0  0  0  0  0  0  0  0  0  0  0
    1.3710    5.6770   20.7120 O   0  0  0  0  0  0  0  0  0  0  0  0
    4.1960    7.8620   18.4550 H   0  0  0  0  0  0  0  0  0  0  0  0
    3.0940    7.1800   17.1760 H   0  0  0  0  0  0  0  0  0  0  0  0
    2.9490    3.3270   20.6270 H   0  0  0  0  0  0  0  0  0  0  0  0
    4.9270    2.2210   19.5140 H   0  0  0  0  0  0  0  0  0  0  0  0
    5.9920    5.6920   16.7540 C   0  0  0  0  0  0  0  0  0  0  0  0
    7.0300    4.7850   16.0330 C   0  0  0  0  0  0  0  0  0  0  0  0
    6.0010    4.5930   14.9030 C   0  0  0  0  0  0  0  0  0  0  0  0
    5.3520    5.9150   15.3530 C   0  0  0  0  0  0  0  0  0  0  0  0
    6.4740    6.6090   17.1250 H   0  0  0  0  0  0  0  0  0  0  0  0
    7.3400    3.8740   16.5520 H   0  0  0  0  0  0  0  0  0  0  0  0
    7.9310    5.3240   15.7160 H   0  0  0  0  0  0  0  0  0  0  0  0
    6.4070    4.5860   13.8880 H   0  0  0  0  0  0  0  0  0  0  0  0
    5.3570    3.7160   15.0340 H   0  0  0  0  0  0  0  0  0  0  0  0
    4.2600    5.9380   15.3120 H   0  0  0  0  0  0  0  0  0  0  0  0
    5.7410    6.7970   14.8310 H   0  0  0  0  0  0  0  0  0  0  0  0
    0.1280   10.6940   21.9480 C   0  0  2  0  0  0  0  0  0  0  0  0
    1.0760   11.0960   22.3360 H   0  0  0  0  0  0  0  0  0  0  0  0
   -0.3170    9.6350   22.9670 C   0  0  0  0  0  0  0  0  0  0  0  0
   -0.1410    8.6230   22.5840 H   0  0  0  0  0  0  0  0  0  0  0  0
   -1.3800    9.7230   23.2160 H   0  0  0  0  0  0  0  0  0  0  0  0
    0.2470    9.7420   23.8990 H   0  0  0  0  0  0  0  0  0  0  0  0
   -0.9020   11.8390   21.8790 C   0  0  0  0  0  0  0  0  0  0  0  0
   -1.6210   11.7280   22.7030 H   0  0  0  0  0  0  0  0  0  0  0  0
   -1.4910   11.7810   20.9550 H   0  0  0  0  0  0  0  0  0  0  0  0
   -0.2660   13.1830   22.0280 C   0  0  0  0  0  0  0  0  0  0  0  0
    0.7950   13.6080   21.3690 N   0  0  0  0  0  0  0  0  0  0  0  0
    1.0570   14.8990   21.7620 N   0  0  0  0  0  0  0  0  0  0  0  0
    0.1580   15.2310   22.6580 C   0  0  0  0  0  0  0  0  0  0  0  0
   -0.6870   14.1840   22.8640 N   0  0  0  0  0  0  0  0  0  0  0  0
    0.0850   16.1830   23.1630 H   0  0  0  0  0  0  0  0  0  0  0  0
   -1.7890   14.1660   23.7870 C   0  0  0  0  0  0  0  0  0  0  0  0
   -1.4680   14.5760   24.7480 H   0  0  0  0  0  0  0  0  0  0  0  0
   -2.5970   14.7760   23.3800 H   0  0  0  0  0  0  0  0  0  0  0  0
   -2.1170   13.1320   23.9290 H   0  0  0  0  0  0  0  0  0  0  0  0
  1 36  1  0  0  0  0
  2  8  1  0  0  0  0
  2  1  2  0  0  0  0
  3  2  1  0  0  0  0
  4  3  2  0  0  0  0
  4  5  1  0  0  0  0
  5  6  2  0  0  0  0
  6  1  1  0  0  0  0
  6  7  1  0  0  0  0
  9  3  1  0  0  0  0
 10  4  1  0  0  0  0
 11  5  1  0  0  0  0
 11 19  1  0  0  0  0
 12 21  1  0  0  0  0
 12 13  1  0  0  0  0
 12 11  1  0  0  0  0
 13 14  1  0  0  0  0
 14 15  2  0  0  0  0
 14 19  1  0  0  0  0
 15 23  1  0  0  0  0
 16 24  1  0  0  0  0
 16 15  1  0  0  0  0
 17 16  2  0  0  0  0
 18 17  1  0  0  0  0
 18 13  2  0  0  0  0
 19 20  2  0  0  0  0
 22 12  1  0  0  0  0
 25 29  1  0  0  0  0
 25 18  1  0  0  0  0
 26 30  1  0  0  0  0
 26 25  1  0  0  0  0
 27 33  1  0  0  0  0
 27 28  1  0  0  0  0
 27 26  1  0  0  0  0
 28 25  1  0  0  0  0
 31 26  1  0  0  0  0
 32 27  1  0  0  0  0
 34 28  1  0  0  0  0
 35 28  1  0  0  0  0
 36 37  1  1  0  0  0
 36 38  1  0  0  0  0
 38 40  1  0  0  0  0
 38 41  1  0  0  0  0
 39 38  1  0  0  0  0
 42 36  1  0  0  0  0
 42 45  1  0  0  0  0
 42 43  1  0  0  0  0
 44 42  1  0  0  0  0
 45 49  1  0  0  0  0
 46 47  1  0  0  0  0
 46 45  2  0  0  0  0
 47 48  2  0  0  0  0
 48 49  1  0  0  0  0
 48 50  1  0  0  0  0
 49 51  1  0  0  0  0
 51 54  1  0  0  0  0
 51 52  1  0  0  0  0
 53 51  1  0  0  0  0
M  END
>  <MODEL>
9

>  <REMARK>
 VINA RESULT:    -7.131      2.834      3.779
 INTER + INTRA:         -10.738
 INTER:                 -10.421
 INTRA:                  -0.317
 UNBOUND:                -1.106
  Name = 
  7 active torsions:
  status: ('A' for Active; 'I' for Inactive)
    1  A    between atoms: C_1  and  C_2
    2  A    between atoms: C_2  and  C_3
    3  A    between atoms: C_2  and  C_10
    4  A    between atoms: C_3  and  C_4
    5  A    between atoms: N_8  and  C_9
    6  A    between atoms: C_14  and  N_15
    7  A    between atoms: C_22  and  C_23
                            x       y       z     vdW  Elec       q    Type
                         _______ _______ _______ _____ _____    ______ ____

>  <TORSDO>
F 7

$$$$
=
 OpenBabel07192307433D

 54 58  0  0  1  0  0  0  0  0999 V2000
    0.4790   10.3440   20.2210 C   0  0  0  0  0  0  0  0  0  0  0  0
   -0.1650   10.7460   19.0460 C   0  0  0  0  0  0  0  0  0  0  0  0
   -0.0050   10.0120   17.8740 C   0  0  0  0  0  0  0  0  0  0  0  0
    0.8100    8.8760   17.8540 C   0  0  0  0  0  0  0  0  0  0  0  0
    1.4810    8.4400   19.0020 C   0  0  0  0  0  0  0  0  0  0  0  0
    1.2860    9.1900   20.1790 C   0  0  0  0  0  0  0  0  0  0  0  0
    1.8930    8.8180   21.3170 F   0  0  0  0  0  0  0  0  0  0  0  0
   -0.7930   11.6340   19.0250 H   0  0  0  0  0  0  0  0  0  0  0  0
   -0.5150   10.3220   16.9640 H   0  0  0  0  0  0  0  0  0  0  0  0
    0.8950    8.3470   16.9090 H   0  0  0  0  0  0  0  0  0  0  0  0
    2.3310    7.2940   18.9780 N   0  0  0  0  0  0  0  0  0  0  0  0
    3.4440    7.1700   18.0410 C   0  0  0  0  0  0  0  0  0  0  0  0
    4.0260    5.8440   18.3730 C   0  0  0  0  0  0  0  0  0  0  0  0
    3.3130    5.2530   19.4030 C   0  0  0  0  0  0  0  0  0  0  0  0
    3.6310    4.0170   19.9120 C   0  0  0  0  0  0  0  0  0  0  0  0
    4.7160    3.4080   19.3190 C   0  0  0  0  0  0  0  0  0  0  0  0
    5.4420    3.9560   18.3040 N   0  0  0  0  0  0  0  0  0  0  0  0
    5.1030    5.1830   17.8210 C   0  0  0  0  0  0  0  0  0  0  0  0
    2.2290    6.1620   19.7920 C   0  0  0  0  0  0  0  0  0  0  0  0
    1.4380    5.8740   20.6710 O   0  0  0  0  0  0  0  0  0  0  0  0
    4.1730    7.9660   18.2220 H   0  0  0  0  0  0  0  0  0  0  0  0
    3.0660    7.1740   17.0120 H   0  0  0  0  0  0  0  0  0  0  0  0
    3.0700    3.5600   20.7150 H   0  0  0  0  0  0  0  0  0  0  0  0
    5.0550    2.4270   19.6430 H   0  0  0  0  0  0  0  0  0  0  0  0
    5.9920    5.7270   16.6380 C   0  0  0  0  0  0  0  0  0  0  0  0
    7.0810    4.8180   16.0020 C   0  0  0  0  0  0  0  0  0  0  0  0
    6.0670    4.4620   14.8980 C   0  0  0  0  0  0  0  0  0  0  0  0
    5.3440    5.7820   15.2250 C   0  0  0  0  0  0  0  0  0  0  0  0
    6.4200    6.7010   16.9200 H   0  0  0  0  0  0  0  0  0  0  0  0
    7.4420    3.9780   16.6030 H   0  0  0  0  0  0  0  0  0  0  0  0
    7.9510    5.3750   15.6330 H   0  0  0  0  0  0  0  0  0  0  0  0
    6.4760    4.3840   13.8870 H   0  0  0  0  0  0  0  0  0  0  0  0
    5.4740    3.5670   15.1120 H   0  0  0  0  0  0  0  0  0  0  0  0
    4.2520    5.7390   15.1860 H   0  0  0  0  0  0  0  0  0  0  0  0
    5.6830    6.6320   14.6210 H   0  0  0  0  0  0  0  0  0  0  0  0
    0.3770   11.1430   21.5140 C   0  0  2  0  0  0  0  0  0  0  0  0
    1.3450   11.0940   22.0330 H   0  0  0  0  0  0  0  0  0  0  0  0
   -0.6430   10.5340   22.4860 C   0  0  0  0  0  0  0  0  0  0  0  0
   -1.6460   10.5190   22.0440 H   0  0  0  0  0  0  0  0  0  0  0  0
   -0.6960   11.0870   23.4300 H   0  0  0  0  0  0  0  0  0  0  0  0
   -0.3700    9.5010   22.7280 H   0  0  0  0  0  0  0  0  0  0  0  0
    0.0380   12.6230   21.2400 C   0  0  0  0  0  0  0  0  0  0  0  0
   -0.1580   13.1310   22.1930 H   0  0  0  0  0  0  0  0  0  0  0  0
   -0.8860   12.7110   20.6540 H   0  0  0  0  0  0  0  0  0  0  0  0
    1.1650   13.3470   20.5780 C   0  0  0  0  0  0  0  0  0  0  0  0
    2.4380   13.2580   20.9110 N   0  0  0  0  0  0  0  0  0  0  0  0
    3.1650   14.0500   20.0550 N   0  0  0  0  0  0  0  0  0  0  0  0
    2.3200   14.6140   19.2240 C   0  0  0  0  0  0  0  0  0  0  0  0
    1.0540   14.2100   19.5180 N   0  0  0  0  0  0  0  0  0  0  0  0
    2.5730   15.2950   18.4240 H   0  0  0  0  0  0  0  0  0  0  0  0
   -0.1390   14.6300   18.8360 C   0  0  0  0  0  0  0  0  0  0  0  0
   -0.7470   15.2450   19.5060 H   0  0  0  0  0  0  0  0  0  0  0  0
    0.1450   15.2160   17.9610 H   0  0  0  0  0  0  0  0  0  0  0  0
   -0.7110   13.7450   18.5430 H   0  0  0  0  0  0  0  0  0  0  0  0
  1 36  1  0  0  0  0
  2  1  2  0  0  0  0
  3  2  1  0  0  0  0
  4  3  2  0  0  0  0
  4  5  1  0  0  0  0
  5  6  2  0  0  0  0
  6  1  1  0  0  0  0
  6  7  1  0  0  0  0
  8  2  1  0  0  0  0
  9  3  1  0  0  0  0
 10  4  1  0  0  0  0
 11  5  1  0  0  0  0
 11 19  1  0  0  0  0
 12 21  1  0  0  0  0
 12 13  1  0  0  0  0
 12 11  1  0  0  0  0
 13 14  1  0  0  0  0
 14 19  1  0  0  0  0
 14 15  2  0  0  0  0
 15 23  1  0  0  0  0
 16 24  1  0  0  0  0
 16 15  1  0  0  0  0
 17 16  2  0  0  0  0
 18 17  1  0  0  0  0
 18 13  2  0  0  0  0
 19 20  2  0  0  0  0
 22 12  1  0  0  0  0
 25 29  1  0  0  0  0
 25 18  1  0  0  0  0
 26 30  1  0  0  0  0
 26 25  1  0  0  0  0
 27 33  1  0  0  0  0
 27 28  1  0  0  0  0
 27 26  1  0  0  0  0
 28 25  1  0  0  0  0
 31 26  1  0  0  0  0
 32 27  1  0  0  0  0
 34 28  1  0  0  0  0
 35 28  1  0  0  0  0
 36 37  1  1  0  0  0
 36 38  1  0  0  0  0
 38 41  1  0  0  0  0
 38 40  1  0  0  0  0
 39 38  1  0  0  0  0
 42 36  1  0  0  0  0
 42 43  1  0  0  0  0
 44 42  1  0  0  0  0
 45 46  2  0  0  0  0
 45 42  1  0  0  0  0
 47 46  1  0  0  0  0
 48 49  1  0  0  0  0
 48 47  2  0  0  0  0
 49 45  1  0  0  0  0
 50 48  1  0  0  0  0
 51 52  1  0  0  0  0
 51 49  1  0  0  0  0
 53 51  1  0  0  0  0
 54 51  1  0  0  0  0
M  END
>  <MODEL>
10

>  <REMARK>
 VINA RESULT:    -7.085      2.627      3.554
 INTER + INTRA:         -10.677
 INTER:                  -9.758
 INTRA:                  -0.919
 UNBOUND:                -1.106
  Name = 
  7 active torsions:
  status: ('A' for Active; 'I' for Inactive)
    1  A    between atoms: C_1  and  C_2
    2  A    between atoms: C_2  and  C_3
    3  A    between atoms: C_2  and  C_10
    4  A    between atoms: C_3  and  C_4
    5  A    between atoms: N_8  and  C_9
    6  A    between atoms: C_14  and  N_15
    7  A    between atoms: C_22  and  C_23
                            x       y       z     vdW  Elec       q    Type
                         _______ _______ _______ _____ _____    ______ ____

>  <TORSDO>
F 7

$$$$
=
 OpenBabel07192307433D

 54 58  0  0  1  0  0  0  0  0999 V2000
    1.9800    7.6580   19.5750 C   0  0  0  0  0  0  0  0  0  0  0  0
    1.9930    7.7590   18.1790 C   0  0  0  0  0  0  0  0  0  0  0  0
    1.5740    8.9330   17.5590 C   0  0  0  0  0  0  0  0  0  0  0  0
    1.1240   10.0170   18.3200 C   0  0  0  0  0  0  0  0  0  0  0  0
    1.0860    9.9590   19.7180 C   0  0  0  0  0  0  0  0  0  0  0  0
    1.5340    8.7670   20.3200 C   0  0  0  0  0  0  0  0  0  0  0  0
    1.5320    8.6520   21.6580 F   0  0  0  0  0  0  0  0  0  0  0  0
    2.3220    6.9300   17.5580 H   0  0  0  0  0  0  0  0  0  0  0  0
    1.5940    9.0130   16.4740 H   0  0  0  0  0  0  0  0  0  0  0  0
    0.8100   10.9040   17.7780 H   0  0  0  0  0  0  0  0  0  0  0  0
    0.6060   11.0550   20.4960 N   0  0  0  0  0  0  0  0  0  0  0  0
   -0.6690   11.0050   21.2070 C   0  0  0  0  0  0  0  0  0  0  0  0
   -0.7510   12.3390   21.8580 C   0  0  0  0  0  0  0  0  0  0  0  0
    0.3690   13.0920   21.5460 C   0  0  0  0  0  0  0  0  0  0  0  0
    0.5550   14.3720   22.0130 C   0  0  0  0  0  0  0  0  0  0  0  0
   -0.4590   14.8490   22.8140 C   0  0  0  0  0  0  0  0  0  0  0  0
   -1.5750   14.1400   23.1430 N   0  0  0  0  0  0  0  0  0  0  0  0
   -1.7310   12.8740   22.6660 C   0  0  0  0  0  0  0  0  0  0  0  0
    1.2350   12.2900   20.6770 C   0  0  0  0  0  0  0  0  0  0  0  0
    2.2860   12.7260   20.2430 O   0  0  0  0  0  0  0  0  0  0  0  0
   -0.6440   10.2110   21.9600 H   0  0  0  0  0  0  0  0  0  0  0  0
   -1.4890   10.8780   20.4920 H   0  0  0  0  0  0  0  0  0  0  0  0
    1.4310   14.9550   21.7660 H   0  0  0  0  0  0  0  0  0  0  0  0
   -0.4140   15.8500   23.2380 H   0  0  0  0  0  0  0  0  0  0  0  0
   -3.0610   12.1390   23.0870 C   0  0  0  0  0  0  0  0  0  0  0  0
   -3.8140   12.5720   24.3760 C   0  0  0  0  0  0  0  0  0  0  0  0
   -4.7310   13.4360   23.4900 C   0  0  0  0  0  0  0  0  0  0  0  0
   -4.3590   12.5140   22.3140 C   0  0  0  0  0  0  0  0  0  0  0  0
   -2.8940   11.0520   23.0850 H   0  0  0  0  0  0  0  0  0  0  0  0
   -3.2380   13.1140   25.1320 H   0  0  0  0  0  0  0  0  0  0  0  0
   -4.3380   11.7460   24.8720 H   0  0  0  0  0  0  0  0  0  0  0  0
   -5.7880   13.4450   23.7690 H   0  0  0  0  0  0  0  0  0  0  0  0
   -4.3870   14.4690   23.3690 H   0  0  0  0  0  0  0  0  0  0  0  0
   -4.2280   13.0130   21.3510 H   0  0  0  0  0  0  0  0  0  0  0  0
   -5.0470   11.6700   22.1810 H   0  0  0  0  0  0  0  0  0  0  0  0
    2.3790    6.3780   20.2970 C   0  0  2  0  0  0  0  0  0  0  0  0
    2.7190    6.6380   21.3090 H   0  0  0  0  0  0  0  0  0  0  0  0
    3.5750    5.6890   19.6250 C   0  0  0  0  0  0  0  0  0  0  0  0
    3.7370    4.6890   20.0420 H   0  0  0  0  0  0  0  0  0  0  0  0
    4.5020    6.2610   19.7450 H   0  0  0  0  0  0  0  0  0  0  0  0
    3.3970    5.5770   18.5500 H   0  0  0  0  0  0  0  0  0  0  0  0
    1.1920    5.3990   20.4100 C   0  0  0  0  0  0  0  0  0  0  0  0
    0.3020    5.8560   19.9570 H   0  0  0  0  0  0  0  0  0  0  0  0
    0.9350    5.2160   21.4610 H   0  0  0  0  0  0  0  0  0  0  0  0
    1.4450    4.1170   19.6870 C   0  0  0  0  0  0  0  0  0  0  0  0
    1.3260    3.9300   18.3870 N   0  0  0  0  0  0  0  0  0  0  0  0
    1.6700    2.6300   18.1040 N   0  0  0  0  0  0  0  0  0  0  0  0
    1.9830    2.0480   19.2380 C   0  0  0  0  0  0  0  0  0  0  0  0
    1.8480    2.9370   20.2590 N   0  0  0  0  0  0  0  0  0  0  0  0
    2.3000    1.0220   19.3590 H   0  0  0  0  0  0  0  0  0  0  0  0
    2.0860    2.6600   21.6490 C   0  0  0  0  0  0  0  0  0  0  0  0
    3.0870    2.2380   21.7720 H   0  0  0  0  0  0  0  0  0  0  0  0
    2.0110    3.5930   22.2100 H   0  0  0  0  0  0  0  0  0  0  0  0
    1.3450    1.9360   21.9990 H   0  0  0  0  0  0  0  0  0  0  0  0
  1 36  1  0  0  0  0
  1  6  1  0  0  0  0
  2  1  2  0  0  0  0
  3  2  1  0  0  0  0
  3  4  2  0  0  0  0
  4  5  1  0  0  0  0
  5  6  2  0  0  0  0
  5 11  1  0  0  0  0
  6  7  1  0  0  0  0
  8  2  1  0  0  0  0
  9  3  1  0  0  0  0
 10  4  1  0  0  0  0
 11 19  1  0  0  0  0
 11 12  1  0  0  0  0
 12 13  1  0  0  0  0
 12 21  1  0  0  0  0
 13 18  1  0  0  0  0
 14 13  2  0  0  0  0
 14 15  1  0  0  0  0
 15 16  2  0  0  0  0
 16 17  1  0  0  0  0
 16 24  1  0  0  0  0
 18 25  1  0  0  0  0
 18 17  2  0  0  0  0
 19 14  1  0  0  0  0
 20 19  2  0  0  0  0
 22 12  1  0  0  0  0
 23 15  1  0  0  0  0
 25 26  1  0  0  0  0
 26 31  1  0  0  0  0
 26 30  1  0  0  0  0
 27 32  1  0  0  0  0
 27 26  1  0  0  0  0
 28 25  1  0  0  0  0
 28 27  1  0  0  0  0
 29 25  1  0  0  0  0
 33 27  1  0  0  0  0
 34 28  1  0  0  0  0
 35 28  1  0  0  0  0
 36 42  1  0  0  0  0
 36 37  1  1  0  0  0
 38 40  1  0  0  0  0
 38 39  1  0  0  0  0
 38 36  1  0  0  0  0
 41 38  1  0  0  0  0
 42 44  1  0  0  0  0
 43 42  1  0  0  0  0
 45 49  1  0  0  0  0
 45 42  1  0  0  0  0
 46 45  2  0  0  0  0
 47 46  1  0  0  0  0
 47 48  2  0  0  0  0
 48 50  1  0  0  0  0
 48 49  1  0  0  0  0
 49 51  1  0  0  0  0
 51 52  1  0  0  0  0
 51 54  1  0  0  0  0
 51 53  1  0  0  0  0
M  END
>  <MODEL>
11

>  <REMARK>
 VINA RESULT:    -7.071      3.577      9.356
 INTER + INTRA:         -10.658
 INTER:                  -9.957
 INTRA:                  -0.701
 UNBOUND:                -1.106
  Name = 
  7 active torsions:
  status: ('A' for Active; 'I' for Inactive)
    1  A    between atoms: C_1  and  C_2
    2  A    between atoms: C_2  and  C_3
    3  A    between atoms: C_2  and  C_10
    4  A    between atoms: C_3  and  C_4
    5  A    between atoms: N_8  and  C_9
    6  A    between atoms: C_14  and  N_15
    7  A    between atoms: C_22  and  C_23
                            x       y       z     vdW  Elec       q    Type
                         _______ _______ _______ _____ _____    ______ ____

>  <TORSDO>
F 7

$$$$
=
 OpenBabel07192307433D

 54 58  0  0  1  0  0  0  0  0999 V2000
   -0.4500   11.5730   20.8300 C   0  0  0  0  0  0  0  0  0  0  0  0
   -1.4580   11.8400   19.8970 C   0  0  0  0  0  0  0  0  0  0  0  0
   -1.5600   11.0730   18.7390 C   0  0  0  0  0  0  0  0  0  0  0  0
   -0.6510   10.0400   18.4890 C   0  0  0  0  0  0  0  0  0  0  0  0
    0.3780    9.7420   19.3900 C   0  0  0  0  0  0  0  0  0  0  0  0
    0.4460   10.5200   20.5620 C   0  0  0  0  0  0  0  0  0  0  0  0
    1.4040   10.2770   21.4710 F   0  0  0  0  0  0  0  0  0  0  0  0
   -2.1710   12.6460   20.0550 H   0  0  0  0  0  0  0  0  0  0  0  0
   -2.3500   11.2770   18.0190 H   0  0  0  0  0  0  0  0  0  0  0  0
   -0.7820    9.4800   17.5690 H   0  0  0  0  0  0  0  0  0  0  0  0
    1.3210    8.7040   19.1260 N   0  0  0  0  0  0  0  0  0  0  0  0
    1.3500    7.4630   19.8970 C   0  0  0  0  0  0  0  0  0  0  0  0
    2.4710    6.7050   19.2840 C   0  0  0  0  0  0  0  0  0  0  0  0
    3.0410    7.4400   18.2580 C   0  0  0  0  0  0  0  0  0  0  0  0
    4.1030    6.9790   17.5180 C   0  0  0  0  0  0  0  0  0  0  0  0
    4.5590    5.7280   17.8740 C   0  0  0  0  0  0  0  0  0  0  0  0
    4.0250    4.9750   18.8760 N   0  0  0  0  0  0  0  0  0  0  0  0
    2.9730    5.4580   19.5920 C   0  0  0  0  0  0  0  0  0  0  0  0
    2.3240    8.7140   18.1520 C   0  0  0  0  0  0  0  0  0  0  0  0
    2.6370    9.5580   17.3330 O   0  0  0  0  0  0  0  0  0  0  0  0
    0.4060    6.9250   19.7690 H   0  0  0  0  0  0  0  0  0  0  0  0
    1.5670    7.6840   20.9480 H   0  0  0  0  0  0  0  0  0  0  0  0
    4.5450    7.5570   16.7180 H   0  0  0  0  0  0  0  0  0  0  0  0
    5.3950    5.2670   17.3540 H   0  0  0  0  0  0  0  0  0  0  0  0
    2.4340    4.5220   20.7410 C   0  0  0  0  0  0  0  0  0  0  0  0
    1.0070    3.9120   20.6420 C   0  0  0  0  0  0  0  0  0  0  0  0
    1.6500    2.6290   20.0810 C   0  0  0  0  0  0  0  0  0  0  0  0
    2.9570    3.0580   20.7730 C   0  0  0  0  0  0  0  0  0  0  0  0
    2.5730    5.0190   21.7130 H   0  0  0  0  0  0  0  0  0  0  0  0
    0.2960    4.4140   19.9790 H   0  0  0  0  0  0  0  0  0  0  0  0
    0.5260    3.7700   21.6170 H   0  0  0  0  0  0  0  0  0  0  0  0
    1.2140    1.6890   20.4310 H   0  0  0  0  0  0  0  0  0  0  0  0
    1.7130    2.6050   18.9880 H   0  0  0  0  0  0  0  0  0  0  0  0
    3.8720    2.8530   20.2110 H   0  0  0  0  0  0  0  0  0  0  0  0
    3.0720    2.6560   21.7870 H   0  0  0  0  0  0  0  0  0  0  0  0
   -0.2660   12.4160   22.0860 C   0  0  2  0  0  0  0  0  0  0  0  0
    0.6170   12.0480   22.6280 H   0  0  0  0  0  0  0  0  0  0  0  0
   -1.4420   12.2610   23.0590 C   0  0  0  0  0  0  0  0  0  0  0  0
   -1.9670   11.3130   22.8920 H   0  0  0  0  0  0  0  0  0  0  0  0
   -2.1700   13.0730   22.9610 H   0  0  0  0  0  0  0  0  0  0  0  0
   -1.0840   12.2650   24.0940 H   0  0  0  0  0  0  0  0  0  0  0  0
   -0.0480   13.9040   21.7410 C   0  0  0  0  0  0  0  0  0  0  0  0
    0.1610   14.4610   22.6640 H   0  0  0  0  0  0  0  0  0  0  0  0
   -0.9610   14.3460   21.3210 H   0  0  0  0  0  0  0  0  0  0  0  0
    1.1170   14.1090   20.8290 C   0  0  0  0  0  0  0  0  0  0  0  0
    2.3700   13.7970   21.1010 N   0  0  0  0  0  0  0  0  0  0  0  0
    3.1390   14.1120   20.0060 N   0  0  0  0  0  0  0  0  0  0  0  0
    2.3430   14.6170   19.0940 C   0  0  0  0  0  0  0  0  0  0  0  0
    1.0680   14.6430   19.5680 N   0  0  0  0  0  0  0  0  0  0  0  0
    2.6380   14.9630   18.1140 H   0  0  0  0  0  0  0  0  0  0  0  0
   -0.0790   15.1440   18.8600 C   0  0  0  0  0  0  0  0  0  0  0  0
   -0.8830   15.3580   19.5710 H   0  0  0  0  0  0  0  0  0  0  0  0
    0.2030   16.0620   18.3410 H   0  0  0  0  0  0  0  0  0  0  0  0
   -0.4190   14.3850   18.1510 H   0  0  0  0  0  0  0  0  0  0  0  0
  1 36  1  0  0  0  0
  2  8  1  0  0  0  0
  2  1  2  0  0  0  0
  3  2  1  0  0  0  0
  4  3  2  0  0  0  0
  4  5  1  0  0  0  0
  5  6  2  0  0  0  0
  6  1  1  0  0  0  0
  6  7  1  0  0  0  0
  9  3  1  0  0  0  0
 10  4  1  0  0  0  0
 11  5  1  0  0  0  0
 11 12  1  0  0  0  0
 12 22  1  0  0  0  0
 13 18  1  0  0  0  0
 13 12  1  0  0  0  0
 14 13  2  0  0  0  0
 15 16  2  0  0  0  0
 15 14  1  0  0  0  0
 16 17  1  0  0  0  0
 17 18  2  0  0  0  0
 18 25  1  0  0  0  0
 19 14  1  0  0  0  0
 19 11  1  0  0  0  0
 20 19  2  0  0  0  0
 21 12  1  0  0  0  0
 23 15  1  0  0  0  0
 24 16  1  0  0  0  0
 25 28  1  0  0  0  0
 25 29  1  0  0  0  0
 26 25  1  0  0  0  0
 26 31  1  0  0  0  0
 27 32  1  0  0  0  0
 27 26  1  0  0  0  0
 27 28  1  0  0  0  0
 28 35  1  0  0  0  0
 30 26  1  0  0  0  0
 33 27  1  0  0  0  0
 34 28  1  0  0  0  0
 36 37  1  1  0  0  0
 36 38  1  0  0  0  0
 38 41  1  0  0  0  0
 39 38  1  0  0  0  0
 40 38  1  0  0  0  0
 42 36  1  0  0  0  0
 42 43  1  0  0  0  0
 44 42  1  0  0  0  0
 45 46  2  0  0  0  0
 45 42  1  0  0  0  0
 47 46  1  0  0  0  0
 48 49  1  0  0  0  0
 48 47  2  0  0  0  0
 49 45  1  0  0  0  0
 50 48  1  0  0  0  0
 51 49  1  0  0  0  0
 51 52  1  0  0  0  0
 53 51  1  0  0  0  0
 54 51  1  0  0  0  0
M  END
>  <MODEL>
12

>  <REMARK>
 VINA RESULT:    -7.034      3.004      4.850
 INTER + INTRA:         -10.607
 INTER:                  -9.187
 INTRA:                  -1.420
 UNBOUND:                -1.106
  Name = 
  7 active torsions:
  status: ('A' for Active; 'I' for Inactive)
    1  A    between atoms: C_1  and  C_2
    2  A    between atoms: C_2  and  C_3
    3  A    between atoms: C_2  and  C_10
    4  A    between atoms: C_3  and  C_4
    5  A    between atoms: N_8  and  C_9
    6  A    between atoms: C_14  and  N_15
    7  A    between atoms: C_22  and  C_23
                            x       y       z     vdW  Elec       q    Type
                         _______ _______ _______ _____ _____    ______ ____

>  <TORSDO>
F 7

$$$$
=
 OpenBabel07192307433D

 54 58  0  0  1  0  0  0  0  0999 V2000
   -0.7260   11.6100   19.2220 C   0  0  0  0  0  0  0  0  0  0  0  0
    0.1040   12.6580   18.8090 C   0  0  0  0  0  0  0  0  0  0  0  0
    1.4370   12.4120   18.4910 C   0  0  0  0  0  0  0  0  0  0  0  0
    1.9640   11.1200   18.5930 C   0  0  0  0  0  0  0  0  0  0  0  0
    1.1740   10.0420   19.0100 C   0  0  0  0  0  0  0  0  0  0  0  0
   -0.1750   10.3160   19.3060 C   0  0  0  0  0  0  0  0  0  0  0  0
   -0.9880    9.3230   19.7010 F   0  0  0  0  0  0  0  0  0  0  0  0
   -0.2710   13.6760   18.7340 H   0  0  0  0  0  0  0  0  0  0  0  0
    2.0780   13.2270   18.1620 H   0  0  0  0  0  0  0  0  0  0  0  0
    3.0110   10.9920   18.3330 H   0  0  0  0  0  0  0  0  0  0  0  0
    1.7160    8.7280   19.1370 N   0  0  0  0  0  0  0  0  0  0  0  0
    2.5250    8.1140   18.0870 C   0  0  0  0  0  0  0  0  0  0  0  0
    2.8540    6.7760   18.6460 C   0  0  0  0  0  0  0  0  0  0  0  0
    2.2840    6.6290   19.9000 C   0  0  0  0  0  0  0  0  0  0  0  0
    2.4250    5.4850   20.6480 C   0  0  0  0  0  0  0  0  0  0  0  0
    3.1780    4.4940   20.0560 C   0  0  0  0  0  0  0  0  0  0  0  0
    3.7540    4.6020   18.8250 N   0  0  0  0  0  0  0  0  0  0  0  0
    3.5970    5.7480   18.1080 C   0  0  0  0  0  0  0  0  0  0  0  0
    1.5530    7.8590   20.2200 C   0  0  0  0  0  0  0  0  0  0  0  0
    0.9420    7.9860   21.2650 O   0  0  0  0  0  0  0  0  0  0  0  0
    3.4360    8.7000   17.9300 H   0  0  0  0  0  0  0  0  0  0  0  0
    1.9300    8.0090   17.1730 H   0  0  0  0  0  0  0  0  0  0  0  0
    1.9770    5.3740   21.6260 H   0  0  0  0  0  0  0  0  0  0  0  0
    3.3530    3.5460   20.5590 H   0  0  0  0  0  0  0  0  0  0  0  0
    4.2880    5.7720   16.6910 C   0  0  0  0  0  0  0  0  0  0  0  0
    5.5290    6.6770   16.4460 C   0  0  0  0  0  0  0  0  0  0  0  0
    6.4150    5.4440   16.7070 C   0  0  0  0  0  0  0  0  0  0  0  0
    5.2050    4.5720   16.3230 C   0  0  0  0  0  0  0  0  0  0  0  0
    3.5260    5.9470   15.9160 H   0  0  0  0  0  0  0  0  0  0  0  0
    5.6740    7.5180   17.1290 H   0  0  0  0  0  0  0  0  0  0  0  0
    5.5960    7.0530   15.4180 H   0  0  0  0  0  0  0  0  0  0  0  0
    7.2930    5.3470   16.0630 H   0  0  0  0  0  0  0  0  0  0  0  0
    6.7260    5.3350   17.7510 H   0  0  0  0  0  0  0  0  0  0  0  0
    5.0790    3.6610   16.9130 H   0  0  0  0  0  0  0  0  0  0  0  0
    5.1730    4.3060   15.2590 H   0  0  0  0  0  0  0  0  0  0  0  0
   -2.1750   11.8380   19.6300 C   0  0  2  0  0  0  0  0  0  0  0  0
   -2.5030   10.9890   20.2460 H   0  0  0  0  0  0  0  0  0  0  0  0
   -3.1170   11.8560   18.4180 C   0  0  0  0  0  0  0  0  0  0  0  0
   -2.6650   11.3410   17.5620 H   0  0  0  0  0  0  0  0  0  0  0  0
   -3.3700   12.8750   18.1050 H   0  0  0  0  0  0  0  0  0  0  0  0
   -4.0560   11.3450   18.6560 H   0  0  0  0  0  0  0  0  0  0  0  0
   -2.3340   13.1350   20.4510 C   0  0  0  0  0  0  0  0  0  0  0  0
   -2.9410   13.8510   19.8810 H   0  0  0  0  0  0  0  0  0  0  0  0
   -1.3630   13.6190   20.6100 H   0  0  0  0  0  0  0  0  0  0  0  0
   -3.0350   12.8990   21.7490 C   0  0  0  0  0  0  0  0  0  0  0  0
   -4.2680   13.2710   22.0360 N   0  0  0  0  0  0  0  0  0  0  0  0
   -4.5590   12.8510   23.3130 N   0  0  0  0  0  0  0  0  0  0  0  0
   -3.4960   12.2410   23.7810 C   0  0  0  0  0  0  0  0  0  0  0  0
   -2.5120   12.2540   22.8400 N   0  0  0  0  0  0  0  0  0  0  0  0
   -3.3990   11.7930   24.7590 H   0  0  0  0  0  0  0  0  0  0  0  0
   -1.1960   11.6970   22.9960 C   0  0  0  0  0  0  0  0  0  0  0  0
   -0.5400   12.0840   22.2110 H   0  0  0  0  0  0  0  0  0  0  0  0
   -0.8070   11.9860   23.9730 H   0  0  0  0  0  0  0  0  0  0  0  0
   -1.2580   10.6080   22.9090 H   0  0  0  0  0  0  0  0  0  0  0  0
  1  6  1  0  0  0  0
  1 36  1  0  0  0  0
  2  1  2  0  0  0  0
  3  4  2  0  0  0  0
  3  2  1  0  0  0  0
  4  5  1  0  0  0  0
  5 11  1  0  0  0  0
  5  6  2  0  0  0  0
  6  7  1  0  0  0  0
  8  2  1  0  0  0  0
  9  3  1  0  0  0  0
 10  4  1  0  0  0  0
 11 19  1  0  0  0  0
 12 13  1  0  0  0  0
 12 11  1  0  0  0  0
 13 14  1  0  0  0  0
 14 19  1  0  0  0  0
 14 15  2  0  0  0  0
 15 23  1  0  0  0  0
 16 24  1  0  0  0  0
 16 15  1  0  0  0  0
 17 16  2  0  0  0  0
 18 13  2  0  0  0  0
 18 17  1  0  0  0  0
 19 20  2  0  0  0  0
 21 12  1  0  0  0  0
 22 12  1  0  0  0  0
 25 18  1  0  0  0  0
 26 25  1  0  0  0  0
 26 27  1  0  0  0  0
 26 30  1  0  0  0  0
 27 33  1  0  0  0  0
 28 25  1  0  0  0  0
 28 27  1  0  0  0  0
 28 34  1  0  0  0  0
 29 25  1  0  0  0  0
 31 26  1  0  0  0  0
 32 27  1  0  0  0  0
 35 28  1  0  0  0  0
 36 37  1  1  0  0  0
 36 42  1  0  0  0  0
 38 41  1  0  0  0  0
 38 36  1  0  0  0  0
 39 38  1  0  0  0  0
 40 38  1  0  0  0  0
 42 44  1  0  0  0  0
 42 45  1  0  0  0  0
 43 42  1  0  0  0  0
 45 46  2  0  0  0  0
 45 49  1  0  0  0  0
 46 47  1  0  0  0  0
 47 48  2  0  0  0  0
 48 50  1  0  0  0  0
 49 51  1  0  0  0  0
 49 48  1  0  0  0  0
 51 53  1  0  0  0  0
 52 51  1  0  0  0  0
 54 51  1  0  0  0  0
M  END
>  <MODEL>
13

>  <REMARK>
 VINA RESULT:    -6.949      2.557      3.704
 INTER + INTRA:         -10.492
 INTER:                  -9.676
 INTRA:                  -0.817
 UNBOUND:                -1.106
  Name = 
  7 active torsions:
  status: ('A' for Active; 'I' for Inactive)
    1  A    between atoms: C_1  and  C_2
    2  A    between atoms: C_2  and  C_3
    3  A    between atoms: C_2  and  C_10
    4  A    between atoms: C_3  and  C_4
    5  A    between atoms: N_8  and  C_9
    6  A    between atoms: C_14  and  N_15
    7  A    between atoms: C_22  and  C_23
                            x       y       z     vdW  Elec       q    Type
                         _______ _______ _______ _____ _____    ______ ____

>  <TORSDO>
F 7

$$$$
=
 OpenBabel07192307433D

 54 58  0  0  1  0  0  0  0  0999 V2000
    2.3410    7.2730   19.4350 C   0  0  0  0  0  0  0  0  0  0  0  0
    3.0430    7.4220   18.2330 C   0  0  0  0  0  0  0  0  0  0  0  0
    2.8090    8.5260   17.4180 C   0  0  0  0  0  0  0  0  0  0  0  0
    1.8630    9.4900   17.7830 C   0  0  0  0  0  0  0  0  0  0  0  0
    1.1320    9.3790   18.9710 C   0  0  0  0  0  0  0  0  0  0  0  0
    1.4020    8.2620   19.7860 C   0  0  0  0  0  0  0  0  0  0  0  0
    0.7420    8.1040   20.9450 F   0  0  0  0  0  0  0  0  0  0  0  0
    3.7740    6.6820   17.9130 H   0  0  0  0  0  0  0  0  0  0  0  0
    3.3620    8.6440   16.4890 H   0  0  0  0  0  0  0  0  0  0  0  0
    1.7250   10.3270   17.1050 H   0  0  0  0  0  0  0  0  0  0  0  0
    0.1500   10.3490   19.3340 N   0  0  0  0  0  0  0  0  0  0  0  0
   -1.2230   10.2920   18.8370 C   0  0  0  0  0  0  0  0  0  0  0  0
   -1.8630   11.4790   19.4610 C   0  0  0  0  0  0  0  0  0  0  0  0
   -0.9450   12.1630   20.2410 C   0  0  0  0  0  0  0  0  0  0  0  0
   -1.2660   13.3050   20.9340 C   0  0  0  0  0  0  0  0  0  0  0  0
   -2.5730   13.7190   20.7940 C   0  0  0  0  0  0  0  0  0  0  0  0
   -3.5050   13.0740   20.0360 N   0  0  0  0  0  0  0  0  0  0  0  0
   -3.1560   11.9450   19.3610 C   0  0  0  0  0  0  0  0  0  0  0  0
    0.3390   11.4590   20.1630 C   0  0  0  0  0  0  0  0  0  0  0  0
    1.3260   11.8630   20.7490 O   0  0  0  0  0  0  0  0  0  0  0  0
   -1.7030    9.3700   19.1810 H   0  0  0  0  0  0  0  0  0  0  0  0
   -1.2270   10.3850   17.7460 H   0  0  0  0  0  0  0  0  0  0  0  0
   -0.5460   13.8360   21.5410 H   0  0  0  0  0  0  0  0  0  0  0  0
   -2.9360   14.6120   21.2980 H   0  0  0  0  0  0  0  0  0  0  0  0
   -4.2970   11.2780   18.5000 C   0  0  0  0  0  0  0  0  0  0  0  0
   -4.8770   12.0260   17.2660 C   0  0  0  0  0  0  0  0  0  0  0  0
   -3.9160   11.2070   16.3830 C   0  0  0  0  0  0  0  0  0  0  0  0
   -3.8780   10.1560   17.5080 C   0  0  0  0  0  0  0  0  0  0  0  0
   -5.1080   10.9440   19.1640 H   0  0  0  0  0  0  0  0  0  0  0  0
   -4.7430   13.1100   17.2320 H   0  0  0  0  0  0  0  0  0  0  0  0
   -5.9350   11.8050   17.0820 H   0  0  0  0  0  0  0  0  0  0  0  0
   -4.3250   10.8650   15.4280 H   0  0  0  0  0  0  0  0  0  0  0  0
   -2.9540   11.6970   16.2010 H   0  0  0  0  0  0  0  0  0  0  0  0
   -2.9050    9.6890   17.6790 H   0  0  0  0  0  0  0  0  0  0  0  0
   -4.6310    9.3650   17.3990 H   0  0  0  0  0  0  0  0  0  0  0  0
    2.5240    6.0570   20.3330 C   0  0  2  0  0  0  0  0  0  0  0  0
    2.7430    6.4050   21.3530 H   0  0  0  0  0  0  0  0  0  0  0  0
    3.7370    5.2130   19.9170 C   0  0  0  0  0  0  0  0  0  0  0  0
    3.5040    4.1430   19.9570 H   0  0  0  0  0  0  0  0  0  0  0  0
    4.6070    5.3940   20.5570 H   0  0  0  0  0  0  0  0  0  0  0  0
    4.0330    5.4510   18.8890 H   0  0  0  0  0  0  0  0  0  0  0  0
    1.2530    5.1850   20.3710 C   0  0  0  0  0  0  0  0  0  0  0  0
    0.4380    5.7130   19.8580 H   0  0  0  0  0  0  0  0  0  0  0  0
    0.9120    5.0340   21.4040 H   0  0  0  0  0  0  0  0  0  0  0  0
    1.4410    3.8790   19.6710 C   0  0  0  0  0  0  0  0  0  0  0  0
    1.3620    3.6860   18.3690 N   0  0  0  0  0  0  0  0  0  0  0  0
    1.6220    2.3600   18.1130 N   0  0  0  0  0  0  0  0  0  0  0  0
    1.8450    1.7710   19.2630 C   0  0  0  0  0  0  0  0  0  0  0  0
    1.7340    2.6800   20.2700 N   0  0  0  0  0  0  0  0  0  0  0  0
    2.0810    0.7270   19.4070 H   0  0  0  0  0  0  0  0  0  0  0  0
    1.8940    2.4030   21.6710 C   0  0  0  0  0  0  0  0  0  0  0  0
    2.2170    1.3670   21.8050 H   0  0  0  0  0  0  0  0  0  0  0  0
    2.6500    3.0770   22.0780 H   0  0  0  0  0  0  0  0  0  0  0  0
    0.9330    2.5480   22.1740 H   0  0  0  0  0  0  0  0  0  0  0  0
  1  6  1  0  0  0  0
  1 36  1  0  0  0  0
  2  1  2  0  0  0  0
  3  4  2  0  0  0  0
  3  2  1  0  0  0  0
  4  5  1  0  0  0  0
  5 11  1  0  0  0  0
  5  6  2  0  0  0  0
  6  7  1  0  0  0  0
  8  2  1  0  0  0  0
  9  3  1  0  0  0  0
 10  4  1  0  0  0  0
 11 19  1  0  0  0  0
 12 21  1  0  0  0  0
 12 11  1  0  0  0  0
 12 13  1  0  0  0  0
 13 14  1  0  0  0  0
 14 15  2  0  0  0  0
 15 23  1  0  0  0  0
 16 15  1  0  0  0  0
 16 24  1  0  0  0  0
 17 16  2  0  0  0  0
 18 13  2  0  0  0  0
 18 17  1  0  0  0  0
 19 14  1  0  0  0  0
 19 20  2  0  0  0  0
 22 12  1  0  0  0  0
 25 29  1  0  0  0  0
 25 18  1  0  0  0  0
 26 25  1  0  0  0  0
 27 26  1  0  0  0  0
 27 28  1  0  0  0  0
 28 34  1  0  0  0  0
 28 25  1  0  0  0  0
 30 26  1  0  0  0  0
 31 26  1  0  0  0  0
 32 27  1  0  0  0  0
 33 27  1  0  0  0  0
 35 28  1  0  0  0  0
 36 42  1  0  0  0  0
 36 37  1  1  0  0  0
 38 39  1  0  0  0  0
 38 36  1  0  0  0  0
 38 40  1  0  0  0  0
 41 38  1  0  0  0  0
 42 44  1  0  0  0  0
 43 42  1  0  0  0  0
 45 49  1  0  0  0  0
 45 42  1  0  0  0  0
 46 45  2  0  0  0  0
 47 46  1  0  0  0  0
 47 48  2  0  0  0  0
 48 50  1  0  0  0  0
 48 49  1  0  0  0  0
 49 51  1  0  0  0  0
 51 52  1  0  0  0  0
 51 53  1  0  0  0  0
 51 54  1  0  0  0  0
M  END
>  <MODEL>
14

>  <REMARK>
 VINA RESULT:    -6.922      2.915      8.679
 INTER + INTRA:         -10.457
 INTER:                 -10.096
 INTRA:                  -0.360
 UNBOUND:                -1.106
  Name = 
  7 active torsions:
  status: ('A' for Active; 'I' for Inactive)
    1  A    between atoms: C_1  and  C_2
    2  A    between atoms: C_2  and  C_3
    3  A    between atoms: C_2  and  C_10
    4  A    between atoms: C_3  and  C_4
    5  A    between atoms: N_8  and  C_9
    6  A    between atoms: C_14  and  N_15
    7  A    between atoms: C_22  and  C_23
                            x       y       z     vdW  Elec       q    Type
                         _______ _______ _______ _____ _____    ______ ____

>  <TORSDO>
F 7

$$$$
=
 OpenBabel07192307433D

 54 58  0  0  1  0  0  0  0  0999 V2000
    3.3970    5.4840   18.7870 C   0  0  0  0  0  0  0  0  0  0  0  0
    3.1740    4.4740   19.7290 C   0  0  0  0  0  0  0  0  0  0  0  0
    2.2950    4.6860   20.7870 C   0  0  0  0  0  0  0  0  0  0  0  0
    1.6370    5.9120   20.9290 C   0  0  0  0  0  0  0  0  0  0  0  0
    1.8360    6.9550   20.0170 C   0  0  0  0  0  0  0  0  0  0  0  0
    2.7150    6.7060   18.9450 C   0  0  0  0  0  0  0  0  0  0  0  0
    2.9400    7.6620   18.0290 F   0  0  0  0  0  0  0  0  0  0  0  0
    3.6810    3.5140   19.6560 H   0  0  0  0  0  0  0  0  0  0  0  0
    2.1160    3.8950   21.5140 H   0  0  0  0  0  0  0  0  0  0  0  0
    0.9660    6.0170   21.7760 H   0  0  0  0  0  0  0  0  0  0  0  0
    1.1840    8.2140   20.1720 N   0  0  0  0  0  0  0  0  0  0  0  0
    0.3810    8.8130   19.1090 C   0  0  0  0  0  0  0  0  0  0  0  0
   -0.0830   10.0920   19.7070 C   0  0  0  0  0  0  0  0  0  0  0  0
    0.4100   10.2230   20.9950 C   0  0  0  0  0  0  0  0  0  0  0  0
    0.1410   11.3160   21.7840 C   0  0  0  0  0  0  0  0  0  0  0  0
   -0.6600   12.2710   21.1960 C   0  0  0  0  0  0  0  0  0  0  0  0
   -1.1640   12.1780   19.9330 N   0  0  0  0  0  0  0  0  0  0  0  0
   -0.8790   11.0840   19.1760 C   0  0  0  0  0  0  0  0  0  0  0  0
    1.2220    9.0410   21.3000 C   0  0  0  0  0  0  0  0  0  0  0  0
    1.7880    8.9120   22.3700 O   0  0  0  0  0  0  0  0  0  0  0  0
   -0.4700    8.1650   18.8770 H   0  0  0  0  0  0  0  0  0  0  0  0
    1.0100    9.0070   18.2330 H   0  0  0  0  0  0  0  0  0  0  0  0
    0.5290   11.4140   22.7880 H   0  0  0  0  0  0  0  0  0  0  0  0
   -0.9360   13.1770   21.7310 H   0  0  0  0  0  0  0  0  0  0  0  0
   -1.4930   11.0730   17.7240 C   0  0  0  0  0  0  0  0  0  0  0  0
   -1.8720    9.7240   17.0500 C   0  0  0  0  0  0  0  0  0  0  0  0
   -3.3220    9.9560   17.5160 C   0  0  0  0  0  0  0  0  0  0  0  0
   -2.9930   11.4590   17.5810 C   0  0  0  0  0  0  0  0  0  0  0  0
   -0.8600   11.6730   17.0540 H   0  0  0  0  0  0  0  0  0  0  0  0
   -1.3890    8.8210   17.4350 H   0  0  0  0  0  0  0  0  0  0  0  0
   -1.7570    9.7350   15.9590 H   0  0  0  0  0  0  0  0  0  0  0  0
   -4.1010    9.6710   16.8030 H   0  0  0  0  0  0  0  0  0  0  0  0
   -3.5520    9.5100   18.4890 H   0  0  0  0  0  0  0  0  0  0  0  0
   -3.4410   12.0000   18.4180 H   0  0  0  0  0  0  0  0  0  0  0  0
   -3.2190   12.0000   16.6530 H   0  0  0  0  0  0  0  0  0  0  0  0
    4.3880    5.3180   17.6420 C   0  0  2  0  0  0  0  0  0  0  0  0
    4.4180    6.2540   17.0670 H   0  0  0  0  0  0  0  0  0  0  0  0
    3.9420    4.2370   16.6490 C   0  0  0  0  0  0  0  0  0  0  0  0
    4.3330    3.2540   16.9350 H   0  0  0  0  0  0  0  0  0  0  0  0
    4.2760    4.4500   15.6280 H   0  0  0  0  0  0  0  0  0  0  0  0
    2.8490    4.1670   16.6270 H   0  0  0  0  0  0  0  0  0  0  0  0
    5.8090    5.0140   18.1630 C   0  0  0  0  0  0  0  0  0  0  0  0
    6.2550    4.2200   17.5500 H   0  0  0  0  0  0  0  0  0  0  0  0
    5.7740    4.6220   19.1870 H   0  0  0  0  0  0  0  0  0  0  0  0
    6.7110    6.2010   18.0710 C   0  0  0  0  0  0  0  0  0  0  0  0
    6.5760    7.2060   17.2280 N   0  0  0  0  0  0  0  0  0  0  0  0
    7.5820    8.1110   17.4700 N   0  0  0  0  0  0  0  0  0  0  0  0
    8.3150    7.6350   18.4490 C   0  0  0  0  0  0  0  0  0  0  0  0
    7.8130    6.4360   18.8520 N   0  0  0  0  0  0  0  0  0  0  0  0
    9.1850    8.1090   18.8800 H   0  0  0  0  0  0  0  0  0  0  0  0
    8.3580    5.6050   19.8910 C   0  0  0  0  0  0  0  0  0  0  0  0
    8.3110    6.1360   20.8460 H   0  0  0  0  0  0  0  0  0  0  0  0
    7.7680    4.6890   19.9530 H   0  0  0  0  0  0  0  0  0  0  0  0
    9.4020    5.3810   19.6550 H   0  0  0  0  0  0  0  0  0  0  0  0
  1  6  2  0  0  0  0
  1  2  1  0  0  0  0
  2  3  2  0  0  0  0
  3  4  1  0  0  0  0
  3  9  1  0  0  0  0
  4 10  1  0  0  0  0
  5 11  1  0  0  0  0
  5  4  2  0  0  0  0
  6  5  1  0  0  0  0
  7  6  1  0  0  0  0
  8  2  1  0  0  0  0
 11 19  1  0  0  0  0
 12 13  1  0  0  0  0
 12 11  1  0  0  0  0
 13 14  1  0  0  0  0
 14 19  1  0  0  0  0
 14 15  2  0  0  0  0
 15 23  1  0  0  0  0
 16 24  1  0  0  0  0
 16 15  1  0  0  0  0
 17 16  2  0  0  0  0
 18 13  2  0  0  0  0
 18 17  1  0  0  0  0
 19 20  2  0  0  0  0
 21 12  1  0  0  0  0
 22 12  1  0  0  0  0
 25 18  1  0  0  0  0
 26 30  1  0  0  0  0
 26 27  1  0  0  0  0
 26 25  1  0  0  0  0
 27 28  1  0  0  0  0
 27 33  1  0  0  0  0
 28 25  1  0  0  0  0
 28 34  1  0  0  0  0
 29 25  1  0  0  0  0
 31 26  1  0  0  0  0
 32 27  1  0  0  0  0
 35 28  1  0  0  0  0
 36 37  1  6  0  0  0
 36 42  1  0  0  0  0
 36  1  1  0  0  0  0
 38 39  1  0  0  0  0
 38 36  1  0  0  0  0
 40 38  1  0  0  0  0
 41 38  1  0  0  0  0
 42 44  1  0  0  0  0
 43 42  1  0  0  0  0
 45 42  1  0  0  0  0
 45 49  1  0  0  0  0
 46 47  1  0  0  0  0
 46 45  2  0  0  0  0
 47 48  2  0  0  0  0
 48 49  1  0  0  0  0
 48 50  1  0  0  0  0
 49 51  1  0  0  0  0
 51 53  1  0  0  0  0
 51 52  1  0  0  0  0
 54 51  1  0  0  0  0
M  END
>  <MODEL>
15

>  <REMARK>
 VINA RESULT:    -6.771      2.300      8.461
 INTER + INTRA:         -10.252
 INTER:                  -9.405
 INTRA:                  -0.847
 UNBOUND:                -1.106
  Name = 
  7 active torsions:
  status: ('A' for Active; 'I' for Inactive)
    1  A    between atoms: C_1  and  C_2
    2  A    between atoms: C_2  and  C_3
    3  A    between atoms: C_2  and  C_10
    4  A    between atoms: C_3  and  C_4
    5  A    between atoms: N_8  and  C_9
    6  A    between atoms: C_14  and  N_15
    7  A    between atoms: C_22  and  C_23
                            x       y       z     vdW  Elec       q    Type
                         _______ _______ _______ _____ _____    ______ ____

>  <TORSDO>
F 7

$$$$
=
 OpenBabel07192307433D

 54 58  0  0  1  0  0  0  0  0999 V2000
   -0.6770   11.4620   20.9650 C   0  0  0  0  0  0  0  0  0  0  0  0
   -1.5420   11.8840   19.9500 C   0  0  0  0  0  0  0  0  0  0  0  0
   -1.5010   11.2760   18.6980 C   0  0  0  0  0  0  0  0  0  0  0  0
   -0.5860   10.2490   18.4370 C   0  0  0  0  0  0  0  0  0  0  0  0
    0.3040    9.8000   19.4200 C   0  0  0  0  0  0  0  0  0  0  0  0
    0.2260   10.4190   20.6830 C   0  0  0  0  0  0  0  0  0  0  0  0
    1.0460   10.0270   21.6720 F   0  0  0  0  0  0  0  0  0  0  0  0
   -2.2540   12.6890   20.1150 H   0  0  0  0  0  0  0  0  0  0  0  0
   -2.1800   11.5990   17.9120 H   0  0  0  0  0  0  0  0  0  0  0  0
   -0.6010    9.8160   17.4420 H   0  0  0  0  0  0  0  0  0  0  0  0
    1.2530    8.7700   19.1500 N   0  0  0  0  0  0  0  0  0  0  0  0
    1.2860    7.5230   19.9100 C   0  0  0  0  0  0  0  0  0  0  0  0
    2.4140    6.7750   19.2940 C   0  0  0  0  0  0  0  0  0  0  0  0
    2.9830    7.5230   18.2760 C   0  0  0  0  0  0  0  0  0  0  0  0
    4.0490    7.0740   17.5350 C   0  0  0  0  0  0  0  0  0  0  0  0
    4.5100    5.8230   17.8810 C   0  0  0  0  0  0  0  0  0  0  0  0
    3.9780    5.0580   18.8760 N   0  0  0  0  0  0  0  0  0  0  0  0
    2.9210    5.5290   19.5920 C   0  0  0  0  0  0  0  0  0  0  0  0
    2.2590    8.7940   18.1790 C   0  0  0  0  0  0  0  0  0  0  0  0
    2.5700    9.6470   17.3680 O   0  0  0  0  0  0  0  0  0  0  0  0
    0.3450    6.9800   19.7750 H   0  0  0  0  0  0  0  0  0  0  0  0
    1.5000    7.7360   20.9630 H   0  0  0  0  0  0  0  0  0  0  0  0
    4.4910    7.6620   16.7410 H   0  0  0  0  0  0  0  0  0  0  0  0
    5.3510    5.3710   17.3600 H   0  0  0  0  0  0  0  0  0  0  0  0
    2.3840    4.5800   20.7310 C   0  0  0  0  0  0  0  0  0  0  0  0
    0.9800    3.9240   20.5990 C   0  0  0  0  0  0  0  0  0  0  0  0
    1.6780    2.6610   20.0610 C   0  0  0  0  0  0  0  0  0  0  0  0
    2.9530    3.1330   20.7820 C   0  0  0  0  0  0  0  0  0  0  0  0
    2.4830    5.0840   21.7040 H   0  0  0  0  0  0  0  0  0  0  0  0
    0.2700    4.4000   19.9180 H   0  0  0  0  0  0  0  0  0  0  0  0
    0.4800    3.7700   21.5630 H   0  0  0  0  0  0  0  0  0  0  0  0
    1.2640    1.7080   20.4040 H   0  0  0  0  0  0  0  0  0  0  0  0
    1.7690    2.6350   18.9700 H   0  0  0  0  0  0  0  0  0  0  0  0
    3.8880    2.9560   20.2440 H   0  0  0  0  0  0  0  0  0  0  0  0
    3.0550    2.7390   21.8010 H   0  0  0  0  0  0  0  0  0  0  0  0
   -0.6500   12.1310   22.3340 C   0  0  2  0  0  0  0  0  0  0  0  0
    0.3320   11.9480   22.7930 H   0  0  0  0  0  0  0  0  0  0  0  0
   -1.6760   11.5140   23.2940 C   0  0  0  0  0  0  0  0  0  0  0  0
   -1.1960   10.8060   23.9790 H   0  0  0  0  0  0  0  0  0  0  0  0
   -2.4740   10.9850   22.7630 H   0  0  0  0  0  0  0  0  0  0  0  0
   -2.1490   12.2950   23.9000 H   0  0  0  0  0  0  0  0  0  0  0  0
   -0.8670   13.6550   22.2230 C   0  0  0  0  0  0  0  0  0  0  0  0
   -1.3290   13.8840   21.2540 H   0  0  0  0  0  0  0  0  0  0  0  0
    0.0910   14.1880   22.2360 H   0  0  0  0  0  0  0  0  0  0  0  0
   -1.7850   14.1730   23.2820 C   0  0  0  0  0  0  0  0  0  0  0  0
   -1.4270   14.5380   24.4990 N   0  0  0  0  0  0  0  0  0  0  0  0
   -2.5460   14.9810   25.1620 N   0  0  0  0  0  0  0  0  0  0  0  0
   -3.5640   14.8680   24.3420 C   0  0  0  0  0  0  0  0  0  0  0  0
   -3.1370   14.3580   23.1540 N   0  0  0  0  0  0  0  0  0  0  0  0
   -4.5880   15.1340   24.5590 H   0  0  0  0  0  0  0  0  0  0  0  0
   -3.9680   14.0770   22.0160 C   0  0  0  0  0  0  0  0  0  0  0  0
   -3.7800   14.8180   21.2330 H   0  0  0  0  0  0  0  0  0  0  0  0
   -3.7240   13.0810   21.6420 H   0  0  0  0  0  0  0  0  0  0  0  0
   -5.0170   14.1330   22.3190 H   0  0  0  0  0  0  0  0  0  0  0  0
  1 36  1  0  0  0  0
  2  8  1  0  0  0  0
  2  1  2  0  0  0  0
  3  2  1  0  0  0  0
  4  3  2  0  0  0  0
  4  5  1  0  0  0  0
  5  6  2  0  0  0  0
  6  1  1  0  0  0  0
  6  7  1  0  0  0  0
  9  3  1  0  0  0  0
 10  4  1  0  0  0  0
 11  5  1  0  0  0  0
 11 12  1  0  0  0  0
 12 22  1  0  0  0  0
 13 18  1  0  0  0  0
 13 12  1  0  0  0  0
 14 13  2  0  0  0  0
 15 16  2  0  0  0  0
 15 14  1  0  0  0  0
 16 17  1  0  0  0  0
 17 18  2  0  0  0  0
 18 25  1  0  0  0  0
 19 14  1  0  0  0  0
 19 11  1  0  0  0  0
 20 19  2  0  0  0  0
 21 12  1  0  0  0  0
 23 15  1  0  0  0  0
 24 16  1  0  0  0  0
 25 28  1  0  0  0  0
 25 29  1  0  0  0  0
 26 25  1  0  0  0  0
 26 31  1  0  0  0  0
 27 32  1  0  0  0  0
 27 26  1  0  0  0  0
 27 28  1  0  0  0  0
 28 35  1  0  0  0  0
 30 26  1  0  0  0  0
 33 27  1  0  0  0  0
 34 28  1  0  0  0  0
 36 37  1  1  0  0  0
 36 38  1  0  0  0  0
 38 41  1  0  0  0  0
 38 39  1  0  0  0  0
 40 38  1  0  0  0  0
 42 44  1  0  0  0  0
 42 36  1  0  0  0  0
 42 45  1  0  0  0  0
 43 42  1  0  0  0  0
 45 46  2  0  0  0  0
 46 47  1  0  0  0  0
 48 50  1  0  0  0  0
 48 47  2  0  0  0  0
 49 45  1  0  0  0  0
 49 48  1  0  0  0  0
 51 54  1  0  0  0  0
 51 49  1  0  0  0  0
 52 51  1  0  0  0  0
 53 51  1  0  0  0  0
M  END
>  <MODEL>
16

>  <REMARK>
 VINA RESULT:    -6.769      3.621      5.203
 INTER + INTRA:         -10.250
 INTER:                  -9.486
 INTRA:                  -0.764
 UNBOUND:                -1.106
  Name = 
  7 active torsions:
  status: ('A' for Active; 'I' for Inactive)
    1  A    between atoms: C_1  and  C_2
    2  A    between atoms: C_2  and  C_3
    3  A    between atoms: C_2  and  C_10
    4  A    between atoms: C_3  and  C_4
    5  A    between atoms: N_8  and  C_9
    6  A    between atoms: C_14  and  N_15
    7  A    between atoms: C_22  and  C_23
                            x       y       z     vdW  Elec       q    Type
                         _______ _______ _______ _____ _____    ______ ____

>  <TORSDO>
F 7

$$$$
=
 OpenBabel07192307433D

 54 58  0  0  1  0  0  0  0  0999 V2000
    2.6820    6.5080   18.6670 C   0  0  0  0  0  0  0  0  0  0  0  0
    2.5630    5.8050   19.8710 C   0  0  0  0  0  0  0  0  0  0  0  0
    1.9210    6.3890   20.9600 C   0  0  0  0  0  0  0  0  0  0  0  0
    1.4030    7.6850   20.8680 C   0  0  0  0  0  0  0  0  0  0  0  0
    1.5060    8.4280   19.6870 C   0  0  0  0  0  0  0  0  0  0  0  0
    2.1430    7.8070   18.5950 C   0  0  0  0  0  0  0  0  0  0  0  0
    2.2640    8.4630   17.4300 F   0  0  0  0  0  0  0  0  0  0  0  0
    2.9680    4.8020   19.9800 H   0  0  0  0  0  0  0  0  0  0  0  0
    1.8210    5.8370   21.8930 H   0  0  0  0  0  0  0  0  0  0  0  0
    0.9150    8.0850   21.7520 H   0  0  0  0  0  0  0  0  0  0  0  0
    0.9990    9.7590   19.5980 N   0  0  0  0  0  0  0  0  0  0  0  0
   -0.1450   10.2110   20.3860 C   0  0  0  0  0  0  0  0  0  0  0  0
   -0.3110   11.6280   19.9690 C   0  0  0  0  0  0  0  0  0  0  0  0
    0.6450   11.9630   19.0240 C   0  0  0  0  0  0  0  0  0  0  0  0
    0.7230   13.2140   18.4610 C   0  0  0  0  0  0  0  0  0  0  0  0
   -0.2220   14.1110   18.9080 C   0  0  0  0  0  0  0  0  0  0  0  0
   -1.1770   13.8190   19.8350 N   0  0  0  0  0  0  0  0  0  0  0  0
   -1.2300   12.5710   20.3760 C   0  0  0  0  0  0  0  0  0  0  0  0
    1.4790   10.7830   18.7750 C   0  0  0  0  0  0  0  0  0  0  0  0
    2.3910   10.8020   17.9690 O   0  0  0  0  0  0  0  0  0  0  0  0
    0.0910   10.1480   21.4530 H   0  0  0  0  0  0  0  0  0  0  0  0
   -1.0340    9.6280   20.1190 H   0  0  0  0  0  0  0  0  0  0  0  0
    1.4710   13.4700   17.7230 H   0  0  0  0  0  0  0  0  0  0  0  0
   -0.2520   15.1300   18.5290 H   0  0  0  0  0  0  0  0  0  0  0  0
   -2.3780   12.3240   21.4280 C   0  0  0  0  0  0  0  0  0  0  0  0
   -2.0220   11.9420   22.8920 C   0  0  0  0  0  0  0  0  0  0  0  0
   -2.1840   13.4280   23.2650 C   0  0  0  0  0  0  0  0  0  0  0  0
   -3.0820   13.5770   22.0230 C   0  0  0  0  0  0  0  0  0  0  0  0
   -3.1090   11.6150   21.0120 H   0  0  0  0  0  0  0  0  0  0  0  0
   -1.0310   11.5140   23.0690 H   0  0  0  0  0  0  0  0  0  0  0  0
   -2.7670   11.2900   23.3640 H   0  0  0  0  0  0  0  0  0  0  0  0
   -2.6670   13.6260   24.2260 H   0  0  0  0  0  0  0  0  0  0  0  0
   -1.2530   14.0020   23.2110 H   0  0  0  0  0  0  0  0  0  0  0  0
   -2.9640   14.5130   21.4710 H   0  0  0  0  0  0  0  0  0  0  0  0
   -4.1480   13.4230   22.2290 H   0  0  0  0  0  0  0  0  0  0  0  0
    3.4200    5.9320   17.4650 C   0  0  2  0  0  0  0  0  0  0  0  0
    2.9070    6.2590   16.5490 H   0  0  0  0  0  0  0  0  0  0  0  0
    3.3690    4.3980   17.4400 C   0  0  0  0  0  0  0  0  0  0  0  0
    3.8790    4.0030   16.5540 H   0  0  0  0  0  0  0  0  0  0  0  0
    2.3420    4.0190   17.4380 H   0  0  0  0  0  0  0  0  0  0  0  0
    3.8680    3.9860   18.3240 H   0  0  0  0  0  0  0  0  0  0  0  0
    4.8830    6.4210   17.4120 C   0  0  0  0  0  0  0  0  0  0  0  0
    5.3710    6.2010   18.3700 H   0  0  0  0  0  0  0  0  0  0  0  0
    4.9270    7.5110   17.2920 H   0  0  0  0  0  0  0  0  0  0  0  0
    5.6710    5.7300   16.3470 C   0  0  0  0  0  0  0  0  0  0  0  0
    5.3920    5.7350   15.0580 N   0  0  0  0  0  0  0  0  0  0  0  0
    6.3620    5.0130   14.4040 N   0  0  0  0  0  0  0  0  0  0  0  0
    7.2060    4.5750   15.3070 C   0  0  0  0  0  0  0  0  0  0  0  0
    6.8100    4.9910   16.5410 N   0  0  0  0  0  0  0  0  0  0  0  0
    8.0850    3.9750   15.1190 H   0  0  0  0  0  0  0  0  0  0  0  0
    7.4740    4.6930   17.7800 C   0  0  0  0  0  0  0  0  0  0  0  0
    8.4580    4.2620   17.5740 H   0  0  0  0  0  0  0  0  0  0  0  0
    7.5930    5.6190   18.3450 H   0  0  0  0  0  0  0  0  0  0  0  0
    6.8750    3.9700   18.3400 H   0  0  0  0  0  0  0  0  0  0  0  0
  1  2  1  0  0  0  0
  2  8  1  0  0  0  0
  2  3  2  0  0  0  0
  3  9  1  0  0  0  0
  4  3  1  0  0  0  0
  4 10  1  0  0  0  0
  5  4  2  0  0  0  0
  6  1  2  0  0  0  0
  6  5  1  0  0  0  0
  7  6  1  0  0  0  0
 11  5  1  0  0  0  0
 11 12  1  0  0  0  0
 12 21  1  0  0  0  0
 13 18  1  0  0  0  0
 13 12  1  0  0  0  0
 14 13  2  0  0  0  0
 15 16  2  0  0  0  0
 15 14  1  0  0  0  0
 16 17  1  0  0  0  0
 17 18  2  0  0  0  0
 18 25  1  0  0  0  0
 19 14  1  0  0  0  0
 19 11  1  0  0  0  0
 20 19  2  0  0  0  0
 22 12  1  0  0  0  0
 23 15  1  0  0  0  0
 24 16  1  0  0  0  0
 25 28  1  0  0  0  0
 25 26  1  0  0  0  0
 26 30  1  0  0  0  0
 26 27  1  0  0  0  0
 26 31  1  0  0  0  0
 27 32  1  0  0  0  0
 28 35  1  0  0  0  0
 28 27  1  0  0  0  0
 29 25  1  0  0  0  0
 33 27  1  0  0  0  0
 34 28  1  0  0  0  0
 36 37  1  6  0  0  0
 36  1  1  0  0  0  0
 38 36  1  0  0  0  0
 38 41  1  0  0  0  0
 39 38  1  0  0  0  0
 40 38  1  0  0  0  0
 42 36  1  0  0  0  0
 42 43  1  0  0  0  0
 44 42  1  0  0  0  0
 45 49  1  0  0  0  0
 45 42  1  0  0  0  0
 46 45  2  0  0  0  0
 47 46  1  0  0  0  0
 47 48  2  0  0  0  0
 48 49  1  0  0  0  0
 49 51  1  0  0  0  0
 50 48  1  0  0  0  0
 51 54  1  0  0  0  0
 51 53  1  0  0  0  0
 52 51  1  0  0  0  0
M  END
>  <MODEL>
17

>  <REMARK>
 VINA RESULT:    -6.728      2.684      9.083
 INTER + INTRA:         -10.194
 INTER:                 -10.227
 INTRA:                   0.032
 UNBOUND:                -1.106
  Name = 
  7 active torsions:
  status: ('A' for Active; 'I' for Inactive)
    1  A    between atoms: C_1  and  C_2
    2  A    between atoms: C_2  and  C_3
    3  A    between atoms: C_2  and  C_10
    4  A    between atoms: C_3  and  C_4
    5  A    between atoms: N_8  and  C_9
    6  A    between atoms: C_14  and  N_15
    7  A    between atoms: C_22  and  C_23
                            x       y       z     vdW  Elec       q    Type
                         _______ _______ _______ _____ _____    ______ ____

>  <TORSDO>
F 7

$$$$
=
 OpenBabel07192307433D

 54 58  0  0  1  0  0  0  0  0999 V2000
    2.3460    7.3480   19.4050 C   0  0  0  0  0  0  0  0  0  0  0  0
    3.0430    7.5800   18.2150 C   0  0  0  0  0  0  0  0  0  0  0  0
    2.7300    8.6820   17.4230 C   0  0  0  0  0  0  0  0  0  0  0  0
    1.7080    9.5590   17.8010 C   0  0  0  0  0  0  0  0  0  0  0  0
    0.9770    9.3630   18.9780 C   0  0  0  0  0  0  0  0  0  0  0  0
    1.3280    8.2520   19.7700 C   0  0  0  0  0  0  0  0  0  0  0  0
    0.6730    8.0140   20.9170 F   0  0  0  0  0  0  0  0  0  0  0  0
    3.8330    6.9090   17.8860 H   0  0  0  0  0  0  0  0  0  0  0  0
    3.2800    8.8650   16.5030 H   0  0  0  0  0  0  0  0  0  0  0  0
    1.5100   10.3990   17.1410 H   0  0  0  0  0  0  0  0  0  0  0  0
   -0.0810   10.2430   19.3530 N   0  0  0  0  0  0  0  0  0  0  0  0
   -0.0210   11.0650   20.5600 C   0  0  0  0  0  0  0  0  0  0  0  0
   -1.3150   11.7960   20.5420 C   0  0  0  0  0  0  0  0  0  0  0  0
   -2.0570   11.4260   19.4320 C   0  0  0  0  0  0  0  0  0  0  0  0
   -3.3010   11.9460   19.1670 C   0  0  0  0  0  0  0  0  0  0  0  0
   -3.7550   12.8640   20.0890 C   0  0  0  0  0  0  0  0  0  0  0  0
   -3.0540   13.2530   21.1920 N   0  0  0  0  0  0  0  0  0  0  0  0
   -1.8240   12.7200   21.4280 C   0  0  0  0  0  0  0  0  0  0  0  0
   -1.2880   10.4360   18.6730 C   0  0  0  0  0  0  0  0  0  0  0  0
   -1.7230    9.9330   17.6540 O   0  0  0  0  0  0  0  0  0  0  0  0
    0.8180   11.7650   20.4890 H   0  0  0  0  0  0  0  0  0  0  0  0
    0.0430   10.4220   21.4440 H   0  0  0  0  0  0  0  0  0  0  0  0
   -3.8770   11.6540   18.3000 H   0  0  0  0  0  0  0  0  0  0  0  0
   -4.7270   13.3390   19.9770 H   0  0  0  0  0  0  0  0  0  0  0  0
   -1.0980   13.2190   22.7360 C   0  0  0  0  0  0  0  0  0  0  0  0
   -0.2680   14.5340   22.7110 C   0  0  0  0  0  0  0  0  0  0  0  0
   -1.5000   15.2620   23.2790 C   0  0  0  0  0  0  0  0  0  0  0  0
   -1.9760   13.9030   23.8230 C   0  0  0  0  0  0  0  0  0  0  0  0
   -0.5030   12.3960   23.1610 H   0  0  0  0  0  0  0  0  0  0  0  0
    0.0820   14.8830   21.7360 H   0  0  0  0  0  0  0  0  0  0  0  0
    0.5870   14.5210   23.3980 H   0  0  0  0  0  0  0  0  0  0  0  0
   -1.2930   16.0280   24.0320 H   0  0  0  0  0  0  0  0  0  0  0  0
   -2.1570   15.6870   22.5120 H   0  0  0  0  0  0  0  0  0  0  0  0
   -3.0530   13.7260   23.7650 H   0  0  0  0  0  0  0  0  0  0  0  0
   -1.6420   13.6970   24.8480 H   0  0  0  0  0  0  0  0  0  0  0  0
    2.6170    6.1290   20.2770 C   0  0  2  0  0  0  0  0  0  0  0  0
    2.9040    6.4740   21.2810 H   0  0  0  0  0  0  0  0  0  0  0  0
    3.8110    5.3120   19.7650 C   0  0  0  0  0  0  0  0  0  0  0  0
    3.5910    4.8650   18.7890 H   0  0  0  0  0  0  0  0  0  0  0  0
    4.0850    4.5050   20.4530 H   0  0  0  0  0  0  0  0  0  0  0  0
    4.6910    5.9530   19.6480 H   0  0  0  0  0  0  0  0  0  0  0  0
    1.3670    5.2330   20.4020 C   0  0  0  0  0  0  0  0  0  0  0  0
    0.5080    5.7480   19.9530 H   0  0  0  0  0  0  0  0  0  0  0  0
    1.1060    5.0690   21.4550 H   0  0  0  0  0  0  0  0  0  0  0  0
    1.5290    3.9350   19.6800 C   0  0  0  0  0  0  0  0  0  0  0  0
    1.4000    3.7570   18.3790 N   0  0  0  0  0  0  0  0  0  0  0  0
    1.6490    2.4350   18.0980 N   0  0  0  0  0  0  0  0  0  0  0  0
    1.9150    1.8320   19.2320 C   0  0  0  0  0  0  0  0  0  0  0  0
    1.8420    2.7290   20.2520 N   0  0  0  0  0  0  0  0  0  0  0  0
    2.1550    0.7860   19.3550 H   0  0  0  0  0  0  0  0  0  0  0  0
    2.0540    2.4360   21.6440 C   0  0  0  0  0  0  0  0  0  0  0  0
    2.6910    3.2050   22.0880 H   0  0  0  0  0  0  0  0  0  0  0  0
    1.0870    2.4260   22.1500 H   0  0  0  0  0  0  0  0  0  0  0  0
    2.5480    1.4640   21.7310 H   0  0  0  0  0  0  0  0  0  0  0  0
  1  6  1  0  0  0  0
  1 36  1  0  0  0  0
  2  1  2  0  0  0  0
  3  4  2  0  0  0  0
  3  2  1  0  0  0  0
  4  5  1  0  0  0  0
  5 11  1  0  0  0  0
  5  6  2  0  0  0  0
  6  7  1  0  0  0  0
  8  2  1  0  0  0  0
  9  3  1  0  0  0  0
 10  4  1  0  0  0  0
 11 12  1  0  0  0  0
 12 22  1  0  0  0  0
 13 12  1  0  0  0  0
 13 18  1  0  0  0  0
 14 13  2  0  0  0  0
 15 14  1  0  0  0  0
 15 16  2  0  0  0  0
 16 17  1  0  0  0  0
 17 18  2  0  0  0  0
 18 25  1  0  0  0  0
 19 11  1  0  0  0  0
 19 14  1  0  0  0  0
 20 19  2  0  0  0  0
 21 12  1  0  0  0  0
 23 15  1  0  0  0  0
 24 16  1  0  0  0  0
 25 29  1  0  0  0  0
 25 28  1  0  0  0  0
 26 25  1  0  0  0  0
 26 27  1  0  0  0  0
 26 31  1  0  0  0  0
 27 28  1  0  0  0  0
 27 32  1  0  0  0  0
 28 35  1  0  0  0  0
 30 26  1  0  0  0  0
 33 27  1  0  0  0  0
 34 28  1  0  0  0  0
 36 42  1  0  0  0  0
 36 37  1  1  0  0  0
 38 36  1  0  0  0  0
 38 40  1  0  0  0  0
 39 38  1  0  0  0  0
 41 38  1  0  0  0  0
 42 44  1  0  0  0  0
 43 42  1  0  0  0  0
 45 49  1  0  0  0  0
 45 42  1  0  0  0  0
 46 45  2  0  0  0  0
 47 46  1  0  0  0  0
 47 48  2  0  0  0  0
 48 50  1  0  0  0  0
 48 49  1  0  0  0  0
 49 51  1  0  0  0  0
 51 54  1  0  0  0  0
 51 52  1  0  0  0  0
 51 53  1  0  0  0  0
M  END
>  <MODEL>
18

>  <REMARK>
 VINA RESULT:    -6.711      2.989      8.988
 INTER + INTRA:         -10.171
 INTER:                  -9.659
 INTRA:                  -0.513
 UNBOUND:                -1.106
  Name = 
  7 active torsions:
  status: ('A' for Active; 'I' for Inactive)
    1  A    between atoms: C_1  and  C_2
    2  A    between atoms: C_2  and  C_3
    3  A    between atoms: C_2  and  C_10
    4  A    between atoms: C_3  and  C_4
    5  A    between atoms: N_8  and  C_9
    6  A    between atoms: C_14  and  N_15
    7  A    between atoms: C_22  and  C_23
                            x       y       z     vdW  Elec       q    Type
                         _______ _______ _______ _____ _____    ______ ____

>  <TORSDO>
F 7

$$$$
=
 OpenBabel07192307433D

 54 58  0  0  1  0  0  0  0  0999 V2000
    2.4800    7.2380   19.0120 C   0  0  0  0  0  0  0  0  0  0  0  0
    3.0120    7.7920   17.8420 C   0  0  0  0  0  0  0  0  0  0  0  0
    2.6550    9.0800   17.4530 C   0  0  0  0  0  0  0  0  0  0  0  0
    1.7530    9.8280   18.2170 C   0  0  0  0  0  0  0  0  0  0  0  0
    1.1890    9.3130   19.3900 C   0  0  0  0  0  0  0  0  0  0  0  0
    1.5830    8.0150   19.7710 C   0  0  0  0  0  0  0  0  0  0  0  0
    1.0870    7.4670   20.8920 F   0  0  0  0  0  0  0  0  0  0  0  0
    3.7040    7.2310   17.2180 H   0  0  0  0  0  0  0  0  0  0  0  0
    3.0760    9.5120   16.5480 H   0  0  0  0  0  0  0  0  0  0  0  0
    1.5130   10.8250   17.8600 H   0  0  0  0  0  0  0  0  0  0  0  0
    0.2510   10.0650   20.1580 N   0  0  0  0  0  0  0  0  0  0  0  0
   -0.8710   10.7710   19.5440 C   0  0  0  0  0  0  0  0  0  0  0  0
   -1.5550   11.4020   20.7030 C   0  0  0  0  0  0  0  0  0  0  0  0
   -0.8870   11.0940   21.8770 C   0  0  0  0  0  0  0  0  0  0  0  0
   -1.3010   11.5500   23.1060 C   0  0  0  0  0  0  0  0  0  0  0  0
   -2.4320   12.3370   23.0810 C   0  0  0  0  0  0  0  0  0  0  0  0
   -3.1150   12.6620   21.9470 N   0  0  0  0  0  0  0  0  0  0  0  0
   -2.6810   12.1950   20.7450 C   0  0  0  0  0  0  0  0  0  0  0  0
    0.2650   10.2510   21.5440 C   0  0  0  0  0  0  0  0  0  0  0  0
    1.0330    9.8510   22.3990 O   0  0  0  0  0  0  0  0  0  0  0  0
   -1.5330   10.0550   19.0490 H   0  0  0  0  0  0  0  0  0  0  0  0
   -0.4950   11.5390   18.8580 H   0  0  0  0  0  0  0  0  0  0  0  0
   -0.7760   11.3080   24.0190 H   0  0  0  0  0  0  0  0  0  0  0  0
   -2.8470   12.7510   23.9970 H   0  0  0  0  0  0  0  0  0  0  0  0
   -3.5270   12.6360   19.4890 C   0  0  0  0  0  0  0  0  0  0  0  0
   -3.7820   11.6310   18.3310 C   0  0  0  0  0  0  0  0  0  0  0  0
   -5.1470   11.3170   18.9720 C   0  0  0  0  0  0  0  0  0  0  0  0
   -5.0720   12.6960   19.6550 C   0  0  0  0  0  0  0  0  0  0  0  0
   -3.1300   13.5840   19.0950 H   0  0  0  0  0  0  0  0  0  0  0  0
   -3.0940   10.7850   18.2450 H   0  0  0  0  0  0  0  0  0  0  0  0
   -3.8610   12.1110   17.3480 H   0  0  0  0  0  0  0  0  0  0  0  0
   -5.9780   11.1780   18.2750 H   0  0  0  0  0  0  0  0  0  0  0  0
   -5.1260   10.4750   19.6710 H   0  0  0  0  0  0  0  0  0  0  0  0
   -5.4540   12.7320   20.6780 H   0  0  0  0  0  0  0  0  0  0  0  0
   -5.5440   13.5000   19.0770 H   0  0  0  0  0  0  0  0  0  0  0  0
    2.8000    5.8150   19.4510 C   0  0  2  0  0  0  0  0  0  0  0  0
    2.6110    5.7310   20.5310 H   0  0  0  0  0  0  0  0  0  0  0  0
    4.2860    5.4770   19.2650 C   0  0  0  0  0  0  0  0  0  0  0  0
    4.9220    6.2160   19.7660 H   0  0  0  0  0  0  0  0  0  0  0  0
    4.5730    5.4440   18.2090 H   0  0  0  0  0  0  0  0  0  0  0  0
    4.5110    4.4960   19.6960 H   0  0  0  0  0  0  0  0  0  0  0  0
    1.9200    4.7840   18.7140 C   0  0  0  0  0  0  0  0  0  0  0  0
    1.7370    5.1330   17.6890 H   0  0  0  0  0  0  0  0  0  0  0  0
    0.9330    4.7030   19.1870 H   0  0  0  0  0  0  0  0  0  0  0  0
    2.5790    3.4470   18.6140 C   0  0  0  0  0  0  0  0  0  0  0  0
    3.1370    2.9440   17.5290 N   0  0  0  0  0  0  0  0  0  0  0  0
    3.6550    1.7110   17.8440 N   0  0  0  0  0  0  0  0  0  0  0  0
    3.3940    1.4820   19.1090 C   0  0  0  0  0  0  0  0  0  0  0  0
    2.7130    2.5380   19.6310 N   0  0  0  0  0  0  0  0  0  0  0  0
    3.6700    0.5980   19.6650 H   0  0  0  0  0  0  0  0  0  0  0  0
    2.2400    2.6440   20.9850 C   0  0  0  0  0  0  0  0  0  0  0  0
    2.3820    3.6680   21.3430 H   0  0  0  0  0  0  0  0  0  0  0  0
    1.1780    2.3940   21.0050 H   0  0  0  0  0  0  0  0  0  0  0  0
    2.8130    1.9590   21.6160 H   0  0  0  0  0  0  0  0  0  0  0  0
  1 36  1  0  0  0  0
  1  6  1  0  0  0  0
  2  1  2  0  0  0  0
  3  2  1  0  0  0  0
  3  4  2  0  0  0  0
  4  5  1  0  0  0  0
  5  6  2  0  0  0  0
  5 11  1  0  0  0  0
  6  7  1  0  0  0  0
  8  2  1  0  0  0  0
  9  3  1  0  0  0  0
 10  4  1  0  0  0  0
 11 19  1  0  0  0  0
 12 11  1  0  0  0  0
 12 13  1  0  0  0  0
 13 18  2  0  0  0  0
 13 14  1  0  0  0  0
 14 15  2  0  0  0  0
 15 23  1  0  0  0  0
 16 15  1  0  0  0  0
 16 24  1  0  0  0  0
 17 16  2  0  0  0  0
 18 17  1  0  0  0  0
 19 14  1  0  0  0  0
 19 20  2  0  0  0  0
 21 12  1  0  0  0  0
 22 12  1  0  0  0  0
 25 28  1  0  0  0  0
 25 18  1  0  0  0  0
 26 27  1  0  0  0  0
 26 25  1  0  0  0  0
 27 28  1  0  0  0  0
 27 33  1  0  0  0  0
 28 34  1  0  0  0  0
 29 25  1  0  0  0  0
 30 26  1  0  0  0  0
 31 26  1  0  0  0  0
 32 27  1  0  0  0  0
 35 28  1  0  0  0  0
 36 37  1  1  0  0  0
 38 36  1  0  0  0  0
 38 41  1  0  0  0  0
 38 39  1  0  0  0  0
 40 38  1  0  0  0  0
 42 44  1  0  0  0  0
 42 36  1  0  0  0  0
 43 42  1  0  0  0  0
 45 42  1  0  0  0  0
 45 49  1  0  0  0  0
 46 47  1  0  0  0  0
 46 45  2  0  0  0  0
 47 48  2  0  0  0  0
 48 49  1  0  0  0  0
 48 50  1  0  0  0  0
 49 51  1  0  0  0  0
 51 53  1  0  0  0  0
 51 52  1  0  0  0  0
 51 54  1  0  0  0  0
M  END
>  <MODEL>
19

>  <REMARK>
 VINA RESULT:    -6.656      2.760      8.940
 INTER + INTRA:         -10.097
 INTER:                  -9.724
 INTRA:                  -0.373
 UNBOUND:                -1.106
  Name = 
  7 active torsions:
  status: ('A' for Active; 'I' for Inactive)
    1  A    between atoms: C_1  and  C_2
    2  A    between atoms: C_2  and  C_3
    3  A    between atoms: C_2  and  C_10
    4  A    between atoms: C_3  and  C_4
    5  A    between atoms: N_8  and  C_9
    6  A    between atoms: C_14  and  N_15
    7  A    between atoms: C_22  and  C_23
                            x       y       z     vdW  Elec       q    Type
                         _______ _______ _______ _____ _____    ______ ____

>  <TORSDO>
F 7

$$$$
=
 OpenBabel07192307433D

 54 58  0  0  1  0  0  0  0  0999 V2000
    2.7350    5.8150   18.7950 C   0  0  0  0  0  0  0  0  0  0  0  0
    2.6690    4.9570   19.8980 C   0  0  0  0  0  0  0  0  0  0  0  0
    1.9960    5.3500   21.0520 C   0  0  0  0  0  0  0  0  0  0  0  0
    1.3920    6.6100   21.1270 C   0  0  0  0  0  0  0  0  0  0  0  0
    1.4400    7.5050   20.0520 C   0  0  0  0  0  0  0  0  0  0  0  0
    2.1090    7.0730   18.8900 C   0  0  0  0  0  0  0  0  0  0  0  0
    2.1810    7.8810   17.8200 F   0  0  0  0  0  0  0  0  0  0  0  0
    3.1410    3.9770   19.8780 H   0  0  0  0  0  0  0  0  0  0  0  0
    1.9380    4.6780   21.9050 H   0  0  0  0  0  0  0  0  0  0  0  0
    0.8850    6.8600   22.0540 H   0  0  0  0  0  0  0  0  0  0  0  0
    0.8450    8.7990   20.1340 N   0  0  0  0  0  0  0  0  0  0  0  0
   -0.0120    9.3320   19.0770 C   0  0  0  0  0  0  0  0  0  0  0  0
   -0.3870   10.6770   19.5850 C   0  0  0  0  0  0  0  0  0  0  0  0
    0.2020   10.9040   20.8180 C   0  0  0  0  0  0  0  0  0  0  0  0
    0.0280   12.0740   21.5180 C   0  0  0  0  0  0  0  0  0  0  0  0
   -0.7790   13.0040   20.9010 C   0  0  0  0  0  0  0  0  0  0  0  0
   -1.3760   12.8180   19.6900 N   0  0  0  0  0  0  0  0  0  0  0  0
   -1.1850   11.6490   19.0200 C   0  0  0  0  0  0  0  0  0  0  0  0
    0.9930    9.7220   21.1740 C   0  0  0  0  0  0  0  0  0  0  0  0
    1.6290    9.6670   22.2100 O   0  0  0  0  0  0  0  0  0  0  0  0
   -0.8990    8.7010   18.9660 H   0  0  0  0  0  0  0  0  0  0  0  0
    0.5590    9.4200   18.1460 H   0  0  0  0  0  0  0  0  0  0  0  0
    0.4910   12.2460   22.4800 H   0  0  0  0  0  0  0  0  0  0  0  0
   -0.9850   13.9650   21.3670 H   0  0  0  0  0  0  0  0  0  0  0  0
   -1.9030   11.5320   17.6210 C   0  0  0  0  0  0  0  0  0  0  0  0
   -1.9980   10.1530   16.9080 C   0  0  0  0  0  0  0  0  0  0  0  0
   -3.4140   10.0050   17.4960 C   0  0  0  0  0  0  0  0  0  0  0  0
   -3.4580   11.5400   17.6140 C   0  0  0  0  0  0  0  0  0  0  0  0
   -1.4950   12.2910   16.9360 H   0  0  0  0  0  0  0  0  0  0  0  0
   -1.2780    9.3870   17.2080 H   0  0  0  0  0  0  0  0  0  0  0  0
   -1.9850   10.2280   15.8140 H   0  0  0  0  0  0  0  0  0  0  0  0
   -4.1590    9.5590   16.8320 H   0  0  0  0  0  0  0  0  0  0  0  0
   -3.4420    9.4860   18.4600 H   0  0  0  0  0  0  0  0  0  0  0  0
   -3.9490   11.9270   18.5100 H   0  0  0  0  0  0  0  0  0  0  0  0
   -3.8890   12.0370   16.7360 H   0  0  0  0  0  0  0  0  0  0  0  0
    3.5020    5.4500   17.5310 C   0  0  2  0  0  0  0  0  0  0  0  0
    2.9220    5.7860   16.6600 H   0  0  0  0  0  0  0  0  0  0  0  0
    3.6480    3.9310   17.3670 C   0  0  0  0  0  0  0  0  0  0  0  0
    3.8590    3.4500   18.3300 H   0  0  0  0  0  0  0  0  0  0  0  0
    4.4520    3.6650   16.6730 H   0  0  0  0  0  0  0  0  0  0  0  0
    2.7220    3.4980   16.9750 H   0  0  0  0  0  0  0  0  0  0  0  0
    4.8870    6.1290   17.4940 C   0  0  0  0  0  0  0  0  0  0  0  0
    5.4080    5.9380   18.4420 H   0  0  0  0  0  0  0  0  0  0  0  0
    4.7870    7.2190   17.4180 H   0  0  0  0  0  0  0  0  0  0  0  0
    5.7510    5.5910   16.4010 C   0  0  0  0  0  0  0  0  0  0  0  0
    5.4900    5.6570   15.1100 N   0  0  0  0  0  0  0  0  0  0  0  0
    6.5320    5.0770   14.4280 N   0  0  0  0  0  0  0  0  0  0  0  0
    7.4030    4.6600   15.3160 C   0  0  0  0  0  0  0  0  0  0  0  0
    6.9530    4.9520   16.5670 N   0  0  0  0  0  0  0  0  0  0  0  0
    8.3380    4.1610   15.1040 H   0  0  0  0  0  0  0  0  0  0  0  0
    7.6280    4.6340   17.7950 C   0  0  0  0  0  0  0  0  0  0  0  0
    6.8950    4.5390   18.6010 H   0  0  0  0  0  0  0  0  0  0  0  0
    8.1570    3.6870   17.6700 H   0  0  0  0  0  0  0  0  0  0  0  0
    8.3260    5.4400   18.0370 H   0  0  0  0  0  0  0  0  0  0  0  0
  1  6  2  0  0  0  0
  1  2  1  0  0  0  0
  2  3  2  0  0  0  0
  3  4  1  0  0  0  0
  3  9  1  0  0  0  0
  4 10  1  0  0  0  0
  5 11  1  0  0  0  0
  5  4  2  0  0  0  0
  6  5  1  0  0  0  0
  7  6  1  0  0  0  0
  8  2  1  0  0  0  0
 11 19  1  0  0  0  0
 12 13  1  0  0  0  0
 12 11  1  0  0  0  0
 13 14  1  0  0  0  0
 14 19  1  0  0  0  0
 14 15  2  0  0  0  0
 15 23  1  0  0  0  0
 16 24  1  0  0  0  0
 16 15  1  0  0  0  0
 17 16  2  0  0  0  0
 18 13  2  0  0  0  0
 18 17  1  0  0  0  0
 19 20  2  0  0  0  0
 21 12  1  0  0  0  0
 22 12  1  0  0  0  0
 25 18  1  0  0  0  0
 26 30  1  0  0  0  0
 26 27  1  0  0  0  0
 26 25  1  0  0  0  0
 27 28  1  0  0  0  0
 27 33  1  0  0  0  0
 28 25  1  0  0  0  0
 28 34  1  0  0  0  0
 29 25  1  0  0  0  0
 31 26  1  0  0  0  0
 32 27  1  0  0  0  0
 35 28  1  0  0  0  0
 36 37  1  6  0  0  0
 36  1  1  0  0  0  0
 38 36  1  0  0  0  0
 38 39  1  0  0  0  0
 40 38  1  0  0  0  0
 41 38  1  0  0  0  0
 42 36  1  0  0  0  0
 42 43  1  0  0  0  0
 44 42  1  0  0  0  0
 45 49  1  0  0  0  0
 45 42  1  0  0  0  0
 46 45  2  0  0  0  0
 47 46  1  0  0  0  0
 47 48  2  0  0  0  0
 48 49  1  0  0  0  0
 49 51  1  0  0  0  0
 50 48  1  0  0  0  0
 51 54  1  0  0  0  0
 51 52  1  0  0  0  0
 53 51  1  0  0  0  0
M  END
>  <MODEL>
20

>  <REMARK>
 VINA RESULT:    -6.655      2.050      8.501
 INTER + INTRA:         -10.095
 INTER:                  -9.719
 INTRA:                  -0.377
 UNBOUND:                -1.106
  Name = 
  7 active torsions:
  status: ('A' for Active; 'I' for Inactive)
    1  A    between atoms: C_1  and  C_2
    2  A    between atoms: C_2  and  C_3
    3  A    between atoms: C_2  and  C_10
    4  A    between atoms: C_3  and  C_4
    5  A    between atoms: N_8  and  C_9
    6  A    between atoms: C_14  and  N_15
    7  A    between atoms: C_22  and  C_23
                            x       y       z     vdW  Elec       q    Type
                         _______ _______ _______ _____ _____    ______ ____

>  <TORSDO>
F 7

$$$$
=
 OpenBabel07192307433D

 54 58  0  0  1  0  0  0  0  0999 V2000
    0.2060   10.1300   20.6220 C   0  0  0  0  0  0  0  0  0  0  0  0
   -0.4020   10.7350   19.5170 C   0  0  0  0  0  0  0  0  0  0  0  0
   -0.1490   10.2620   18.2330 C   0  0  0  0  0  0  0  0  0  0  0  0
    0.7260    9.1900   18.0310 C   0  0  0  0  0  0  0  0  0  0  0  0
    1.3640    8.5590   19.1050 C   0  0  0  0  0  0  0  0  0  0  0  0
    1.0740    9.0440   20.3950 C   0  0  0  0  0  0  0  0  0  0  0  0
    1.6460    8.4740   21.4680 F   0  0  0  0  0  0  0  0  0  0  0  0
   -1.0760   11.5810   19.6390 H   0  0  0  0  0  0  0  0  0  0  0  0
   -0.6300   10.7290   17.3760 H   0  0  0  0  0  0  0  0  0  0  0  0
    0.8850    8.8690   17.0060 H   0  0  0  0  0  0  0  0  0  0  0  0
    2.2750    7.4790   18.8990 N   0  0  0  0  0  0  0  0  0  0  0  0
    2.1380    6.2010   19.5940 C   0  0  0  0  0  0  0  0  0  0  0  0
    3.2850    5.4070   19.0810 C   0  0  0  0  0  0  0  0  0  0  0  0
    4.0210    6.1580   18.1790 C   0  0  0  0  0  0  0  0  0  0  0  0
    5.1420    5.6720   17.5510 C   0  0  0  0  0  0  0  0  0  0  0  0
    5.4790    4.3790   17.8870 C   0  0  0  0  0  0  0  0  0  0  0  0
    4.7810    3.6090   18.7690 N   0  0  0  0  0  0  0  0  0  0  0  0
    3.6740    4.1180   19.3750 C   0  0  0  0  0  0  0  0  0  0  0  0
    3.3930    7.4780   18.0600 C   0  0  0  0  0  0  0  0  0  0  0  0
    3.8540    8.3430   17.3380 O   0  0  0  0  0  0  0  0  0  0  0  0
    1.1890    5.7290   19.3180 H   0  0  0  0  0  0  0  0  0  0  0  0
    2.2310    6.3540   20.6750 H   0  0  0  0  0  0  0  0  0  0  0  0
    5.7130    6.2620   16.8480 H   0  0  0  0  0  0  0  0  0  0  0  0
    6.3490    3.8940   17.4490 H   0  0  0  0  0  0  0  0  0  0  0  0
    2.9430    3.1590   20.3910 C   0  0  0  0  0  0  0  0  0  0  0  0
    1.6630    3.6410   21.1320 C   0  0  0  0  0  0  0  0  0  0  0  0
    0.8300    2.9180   20.0570 C   0  0  0  0  0  0  0  0  0  0  0  0
    2.0590    2.0270   19.7930 C   0  0  0  0  0  0  0  0  0  0  0  0
    3.6750    2.7590   21.1080 H   0  0  0  0  0  0  0  0  0  0  0  0
    1.5070    4.7210   21.2060 H   0  0  0  0  0  0  0  0  0  0  0  0
    1.5530    3.2090   22.1340 H   0  0  0  0  0  0  0  0  0  0  0  0
   -0.0620    2.4000   20.4180 H   0  0  0  0  0  0  0  0  0  0  0  0
    0.5530    3.5530   19.2090 H   0  0  0  0  0  0  0  0  0  0  0  0
    2.2340    1.7710   18.7450 H   0  0  0  0  0  0  0  0  0  0  0  0
    2.0700    1.1050   20.3860 H   0  0  0  0  0  0  0  0  0  0  0  0
    0.0010   10.6440   22.0410 C   0  0  2  0  0  0  0  0  0  0  0  0
    0.9310   11.1220   22.3790 H   0  0  0  0  0  0  0  0  0  0  0  0
   -0.2580    9.5010   23.0340 C   0  0  0  0  0  0  0  0  0  0  0  0
   -0.5410    8.5820   22.5090 H   0  0  0  0  0  0  0  0  0  0  0  0
   -1.0540    9.7440   23.7460 H   0  0  0  0  0  0  0  0  0  0  0  0
    0.6460    9.2880   23.6140 H   0  0  0  0  0  0  0  0  0  0  0  0
   -1.1400   11.6800   22.1080 C   0  0  0  0  0  0  0  0  0  0  0  0
   -1.7870   11.4500   22.9650 H   0  0  0  0  0  0  0  0  0  0  0  0
   -1.7800   11.6150   21.2200 H   0  0  0  0  0  0  0  0  0  0  0  0
   -0.6300   13.0710   22.3030 C   0  0  0  0  0  0  0  0  0  0  0  0
    0.4640   13.5710   21.7610 N   0  0  0  0  0  0  0  0  0  0  0  0
    0.5790   14.8830   22.1560 N   0  0  0  0  0  0  0  0  0  0  0  0
   -0.4400   15.1520   22.9370 C   0  0  0  0  0  0  0  0  0  0  0  0
   -1.2200   14.0450   23.0650 N   0  0  0  0  0  0  0  0  0  0  0  0
   -0.6430   16.1010   23.4120 H   0  0  0  0  0  0  0  0  0  0  0  0
   -2.4170   13.9500   23.8570 C   0  0  0  0  0  0  0  0  0  0  0  0
   -2.2440   13.2780   24.7020 H   0  0  0  0  0  0  0  0  0  0  0  0
   -2.6720   14.9440   24.2270 H   0  0  0  0  0  0  0  0  0  0  0  0
   -3.2220   13.5470   23.2360 H   0  0  0  0  0  0  0  0  0  0  0  0
  1 36  1  0  0  0  0
  2  8  1  0  0  0  0
  2  1  2  0  0  0  0
  3  2  1  0  0  0  0
  4  3  2  0  0  0  0
  4  5  1  0  0  0  0
  5  6  2  0  0  0  0
  6  1  1  0  0  0  0
  6  7  1  0  0  0  0
  9  3  1  0  0  0  0
 10  4  1  0  0  0  0
 11  5  1  0  0  0  0
 11 12  1  0  0  0  0
 12 22  1  0  0  0  0
 13 18  1  0  0  0  0
 13 12  1  0  0  0  0
 14 13  2  0  0  0  0
 15 16  2  0  0  0  0
 15 14  1  0  0  0  0
 16 17  1  0  0  0  0
 17 18  2  0  0  0  0
 18 25  1  0  0  0  0
 19 14  1  0  0  0  0
 19 11  1  0  0  0  0
 20 19  2  0  0  0  0
 21 12  1  0  0  0  0
 23 15  1  0  0  0  0
 24 16  1  0  0  0  0
 25 29  1  0  0  0  0
 25 26  1  0  0  0  0
 26 30  1  0  0  0  0
 26 31  1  0  0  0  0
 27 32  1  0  0  0  0
 27 26  1  0  0  0  0
 28 27  1  0  0  0  0
 28 35  1  0  0  0  0
 28 25  1  0  0  0  0
 33 27  1  0  0  0  0
 34 28  1  0  0  0  0
 36 42  1  0  0  0  0
 36 37  1  1  0  0  0
 36 38  1  0  0  0  0
 38 41  1  0  0  0  0
 38 40  1  0  0  0  0
 39 38  1  0  0  0  0
 42 45  1  0  0  0  0
 42 43  1  0  0  0  0
 44 42  1  0  0  0  0
 45 49  1  0  0  0  0
 46 47  1  0  0  0  0
 46 45  2  0  0  0  0
 47 48  2  0  0  0  0
 48 49  1  0  0  0  0
 48 50  1  0  0  0  0
 49 51  1  0  0  0  0
 51 53  1  0  0  0  0
 51 52  1  0  0  0  0
 54 51  1  0  0  0  0
M  END
>  <MODEL>
21

>  <REMARK>
 VINA RESULT:    -6.648      3.103      4.759
 INTER + INTRA:         -10.086
 INTER:                 -10.089
 INTRA:                   0.003
 UNBOUND:                -1.106
  Name = 
  7 active torsions:
  status: ('A' for Active; 'I' for Inactive)
    1  A    between atoms: C_1  and  C_2
    2  A    between atoms: C_2  and  C_3
    3  A    between atoms: C_2  and  C_10
    4  A    between atoms: C_3  and  C_4
    5  A    between atoms: N_8  and  C_9
    6  A    between atoms: C_14  and  N_15
    7  A    between atoms: C_22  and  C_23
                            x       y       z     vdW  Elec       q    Type
                         _______ _______ _______ _____ _____    ______ ____

>  <TORSDO>
F 7

$$$$
=
 OpenBabel07192307433D

 54 58  0  0  1  0  0  0  0  0999 V2000
   -0.4700   10.5260   20.5370 C   0  0  0  0  0  0  0  0  0  0  0  0
   -0.3310   10.5580   21.9290 C   0  0  0  0  0  0  0  0  0  0  0  0
    0.5490    9.6860   22.5650 C   0  0  0  0  0  0  0  0  0  0  0  0
    1.2920    8.7610   21.8230 C   0  0  0  0  0  0  0  0  0  0  0  0
    1.1790    8.6870   20.4290 C   0  0  0  0  0  0  0  0  0  0  0  0
    0.2970    9.5940   19.8110 C   0  0  0  0  0  0  0  0  0  0  0  0
    0.1520    9.5810   18.4760 F   0  0  0  0  0  0  0  0  0  0  0  0
   -0.9050   11.2540   22.5360 H   0  0  0  0  0  0  0  0  0  0  0  0
    0.6630    9.7190   23.6460 H   0  0  0  0  0  0  0  0  0  0  0  0
    1.9590    8.1080   22.3760 H   0  0  0  0  0  0  0  0  0  0  0  0
    1.9180    7.7290   19.6730 N   0  0  0  0  0  0  0  0  0  0  0  0
    1.9150    6.3060   20.0030 C   0  0  0  0  0  0  0  0  0  0  0  0
    2.8060    5.7130   18.9710 C   0  0  0  0  0  0  0  0  0  0  0  0
    3.2850    6.7020   18.1280 C   0  0  0  0  0  0  0  0  0  0  0  0
    4.1360    6.4360   17.0820 C   0  0  0  0  0  0  0  0  0  0  0  0
    4.4760    5.1080   16.9350 C   0  0  0  0  0  0  0  0  0  0  0  0
    4.0260    4.1080   17.7440 N   0  0  0  0  0  0  0  0  0  0  0  0
    3.1840    4.4030   18.7720 C   0  0  0  0  0  0  0  0  0  0  0  0
    2.7340    7.9880   18.5670 C   0  0  0  0  0  0  0  0  0  0  0  0
    3.0110    9.0290   18.0010 O   0  0  0  0  0  0  0  0  0  0  0  0
    0.9000    5.9060   19.9100 H   0  0  0  0  0  0  0  0  0  0  0  0
    2.3360    6.1550   21.0030 H   0  0  0  0  0  0  0  0  0  0  0  0
    4.5070    7.2110   16.4260 H   0  0  0  0  0  0  0  0  0  0  0  0
    5.1440    4.7850   16.1400 H   0  0  0  0  0  0  0  0  0  0  0  0
    2.7310    3.1820   19.6620 C   0  0  0  0  0  0  0  0  0  0  0  0
    1.2570    3.0810   20.1500 C   0  0  0  0  0  0  0  0  0  0  0  0
    0.9820    2.1430   18.9590 C   0  0  0  0  0  0  0  0  0  0  0  0
    2.4880    1.8250   18.9420 C   0  0  0  0  0  0  0  0  0  0  0  0
    3.4250    3.0680   20.5080 H   0  0  0  0  0  0  0  0  0  0  0  0
    0.6740    4.0060   20.1690 H   0  0  0  0  0  0  0  0  0  0  0  0
    1.1560    2.5900   21.1250 H   0  0  0  0  0  0  0  0  0  0  0  0
    0.3210    1.2960   19.1660 H   0  0  0  0  0  0  0  0  0  0  0  0
    0.6270    2.6580   18.0610 H   0  0  0  0  0  0  0  0  0  0  0  0
    2.9310    1.7120   17.9480 H   0  0  0  0  0  0  0  0  0  0  0  0
    2.7630    0.9530   19.5480 H   0  0  0  0  0  0  0  0  0  0  0  0
   -1.4570   11.4230   19.8020 C   0  0  2  0  0  0  0  0  0  0  0  0
   -2.4070   10.8820   19.6920 H   0  0  0  0  0  0  0  0  0  0  0  0
   -0.9930   11.7370   18.3730 C   0  0  0  0  0  0  0  0  0  0  0  0
   -1.1120   12.8030   18.1470 H   0  0  0  0  0  0  0  0  0  0  0  0
   -1.5520   11.1680   17.6230 H   0  0  0  0  0  0  0  0  0  0  0  0
    0.0660   11.4860   18.2520 H   0  0  0  0  0  0  0  0  0  0  0  0
   -1.7210   12.7300   20.5790 C   0  0  0  0  0  0  0  0  0  0  0  0
   -1.7800   13.5660   19.8700 H   0  0  0  0  0  0  0  0  0  0  0  0
   -0.8850   12.9610   21.2510 H   0  0  0  0  0  0  0  0  0  0  0  0
   -3.0150   12.6930   21.3240 C   0  0  0  0  0  0  0  0  0  0  0  0
   -3.1480   12.6950   22.6370 N   0  0  0  0  0  0  0  0  0  0  0  0
   -4.4890   12.6820   22.9350 N   0  0  0  0  0  0  0  0  0  0  0  0
   -5.1470   12.6620   21.8000 C   0  0  0  0  0  0  0  0  0  0  0  0
   -4.2660   12.6590   20.7630 N   0  0  0  0  0  0  0  0  0  0  0  0
   -6.2220   12.6490   21.6880 H   0  0  0  0  0  0  0  0  0  0  0  0
   -4.6120   12.6220   19.3690 C   0  0  0  0  0  0  0  0  0  0  0  0
   -4.6980   13.6430   18.9850 H   0  0  0  0  0  0  0  0  0  0  0  0
   -3.8270   12.0940   18.8260 H   0  0  0  0  0  0  0  0  0  0  0  0
   -5.5730   12.1130   19.2540 H   0  0  0  0  0  0  0  0  0  0  0  0
  1  2  1  0  0  0  0
  2  8  1  0  0  0  0
  2  3  2  0  0  0  0
  3  9  1  0  0  0  0
  4 10  1  0  0  0  0
  4  3  1  0  0  0  0
  5  4  2  0  0  0  0
  6  5  1  0  0  0  0
  6  1  2  0  0  0  0
  7  6  1  0  0  0  0
 11 12  1  0  0  0  0
 11  5  1  0  0  0  0
 12 22  1  0  0  0  0
 13 12  1  0  0  0  0
 14 19  1  0  0  0  0
 14 13  2  0  0  0  0
 15 14  1  0  0  0  0
 16 15  2  0  0  0  0
 16 17  1  0  0  0  0
 17 18  2  0  0  0  0
 18 13  1  0  0  0  0
 18 25  1  0  0  0  0
 19 11  1  0  0  0  0
 20 19  2  0  0  0  0
 21 12  1  0  0  0  0
 23 15  1  0  0  0  0
 24 16  1  0  0  0  0
 25 26  1  0  0  0  0
 25 29  1  0  0  0  0
 26 30  1  0  0  0  0
 26 31  1  0  0  0  0
 27 32  1  0  0  0  0
 27 26  1  0  0  0  0
 28 27  1  0  0  0  0
 28 35  1  0  0  0  0
 28 25  1  0  0  0  0
 33 27  1  0  0  0  0
 34 28  1  0  0  0  0
 36 37  1  6  0  0  0
 36  1  1  0  0  0  0
 36 42  1  0  0  0  0
 38 36  1  0  0  0  0
 39 38  1  0  0  0  0
 40 38  1  0  0  0  0
 41 38  1  0  0  0  0
 42 44  1  0  0  0  0
 42 45  1  0  0  0  0
 43 42  1  0  0  0  0
 45 46  2  0  0  0  0
 46 47  1  0  0  0  0
 48 47  2  0  0  0  0
 49 45  1  0  0  0  0
 49 48  1  0  0  0  0
 50 48  1  0  0  0  0
 51 49  1  0  0  0  0
 52 51  1  0  0  0  0
 53 51  1  0  0  0  0
 54 51  1  0  0  0  0
M  END
>  <MODEL>
22

>  <REMARK>
 VINA RESULT:    -6.572      2.333      3.813
 INTER + INTRA:          -9.983
 INTER:                 -10.160
 INTRA:                   0.178
 UNBOUND:                -1.106
  Name = 
  7 active torsions:
  status: ('A' for Active; 'I' for Inactive)
    1  A    between atoms: C_1  and  C_2
    2  A    between atoms: C_2  and  C_3
    3  A    between atoms: C_2  and  C_10
    4  A    between atoms: C_3  and  C_4
    5  A    between atoms: N_8  and  C_9
    6  A    between atoms: C_14  and  N_15
    7  A    between atoms: C_22  and  C_23
                            x       y       z     vdW  Elec       q    Type
                         _______ _______ _______ _____ _____    ______ ____

>  <TORSDO>
F 7

$$$$
=
 OpenBabel07192307433D

 54 58  0  0  1  0  0  0  0  0999 V2000
    2.5830    4.1270   18.8920 C   0  0  0  0  0  0  0  0  0  0  0  0
    2.6210    3.6070   20.1910 C   0  0  0  0  0  0  0  0  0  0  0  0
    2.3370    4.4260   21.2810 C   0  0  0  0  0  0  0  0  0  0  0  0
    2.0260    5.7770   21.0920 C   0  0  0  0  0  0  0  0  0  0  0  0
    1.9840    6.3420   19.8120 C   0  0  0  0  0  0  0  0  0  0  0  0
    2.2560    5.4870   18.7260 C   0  0  0  0  0  0  0  0  0  0  0  0
    2.2220    5.9660   17.4720 F   0  0  0  0  0  0  0  0  0  0  0  0
    2.8740    2.5650   20.3730 H   0  0  0  0  0  0  0  0  0  0  0  0
    2.3570    4.0180   22.2890 H   0  0  0  0  0  0  0  0  0  0  0  0
    1.8150    6.3640   21.9810 H   0  0  0  0  0  0  0  0  0  0  0  0
    1.6900    7.7250   19.6180 N   0  0  0  0  0  0  0  0  0  0  0  0
    0.6710    8.4220   20.4000 C   0  0  0  0  0  0  0  0  0  0  0  0
    0.7120    9.8060   19.8600 C   0  0  0  0  0  0  0  0  0  0  0  0
    1.6610    9.9000   18.8560 C   0  0  0  0  0  0  0  0  0  0  0  0
    1.9090   11.0690   18.1770 C   0  0  0  0  0  0  0  0  0  0  0  0
    1.1400   12.1420   18.5720 C   0  0  0  0  0  0  0  0  0  0  0  0
    0.1970   12.0890   19.5550 N   0  0  0  0  0  0  0  0  0  0  0  0
   -0.0260   10.9170   20.2090 C   0  0  0  0  0  0  0  0  0  0  0  0
    2.2850    8.5830   18.6880 C   0  0  0  0  0  0  0  0  0  0  0  0
    3.1480    8.3860   17.8530 O   0  0  0  0  0  0  0  0  0  0  0  0
    0.9460    8.4130   21.4590 H   0  0  0  0  0  0  0  0  0  0  0  0
   -0.3100    7.9690   20.2180 H   0  0  0  0  0  0  0  0  0  0  0  0
    2.6500   11.1370   17.3940 H   0  0  0  0  0  0  0  0  0  0  0  0
    1.2530   13.1160   18.1020 H   0  0  0  0  0  0  0  0  0  0  0  0
   -1.1460   10.9500   21.3180 C   0  0  0  0  0  0  0  0  0  0  0  0
   -0.7520   10.9880   22.8220 C   0  0  0  0  0  0  0  0  0  0  0  0
   -0.9370   12.5160   22.7790 C   0  0  0  0  0  0  0  0  0  0  0  0
   -1.8640   12.3070   21.5680 C   0  0  0  0  0  0  0  0  0  0  0  0
   -1.8700   10.1420   21.1310 H   0  0  0  0  0  0  0  0  0  0  0  0
    0.2520   10.6390   23.0820 H   0  0  0  0  0  0  0  0  0  0  0  0
   -1.4720   10.4780   23.4730 H   0  0  0  0  0  0  0  0  0  0  0  0
   -1.4040   12.9620   23.6620 H   0  0  0  0  0  0  0  0  0  0  0  0
   -0.0200   13.0680   22.5460 H   0  0  0  0  0  0  0  0  0  0  0  0
   -1.7780   13.0580   20.7780 H   0  0  0  0  0  0  0  0  0  0  0  0
   -2.9220   12.1990   21.8360 H   0  0  0  0  0  0  0  0  0  0  0  0
    2.9370    3.2840   17.6740 C   0  0  2  0  0  0  0  0  0  0  0  0
    2.4800    3.7440   16.7860 H   0  0  0  0  0  0  0  0  0  0  0  0
    2.3400    1.8730   17.7590 C   0  0  0  0  0  0  0  0  0  0  0  0
    2.3290    1.3900   16.7750 H   0  0  0  0  0  0  0  0  0  0  0  0
    1.3150    1.8800   18.1440 H   0  0  0  0  0  0  0  0  0  0  0  0
    2.9360    1.2460   18.4310 H   0  0  0  0  0  0  0  0  0  0  0  0
    4.4630    3.2090   17.4610 C   0  0  0  0  0  0  0  0  0  0  0  0
    4.6800    2.4940   16.6560 H   0  0  0  0  0  0  0  0  0  0  0  0
    4.9640    2.8180   18.3560 H   0  0  0  0  0  0  0  0  0  0  0  0
    5.0420    4.5230   17.0510 C   0  0  0  0  0  0  0  0  0  0  0  0
    4.9660    5.0550   15.8460 N   0  0  0  0  0  0  0  0  0  0  0  0
    5.5950    6.2770   15.8730 N   0  0  0  0  0  0  0  0  0  0  0  0
    6.0490    6.4610   17.0900 C   0  0  0  0  0  0  0  0  0  0  0  0
    5.7350    5.3850   17.8610 N   0  0  0  0  0  0  0  0  0  0  0  0
    6.5910    7.3270   17.4420 H   0  0  0  0  0  0  0  0  0  0  0  0
    6.0810    5.2170   19.2460 C   0  0  0  0  0  0  0  0  0  0  0  0
    7.0940    5.5900   19.4190 H   0  0  0  0  0  0  0  0  0  0  0  0
    5.3750    5.7840   19.8550 H   0  0  0  0  0  0  0  0  0  0  0  0
    6.0420    4.1530   19.4960 H   0  0  0  0  0  0  0  0  0  0  0  0
  1  2  1  0  0  0  0
  2  8  1  0  0  0  0
  2  3  2  0  0  0  0
  3  9  1  0  0  0  0
  4  3  1  0  0  0  0
  4 10  1  0  0  0  0
  5  4  2  0  0  0  0
  6  1  2  0  0  0  0
  6  5  1  0  0  0  0
  7  6  1  0  0  0  0
 11  5  1  0  0  0  0
 11 12  1  0  0  0  0
 12 21  1  0  0  0  0
 13 18  1  0  0  0  0
 13 12  1  0  0  0  0
 14 13  2  0  0  0  0
 15 16  2  0  0  0  0
 15 14  1  0  0  0  0
 16 17  1  0  0  0  0
 17 18  2  0  0  0  0
 18 25  1  0  0  0  0
 19 14  1  0  0  0  0
 19 11  1  0  0  0  0
 20 19  2  0  0  0  0
 22 12  1  0  0  0  0
 23 15  1  0  0  0  0
 24 16  1  0  0  0  0
 25 28  1  0  0  0  0
 25 26  1  0  0  0  0
 26 30  1  0  0  0  0
 26 31  1  0  0  0  0
 27 26  1  0  0  0  0
 27 32  1  0  0  0  0
 28 35  1  0  0  0  0
 28 27  1  0  0  0  0
 29 25  1  0  0  0  0
 33 27  1  0  0  0  0
 34 28  1  0  0  0  0
 36 37  1  6  0  0  0
 36 38  1  0  0  0  0
 36  1  1  0  0  0  0
 38 40  1  0  0  0  0
 38 41  1  0  0  0  0
 39 38  1  0  0  0  0
 42 36  1  0  0  0  0
 42 44  1  0  0  0  0
 43 42  1  0  0  0  0
 45 42  1  0  0  0  0
 45 49  1  0  0  0  0
 46 47  1  0  0  0  0
 46 45  2  0  0  0  0
 47 48  2  0  0  0  0
 48 50  1  0  0  0  0
 48 49  1  0  0  0  0
 49 51  1  0  0  0  0
 51 52  1  0  0  0  0
 51 54  1  0  0  0  0
 51 53  1  0  0  0  0
M  END
>  <MODEL>
23

>  <REMARK>
 VINA RESULT:    -6.525      2.655      8.358
 INTER + INTRA:          -9.920
 INTER:                  -9.141
 INTRA:                  -0.779
 UNBOUND:                -1.106
  Name = 
  7 active torsions:
  status: ('A' for Active; 'I' for Inactive)
    1  A    between atoms: C_1  and  C_2
    2  A    between atoms: C_2  and  C_3
    3  A    between atoms: C_2  and  C_10
    4  A    between atoms: C_3  and  C_4
    5  A    between atoms: N_8  and  C_9
    6  A    between atoms: C_14  and  N_15
    7  A    between atoms: C_22  and  C_23
                            x       y       z     vdW  Elec       q    Type
                         _______ _______ _______ _____ _____    ______ ____

>  <TORSDO>
F 7

$$$$
=
 OpenBabel07192307433D

 54 58  0  0  1  0  0  0  0  0999 V2000
    0.0380   11.7340   20.3520 C   0  0  0  0  0  0  0  0  0  0  0  0
   -0.8070   12.0100   19.2710 C   0  0  0  0  0  0  0  0  0  0  0  0
   -0.8960   11.1180   18.2060 C   0  0  0  0  0  0  0  0  0  0  0  0
   -0.1320    9.9450   18.1970 C   0  0  0  0  0  0  0  0  0  0  0  0
    0.7330    9.6320   19.2520 C   0  0  0  0  0  0  0  0  0  0  0  0
    0.7880   10.5420   20.3250 C   0  0  0  0  0  0  0  0  0  0  0  0
    1.5910   10.2930   21.3730 F   0  0  0  0  0  0  0  0  0  0  0  0
   -1.4020   12.9200   19.2410 H   0  0  0  0  0  0  0  0  0  0  0  0
   -1.5600   11.3300   17.3720 H   0  0  0  0  0  0  0  0  0  0  0  0
   -0.2440    9.2910   17.3380 H   0  0  0  0  0  0  0  0  0  0  0  0
    1.5290    8.4480   19.2340 N   0  0  0  0  0  0  0  0  0  0  0  0
    2.5190    8.1910   18.1910 C   0  0  0  0  0  0  0  0  0  0  0  0
    3.0850    6.8700   18.5720 C   0  0  0  0  0  0  0  0  0  0  0  0
    2.4750    6.4040   19.7250 C   0  0  0  0  0  0  0  0  0  0  0  0
    2.8030    5.2010   20.3030 C   0  0  0  0  0  0  0  0  0  0  0  0
    3.7860    4.4930   19.6470 C   0  0  0  0  0  0  0  0  0  0  0  0
    4.4090    4.9170   18.5110 N   0  0  0  0  0  0  0  0  0  0  0  0
    4.0630    6.1140   17.9630 C   0  0  0  0  0  0  0  0  0  0  0  0
    1.4800    7.3940   20.1520 C   0  0  0  0  0  0  0  0  0  0  0  0
    0.7880    7.2210   21.1370 O   0  0  0  0  0  0  0  0  0  0  0  0
    3.2940    8.9630   18.2160 H   0  0  0  0  0  0  0  0  0  0  0  0
    2.0230    8.1270   17.2160 H   0  0  0  0  0  0  0  0  0  0  0  0
    2.3230    4.8420   21.2020 H   0  0  0  0  0  0  0  0  0  0  0  0
    4.1230    3.5270   20.0170 H   0  0  0  0  0  0  0  0  0  0  0  0
    4.8270    6.5120   16.6420 C   0  0  0  0  0  0  0  0  0  0  0  0
    6.3150    6.9570   16.7090 C   0  0  0  0  0  0  0  0  0  0  0  0
    6.7090    5.5140   16.3420 C   0  0  0  0  0  0  0  0  0  0  0  0
    5.3090    5.3560   15.7200 C   0  0  0  0  0  0  0  0  0  0  0  0
    4.2300    7.2490   16.0830 H   0  0  0  0  0  0  0  0  0  0  0  0
    6.6840    7.3180   17.6730 H   0  0  0  0  0  0  0  0  0  0  0  0
    6.5840    7.6920   15.9410 H   0  0  0  0  0  0  0  0  0  0  0  0
    7.5500    5.4130   15.6490 H   0  0  0  0  0  0  0  0  0  0  0  0
    6.8850    4.8680   17.2080 H   0  0  0  0  0  0  0  0  0  0  0  0
    4.8380    4.3820   15.8710 H   0  0  0  0  0  0  0  0  0  0  0  0
    5.2700    5.6030   14.6520 H   0  0  0  0  0  0  0  0  0  0  0  0
    0.2080   12.7040   21.5140 C   0  0  2  0  0  0  0  0  0  0  0  0
    1.0520   12.3650   22.1320 H   0  0  0  0  0  0  0  0  0  0  0  0
   -1.0110   12.7010   22.4460 C   0  0  0  0  0  0  0  0  0  0  0  0
   -0.9400   13.5040   23.1890 H   0  0  0  0  0  0  0  0  0  0  0  0
   -1.1200   11.7530   22.9820 H   0  0  0  0  0  0  0  0  0  0  0  0
   -1.9310   12.8600   21.8730 H   0  0  0  0  0  0  0  0  0  0  0  0
    0.5010   14.1350   21.0190 C   0  0  0  0  0  0  0  0  0  0  0  0
    0.0650   14.8570   21.7220 H   0  0  0  0  0  0  0  0  0  0  0  0
    0.0160   14.3220   20.0530 H   0  0  0  0  0  0  0  0  0  0  0  0
    1.9660   14.4200   20.9490 C   0  0  0  0  0  0  0  0  0  0  0  0
    2.7110   14.8690   21.9400 N   0  0  0  0  0  0  0  0  0  0  0  0
    4.0060   14.9770   21.4920 N   0  0  0  0  0  0  0  0  0  0  0  0
    4.0230   14.6020   20.2360 C   0  0  0  0  0  0  0  0  0  0  0  0
    2.7660   14.2520   19.8480 N   0  0  0  0  0  0  0  0  0  0  0  0
    4.8910   14.5700   19.5930 H   0  0  0  0  0  0  0  0  0  0  0  0
    2.3880   13.8050   18.5350 C   0  0  0  0  0  0  0  0  0  0  0  0
    3.2710   13.4390   18.0040 H   0  0  0  0  0  0  0  0  0  0  0  0
    1.6620   12.9960   18.6370 H   0  0  0  0  0  0  0  0  0  0  0  0
    1.9590   14.6450   17.9830 H   0  0  0  0  0  0  0  0  0  0  0  0
  1 36  1  0  0  0  0
  2  1  2  0  0  0  0
  3  2  1  0  0  0  0
  4  3  2  0  0  0  0
  4  5  1  0  0  0  0
  5  6  2  0  0  0  0
  6  1  1  0  0  0  0
  6  7  1  0  0  0  0
  8  2  1  0  0  0  0
  9  3  1  0  0  0  0
 10  4  1  0  0  0  0
 11  5  1  0  0  0  0
 11 19  1  0  0  0  0
 12 21  1  0  0  0  0
 12 13  1  0  0  0  0
 12 11  1  0  0  0  0
 13 14  1  0  0  0  0
 14 19  1  0  0  0  0
 14 15  2  0  0  0  0
 15 23  1  0  0  0  0
 16 24  1  0  0  0  0
 16 15  1  0  0  0  0
 17 16  2  0  0  0  0
 18 17  1  0  0  0  0
 18 13  2  0  0  0  0
 19 20  2  0  0  0  0
 22 12  1  0  0  0  0
 25 26  1  0  0  0  0
 25 18  1  0  0  0  0
 26 30  1  0  0  0  0
 27 26  1  0  0  0  0
 27 33  1  0  0  0  0
 28 34  1  0  0  0  0
 28 27  1  0  0  0  0
 28 25  1  0  0  0  0
 29 25  1  0  0  0  0
 31 26  1  0  0  0  0
 32 27  1  0  0  0  0
 35 28  1  0  0  0  0
 36 37  1  1  0  0  0
 36 38  1  0  0  0  0
 38 40  1  0  0  0  0
 38 39  1  0  0  0  0
 41 38  1  0  0  0  0
 42 36  1  0  0  0  0
 42 43  1  0  0  0  0
 44 42  1  0  0  0  0
 45 42  1  0  0  0  0
 45 46  2  0  0  0  0
 47 46  1  0  0  0  0
 48 47  2  0  0  0  0
 49 48  1  0  0  0  0
 49 45  1  0  0  0  0
 50 48  1  0  0  0  0
 51 53  1  0  0  0  0
 51 49  1  0  0  0  0
 52 51  1  0  0  0  0
 54 51  1  0  0  0  0
M  END
>  <MODEL>
24

>  <REMARK>
 VINA RESULT:    -6.521      3.112      4.392
 INTER + INTRA:          -9.915
 INTER:                  -8.798
 INTRA:                  -1.117
 UNBOUND:                -1.106
  Name = 
  7 active torsions:
  status: ('A' for Active; 'I' for Inactive)
    1  A    between atoms: C_1  and  C_2
    2  A    between atoms: C_2  and  C_3
    3  A    between atoms: C_2  and  C_10
    4  A    between atoms: C_3  and  C_4
    5  A    between atoms: N_8  and  C_9
    6  A    between atoms: C_14  and  N_15
    7  A    between atoms: C_22  and  C_23
                            x       y       z     vdW  Elec       q    Type
                         _______ _______ _______ _____ _____    ______ ____

>  <TORSDO>
F 7

$$$$
=
 OpenBabel07192307433D

 54 58  0  0  1  0  0  0  0  0999 V2000
    0.3660   10.1420   20.4960 C   0  0  0  0  0  0  0  0  0  0  0  0
   -0.2570   10.6920   19.3700 C   0  0  0  0  0  0  0  0  0  0  0  0
   -0.0220   10.1550   18.1070 C   0  0  0  0  0  0  0  0  0  0  0  0
    0.8490    9.0720   17.9480 C   0  0  0  0  0  0  0  0  0  0  0  0
    1.5020    8.4950   19.0430 C   0  0  0  0  0  0  0  0  0  0  0  0
    1.2300    9.0450   20.3110 C   0  0  0  0  0  0  0  0  0  0  0  0
    1.8160    8.5290   21.4040 F   0  0  0  0  0  0  0  0  0  0  0  0
   -0.9280   11.5440   19.4580 H   0  0  0  0  0  0  0  0  0  0  0  0
   -0.5150   10.5790   17.2350 H   0  0  0  0  0  0  0  0  0  0  0  0
    0.9930    8.7000   16.9380 H   0  0  0  0  0  0  0  0  0  0  0  0
    2.4080    7.4050   18.8800 N   0  0  0  0  0  0  0  0  0  0  0  0
    2.2580    6.1500   19.6120 C   0  0  0  0  0  0  0  0  0  0  0  0
    3.4060    5.3350   19.1360 C   0  0  0  0  0  0  0  0  0  0  0  0
    4.1540    6.0540   18.2180 C   0  0  0  0  0  0  0  0  0  0  0  0
    5.2780    5.5430   17.6150 C   0  0  0  0  0  0  0  0  0  0  0  0
    5.6050    4.2590   17.9940 C   0  0  0  0  0  0  0  0  0  0  0  0
    4.8950    3.5200   18.8930 N   0  0  0  0  0  0  0  0  0  0  0  0
    3.7860    4.0540   19.4730 C   0  0  0  0  0  0  0  0  0  0  0  0
    3.5350    7.3730   18.0520 C   0  0  0  0  0  0  0  0  0  0  0  0
    4.0070    8.2120   17.3070 O   0  0  0  0  0  0  0  0  0  0  0  0
    1.3100    5.6750   19.3420 H   0  0  0  0  0  0  0  0  0  0  0  0
    2.3420    6.3360   20.6890 H   0  0  0  0  0  0  0  0  0  0  0  0
    5.8590    6.1080   16.9000 H   0  0  0  0  0  0  0  0  0  0  0  0
    6.4770    3.7570   17.5790 H   0  0  0  0  0  0  0  0  0  0  0  0
    3.0400    3.1300   20.5110 C   0  0  0  0  0  0  0  0  0  0  0  0
    1.9280    3.7240   21.4210 C   0  0  0  0  0  0  0  0  0  0  0  0
    0.8910    3.1970   20.4110 C   0  0  0  0  0  0  0  0  0  0  0  0
    1.9460    2.1720   19.9570 C   0  0  0  0  0  0  0  0  0  0  0  0
    3.7810    2.5850   21.1140 H   0  0  0  0  0  0  0  0  0  0  0  0
    1.9340    4.8070   21.5730 H   0  0  0  0  0  0  0  0  0  0  0  0
    1.8660    3.2390   22.4030 H   0  0  0  0  0  0  0  0  0  0  0  0
   -0.0220    2.7780   20.8430 H   0  0  0  0  0  0  0  0  0  0  0  0
    0.6160    3.9230   19.6380 H   0  0  0  0  0  0  0  0  0  0  0  0
    1.9710    1.9710   18.8830 H   0  0  0  0  0  0  0  0  0  0  0  0
    1.8910    1.2160   20.4910 H   0  0  0  0  0  0  0  0  0  0  0  0
    0.1800   10.7270   21.8900 C   0  0  2  0  0  0  0  0  0  0  0  0
    1.1510   10.7170   22.4060 H   0  0  0  0  0  0  0  0  0  0  0  0
   -0.7540    9.8680   22.7530 C   0  0  0  0  0  0  0  0  0  0  0  0
   -1.6750   10.4110   22.9950 H   0  0  0  0  0  0  0  0  0  0  0  0
   -0.2840    9.5610   23.6930 H   0  0  0  0  0  0  0  0  0  0  0  0
   -1.0370    8.9550   22.2170 H   0  0  0  0  0  0  0  0  0  0  0  0
   -0.3320   12.1810   21.8300 C   0  0  0  0  0  0  0  0  0  0  0  0
   -0.3520   12.5140   20.7840 H   0  0  0  0  0  0  0  0  0  0  0  0
    0.3560   12.8600   22.3500 H   0  0  0  0  0  0  0  0  0  0  0  0
   -1.7220   12.3130   22.3610 C   0  0  0  0  0  0  0  0  0  0  0  0
   -2.0690   12.2500   23.6330 N   0  0  0  0  0  0  0  0  0  0  0  0
   -3.4270   12.4430   23.7190 N   0  0  0  0  0  0  0  0  0  0  0  0
   -3.8810   12.6110   22.5000 C   0  0  0  0  0  0  0  0  0  0  0  0
   -2.8510   12.5290   21.6140 N   0  0  0  0  0  0  0  0  0  0  0  0
   -4.9110   12.7880   22.2240 H   0  0  0  0  0  0  0  0  0  0  0  0
   -2.9620   12.6450   20.1860 C   0  0  0  0  0  0  0  0  0  0  0  0
   -4.0180   12.6640   19.9010 H   0  0  0  0  0  0  0  0  0  0  0  0
   -2.4830   13.5740   19.8720 H   0  0  0  0  0  0  0  0  0  0  0  0
   -2.4790   11.7820   19.7200 H   0  0  0  0  0  0  0  0  0  0  0  0
  1 36  1  0  0  0  0
  2  8  1  0  0  0  0
  2  1  2  0  0  0  0
  3  2  1  0  0  0  0
  4  3  2  0  0  0  0
  4  5  1  0  0  0  0
  5  6  2  0  0  0  0
  6  1  1  0  0  0  0
  6  7  1  0  0  0  0
  9  3  1  0  0  0  0
 10  4  1  0  0  0  0
 11  5  1  0  0  0  0
 11 12  1  0  0  0  0
 12 22  1  0  0  0  0
 13 18  1  0  0  0  0
 13 12  1  0  0  0  0
 14 13  2  0  0  0  0
 15 16  2  0  0  0  0
 15 14  1  0  0  0  0
 16 17  1  0  0  0  0
 17 18  2  0  0  0  0
 18 25  1  0  0  0  0
 19 14  1  0  0  0  0
 19 11  1  0  0  0  0
 20 19  2  0  0  0  0
 21 12  1  0  0  0  0
 23 15  1  0  0  0  0
 24 16  1  0  0  0  0
 25 29  1  0  0  0  0
 25 26  1  0  0  0  0
 26 30  1  0  0  0  0
 26 31  1  0  0  0  0
 27 32  1  0  0  0  0
 27 26  1  0  0  0  0
 28 27  1  0  0  0  0
 28 35  1  0  0  0  0
 28 25  1  0  0  0  0
 33 27  1  0  0  0  0
 34 28  1  0  0  0  0
 36 37  1  1  0  0  0
 36 38  1  0  0  0  0
 38 39  1  0  0  0  0
 38 40  1  0  0  0  0
 41 38  1  0  0  0  0
 42 36  1  0  0  0  0
 42 44  1  0  0  0  0
 42 45  1  0  0  0  0
 43 42  1  0  0  0  0
 45 46  2  0  0  0  0
 46 47  1  0  0  0  0
 48 47  2  0  0  0  0
 49 45  1  0  0  0  0
 49 48  1  0  0  0  0
 50 48  1  0  0  0  0
 51 49  1  0  0  0  0
 52 51  1  0  0  0  0
 53 51  1  0  0  0  0
 54 51  1  0  0  0  0
M  END
>  <MODEL>
25

>  <REMARK>
 VINA RESULT:    -6.502      2.748      4.419
 INTER + INTRA:          -9.889
 INTER:                 -10.146
 INTRA:                   0.257
 UNBOUND:                -1.106
  Name = 
  7 active torsions:
  status: ('A' for Active; 'I' for Inactive)
    1  A    between atoms: C_1  and  C_2
    2  A    between atoms: C_2  and  C_3
    3  A    between atoms: C_2  and  C_10
    4  A    between atoms: C_3  and  C_4
    5  A    between atoms: N_8  and  C_9
    6  A    between atoms: C_14  and  N_15
    7  A    between atoms: C_22  and  C_23
                            x       y       z     vdW  Elec       q    Type
                         _______ _______ _______ _____ _____    ______ ____

>  <TORSDO>
F 7

$$$$
=
 OpenBabel07192307433D

 54 58  0  0  1  0  0  0  0  0999 V2000
    5.1920    4.3350   17.1730 C   0  0  0  0  0  0  0  0  0  0  0  0
    4.4380    3.1620   17.2900 C   0  0  0  0  0  0  0  0  0  0  0  0
    3.1280    3.2160   17.7580 C   0  0  0  0  0  0  0  0  0  0  0  0
    2.5560    4.4380   18.1290 C   0  0  0  0  0  0  0  0  0  0  0  0
    3.2750    5.6350   18.0370 C   0  0  0  0  0  0  0  0  0  0  0  0
    4.5910    5.5540   17.5420 C   0  0  0  0  0  0  0  0  0  0  0  0
    5.3290    6.6690   17.4200 F   0  0  0  0  0  0  0  0  0  0  0  0
    4.8580    2.1950   17.0240 H   0  0  0  0  0  0  0  0  0  0  0  0
    2.5400    2.3040   17.8400 H   0  0  0  0  0  0  0  0  0  0  0  0
    1.5320    4.4140   18.4880 H   0  0  0  0  0  0  0  0  0  0  0  0
    2.7020    6.8790   18.4370 N   0  0  0  0  0  0  0  0  0  0  0  0
    2.0730    7.0640   19.7430 C   0  0  0  0  0  0  0  0  0  0  0  0
    1.6270    8.4810   19.7120 C   0  0  0  0  0  0  0  0  0  0  0  0
    1.9600    9.0610   18.4990 C   0  0  0  0  0  0  0  0  0  0  0  0
    1.6620   10.3670   18.1950 C   0  0  0  0  0  0  0  0  0  0  0  0
    1.0070   11.0590   19.1900 C   0  0  0  0  0  0  0  0  0  0  0  0
    0.6620   10.5240   20.3960 N   0  0  0  0  0  0  0  0  0  0  0  0
    0.9700    9.2270   20.6680 C   0  0  0  0  0  0  0  0  0  0  0  0
    2.6370    8.0520   17.6780 C   0  0  0  0  0  0  0  0  0  0  0  0
    3.0230    8.2990   16.5500 O   0  0  0  0  0  0  0  0  0  0  0  0
    2.8130    6.9110   20.5350 H   0  0  0  0  0  0  0  0  0  0  0  0
    1.2120    6.3940   19.8390 H   0  0  0  0  0  0  0  0  0  0  0  0
    1.9240   10.8150   17.2460 H   0  0  0  0  0  0  0  0  0  0  0  0
    0.7230   12.1000   19.0570 H   0  0  0  0  0  0  0  0  0  0  0  0
    0.5180    8.6930   22.0810 C   0  0  0  0  0  0  0  0  0  0  0  0
    0.7880    9.5420   23.3560 C   0  0  0  0  0  0  0  0  0  0  0  0
   -0.6530   10.0740   23.2440 C   0  0  0  0  0  0  0  0  0  0  0  0
   -0.9920    8.8080   22.4370 C   0  0  0  0  0  0  0  0  0  0  0  0
    0.8850    7.6650   22.2180 H   0  0  0  0  0  0  0  0  0  0  0  0
    1.5780   10.2950   23.2940 H   0  0  0  0  0  0  0  0  0  0  0  0
    0.9610    8.9350   24.2520 H   0  0  0  0  0  0  0  0  0  0  0  0
   -1.1900   10.1910   24.1900 H   0  0  0  0  0  0  0  0  0  0  0  0
   -0.7400   11.0030   22.6700 H   0  0  0  0  0  0  0  0  0  0  0  0
   -1.6820    8.9560   21.6020 H   0  0  0  0  0  0  0  0  0  0  0  0
   -1.3610    7.9780   23.0520 H   0  0  0  0  0  0  0  0  0  0  0  0
    6.6450    4.3210   16.7160 C   0  0  2  0  0  0  0  0  0  0  0  0
    6.9020    3.2990   16.4020 H   0  0  0  0  0  0  0  0  0  0  0  0
    7.6100    4.6550   17.8620 C   0  0  0  0  0  0  0  0  0  0  0  0
    7.2860    4.1860   18.7980 H   0  0  0  0  0  0  0  0  0  0  0  0
    7.6910    5.7330   18.0330 H   0  0  0  0  0  0  0  0  0  0  0  0
    8.6150    4.2840   17.6340 H   0  0  0  0  0  0  0  0  0  0  0  0
    6.8730    5.2760   15.5260 C   0  0  0  0  0  0  0  0  0  0  0  0
    7.9020    5.6580   15.5630 H   0  0  0  0  0  0  0  0  0  0  0  0
    6.2210    6.1550   15.6000 H   0  0  0  0  0  0  0  0  0  0  0  0
    6.7040    4.5900   14.2100 C   0  0  0  0  0  0  0  0  0  0  0  0
    5.8140    3.6550   13.9390 N   0  0  0  0  0  0  0  0  0  0  0  0
    5.9560    3.2950   12.6200 N   0  0  0  0  0  0  0  0  0  0  0  0
    6.9340    4.0090   12.1170 C   0  0  0  0  0  0  0  0  0  0  0  0
    7.4400    4.8290   13.0780 N   0  0  0  0  0  0  0  0  0  0  0  0
    7.2950    3.9660   11.1000 H   0  0  0  0  0  0  0  0  0  0  0  0
    8.5330    5.7470   12.9070 C   0  0  0  0  0  0  0  0  0  0  0  0
    8.3580    6.3630   12.0210 H   0  0  0  0  0  0  0  0  0  0  0  0
    8.5940    6.3860   13.7890 H   0  0  0  0  0  0  0  0  0  0  0  0
    9.4570    5.1790   12.7740 H   0  0  0  0  0  0  0  0  0  0  0  0
  1  2  2  0  0  0  0
  1  6  1  0  0  0  0
  2  3  1  0  0  0  0
  3  9  1  0  0  0  0
  3  4  2  0  0  0  0
  4 10  1  0  0  0  0
  5  4  1  0  0  0  0
  5 11  1  0  0  0  0
  6  5  2  0  0  0  0
  7  6  1  0  0  0  0
  8  2  1  0  0  0  0
 11 12  1  0  0  0  0
 12 22  1  0  0  0  0
 12 21  1  0  0  0  0
 13 12  1  0  0  0  0
 13 18  1  0  0  0  0
 14 13  2  0  0  0  0
 15 14  1  0  0  0  0
 15 16  2  0  0  0  0
 16 17  1  0  0  0  0
 17 18  2  0  0  0  0
 18 25  1  0  0  0  0
 19 11  1  0  0  0  0
 19 14  1  0  0  0  0
 20 19  2  0  0  0  0
 23 15  1  0  0  0  0
 24 16  1  0  0  0  0
 25 29  1  0  0  0  0
 25 28  1  0  0  0  0
 25 26  1  0  0  0  0
 26 31  1  0  0  0  0
 27 26  1  0  0  0  0
 27 32  1  0  0  0  0
 28 35  1  0  0  0  0
 28 27  1  0  0  0  0
 30 26  1  0  0  0  0
 33 27  1  0  0  0  0
 34 28  1  0  0  0  0
 36 37  1  6  0  0  0
 36  1  1  0  0  0  0
 36 38  1  0  0  0  0
 38 40  1  0  0  0  0
 38 39  1  0  0  0  0
 41 38  1  0  0  0  0
 42 43  1  0  0  0  0
 42 44  1  0  0  0  0
 42 36  1  0  0  0  0
 45 42  1  0  0  0  0
 46 45  2  0  0  0  0
 47 46  1  0  0  0  0
 48 47  2  0  0  0  0
 48 49  1  0  0  0  0
 49 45  1  0  0  0  0
 50 48  1  0  0  0  0
 51 49  1  0  0  0  0
 51 53  1  0  0  0  0
 52 51  1  0  0  0  0
 54 51  1  0  0  0  0
M  END
>  <MODEL>
26

>  <REMARK>
 VINA RESULT:    -6.470      3.019      8.904
 INTER + INTRA:          -9.846
 INTER:                  -9.571
 INTRA:                  -0.275
 UNBOUND:                -1.106
  Name = 
  7 active torsions:
  status: ('A' for Active; 'I' for Inactive)
    1  A    between atoms: C_1  and  C_2
    2  A    between atoms: C_2  and  C_3
    3  A    between atoms: C_2  and  C_10
    4  A    between atoms: C_3  and  C_4
    5  A    between atoms: N_8  and  C_9
    6  A    between atoms: C_14  and  N_15
    7  A    between atoms: C_22  and  C_23
                            x       y       z     vdW  Elec       q    Type
                         _______ _______ _______ _____ _____    ______ ____

>  <TORSDO>
F 7

$$$$
=
 OpenBabel07192307433D

 54 58  0  0  1  0  0  0  0  0999 V2000
   -0.0700   12.4620   19.5770 C   0  0  0  0  0  0  0  0  0  0  0  0
   -1.1010   12.4880   18.6310 C   0  0  0  0  0  0  0  0  0  0  0  0
   -1.3930   11.3510   17.8820 C   0  0  0  0  0  0  0  0  0  0  0  0
   -0.6530   10.1770   18.0560 C   0  0  0  0  0  0  0  0  0  0  0  0
    0.3930   10.1070   18.9840 C   0  0  0  0  0  0  0  0  0  0  0  0
    0.6540   11.2650   19.7420 C   0  0  0  0  0  0  0  0  0  0  0  0
    1.6370   11.2580   20.6570 F   0  0  0  0  0  0  0  0  0  0  0  0
   -1.6850   13.3900   18.4610 H   0  0  0  0  0  0  0  0  0  0  0  0
   -2.2010   11.3720   17.1540 H   0  0  0  0  0  0  0  0  0  0  0  0
   -0.9280    9.3250   17.4420 H   0  0  0  0  0  0  0  0  0  0  0  0
    1.1640    8.9170   19.1470 N   0  0  0  0  0  0  0  0  0  0  0  0
    2.1760    8.5060   18.1760 C   0  0  0  0  0  0  0  0  0  0  0  0
    2.7030    7.2390   18.7460 C   0  0  0  0  0  0  0  0  0  0  0  0
    2.0520    6.9410   19.9320 C   0  0  0  0  0  0  0  0  0  0  0  0
    2.3390    5.8200   20.6740 C   0  0  0  0  0  0  0  0  0  0  0  0
    3.3240    5.0140   20.1470 C   0  0  0  0  0  0  0  0  0  0  0  0
    3.9860    5.2720   18.9840 N   0  0  0  0  0  0  0  0  0  0  0  0
    3.6800    6.3910   18.2720 C   0  0  0  0  0  0  0  0  0  0  0  0
    1.0680    7.9960   20.1940 C   0  0  0  0  0  0  0  0  0  0  0  0
    0.3460    7.9680   21.1730 O   0  0  0  0  0  0  0  0  0  0  0  0
    2.9660    9.2610   18.1220 H   0  0  0  0  0  0  0  0  0  0  0  0
    1.7050    8.3220   17.2040 H   0  0  0  0  0  0  0  0  0  0  0  0
    1.8280    5.5920   21.5990 H   0  0  0  0  0  0  0  0  0  0  0  0
    3.6310    4.1000   20.6520 H   0  0  0  0  0  0  0  0  0  0  0  0
    4.4880    6.5960   16.9330 C   0  0  0  0  0  0  0  0  0  0  0  0
    5.9880    7.0030   16.9840 C   0  0  0  0  0  0  0  0  0  0  0  0
    6.3440    5.5150   16.8130 C   0  0  0  0  0  0  0  0  0  0  0  0
    4.9550    5.3190   16.1780 C   0  0  0  0  0  0  0  0  0  0  0  0
    3.9280    7.2720   16.2680 H   0  0  0  0  0  0  0  0  0  0  0  0
    6.3450    7.4730   17.9040 H   0  0  0  0  0  0  0  0  0  0  0  0
    6.2980    7.6270   16.1370 H   0  0  0  0  0  0  0  0  0  0  0  0
    7.1970    5.3030   16.1620 H   0  0  0  0  0  0  0  0  0  0  0  0
    6.4790    4.9790   17.7590 H   0  0  0  0  0  0  0  0  0  0  0  0
    4.4500    4.3850   16.4370 H   0  0  0  0  0  0  0  0  0  0  0  0
    4.9500    5.4300   15.0870 H   0  0  0  0  0  0  0  0  0  0  0  0
    0.3210   13.6940   20.3820 C   0  0  2  0  0  0  0  0  0  0  0  0
   -0.3740   14.5100   20.1320 H   0  0  0  0  0  0  0  0  0  0  0  0
    1.7150   14.2100   20.0010 C   0  0  0  0  0  0  0  0  0  0  0  0
    2.4410   13.3900   19.9660 H   0  0  0  0  0  0  0  0  0  0  0  0
    2.0860   14.9600   20.7080 H   0  0  0  0  0  0  0  0  0  0  0  0
    1.6920   14.6770   19.0110 H   0  0  0  0  0  0  0  0  0  0  0  0
    0.2440   13.4270   21.8990 C   0  0  0  0  0  0  0  0  0  0  0  0
    0.6230   14.3050   22.4400 H   0  0  0  0  0  0  0  0  0  0  0  0
    0.8960   12.5920   22.1830 H   0  0  0  0  0  0  0  0  0  0  0  0
   -1.1580   13.1960   22.3620 C   0  0  0  0  0  0  0  0  0  0  0  0
   -2.1240   14.0940   22.3670 N   0  0  0  0  0  0  0  0  0  0  0  0
   -3.2680   13.4940   22.8380 N   0  0  0  0  0  0  0  0  0  0  0  0
   -2.9740   12.2460   23.1190 C   0  0  0  0  0  0  0  0  0  0  0  0
   -1.6610   12.0150   22.8450 N   0  0  0  0  0  0  0  0  0  0  0  0
   -3.6560   11.5040   23.5070 H   0  0  0  0  0  0  0  0  0  0  0  0
   -0.9700   10.7700   23.0410 C   0  0  0  0  0  0  0  0  0  0  0  0
   -1.6410    9.9390   22.8080 H   0  0  0  0  0  0  0  0  0  0  0  0
   -0.1070   10.7400   22.3750 H   0  0  0  0  0  0  0  0  0  0  0  0
   -0.6570   10.6980   24.0860 H   0  0  0  0  0  0  0  0  0  0  0  0
  1  6  1  0  0  0  0
  1 36  1  0  0  0  0
  2  1  2  0  0  0  0
  3  4  2  0  0  0  0
  3  2  1  0  0  0  0
  4  5  1  0  0  0  0
  5 11  1  0  0  0  0
  5  6  2  0  0  0  0
  6  7  1  0  0  0  0
  8  2  1  0  0  0  0
  9  3  1  0  0  0  0
 10  4  1  0  0  0  0
 11 19  1  0  0  0  0
 12 13  1  0  0  0  0
 12 11  1  0  0  0  0
 13 14  1  0  0  0  0
 14 19  1  0  0  0  0
 14 15  2  0  0  0  0
 15 23  1  0  0  0  0
 16 24  1  0  0  0  0
 16 15  1  0  0  0  0
 17 16  2  0  0  0  0
 18 13  2  0  0  0  0
 18 17  1  0  0  0  0
 19 20  2  0  0  0  0
 21 12  1  0  0  0  0
 22 12  1  0  0  0  0
 25 26  1  0  0  0  0
 25 18  1  0  0  0  0
 26 30  1  0  0  0  0
 27 26  1  0  0  0  0
 27 33  1  0  0  0  0
 28 34  1  0  0  0  0
 28 27  1  0  0  0  0
 28 25  1  0  0  0  0
 29 25  1  0  0  0  0
 31 26  1  0  0  0  0
 32 27  1  0  0  0  0
 35 28  1  0  0  0  0
 36 37  1  6  0  0  0
 36 42  1  0  0  0  0
 38 36  1  0  0  0  0
 38 40  1  0  0  0  0
 39 38  1  0  0  0  0
 41 38  1  0  0  0  0
 42 44  1  0  0  0  0
 42 45  1  0  0  0  0
 42 43  1  0  0  0  0
 45 46  2  0  0  0  0
 45 49  1  0  0  0  0
 46 47  1  0  0  0  0
 47 48  2  0  0  0  0
 48 50  1  0  0  0  0
 49 51  1  0  0  0  0
 49 48  1  0  0  0  0
 51 54  1  0  0  0  0
 52 51  1  0  0  0  0
 53 51  1  0  0  0  0
M  END
>  <MODEL>
27

>  <REMARK>
 VINA RESULT:    -6.442      2.685      3.929
 INTER + INTRA:          -9.807
 INTER:                  -8.851
 INTRA:                  -0.956
 UNBOUND:                -1.106
  Name = 
  7 active torsions:
  status: ('A' for Active; 'I' for Inactive)
    1  A    between atoms: C_1  and  C_2
    2  A    between atoms: C_2  and  C_3
    3  A    between atoms: C_2  and  C_10
    4  A    between atoms: C_3  and  C_4
    5  A    between atoms: N_8  and  C_9
    6  A    between atoms: C_14  and  N_15
    7  A    between atoms: C_22  and  C_23
                            x       y       z     vdW  Elec       q    Type
                         _______ _______ _______ _____ _____    ______ ____

>  <TORSDO>
F 7

$$$$
=
 OpenBabel07192307433D

 54 58  0  0  1  0  0  0  0  0999 V2000
    2.4760    7.0630   19.3900 C   0  0  0  0  0  0  0  0  0  0  0  0
    2.4840    7.2510   18.0040 C   0  0  0  0  0  0  0  0  0  0  0  0
    1.9180    8.3960   17.4500 C   0  0  0  0  0  0  0  0  0  0  0  0
    1.3250    9.3620   18.2700 C   0  0  0  0  0  0  0  0  0  0  0  0
    1.2860    9.2130   19.6610 C   0  0  0  0  0  0  0  0  0  0  0  0
    1.8840    8.0540   20.1960 C   0  0  0  0  0  0  0  0  0  0  0  0
    1.8900    7.8570   21.5240 F   0  0  0  0  0  0  0  0  0  0  0  0
    2.9230    6.5110   17.3380 H   0  0  0  0  0  0  0  0  0  0  0  0
    1.9330    8.5450   16.3730 H   0  0  0  0  0  0  0  0  0  0  0  0
    0.8990   10.2320   17.7790 H   0  0  0  0  0  0  0  0  0  0  0  0
    0.6620   10.1860   20.4970 N   0  0  0  0  0  0  0  0  0  0  0  0
    0.9940   11.6060   20.4220 C   0  0  0  0  0  0  0  0  0  0  0  0
    0.1200   12.2180   21.4570 C   0  0  0  0  0  0  0  0  0  0  0  0
   -0.6430   11.2420   22.0770 C   0  0  0  0  0  0  0  0  0  0  0  0
   -1.5390   11.5270   23.0780 C   0  0  0  0  0  0  0  0  0  0  0  0
   -1.6230   12.8590   23.4200 C   0  0  0  0  0  0  0  0  0  0  0  0
   -0.8900   13.8480   22.8340 N   0  0  0  0  0  0  0  0  0  0  0  0
   -0.0100   13.5350   21.8440 C   0  0  0  0  0  0  0  0  0  0  0  0
   -0.3030    9.9460   21.4810 C   0  0  0  0  0  0  0  0  0  0  0  0
   -0.8230    8.9120   21.8580 O   0  0  0  0  0  0  0  0  0  0  0  0
    0.7450   11.9940   19.4300 H   0  0  0  0  0  0  0  0  0  0  0  0
    2.0490   11.7550   20.6770 H   0  0  0  0  0  0  0  0  0  0  0  0
   -2.1320   10.7610   23.5590 H   0  0  0  0  0  0  0  0  0  0  0  0
   -2.3010   13.1960   24.2000 H   0  0  0  0  0  0  0  0  0  0  0  0
    0.8030   14.7420   21.2390 C   0  0  0  0  0  0  0  0  0  0  0  0
    2.0740   15.2670   21.9660 C   0  0  0  0  0  0  0  0  0  0  0  0
    2.9150   14.3970   21.0130 C   0  0  0  0  0  0  0  0  0  0  0  0
    1.7330   14.4420   20.0280 C   0  0  0  0  0  0  0  0  0  0  0  0
    0.1150   15.5730   21.0190 H   0  0  0  0  0  0  0  0  0  0  0  0
    2.1710   15.0340   23.0300 H   0  0  0  0  0  0  0  0  0  0  0  0
    2.2370   16.3430   21.8330 H   0  0  0  0  0  0  0  0  0  0  0  0
    3.8460   14.8480   20.6570 H   0  0  0  0  0  0  0  0  0  0  0  0
    3.1320   13.3960   21.4000 H   0  0  0  0  0  0  0  0  0  0  0  0
    1.5420   13.5130   19.4840 H   0  0  0  0  0  0  0  0  0  0  0  0
    1.7900   15.2660   19.3060 H   0  0  0  0  0  0  0  0  0  0  0  0
    3.0360    5.8030   20.0390 C   0  0  2  0  0  0  0  0  0  0  0  0
    3.3320    6.0420   21.0700 H   0  0  0  0  0  0  0  0  0  0  0  0
    4.3170    5.3210   19.3440 C   0  0  0  0  0  0  0  0  0  0  0  0
    4.0810    4.6820   18.4850 H   0  0  0  0  0  0  0  0  0  0  0  0
    4.9660    4.7540   20.0190 H   0  0  0  0  0  0  0  0  0  0  0  0
    4.8960    6.1740   18.9750 H   0  0  0  0  0  0  0  0  0  0  0  0
    1.9880    4.6720   20.0760 C   0  0  0  0  0  0  0  0  0  0  0  0
    1.0260    5.0590   19.7140 H   0  0  0  0  0  0  0  0  0  0  0  0
    1.8110    4.3360   21.1050 H   0  0  0  0  0  0  0  0  0  0  0  0
    2.3610    3.5260   19.1930 C   0  0  0  0  0  0  0  0  0  0  0  0
    2.0070    3.3800   17.9310 N   0  0  0  0  0  0  0  0  0  0  0  0
    2.5660    2.2170   17.4570 N   0  0  0  0  0  0  0  0  0  0  0  0
    3.2410    1.6730   18.4410 C   0  0  0  0  0  0  0  0  0  0  0  0
    3.1350    2.4520   19.5520 N   0  0  0  0  0  0  0  0  0  0  0  0
    3.8010    0.7500   18.3950 H   0  0  0  0  0  0  0  0  0  0  0  0
    3.7260    2.1730   20.8320 C   0  0  0  0  0  0  0  0  0  0  0  0
    3.2060    2.7430   21.6080 H   0  0  0  0  0  0  0  0  0  0  0  0
    3.6280    1.1050   21.0370 H   0  0  0  0  0  0  0  0  0  0  0  0
    4.7780    2.4700   20.8110 H   0  0  0  0  0  0  0  0  0  0  0  0
  1 36  1  0  0  0  0
  1  6  1  0  0  0  0
  2  1  2  0  0  0  0
  3  2  1  0  0  0  0
  3  4  2  0  0  0  0
  4  5  1  0  0  0  0
  5  6  2  0  0  0  0
  5 11  1  0  0  0  0
  6  7  1  0  0  0  0
  8  2  1  0  0  0  0
  9  3  1  0  0  0  0
 10  4  1  0  0  0  0
 11 19  1  0  0  0  0
 12 11  1  0  0  0  0
 12 22  1  0  0  0  0
 12 13  1  0  0  0  0
 13 18  2  0  0  0  0
 13 14  1  0  0  0  0
 14 15  2  0  0  0  0
 15 16  1  0  0  0  0
 15 23  1  0  0  0  0
 16 24  1  0  0  0  0
 17 16  2  0  0  0  0
 18 17  1  0  0  0  0
 19 20  2  0  0  0  0
 19 14  1  0  0  0  0
 21 12  1  0  0  0  0
 25 18  1  0  0  0  0
 25 26  1  0  0  0  0
 26 30  1  0  0  0  0
 27 33  1  0  0  0  0
 27 26  1  0  0  0  0
 28 27  1  0  0  0  0
 28 25  1  0  0  0  0
 29 25  1  0  0  0  0
 31 26  1  0  0  0  0
 32 27  1  0  0  0  0
 34 28  1  0  0  0  0
 35 28  1  0  0  0  0
 36 42  1  0  0  0  0
 36 37  1  1  0  0  0
 38 40  1  0  0  0  0
 38 36  1  0  0  0  0
 39 38  1  0  0  0  0
 41 38  1  0  0  0  0
 42 44  1  0  0  0  0
 43 42  1  0  0  0  0
 45 49  1  0  0  0  0
 45 42  1  0  0  0  0
 46 45  2  0  0  0  0
 47 46  1  0  0  0  0
 47 48  2  0  0  0  0
 48 49  1  0  0  0  0
 49 51  1  0  0  0  0
 50 48  1  0  0  0  0
 51 53  1  0  0  0  0
 51 52  1  0  0  0  0
 54 51  1  0  0  0  0
M  END
>  <MODEL>
28

>  <REMARK>
 VINA RESULT:    -6.425      3.354      8.663
 INTER + INTRA:          -9.785
 INTER:                  -9.851
 INTRA:                   0.066
 UNBOUND:                -1.106
  Name = 
  7 active torsions:
  status: ('A' for Active; 'I' for Inactive)
    1  A    between atoms: C_1  and  C_2
    2  A    between atoms: C_2  and  C_3
    3  A    between atoms: C_2  and  C_10
    4  A    between atoms: C_3  and  C_4
    5  A    between atoms: N_8  and  C_9
    6  A    between atoms: C_14  and  N_15
    7  A    between atoms: C_22  and  C_23
                            x       y       z     vdW  Elec       q    Type
                         _______ _______ _______ _____ _____    ______ ____

>  <TORSDO>
F 7

$$$$
=
 OpenBabel07192307433D

 54 58  0  0  1  0  0  0  0  0999 V2000
   -0.3160   10.1020   20.1480 C   0  0  0  0  0  0  0  0  0  0  0  0
   -0.2560   10.0760   21.5450 C   0  0  0  0  0  0  0  0  0  0  0  0
    0.6280    9.2160   22.1920 C   0  0  0  0  0  0  0  0  0  0  0  0
    1.4530    8.3610   21.4540 C   0  0  0  0  0  0  0  0  0  0  0  0
    1.4220    8.3460   20.0550 C   0  0  0  0  0  0  0  0  0  0  0  0
    0.5330    9.2400   19.4260 C   0  0  0  0  0  0  0  0  0  0  0  0
    0.4630    9.2830   18.0860 F   0  0  0  0  0  0  0  0  0  0  0  0
   -0.8960   10.7170   22.1480 H   0  0  0  0  0  0  0  0  0  0  0  0
    0.6790    9.2040   23.2790 H   0  0  0  0  0  0  0  0  0  0  0  0
    2.1200    7.7130   22.0160 H   0  0  0  0  0  0  0  0  0  0  0  0
    2.2470    7.4590   19.3010 N   0  0  0  0  0  0  0  0  0  0  0  0
    2.3720    6.0410   19.6330 C   0  0  0  0  0  0  0  0  0  0  0  0
    3.3160    5.5310   18.6040 C   0  0  0  0  0  0  0  0  0  0  0  0
    3.7050    6.5580   17.7600 C   0  0  0  0  0  0  0  0  0  0  0  0
    4.5790    6.3690   16.7170 C   0  0  0  0  0  0  0  0  0  0  0  0
    5.0390    5.0780   16.5730 C   0  0  0  0  0  0  0  0  0  0  0  0
    4.6800    4.0420   17.3820 N   0  0  0  0  0  0  0  0  0  0  0  0
    3.8120    4.2600   18.4070 C   0  0  0  0  0  0  0  0  0  0  0  0
    3.0380    7.7890   18.1970 C   0  0  0  0  0  0  0  0  0  0  0  0
    3.2210    8.8510   17.6310 O   0  0  0  0  0  0  0  0  0  0  0  0
    1.3980    5.5510   19.5390 H   0  0  0  0  0  0  0  0  0  0  0  0
    2.8020    5.9300   20.6340 H   0  0  0  0  0  0  0  0  0  0  0  0
    4.8800    7.1740   16.0610 H   0  0  0  0  0  0  0  0  0  0  0  0
    5.7350    4.8160   15.7790 H   0  0  0  0  0  0  0  0  0  0  0  0
    3.4680    3.0040   19.2970 C   0  0  0  0  0  0  0  0  0  0  0  0
    2.0840    2.9030   19.9990 C   0  0  0  0  0  0  0  0  0  0  0  0
    1.6090    2.0310   18.8220 C   0  0  0  0  0  0  0  0  0  0  0  0
    3.0870    1.6890   18.5590 C   0  0  0  0  0  0  0  0  0  0  0  0
    4.2800    2.8360   20.0210 H   0  0  0  0  0  0  0  0  0  0  0  0
    1.5340    3.8360   20.1510 H   0  0  0  0  0  0  0  0  0  0  0  0
    2.1200    2.3660   20.9540 H   0  0  0  0  0  0  0  0  0  0  0  0
    0.9660    1.1870   19.0870 H   0  0  0  0  0  0  0  0  0  0  0  0
    1.1340    2.5970   18.0130 H   0  0  0  0  0  0  0  0  0  0  0  0
    3.3710    1.6190   17.5060 H   0  0  0  0  0  0  0  0  0  0  0  0
    3.4280    0.7830   19.0750 H   0  0  0  0  0  0  0  0  0  0  0  0
   -1.3030   10.9870   19.3970 C   0  0  2  0  0  0  0  0  0  0  0  0
   -2.2570   10.9900   19.9440 H   0  0  0  0  0  0  0  0  0  0  0  0
   -1.6280   10.4300   18.0040 C   0  0  0  0  0  0  0  0  0  0  0  0
   -2.5590   10.8610   17.6160 H   0  0  0  0  0  0  0  0  0  0  0  0
   -1.7360    9.3400   18.0090 H   0  0  0  0  0  0  0  0  0  0  0  0
   -0.8280   10.6760   17.2980 H   0  0  0  0  0  0  0  0  0  0  0  0
   -0.7920   12.4380   19.2880 C   0  0  0  0  0  0  0  0  0  0  0  0
   -1.0900   12.8540   18.3160 H   0  0  0  0  0  0  0  0  0  0  0  0
    0.3050   12.4700   19.3060 H   0  0  0  0  0  0  0  0  0  0  0  0
   -1.3730   13.3230   20.3420 C   0  0  0  0  0  0  0  0  0  0  0  0
   -2.6540   13.5970   20.4960 N   0  0  0  0  0  0  0  0  0  0  0  0
   -2.7910   14.4210   21.5870 N   0  0  0  0  0  0  0  0  0  0  0  0
   -1.5910   14.6420   22.0700 C   0  0  0  0  0  0  0  0  0  0  0  0
   -0.6690   13.9810   21.3170 N   0  0  0  0  0  0  0  0  0  0  0  0
   -1.3540   15.2500   22.9300 H   0  0  0  0  0  0  0  0  0  0  0  0
    0.7530   13.9970   21.5290 C   0  0  0  0  0  0  0  0  0  0  0  0
    1.0120   13.2980   22.3280 H   0  0  0  0  0  0  0  0  0  0  0  0
    1.2470   13.6940   20.6050 H   0  0  0  0  0  0  0  0  0  0  0  0
    1.0580   15.0060   21.8200 H   0  0  0  0  0  0  0  0  0  0  0  0
  1  2  1  0  0  0  0
  2  8  1  0  0  0  0
  2  3  2  0  0  0  0
  3  9  1  0  0  0  0
  4 10  1  0  0  0  0
  4  3  1  0  0  0  0
  5  4  2  0  0  0  0
  6  5  1  0  0  0  0
  6  1  2  0  0  0  0
  7  6  1  0  0  0  0
 11 12  1  0  0  0  0
 11  5  1  0  0  0  0
 12 22  1  0  0  0  0
 13 12  1  0  0  0  0
 14 19  1  0  0  0  0
 14 13  2  0  0  0  0
 15 14  1  0  0  0  0
 16 15  2  0  0  0  0
 16 17  1  0  0  0  0
 17 18  2  0  0  0  0
 18 13  1  0  0  0  0
 18 25  1  0  0  0  0
 19 11  1  0  0  0  0
 20 19  2  0  0  0  0
 21 12  1  0  0  0  0
 23 15  1  0  0  0  0
 24 16  1  0  0  0  0
 25 26  1  0  0  0  0
 25 29  1  0  0  0  0
 26 30  1  0  0  0  0
 26 31  1  0  0  0  0
 27 32  1  0  0  0  0
 27 26  1  0  0  0  0
 28 27  1  0  0  0  0
 28 35  1  0  0  0  0
 28 25  1  0  0  0  0
 33 27  1  0  0  0  0
 34 28  1  0  0  0  0
 36 37  1  1  0  0  0
 36  1  1  0  0  0  0
 38 40  1  0  0  0  0
 38 36  1  0  0  0  0
 39 38  1  0  0  0  0
 41 38  1  0  0  0  0
 42 44  1  0  0  0  0
 42 36  1  0  0  0  0
 42 45  1  0  0  0  0
 43 42  1  0  0  0  0
 45 46  2  0  0  0  0
 45 49  1  0  0  0  0
 46 47  1  0  0  0  0
 47 48  2  0  0  0  0
 48 50  1  0  0  0  0
 49 51  1  0  0  0  0
 49 48  1  0  0  0  0
 51 54  1  0  0  0  0
 51 52  1  0  0  0  0
 53 51  1  0  0  0  0
M  END
>  <MODEL>
29

>  <REMARK>
 VINA RESULT:    -6.384      2.293      3.930
 INTER + INTRA:          -9.729
 INTER:                  -9.984
 INTRA:                   0.255
 UNBOUND:                -1.106
  Name = 
  7 active torsions:
  status: ('A' for Active; 'I' for Inactive)
    1  A    between atoms: C_1  and  C_2
    2  A    between atoms: C_2  and  C_3
    3  A    between atoms: C_2  and  C_10
    4  A    between atoms: C_3  and  C_4
    5  A    between atoms: N_8  and  C_9
    6  A    between atoms: C_14  and  N_15
    7  A    between atoms: C_22  and  C_23
                            x       y       z     vdW  Elec       q    Type
                         _______ _______ _______ _____ _____    ______ ____

>  <TORSDO>
F 7

$$$$
=
 OpenBabel07192307433D

 54 58  0  0  1  0  0  0  0  0999 V2000
   -0.2140   11.7710   19.0760 C   0  0  0  0  0  0  0  0  0  0  0  0
    0.6800   12.7100   18.5490 C   0  0  0  0  0  0  0  0  0  0  0  0
    1.9600   12.3190   18.1640 C   0  0  0  0  0  0  0  0  0  0  0  0
    2.3700   10.9900   18.3110 C   0  0  0  0  0  0  0  0  0  0  0  0
    1.5130   10.0180   18.8400 C   0  0  0  0  0  0  0  0  0  0  0  0
    0.2180   10.4370   19.2040 C   0  0  0  0  0  0  0  0  0  0  0  0
   -0.6550    9.5500   19.7070 F   0  0  0  0  0  0  0  0  0  0  0  0
    0.3970   13.7550   18.4360 H   0  0  0  0  0  0  0  0  0  0  0  0
    2.6500   13.0490   17.7460 H   0  0  0  0  0  0  0  0  0  0  0  0
    3.3800   10.7470   17.9940 H   0  0  0  0  0  0  0  0  0  0  0  0
    1.9370    8.6660   19.0130 N   0  0  0  0  0  0  0  0  0  0  0  0
    2.6970    7.9510   17.9900 C   0  0  0  0  0  0  0  0  0  0  0  0
    2.9050    6.6090   18.5930 C   0  0  0  0  0  0  0  0  0  0  0  0
    2.3150    6.5510   19.8450 C   0  0  0  0  0  0  0  0  0  0  0  0
    2.3510    5.4230   20.6290 C   0  0  0  0  0  0  0  0  0  0  0  0
    3.0190    4.3520   20.0740 C   0  0  0  0  0  0  0  0  0  0  0  0
    3.6110    4.3710   18.8470 N   0  0  0  0  0  0  0  0  0  0  0  0
    3.5590    5.5030   18.0930 C   0  0  0  0  0  0  0  0  0  0  0  0
    1.6920    7.8490   20.1200 C   0  0  0  0  0  0  0  0  0  0  0  0
    1.0880    8.0610   21.1560 O   0  0  0  0  0  0  0  0  0  0  0  0
    3.6560    8.4510   17.8230 H   0  0  0  0  0  0  0  0  0  0  0  0
    2.1020    7.8710   17.0740 H   0  0  0  0  0  0  0  0  0  0  0  0
    1.8890    5.3820   21.6050 H   0  0  0  0  0  0  0  0  0  0  0  0
    3.1080    3.4090   20.6080 H   0  0  0  0  0  0  0  0  0  0  0  0
    4.2580    5.4240   16.6820 C   0  0  0  0  0  0  0  0  0  0  0  0
    5.6130    6.1490   16.4430 C   0  0  0  0  0  0  0  0  0  0  0  0
    6.3200    4.8090   16.7200 C   0  0  0  0  0  0  0  0  0  0  0  0
    5.0070    4.1070   16.3300 C   0  0  0  0  0  0  0  0  0  0  0  0
    3.5340    5.6940   15.8990 H   0  0  0  0  0  0  0  0  0  0  0  0
    5.8660    6.9680   17.1230 H   0  0  0  0  0  0  0  0  0  0  0  0
    5.7390    6.5050   15.4140 H   0  0  0  0  0  0  0  0  0  0  0  0
    7.1830    4.5890   16.0850 H   0  0  0  0  0  0  0  0  0  0  0  0
    6.6060    4.6660   17.7680 H   0  0  0  0  0  0  0  0  0  0  0  0
    4.7530    3.2250   16.9250 H   0  0  0  0  0  0  0  0  0  0  0  0
    4.9480    3.8410   15.2670 H   0  0  0  0  0  0  0  0  0  0  0  0
   -1.6050   12.1610   19.5590 C   0  0  2  0  0  0  0  0  0  0  0  0
   -1.9380   13.0410   18.9910 H   0  0  0  0  0  0  0  0  0  0  0  0
   -1.5990   12.5980   21.0310 C   0  0  0  0  0  0  0  0  0  0  0  0
   -2.0090   11.8120   21.6750 H   0  0  0  0  0  0  0  0  0  0  0  0
   -2.1840   13.5090   21.1940 H   0  0  0  0  0  0  0  0  0  0  0  0
   -0.5760   12.8030   21.3640 H   0  0  0  0  0  0  0  0  0  0  0  0
   -2.6200   11.0200   19.3430 C   0  0  0  0  0  0  0  0  0  0  0  0
   -3.2670   10.9410   20.2270 H   0  0  0  0  0  0  0  0  0  0  0  0
   -2.1080   10.0530   19.2550 H   0  0  0  0  0  0  0  0  0  0  0  0
   -3.5070   11.2680   18.1670 C   0  0  0  0  0  0  0  0  0  0  0  0
   -4.6160   11.9840   18.1780 N   0  0  0  0  0  0  0  0  0  0  0  0
   -5.1310   11.9980   16.9040 N   0  0  0  0  0  0  0  0  0  0  0  0
   -4.3330   11.2850   16.1450 C   0  0  0  0  0  0  0  0  0  0  0  0
   -3.3060   10.7990   16.8950 N   0  0  0  0  0  0  0  0  0  0  0  0
   -4.4570   11.1010   15.0880 H   0  0  0  0  0  0  0  0  0  0  0  0
   -2.2420    9.9600   16.4150 C   0  0  0  0  0  0  0  0  0  0  0  0
   -2.1890    9.0530   17.0240 H   0  0  0  0  0  0  0  0  0  0  0  0
   -2.4480    9.6920   15.3780 H   0  0  0  0  0  0  0  0  0  0  0  0
   -1.2970   10.5030   16.4970 H   0  0  0  0  0  0  0  0  0  0  0  0
  1  6  1  0  0  0  0
  1 36  1  0  0  0  0
  2  1  2  0  0  0  0
  3  4  2  0  0  0  0
  3  2  1  0  0  0  0
  4  5  1  0  0  0  0
  5 11  1  0  0  0  0
  5  6  2  0  0  0  0
  6  7  1  0  0  0  0
  8  2  1  0  0  0  0
  9  3  1  0  0  0  0
 10  4  1  0  0  0  0
 11 19  1  0  0  0  0
 12 13  1  0  0  0  0
 12 11  1  0  0  0  0
 13 14  1  0  0  0  0
 14 19  1  0  0  0  0
 14 15  2  0  0  0  0
 15 23  1  0  0  0  0
 16 24  1  0  0  0  0
 16 15  1  0  0  0  0
 17 16  2  0  0  0  0
 18 13  2  0  0  0  0
 18 17  1  0  0  0  0
 19 20  2  0  0  0  0
 21 12  1  0  0  0  0
 22 12  1  0  0  0  0
 25 18  1  0  0  0  0
 26 25  1  0  0  0  0
 26 27  1  0  0  0  0
 26 30  1  0  0  0  0
 27 33  1  0  0  0  0
 28 25  1  0  0  0  0
 28 27  1  0  0  0  0
 28 34  1  0  0  0  0
 29 25  1  0  0  0  0
 31 26  1  0  0  0  0
 32 27  1  0  0  0  0
 35 28  1  0  0  0  0
 36 37  1  6  0  0  0
 36 38  1  0  0  0  0
 38 40  1  0  0  0  0
 38 41  1  0  0  0  0
 38 39  1  0  0  0  0
 42 36  1  0  0  0  0
 42 43  1  0  0  0  0
 44 42  1  0  0  0  0
 45 46  2  0  0  0  0
 45 42  1  0  0  0  0
 47 46  1  0  0  0  0
 48 49  1  0  0  0  0
 48 47  2  0  0  0  0
 49 45  1  0  0  0  0
 50 48  1  0  0  0  0
 51 54  1  0  0  0  0
 51 49  1  0  0  0  0
 51 52  1  0  0  0  0
 53 51  1  0  0  0  0
M  END
>  <MODEL>
30

>  <REMARK>
 VINA RESULT:    -6.333      1.473      2.404
 INTER + INTRA:          -9.661
 INTER:                  -9.528
 INTRA:                  -0.133
 UNBOUND:                -1.106
  Name = 
  7 active torsions:
  status: ('A' for Active; 'I' for Inactive)
    1  A    between atoms: C_1  and  C_2
    2  A    between atoms: C_2  and  C_3
    3  A    between atoms: C_2  and  C_10
    4  A    between atoms: C_3  and  C_4
    5  A    between atoms: N_8  and  C_9
    6  A    between atoms: C_14  and  N_15
    7  A    between atoms: C_22  and  C_23
                            x       y       z     vdW  Elec       q    Type
                         _______ _______ _______ _____ _____    ______ ____

>  <TORSDO>
F 7

$$$$
=
 OpenBabel07192307433D

 54 58  0  0  1  0  0  0  0  0999 V2000
    2.8790    6.3490   18.9740 C   0  0  0  0  0  0  0  0  0  0  0  0
    3.5180    6.8410   17.8310 C   0  0  0  0  0  0  0  0  0  0  0  0
    3.2940    8.1500   17.4120 C   0  0  0  0  0  0  0  0  0  0  0  0
    2.4200    8.9820   18.1200 C   0  0  0  0  0  0  0  0  0  0  0  0
    1.7520    8.5310   19.2650 C   0  0  0  0  0  0  0  0  0  0  0  0
    2.0120    7.2090   19.6770 C   0  0  0  0  0  0  0  0  0  0  0  0
    1.4110    6.7200   20.7740 F   0  0  0  0  0  0  0  0  0  0  0  0
    4.1910    6.2150   17.2500 H   0  0  0  0  0  0  0  0  0  0  0  0
    3.7990    8.5330   16.5280 H   0  0  0  0  0  0  0  0  0  0  0  0
    2.2860    9.9910   17.7430 H   0  0  0  0  0  0  0  0  0  0  0  0
    0.8430    9.3700   19.9750 N   0  0  0  0  0  0  0  0  0  0  0  0
   -0.1730   10.1700   19.2940 C   0  0  0  0  0  0  0  0  0  0  0  0
   -0.8640   10.8680   20.4090 C   0  0  0  0  0  0  0  0  0  0  0  0
   -0.2970   10.5100   21.6210 C   0  0  0  0  0  0  0  0  0  0  0  0
   -0.7390   11.0110   22.8220 C   0  0  0  0  0  0  0  0  0  0  0  0
   -1.7910   11.8960   22.7290 C   0  0  0  0  0  0  0  0  0  0  0  0
   -2.3750   12.2720   21.5570 N   0  0  0  0  0  0  0  0  0  0  0  0
   -1.9150   11.7590   20.3830 C   0  0  0  0  0  0  0  0  0  0  0  0
    0.7920    9.5650   21.3580 C   0  0  0  0  0  0  0  0  0  0  0  0
    1.4690    9.1030   22.2580 O   0  0  0  0  0  0  0  0  0  0  0  0
   -0.8680    9.5120   18.7620 H   0  0  0  0  0  0  0  0  0  0  0  0
    0.3090   10.8950   18.6290 H   0  0  0  0  0  0  0  0  0  0  0  0
   -0.2930   10.7290   23.7660 H   0  0  0  0  0  0  0  0  0  0  0  0
   -2.2200   12.3530   23.6180 H   0  0  0  0  0  0  0  0  0  0  0  0
   -2.6430   12.2660   19.0790 C   0  0  0  0  0  0  0  0  0  0  0  0
   -2.4140   11.5330   17.7260 C   0  0  0  0  0  0  0  0  0  0  0  0
   -3.7150   10.7520   17.9870 C   0  0  0  0  0  0  0  0  0  0  0  0
   -4.1460   11.9040   18.9140 C   0  0  0  0  0  0  0  0  0  0  0  0
   -2.4760   13.3470   18.9630 H   0  0  0  0  0  0  0  0  0  0  0  0
   -1.5080   10.9270   17.6350 H   0  0  0  0  0  0  0  0  0  0  0  0
   -2.4710   12.1990   16.8570 H   0  0  0  0  0  0  0  0  0  0  0  0
   -4.3500   10.5830   17.1130 H   0  0  0  0  0  0  0  0  0  0  0  0
   -3.5640    9.7990   18.5050 H   0  0  0  0  0  0  0  0  0  0  0  0
   -4.6790   11.6010   19.8200 H   0  0  0  0  0  0  0  0  0  0  0  0
   -4.7310   12.6820   18.4080 H   0  0  0  0  0  0  0  0  0  0  0  0
    3.0510    4.9100   19.4420 C   0  0  2  0  0  0  0  0  0  0  0  0
    2.5990    4.2430   18.6940 H   0  0  0  0  0  0  0  0  0  0  0  0
    2.2950    4.6360   20.7490 C   0  0  0  0  0  0  0  0  0  0  0  0
    1.3590    5.2060   20.7880 H   0  0  0  0  0  0  0  0  0  0  0  0
    2.8870    4.8960   21.6320 H   0  0  0  0  0  0  0  0  0  0  0  0
    2.0410    3.5730   20.8270 H   0  0  0  0  0  0  0  0  0  0  0  0
    4.5410    4.5390   19.5970 C   0  0  0  0  0  0  0  0  0  0  0  0
    4.6220    3.6000   20.1590 H   0  0  0  0  0  0  0  0  0  0  0  0
    5.0720    5.2940   20.1900 H   0  0  0  0  0  0  0  0  0  0  0  0
    5.2100    4.3240   18.2790 C   0  0  0  0  0  0  0  0  0  0  0  0
    4.7040    3.6560   17.2590 N   0  0  0  0  0  0  0  0  0  0  0  0
    5.6060    3.7020   16.2230 N   0  0  0  0  0  0  0  0  0  0  0  0
    6.6460    4.3880   16.6340 C   0  0  0  0  0  0  0  0  0  0  0  0
    6.4480    4.7910   17.9190 N   0  0  0  0  0  0  0  0  0  0  0  0
    7.5310    4.6090   16.0550 H   0  0  0  0  0  0  0  0  0  0  0  0
    7.3750    5.5500   18.7120 C   0  0  0  0  0  0  0  0  0  0  0  0
    6.9190    5.7930   19.6760 H   0  0  0  0  0  0  0  0  0  0  0  0
    8.2710    4.9480   18.8740 H   0  0  0  0  0  0  0  0  0  0  0  0
    7.6190    6.4760   18.1850 H   0  0  0  0  0  0  0  0  0  0  0  0
  1 36  1  0  0  0  0
  1  6  1  0  0  0  0
  2  1  2  0  0  0  0
  3  2  1  0  0  0  0
  3  4  2  0  0  0  0
  4  5  1  0  0  0  0
  5  6  2  0  0  0  0
  5 11  1  0  0  0  0
  6  7  1  0  0  0  0
  8  2  1  0  0  0  0
  9  3  1  0  0  0  0
 10  4  1  0  0  0  0
 11 19  1  0  0  0  0
 12 11  1  0  0  0  0
 12 13  1  0  0  0  0
 13 14  1  0  0  0  0
 14 15  2  0  0  0  0
 15 23  1  0  0  0  0
 16 15  1  0  0  0  0
 16 24  1  0  0  0  0
 17 16  2  0  0  0  0
 18 13  2  0  0  0  0
 18 17  1  0  0  0  0
 19 14  1  0  0  0  0
 19 20  2  0  0  0  0
 21 12  1  0  0  0  0
 22 12  1  0  0  0  0
 25 18  1  0  0  0  0
 26 27  1  0  0  0  0
 26 25  1  0  0  0  0
 27 33  1  0  0  0  0
 27 28  1  0  0  0  0
 28 25  1  0  0  0  0
 28 34  1  0  0  0  0
 29 25  1  0  0  0  0
 30 26  1  0  0  0  0
 31 26  1  0  0  0  0
 32 27  1  0  0  0  0
 35 28  1  0  0  0  0
 36 37  1  6  0  0  0
 36 42  1  0  0  0  0
 36 38  1  0  0  0  0
 38 39  1  0  0  0  0
 38 41  1  0  0  0  0
 38 40  1  0  0  0  0
 42 43  1  0  0  0  0
 42 44  1  0  0  0  0
 45 42  1  0  0  0  0
 46 45  2  0  0  0  0
 47 48  2  0  0  0  0
 47 46  1  0  0  0  0
 48 49  1  0  0  0  0
 49 45  1  0  0  0  0
 49 51  1  0  0  0  0
 50 48  1  0  0  0  0
 51 53  1  0  0  0  0
 51 52  1  0  0  0  0
 54 51  1  0  0  0  0
M  END
>  <MODEL>
31

>  <REMARK>
 VINA RESULT:    -6.300      2.317      8.750
 INTER + INTRA:          -9.615
 INTER:                 -10.739
 INTRA:                   1.124
 UNBOUND:                -1.106
  Name = 
  7 active torsions:
  status: ('A' for Active; 'I' for Inactive)
    1  A    between atoms: C_1  and  C_2
    2  A    between atoms: C_2  and  C_3
    3  A    between atoms: C_2  and  C_10
    4  A    between atoms: C_3  and  C_4
    5  A    between atoms: N_8  and  C_9
    6  A    between atoms: C_14  and  N_15
    7  A    between atoms: C_22  and  C_23
                            x       y       z     vdW  Elec       q    Type
                         _______ _______ _______ _____ _____    ______ ____

>  <TORSDO>
F 7

$$$$
=
 OpenBabel07192307433D

 54 58  0  0  1  0  0  0  0  0999 V2000
    2.6090    6.2450   18.7010 C   0  0  0  0  0  0  0  0  0  0  0  0
    2.3430    5.5720   19.8980 C   0  0  0  0  0  0  0  0  0  0  0  0
    1.6370    6.2080   20.9160 C   0  0  0  0  0  0  0  0  0  0  0  0
    1.2000    7.5270   20.7600 C   0  0  0  0  0  0  0  0  0  0  0  0
    1.4500    8.2420   19.5830 C   0  0  0  0  0  0  0  0  0  0  0  0
    2.1490    7.5690   18.5620 C   0  0  0  0  0  0  0  0  0  0  0  0
    2.4110    8.1960   17.4040 F   0  0  0  0  0  0  0  0  0  0  0  0
    2.6830    4.5510   20.0580 H   0  0  0  0  0  0  0  0  0  0  0  0
    1.4240    5.6800   21.8430 H   0  0  0  0  0  0  0  0  0  0  0  0
    0.6560    7.9680   21.5900 H   0  0  0  0  0  0  0  0  0  0  0  0
    1.0250    9.5960   19.4300 N   0  0  0  0  0  0  0  0  0  0  0  0
    1.5780   10.6820   20.2350 C   0  0  0  0  0  0  0  0  0  0  0  0
    0.8500   11.8800   19.7420 C   0  0  0  0  0  0  0  0  0  0  0  0
   -0.0460   11.5200   18.7490 C   0  0  0  0  0  0  0  0  0  0  0  0
   -0.8560   12.4310   18.1160 C   0  0  0  0  0  0  0  0  0  0  0  0
   -0.7100   13.7320   18.5450 C   0  0  0  0  0  0  0  0  0  0  0  0
    0.1590   14.1260   19.5180 N   0  0  0  0  0  0  0  0  0  0  0  0
    0.9490   13.2000   20.1270 C   0  0  0  0  0  0  0  0  0  0  0  0
    0.0510   10.0710   18.5460 C   0  0  0  0  0  0  0  0  0  0  0  0
   -0.6450    9.4910   17.7340 O   0  0  0  0  0  0  0  0  0  0  0  0
    2.6510   10.7780   20.0420 H   0  0  0  0  0  0  0  0  0  0  0  0
    1.3570   10.5090   21.2940 H   0  0  0  0  0  0  0  0  0  0  0  0
   -1.5540   12.1450   17.3410 H   0  0  0  0  0  0  0  0  0  0  0  0
   -1.3030   14.5350   18.1120 H   0  0  0  0  0  0  0  0  0  0  0  0
    1.9100   13.7480   21.2510 C   0  0  0  0  0  0  0  0  0  0  0  0
    3.4420   13.5010   21.1520 C   0  0  0  0  0  0  0  0  0  0  0  0
    3.5770   14.9080   20.5390 C   0  0  0  0  0  0  0  0  0  0  0  0
    2.2460   15.2660   21.2250 C   0  0  0  0  0  0  0  0  0  0  0  0
    1.5330   13.4370   22.2370 H   0  0  0  0  0  0  0  0  0  0  0  0
    3.7740   12.6740   20.5180 H   0  0  0  0  0  0  0  0  0  0  0  0
    3.9300   13.4020   22.1290 H   0  0  0  0  0  0  0  0  0  0  0  0
    4.4480   15.4850   20.8630 H   0  0  0  0  0  0  0  0  0  0  0  0
    3.5300   14.9220   19.4450 H   0  0  0  0  0  0  0  0  0  0  0  0
    1.5770   15.9050   20.6430 H   0  0  0  0  0  0  0  0  0  0  0  0
    2.3680   15.7040   22.2240 H   0  0  0  0  0  0  0  0  0  0  0  0
    3.4220    5.6100   17.5800 C   0  0  2  0  0  0  0  0  0  0  0  0
    2.9790    5.9030   16.6170 H   0  0  0  0  0  0  0  0  0  0  0  0
    3.3500    4.0770   17.6160 C   0  0  0  0  0  0  0  0  0  0  0  0
    3.5330    3.6520   16.6230 H   0  0  0  0  0  0  0  0  0  0  0  0
    2.3770    3.7170   17.9660 H   0  0  0  0  0  0  0  0  0  0  0  0
    4.1100    3.6750   18.2950 H   0  0  0  0  0  0  0  0  0  0  0  0
    4.8910    6.0790   17.6100 C   0  0  0  0  0  0  0  0  0  0  0  0
    5.3790    5.6800   18.5100 H   0  0  0  0  0  0  0  0  0  0  0  0
    4.9520    7.1710   17.6920 H   0  0  0  0  0  0  0  0  0  0  0  0
    5.6670    5.5840   16.4330 C   0  0  0  0  0  0  0  0  0  0  0  0
    5.2980    5.6870   15.1710 N   0  0  0  0  0  0  0  0  0  0  0  0
    6.2860    5.1400   14.3870 N   0  0  0  0  0  0  0  0  0  0  0  0
    7.2320    4.7080   15.1860 C   0  0  0  0  0  0  0  0  0  0  0  0
    6.8850    4.9560   16.4780 N   0  0  0  0  0  0  0  0  0  0  0  0
    8.1500    4.2270   14.8820 H   0  0  0  0  0  0  0  0  0  0  0  0
    7.6620    4.6090   17.6370 C   0  0  0  0  0  0  0  0  0  0  0  0
    7.0080    4.5460   18.5110 H   0  0  0  0  0  0  0  0  0  0  0  0
    8.1350    3.6410   17.4640 H   0  0  0  0  0  0  0  0  0  0  0  0
    8.4140    5.3850   17.8050 H   0  0  0  0  0  0  0  0  0  0  0  0
  1  2  1  0  0  0  0
  2  8  1  0  0  0  0
  2  3  2  0  0  0  0
  3  9  1  0  0  0  0
  4  3  1  0  0  0  0
  4 10  1  0  0  0  0
  5  4  2  0  0  0  0
  6  1  2  0  0  0  0
  6  5  1  0  0  0  0
  7  6  1  0  0  0  0
 11  5  1  0  0  0  0
 11 12  1  0  0  0  0
 12 22  1  0  0  0  0
 13 18  1  0  0  0  0
 13 12  1  0  0  0  0
 14 13  2  0  0  0  0
 15 16  2  0  0  0  0
 15 14  1  0  0  0  0
 16 17  1  0  0  0  0
 17 18  2  0  0  0  0
 18 25  1  0  0  0  0
 19 14  1  0  0  0  0
 19 11  1  0  0  0  0
 20 19  2  0  0  0  0
 21 12  1  0  0  0  0
 23 15  1  0  0  0  0
 24 16  1  0  0  0  0
 25 29  1  0  0  0  0
 26 25  1  0  0  0  0
 26 31  1  0  0  0  0
 27 32  1  0  0  0  0
 27 26  1  0  0  0  0
 27 28  1  0  0  0  0
 28 25  1  0  0  0  0
 28 35  1  0  0  0  0
 30 26  1  0  0  0  0
 33 27  1  0  0  0  0
 34 28  1  0  0  0  0
 36 37  1  6  0  0  0
 36 42  1  0  0  0  0
 36 38  1  0  0  0  0
 36  1  1  0  0  0  0
 38 40  1  0  0  0  0
 38 41  1  0  0  0  0
 39 38  1  0  0  0  0
 42 44  1  0  0  0  0
 42 43  1  0  0  0  0
 45 49  1  0  0  0  0
 45 42  1  0  0  0  0
 46 45  2  0  0  0  0
 47 46  1  0  0  0  0
 47 48  2  0  0  0  0
 48 49  1  0  0  0  0
 49 51  1  0  0  0  0
 50 48  1  0  0  0  0
 51 54  1  0  0  0  0
 51 52  1  0  0  0  0
 53 51  1  0  0  0  0
M  END
>  <MODEL>
32

>  <REMARK>
 VINA RESULT:    -6.237      2.547      8.608
 INTER + INTRA:          -9.531
 INTER:                  -8.425
 INTRA:                  -1.106
 UNBOUND:                -1.106
  Name = 
  7 active torsions:
  status: ('A' for Active; 'I' for Inactive)
    1  A    between atoms: C_1  and  C_2
    2  A    between atoms: C_2  and  C_3
    3  A    between atoms: C_2  and  C_10
    4  A    between atoms: C_3  and  C_4
    5  A    between atoms: N_8  and  C_9
    6  A    between atoms: C_14  and  N_15
    7  A    between atoms: C_22  and  C_23
                            x       y       z     vdW  Elec       q    Type
                         _______ _______ _______ _____ _____    ______ ____

>  <TORSDO>
F 7

$$$$
=
 OpenBabel07192307433D

 54 58  0  0  1  0  0  0  0  0999 V2000
    2.8160    6.0480   18.5610 C   0  0  0  0  0  0  0  0  0  0  0  0
    2.7890    5.1190   19.6070 C   0  0  0  0  0  0  0  0  0  0  0  0
    2.1760    5.4430   20.8140 C   0  0  0  0  0  0  0  0  0  0  0  0
    1.5950    6.7010   21.0000 C   0  0  0  0  0  0  0  0  0  0  0  0
    1.6050    7.6650   19.9850 C   0  0  0  0  0  0  0  0  0  0  0  0
    2.2140    7.3040   18.7680 C   0  0  0  0  0  0  0  0  0  0  0  0
    2.2480    8.1810   17.7510 F   0  0  0  0  0  0  0  0  0  0  0  0
    3.2460    4.1370   19.4990 H   0  0  0  0  0  0  0  0  0  0  0  0
    2.1480    4.7150   21.6230 H   0  0  0  0  0  0  0  0  0  0  0  0
    1.1340    6.8940   21.9640 H   0  0  0  0  0  0  0  0  0  0  0  0
    1.0330    8.9580   20.1810 N   0  0  0  0  0  0  0  0  0  0  0  0
    1.4100   10.1080   19.3630 C   0  0  0  0  0  0  0  0  0  0  0  0
    0.5820   11.2100   19.9190 C   0  0  0  0  0  0  0  0  0  0  0  0
   -0.1970   10.7420   20.9650 C   0  0  0  0  0  0  0  0  0  0  0  0
   -1.0590   11.5500   21.6670 C   0  0  0  0  0  0  0  0  0  0  0  0
   -1.0900   12.8630   21.2500 C   0  0  0  0  0  0  0  0  0  0  0  0
   -0.3400   13.3610   20.2260 N   0  0  0  0  0  0  0  0  0  0  0  0
    0.5040   12.5360   19.5500 C   0  0  0  0  0  0  0  0  0  0  0  0
    0.0860    9.3150   21.1460 C   0  0  0  0  0  0  0  0  0  0  0  0
   -0.4580    8.6600   22.0160 O   0  0  0  0  0  0  0  0  0  0  0  0
    1.1490    9.9210   18.3170 H   0  0  0  0  0  0  0  0  0  0  0  0
    2.4750   10.3260   19.4960 H   0  0  0  0  0  0  0  0  0  0  0  0
   -1.6640   11.1800   22.4830 H   0  0  0  0  0  0  0  0  0  0  0  0
   -1.7370   13.5900   21.7350 H   0  0  0  0  0  0  0  0  0  0  0  0
    1.3410   13.2050   18.3930 C   0  0  0  0  0  0  0  0  0  0  0  0
    1.6620   14.7260   18.4460 C   0  0  0  0  0  0  0  0  0  0  0  0
    3.0340   14.3640   19.0450 C   0  0  0  0  0  0  0  0  0  0  0  0
    2.8790   12.9750   18.3990 C   0  0  0  0  0  0  0  0  0  0  0  0
    0.9000   12.9390   17.4210 H   0  0  0  0  0  0  0  0  0  0  0  0
    1.0200   15.3490   19.0740 H   0  0  0  0  0  0  0  0  0  0  0  0
    1.7280   15.1900   17.4540 H   0  0  0  0  0  0  0  0  0  0  0  0
    3.8790   14.9600   18.6910 H   0  0  0  0  0  0  0  0  0  0  0  0
    3.0480   14.3440   20.1400 H   0  0  0  0  0  0  0  0  0  0  0  0
    3.2460   12.1370   18.9980 H   0  0  0  0  0  0  0  0  0  0  0  0
    3.3150   12.9040   17.3950 H   0  0  0  0  0  0  0  0  0  0  0  0
    3.5200    5.7590   17.2410 C   0  0  2  0  0  0  0  0  0  0  0  0
    2.8420    6.0260   16.4170 H   0  0  0  0  0  0  0  0  0  0  0  0
    3.8150    4.2640   17.0630 C   0  0  0  0  0  0  0  0  0  0  0  0
    3.5910    3.7070   17.9800 H   0  0  0  0  0  0  0  0  0  0  0  0
    4.8620    4.0770   16.8020 H   0  0  0  0  0  0  0  0  0  0  0  0
    3.1990    3.8460   16.2600 H   0  0  0  0  0  0  0  0  0  0  0  0
    4.8170    6.5830   17.0990 C   0  0  0  0  0  0  0  0  0  0  0  0
    4.7270    7.5030   17.6910 H   0  0  0  0  0  0  0  0  0  0  0  0
    4.9640    6.9040   16.0600 H   0  0  0  0  0  0  0  0  0  0  0  0
    6.0130    5.8460   17.6080 C   0  0  0  0  0  0  0  0  0  0  0  0
    6.3760    5.7510   18.8730 N   0  0  0  0  0  0  0  0  0  0  0  0
    7.5070    4.9730   18.9390 N   0  0  0  0  0  0  0  0  0  0  0  0
    7.8160    4.6180   17.7150 C   0  0  0  0  0  0  0  0  0  0  0  0
    6.9130    5.1480   16.8450 N   0  0  0  0  0  0  0  0  0  0  0  0
    8.6540    4.0010   17.4240 H   0  0  0  0  0  0  0  0  0  0  0  0
    6.9330    4.9920   15.4170 C   0  0  0  0  0  0  0  0  0  0  0  0
    5.9270    5.1460   15.0170 H   0  0  0  0  0  0  0  0  0  0  0  0
    7.6110    5.7350   14.9930 H   0  0  0  0  0  0  0  0  0  0  0  0
    7.2650    3.9790   15.1740 H   0  0  0  0  0  0  0  0  0  0  0  0
  1  6  2  0  0  0  0
  1  2  1  0  0  0  0
  2  3  2  0  0  0  0
  3  4  1  0  0  0  0
  3  9  1  0  0  0  0
  4 10  1  0  0  0  0
  5 11  1  0  0  0  0
  5  4  2  0  0  0  0
  6  5  1  0  0  0  0
  7  6  1  0  0  0  0
  8  2  1  0  0  0  0
 11 19  1  0  0  0  0
 12 22  1  0  0  0  0
 12 13  1  0  0  0  0
 12 11  1  0  0  0  0
 13 14  1  0  0  0  0
 14 19  1  0  0  0  0
 14 15  2  0  0  0  0
 15 23  1  0  0  0  0
 16 15  1  0  0  0  0
 16 24  1  0  0  0  0
 17 16  2  0  0  0  0
 18 13  2  0  0  0  0
 18 17  1  0  0  0  0
 19 20  2  0  0  0  0
 21 12  1  0  0  0  0
 25 28  1  0  0  0  0
 25 26  1  0  0  0  0
 25 18  1  0  0  0  0
 26 27  1  0  0  0  0
 26 30  1  0  0  0  0
 27 33  1  0  0  0  0
 28 34  1  0  0  0  0
 28 27  1  0  0  0  0
 29 25  1  0  0  0  0
 31 26  1  0  0  0  0
 32 27  1  0  0  0  0
 35 28  1  0  0  0  0
 36 37  1  6  0  0  0
 36  1  1  0  0  0  0
 38 36  1  0  0  0  0
 38 39  1  0  0  0  0
 40 38  1  0  0  0  0
 41 38  1  0  0  0  0
 42 36  1  0  0  0  0
 42 45  1  0  0  0  0
 42 43  1  0  0  0  0
 44 42  1  0  0  0  0
 45 46  2  0  0  0  0
 46 47  1  0  0  0  0
 48 47  2  0  0  0  0
 49 45  1  0  0  0  0
 49 48  1  0  0  0  0
 50 48  1  0  0  0  0
 51 49  1  0  0  0  0
 52 51  1  0  0  0  0
 53 51  1  0  0  0  0
 54 51  1  0  0  0  0
M  END
>  <MODEL>
33

>  <REMARK>
 VINA RESULT:    -6.232      2.747      8.412
 INTER + INTRA:          -9.524
 INTER:                  -9.429
 INTRA:                  -0.095
 UNBOUND:                -1.106
  Name = 
  7 active torsions:
  status: ('A' for Active; 'I' for Inactive)
    1  A    between atoms: C_1  and  C_2
    2  A    between atoms: C_2  and  C_3
    3  A    between atoms: C_2  and  C_10
    4  A    between atoms: C_3  and  C_4
    5  A    between atoms: N_8  and  C_9
    6  A    between atoms: C_14  and  N_15
    7  A    between atoms: C_22  and  C_23
                            x       y       z     vdW  Elec       q    Type
                         _______ _______ _______ _____ _____    ______ ____

>  <TORSDO>
F 7

$$$$
