=
 OpenBabel07192307433D

 30 32  0  0  0  0  0  0  0  0999 V2000
    3.3570    5.7540   17.7920 N   0  0  0  0  0  0  0  0  0  0  0  0
    4.6690    6.1760   17.7330 C   0  0  0  0  0  0  0  0  0  0  0  0
    5.8020    5.5790   17.3500 C   0  0  0  0  0  0  0  0  0  0  0  0
    5.8770    4.2420   16.7540 C   0  0  0  0  0  0  0  0  0  0  0  0
    6.8260    3.9400   16.0240 O   0  0  0  0  0  0  0  0  0  0  0  0
    4.9580    3.2790   17.0070 N   0  0  0  0  0  0  0  0  0  0  0  0
    3.7260    3.2740   17.6780 C   0  0  0  0  0  0  0  0  0  0  0  0
    3.2220    1.9770   17.9210 C   0  0  0  0  0  0  0  0  0  0  0  0
    2.0010    1.7700   18.5550 C   0  0  0  0  0  0  0  0  0  0  0  0
    1.2550    2.8640   18.9510 C   0  0  0  0  0  0  0  0  0  0  0  0
    1.7340    4.1540   18.7000 C   0  0  0  0  0  0  0  0  0  0  0  0
    2.9710    4.4030   18.0530 C   0  0  0  0  0  0  0  0  0  0  0  0
    4.7430    7.2150   18.0600 H   0  0  0  0  0  0  0  0  0  0  0  0
    5.2690    2.3950   16.6210 H   0  0  0  0  0  0  0  0  0  0  0  0
    3.7920    1.0990   17.6210 H   0  0  0  0  0  0  0  0  0  0  0  0
    1.6410    0.7620   18.7380 H   0  0  0  0  0  0  0  0  0  0  0  0
    0.3000    2.7270   19.4520 H   0  0  0  0  0  0  0  0  0  0  0  0
    1.1070    4.9770   19.0340 H   0  0  0  0  0  0  0  0  0  0  0  0
    2.3310    7.6860   19.2270 C   0  0  0  0  0  0  0  0  0  0  0  0
    2.7800    8.3010   17.9390 C   0  0  0  0  0  0  0  0  0  0  0  0
    2.3640    6.8510   17.9670 C   0  0  0  0  0  0  0  0  0  0  0  0
    3.0840    7.5080   19.9870 H   0  0  0  0  0  0  0  0  0  0  0  0
    1.3630    7.9700   19.6190 H   0  0  0  0  0  0  0  0  0  0  0  0
    2.1180    9.0080   17.4540 H   0  0  0  0  0  0  0  0  0  0  0  0
    3.8340    8.5290   17.8300 H   0  0  0  0  0  0  0  0  0  0  0  0
    1.3970    6.5990   17.5370 H   0  0  0  0  0  0  0  0  0  0  0  0
    7.0120    6.4140   17.4590 C   0  0  0  0  0  0  0  0  0  0  0  0
    7.5320    6.8070   18.4900 O   0  0  0  0  0  0  0  0  0  0  0  0
    7.5860    6.6460   16.2650 O   0  0  0  0  0  0  0  0  0  0  0  0
    8.5460    6.5530   16.4310 H   0  0  0  0  0  0  0  0  0  0  0  0
  1 21  1  0  0  0  0
  1 12  1  0  0  0  0
  2  1  1  0  0  0  0
  2 13  1  0  0  0  0
  3 27  1  0  0  0  0
  3  2  2  0  0  0  0
  4  6  1  0  0  0  0
  4  3  1  0  0  0  0
  5  4  2  0  0  0  0
  6  7  1  0  0  0  0
  7  8  2  0  0  0  0
  7 12  1  0  0  0  0
  8  9  1  0  0  0  0
  9 16  1  0  0  0  0
  9 10  2  0  0  0  0
 10 17  1  0  0  0  0
 11 10  1  0  0  0  0
 11 18  1  0  0  0  0
 12 11  2  0  0  0  0
 14  6  1  0  0  0  0
 15  8  1  0  0  0  0
 19 23  1  0  0  0  0
 19 22  1  0  0  0  0
 20 21  1  0  0  0  0
 20 19  1  0  0  0  0
 21 19  1  0  0  0  0
 24 20  1  0  0  0  0
 25 20  1  0  0  0  0
 26 21  1  0  0  0  0
 27 28  2  0  0  0  0
 29 30  1  0  0  0  0
 29 27  1  0  0  0  0
M  END
>  <MODEL>
1

>  <REMARK>
 VINA RESULT:    -7.335      0.000      0.000
 INTER + INTRA:          -8.445
 INTER:                  -8.242
 INTRA:                  -0.202
 UNBOUND:                -0.038
  Name = 
  3 active torsions:
  status: ('A' for Active; 'I' for Inactive)
    1  A    between atoms: C_3  and  N_4
    2  A    between atoms: C_6  and  C_16
    3  A    between atoms: C_16  and  O_18
                            x       y       z     vdW  Elec       q    Type
                         _______ _______ _______ _____ _____    ______ ____

>  <TORSDO>
F 3

$$$$
=
 OpenBabel07192307433D

 30 32  0  0  0  0  0  0  0  0999 V2000
    3.5730    5.4840   18.1100 N   0  0  0  0  0  0  0  0  0  0  0  0
    2.5940    4.6240   18.5610 C   0  0  0  0  0  0  0  0  0  0  0  0
    2.5010    3.2900   18.6050 C   0  0  0  0  0  0  0  0  0  0  0  0
    3.5820    2.3700   18.2380 C   0  0  0  0  0  0  0  0  0  0  0  0
    3.6160    1.2320   18.7160 O   0  0  0  0  0  0  0  0  0  0  0  0
    4.5440    2.6960   17.3420 N   0  0  0  0  0  0  0  0  0  0  0  0
    4.8890    3.8880   16.6870 C   0  0  0  0  0  0  0  0  0  0  0  0
    5.8130    3.7070   15.6350 C   0  0  0  0  0  0  0  0  0  0  0  0
    6.2910    4.7760   14.8840 C   0  0  0  0  0  0  0  0  0  0  0  0
    5.8570    6.0540   15.1820 C   0  0  0  0  0  0  0  0  0  0  0  0
    4.9570    6.2500   16.2330 C   0  0  0  0  0  0  0  0  0  0  0  0
    4.4510    5.1850   17.0230 C   0  0  0  0  0  0  0  0  0  0  0  0
    1.7540    5.1910   18.9650 H   0  0  0  0  0  0  0  0  0  0  0  0
    5.1020    1.8790   17.1210 H   0  0  0  0  0  0  0  0  0  0  0  0
    6.1680    2.7100   15.3790 H   0  0  0  0  0  0  0  0  0  0  0  0
    6.9950    4.6080   14.0740 H   0  0  0  0  0  0  0  0  0  0  0  0
    6.2140    6.9050   14.6060 H   0  0  0  0  0  0  0  0  0  0  0  0
    4.6480    7.2750   16.4220 H   0  0  0  0  0  0  0  0  0  0  0  0
    2.2520    7.7410   18.0610 C   0  0  0  0  0  0  0  0  0  0  0  0
    2.2920    7.2990   19.4900 C   0  0  0  0  0  0  0  0  0  0  0  0
    3.4040    6.8970   18.5530 C   0  0  0  0  0  0  0  0  0  0  0  0
    1.5110    7.2830   17.4150 H   0  0  0  0  0  0  0  0  0  0  0  0
    2.4470    8.7830   17.8420 H   0  0  0  0  0  0  0  0  0  0  0  0
    2.5120    8.0430   20.2470 H   0  0  0  0  0  0  0  0  0  0  0  0
    1.5860    6.5400   19.8030 H   0  0  0  0  0  0  0  0  0  0  0  0
    4.3590    7.4080   18.6590 H   0  0  0  0  0  0  0  0  0  0  0  0
    1.2430    2.7730   19.1720 C   0  0  0  0  0  0  0  0  0  0  0  0
    0.5900    3.2790   20.0700 O   0  0  0  0  0  0  0  0  0  0  0  0
    0.7960    1.6840   18.5240 O   0  0  0  0  0  0  0  0  0  0  0  0
    0.0640    2.0140   17.9640 H   0  0  0  0  0  0  0  0  0  0  0  0
  1 21  1  0  0  0  0
  1  2  1  0  0  0  0
  2  3  2  0  0  0  0
  2 13  1  0  0  0  0
  3 27  1  0  0  0  0
  4  3  1  0  0  0  0
  4  5  2  0  0  0  0
  6  4  1  0  0  0  0
  7 12  1  0  0  0  0
  7  6  1  0  0  0  0
  8  7  2  0  0  0  0
  9 10  2  0  0  0  0
  9  8  1  0  0  0  0
 10 11  1  0  0  0  0
 11 18  1  0  0  0  0
 11 12  2  0  0  0  0
 12  1  1  0  0  0  0
 14  6  1  0  0  0  0
 15  8  1  0  0  0  0
 16  9  1  0  0  0  0
 17 10  1  0  0  0  0
 19 21  1  0  0  0  0
 19 20  1  0  0  0  0
 20 25  1  0  0  0  0
 20 24  1  0  0  0  0
 21 26  1  0  0  0  0
 21 20  1  0  0  0  0
 22 19  1  0  0  0  0
 23 19  1  0  0  0  0
 27 28  2  0  0  0  0
 29 27  1  0  0  0  0
 30 29  1  0  0  0  0
M  END
>  <MODEL>
2

>  <REMARK>
 VINA RESULT:    -7.263      2.877      4.628
 INTER + INTRA:          -8.362
 INTER:                  -8.145
 INTRA:                  -0.218
 UNBOUND:                -0.038
  Name = 
  3 active torsions:
  status: ('A' for Active; 'I' for Inactive)
    1  A    between atoms: C_3  and  N_4
    2  A    between atoms: C_6  and  C_16
    3  A    between atoms: C_16  and  O_18
                            x       y       z     vdW  Elec       q    Type
                         _______ _______ _______ _____ _____    ______ ____

>  <TORSDO>
F 3

$$$$
=
 OpenBabel07192307433D

 30 32  0  0  0  0  0  0  0  0999 V2000
    3.5710    5.9280   18.7220 N   0  0  0  0  0  0  0  0  0  0  0  0
    2.8180    5.0980   19.5280 C   0  0  0  0  0  0  0  0  0  0  0  0
    2.9760    3.8360   19.9370 C   0  0  0  0  0  0  0  0  0  0  0  0
    4.1630    3.0170   19.6690 C   0  0  0  0  0  0  0  0  0  0  0  0
    4.4550    2.0830   20.4210 O   0  0  0  0  0  0  0  0  0  0  0  0
    4.9510    3.2100   18.5840 N   0  0  0  0  0  0  0  0  0  0  0  0
    5.0010    4.2010   17.5920 C   0  0  0  0  0  0  0  0  0  0  0  0
    5.8270    3.8630   16.4980 C   0  0  0  0  0  0  0  0  0  0  0  0
    6.0210    4.7300   15.4270 C   0  0  0  0  0  0  0  0  0  0  0  0
    5.3930    5.9610   15.4370 C   0  0  0  0  0  0  0  0  0  0  0  0
    4.5870    6.3160   16.5230 C   0  0  0  0  0  0  0  0  0  0  0  0
    4.3700    5.4610   17.6330 C   0  0  0  0  0  0  0  0  0  0  0  0
    1.9350    5.6290   19.8890 H   0  0  0  0  0  0  0  0  0  0  0  0
    5.6220    2.4550   18.5060 H   0  0  0  0  0  0  0  0  0  0  0  0
    6.3310    2.8980   16.4650 H   0  0  0  0  0  0  0  0  0  0  0  0
    6.6550    4.4410   14.5940 H   0  0  0  0  0  0  0  0  0  0  0  0
    5.5260    6.6530   14.6090 H   0  0  0  0  0  0  0  0  0  0  0  0
    4.1170    7.2950   16.4770 H   0  0  0  0  0  0  0  0  0  0  0  0
    1.9740    7.8950   18.0750 C   0  0  0  0  0  0  0  0  0  0  0  0
    1.9820    7.8240   19.5690 C   0  0  0  0  0  0  0  0  0  0  0  0
    3.1930    7.3670   18.7950 C   0  0  0  0  0  0  0  0  0  0  0  0
    1.3410    7.1950   17.5430 H   0  0  0  0  0  0  0  0  0  0  0  0
    2.0460    8.8710   17.6090 H   0  0  0  0  0  0  0  0  0  0  0  0
    2.0560    8.7520   20.1240 H   0  0  0  0  0  0  0  0  0  0  0  0
    1.3620    7.0710   20.0410 H   0  0  0  0  0  0  0  0  0  0  0  0
    4.0650    8.0180   18.7970 H   0  0  0  0  0  0  0  0  0  0  0  0
    1.9000    3.3240   20.8060 C   0  0  0  0  0  0  0  0  0  0  0  0
    0.7890    2.9680   20.4500 O   0  0  0  0  0  0  0  0  0  0  0  0
    2.2930    3.1860   22.0840 O   0  0  0  0  0  0  0  0  0  0  0  0
    2.7790    4.0110   22.2830 H   0  0  0  0  0  0  0  0  0  0  0  0
  1 21  1  0  0  0  0
  1  2  1  0  0  0  0
  2 13  1  0  0  0  0
  2  3  2  0  0  0  0
  3 27  1  0  0  0  0
  4  3  1  0  0  0  0
  4  5  2  0  0  0  0
  6  4  1  0  0  0  0
  7 12  1  0  0  0  0
  7  6  1  0  0  0  0
  8  7  2  0  0  0  0
  9 10  2  0  0  0  0
  9  8  1  0  0  0  0
 10 11  1  0  0  0  0
 11 12  2  0  0  0  0
 12  1  1  0  0  0  0
 14  6  1  0  0  0  0
 15  8  1  0  0  0  0
 16  9  1  0  0  0  0
 17 10  1  0  0  0  0
 18 11  1  0  0  0  0
 19 21  1  0  0  0  0
 19 20  1  0  0  0  0
 20 25  1  0  0  0  0
 20 24  1  0  0  0  0
 21 26  1  0  0  0  0
 21 20  1  0  0  0  0
 22 19  1  0  0  0  0
 23 19  1  0  0  0  0
 27 29  1  0  0  0  0
 28 27  2  0  0  0  0
 29 30  1  0  0  0  0
M  END
>  <MODEL>
3

>  <REMARK>
 VINA RESULT:    -6.954      3.058      4.541
 INTER + INTRA:          -8.008
 INTER:                  -7.840
 INTRA:                  -0.168
 UNBOUND:                -0.038
  Name = 
  3 active torsions:
  status: ('A' for Active; 'I' for Inactive)
    1  A    between atoms: C_3  and  N_4
    2  A    between atoms: C_6  and  C_16
    3  A    between atoms: C_16  and  O_18
                            x       y       z     vdW  Elec       q    Type
                         _______ _______ _______ _____ _____    ______ ____

>  <TORSDO>
F 3

$$$$
=
 OpenBabel07192307433D

 30 32  0  0  0  0  0  0  0  0999 V2000
    5.7820    5.0190   16.4530 N   0  0  0  0  0  0  0  0  0  0  0  0
    6.5450    6.0890   16.8740 C   0  0  0  0  0  0  0  0  0  0  0  0
    7.1120    6.4000   18.0440 C   0  0  0  0  0  0  0  0  0  0  0  0
    7.1290    5.5230   19.2190 C   0  0  0  0  0  0  0  0  0  0  0  0
    8.0170    5.6410   20.0680 O   0  0  0  0  0  0  0  0  0  0  0  0
    6.1690    4.5960   19.4490 N   0  0  0  0  0  0  0  0  0  0  0  0
    5.0930    4.1110   18.6900 C   0  0  0  0  0  0  0  0  0  0  0  0
    4.1890    3.3200   19.4320 C   0  0  0  0  0  0  0  0  0  0  0  0
    3.0740    2.7320   18.8450 C   0  0  0  0  0  0  0  0  0  0  0  0
    2.8460    2.9190   17.4950 C   0  0  0  0  0  0  0  0  0  0  0  0
    3.7430    3.6850   16.7440 C   0  0  0  0  0  0  0  0  0  0  0  0
    4.8930    4.2960   17.3070 C   0  0  0  0  0  0  0  0  0  0  0  0
    6.6990    6.7860   16.0480 H   0  0  0  0  0  0  0  0  0  0  0  0
    6.2830    4.2030   20.3770 H   0  0  0  0  0  0  0  0  0  0  0  0
    4.3450    3.1580   20.4980 H   0  0  0  0  0  0  0  0  0  0  0  0
    2.3890    2.1350   19.4420 H   0  0  0  0  0  0  0  0  0  0  0  0
    1.9780    2.4730   17.0160 H   0  0  0  0  0  0  0  0  0  0  0  0
    3.5150    3.8010   15.6880 H   0  0  0  0  0  0  0  0  0  0  0  0
    6.8400    4.8760   14.0650 C   0  0  0  0  0  0  0  0  0  0  0  0
    6.0020    3.6490   14.2360 C   0  0  0  0  0  0  0  0  0  0  0  0
    5.6330    4.9120   14.9740 C   0  0  0  0  0  0  0  0  0  0  0  0
    7.8280    4.8760   14.5130 H   0  0  0  0  0  0  0  0  0  0  0  0
    6.7790    5.4100   13.1250 H   0  0  0  0  0  0  0  0  0  0  0  0
    5.3720    3.3420   13.4100 H   0  0  0  0  0  0  0  0  0  0  0  0
    6.4220    2.8280   14.8050 H   0  0  0  0  0  0  0  0  0  0  0  0
    4.7770    5.4740   14.6080 H   0  0  0  0  0  0  0  0  0  0  0  0
    7.8490    7.6770   18.0570 C   0  0  0  0  0  0  0  0  0  0  0  0
    7.6330    8.6470   17.3500 O   0  0  0  0  0  0  0  0  0  0  0  0
    8.7750    7.7260   19.0310 O   0  0  0  0  0  0  0  0  0  0  0  0
    8.3020    8.0970   19.8020 H   0  0  0  0  0  0  0  0  0  0  0  0
  1  2  1  0  0  0  0
  1 12  1  0  0  0  0
  2  3  2  0  0  0  0
  3 27  1  0  0  0  0
  3  4  1  0  0  0  0
  4  6  1  0  0  0  0
  4  5  2  0  0  0  0
  6 14  1  0  0  0  0
  7  8  1  0  0  0  0
  7  6  1  0  0  0  0
  8 15  1  0  0  0  0
  9  8  2  0  0  0  0
  9 16  1  0  0  0  0
 10  9  1  0  0  0  0
 11 12  1  0  0  0  0
 11 10  2  0  0  0  0
 12  7  2  0  0  0  0
 13  2  1  0  0  0  0
 17 10  1  0  0  0  0
 18 11  1  0  0  0  0
 19 20  1  0  0  0  0
 19 22  1  0  0  0  0
 19 21  1  0  0  0  0
 20 25  1  0  0  0  0
 20 21  1  0  0  0  0
 21  1  1  0  0  0  0
 23 19  1  0  0  0  0
 24 20  1  0  0  0  0
 26 21  1  0  0  0  0
 27 29  1  0  0  0  0
 28 27  2  0  0  0  0
 29 30  1  0  0  0  0
M  END
>  <MODEL>
4

>  <REMARK>
 VINA RESULT:    -6.837      2.533      3.526
 INTER + INTRA:          -7.875
 INTER:                  -8.241
 INTRA:                   0.366
 UNBOUND:                -0.038
  Name = 
  3 active torsions:
  status: ('A' for Active; 'I' for Inactive)
    1  A    between atoms: C_3  and  N_4
    2  A    between atoms: C_6  and  C_16
    3  A    between atoms: C_16  and  O_18
                            x       y       z     vdW  Elec       q    Type
                         _______ _______ _______ _____ _____    ______ ____

>  <TORSDO>
F 3

$$$$
=
 OpenBabel07192307433D

 30 32  0  0  0  0  0  0  0  0999 V2000
    3.1830    5.4320   18.2920 N   0  0  0  0  0  0  0  0  0  0  0  0
    2.5210    4.3540   18.8440 C   0  0  0  0  0  0  0  0  0  0  0  0
    2.9410    3.2090   19.3910 C   0  0  0  0  0  0  0  0  0  0  0  0
    4.3460    2.8710   19.6360 C   0  0  0  0  0  0  0  0  0  0  0  0
    4.6450    2.0630   20.5200 O   0  0  0  0  0  0  0  0  0  0  0  0
    5.3580    3.3780   18.8910 N   0  0  0  0  0  0  0  0  0  0  0  0
    5.4240    4.3700   17.9010 C   0  0  0  0  0  0  0  0  0  0  0  0
    6.6540    4.3940   17.2080 C   0  0  0  0  0  0  0  0  0  0  0  0
    6.9150    5.3230   16.2060 C   0  0  0  0  0  0  0  0  0  0  0  0
    5.9470    6.2560   15.8840 C   0  0  0  0  0  0  0  0  0  0  0  0
    4.7310    6.2550   16.5750 C   0  0  0  0  0  0  0  0  0  0  0  0
    4.4310    5.3260   17.6050 C   0  0  0  0  0  0  0  0  0  0  0  0
    1.4430    4.5250   18.8190 H   0  0  0  0  0  0  0  0  0  0  0  0
    6.2270    2.9110   19.1240 H   0  0  0  0  0  0  0  0  0  0  0  0
    7.4320    3.6690   17.4410 H   0  0  0  0  0  0  0  0  0  0  0  0
    7.8670    5.3140   15.6820 H   0  0  0  0  0  0  0  0  0  0  0  0
    6.1270    6.9890   15.1020 H   0  0  0  0  0  0  0  0  0  0  0  0
    4.0060    7.0080   16.2800 H   0  0  0  0  0  0  0  0  0  0  0  0
    2.1860    7.6750   19.1930 C   0  0  0  0  0  0  0  0  0  0  0  0
    2.9480    8.0140   17.9510 C   0  0  0  0  0  0  0  0  0  0  0  0
    2.3370    6.6430   18.1000 C   0  0  0  0  0  0  0  0  0  0  0  0
    2.7520    7.5480   20.1090 H   0  0  0  0  0  0  0  0  0  0  0  0
    1.2110    8.1240   19.3330 H   0  0  0  0  0  0  0  0  0  0  0  0
    2.4930    8.6970   17.2440 H   0  0  0  0  0  0  0  0  0  0  0  0
    4.0250    8.1060   18.0300 H   0  0  0  0  0  0  0  0  0  0  0  0
    1.4410    6.4280   17.5210 H   0  0  0  0  0  0  0  0  0  0  0  0
    1.8680    2.3130   19.8580 C   0  0  0  0  0  0  0  0  0  0  0  0
    1.2600    2.3980   20.9130 O   0  0  0  0  0  0  0  0  0  0  0  0
    1.5260    1.3950   18.9380 O   0  0  0  0  0  0  0  0  0  0  0  0
    0.9630    1.8810   18.3020 H   0  0  0  0  0  0  0  0  0  0  0  0
  1  2  1  0  0  0  0
  2  3  2  0  0  0  0
  3  4  1  0  0  0  0
  3 27  1  0  0  0  0
  4  5  2  0  0  0  0
  6 14  1  0  0  0  0
  6  4  1  0  0  0  0
  7  6  1  0  0  0  0
  8 15  1  0  0  0  0
  8  7  2  0  0  0  0
  9  8  1  0  0  0  0
 10  9  2  0  0  0  0
 10 11  1  0  0  0  0
 11 12  2  0  0  0  0
 12  7  1  0  0  0  0
 12  1  1  0  0  0  0
 13  2  1  0  0  0  0
 16  9  1  0  0  0  0
 17 10  1  0  0  0  0
 18 11  1  0  0  0  0
 19 23  1  0  0  0  0
 19 22  1  0  0  0  0
 20 25  1  0  0  0  0
 20 21  1  0  0  0  0
 20 19  1  0  0  0  0
 21  1  1  0  0  0  0
 21 19  1  0  0  0  0
 24 20  1  0  0  0  0
 26 21  1  0  0  0  0
 27 28  2  0  0  0  0
 29 27  1  0  0  0  0
 30 29  1  0  0  0  0
M  END
>  <MODEL>
5

>  <REMARK>
 VINA RESULT:    -6.776      2.908      4.632
 INTER + INTRA:          -7.804
 INTER:                  -8.251
 INTRA:                   0.447
 UNBOUND:                -0.038
  Name = 
  3 active torsions:
  status: ('A' for Active; 'I' for Inactive)
    1  A    between atoms: C_3  and  N_4
    2  A    between atoms: C_6  and  C_16
    3  A    between atoms: C_16  and  O_18
                            x       y       z     vdW  Elec       q    Type
                         _______ _______ _______ _____ _____    ______ ____

>  <TORSDO>
F 3

$$$$
=
 OpenBabel07192307433D

 30 32  0  0  0  0  0  0  0  0999 V2000
    3.2160    5.9350   18.2430 N   0  0  0  0  0  0  0  0  0  0  0  0
    2.6980    7.2120   18.1870 C   0  0  0  0  0  0  0  0  0  0  0  0
    2.0200    7.9600   19.0630 C   0  0  0  0  0  0  0  0  0  0  0  0
    1.7480    7.5740   20.4510 C   0  0  0  0  0  0  0  0  0  0  0  0
    1.5480    8.4390   21.3080 O   0  0  0  0  0  0  0  0  0  0  0  0
    1.6570    6.2800   20.8420 N   0  0  0  0  0  0  0  0  0  0  0  0
    1.9160    5.0580   20.2030 C   0  0  0  0  0  0  0  0  0  0  0  0
    1.4350    3.9370   20.9140 C   0  0  0  0  0  0  0  0  0  0  0  0
    1.6180    2.6380   20.4490 C   0  0  0  0  0  0  0  0  0  0  0  0
    2.2970    2.4380   19.2620 C   0  0  0  0  0  0  0  0  0  0  0  0
    2.7940    3.5380   18.5570 C   0  0  0  0  0  0  0  0  0  0  0  0
    2.6310    4.8750   19.0020 C   0  0  0  0  0  0  0  0  0  0  0  0
    2.9230    7.6660   17.2200 H   0  0  0  0  0  0  0  0  0  0  0  0
    1.3210    6.2300   21.7970 H   0  0  0  0  0  0  0  0  0  0  0  0
    0.8960    4.0680   21.8510 H   0  0  0  0  0  0  0  0  0  0  0  0
    1.2310    1.7930   21.0120 H   0  0  0  0  0  0  0  0  0  0  0  0
    2.4490    1.4320   18.8770 H   0  0  0  0  0  0  0  0  0  0  0  0
    3.3180    3.3230   17.6290 H   0  0  0  0  0  0  0  0  0  0  0  0
    5.2350    6.6130   16.7240 C   0  0  0  0  0  0  0  0  0  0  0  0
    5.6460    5.3730   17.4540 C   0  0  0  0  0  0  0  0  0  0  0  0
    4.1860    5.6150   17.1580 C   0  0  0  0  0  0  0  0  0  0  0  0
    5.3070    7.5550   17.2570 H   0  0  0  0  0  0  0  0  0  0  0  0
    5.4600    6.6820   15.6670 H   0  0  0  0  0  0  0  0  0  0  0  0
    6.1540    4.5970   16.8940 H   0  0  0  0  0  0  0  0  0  0  0  0
    5.9850    5.4800   18.4780 H   0  0  0  0  0  0  0  0  0  0  0  0
    3.7310    5.0270   16.3640 H   0  0  0  0  0  0  0  0  0  0  0  0
    1.6410    9.2990   18.5760 C   0  0  0  0  0  0  0  0  0  0  0  0
    2.2480    9.9720   17.7590 O   0  0  0  0  0  0  0  0  0  0  0  0
    0.4550    9.7070   19.0610 O   0  0  0  0  0  0  0  0  0  0  0  0
    0.2740    9.1010   19.8080 H   0  0  0  0  0  0  0  0  0  0  0  0
  1 12  1  0  0  0  0
  2  1  1  0  0  0  0
  2  3  2  0  0  0  0
  3  4  1  0  0  0  0
  4  6  1  0  0  0  0
  4  5  2  0  0  0  0
  6 14  1  0  0  0  0
  7  6  1  0  0  0  0
  7  8  1  0  0  0  0
  8 15  1  0  0  0  0
  9  8  2  0  0  0  0
  9 16  1  0  0  0  0
 10  9  1  0  0  0  0
 11 12  1  0  0  0  0
 11 10  2  0  0  0  0
 12  7  2  0  0  0  0
 13  2  1  0  0  0  0
 17 10  1  0  0  0  0
 18 11  1  0  0  0  0
 19 21  1  0  0  0  0
 19 22  1  0  0  0  0
 19 20  1  0  0  0  0
 20 25  1  0  0  0  0
 21 20  1  0  0  0  0
 21  1  1  0  0  0  0
 23 19  1  0  0  0  0
 24 20  1  0  0  0  0
 26 21  1  0  0  0  0
 27 29  1  0  0  0  0
 27  3  1  0  0  0  0
 28 27  2  0  0  0  0
 29 30  1  0  0  0  0
M  END
>  <MODEL>
6

>  <REMARK>
 VINA RESULT:    -6.595      3.143      4.723
 INTER + INTRA:          -7.597
 INTER:                  -7.576
 INTRA:                  -0.021
 UNBOUND:                -0.038
  Name = 
  3 active torsions:
  status: ('A' for Active; 'I' for Inactive)
    1  A    between atoms: C_3  and  N_4
    2  A    between atoms: C_6  and  C_16
    3  A    between atoms: C_16  and  O_18
                            x       y       z     vdW  Elec       q    Type
                         _______ _______ _______ _____ _____    ______ ____

>  <TORSDO>
F 3

$$$$
=
 OpenBabel07192307433D

 30 32  0  0  0  0  0  0  0  0999 V2000
    3.3470    4.0620   17.5910 N   0  0  0  0  0  0  0  0  0  0  0  0
    2.7700    4.7220   18.6570 C   0  0  0  0  0  0  0  0  0  0  0  0
    2.6350    6.0160   18.9630 C   0  0  0  0  0  0  0  0  0  0  0  0
    3.0240    7.1230   18.0840 C   0  0  0  0  0  0  0  0  0  0  0  0
    2.4790    8.2250   18.1960 O   0  0  0  0  0  0  0  0  0  0  0  0
    4.0080    7.0090   17.1600 N   0  0  0  0  0  0  0  0  0  0  0  0
    4.7620    5.9260   16.6820 C   0  0  0  0  0  0  0  0  0  0  0  0
    5.8680    6.3130   15.8930 C   0  0  0  0  0  0  0  0  0  0  0  0
    6.7180    5.3780   15.3120 C   0  0  0  0  0  0  0  0  0  0  0  0
    6.4700    4.0330   15.5030 C   0  0  0  0  0  0  0  0  0  0  0  0
    5.3680    3.6350   16.2660 C   0  0  0  0  0  0  0  0  0  0  0  0
    4.4770    4.5590   16.8710 C   0  0  0  0  0  0  0  0  0  0  0  0
    2.3400    4.0010   19.3550 H   0  0  0  0  0  0  0  0  0  0  0  0
    4.2190    7.9180   16.7650 H   0  0  0  0  0  0  0  0  0  0  0  0
    6.0860    7.3670   15.7290 H   0  0  0  0  0  0  0  0  0  0  0  0
    7.5670    5.7030   14.7170 H   0  0  0  0  0  0  0  0  0  0  0  0
    7.1240    3.2840   15.0620 H   0  0  0  0  0  0  0  0  0  0  0  0
    5.2220    2.5650   16.3860 H   0  0  0  0  0  0  0  0  0  0  0  0
    3.4710    1.6140   18.5020 C   0  0  0  0  0  0  0  0  0  0  0  0
    2.0220    1.9810   18.4590 C   0  0  0  0  0  0  0  0  0  0  0  0
    2.9830    2.6210   17.4880 C   0  0  0  0  0  0  0  0  0  0  0  0
    4.0530    1.9670   19.3460 H   0  0  0  0  0  0  0  0  0  0  0  0
    3.7610    0.6340   18.1420 H   0  0  0  0  0  0  0  0  0  0  0  0
    1.3220    1.2500   18.0720 H   0  0  0  0  0  0  0  0  0  0  0  0
    1.6320    2.5880   19.2680 H   0  0  0  0  0  0  0  0  0  0  0  0
    2.9520    2.2810   16.4540 H   0  0  0  0  0  0  0  0  0  0  0  0
    1.9420    6.2850   20.2360 C   0  0  0  0  0  0  0  0  0  0  0  0
    1.1930    5.5270   20.8280 O   0  0  0  0  0  0  0  0  0  0  0  0
    2.2930    7.4670   20.7730 O   0  0  0  0  0  0  0  0  0  0  0  0
    1.4520    7.9600   20.8530 H   0  0  0  0  0  0  0  0  0  0  0  0
  1  2  1  0  0  0  0
  2  3  2  0  0  0  0
  2 13  1  0  0  0  0
  3 27  1  0  0  0  0
  4  5  2  0  0  0  0
  4  3  1  0  0  0  0
  6  4  1  0  0  0  0
  7 12  1  0  0  0  0
  7  6  1  0  0  0  0
  8  7  2  0  0  0  0
  9 10  2  0  0  0  0
  9  8  1  0  0  0  0
 10 11  1  0  0  0  0
 11 18  1  0  0  0  0
 11 12  2  0  0  0  0
 12  1  1  0  0  0  0
 14  6  1  0  0  0  0
 15  8  1  0  0  0  0
 16  9  1  0  0  0  0
 17 10  1  0  0  0  0
 19 22  1  0  0  0  0
 20 19  1  0  0  0  0
 20 25  1  0  0  0  0
 21  1  1  0  0  0  0
 21 20  1  0  0  0  0
 21 19  1  0  0  0  0
 23 19  1  0  0  0  0
 24 20  1  0  0  0  0
 26 21  1  0  0  0  0
 27 29  1  0  0  0  0
 27 28  2  0  0  0  0
 29 30  1  0  0  0  0
M  END
>  <MODEL>
7

>  <REMARK>
 VINA RESULT:    -6.589      2.721      5.128
 INTER + INTRA:          -7.590
 INTER:                  -7.420
 INTRA:                  -0.170
 UNBOUND:                -0.038
  Name = 
  3 active torsions:
  status: ('A' for Active; 'I' for Inactive)
    1  A    between atoms: C_3  and  N_4
    2  A    between atoms: C_6  and  C_16
    3  A    between atoms: C_16  and  O_18
                            x       y       z     vdW  Elec       q    Type
                         _______ _______ _______ _____ _____    ______ ____

>  <TORSDO>
F 3

$$$$
=
 OpenBabel07192307433D

 30 32  0  0  0  0  0  0  0  0999 V2000
    2.4930    5.1260   19.3360 N   0  0  0  0  0  0  0  0  0  0  0  0
    1.9530    6.1090   20.1390 C   0  0  0  0  0  0  0  0  0  0  0  0
    1.7930    7.4280   19.9840 C   0  0  0  0  0  0  0  0  0  0  0  0
    2.0970    8.1620   18.7520 C   0  0  0  0  0  0  0  0  0  0  0  0
    1.5230    9.2280   18.5080 O   0  0  0  0  0  0  0  0  0  0  0  0
    3.0330    7.7440   17.8670 N   0  0  0  0  0  0  0  0  0  0  0  0
    3.7940    6.5720   17.7490 C   0  0  0  0  0  0  0  0  0  0  0  0
    4.8430    6.6720   16.8080 C   0  0  0  0  0  0  0  0  0  0  0  0
    5.6900    5.6030   16.5360 C   0  0  0  0  0  0  0  0  0  0  0  0
    5.4970    4.4060   17.1990 C   0  0  0  0  0  0  0  0  0  0  0  0
    4.4510    4.2870   18.1190 C   0  0  0  0  0  0  0  0  0  0  0  0
    3.5650    5.3530   18.4190 C   0  0  0  0  0  0  0  0  0  0  0  0
    1.5850    5.6730   21.0700 H   0  0  0  0  0  0  0  0  0  0  0  0
    3.1920    8.4610   17.1680 H   0  0  0  0  0  0  0  0  0  0  0  0
    5.0170    7.6050   16.2740 H   0  0  0  0  0  0  0  0  0  0  0  0
    6.4950    5.7090   15.8140 H   0  0  0  0  0  0  0  0  0  0  0  0
    6.1500    3.5580   17.0060 H   0  0  0  0  0  0  0  0  0  0  0  0
    4.3470    3.3240   18.6130 H   0  0  0  0  0  0  0  0  0  0  0  0
    2.6460    3.1920   21.0910 C   0  0  0  0  0  0  0  0  0  0  0  0
    1.1900    3.4620   20.8770 C   0  0  0  0  0  0  0  0  0  0  0  0
    2.1700    3.7360   19.7630 C   0  0  0  0  0  0  0  0  0  0  0  0
    3.1850    3.8540   21.7590 H   0  0  0  0  0  0  0  0  0  0  0  0
    2.9750    2.1610   21.1260 H   0  0  0  0  0  0  0  0  0  0  0  0
    0.5250    2.6140   20.7690 H   0  0  0  0  0  0  0  0  0  0  0  0
    0.7530    4.3080   21.3940 H   0  0  0  0  0  0  0  0  0  0  0  0
    2.1890    3.0380   18.9280 H   0  0  0  0  0  0  0  0  0  0  0  0
    1.1610    8.1160   21.1240 C   0  0  0  0  0  0  0  0  0  0  0  0
   -0.0350    8.2060   21.3450 O   0  0  0  0  0  0  0  0  0  0  0  0
    2.0630    8.5870   22.0040 O   0  0  0  0  0  0  0  0  0  0  0  0
    2.8540    8.0270   21.8690 H   0  0  0  0  0  0  0  0  0  0  0  0
  1 21  1  0  0  0  0
  1  2  1  0  0  0  0
  2 13  1  0  0  0  0
  3  2  2  0  0  0  0
  3 27  1  0  0  0  0
  4  3  1  0  0  0  0
  5  4  2  0  0  0  0
  6  4  1  0  0  0  0
  7  6  1  0  0  0  0
  7 12  1  0  0  0  0
  8  7  2  0  0  0  0
  9  8  1  0  0  0  0
  9 10  2  0  0  0  0
 10 11  1  0  0  0  0
 11 12  2  0  0  0  0
 11 18  1  0  0  0  0
 12  1  1  0  0  0  0
 14  6  1  0  0  0  0
 15  8  1  0  0  0  0
 16  9  1  0  0  0  0
 17 10  1  0  0  0  0
 19 23  1  0  0  0  0
 19 22  1  0  0  0  0
 20 19  1  0  0  0  0
 20 25  1  0  0  0  0
 21 20  1  0  0  0  0
 21 19  1  0  0  0  0
 24 20  1  0  0  0  0
 26 21  1  0  0  0  0
 27 28  2  0  0  0  0
 27 29  1  0  0  0  0
 30 29  1  0  0  0  0
M  END
>  <MODEL>
8

>  <REMARK>
 VINA RESULT:    -6.471      3.327      5.383
 INTER + INTRA:          -7.455
 INTER:                  -7.419
 INTRA:                  -0.035
 UNBOUND:                -0.038
  Name = 
  3 active torsions:
  status: ('A' for Active; 'I' for Inactive)
    1  A    between atoms: C_3  and  N_4
    2  A    between atoms: C_6  and  C_16
    3  A    between atoms: C_16  and  O_18
                            x       y       z     vdW  Elec       q    Type
                         _______ _______ _______ _____ _____    ______ ____

>  <TORSDO>
F 3

$$$$
=
 OpenBabel07192307433D

 30 32  0  0  0  0  0  0  0  0999 V2000
    4.2820    4.7680   17.2470 N   0  0  0  0  0  0  0  0  0  0  0  0
    4.5000    3.6140   17.9700 C   0  0  0  0  0  0  0  0  0  0  0  0
    3.7920    2.9780   18.9090 C   0  0  0  0  0  0  0  0  0  0  0  0
    2.4440    3.3640   19.3370 C   0  0  0  0  0  0  0  0  0  0  0  0
    1.6860    2.5240   19.8310 O   0  0  0  0  0  0  0  0  0  0  0  0
    1.9910    4.6380   19.2570 N   0  0  0  0  0  0  0  0  0  0  0  0
    2.5030    5.8100   18.6800 C   0  0  0  0  0  0  0  0  0  0  0  0
    1.8080    6.9780   19.0630 C   0  0  0  0  0  0  0  0  0  0  0  0
    2.1550    8.2330   18.5730 C   0  0  0  0  0  0  0  0  0  0  0  0
    3.2040    8.3410   17.6800 C   0  0  0  0  0  0  0  0  0  0  0  0
    3.8880    7.1900   17.2770 C   0  0  0  0  0  0  0  0  0  0  0  0
    3.5610    5.8940   17.7510 C   0  0  0  0  0  0  0  0  0  0  0  0
    5.4460    3.1570   17.6700 H   0  0  0  0  0  0  0  0  0  0  0  0
    1.1010    4.7190   19.7350 H   0  0  0  0  0  0  0  0  0  0  0  0
    0.9800    6.9210   19.7670 H   0  0  0  0  0  0  0  0  0  0  0  0
    1.6100    9.1170   18.8910 H   0  0  0  0  0  0  0  0  0  0  0  0
    3.4950    9.3120   17.2870 H   0  0  0  0  0  0  0  0  0  0  0  0
    4.7050    7.3330   16.5750 H   0  0  0  0  0  0  0  0  0  0  0  0
    6.6790    4.9680   16.2190 C   0  0  0  0  0  0  0  0  0  0  0  0
    6.0250    3.7970   15.5560 C   0  0  0  0  0  0  0  0  0  0  0  0
    5.1760    4.9350   16.0660 C   0  0  0  0  0  0  0  0  0  0  0  0
    7.1040    4.8130   17.2050 H   0  0  0  0  0  0  0  0  0  0  0  0
    7.2340    5.6620   15.6000 H   0  0  0  0  0  0  0  0  0  0  0  0
    6.1380    3.6900   14.4840 H   0  0  0  0  0  0  0  0  0  0  0  0
    6.0030    2.8590   16.0980 H   0  0  0  0  0  0  0  0  0  0  0  0
    4.7560    5.6170   15.3300 H   0  0  0  0  0  0  0  0  0  0  0  0
    4.4170    1.7510   19.4350 C   0  0  0  0  0  0  0  0  0  0  0  0
    4.9800    1.6270   20.5100 O   0  0  0  0  0  0  0  0  0  0  0  0
    4.2280    0.6910   18.6300 O   0  0  0  0  0  0  0  0  0  0  0  0
    3.5700    0.1400   19.0990 H   0  0  0  0  0  0  0  0  0  0  0  0
  1 12  1  0  0  0  0
  1  2  1  0  0  0  0
  2  3  2  0  0  0  0
  3  4  1  0  0  0  0
  3 27  1  0  0  0  0
  4  5  2  0  0  0  0
  6  4  1  0  0  0  0
  6 14  1  0  0  0  0
  7  8  1  0  0  0  0
  7  6  1  0  0  0  0
  8 15  1  0  0  0  0
  9 16  1  0  0  0  0
  9  8  2  0  0  0  0
 10  9  1  0  0  0  0
 11 10  2  0  0  0  0
 11 12  1  0  0  0  0
 12  7  2  0  0  0  0
 13  2  1  0  0  0  0
 17 10  1  0  0  0  0
 18 11  1  0  0  0  0
 19 22  1  0  0  0  0
 20 21  1  0  0  0  0
 20 25  1  0  0  0  0
 20 19  1  0  0  0  0
 21 19  1  0  0  0  0
 21  1  1  0  0  0  0
 23 19  1  0  0  0  0
 24 20  1  0  0  0  0
 26 21  1  0  0  0  0
 27 28  2  0  0  0  0
 29 30  1  0  0  0  0
 29 27  1  0  0  0  0
M  END
>  <MODEL>
9

>  <REMARK>
 VINA RESULT:    -6.235      2.791      4.955
 INTER + INTRA:          -7.184
 INTER:                  -7.124
 INTRA:                  -0.060
 UNBOUND:                -0.038
  Name = 
  3 active torsions:
  status: ('A' for Active; 'I' for Inactive)
    1  A    between atoms: C_3  and  N_4
    2  A    between atoms: C_6  and  C_16
    3  A    between atoms: C_16  and  O_18
                            x       y       z     vdW  Elec       q    Type
                         _______ _______ _______ _____ _____    ______ ____

>  <TORSDO>
F 3

$$$$
=
 OpenBabel07192307433D

 30 32  0  0  0  0  0  0  0  0999 V2000
    6.2880    4.9790   17.7370 N   0  0  0  0  0  0  0  0  0  0  0  0
    5.2250    5.3020   18.5550 C   0  0  0  0  0  0  0  0  0  0  0  0
    3.9340    4.9550   18.5520 C   0  0  0  0  0  0  0  0  0  0  0  0
    3.3400    3.9710   17.6410 C   0  0  0  0  0  0  0  0  0  0  0  0
    2.3130    3.3670   17.9650 O   0  0  0  0  0  0  0  0  0  0  0  0
    3.8480    3.7170   16.4110 N   0  0  0  0  0  0  0  0  0  0  0  0
    5.0200    4.1140   15.7510 C   0  0  0  0  0  0  0  0  0  0  0  0
    5.0190    3.8160   14.3700 C   0  0  0  0  0  0  0  0  0  0  0  0
    6.1050    4.1120   13.5530 C   0  0  0  0  0  0  0  0  0  0  0  0
    7.2210    4.7080   14.1080 C   0  0  0  0  0  0  0  0  0  0  0  0
    7.2440    4.9920   15.4770 C   0  0  0  0  0  0  0  0  0  0  0  0
    6.1580    4.7000   16.3420 C   0  0  0  0  0  0  0  0  0  0  0  0
    5.5570    5.9650   19.3560 H   0  0  0  0  0  0  0  0  0  0  0  0
    3.2130    3.1220   15.8910 H   0  0  0  0  0  0  0  0  0  0  0  0
    4.1500    3.3480   13.9080 H   0  0  0  0  0  0  0  0  0  0  0  0
    6.0740    3.8800   12.4920 H   0  0  0  0  0  0  0  0  0  0  0  0
    8.0810    4.9520   13.4880 H   0  0  0  0  0  0  0  0  0  0  0  0
    8.1460    5.4620   15.8600 H   0  0  0  0  0  0  0  0  0  0  0  0
    8.0110    6.7620   18.5690 C   0  0  0  0  0  0  0  0  0  0  0  0
    7.7780    5.8260   19.7130 C   0  0  0  0  0  0  0  0  0  0  0  0
    7.6240    5.3270   18.2970 C   0  0  0  0  0  0  0  0  0  0  0  0
    7.2750    7.5400   18.4000 H   0  0  0  0  0  0  0  0  0  0  0  0
    9.0300    7.0600   18.3520 H   0  0  0  0  0  0  0  0  0  0  0  0
    8.6390    5.4880   20.2780 H   0  0  0  0  0  0  0  0  0  0  0  0
    6.8830    5.9680   20.3060 H   0  0  0  0  0  0  0  0  0  0  0  0
    8.4110    4.6870   17.9020 H   0  0  0  0  0  0  0  0  0  0  0  0
    3.1270    5.5530   19.6300 C   0  0  0  0  0  0  0  0  0  0  0  0
    2.6850    6.6890   19.6610 O   0  0  0  0  0  0  0  0  0  0  0  0
    2.8190    4.6670   20.5940 O   0  0  0  0  0  0  0  0  0  0  0  0
    3.1090    5.0960   21.4240 H   0  0  0  0  0  0  0  0  0  0  0  0
  1 21  1  0  0  0  0
  1  2  1  0  0  0  0
  2 13  1  0  0  0  0
  3  2  2  0  0  0  0
  3 27  1  0  0  0  0
  4  5  2  0  0  0  0
  4  3  1  0  0  0  0
  6  4  1  0  0  0  0
  7 12  1  0  0  0  0
  7  6  1  0  0  0  0
  8  7  2  0  0  0  0
  9 10  2  0  0  0  0
  9  8  1  0  0  0  0
 10 11  1  0  0  0  0
 11 18  1  0  0  0  0
 11 12  2  0  0  0  0
 12  1  1  0  0  0  0
 14  6  1  0  0  0  0
 15  8  1  0  0  0  0
 16  9  1  0  0  0  0
 17 10  1  0  0  0  0
 19 20  1  0  0  0  0
 20 24  1  0  0  0  0
 20 25  1  0  0  0  0
 21 19  1  0  0  0  0
 21 20  1  0  0  0  0
 22 19  1  0  0  0  0
 23 19  1  0  0  0  0
 26 21  1  0  0  0  0
 27 28  2  0  0  0  0
 27 29  1  0  0  0  0
 29 30  1  0  0  0  0
M  END
>  <MODEL>
10

>  <REMARK>
 VINA RESULT:    -6.233      2.827      4.878
 INTER + INTRA:          -7.182
 INTER:                  -6.969
 INTRA:                  -0.213
 UNBOUND:                -0.038
  Name = 
  3 active torsions:
  status: ('A' for Active; 'I' for Inactive)
    1  A    between atoms: C_3  and  N_4
    2  A    between atoms: C_6  and  C_16
    3  A    between atoms: C_16  and  O_18
                            x       y       z     vdW  Elec       q    Type
                         _______ _______ _______ _____ _____    ______ ____

>  <TORSDO>
F 3

$$$$
=
 OpenBabel07192307433D

 30 32  0  0  0  0  0  0  0  0999 V2000
    3.7800    3.8100   18.6790 N   0  0  0  0  0  0  0  0  0  0  0  0
    4.3650    3.7390   17.4320 C   0  0  0  0  0  0  0  0  0  0  0  0
    4.9270    4.6530   16.6350 C   0  0  0  0  0  0  0  0  0  0  0  0
    5.1540    6.0530   17.0060 C   0  0  0  0  0  0  0  0  0  0  0  0
    6.0480    6.7040   16.4580 O   0  0  0  0  0  0  0  0  0  0  0  0
    4.3820    6.7010   17.9120 N   0  0  0  0  0  0  0  0  0  0  0  0
    3.3710    6.2850   18.7910 C   0  0  0  0  0  0  0  0  0  0  0  0
    2.6560    7.3530   19.3750 C   0  0  0  0  0  0  0  0  0  0  0  0
    1.6310    7.1380   20.2910 C   0  0  0  0  0  0  0  0  0  0  0  0
    1.3090    5.8430   20.6480 C   0  0  0  0  0  0  0  0  0  0  0  0
    2.0210    4.7760   20.0920 C   0  0  0  0  0  0  0  0  0  0  0  0
    3.0740    4.9570   19.1580 C   0  0  0  0  0  0  0  0  0  0  0  0
    4.3560    2.7080   17.0730 H   0  0  0  0  0  0  0  0  0  0  0  0
    4.6080    7.6890   17.9150 H   0  0  0  0  0  0  0  0  0  0  0  0
    2.8890    8.3830   19.1090 H   0  0  0  0  0  0  0  0  0  0  0  0
    1.0910    7.9780   20.7190 H   0  0  0  0  0  0  0  0  0  0  0  0
    0.5090    5.6500   21.3590 H   0  0  0  0  0  0  0  0  0  0  0  0
    1.7240    3.7790   20.4060 H   0  0  0  0  0  0  0  0  0  0  0  0
    2.3990    1.6130   19.0010 C   0  0  0  0  0  0  0  0  0  0  0  0
    3.7780    1.1960   18.5940 C   0  0  0  0  0  0  0  0  0  0  0  0
    3.5800    2.4910   19.3430 C   0  0  0  0  0  0  0  0  0  0  0  0
    1.7220    1.9350   18.2180 H   0  0  0  0  0  0  0  0  0  0  0  0
    1.9200    1.0740   19.8090 H   0  0  0  0  0  0  0  0  0  0  0  0
    4.2370    0.3710   19.1240 H   0  0  0  0  0  0  0  0  0  0  0  0
    4.0290    1.2470   17.5420 H   0  0  0  0  0  0  0  0  0  0  0  0
    3.8700    2.5140   20.3920 H   0  0  0  0  0  0  0  0  0  0  0  0
    5.4310    4.1330   15.3510 C   0  0  0  0  0  0  0  0  0  0  0  0
    5.1880    4.5790   14.2420 O   0  0  0  0  0  0  0  0  0  0  0  0
    6.3060    3.1250   15.5120 O   0  0  0  0  0  0  0  0  0  0  0  0
    6.6250    2.9290   14.6080 H   0  0  0  0  0  0  0  0  0  0  0  0
  1 12  1  0  0  0  0
  1 21  1  0  0  0  0
  2  1  1  0  0  0  0
  3  4  1  0  0  0  0
  3  2  2  0  0  0  0
  4  6  1  0  0  0  0
  5  4  2  0  0  0  0
  6 14  1  0  0  0  0
  6  7  1  0  0  0  0
  7 12  2  0  0  0  0
  7  8  1  0  0  0  0
  8  9  2  0  0  0  0
  9 10  1  0  0  0  0
  9 16  1  0  0  0  0
 10 17  1  0  0  0  0
 11 18  1  0  0  0  0
 11 10  2  0  0  0  0
 12 11  1  0  0  0  0
 13  2  1  0  0  0  0
 15  8  1  0  0  0  0
 19 21  1  0  0  0  0
 19 23  1  0  0  0  0
 20 19  1  0  0  0  0
 20 24  1  0  0  0  0
 20 21  1  0  0  0  0
 21 26  1  0  0  0  0
 22 19  1  0  0  0  0
 25 20  1  0  0  0  0
 27 29  1  0  0  0  0
 27  3  1  0  0  0  0
 28 27  2  0  0  0  0
 30 29  1  0  0  0  0
M  END
>  <MODEL>
11

>  <REMARK>
 VINA RESULT:    -5.928      1.486      4.042
 INTER + INTRA:          -6.832
 INTER:                  -6.913
 INTRA:                   0.080
 UNBOUND:                -0.038
  Name = 
  3 active torsions:
  status: ('A' for Active; 'I' for Inactive)
    1  A    between atoms: C_3  and  N_4
    2  A    between atoms: C_6  and  C_16
    3  A    between atoms: C_16  and  O_18
                            x       y       z     vdW  Elec       q    Type
                         _______ _______ _______ _____ _____    ______ ____

>  <TORSDO>
F 3

$$$$
=
 OpenBabel07192307433D

 30 32  0  0  0  0  0  0  0  0999 V2000
    2.5820    4.9950   20.2120 N   0  0  0  0  0  0  0  0  0  0  0  0
    2.9740    4.2460   19.1220 C   0  0  0  0  0  0  0  0  0  0  0  0
    3.5100    4.5690   17.9400 C   0  0  0  0  0  0  0  0  0  0  0  0
    3.9330    5.9200   17.5600 C   0  0  0  0  0  0  0  0  0  0  0  0
    4.8050    6.0780   16.7000 O   0  0  0  0  0  0  0  0  0  0  0  0
    3.3690    7.0340   18.0850 N   0  0  0  0  0  0  0  0  0  0  0  0
    2.4550    7.2540   19.1260 C   0  0  0  0  0  0  0  0  0  0  0  0
    1.9460    8.5710   19.1610 C   0  0  0  0  0  0  0  0  0  0  0  0
    1.0440    8.9850   20.1360 C   0  0  0  0  0  0  0  0  0  0  0  0
    0.6410    8.0850   21.1040 C   0  0  0  0  0  0  0  0  0  0  0  0
    1.1510    6.7830   21.0930 C   0  0  0  0  0  0  0  0  0  0  0  0
    2.0740    6.3270   20.1170 C   0  0  0  0  0  0  0  0  0  0  0  0
    2.8060    3.1850   19.3160 H   0  0  0  0  0  0  0  0  0  0  0  0
    3.6960    7.8540   17.5870 H   0  0  0  0  0  0  0  0  0  0  0  0
    2.2460    9.2980   18.4080 H   0  0  0  0  0  0  0  0  0  0  0  0
    0.6610   10.0010   20.1350 H   0  0  0  0  0  0  0  0  0  0  0  0
   -0.0660    8.3850   21.8750 H   0  0  0  0  0  0  0  0  0  0  0  0
    0.7990    6.1170   21.8760 H   0  0  0  0  0  0  0  0  0  0  0  0
    1.2760    3.1290   21.4980 C   0  0  0  0  0  0  0  0  0  0  0  0
    2.7220    2.7440   21.5370 C   0  0  0  0  0  0  0  0  0  0  0  0
    2.3400    4.2010   21.4500 C   0  0  0  0  0  0  0  0  0  0  0  0
    0.7220    2.9050   20.5930 H   0  0  0  0  0  0  0  0  0  0  0  0
    0.6970    3.0330   22.4080 H   0  0  0  0  0  0  0  0  0  0  0  0
    3.1280    2.3820   22.4740 H   0  0  0  0  0  0  0  0  0  0  0  0
    3.1410    2.2710   20.6570 H   0  0  0  0  0  0  0  0  0  0  0  0
    2.4510    4.8030   22.3490 H   0  0  0  0  0  0  0  0  0  0  0  0
    3.7710    3.4280   17.0440 C   0  0  0  0  0  0  0  0  0  0  0  0
    2.9370    2.6740   16.5690 O   0  0  0  0  0  0  0  0  0  0  0  0
    5.0660    3.3320   16.6960 O   0  0  0  0  0  0  0  0  0  0  0  0
    5.4680    2.7770   17.3940 H   0  0  0  0  0  0  0  0  0  0  0  0
  1 21  1  0  0  0  0
  2 13  1  0  0  0  0
  2  1  1  0  0  0  0
  3  2  2  0  0  0  0
  4  3  1  0  0  0  0
  4  6  1  0  0  0  0
  5  4  2  0  0  0  0
  6  7  1  0  0  0  0
  7  8  2  0  0  0  0
  7 12  1  0  0  0  0
  8  9  1  0  0  0  0
  9 10  2  0  0  0  0
 10 17  1  0  0  0  0
 11 10  1  0  0  0  0
 11 18  1  0  0  0  0
 12  1  1  0  0  0  0
 12 11  2  0  0  0  0
 14  6  1  0  0  0  0
 15  8  1  0  0  0  0
 16  9  1  0  0  0  0
 19 20  1  0  0  0  0
 19 23  1  0  0  0  0
 20 24  1  0  0  0  0
 21 19  1  0  0  0  0
 21 20  1  0  0  0  0
 21 26  1  0  0  0  0
 22 19  1  0  0  0  0
 25 20  1  0  0  0  0
 27  3  1  0  0  0  0
 28 27  2  0  0  0  0
 29 27  1  0  0  0  0
 29 30  1  0  0  0  0
M  END
>  <MODEL>
12

>  <REMARK>
 VINA RESULT:    -5.767      2.162      4.720
 INTER + INTRA:          -6.648
 INTER:                  -6.471
 INTRA:                  -0.178
 UNBOUND:                -0.038
  Name = 
  3 active torsions:
  status: ('A' for Active; 'I' for Inactive)
    1  A    between atoms: C_3  and  N_4
    2  A    between atoms: C_6  and  C_16
    3  A    between atoms: C_16  and  O_18
                            x       y       z     vdW  Elec       q    Type
                         _______ _______ _______ _____ _____    ______ ____

>  <TORSDO>
F 3

$$$$
=
 OpenBabel07192307433D

 30 32  0  0  0  0  0  0  0  0999 V2000
    5.2090    4.1190   16.6400 N   0  0  0  0  0  0  0  0  0  0  0  0
    3.9200    3.7100   16.9150 C   0  0  0  0  0  0  0  0  0  0  0  0
    3.0220    4.0790   17.8330 C   0  0  0  0  0  0  0  0  0  0  0  0
    3.2040    5.1870   18.7760 C   0  0  0  0  0  0  0  0  0  0  0  0
    2.2230    5.7620   19.2550 O   0  0  0  0  0  0  0  0  0  0  0  0
    4.4270    5.5940   19.1940 N   0  0  0  0  0  0  0  0  0  0  0  0
    5.7360    5.2670   18.8100 C   0  0  0  0  0  0  0  0  0  0  0  0
    6.7220    5.7470   19.7000 C   0  0  0  0  0  0  0  0  0  0  0  0
    8.0790    5.5420   19.4730 C   0  0  0  0  0  0  0  0  0  0  0  0
    8.4760    4.8560   18.3410 C   0  0  0  0  0  0  0  0  0  0  0  0
    7.5120    4.3910   17.4420 C   0  0  0  0  0  0  0  0  0  0  0  0
    6.1200    4.5850   17.6380 C   0  0  0  0  0  0  0  0  0  0  0  0
    3.6130    2.9390   16.2040 H   0  0  0  0  0  0  0  0  0  0  0  0
    4.3300    6.2650   19.9470 H   0  0  0  0  0  0  0  0  0  0  0  0
    6.4350    6.2890   20.6000 H   0  0  0  0  0  0  0  0  0  0  0  0
    8.8170    5.9150   20.1790 H   0  0  0  0  0  0  0  0  0  0  0  0
    9.5310    4.6800   18.1460 H   0  0  0  0  0  0  0  0  0  0  0  0
    7.8800    3.8560   16.5700 H   0  0  0  0  0  0  0  0  0  0  0  0
    5.3230    4.3710   14.0400 C   0  0  0  0  0  0  0  0  0  0  0  0
    6.7250    4.5020   14.5450 C   0  0  0  0  0  0  0  0  0  0  0  0
    5.7290    3.6730   15.3170 C   0  0  0  0  0  0  0  0  0  0  0  0
    4.6830    5.2450   14.1060 H   0  0  0  0  0  0  0  0  0  0  0  0
    5.1500    3.7600   13.1630 H   0  0  0  0  0  0  0  0  0  0  0  0
    7.5100    3.9810   14.0090 H   0  0  0  0  0  0  0  0  0  0  0  0
    7.0250    5.4580   14.9570 H   0  0  0  0  0  0  0  0  0  0  0  0
    5.8240    2.5910   15.2590 H   0  0  0  0  0  0  0  0  0  0  0  0
    1.7380    3.3570   17.7730 C   0  0  0  0  0  0  0  0  0  0  0  0
    1.5100    2.2440   18.2150 O   0  0  0  0  0  0  0  0  0  0  0  0
    0.7530    4.1040   17.2430 O   0  0  0  0  0  0  0  0  0  0  0  0
   -0.0090    3.4940   17.1770 H   0  0  0  0  0  0  0  0  0  0  0  0
  1  2  1  0  0  0  0
  1 12  1  0  0  0  0
  2  3  2  0  0  0  0
  3  4  1  0  0  0  0
  4  6  1  0  0  0  0
  4  5  2  0  0  0  0
  6 14  1  0  0  0  0
  7  6  1  0  0  0  0
  7  8  1  0  0  0  0
  8 15  1  0  0  0  0
  9  8  2  0  0  0  0
  9 16  1  0  0  0  0
 10  9  1  0  0  0  0
 11 12  1  0  0  0  0
 11 10  2  0  0  0  0
 12  7  2  0  0  0  0
 13  2  1  0  0  0  0
 17 10  1  0  0  0  0
 18 11  1  0  0  0  0
 19 22  1  0  0  0  0
 19 20  1  0  0  0  0
 19 21  1  0  0  0  0
 20 25  1  0  0  0  0
 20 21  1  0  0  0  0
 21  1  1  0  0  0  0
 23 19  1  0  0  0  0
 24 20  1  0  0  0  0
 26 21  1  0  0  0  0
 27  3  1  0  0  0  0
 27 28  2  0  0  0  0
 29 27  1  0  0  0  0
 30 29  1  0  0  0  0
M  END
>  <MODEL>
13

>  <REMARK>
 VINA RESULT:    -5.585      2.895      5.479
 INTER + INTRA:          -6.439
 INTER:                  -6.575
 INTRA:                   0.136
 UNBOUND:                -0.038
  Name = 
  3 active torsions:
  status: ('A' for Active; 'I' for Inactive)
    1  A    between atoms: C_3  and  N_4
    2  A    between atoms: C_6  and  C_16
    3  A    between atoms: C_16  and  O_18
                            x       y       z     vdW  Elec       q    Type
                         _______ _______ _______ _____ _____    ______ ____

>  <TORSDO>
F 3

$$$$
=
 OpenBabel07192307433D

 30 32  0  0  0  0  0  0  0  0999 V2000
   -1.2130   11.4320   20.1690 N   0  0  0  0  0  0  0  0  0  0  0  0
   -0.3110   10.5590   20.7400 C   0  0  0  0  0  0  0  0  0  0  0  0
    0.5540    9.6770   20.2290 C   0  0  0  0  0  0  0  0  0  0  0  0
    0.8240    9.5120   18.7970 C   0  0  0  0  0  0  0  0  0  0  0  0
    1.9050    9.0520   18.4190 O   0  0  0  0  0  0  0  0  0  0  0  0
   -0.0940    9.8030   17.8450 N   0  0  0  0  0  0  0  0  0  0  0  0
   -1.3530   10.4220   17.8750 C   0  0  0  0  0  0  0  0  0  0  0  0
   -2.0770   10.2860   16.6700 C   0  0  0  0  0  0  0  0  0  0  0  0
   -3.3370   10.8520   16.5020 C   0  0  0  0  0  0  0  0  0  0  0  0
   -3.8920   11.5770   17.5390 C   0  0  0  0  0  0  0  0  0  0  0  0
   -3.1780   11.7350   18.7310 C   0  0  0  0  0  0  0  0  0  0  0  0
   -1.8910   11.1760   18.9370 C   0  0  0  0  0  0  0  0  0  0  0  0
   -0.3350   10.6540   21.8280 H   0  0  0  0  0  0  0  0  0  0  0  0
    0.2330    9.4830   16.9400 H   0  0  0  0  0  0  0  0  0  0  0  0
   -1.6630    9.7180   15.8390 H   0  0  0  0  0  0  0  0  0  0  0  0
   -3.8770   10.7250   15.5680 H   0  0  0  0  0  0  0  0  0  0  0  0
   -4.8770   12.0250   17.4320 H   0  0  0  0  0  0  0  0  0  0  0  0
   -3.6630   12.3130   19.5140 H   0  0  0  0  0  0  0  0  0  0  0  0
   -2.4410   12.0870   22.3830 C   0  0  0  0  0  0  0  0  0  0  0  0
   -1.0920   12.7310   22.4350 C   0  0  0  0  0  0  0  0  0  0  0  0
   -1.7410   12.4690   21.0990 C   0  0  0  0  0  0  0  0  0  0  0  0
   -2.5060   11.0380   22.6470 H   0  0  0  0  0  0  0  0  0  0  0  0
   -3.3000   12.6740   22.6840 H   0  0  0  0  0  0  0  0  0  0  0  0
   -1.0300   13.7580   22.7750 H   0  0  0  0  0  0  0  0  0  0  0  0
   -0.2500   12.1140   22.7250 H   0  0  0  0  0  0  0  0  0  0  0  0
   -2.1550   13.3230   20.5660 H   0  0  0  0  0  0  0  0  0  0  0  0
    1.3380    8.9250   21.2260 C   0  0  0  0  0  0  0  0  0  0  0  0
    1.5580    9.2600   22.3770 O   0  0  0  0  0  0  0  0  0  0  0  0
    1.7400    7.7270   20.7670 O   0  0  0  0  0  0  0  0  0  0  0  0
    1.2490    7.6070   19.9290 H   0  0  0  0  0  0  0  0  0  0  0  0
  1  2  1  0  0  0  0
  1 21  1  0  0  0  0
  2 13  1  0  0  0  0
  3  2  2  0  0  0  0
  3 27  1  0  0  0  0
  4  3  1  0  0  0  0
  5  4  2  0  0  0  0
  6  7  1  0  0  0  0
  6  4  1  0  0  0  0
  7 12  1  0  0  0  0
  8  7  2  0  0  0  0
  9  8  1  0  0  0  0
  9 10  2  0  0  0  0
 10 11  1  0  0  0  0
 11 12  2  0  0  0  0
 11 18  1  0  0  0  0
 12  1  1  0  0  0  0
 14  6  1  0  0  0  0
 15  8  1  0  0  0  0
 16  9  1  0  0  0  0
 17 10  1  0  0  0  0
 19 20  1  0  0  0  0
 19 22  1  0  0  0  0
 19 23  1  0  0  0  0
 20 25  1  0  0  0  0
 20 24  1  0  0  0  0
 21 19  1  0  0  0  0
 21 20  1  0  0  0  0
 26 21  1  0  0  0  0
 27 28  2  0  0  0  0
 29 27  1  0  0  0  0
 30 29  1  0  0  0  0
M  END
>  <MODEL>
14

>  <REMARK>
 VINA RESULT:    -5.584      6.252      8.247
 INTER + INTRA:          -6.438
 INTER:                  -6.280
 INTRA:                  -0.158
 UNBOUND:                -0.038
  Name = 
  3 active torsions:
  status: ('A' for Active; 'I' for Inactive)
    1  A    between atoms: C_3  and  N_4
    2  A    between atoms: C_6  and  C_16
    3  A    between atoms: C_16  and  O_18
                            x       y       z     vdW  Elec       q    Type
                         _______ _______ _______ _____ _____    ______ ____

>  <TORSDO>
F 3

$$$$
=
 OpenBabel07192307433D

 30 32  0  0  0  0  0  0  0  0999 V2000
    5.0260    4.3010   16.3250 N   0  0  0  0  0  0  0  0  0  0  0  0
    5.6010    4.5760   17.5490 C   0  0  0  0  0  0  0  0  0  0  0  0
    6.6060    5.3740   17.9250 C   0  0  0  0  0  0  0  0  0  0  0  0
    7.3130    6.2970   17.0330 C   0  0  0  0  0  0  0  0  0  0  0  0
    7.8760    7.2950   17.4930 O   0  0  0  0  0  0  0  0  0  0  0  0
    7.4230    6.0820   15.7000 N   0  0  0  0  0  0  0  0  0  0  0  0
    6.8510    5.1480   14.8240 C   0  0  0  0  0  0  0  0  0  0  0  0
    7.4520    5.1330   13.5450 C   0  0  0  0  0  0  0  0  0  0  0  0
    7.0050    4.2890   12.5340 C   0  0  0  0  0  0  0  0  0  0  0  0
    5.9390    3.4460   12.7820 C   0  0  0  0  0  0  0  0  0  0  0  0
    5.3230    3.4640   14.0370 C   0  0  0  0  0  0  0  0  0  0  0  0
    5.7470    4.3130   15.0910 C   0  0  0  0  0  0  0  0  0  0  0  0
    5.0900    4.0190   18.3360 H   0  0  0  0  0  0  0  0  0  0  0  0
    8.0670    6.7510   15.2940 H   0  0  0  0  0  0  0  0  0  0  0  0
    8.2950    5.7850   13.3250 H   0  0  0  0  0  0  0  0  0  0  0  0
    7.4910    4.2910   11.5620 H   0  0  0  0  0  0  0  0  0  0  0  0
    5.5750    2.7750   12.0080 H   0  0  0  0  0  0  0  0  0  0  0  0
    4.4900    2.7800   14.1790 H   0  0  0  0  0  0  0  0  0  0  0  0
    3.4350    2.5740   17.4770 C   0  0  0  0  0  0  0  0  0  0  0  0
    2.7320    3.8930   17.5120 C   0  0  0  0  0  0  0  0  0  0  0  0
    3.7130    3.6010   16.4040 C   0  0  0  0  0  0  0  0  0  0  0  0
    4.1940    2.3900   18.2290 H   0  0  0  0  0  0  0  0  0  0  0  0
    2.8640    1.6960   17.2000 H   0  0  0  0  0  0  0  0  0  0  0  0
    1.6780    3.9160   17.2620 H   0  0  0  0  0  0  0  0  0  0  0  0
    3.0230    4.5990   18.2810 H   0  0  0  0  0  0  0  0  0  0  0  0
    3.3070    3.3830   15.4180 H   0  0  0  0  0  0  0  0  0  0  0  0
    6.9040    5.3590   19.3690 C   0  0  0  0  0  0  0  0  0  0  0  0
    7.9080    5.7950   19.9070 O   0  0  0  0  0  0  0  0  0  0  0  0
    5.8810    4.8810   20.1010 O   0  0  0  0  0  0  0  0  0  0  0  0
    5.0790    5.2130   19.6490 H   0  0  0  0  0  0  0  0  0  0  0  0
  1 21  1  0  0  0  0
  1  2  1  0  0  0  0
  2  3  2  0  0  0  0
  2 13  1  0  0  0  0
  3 27  1  0  0  0  0
  4  5  2  0  0  0  0
  4  3  1  0  0  0  0
  6  4  1  0  0  0  0
  7 12  1  0  0  0  0
  7  6  1  0  0  0  0
  8  7  2  0  0  0  0
  9 10  2  0  0  0  0
  9  8  1  0  0  0  0
 10 11  1  0  0  0  0
 11 18  1  0  0  0  0
 11 12  2  0  0  0  0
 12  1  1  0  0  0  0
 14  6  1  0  0  0  0
 15  8  1  0  0  0  0
 16  9  1  0  0  0  0
 17 10  1  0  0  0  0
 19 20  1  0  0  0  0
 19 22  1  0  0  0  0
 20 25  1  0  0  0  0
 21 19  1  0  0  0  0
 21 20  1  0  0  0  0
 23 19  1  0  0  0  0
 24 20  1  0  0  0  0
 26 21  1  0  0  0  0
 27 28  2  0  0  0  0
 27 29  1  0  0  0  0
 30 29  1  0  0  0  0
M  END
>  <MODEL>
15

>  <REMARK>
 VINA RESULT:    -5.510      2.429      4.652
 INTER + INTRA:          -6.354
 INTER:                  -6.777
 INTRA:                   0.424
 UNBOUND:                -0.038
  Name = 
  3 active torsions:
  status: ('A' for Active; 'I' for Inactive)
    1  A    between atoms: C_3  and  N_4
    2  A    between atoms: C_6  and  C_16
    3  A    between atoms: C_16  and  O_18
                            x       y       z     vdW  Elec       q    Type
                         _______ _______ _______ _____ _____    ______ ____

>  <TORSDO>
F 3

$$$$
=
 OpenBabel07192307433D

 30 32  0  0  0  0  0  0  0  0999 V2000
    0.6360    9.8930   19.2580 N   0  0  0  0  0  0  0  0  0  0  0  0
   -0.3070   10.0440   18.2630 C   0  0  0  0  0  0  0  0  0  0  0  0
   -1.4680   10.7050   18.1990 C   0  0  0  0  0  0  0  0  0  0  0  0
   -1.9820   11.5850   19.2530 C   0  0  0  0  0  0  0  0  0  0  0  0
   -2.7730   12.4900   18.9740 O   0  0  0  0  0  0  0  0  0  0  0  0
   -1.6600   11.4230   20.5590 N   0  0  0  0  0  0  0  0  0  0  0  0
   -0.7440   10.6010   21.2320 C   0  0  0  0  0  0  0  0  0  0  0  0
   -0.9270   10.5800   22.6320 C   0  0  0  0  0  0  0  0  0  0  0  0
   -0.0990    9.8410   23.4710 C   0  0  0  0  0  0  0  0  0  0  0  0
    0.9380    9.1130   22.9200 C   0  0  0  0  0  0  0  0  0  0  0  0
    1.1430    9.1390   21.5370 C   0  0  0  0  0  0  0  0  0  0  0  0
    0.3220    9.8840   20.6520 C   0  0  0  0  0  0  0  0  0  0  0  0
    0.0080    9.5100   17.3640 H   0  0  0  0  0  0  0  0  0  0  0  0
   -2.2290   12.0330   21.1340 H   0  0  0  0  0  0  0  0  0  0  0  0
   -1.7380   11.1440   23.0900 H   0  0  0  0  0  0  0  0  0  0  0  0
   -0.2680    9.8350   24.5440 H   0  0  0  0  0  0  0  0  0  0  0  0
    1.5960    8.5240   23.5560 H   0  0  0  0  0  0  0  0  0  0  0  0
    1.9720    8.5470   21.1590 H   0  0  0  0  0  0  0  0  0  0  0  0
    2.1920    7.8530   18.7500 C   0  0  0  0  0  0  0  0  0  0  0  0
    2.0630    8.6210   17.4730 C   0  0  0  0  0  0  0  0  0  0  0  0
    1.9400    9.3420   18.7930 C   0  0  0  0  0  0  0  0  0  0  0  0
    1.3820    7.1820   19.0150 H   0  0  0  0  0  0  0  0  0  0  0  0
    3.1740    7.4980   19.0370 H   0  0  0  0  0  0  0  0  0  0  0  0
    2.9590    8.7880   16.8870 H   0  0  0  0  0  0  0  0  0  0  0  0
    1.1660    8.4740   16.8840 H   0  0  0  0  0  0  0  0  0  0  0  0
    2.7800    9.9590   19.1080 H   0  0  0  0  0  0  0  0  0  0  0  0
   -2.1800   10.5870   16.9140 C   0  0  0  0  0  0  0  0  0  0  0  0
   -2.8220    9.6260   16.5260 O   0  0  0  0  0  0  0  0  0  0  0  0
   -2.1430   11.7260   16.1990 O   0  0  0  0  0  0  0  0  0  0  0  0
   -1.9580   11.4350   15.2840 H   0  0  0  0  0  0  0  0  0  0  0  0
  1 12  1  0  0  0  0
  2  1  1  0  0  0  0
  3  2  2  0  0  0  0
  3  4  1  0  0  0  0
  4  6  1  0  0  0  0
  5  4  2  0  0  0  0
  6 14  1  0  0  0  0
  6  7  1  0  0  0  0
  7  8  1  0  0  0  0
  8 15  1  0  0  0  0
  8  9  2  0  0  0  0
  9 16  1  0  0  0  0
 10  9  1  0  0  0  0
 10 17  1  0  0  0  0
 11 10  2  0  0  0  0
 12  7  2  0  0  0  0
 12 11  1  0  0  0  0
 13  2  1  0  0  0  0
 18 11  1  0  0  0  0
 19 21  1  0  0  0  0
 19 22  1  0  0  0  0
 19 23  1  0  0  0  0
 20 19  1  0  0  0  0
 20 21  1  0  0  0  0
 21 26  1  0  0  0  0
 21  1  1  0  0  0  0
 24 20  1  0  0  0  0
 25 20  1  0  0  0  0
 27  3  1  0  0  0  0
 28 27  2  0  0  0  0
 29 27  1  0  0  0  0
 30 29  1  0  0  0  0
M  END
>  <MODEL>
16

>  <REMARK>
 VINA RESULT:    -5.398      6.223      8.629
 INTER + INTRA:          -6.224
 INTER:                  -6.182
 INTRA:                  -0.042
 UNBOUND:                -0.038
  Name = 
  3 active torsions:
  status: ('A' for Active; 'I' for Inactive)
    1  A    between atoms: C_3  and  N_4
    2  A    between atoms: C_6  and  C_16
    3  A    between atoms: C_16  and  O_18
                            x       y       z     vdW  Elec       q    Type
                         _______ _______ _______ _____ _____    ______ ____

>  <TORSDO>
F 3

$$$$
=
 OpenBabel07192307433D

 30 32  0  0  0  0  0  0  0  0999 V2000
    6.1730    5.7250   16.9490 N   0  0  0  0  0  0  0  0  0  0  0  0
    6.8250    5.5760   15.7430 C   0  0  0  0  0  0  0  0  0  0  0  0
    6.5520    4.8730   14.6390 C   0  0  0  0  0  0  0  0  0  0  0  0
    5.3170    4.1130   14.4220 C   0  0  0  0  0  0  0  0  0  0  0  0
    4.9220    3.8860   13.2750 O   0  0  0  0  0  0  0  0  0  0  0  0
    4.5910    3.5950   15.4420 N   0  0  0  0  0  0  0  0  0  0  0  0
    4.6590    3.7240   16.8370 C   0  0  0  0  0  0  0  0  0  0  0  0
    3.8540    2.7940   17.5300 C   0  0  0  0  0  0  0  0  0  0  0  0
    3.7730    2.7830   18.9190 C   0  0  0  0  0  0  0  0  0  0  0  0
    4.4940    3.7130   19.6420 C   0  0  0  0  0  0  0  0  0  0  0  0
    5.2800    4.6530   18.9680 C   0  0  0  0  0  0  0  0  0  0  0  0
    5.3850    4.6970   17.5550 C   0  0  0  0  0  0  0  0  0  0  0  0
    7.7310    6.1850   15.7300 H   0  0  0  0  0  0  0  0  0  0  0  0
    3.8660    2.9880   15.0770 H   0  0  0  0  0  0  0  0  0  0  0  0
    3.2780    2.0490   16.9830 H   0  0  0  0  0  0  0  0  0  0  0  0
    3.1530    2.0500   19.4270 H   0  0  0  0  0  0  0  0  0  0  0  0
    4.4490    3.7210   20.7290 H   0  0  0  0  0  0  0  0  0  0  0  0
    5.8280    5.3600   19.5870 H   0  0  0  0  0  0  0  0  0  0  0  0
    8.0110    6.8250   18.4490 C   0  0  0  0  0  0  0  0  0  0  0  0
    7.7770    7.7590   17.3040 C   0  0  0  0  0  0  0  0  0  0  0  0
    6.6590    6.8640   17.7770 C   0  0  0  0  0  0  0  0  0  0  0  0
    8.6540    5.9690   18.2740 H   0  0  0  0  0  0  0  0  0  0  0  0
    8.0940    7.2460   19.4430 H   0  0  0  0  0  0  0  0  0  0  0  0
    7.7030    8.8190   17.5170 H   0  0  0  0  0  0  0  0  0  0  0  0
    8.2540    7.5270   16.3590 H   0  0  0  0  0  0  0  0  0  0  0  0
    5.8550    7.3250   18.3490 H   0  0  0  0  0  0  0  0  0  0  0  0
    7.5480    4.9980   13.5600 C   0  0  0  0  0  0  0  0  0  0  0  0
    7.4900    4.4830   12.4560 O   0  0  0  0  0  0  0  0  0  0  0  0
    8.5410    5.8490   13.8720 O   0  0  0  0  0  0  0  0  0  0  0  0
    9.3310    5.4770   13.4310 H   0  0  0  0  0  0  0  0  0  0  0  0
  1 12  1  0  0  0  0
  1 21  1  0  0  0  0
  2  1  1  0  0  0  0
  3  2  2  0  0  0  0
  4  3  1  0  0  0  0
  4  6  1  0  0  0  0
  5  4  2  0  0  0  0
  6  7  1  0  0  0  0
  7  8  2  0  0  0  0
  7 12  1  0  0  0  0
  8  9  1  0  0  0  0
  9 16  1  0  0  0  0
  9 10  2  0  0  0  0
 10 17  1  0  0  0  0
 11 18  1  0  0  0  0
 11 10  1  0  0  0  0
 12 11  2  0  0  0  0
 13  2  1  0  0  0  0
 14  6  1  0  0  0  0
 15  8  1  0  0  0  0
 19 23  1  0  0  0  0
 20 24  1  0  0  0  0
 20 21  1  0  0  0  0
 20 19  1  0  0  0  0
 21 26  1  0  0  0  0
 21 19  1  0  0  0  0
 22 19  1  0  0  0  0
 25 20  1  0  0  0  0
 27 29  1  0  0  0  0
 27  3  1  0  0  0  0
 28 27  2  0  0  0  0
 30 29  1  0  0  0  0
M  END
>  <MODEL>
17

>  <REMARK>
 VINA RESULT:    -5.339      2.679      3.559
 INTER + INTRA:          -6.157
 INTER:                  -6.490
 INTRA:                   0.333
 UNBOUND:                -0.038
  Name = 
  3 active torsions:
  status: ('A' for Active; 'I' for Inactive)
    1  A    between atoms: C_3  and  N_4
    2  A    between atoms: C_6  and  C_16
    3  A    between atoms: C_16  and  O_18
                            x       y       z     vdW  Elec       q    Type
                         _______ _______ _______ _____ _____    ______ ____

>  <TORSDO>
F 3

$$$$
=
 OpenBabel07192307433D

 30 32  0  0  0  0  0  0  0  0999 V2000
   -1.4050   10.9420   19.0050 N   0  0  0  0  0  0  0  0  0  0  0  0
   -0.2500   10.4470   18.4360 C   0  0  0  0  0  0  0  0  0  0  0  0
    0.7980    9.7820   18.9310 C   0  0  0  0  0  0  0  0  0  0  0  0
    0.8990    9.2990   20.3120 C   0  0  0  0  0  0  0  0  0  0  0  0
    1.6260    8.3380   20.5810 O   0  0  0  0  0  0  0  0  0  0  0  0
    0.2550    9.8970   21.3420 N   0  0  0  0  0  0  0  0  0  0  0  0
   -0.7090   10.9150   21.4170 C   0  0  0  0  0  0  0  0  0  0  0  0
   -0.9130   11.4030   22.7270 C   0  0  0  0  0  0  0  0  0  0  0  0
   -1.8470   12.3960   23.0030 C   0  0  0  0  0  0  0  0  0  0  0  0
   -2.6020   12.9160   21.9690 C   0  0  0  0  0  0  0  0  0  0  0  0
   -2.4230   12.4290   20.6710 C   0  0  0  0  0  0  0  0  0  0  0  0
   -1.4850   11.4140   20.3520 C   0  0  0  0  0  0  0  0  0  0  0  0
   -0.2440   10.6530   17.3640 H   0  0  0  0  0  0  0  0  0  0  0  0
    0.5700    9.5060   22.2220 H   0  0  0  0  0  0  0  0  0  0  0  0
   -0.3290   11.0110   23.5580 H   0  0  0  0  0  0  0  0  0  0  0  0
   -1.9780   12.7600   24.0180 H   0  0  0  0  0  0  0  0  0  0  0  0
   -3.3350   13.6960   22.1610 H   0  0  0  0  0  0  0  0  0  0  0  0
   -3.0420   12.8750   19.8960 H   0  0  0  0  0  0  0  0  0  0  0  0
   -2.6330   10.5800   16.7250 C   0  0  0  0  0  0  0  0  0  0  0  0
   -3.6730   10.4630   17.7940 C   0  0  0  0  0  0  0  0  0  0  0  0
   -2.4590   11.3280   18.0250 C   0  0  0  0  0  0  0  0  0  0  0  0
   -2.0080    9.7140   16.5360 H   0  0  0  0  0  0  0  0  0  0  0  0
   -2.8730   11.1550   15.8390 H   0  0  0  0  0  0  0  0  0  0  0  0
   -4.6240   10.9560   17.6350 H   0  0  0  0  0  0  0  0  0  0  0  0
   -3.7420    9.5230   18.3290 H   0  0  0  0  0  0  0  0  0  0  0  0
   -2.5960   12.4070   17.9770 H   0  0  0  0  0  0  0  0  0  0  0  0
    1.8430    9.4470   17.9470 C   0  0  0  0  0  0  0  0  0  0  0  0
    2.1900    8.3270   17.6110 O   0  0  0  0  0  0  0  0  0  0  0  0
    2.3520   10.5360   17.3450 O   0  0  0  0  0  0  0  0  0  0  0  0
    1.6950   10.7660   16.6570 H   0  0  0  0  0  0  0  0  0  0  0  0
  1 12  1  0  0  0  0
  2  3  2  0  0  0  0
  2  1  1  0  0  0  0
  3  4  1  0  0  0  0
  4  5  2  0  0  0  0
  4  6  1  0  0  0  0
  6  7  1  0  0  0  0
  6 14  1  0  0  0  0
  7  8  1  0  0  0  0
  8  9  2  0  0  0  0
  8 15  1  0  0  0  0
  9 16  1  0  0  0  0
 10 17  1  0  0  0  0
 10  9  1  0  0  0  0
 11 10  2  0  0  0  0
 12 11  1  0  0  0  0
 12  7  2  0  0  0  0
 13  2  1  0  0  0  0
 18 11  1  0  0  0  0
 19 20  1  0  0  0  0
 19 21  1  0  0  0  0
 20 21  1  0  0  0  0
 20 25  1  0  0  0  0
 21  1  1  0  0  0  0
 22 19  1  0  0  0  0
 23 19  1  0  0  0  0
 24 20  1  0  0  0  0
 26 21  1  0  0  0  0
 27  3  1  0  0  0  0
 28 27  2  0  0  0  0
 29 27  1  0  0  0  0
 30 29  1  0  0  0  0
M  END
>  <MODEL>
18

>  <REMARK>
 VINA RESULT:    -5.330      5.939      8.340
 INTER + INTRA:          -6.147
 INTER:                  -6.481
 INTRA:                   0.334
 UNBOUND:                -0.038
  Name = 
  3 active torsions:
  status: ('A' for Active; 'I' for Inactive)
    1  A    between atoms: C_3  and  N_4
    2  A    between atoms: C_6  and  C_16
    3  A    between atoms: C_16  and  O_18
                            x       y       z     vdW  Elec       q    Type
                         _______ _______ _______ _____ _____    ______ ____

>  <TORSDO>
F 3

$$$$
=
 OpenBabel07192307433D

 30 32  0  0  0  0  0  0  0  0999 V2000
   -1.3980   10.8300   19.2730 N   0  0  0  0  0  0  0  0  0  0  0  0
   -1.2920   11.8770   20.1650 C   0  0  0  0  0  0  0  0  0  0  0  0
   -2.1590   12.8000   20.5950 C   0  0  0  0  0  0  0  0  0  0  0  0
   -3.5820   12.8300   20.2460 C   0  0  0  0  0  0  0  0  0  0  0  0
   -4.3930   13.3830   20.9960 O   0  0  0  0  0  0  0  0  0  0  0  0
   -4.0600   12.3100   19.0910 N   0  0  0  0  0  0  0  0  0  0  0  0
   -3.4860   11.5370   18.0700 C   0  0  0  0  0  0  0  0  0  0  0  0
   -4.2950   11.4340   16.9170 C   0  0  0  0  0  0  0  0  0  0  0  0
   -3.9040   10.6890   15.8090 C   0  0  0  0  0  0  0  0  0  0  0  0
   -2.6940   10.0240   15.8390 C   0  0  0  0  0  0  0  0  0  0  0  0
   -1.8910   10.1020   16.9810 C   0  0  0  0  0  0  0  0  0  0  0  0
   -2.2580   10.8480   18.1310 C   0  0  0  0  0  0  0  0  0  0  0  0
   -0.2860   11.9070   20.5880 H   0  0  0  0  0  0  0  0  0  0  0  0
   -5.0350   12.5620   18.9750 H   0  0  0  0  0  0  0  0  0  0  0  0
   -5.2530   11.9510   16.8680 H   0  0  0  0  0  0  0  0  0  0  0  0
   -4.5420   10.6340   14.9320 H   0  0  0  0  0  0  0  0  0  0  0  0
   -2.3650    9.4390   14.9830 H   0  0  0  0  0  0  0  0  0  0  0  0
   -0.9490    9.5610   16.9500 H   0  0  0  0  0  0  0  0  0  0  0  0
    1.1210   10.2270   18.9170 C   0  0  0  0  0  0  0  0  0  0  0  0
    0.8210    9.9770   20.3610 C   0  0  0  0  0  0  0  0  0  0  0  0
   -0.2800    9.8480   19.3370 C   0  0  0  0  0  0  0  0  0  0  0  0
    1.3140   11.2510   18.6150 H   0  0  0  0  0  0  0  0  0  0  0  0
    1.7050    9.4890   18.3810 H   0  0  0  0  0  0  0  0  0  0  0  0
    1.2030    9.0680   20.8110 H   0  0  0  0  0  0  0  0  0  0  0  0
    0.8030   10.8310   21.0280 H   0  0  0  0  0  0  0  0  0  0  0  0
   -0.6020    8.8440   19.0710 H   0  0  0  0  0  0  0  0  0  0  0  0
   -1.6100   13.7600   21.5700 C   0  0  0  0  0  0  0  0  0  0  0  0
   -0.8580   13.5050   22.4950 O   0  0  0  0  0  0  0  0  0  0  0  0
   -1.9510   15.0300   21.2890 O   0  0  0  0  0  0  0  0  0  0  0  0
   -2.6350   15.2540   21.9520 H   0  0  0  0  0  0  0  0  0  0  0  0
  1 21  1  0  0  0  0
  1  2  1  0  0  0  0
  2 13  1  0  0  0  0
  2  3  2  0  0  0  0
  3 27  1  0  0  0  0
  4  3  1  0  0  0  0
  4  5  2  0  0  0  0
  6  4  1  0  0  0  0
  7 12  1  0  0  0  0
  7  6  1  0  0  0  0
  8  7  2  0  0  0  0
  9 10  2  0  0  0  0
  9  8  1  0  0  0  0
 10 11  1  0  0  0  0
 11 12  2  0  0  0  0
 12  1  1  0  0  0  0
 14  6  1  0  0  0  0
 15  8  1  0  0  0  0
 16  9  1  0  0  0  0
 17 10  1  0  0  0  0
 18 11  1  0  0  0  0
 19 21  1  0  0  0  0
 19 20  1  0  0  0  0
 20 24  1  0  0  0  0
 20 25  1  0  0  0  0
 21 20  1  0  0  0  0
 22 19  1  0  0  0  0
 23 19  1  0  0  0  0
 26 21  1  0  0  0  0
 27 28  2  0  0  0  0
 29 27  1  0  0  0  0
 29 30  1  0  0  0  0
M  END
>  <MODEL>
19

>  <REMARK>
 VINA RESULT:    -5.265      8.102     10.330
 INTER + INTRA:          -6.072
 INTER:                  -5.851
 INTRA:                  -0.221
 UNBOUND:                -0.038
  Name = 
  3 active torsions:
  status: ('A' for Active; 'I' for Inactive)
    1  A    between atoms: C_3  and  N_4
    2  A    between atoms: C_6  and  C_16
    3  A    between atoms: C_16  and  O_18
                            x       y       z     vdW  Elec       q    Type
                         _______ _______ _______ _____ _____    ______ ____

>  <TORSDO>
F 3

$$$$
=
 OpenBabel07192307433D

 30 32  0  0  0  0  0  0  0  0999 V2000
   -0.8790   11.1500   21.6430 N   0  0  0  0  0  0  0  0  0  0  0  0
   -0.5860   10.6480   20.3910 C   0  0  0  0  0  0  0  0  0  0  0  0
   -0.7140   11.1460   19.1570 C   0  0  0  0  0  0  0  0  0  0  0  0
   -1.1410   12.5150   18.8530 C   0  0  0  0  0  0  0  0  0  0  0  0
   -0.8070   13.0480   17.7900 O   0  0  0  0  0  0  0  0  0  0  0  0
   -1.9420   13.2290   19.6800 N   0  0  0  0  0  0  0  0  0  0  0  0
   -2.4260   13.0120   20.9790 C   0  0  0  0  0  0  0  0  0  0  0  0
   -3.4480   13.9110   21.3580 C   0  0  0  0  0  0  0  0  0  0  0  0
   -4.0350   13.8670   22.6180 C   0  0  0  0  0  0  0  0  0  0  0  0
   -3.6010   12.9230   23.5290 C   0  0  0  0  0  0  0  0  0  0  0  0
   -2.5770   12.0390   23.1740 C   0  0  0  0  0  0  0  0  0  0  0  0
   -1.9520   12.0570   21.9010 C   0  0  0  0  0  0  0  0  0  0  0  0
   -0.1550    9.6500   20.4800 H   0  0  0  0  0  0  0  0  0  0  0  0
   -2.2360   14.0850   19.2230 H   0  0  0  0  0  0  0  0  0  0  0  0
   -3.8080   14.6620   20.6570 H   0  0  0  0  0  0  0  0  0  0  0  0
   -4.8250   14.5640   22.8810 H   0  0  0  0  0  0  0  0  0  0  0  0
   -4.0480   12.8670   24.5190 H   0  0  0  0  0  0  0  0  0  0  0  0
   -2.2770   11.3170   23.9290 H   0  0  0  0  0  0  0  0  0  0  0  0
   -0.5950    8.9290   22.9950 C   0  0  0  0  0  0  0  0  0  0  0  0
    0.7710    9.3240   22.5280 C   0  0  0  0  0  0  0  0  0  0  0  0
   -0.2710   10.3880   22.7700 C   0  0  0  0  0  0  0  0  0  0  0  0
   -1.2410    8.4250   22.2850 H   0  0  0  0  0  0  0  0  0  0  0  0
   -0.7070    8.5890   24.0170 H   0  0  0  0  0  0  0  0  0  0  0  0
    1.5910    9.2490   23.2320 H   0  0  0  0  0  0  0  0  0  0  0  0
    1.0400    9.0930   21.5040 H   0  0  0  0  0  0  0  0  0  0  0  0
   -0.1680   10.9970   23.6650 H   0  0  0  0  0  0  0  0  0  0  0  0
   -0.2750   10.2460   18.0750 C   0  0  0  0  0  0  0  0  0  0  0  0
    0.7610    9.6050   18.0410 O   0  0  0  0  0  0  0  0  0  0  0  0
   -1.2050   10.1070   17.1130 O   0  0  0  0  0  0  0  0  0  0  0  0
   -2.0440    9.9790   17.5990 H   0  0  0  0  0  0  0  0  0  0  0  0
  1 12  1  0  0  0  0
  1 21  1  0  0  0  0
  2 13  1  0  0  0  0
  2  1  1  0  0  0  0
  3  2  2  0  0  0  0
  4  3  1  0  0  0  0
  4  6  1  0  0  0  0
  5  4  2  0  0  0  0
  6  7  1  0  0  0  0
  7  8  2  0  0  0  0
  7 12  1  0  0  0  0
  8  9  1  0  0  0  0
  9 16  1  0  0  0  0
  9 10  2  0  0  0  0
 10 17  1  0  0  0  0
 11 10  1  0  0  0  0
 11 18  1  0  0  0  0
 12 11  2  0  0  0  0
 14  6  1  0  0  0  0
 15  8  1  0  0  0  0
 19 23  1  0  0  0  0
 20 21  1  0  0  0  0
 20 19  1  0  0  0  0
 20 24  1  0  0  0  0
 21 19  1  0  0  0  0
 21 26  1  0  0  0  0
 22 19  1  0  0  0  0
 25 20  1  0  0  0  0
 27  3  1  0  0  0  0
 28 27  2  0  0  0  0
 29 30  1  0  0  0  0
 29 27  1  0  0  0  0
M  END
>  <MODEL>
20

>  <REMARK>
 VINA RESULT:    -5.195      7.513     10.011
 INTER + INTRA:          -5.992
 INTER:                  -5.787
 INTRA:                  -0.205
 UNBOUND:                -0.038
  Name = 
  3 active torsions:
  status: ('A' for Active; 'I' for Inactive)
    1  A    between atoms: C_3  and  N_4
    2  A    between atoms: C_6  and  C_16
    3  A    between atoms: C_16  and  O_18
                            x       y       z     vdW  Elec       q    Type
                         _______ _______ _______ _____ _____    ______ ____

>  <TORSDO>
F 3

$$$$
=
 OpenBabel07192307433D

 30 32  0  0  0  0  0  0  0  0999 V2000
   -1.9900   10.6020   18.3840 N   0  0  0  0  0  0  0  0  0  0  0  0
   -0.7270   10.1660   18.0390 C   0  0  0  0  0  0  0  0  0  0  0  0
    0.3780    9.9190   18.7490 C   0  0  0  0  0  0  0  0  0  0  0  0
    0.4550    9.9690   20.2120 C   0  0  0  0  0  0  0  0  0  0  0  0
    1.3110    9.3120   20.8120 O   0  0  0  0  0  0  0  0  0  0  0  0
   -0.3590   10.7550   20.9580 N   0  0  0  0  0  0  0  0  0  0  0  0
   -1.4840   11.5380   20.6590 C   0  0  0  0  0  0  0  0  0  0  0  0
   -1.8670   12.4000   21.7090 C   0  0  0  0  0  0  0  0  0  0  0  0
   -2.9740   13.2370   21.6070 C   0  0  0  0  0  0  0  0  0  0  0  0
   -3.7260   13.2180   20.4480 C   0  0  0  0  0  0  0  0  0  0  0  0
   -3.3690   12.3560   19.4070 C   0  0  0  0  0  0  0  0  0  0  0  0
   -2.2500   11.4860   19.4770 C   0  0  0  0  0  0  0  0  0  0  0  0
   -0.6750    9.9870   16.9630 H   0  0  0  0  0  0  0  0  0  0  0  0
   -0.0490   10.7560   21.9230 H   0  0  0  0  0  0  0  0  0  0  0  0
   -1.2900   12.4350   22.6320 H   0  0  0  0  0  0  0  0  0  0  0  0
   -3.2420   13.8970   22.4270 H   0  0  0  0  0  0  0  0  0  0  0  0
   -4.5930   13.8660   20.3440 H   0  0  0  0  0  0  0  0  0  0  0  0
   -3.9940   12.3840   18.5180 H   0  0  0  0  0  0  0  0  0  0  0  0
   -2.9190   11.1630   16.0050 C   0  0  0  0  0  0  0  0  0  0  0  0
   -2.7060    9.6820   16.0430 C   0  0  0  0  0  0  0  0  0  0  0  0
   -3.0160   10.4250   17.3200 C   0  0  0  0  0  0  0  0  0  0  0  0
   -2.0520   11.7890   15.8240 H   0  0  0  0  0  0  0  0  0  0  0  0
   -3.8360   11.5360   15.5660 H   0  0  0  0  0  0  0  0  0  0  0  0
   -3.4770    9.0450   15.6270 H   0  0  0  0  0  0  0  0  0  0  0  0
   -1.6970    9.3140   15.8980 H   0  0  0  0  0  0  0  0  0  0  0  0
   -4.0180   10.3160   17.7320 H   0  0  0  0  0  0  0  0  0  0  0  0
    1.5370    9.4650   17.9580 C   0  0  0  0  0  0  0  0  0  0  0  0
    1.8510    8.3090   17.7320 O   0  0  0  0  0  0  0  0  0  0  0  0
    2.2080   10.4860   17.3960 O   0  0  0  0  0  0  0  0  0  0  0  0
    2.7730   10.0640   16.7180 H   0  0  0  0  0  0  0  0  0  0  0  0
  1 12  1  0  0  0  0
  2  1  1  0  0  0  0
  2  3  2  0  0  0  0
  3  4  1  0  0  0  0
  4  5  2  0  0  0  0
  4  6  1  0  0  0  0
  6 14  1  0  0  0  0
  7  6  1  0  0  0  0
  7  8  1  0  0  0  0
  8 15  1  0  0  0  0
  9  8  2  0  0  0  0
  9 16  1  0  0  0  0
 10  9  1  0  0  0  0
 11 12  1  0  0  0  0
 11 10  2  0  0  0  0
 12  7  2  0  0  0  0
 13  2  1  0  0  0  0
 17 10  1  0  0  0  0
 18 11  1  0  0  0  0
 19 20  1  0  0  0  0
 19 21  1  0  0  0  0
 20 21  1  0  0  0  0
 21 26  1  0  0  0  0
 21  1  1  0  0  0  0
 22 19  1  0  0  0  0
 23 19  1  0  0  0  0
 24 20  1  0  0  0  0
 25 20  1  0  0  0  0
 27  3  1  0  0  0  0
 28 27  2  0  0  0  0
 29 27  1  0  0  0  0
 30 29  1  0  0  0  0
M  END
>  <MODEL>
21

>  <REMARK>
 VINA RESULT:    -5.170      6.185      8.748
 INTER + INTRA:          -5.963
 INTER:                  -5.948
 INTRA:                  -0.015
 UNBOUND:                -0.038
  Name = 
  3 active torsions:
  status: ('A' for Active; 'I' for Inactive)
    1  A    between atoms: C_3  and  N_4
    2  A    between atoms: C_6  and  C_16
    3  A    between atoms: C_16  and  O_18
                            x       y       z     vdW  Elec       q    Type
                         _______ _______ _______ _____ _____    ______ ____

>  <TORSDO>
F 3

$$$$
=
 OpenBabel07192307433D

 30 32  0  0  0  0  0  0  0  0999 V2000
    0.4460    9.9660   20.9070 N   0  0  0  0  0  0  0  0  0  0  0  0
    0.5240   11.3380   21.0290 C   0  0  0  0  0  0  0  0  0  0  0  0
    0.7810   12.3190   20.1570 C   0  0  0  0  0  0  0  0  0  0  0  0
    0.9470   12.1240   18.7140 C   0  0  0  0  0  0  0  0  0  0  0  0
    0.7220   13.0540   17.9330 O   0  0  0  0  0  0  0  0  0  0  0  0
    1.3910   10.9600   18.1820 N   0  0  0  0  0  0  0  0  0  0  0  0
    1.6440    9.6890   18.7180 C   0  0  0  0  0  0  0  0  0  0  0  0
    2.3470    8.8360   17.8390 C   0  0  0  0  0  0  0  0  0  0  0  0
    2.6680    7.5270   18.1860 C   0  0  0  0  0  0  0  0  0  0  0  0
    2.2820    7.0440   19.4220 C   0  0  0  0  0  0  0  0  0  0  0  0
    1.5690    7.8720   20.2940 C   0  0  0  0  0  0  0  0  0  0  0  0
    1.2200    9.2090   19.9740 C   0  0  0  0  0  0  0  0  0  0  0  0
    0.3150   11.6340   22.0590 H   0  0  0  0  0  0  0  0  0  0  0  0
    1.5750   11.0800   17.1920 H   0  0  0  0  0  0  0  0  0  0  0  0
    2.6650    9.1930   16.8610 H   0  0  0  0  0  0  0  0  0  0  0  0
    3.2180    6.8950   17.4950 H   0  0  0  0  0  0  0  0  0  0  0  0
    2.5250    6.0260   19.7160 H   0  0  0  0  0  0  0  0  0  0  0  0
    1.2920    7.4420   21.2530 H   0  0  0  0  0  0  0  0  0  0  0  0
    0.4250    9.3350   23.4450 C   0  0  0  0  0  0  0  0  0  0  0  0
   -0.8570   10.0580   23.1730 C   0  0  0  0  0  0  0  0  0  0  0  0
   -0.1900    9.2790   22.0660 C   0  0  0  0  0  0  0  0  0  0  0  0
    1.3170    9.9350   23.5910 H   0  0  0  0  0  0  0  0  0  0  0  0
    0.3880    8.4390   24.0510 H   0  0  0  0  0  0  0  0  0  0  0  0
   -1.7680    9.6550   23.5970 H   0  0  0  0  0  0  0  0  0  0  0  0
   -0.8250   11.1400   23.1280 H   0  0  0  0  0  0  0  0  0  0  0  0
   -0.6370    8.3280   21.7810 H   0  0  0  0  0  0  0  0  0  0  0  0
    0.7750   13.6770   20.7300 C   0  0  0  0  0  0  0  0  0  0  0  0
   -0.1890   14.4190   20.8270 O   0  0  0  0  0  0  0  0  0  0  0  0
    1.9650   14.0210   21.2510 O   0  0  0  0  0  0  0  0  0  0  0  0
    1.9810   14.9980   21.2040 H   0  0  0  0  0  0  0  0  0  0  0  0
  1  2  1  0  0  0  0
  1 21  1  0  0  0  0
  2 13  1  0  0  0  0
  3 27  1  0  0  0  0
  3  2  2  0  0  0  0
  4  3  1  0  0  0  0
  5  4  2  0  0  0  0
  6  4  1  0  0  0  0
  6  7  1  0  0  0  0
  7 12  1  0  0  0  0
  8  9  1  0  0  0  0
  8  7  2  0  0  0  0
  9 10  2  0  0  0  0
 10 17  1  0  0  0  0
 10 11  1  0  0  0  0
 11 18  1  0  0  0  0
 12 11  2  0  0  0  0
 12  1  1  0  0  0  0
 14  6  1  0  0  0  0
 15  8  1  0  0  0  0
 16  9  1  0  0  0  0
 19 22  1  0  0  0  0
 19 23  1  0  0  0  0
 20 19  1  0  0  0  0
 20 24  1  0  0  0  0
 21 20  1  0  0  0  0
 21 19  1  0  0  0  0
 25 20  1  0  0  0  0
 26 21  1  0  0  0  0
 27 28  2  0  0  0  0
 27 29  1  0  0  0  0
 30 29  1  0  0  0  0
M  END
>  <MODEL>
22

>  <REMARK>
 VINA RESULT:    -5.067      5.699      7.756
 INTER + INTRA:          -5.846
 INTER:                  -5.819
 INTRA:                  -0.027
 UNBOUND:                -0.038
  Name = 
  3 active torsions:
  status: ('A' for Active; 'I' for Inactive)
    1  A    between atoms: C_3  and  N_4
    2  A    between atoms: C_6  and  C_16
    3  A    between atoms: C_16  and  O_18
                            x       y       z     vdW  Elec       q    Type
                         _______ _______ _______ _____ _____    ______ ____

>  <TORSDO>
F 3

$$$$
=
 OpenBabel07192307433D

 30 32  0  0  0  0  0  0  0  0999 V2000
    0.9290   11.3950   20.0230 N   0  0  0  0  0  0  0  0  0  0  0  0
    0.0300   11.6440   21.0390 C   0  0  0  0  0  0  0  0  0  0  0  0
   -0.3000   10.9770   22.1490 C   0  0  0  0  0  0  0  0  0  0  0  0
    0.3720    9.7610   22.6180 C   0  0  0  0  0  0  0  0  0  0  0  0
    0.3530    9.4650   23.8170 O   0  0  0  0  0  0  0  0  0  0  0  0
    0.9900    8.8990   21.7760 N   0  0  0  0  0  0  0  0  0  0  0  0
    1.3010    8.9420   20.4090 C   0  0  0  0  0  0  0  0  0  0  0  0
    1.7280    7.7010   19.8880 C   0  0  0  0  0  0  0  0  0  0  0  0
    2.1030    7.5520   18.5570 C   0  0  0  0  0  0  0  0  0  0  0  0
    2.0660    8.6520   17.7210 C   0  0  0  0  0  0  0  0  0  0  0  0
    1.6630    9.8910   18.2280 C   0  0  0  0  0  0  0  0  0  0  0  0
    1.2780   10.0810   19.5790 C   0  0  0  0  0  0  0  0  0  0  0  0
   -0.4790   12.5940   20.8630 H   0  0  0  0  0  0  0  0  0  0  0  0
    1.2580    8.0590   22.2760 H   0  0  0  0  0  0  0  0  0  0  0  0
    1.7640    6.8180   20.5260 H   0  0  0  0  0  0  0  0  0  0  0  0
    2.4190    6.5840   18.1790 H   0  0  0  0  0  0  0  0  0  0  0  0
    2.3500    8.5590   16.6750 H   0  0  0  0  0  0  0  0  0  0  0  0
    1.6500   10.7210   17.5260 H   0  0  0  0  0  0  0  0  0  0  0  0
    0.1080   13.2630   18.3880 C   0  0  0  0  0  0  0  0  0  0  0  0
    0.7750   13.9590   19.5320 C   0  0  0  0  0  0  0  0  0  0  0  0
    1.2120   12.5670   19.1480 C   0  0  0  0  0  0  0  0  0  0  0  0
   -0.9130   12.9280   18.5320 H   0  0  0  0  0  0  0  0  0  0  0  0
    0.3240   13.6070   17.3840 H   0  0  0  0  0  0  0  0  0  0  0  0
    1.4450   14.7800   19.3080 H   0  0  0  0  0  0  0  0  0  0  0  0
    0.2070   14.0830   20.4460 H   0  0  0  0  0  0  0  0  0  0  0  0
    2.1610   12.4660   18.6240 H   0  0  0  0  0  0  0  0  0  0  0  0
   -1.3440   11.6150   22.9710 C   0  0  0  0  0  0  0  0  0  0  0  0
   -2.3660   11.0910   23.3810 O   0  0  0  0  0  0  0  0  0  0  0  0
   -1.0180   12.8680   23.3340 O   0  0  0  0  0  0  0  0  0  0  0  0
   -0.6500   13.2710   22.5220 H   0  0  0  0  0  0  0  0  0  0  0  0
  1  2  1  0  0  0  0
  2  3  2  0  0  0  0
  3  4  1  0  0  0  0
  3 27  1  0  0  0  0
  4  5  2  0  0  0  0
  6 14  1  0  0  0  0
  6  4  1  0  0  0  0
  7  6  1  0  0  0  0
  8  7  1  0  0  0  0
  8 15  1  0  0  0  0
  9  8  2  0  0  0  0
 10 11  2  0  0  0  0
 10  9  1  0  0  0  0
 11 12  1  0  0  0  0
 12  1  1  0  0  0  0
 12  7  2  0  0  0  0
 13  2  1  0  0  0  0
 16  9  1  0  0  0  0
 17 10  1  0  0  0  0
 18 11  1  0  0  0  0
 19 22  1  0  0  0  0
 19 21  1  0  0  0  0
 19 20  1  0  0  0  0
 20 25  1  0  0  0  0
 21 20  1  0  0  0  0
 21  1  1  0  0  0  0
 23 19  1  0  0  0  0
 24 20  1  0  0  0  0
 26 21  1  0  0  0  0
 27 29  1  0  0  0  0
 27 28  2  0  0  0  0
 30 29  1  0  0  0  0
M  END
>  <MODEL>
23

>  <REMARK>
 VINA RESULT:    -5.062      6.044      8.359
 INTER + INTRA:          -5.840
 INTER:                  -5.854
 INTRA:                   0.015
 UNBOUND:                -0.038
  Name = 
  3 active torsions:
  status: ('A' for Active; 'I' for Inactive)
    1  A    between atoms: C_3  and  N_4
    2  A    between atoms: C_6  and  C_16
    3  A    between atoms: C_16  and  O_18
                            x       y       z     vdW  Elec       q    Type
                         _______ _______ _______ _____ _____    ______ ____

>  <TORSDO>
F 3

$$$$
=
 OpenBabel07192307433D

 30 32  0  0  0  0  0  0  0  0999 V2000
   -1.1550   11.4510   20.0640 N   0  0  0  0  0  0  0  0  0  0  0  0
   -0.2260   10.4560   20.2900 C   0  0  0  0  0  0  0  0  0  0  0  0
    0.2320    9.8710   21.4010 C   0  0  0  0  0  0  0  0  0  0  0  0
   -0.2910   10.1220   22.7480 C   0  0  0  0  0  0  0  0  0  0  0  0
   -0.1730    9.2650   23.6290 O   0  0  0  0  0  0  0  0  0  0  0  0
   -0.8720   11.2950   23.0970 N   0  0  0  0  0  0  0  0  0  0  0  0
   -1.2650   12.4300   22.3730 C   0  0  0  0  0  0  0  0  0  0  0  0
   -1.6000   13.5330   23.1890 C   0  0  0  0  0  0  0  0  0  0  0  0
   -2.0370   14.7400   22.6520 C   0  0  0  0  0  0  0  0  0  0  0  0
   -2.1550   14.8620   21.2800 C   0  0  0  0  0  0  0  0  0  0  0  0
   -1.8450   13.7720   20.4610 C   0  0  0  0  0  0  0  0  0  0  0  0
   -1.4010   12.5260   20.9730 C   0  0  0  0  0  0  0  0  0  0  0  0
    0.1770   10.0980   19.3400 H   0  0  0  0  0  0  0  0  0  0  0  0
   -1.0280   11.3190   24.0980 H   0  0  0  0  0  0  0  0  0  0  0  0
   -1.5140   13.4630   24.2720 H   0  0  0  0  0  0  0  0  0  0  0  0
   -2.2790   15.5750   23.3020 H   0  0  0  0  0  0  0  0  0  0  0  0
   -2.4900   15.7970   20.8380 H   0  0  0  0  0  0  0  0  0  0  0  0
   -1.9530   13.9240   19.3900 H   0  0  0  0  0  0  0  0  0  0  0  0
   -1.9700   10.3460   17.8380 C   0  0  0  0  0  0  0  0  0  0  0  0
   -3.0340   11.3130   18.2500 C   0  0  0  0  0  0  0  0  0  0  0  0
   -1.6010   11.5670   18.6470 C   0  0  0  0  0  0  0  0  0  0  0  0
   -1.9580    9.3770   18.3240 H   0  0  0  0  0  0  0  0  0  0  0  0
   -1.6760   10.3230   16.7960 H   0  0  0  0  0  0  0  0  0  0  0  0
   -3.4690   11.9490   17.4880 H   0  0  0  0  0  0  0  0  0  0  0  0
   -3.7300   10.9990   19.0190 H   0  0  0  0  0  0  0  0  0  0  0  0
   -1.0640   12.3490   18.1130 H   0  0  0  0  0  0  0  0  0  0  0  0
    1.2550    8.8330   21.1820 C   0  0  0  0  0  0  0  0  0  0  0  0
    1.4450    8.2080   20.1520 O   0  0  0  0  0  0  0  0  0  0  0  0
    2.0720    8.6850   22.2390 O   0  0  0  0  0  0  0  0  0  0  0  0
    1.7730    7.8570   22.6660 H   0  0  0  0  0  0  0  0  0  0  0  0
  1  2  1  0  0  0  0
  1 12  1  0  0  0  0
  2  3  2  0  0  0  0
  3  4  1  0  0  0  0
  4  6  1  0  0  0  0
  4  5  2  0  0  0  0
  6 14  1  0  0  0  0
  7  6  1  0  0  0  0
  7  8  1  0  0  0  0
  8 15  1  0  0  0  0
  9  8  2  0  0  0  0
  9 16  1  0  0  0  0
 10  9  1  0  0  0  0
 11 12  1  0  0  0  0
 11 10  2  0  0  0  0
 12  7  2  0  0  0  0
 13  2  1  0  0  0  0
 17 10  1  0  0  0  0
 18 11  1  0  0  0  0
 19 20  1  0  0  0  0
 19 22  1  0  0  0  0
 19 21  1  0  0  0  0
 20 21  1  0  0  0  0
 20 25  1  0  0  0  0
 21  1  1  0  0  0  0
 23 19  1  0  0  0  0
 24 20  1  0  0  0  0
 26 21  1  0  0  0  0
 27  3  1  0  0  0  0
 27 29  1  0  0  0  0
 28 27  2  0  0  0  0
 29 30  1  0  0  0  0
M  END
>  <MODEL>
24

>  <REMARK>
 VINA RESULT:    -5.058      6.831      9.733
 INTER + INTRA:          -5.835
 INTER:                  -5.831
 INTRA:                  -0.004
 UNBOUND:                -0.038
  Name = 
  3 active torsions:
  status: ('A' for Active; 'I' for Inactive)
    1  A    between atoms: C_3  and  N_4
    2  A    between atoms: C_6  and  C_16
    3  A    between atoms: C_16  and  O_18
                            x       y       z     vdW  Elec       q    Type
                         _______ _______ _______ _____ _____    ______ ____

>  <TORSDO>
F 3

$$$$
=
 OpenBabel07192307433D

 30 32  0  0  0  0  0  0  0  0999 V2000
   -1.7810   12.6460   19.3460 N   0  0  0  0  0  0  0  0  0  0  0  0
   -1.8980   11.8770   18.2070 C   0  0  0  0  0  0  0  0  0  0  0  0
   -2.9470   11.4760   17.4810 C   0  0  0  0  0  0  0  0  0  0  0  0
   -4.3300   11.9030   17.7130 C   0  0  0  0  0  0  0  0  0  0  0  0
   -5.1470   11.8890   16.7870 O   0  0  0  0  0  0  0  0  0  0  0  0
   -4.7810   12.2800   18.9330 N   0  0  0  0  0  0  0  0  0  0  0  0
   -4.1510   12.5170   20.1640 C   0  0  0  0  0  0  0  0  0  0  0  0
   -5.0520   12.6450   21.2440 C   0  0  0  0  0  0  0  0  0  0  0  0
   -4.6150   12.9070   22.5380 C   0  0  0  0  0  0  0  0  0  0  0  0
   -3.2620   13.0540   22.7750 C   0  0  0  0  0  0  0  0  0  0  0  0
   -2.3600   12.9490   21.7120 C   0  0  0  0  0  0  0  0  0  0  0  0
   -2.7680   12.6870   20.3790 C   0  0  0  0  0  0  0  0  0  0  0  0
   -0.9100   11.5690   17.8600 H   0  0  0  0  0  0  0  0  0  0  0  0
   -5.7880   12.3940   18.9100 H   0  0  0  0  0  0  0  0  0  0  0  0
   -6.1240   12.5310   21.0840 H   0  0  0  0  0  0  0  0  0  0  0  0
   -5.3290   12.9920   23.3530 H   0  0  0  0  0  0  0  0  0  0  0  0
   -2.8970   13.2550   23.7790 H   0  0  0  0  0  0  0  0  0  0  0  0
   -1.3080   13.0710   21.9550 H   0  0  0  0  0  0  0  0  0  0  0  0
    0.7350   12.1440   19.8560 C   0  0  0  0  0  0  0  0  0  0  0  0
    0.7080   12.9770   18.6140 C   0  0  0  0  0  0  0  0  0  0  0  0
   -0.3970   13.1190   19.6310 C   0  0  0  0  0  0  0  0  0  0  0  0
    0.5350   11.0830   19.7530 H   0  0  0  0  0  0  0  0  0  0  0  0
    1.4650   12.3860   20.6180 H   0  0  0  0  0  0  0  0  0  0  0  0
    1.4230   13.7860   18.5270 H   0  0  0  0  0  0  0  0  0  0  0  0
    0.4810   12.4790   17.6780 H   0  0  0  0  0  0  0  0  0  0  0  0
   -0.3910   14.0100   20.2570 H   0  0  0  0  0  0  0  0  0  0  0  0
   -2.6130   10.6360   16.3160 C   0  0  0  0  0  0  0  0  0  0  0  0
   -2.1760    9.4980   16.3450 O   0  0  0  0  0  0  0  0  0  0  0  0
   -2.9310   11.2240   15.1500 O   0  0  0  0  0  0  0  0  0  0  0  0
   -2.1520   11.7740   14.9300 H   0  0  0  0  0  0  0  0  0  0  0  0
  1 21  1  0  0  0  0
  1 12  1  0  0  0  0
  2  1  1  0  0  0  0
  3  4  1  0  0  0  0
  3  2  2  0  0  0  0
  4  6  1  0  0  0  0
  5  4  2  0  0  0  0
  6  7  1  0  0  0  0
  7 12  2  0  0  0  0
  7  8  1  0  0  0  0
  8  9  2  0  0  0  0
  9 10  1  0  0  0  0
  9 16  1  0  0  0  0
 10 17  1  0  0  0  0
 11 18  1  0  0  0  0
 11 10  2  0  0  0  0
 12 11  1  0  0  0  0
 13  2  1  0  0  0  0
 14  6  1  0  0  0  0
 15  8  1  0  0  0  0
 19 23  1  0  0  0  0
 20 21  1  0  0  0  0
 20 19  1  0  0  0  0
 21 19  1  0  0  0  0
 21 26  1  0  0  0  0
 22 19  1  0  0  0  0
 24 20  1  0  0  0  0
 25 20  1  0  0  0  0
 27 28  2  0  0  0  0
 27  3  1  0  0  0  0
 29 27  1  0  0  0  0
 30 29  1  0  0  0  0
M  END
>  <MODEL>
25

>  <REMARK>
 VINA RESULT:    -5.045      8.972     10.912
 INTER + INTRA:          -5.820
 INTER:                  -5.623
 INTRA:                  -0.197
 UNBOUND:                -0.038
  Name = 
  3 active torsions:
  status: ('A' for Active; 'I' for Inactive)
    1  A    between atoms: C_3  and  N_4
    2  A    between atoms: C_6  and  C_16
    3  A    between atoms: C_16  and  O_18
                            x       y       z     vdW  Elec       q    Type
                         _______ _______ _______ _____ _____    ______ ____

>  <TORSDO>
F 3

$$$$
=
 OpenBabel07192307433D

 30 32  0  0  0  0  0  0  0  0999 V2000
   -0.9390   11.9110   20.1340 N   0  0  0  0  0  0  0  0  0  0  0  0
   -2.1810   12.4050   20.4760 C   0  0  0  0  0  0  0  0  0  0  0  0
   -2.8630   12.4410   21.6250 C   0  0  0  0  0  0  0  0  0  0  0  0
   -2.3310   12.0070   22.9210 C   0  0  0  0  0  0  0  0  0  0  0  0
   -2.7930   12.4710   23.9680 O   0  0  0  0  0  0  0  0  0  0  0  0
   -1.3650   11.0640   23.0330 N   0  0  0  0  0  0  0  0  0  0  0  0
   -0.5490   10.4030   22.1030 C   0  0  0  0  0  0  0  0  0  0  0  0
    0.1470    9.3000   22.6460 C   0  0  0  0  0  0  0  0  0  0  0  0
    1.0230    8.5360   21.8820 C   0  0  0  0  0  0  0  0  0  0  0  0
    1.2250    8.8690   20.5560 C   0  0  0  0  0  0  0  0  0  0  0  0
    0.5580    9.9700   20.0110 C   0  0  0  0  0  0  0  0  0  0  0  0
   -0.3390   10.7750   20.7590 C   0  0  0  0  0  0  0  0  0  0  0  0
   -2.6560   12.8600   19.6050 H   0  0  0  0  0  0  0  0  0  0  0  0
   -1.2460   10.8050   24.0060 H   0  0  0  0  0  0  0  0  0  0  0  0
    0.0030    9.0160   23.6870 H   0  0  0  0  0  0  0  0  0  0  0  0
    1.5390    7.6870   22.3220 H   0  0  0  0  0  0  0  0  0  0  0  0
    1.9020    8.2840   19.9380 H   0  0  0  0  0  0  0  0  0  0  0  0
    0.7530   10.1850   18.9630 H   0  0  0  0  0  0  0  0  0  0  0  0
   -0.2680   13.8480   18.5100 C   0  0  0  0  0  0  0  0  0  0  0  0
    0.9420   12.9820   18.6650 C   0  0  0  0  0  0  0  0  0  0  0  0
   -0.4330   12.3770   18.8120 C   0  0  0  0  0  0  0  0  0  0  0  0
   -0.4750   14.5660   19.2950 H   0  0  0  0  0  0  0  0  0  0  0  0
   -0.5270   14.1910   17.5160 H   0  0  0  0  0  0  0  0  0  0  0  0
    1.5100   12.7360   17.7760 H   0  0  0  0  0  0  0  0  0  0  0  0
    1.5420   13.1110   19.5570 H   0  0  0  0  0  0  0  0  0  0  0  0
   -0.7990   11.7600   17.9940 H   0  0  0  0  0  0  0  0  0  0  0  0
   -4.1930   13.0710   21.5400 C   0  0  0  0  0  0  0  0  0  0  0  0
   -4.4770   14.0840   20.9240 O   0  0  0  0  0  0  0  0  0  0  0  0
   -5.1450   12.3470   22.1540 O   0  0  0  0  0  0  0  0  0  0  0  0
   -4.6510   11.7170   22.7160 H   0  0  0  0  0  0  0  0  0  0  0  0
  1  2  1  0  0  0  0
  1 12  1  0  0  0  0
  2  3  2  0  0  0  0
  3  4  1  0  0  0  0
  4  6  1  0  0  0  0
  4  5  2  0  0  0  0
  6 14  1  0  0  0  0
  7  8  1  0  0  0  0
  7  6  1  0  0  0  0
  8 15  1  0  0  0  0
  9 16  1  0  0  0  0
  9  8  2  0  0  0  0
 10  9  1  0  0  0  0
 11 10  2  0  0  0  0
 11 12  1  0  0  0  0
 12  7  2  0  0  0  0
 13  2  1  0  0  0  0
 17 10  1  0  0  0  0
 18 11  1  0  0  0  0
 19 20  1  0  0  0  0
 19 21  1  0  0  0  0
 19 22  1  0  0  0  0
 20 21  1  0  0  0  0
 20 25  1  0  0  0  0
 21  1  1  0  0  0  0
 23 19  1  0  0  0  0
 24 20  1  0  0  0  0
 26 21  1  0  0  0  0
 27  3  1  0  0  0  0
 27 29  1  0  0  0  0
 28 27  2  0  0  0  0
 29 30  1  0  0  0  0
M  END
>  <MODEL>
26

>  <REMARK>
 VINA RESULT:    -4.979      8.279     10.333
 INTER + INTRA:          -5.744
 INTER:                  -5.716
 INTRA:                  -0.029
 UNBOUND:                -0.038
  Name = 
  3 active torsions:
  status: ('A' for Active; 'I' for Inactive)
    1  A    between atoms: C_3  and  N_4
    2  A    between atoms: C_6  and  C_16
    3  A    between atoms: C_16  and  O_18
                            x       y       z     vdW  Elec       q    Type
                         _______ _______ _______ _____ _____    ______ ____

>  <TORSDO>
F 3

$$$$
=
 OpenBabel07192307433D

 30 32  0  0  0  0  0  0  0  0999 V2000
   -0.3020   10.6460   18.5070 N   0  0  0  0  0  0  0  0  0  0  0  0
    0.3760   11.7030   19.0790 C   0  0  0  0  0  0  0  0  0  0  0  0
   -0.0270   12.8020   19.7240 C   0  0  0  0  0  0  0  0  0  0  0  0
   -1.4180   13.0910   20.0870 C   0  0  0  0  0  0  0  0  0  0  0  0
   -1.6690   13.8360   21.0390 O   0  0  0  0  0  0  0  0  0  0  0  0
   -2.4700   12.6060   19.3840 N   0  0  0  0  0  0  0  0  0  0  0  0
   -2.5860   11.6770   18.3400 C   0  0  0  0  0  0  0  0  0  0  0  0
   -3.8610   11.6650   17.7330 C   0  0  0  0  0  0  0  0  0  0  0  0
   -4.1740   10.7930   16.6950 C   0  0  0  0  0  0  0  0  0  0  0  0
   -3.2130    9.9060   16.2500 C   0  0  0  0  0  0  0  0  0  0  0  0
   -1.9520    9.8930   16.8540 C   0  0  0  0  0  0  0  0  0  0  0  0
   -1.5980   10.7640   17.9160 C   0  0  0  0  0  0  0  0  0  0  0  0
    1.4520   11.5600   18.9680 H   0  0  0  0  0  0  0  0  0  0  0  0
   -3.3280   13.0380   19.7050 H   0  0  0  0  0  0  0  0  0  0  0  0
   -4.6350   12.3560   18.0650 H   0  0  0  0  0  0  0  0  0  0  0  0
   -5.1600   10.8120   16.2410 H   0  0  0  0  0  0  0  0  0  0  0  0
   -3.4340    9.2180   15.4370 H   0  0  0  0  0  0  0  0  0  0  0  0
   -1.2340    9.1770   16.4620 H   0  0  0  0  0  0  0  0  0  0  0  0
    2.0180    9.6310   17.8560 C   0  0  0  0  0  0  0  0  0  0  0  0
    1.6090    8.9770   19.1380 C   0  0  0  0  0  0  0  0  0  0  0  0
    0.5510    9.4700   18.1810 C   0  0  0  0  0  0  0  0  0  0  0  0
    2.4580   10.6200   17.9160 H   0  0  0  0  0  0  0  0  0  0  0  0
    2.4330    9.0080   17.0740 H   0  0  0  0  0  0  0  0  0  0  0  0
    1.7480    7.9060   19.2300 H   0  0  0  0  0  0  0  0  0  0  0  0
    1.7650    9.5280   20.0570 H   0  0  0  0  0  0  0  0  0  0  0  0
    0.0130    8.7230   17.6000 H   0  0  0  0  0  0  0  0  0  0  0  0
    1.0590   13.6930   20.1720 C   0  0  0  0  0  0  0  0  0  0  0  0
    2.1550   13.3510   20.5830 O   0  0  0  0  0  0  0  0  0  0  0  0
    0.7640   14.9930   19.9950 O   0  0  0  0  0  0  0  0  0  0  0  0
   -0.1880   15.0610   20.2120 H   0  0  0  0  0  0  0  0  0  0  0  0
  1  2  1  0  0  0  0
  2  3  2  0  0  0  0
  3  4  1  0  0  0  0
  3 27  1  0  0  0  0
  4  5  2  0  0  0  0
  6 14  1  0  0  0  0
  6  4  1  0  0  0  0
  7  6  1  0  0  0  0
  8 15  1  0  0  0  0
  8  7  2  0  0  0  0
  9  8  1  0  0  0  0
 10  9  2  0  0  0  0
 10 11  1  0  0  0  0
 11 12  2  0  0  0  0
 12  7  1  0  0  0  0
 12  1  1  0  0  0  0
 13  2  1  0  0  0  0
 16  9  1  0  0  0  0
 17 10  1  0  0  0  0
 18 11  1  0  0  0  0
 19 22  1  0  0  0  0
 19 21  1  0  0  0  0
 19 20  1  0  0  0  0
 20 24  1  0  0  0  0
 20 25  1  0  0  0  0
 21  1  1  0  0  0  0
 21 20  1  0  0  0  0
 23 19  1  0  0  0  0
 26 21  1  0  0  0  0
 27 28  2  0  0  0  0
 29 27  1  0  0  0  0
 29 30  1  0  0  0  0
M  END
>  <MODEL>
27

>  <REMARK>
 VINA RESULT:    -4.942      6.830      9.290
 INTER + INTRA:          -5.702
 INTER:                  -5.719
 INTRA:                   0.017
 UNBOUND:                -0.038
  Name = 
  3 active torsions:
  status: ('A' for Active; 'I' for Inactive)
    1  A    between atoms: C_3  and  N_4
    2  A    between atoms: C_6  and  C_16
    3  A    between atoms: C_16  and  O_18
                            x       y       z     vdW  Elec       q    Type
                         _______ _______ _______ _____ _____    ______ ____

>  <TORSDO>
F 3

$$$$
=
 OpenBabel07192307433D

 30 32  0  0  0  0  0  0  0  0999 V2000
   -0.5730   11.0800   20.8950 N   0  0  0  0  0  0  0  0  0  0  0  0
   -0.4620   12.2210   21.6640 C   0  0  0  0  0  0  0  0  0  0  0  0
   -1.2160   13.3190   21.7800 C   0  0  0  0  0  0  0  0  0  0  0  0
   -2.5100   13.5130   21.1190 C   0  0  0  0  0  0  0  0  0  0  0  0
   -3.3420   14.2880   21.5990 O   0  0  0  0  0  0  0  0  0  0  0  0
   -2.8300   12.9030   19.9520 N   0  0  0  0  0  0  0  0  0  0  0  0
   -2.2110   11.9080   19.1810 C   0  0  0  0  0  0  0  0  0  0  0  0
   -2.7750   11.7570   17.8950 C   0  0  0  0  0  0  0  0  0  0  0  0
   -2.3090   10.8040   16.9960 C   0  0  0  0  0  0  0  0  0  0  0  0
   -1.2700    9.9740   17.3730 C   0  0  0  0  0  0  0  0  0  0  0  0
   -0.7150   10.1000   18.6500 C   0  0  0  0  0  0  0  0  0  0  0  0
   -1.1660   11.0570   19.5950 C   0  0  0  0  0  0  0  0  0  0  0  0
    0.4260   12.1610   22.2960 H   0  0  0  0  0  0  0  0  0  0  0  0
   -3.6990   13.2810   19.5920 H   0  0  0  0  0  0  0  0  0  0  0  0
   -3.5930   12.4000   17.5730 H   0  0  0  0  0  0  0  0  0  0  0  0
   -2.7550   10.7140   16.0090 H   0  0  0  0  0  0  0  0  0  0  0  0
   -0.8870    9.2240   16.6850 H   0  0  0  0  0  0  0  0  0  0  0  0
    0.1010    9.4230   18.8930 H   0  0  0  0  0  0  0  0  0  0  0  0
    0.3030    9.4510   22.7430 C   0  0  0  0  0  0  0  0  0  0  0  0
   -0.2440    8.5960   21.6440 C   0  0  0  0  0  0  0  0  0  0  0  0
    0.3130    9.9610   21.3210 C   0  0  0  0  0  0  0  0  0  0  0  0
   -0.4050    9.8790   23.4440 H   0  0  0  0  0  0  0  0  0  0  0  0
    1.2510    9.1700   23.1860 H   0  0  0  0  0  0  0  0  0  0  0  0
    0.3300    7.7300   21.3380 H   0  0  0  0  0  0  0  0  0  0  0  0
   -1.3180    8.4580   21.6000 H   0  0  0  0  0  0  0  0  0  0  0  0
    1.2860   10.0040   20.8370 H   0  0  0  0  0  0  0  0  0  0  0  0
   -0.7120   14.3200   22.7370 C   0  0  0  0  0  0  0  0  0  0  0  0
    0.1380   15.1670   22.5200 O   0  0  0  0  0  0  0  0  0  0  0  0
   -1.3670   14.2850   23.9110 O   0  0  0  0  0  0  0  0  0  0  0  0
   -1.6640   13.3570   24.0000 H   0  0  0  0  0  0  0  0  0  0  0  0
  1 21  1  0  0  0  0
  1  2  1  0  0  0  0
  2  3  2  0  0  0  0
  2 13  1  0  0  0  0
  3 27  1  0  0  0  0
  4  5  2  0  0  0  0
  4  3  1  0  0  0  0
  6  4  1  0  0  0  0
  7 12  1  0  0  0  0
  7  6  1  0  0  0  0
  8  7  2  0  0  0  0
  9 10  2  0  0  0  0
  9  8  1  0  0  0  0
 10 11  1  0  0  0  0
 11 18  1  0  0  0  0
 11 12  2  0  0  0  0
 12  1  1  0  0  0  0
 14  6  1  0  0  0  0
 15  8  1  0  0  0  0
 16  9  1  0  0  0  0
 17 10  1  0  0  0  0
 19 23  1  0  0  0  0
 19 22  1  0  0  0  0
 20 19  1  0  0  0  0
 21 20  1  0  0  0  0
 21 19  1  0  0  0  0
 24 20  1  0  0  0  0
 25 20  1  0  0  0  0
 26 21  1  0  0  0  0
 27 29  1  0  0  0  0
 28 27  2  0  0  0  0
 29 30  1  0  0  0  0
M  END
>  <MODEL>
28

>  <REMARK>
 VINA RESULT:    -4.908      8.495     10.289
 INTER + INTRA:          -5.663
 INTER:                  -5.631
 INTRA:                  -0.032
 UNBOUND:                -0.038
  Name = 
  3 active torsions:
  status: ('A' for Active; 'I' for Inactive)
    1  A    between atoms: C_3  and  N_4
    2  A    between atoms: C_6  and  C_16
    3  A    between atoms: C_16  and  O_18
                            x       y       z     vdW  Elec       q    Type
                         _______ _______ _______ _____ _____    ______ ____

>  <TORSDO>
F 3

$$$$
=
 OpenBabel07192307433D

 30 32  0  0  0  0  0  0  0  0999 V2000
   -1.5460   12.5630   20.4750 N   0  0  0  0  0  0  0  0  0  0  0  0
   -2.6000   12.2510   19.6420 C   0  0  0  0  0  0  0  0  0  0  0  0
   -2.6840   11.5770   18.4900 C   0  0  0  0  0  0  0  0  0  0  0  0
   -1.5680   10.8640   17.8620 C   0  0  0  0  0  0  0  0  0  0  0  0
   -1.7870    9.9180   17.0990 O   0  0  0  0  0  0  0  0  0  0  0  0
   -0.2760   11.2290   18.0430 N   0  0  0  0  0  0  0  0  0  0  0  0
    0.3560   12.1530   18.8880 C   0  0  0  0  0  0  0  0  0  0  0  0
    1.7090   12.3880   18.5570 C   0  0  0  0  0  0  0  0  0  0  0  0
    2.5060   13.2560   19.2950 C   0  0  0  0  0  0  0  0  0  0  0  0
    1.9630   13.9020   20.3900 C   0  0  0  0  0  0  0  0  0  0  0  0
    0.6310   13.6640   20.7400 C   0  0  0  0  0  0  0  0  0  0  0  0
   -0.2110   12.7840   20.0140 C   0  0  0  0  0  0  0  0  0  0  0  0
   -3.5320   12.6440   20.0540 H   0  0  0  0  0  0  0  0  0  0  0  0
    0.3220   10.7080   17.4120 H   0  0  0  0  0  0  0  0  0  0  0  0
    2.1590   11.8930   17.6980 H   0  0  0  0  0  0  0  0  0  0  0  0
    3.5420   13.4250   19.0140 H   0  0  0  0  0  0  0  0  0  0  0  0
    2.5660   14.5880   20.9800 H   0  0  0  0  0  0  0  0  0  0  0  0
    0.2550   14.2000   21.6090 H   0  0  0  0  0  0  0  0  0  0  0  0
   -2.8680   12.2380   22.7080 C   0  0  0  0  0  0  0  0  0  0  0  0
   -1.4290   12.4000   23.0820 C   0  0  0  0  0  0  0  0  0  0  0  0
   -1.9500   13.0490   21.8240 C   0  0  0  0  0  0  0  0  0  0  0  0
   -3.1900   11.2610   22.3650 H   0  0  0  0  0  0  0  0  0  0  0  0
   -3.6110   12.7710   23.2890 H   0  0  0  0  0  0  0  0  0  0  0  0
   -1.1900   13.0420   23.9220 H   0  0  0  0  0  0  0  0  0  0  0  0
   -0.7820   11.5360   22.9830 H   0  0  0  0  0  0  0  0  0  0  0  0
   -2.1010   14.1270   21.8410 H   0  0  0  0  0  0  0  0  0  0  0  0
   -4.0400   11.4870   17.9200 C   0  0  0  0  0  0  0  0  0  0  0  0
   -5.0530   11.1420   18.5060 O   0  0  0  0  0  0  0  0  0  0  0  0
   -4.0950   11.9290   16.6510 O   0  0  0  0  0  0  0  0  0  0  0  0
   -3.7620   11.1810   16.1150 H   0  0  0  0  0  0  0  0  0  0  0  0
  1 21  1  0  0  0  0
  2 13  1  0  0  0  0
  2  1  1  0  0  0  0
  3  2  2  0  0  0  0
  4  6  1  0  0  0  0
  4  3  1  0  0  0  0
  5  4  2  0  0  0  0
  6  7  1  0  0  0  0
  7 12  1  0  0  0  0
  8  7  2  0  0  0  0
  8  9  1  0  0  0  0
  9 10  2  0  0  0  0
 10 11  1  0  0  0  0
 10 17  1  0  0  0  0
 11 18  1  0  0  0  0
 12  1  1  0  0  0  0
 12 11  2  0  0  0  0
 14  6  1  0  0  0  0
 15  8  1  0  0  0  0
 16  9  1  0  0  0  0
 19 20  1  0  0  0  0
 19 23  1  0  0  0  0
 20 24  1  0  0  0  0
 21 26  1  0  0  0  0
 21 19  1  0  0  0  0
 21 20  1  0  0  0  0
 22 19  1  0  0  0  0
 25 20  1  0  0  0  0
 27  3  1  0  0  0  0
 27 28  2  0  0  0  0
 29 27  1  0  0  0  0
 30 29  1  0  0  0  0
M  END
>  <MODEL>
29

>  <REMARK>
 VINA RESULT:    -4.877      8.355     10.290
 INTER + INTRA:          -5.628
 INTER:                  -5.606
 INTRA:                  -0.022
 UNBOUND:                -0.038
  Name = 
  3 active torsions:
  status: ('A' for Active; 'I' for Inactive)
    1  A    between atoms: C_3  and  N_4
    2  A    between atoms: C_6  and  C_16
    3  A    between atoms: C_16  and  O_18
                            x       y       z     vdW  Elec       q    Type
                         _______ _______ _______ _____ _____    ______ ____

>  <TORSDO>
F 3

$$$$
=
 OpenBabel07192307433D

 30 32  0  0  0  0  0  0  0  0999 V2000
    0.2170   11.3200   21.3670 N   0  0  0  0  0  0  0  0  0  0  0  0
    0.8830   11.3410   20.1590 C   0  0  0  0  0  0  0  0  0  0  0  0
    1.6590   12.2510   19.5610 C   0  0  0  0  0  0  0  0  0  0  0  0
    2.0920   13.5080   20.1770 C   0  0  0  0  0  0  0  0  0  0  0  0
    3.1280   14.0610   19.7970 O   0  0  0  0  0  0  0  0  0  0  0  0
    1.3710   14.1350   21.1380 N   0  0  0  0  0  0  0  0  0  0  0  0
    0.2340   13.7780   21.8780 C   0  0  0  0  0  0  0  0  0  0  0  0
   -0.3310   14.8540   22.5970 C   0  0  0  0  0  0  0  0  0  0  0  0
   -1.4500   14.6890   23.4080 C   0  0  0  0  0  0  0  0  0  0  0  0
   -2.0200   13.4350   23.5200 C   0  0  0  0  0  0  0  0  0  0  0  0
   -1.4590   12.3570   22.8280 C   0  0  0  0  0  0  0  0  0  0  0  0
   -0.3180   12.4860   21.9960 C   0  0  0  0  0  0  0  0  0  0  0  0
    0.7250   10.4000   19.6290 H   0  0  0  0  0  0  0  0  0  0  0  0
    1.7640   15.0510   21.3220 H   0  0  0  0  0  0  0  0  0  0  0  0
    0.0980   15.8520   22.5240 H   0  0  0  0  0  0  0  0  0  0  0  0
   -1.8700   15.5350   23.9430 H   0  0  0  0  0  0  0  0  0  0  0  0
   -2.8970   13.2830   24.1440 H   0  0  0  0  0  0  0  0  0  0  0  0
   -1.9490   11.3950   22.9510 H   0  0  0  0  0  0  0  0  0  0  0  0
    0.6880    8.8040   21.9030 C   0  0  0  0  0  0  0  0  0  0  0  0
    0.0830    9.3980   23.1360 C   0  0  0  0  0  0  0  0  0  0  0  0
   -0.2620    9.9730   21.7840 C   0  0  0  0  0  0  0  0  0  0  0  0
    1.7450    8.9740   21.7310 H   0  0  0  0  0  0  0  0  0  0  0  0
    0.3360    7.8320   21.5780 H   0  0  0  0  0  0  0  0  0  0  0  0
   -0.6790    8.8290   23.6540 H   0  0  0  0  0  0  0  0  0  0  0  0
    0.7300    9.9740   23.7870 H   0  0  0  0  0  0  0  0  0  0  0  0
   -1.2480    9.7470   21.3800 H   0  0  0  0  0  0  0  0  0  0  0  0
    2.1700   11.8560   18.2350 C   0  0  0  0  0  0  0  0  0  0  0  0
    2.3660   10.7190   17.8430 O   0  0  0  0  0  0  0  0  0  0  0  0
    2.3260   12.9070   17.4110 O   0  0  0  0  0  0  0  0  0  0  0  0
    1.8830   13.6480   17.8710 H   0  0  0  0  0  0  0  0  0  0  0  0
  1 21  1  0  0  0  0
  1 12  1  0  0  0  0
  2  1  1  0  0  0  0
  3  2  2  0  0  0  0
  3  4  1  0  0  0  0
  4  6  1  0  0  0  0
  5  4  2  0  0  0  0
  6 14  1  0  0  0  0
  6  7  1  0  0  0  0
  7 12  2  0  0  0  0
  7  8  1  0  0  0  0
  8  9  2  0  0  0  0
  9 10  1  0  0  0  0
  9 16  1  0  0  0  0
 10 17  1  0  0  0  0
 11 18  1  0  0  0  0
 11 10  2  0  0  0  0
 12 11  1  0  0  0  0
 13  2  1  0  0  0  0
 15  8  1  0  0  0  0
 19 20  1  0  0  0  0
 20 24  1  0  0  0  0
 20 25  1  0  0  0  0
 21 19  1  0  0  0  0
 21 20  1  0  0  0  0
 22 19  1  0  0  0  0
 23 19  1  0  0  0  0
 26 21  1  0  0  0  0
 27  3  1  0  0  0  0
 28 27  2  0  0  0  0
 29 30  1  0  0  0  0
 29 27  1  0  0  0  0
M  END
>  <MODEL>
30

>  <REMARK>
 VINA RESULT:    -4.860      7.029      9.637
 INTER + INTRA:          -5.608
 INTER:                  -5.594
 INTRA:                  -0.014
 UNBOUND:                -0.038
  Name = 
  3 active torsions:
  status: ('A' for Active; 'I' for Inactive)
    1  A    between atoms: C_3  and  N_4
    2  A    between atoms: C_6  and  C_16
    3  A    between atoms: C_16  and  O_18
                            x       y       z     vdW  Elec       q    Type
                         _______ _______ _______ _____ _____    ______ ____

>  <TORSDO>
F 3

$$$$
=
 OpenBabel07192307433D

 30 32  0  0  0  0  0  0  0  0999 V2000
   -2.3760   10.7930   18.3690 N   0  0  0  0  0  0  0  0  0  0  0  0
   -1.0270   10.6630   18.1090 C   0  0  0  0  0  0  0  0  0  0  0  0
    0.0650   10.8020   18.8670 C   0  0  0  0  0  0  0  0  0  0  0  0
    0.0480   11.0480   20.3130 C   0  0  0  0  0  0  0  0  0  0  0  0
    1.0110   10.7160   21.0100 O   0  0  0  0  0  0  0  0  0  0  0  0
   -0.9780   11.6790   20.9320 N   0  0  0  0  0  0  0  0  0  0  0  0
   -2.2490   12.0980   20.5100 C   0  0  0  0  0  0  0  0  0  0  0  0
   -2.8960   12.9510   21.4310 C   0  0  0  0  0  0  0  0  0  0  0  0
   -4.1740   13.4500   21.1970 C   0  0  0  0  0  0  0  0  0  0  0  0
   -4.8330   13.0950   20.0360 C   0  0  0  0  0  0  0  0  0  0  0  0
   -4.2110   12.2360   19.1250 C   0  0  0  0  0  0  0  0  0  0  0  0
   -2.9120   11.7040   19.3300 C   0  0  0  0  0  0  0  0  0  0  0  0
   -0.8730   10.3740   17.0680 H   0  0  0  0  0  0  0  0  0  0  0  0
   -0.7310   11.8780   21.8950 H   0  0  0  0  0  0  0  0  0  0  0  0
   -2.3970   13.2480   22.3520 H   0  0  0  0  0  0  0  0  0  0  0  0
   -4.6450   14.1120   21.9180 H   0  0  0  0  0  0  0  0  0  0  0  0
   -5.8300   13.4760   19.8300 H   0  0  0  0  0  0  0  0  0  0  0  0
   -4.7740   11.9910   18.2270 H   0  0  0  0  0  0  0  0  0  0  0  0
   -3.5120   10.9590   16.0190 C   0  0  0  0  0  0  0  0  0  0  0  0
   -2.7070    9.6980   16.0170 C   0  0  0  0  0  0  0  0  0  0  0  0
   -3.2640   10.2250   17.3160 C   0  0  0  0  0  0  0  0  0  0  0  0
   -2.9860   11.8900   15.8400 H   0  0  0  0  0  0  0  0  0  0  0  0
   -4.5120   10.9280   15.6040 H   0  0  0  0  0  0  0  0  0  0  0  0
   -3.1570    8.8060   15.5980 H   0  0  0  0  0  0  0  0  0  0  0  0
   -1.6400    9.7820   15.8460 H   0  0  0  0  0  0  0  0  0  0  0  0
   -4.1210    9.7060   17.7420 H   0  0  0  0  0  0  0  0  0  0  0  0
    1.3420   10.5740   18.1660 C   0  0  0  0  0  0  0  0  0  0  0  0
    1.7060    9.5340   17.6430 O   0  0  0  0  0  0  0  0  0  0  0  0
    2.0790   11.6930   18.0620 O   0  0  0  0  0  0  0  0  0  0  0  0
    1.6490   12.2060   17.3480 H   0  0  0  0  0  0  0  0  0  0  0  0
  1 12  1  0  0  0  0
  2  1  1  0  0  0  0
  2  3  2  0  0  0  0
  3  4  1  0  0  0  0
  4  6  1  0  0  0  0
  4  5  2  0  0  0  0
  6 14  1  0  0  0  0
  7  6  1  0  0  0  0
  7  8  1  0  0  0  0
  8 15  1  0  0  0  0
  9  8  2  0  0  0  0
  9 16  1  0  0  0  0
 10  9  1  0  0  0  0
 11 12  1  0  0  0  0
 11 10  2  0  0  0  0
 12  7  2  0  0  0  0
 13  2  1  0  0  0  0
 17 10  1  0  0  0  0
 18 11  1  0  0  0  0
 19 21  1  0  0  0  0
 20 19  1  0  0  0  0
 20 21  1  0  0  0  0
 21 26  1  0  0  0  0
 21  1  1  0  0  0  0
 22 19  1  0  0  0  0
 23 19  1  0  0  0  0
 24 20  1  0  0  0  0
 25 20  1  0  0  0  0
 27  3  1  0  0  0  0
 28 27  2  0  0  0  0
 29 27  1  0  0  0  0
 30 29  1  0  0  0  0
M  END
>  <MODEL>
31

>  <REMARK>
 VINA RESULT:    -4.817      7.057      9.383
 INTER + INTRA:          -5.559
 INTER:                  -5.477
 INTRA:                  -0.082
 UNBOUND:                -0.038
  Name = 
  3 active torsions:
  status: ('A' for Active; 'I' for Inactive)
    1  A    between atoms: C_3  and  N_4
    2  A    between atoms: C_6  and  C_16
    3  A    between atoms: C_16  and  O_18
                            x       y       z     vdW  Elec       q    Type
                         _______ _______ _______ _____ _____    ______ ____

>  <TORSDO>
F 3

$$$$
=
 OpenBabel07192307433D

 30 32  0  0  0  0  0  0  0  0999 V2000
   -0.2140   12.1640   19.5710 N   0  0  0  0  0  0  0  0  0  0  0  0
   -0.6890   11.6400   20.7550 C   0  0  0  0  0  0  0  0  0  0  0  0
   -0.7640   12.1200   22.0000 C   0  0  0  0  0  0  0  0  0  0  0  0
   -0.4120   13.4900   22.3850 C   0  0  0  0  0  0  0  0  0  0  0  0
   -0.9150   14.0010   23.3900 O   0  0  0  0  0  0  0  0  0  0  0  0
    0.4970   14.2280   21.7030 N   0  0  0  0  0  0  0  0  0  0  0  0
    1.1800   14.0380   20.4930 C   0  0  0  0  0  0  0  0  0  0  0  0
    2.2340   14.9560   20.2900 C   0  0  0  0  0  0  0  0  0  0  0  0
    3.0110   14.9400   19.1360 C   0  0  0  0  0  0  0  0  0  0  0  0
    2.7400   14.0050   18.1560 C   0  0  0  0  0  0  0  0  0  0  0  0
    1.6880   13.1020   18.3350 C   0  0  0  0  0  0  0  0  0  0  0  0
    0.8720   13.0910   19.4950 C   0  0  0  0  0  0  0  0  0  0  0  0
   -1.0860   10.6360   20.5870 H   0  0  0  0  0  0  0  0  0  0  0  0
    0.7030   15.0800   22.2120 H   0  0  0  0  0  0  0  0  0  0  0  0
    2.4690   15.7020   21.0480 H   0  0  0  0  0  0  0  0  0  0  0  0
    3.8220   15.6520   19.0090 H   0  0  0  0  0  0  0  0  0  0  0  0
    3.3370   13.9700   17.2470 H   0  0  0  0  0  0  0  0  0  0  0  0
    1.5210   12.3870   17.5330 H   0  0  0  0  0  0  0  0  0  0  0  0
   -0.2160    9.9720   18.1440 C   0  0  0  0  0  0  0  0  0  0  0  0
   -1.6480   10.3040   18.4210 C   0  0  0  0  0  0  0  0  0  0  0  0
   -0.6260   11.4120   18.3530 C   0  0  0  0  0  0  0  0  0  0  0  0
    0.3440    9.4730   18.9270 H   0  0  0  0  0  0  0  0  0  0  0  0
    0.0530    9.6640   17.1410 H   0  0  0  0  0  0  0  0  0  0  0  0
   -2.3580   10.2190   17.6070 H   0  0  0  0  0  0  0  0  0  0  0  0
   -2.0480   10.0360   19.3920 H   0  0  0  0  0  0  0  0  0  0  0  0
   -0.6270   12.0410   17.4650 H   0  0  0  0  0  0  0  0  0  0  0  0
   -1.3510   11.1970   22.9880 C   0  0  0  0  0  0  0  0  0  0  0  0
   -0.8380   10.1790   23.4240 O   0  0  0  0  0  0  0  0  0  0  0  0
   -2.5260   11.6380   23.4700 O   0  0  0  0  0  0  0  0  0  0  0  0
   -2.9300   12.1260   22.7240 H   0  0  0  0  0  0  0  0  0  0  0  0
  1  2  1  0  0  0  0
  2  3  2  0  0  0  0
  3  4  1  0  0  0  0
  3 27  1  0  0  0  0
  4  5  2  0  0  0  0
  6 14  1  0  0  0  0
  6  4  1  0  0  0  0
  7  6  1  0  0  0  0
  8  7  1  0  0  0  0
  8 15  1  0  0  0  0
  9  8  2  0  0  0  0
 10 11  2  0  0  0  0
 10  9  1  0  0  0  0
 11 12  1  0  0  0  0
 12  1  1  0  0  0  0
 12  7  2  0  0  0  0
 13  2  1  0  0  0  0
 16  9  1  0  0  0  0
 17 10  1  0  0  0  0
 18 11  1  0  0  0  0
 19 21  1  0  0  0  0
 19 20  1  0  0  0  0
 19 22  1  0  0  0  0
 20 25  1  0  0  0  0
 21 20  1  0  0  0  0
 21  1  1  0  0  0  0
 23 19  1  0  0  0  0
 24 20  1  0  0  0  0
 26 21  1  0  0  0  0
 27 28  2  0  0  0  0
 27 29  1  0  0  0  0
 30 29  1  0  0  0  0
M  END
>  <MODEL>
32

>  <REMARK>
 VINA RESULT:    -4.768      8.084     10.568
 INTER + INTRA:          -5.503
 INTER:                  -5.297
 INTRA:                  -0.206
 UNBOUND:                -0.038
  Name = 
  3 active torsions:
  status: ('A' for Active; 'I' for Inactive)
    1  A    between atoms: C_3  and  N_4
    2  A    between atoms: C_6  and  C_16
    3  A    between atoms: C_16  and  O_18
                            x       y       z     vdW  Elec       q    Type
                         _______ _______ _______ _____ _____    ______ ____

>  <TORSDO>
F 3

$$$$
=
 OpenBabel07192307433D

 30 32  0  0  0  0  0  0  0  0999 V2000
   -2.4150   11.1520   18.0890 N   0  0  0  0  0  0  0  0  0  0  0  0
   -3.2510   11.8010   18.9740 C   0  0  0  0  0  0  0  0  0  0  0  0
   -3.0430   12.7370   19.9060 C   0  0  0  0  0  0  0  0  0  0  0  0
   -1.7630   13.4140   20.1330 C   0  0  0  0  0  0  0  0  0  0  0  0
   -1.7360   14.5360   20.6470 O   0  0  0  0  0  0  0  0  0  0  0  0
   -0.5720   12.8360   19.8430 N   0  0  0  0  0  0  0  0  0  0  0  0
   -0.2090   11.6560   19.1770 C   0  0  0  0  0  0  0  0  0  0  0  0
    1.1540   11.3180   19.3300 C   0  0  0  0  0  0  0  0  0  0  0  0
    1.7050   10.1940   18.7240 C   0  0  0  0  0  0  0  0  0  0  0  0
    0.8990    9.3890   17.9420 C   0  0  0  0  0  0  0  0  0  0  0  0
   -0.4470    9.7220   17.7660 C   0  0  0  0  0  0  0  0  0  0  0  0
   -1.0430   10.8610   18.3650 C   0  0  0  0  0  0  0  0  0  0  0  0
   -4.2780   11.4570   18.8390 H   0  0  0  0  0  0  0  0  0  0  0  0
    0.1850   13.4030   20.2070 H   0  0  0  0  0  0  0  0  0  0  0  0
    1.8090   11.9350   19.9430 H   0  0  0  0  0  0  0  0  0  0  0  0
    2.7550    9.9520   18.8650 H   0  0  0  0  0  0  0  0  0  0  0  0
    1.3070    8.5020   17.4610 H   0  0  0  0  0  0  0  0  0  0  0  0
   -1.0350    9.0520   17.1430 H   0  0  0  0  0  0  0  0  0  0  0  0
   -4.1740   11.0930   16.1550 C   0  0  0  0  0  0  0  0  0  0  0  0
   -2.8570   10.7270   15.5470 C   0  0  0  0  0  0  0  0  0  0  0  0
   -3.1190   10.4190   17.0010 C   0  0  0  0  0  0  0  0  0  0  0  0
   -4.3750   12.1460   16.3190 H   0  0  0  0  0  0  0  0  0  0  0  0
   -5.0450   10.5130   15.8760 H   0  0  0  0  0  0  0  0  0  0  0  0
   -2.8310    9.8980   14.8500 H   0  0  0  0  0  0  0  0  0  0  0  0
   -2.1710   11.5310   15.3100 H   0  0  0  0  0  0  0  0  0  0  0  0
   -3.3120    9.3810   17.2660 H   0  0  0  0  0  0  0  0  0  0  0  0
   -4.2460   13.1520   20.6490 C   0  0  0  0  0  0  0  0  0  0  0  0
   -4.7650   12.5590   21.5800 O   0  0  0  0  0  0  0  0  0  0  0  0
   -4.7030   14.3550   20.2580 O   0  0  0  0  0  0  0  0  0  0  0  0
   -5.6760   14.2840   20.3310 H   0  0  0  0  0  0  0  0  0  0  0  0
  1 12  1  0  0  0  0
  1  2  1  0  0  0  0
  2  3  2  0  0  0  0
  3  4  1  0  0  0  0
  3 27  1  0  0  0  0
  4  5  2  0  0  0  0
  6  4  1  0  0  0  0
  6 14  1  0  0  0  0
  7  8  1  0  0  0  0
  7  6  1  0  0  0  0
  8 15  1  0  0  0  0
  9 16  1  0  0  0  0
  9  8  2  0  0  0  0
 10  9  1  0  0  0  0
 11 10  2  0  0  0  0
 11 12  1  0  0  0  0
 12  7  2  0  0  0  0
 13  2  1  0  0  0  0
 17 10  1  0  0  0  0
 18 11  1  0  0  0  0
 19 22  1  0  0  0  0
 19 21  1  0  0  0  0
 20 19  1  0  0  0  0
 20 21  1  0  0  0  0
 21 26  1  0  0  0  0
 21  1  1  0  0  0  0
 23 19  1  0  0  0  0
 24 20  1  0  0  0  0
 25 20  1  0  0  0  0
 27 28  2  0  0  0  0
 29 30  1  0  0  0  0
 29 27  1  0  0  0  0
M  END
>  <MODEL>
33

>  <REMARK>
 VINA RESULT:    -4.752      8.002     10.353
 INTER + INTRA:          -5.484
 INTER:                  -5.446
 INTRA:                  -0.038
 UNBOUND:                -0.038
  Name = 
  3 active torsions:
  status: ('A' for Active; 'I' for Inactive)
    1  A    between atoms: C_3  and  N_4
    2  A    between atoms: C_6  and  C_16
    3  A    between atoms: C_16  and  O_18
                            x       y       z     vdW  Elec       q    Type
                         _______ _______ _______ _____ _____    ______ ____

>  <TORSDO>
F 3

$$$$
