=
 OpenBabel07192307433D

 39 41  0  0  1  0  0  0  0  0999 V2000
    5.1250    4.6900   16.1390 C   0  0  2  0  0  0  0  0  0  0  0  0
    6.4760    4.0130   15.9400 C   0  0  0  0  0  0  0  0  0  0  0  0
    7.1990    4.2980   17.1430 N   0  0  0  0  0  0  0  0  0  0  0  0
    6.6600    5.3490   17.8530 C   0  0  0  0  0  0  0  0  0  0  0  0
    7.1530    5.7990   18.8730 O   0  0  0  0  0  0  0  0  0  0  0  0
    5.4490    5.8580   17.0970 C   0  0  2  0  0  0  0  0  0  0  0  0
    4.7470    5.0580   15.1770 H   0  0  0  0  0  0  0  0  0  0  0  0
    7.0280    4.4710   15.1130 H   0  0  0  0  0  0  0  0  0  0  0  0
    6.4350    2.9320   15.7820 H   0  0  0  0  0  0  0  0  0  0  0  0
    8.0450    3.8330   17.4510 H   0  0  0  0  0  0  0  0  0  0  0  0
    5.8360    6.6940   16.4940 H   0  0  0  0  0  0  0  0  0  0  0  0
    4.2870    6.4030   17.8850 C   0  0  0  0  0  0  0  0  0  0  0  0
    3.5720    7.5450   17.5380 C   0  0  0  0  0  0  0  0  0  0  0  0
    2.5160    7.9590   18.3480 C   0  0  0  0  0  0  0  0  0  0  0  0
    2.1960    7.2320   19.4860 C   0  0  0  0  0  0  0  0  0  0  0  0
    2.9560    6.1170   19.7770 C   0  0  0  0  0  0  0  0  0  0  0  0
    3.9960    5.6990   19.0180 N   0  0  0  0  0  0  0  0  0  0  0  0
    3.8090    8.1240   16.6510 H   0  0  0  0  0  0  0  0  0  0  0  0
    1.9450    8.8450   18.0830 H   0  0  0  0  0  0  0  0  0  0  0  0
    1.3750    7.5300   20.1300 H   0  0  0  0  0  0  0  0  0  0  0  0
    2.7530    5.5180   20.6600 H   0  0  0  0  0  0  0  0  0  0  0  0
    2.9220    3.6870   16.3050 O   0  0  0  0  0  0  0  0  0  0  0  0
    4.0910    3.7040   16.6740 C   0  0  0  0  0  0  0  0  0  0  0  0
    4.5800    2.8430   17.6300 N   0  0  0  0  0  0  0  0  0  0  0  0
    5.5890    2.6980   17.6460 H   0  0  0  0  0  0  0  0  0  0  0  0
    3.7630    1.7540   18.1120 C   0  0  0  0  0  0  0  0  0  0  0  0
    4.4280    0.9400   18.4220 H   0  0  0  0  0  0  0  0  0  0  0  0
    3.1510    1.3740   17.2850 H   0  0  0  0  0  0  0  0  0  0  0  0
    2.8850    2.1990   19.2510 C   0  0  0  0  0  0  0  0  0  0  0  0
    3.4190    2.3820   20.5340 C   0  0  0  0  0  0  0  0  0  0  0  0
    2.6070    2.8130   21.5840 C   0  0  0  0  0  0  0  0  0  0  0  0
    1.2550    3.0670   21.3620 C   0  0  0  0  0  0  0  0  0  0  0  0
    0.7130    2.8910   20.0910 C   0  0  0  0  0  0  0  0  0  0  0  0
    1.5230    2.4600   19.0390 C   0  0  0  0  0  0  0  0  0  0  0  0
    4.4730    2.1920   20.7210 H   0  0  0  0  0  0  0  0  0  0  0  0
    3.0290    2.9470   22.5770 H   0  0  0  0  0  0  0  0  0  0  0  0
    0.6220    3.4000   22.1810 H   0  0  0  0  0  0  0  0  0  0  0  0
   -0.3410    3.0890   19.9180 H   0  0  0  0  0  0  0  0  0  0  0  0
    1.0910    2.3290   18.0490 H   0  0  0  0  0  0  0  0  0  0  0  0
  1  7  1  6  0  0  0
  1 23  1  0  0  0  0
  1  6  1  0  0  0  0
  2  1  1  0  0  0  0
  2  3  1  0  0  0  0
  3 10  1  0  0  0  0
  3  4  1  0  0  0  0
  4  5  2  0  0  0  0
  6 11  1  6  0  0  0
  6  4  1  0  0  0  0
  6 12  1  0  0  0  0
  8  2  1  0  0  0  0
  9  2  1  0  0  0  0
 12 17  1  0  0  0  0
 13 12  2  0  0  0  0
 13 14  1  0  0  0  0
 14 15  2  0  0  0  0
 15 16  1  0  0  0  0
 15 20  1  0  0  0  0
 16 21  1  0  0  0  0
 17 16  2  0  0  0  0
 18 13  1  0  0  0  0
 19 14  1  0  0  0  0
 22 23  2  0  0  0  0
 23 24  1  0  0  0  0
 24 25  1  0  0  0  0
 24 26  1  0  0  0  0
 26 27  1  0  0  0  0
 26 29  1  0  0  0  0
 28 26  1  0  0  0  0
 29 30  1  0  0  0  0
 30 35  1  0  0  0  0
 30 31  2  0  0  0  0
 31 36  1  0  0  0  0
 32 31  1  0  0  0  0
 32 37  1  0  0  0  0
 33 32  2  0  0  0  0
 34 29  2  0  0  0  0
 34 33  1  0  0  0  0
 38 33  1  0  0  0  0
 39 34  1  0  0  0  0
M  END
>  <MODEL>
1

>  <REMARK>
 VINA RESULT:    -8.255      0.000      0.000
 INTER + INTRA:         -10.429
 INTER:                  -9.885
 INTRA:                  -0.544
 UNBOUND:                -0.244
  Name = 
  4 active torsions:
  status: ('A' for Active; 'I' for Inactive)
    1  A    between atoms: C_2  and  C_11
    2  A    between atoms: N_3  and  C_4
    3  A    between atoms: C_4  and  C_5
    4  A    between atoms: C_16  and  C_17
                            x       y       z     vdW  Elec       q    Type
                         _______ _______ _______ _____ _____    ______ ____

>  <TORSDO>
F 4

$$$$
=
 OpenBabel07192307433D

 39 41  0  0  1  0  0  0  0  0999 V2000
    1.9200    3.7620   17.8210 C   0  0  2  0  0  0  0  0  0  0  0  0
    0.9920    2.7650   18.5040 C   0  0  0  0  0  0  0  0  0  0  0  0
    1.8690    1.7630   19.0310 N   0  0  0  0  0  0  0  0  0  0  0  0
    3.1170    1.7860   18.4460 C   0  0  0  0  0  0  0  0  0  0  0  0
    3.9970    0.9800   18.6990 O   0  0  0  0  0  0  0  0  0  0  0  0
    3.1360    2.8980   17.4170 C   0  0  2  0  0  0  0  0  0  0  0  0
    1.4250    4.1890   16.9390 H   0  0  0  0  0  0  0  0  0  0  0  0
    0.3360    2.2740   17.7770 H   0  0  0  0  0  0  0  0  0  0  0  0
    0.3790    3.1780   19.3100 H   0  0  0  0  0  0  0  0  0  0  0  0
    1.6240    1.0640   19.7230 H   0  0  0  0  0  0  0  0  0  0  0  0
    2.8940    2.3950   16.4670 H   0  0  0  0  0  0  0  0  0  0  0  0
    4.4240    3.6430   17.1890 C   0  0  0  0  0  0  0  0  0  0  0  0
    4.9360    3.9570   15.9330 C   0  0  0  0  0  0  0  0  0  0  0  0
    6.1440    4.6460   15.8440 C   0  0  0  0  0  0  0  0  0  0  0  0
    6.8180    5.0070   17.0020 C   0  0  0  0  0  0  0  0  0  0  0  0
    6.2590    4.6520   18.2130 C   0  0  0  0  0  0  0  0  0  0  0  0
    5.0960    3.9700   18.3310 N   0  0  0  0  0  0  0  0  0  0  0  0
    4.4210    3.6830   15.0180 H   0  0  0  0  0  0  0  0  0  0  0  0
    6.5490    4.9040   14.8680 H   0  0  0  0  0  0  0  0  0  0  0  0
    7.7570    5.5490   16.9600 H   0  0  0  0  0  0  0  0  0  0  0  0
    6.7490    4.9020   19.1490 H   0  0  0  0  0  0  0  0  0  0  0  0
    2.2230    4.8440   19.9730 O   0  0  0  0  0  0  0  0  0  0  0  0
    2.2540    4.9250   18.7490 C   0  0  0  0  0  0  0  0  0  0  0  0
    2.5750    6.0920   18.0930 N   0  0  0  0  0  0  0  0  0  0  0  0
    2.8910    6.0050   17.1270 H   0  0  0  0  0  0  0  0  0  0  0  0
    3.0650    7.2300   18.8330 C   0  0  0  0  0  0  0  0  0  0  0  0
    3.8790    7.6860   18.2580 H   0  0  0  0  0  0  0  0  0  0  0  0
    3.4940    6.8830   19.7800 H   0  0  0  0  0  0  0  0  0  0  0  0
    1.9640    8.2240   19.0900 C   0  0  0  0  0  0  0  0  0  0  0  0
    1.4100    8.3590   20.3710 C   0  0  0  0  0  0  0  0  0  0  0  0
    0.4020    9.2940   20.6120 C   0  0  0  0  0  0  0  0  0  0  0  0
   -0.0600   10.1040   19.5760 C   0  0  0  0  0  0  0  0  0  0  0  0
    0.4850    9.9820   18.2990 C   0  0  0  0  0  0  0  0  0  0  0  0
    1.4920    9.0460   18.0570 C   0  0  0  0  0  0  0  0  0  0  0  0
    1.7630    7.7360   21.1890 H   0  0  0  0  0  0  0  0  0  0  0  0
   -0.0250    9.3880   21.6060 H   0  0  0  0  0  0  0  0  0  0  0  0
   -0.8480   10.8300   19.7630 H   0  0  0  0  0  0  0  0  0  0  0  0
    0.1240   10.6130   17.4920 H   0  0  0  0  0  0  0  0  0  0  0  0
    1.9130    8.9610   17.0570 H   0  0  0  0  0  0  0  0  0  0  0  0
  1  7  1  6  0  0  0
  1  2  1  0  0  0  0
  1 23  1  0  0  0  0
  2  3  1  0  0  0  0
  2  9  1  0  0  0  0
  3 10  1  0  0  0  0
  4  5  2  0  0  0  0
  4  3  1  0  0  0  0
  6 11  1  6  0  0  0
  6  1  1  0  0  0  0
  6  4  1  0  0  0  0
  8  2  1  0  0  0  0
 12  6  1  0  0  0  0
 12 17  1  0  0  0  0
 13 12  2  0  0  0  0
 14 13  1  0  0  0  0
 14 15  2  0  0  0  0
 15 16  1  0  0  0  0
 16 17  2  0  0  0  0
 16 21  1  0  0  0  0
 18 13  1  0  0  0  0
 19 14  1  0  0  0  0
 20 15  1  0  0  0  0
 23 22  2  0  0  0  0
 24 23  1  0  0  0  0
 24 26  1  0  0  0  0
 25 24  1  0  0  0  0
 26 29  1  0  0  0  0
 26 28  1  0  0  0  0
 27 26  1  0  0  0  0
 29 30  1  0  0  0  0
 30 31  2  0  0  0  0
 30 35  1  0  0  0  0
 31 36  1  0  0  0  0
 32 37  1  0  0  0  0
 32 31  1  0  0  0  0
 33 32  2  0  0  0  0
 34 33  1  0  0  0  0
 34 29  2  0  0  0  0
 38 33  1  0  0  0  0
 39 34  1  0  0  0  0
M  END
>  <MODEL>
2

>  <REMARK>
 VINA RESULT:    -8.252      2.077      5.306
 INTER + INTRA:         -10.425
 INTER:                  -9.742
 INTRA:                  -0.683
 UNBOUND:                -0.244
  Name = 
  4 active torsions:
  status: ('A' for Active; 'I' for Inactive)
    1  A    between atoms: C_2  and  C_11
    2  A    between atoms: N_3  and  C_4
    3  A    between atoms: C_4  and  C_5
    4  A    between atoms: C_16  and  C_17
                            x       y       z     vdW  Elec       q    Type
                         _______ _______ _______ _____ _____    ______ ____

>  <TORSDO>
F 4

$$$$
=
 OpenBabel07192307433D

 39 41  0  0  1  0  0  0  0  0999 V2000
    1.8870    3.7900   17.8370 C   0  0  2  0  0  0  0  0  0  0  0  0
    0.9760    2.7810   18.5230 C   0  0  0  0  0  0  0  0  0  0  0  0
    1.8660    1.7750   19.0190 N   0  0  0  0  0  0  0  0  0  0  0  0
    3.1030    1.8110   18.4100 C   0  0  0  0  0  0  0  0  0  0  0  0
    3.9900    1.0050   18.6350 O   0  0  0  0  0  0  0  0  0  0  0  0
    3.0980    2.9370   17.3960 C   0  0  2  0  0  0  0  0  0  0  0  0
    1.3730    4.2280   16.9710 H   0  0  0  0  0  0  0  0  0  0  0  0
    0.3080    2.2980   17.8020 H   0  0  0  0  0  0  0  0  0  0  0  0
    0.3770    3.1790   19.3470 H   0  0  0  0  0  0  0  0  0  0  0  0
    1.6380    1.0650   19.7050 H   0  0  0  0  0  0  0  0  0  0  0  0
    2.8390    2.4470   16.4450 H   0  0  0  0  0  0  0  0  0  0  0  0
    4.3780    3.6910   17.1540 C   0  0  0  0  0  0  0  0  0  0  0  0
    4.8730    4.0090   15.8930 C   0  0  0  0  0  0  0  0  0  0  0  0
    6.0760    4.7060   15.7890 C   0  0  0  0  0  0  0  0  0  0  0  0
    6.7610    5.0700   16.9400 C   0  0  0  0  0  0  0  0  0  0  0  0
    6.2190    4.7100   18.1580 C   0  0  0  0  0  0  0  0  0  0  0  0
    5.0620    4.0200   18.2890 N   0  0  0  0  0  0  0  0  0  0  0  0
    4.3490    3.7330   14.9830 H   0  0  0  0  0  0  0  0  0  0  0  0
    6.4680    4.9670   14.8100 H   0  0  0  0  0  0  0  0  0  0  0  0
    7.6960    5.6180   16.8870 H   0  0  0  0  0  0  0  0  0  0  0  0
    6.7190    4.9620   19.0880 H   0  0  0  0  0  0  0  0  0  0  0  0
    2.2270    4.8430   19.9970 O   0  0  0  0  0  0  0  0  0  0  0  0
    2.2340    4.9420   18.7740 C   0  0  0  0  0  0  0  0  0  0  0  0
    2.5380    6.1190   18.1280 N   0  0  0  0  0  0  0  0  0  0  0  0
    2.8360    6.0460   17.1560 H   0  0  0  0  0  0  0  0  0  0  0  0
    3.0390    7.2490   18.8740 C   0  0  0  0  0  0  0  0  0  0  0  0
    3.8540    7.7040   18.2990 H   0  0  0  0  0  0  0  0  0  0  0  0
    3.4700    6.8910   19.8170 H   0  0  0  0  0  0  0  0  0  0  0  0
    1.9450    8.2470   19.1450 C   0  0  0  0  0  0  0  0  0  0  0  0
    1.4660    9.0750   18.1200 C   0  0  0  0  0  0  0  0  0  0  0  0
    0.4380    9.9870   18.3680 C   0  0  0  0  0  0  0  0  0  0  0  0
   -0.1220   10.0780   19.6410 C   0  0  0  0  0  0  0  0  0  0  0  0
    0.3440    9.2580   20.6670 C   0  0  0  0  0  0  0  0  0  0  0  0
    1.3720    8.3460   20.4210 C   0  0  0  0  0  0  0  0  0  0  0  0
    1.8900    9.0130   17.1210 H   0  0  0  0  0  0  0  0  0  0  0  0
    0.0770   10.6280   17.5690 H   0  0  0  0  0  0  0  0  0  0  0  0
   -0.9200   10.7900   19.8350 H   0  0  0  0  0  0  0  0  0  0  0  0
   -0.0920    9.3290   21.6600 H   0  0  0  0  0  0  0  0  0  0  0  0
    1.7270    7.7090   21.2280 H   0  0  0  0  0  0  0  0  0  0  0  0
  1  7  1  6  0  0  0
  1  2  1  0  0  0  0
  1 23  1  0  0  0  0
  2  3  1  0  0  0  0
  2  9  1  0  0  0  0
  3 10  1  0  0  0  0
  4  5  2  0  0  0  0
  4  3  1  0  0  0  0
  6 11  1  6  0  0  0
  6  1  1  0  0  0  0
  6  4  1  0  0  0  0
  8  2  1  0  0  0  0
 12  6  1  0  0  0  0
 12 17  1  0  0  0  0
 13 12  2  0  0  0  0
 14 13  1  0  0  0  0
 14 15  2  0  0  0  0
 15 16  1  0  0  0  0
 16 17  2  0  0  0  0
 16 21  1  0  0  0  0
 18 13  1  0  0  0  0
 19 14  1  0  0  0  0
 20 15  1  0  0  0  0
 23 22  2  0  0  0  0
 24 23  1  0  0  0  0
 24 26  1  0  0  0  0
 25 24  1  0  0  0  0
 26 29  1  0  0  0  0
 26 28  1  0  0  0  0
 27 26  1  0  0  0  0
 29 34  1  0  0  0  0
 30 31  1  0  0  0  0
 30 29  2  0  0  0  0
 31 32  2  0  0  0  0
 32 37  1  0  0  0  0
 32 33  1  0  0  0  0
 33 38  1  0  0  0  0
 34 33  2  0  0  0  0
 34 39  1  0  0  0  0
 35 30  1  0  0  0  0
 36 31  1  0  0  0  0
M  END
>  <MODEL>
3

>  <REMARK>
 VINA RESULT:    -8.235      2.081      5.357
 INTER + INTRA:         -10.404
 INTER:                  -9.724
 INTRA:                  -0.680
 UNBOUND:                -0.244
  Name = 
  4 active torsions:
  status: ('A' for Active; 'I' for Inactive)
    1  A    between atoms: C_2  and  C_11
    2  A    between atoms: N_3  and  C_4
    3  A    between atoms: C_4  and  C_5
    4  A    between atoms: C_16  and  C_17
                            x       y       z     vdW  Elec       q    Type
                         _______ _______ _______ _____ _____    ______ ____

>  <TORSDO>
F 4

$$$$
=
 OpenBabel07192307433D

 39 41  0  0  1  0  0  0  0  0999 V2000
    5.1250    4.6880   16.1050 C   0  0  2  0  0  0  0  0  0  0  0  0
    6.4770    4.0150   15.9060 C   0  0  0  0  0  0  0  0  0  0  0  0
    7.2100    4.3260   17.0960 N   0  0  0  0  0  0  0  0  0  0  0  0
    6.6720    5.3880   17.7910 C   0  0  0  0  0  0  0  0  0  0  0  0
    7.1730    5.8610   18.7970 O   0  0  0  0  0  0  0  0  0  0  0  0
    5.4510    5.8760   17.0370 C   0  0  2  0  0  0  0  0  0  0  0  0
    4.7360    5.0360   15.1390 H   0  0  0  0  0  0  0  0  0  0  0  0
    7.0190    4.4600   15.0640 H   0  0  0  0  0  0  0  0  0  0  0  0
    6.4420    2.9310   15.7690 H   0  0  0  0  0  0  0  0  0  0  0  0
    8.0620    3.8720   17.4040 H   0  0  0  0  0  0  0  0  0  0  0  0
    5.8280    6.7020   16.4130 H   0  0  0  0  0  0  0  0  0  0  0  0
    4.2940    6.4290   17.8250 C   0  0  0  0  0  0  0  0  0  0  0  0
    3.5740    7.5650   17.4660 C   0  0  0  0  0  0  0  0  0  0  0  0
    2.5230    7.9890   18.2780 C   0  0  0  0  0  0  0  0  0  0  0  0
    2.2120    7.2770   19.4290 C   0  0  0  0  0  0  0  0  0  0  0  0
    2.9770    6.1680   19.7300 C   0  0  0  0  0  0  0  0  0  0  0  0
    4.0120    5.7420   18.9700 N   0  0  0  0  0  0  0  0  0  0  0  0
    3.8030    8.1310   16.5700 H   0  0  0  0  0  0  0  0  0  0  0  0
    1.9480    8.8700   18.0040 H   0  0  0  0  0  0  0  0  0  0  0  0
    1.3960    7.5830   20.0740 H   0  0  0  0  0  0  0  0  0  0  0  0
    2.7820    5.5810   20.6230 H   0  0  0  0  0  0  0  0  0  0  0  0
    2.9270    3.6790   16.3140 O   0  0  0  0  0  0  0  0  0  0  0  0
    4.1020    3.7070   16.6680 C   0  0  0  0  0  0  0  0  0  0  0  0
    4.6050    2.8620   17.6310 N   0  0  0  0  0  0  0  0  0  0  0  0
    5.6150    2.7210   17.6370 H   0  0  0  0  0  0  0  0  0  0  0  0
    3.7990    1.7780   18.1400 C   0  0  0  0  0  0  0  0  0  0  0  0
    4.4710    0.9810   18.4760 H   0  0  0  0  0  0  0  0  0  0  0  0
    3.1940    1.3680   17.3220 H   0  0  0  0  0  0  0  0  0  0  0  0
    2.9120    2.2450   19.2630 C   0  0  0  0  0  0  0  0  0  0  0  0
    1.5420    2.4560   19.0500 C   0  0  0  0  0  0  0  0  0  0  0  0
    0.7180    2.8700   20.0970 C   0  0  0  0  0  0  0  0  0  0  0  0
    1.2530    3.0770   21.3680 C   0  0  0  0  0  0  0  0  0  0  0  0
    2.6130    2.8680   21.5920 C   0  0  0  0  0  0  0  0  0  0  0  0
    3.4380    2.4540   20.5460 C   0  0  0  0  0  0  0  0  0  0  0  0
    1.1090    2.2950   18.0660 H   0  0  0  0  0  0  0  0  0  0  0  0
   -0.3420    3.0360   19.9220 H   0  0  0  0  0  0  0  0  0  0  0  0
    0.6120    3.4030   22.1820 H   0  0  0  0  0  0  0  0  0  0  0  0
    3.0300    3.0300   22.5820 H   0  0  0  0  0  0  0  0  0  0  0  0
    4.4980    2.2910   20.7330 H   0  0  0  0  0  0  0  0  0  0  0  0
  1  7  1  6  0  0  0
  1 23  1  0  0  0  0
  1  6  1  0  0  0  0
  2  1  1  0  0  0  0
  2  3  1  0  0  0  0
  3 10  1  0  0  0  0
  3  4  1  0  0  0  0
  4  5  2  0  0  0  0
  6 11  1  6  0  0  0
  6  4  1  0  0  0  0
  6 12  1  0  0  0  0
  8  2  1  0  0  0  0
  9  2  1  0  0  0  0
 12 17  1  0  0  0  0
 13 12  2  0  0  0  0
 13 14  1  0  0  0  0
 14 15  2  0  0  0  0
 15 16  1  0  0  0  0
 15 20  1  0  0  0  0
 16 21  1  0  0  0  0
 17 16  2  0  0  0  0
 18 13  1  0  0  0  0
 19 14  1  0  0  0  0
 22 23  2  0  0  0  0
 23 24  1  0  0  0  0
 24 25  1  0  0  0  0
 24 26  1  0  0  0  0
 26 27  1  0  0  0  0
 26 29  1  0  0  0  0
 28 26  1  0  0  0  0
 29 34  1  0  0  0  0
 30 29  2  0  0  0  0
 30 31  1  0  0  0  0
 31 32  2  0  0  0  0
 32 33  1  0  0  0  0
 32 37  1  0  0  0  0
 33 38  1  0  0  0  0
 34 39  1  0  0  0  0
 34 33  2  0  0  0  0
 35 30  1  0  0  0  0
 36 31  1  0  0  0  0
M  END
>  <MODEL>
4

>  <REMARK>
 VINA RESULT:    -8.220      0.058      1.031
 INTER + INTRA:         -10.386
 INTER:                  -9.875
 INTRA:                  -0.512
 UNBOUND:                -0.244
  Name = 
  4 active torsions:
  status: ('A' for Active; 'I' for Inactive)
    1  A    between atoms: C_2  and  C_11
    2  A    between atoms: N_3  and  C_4
    3  A    between atoms: C_4  and  C_5
    4  A    between atoms: C_16  and  C_17
                            x       y       z     vdW  Elec       q    Type
                         _______ _______ _______ _____ _____    ______ ____

>  <TORSDO>
F 4

$$$$
=
 OpenBabel07192307433D

 39 41  0  0  1  0  0  0  0  0999 V2000
    1.9540    3.8690   17.8120 C   0  0  2  0  0  0  0  0  0  0  0  0
    0.9790    2.8940   18.4600 C   0  0  0  0  0  0  0  0  0  0  0  0
    1.8110    1.8630   19.0020 N   0  0  0  0  0  0  0  0  0  0  0  0
    3.0750    1.8540   18.4520 C   0  0  0  0  0  0  0  0  0  0  0  0
    3.9240    1.0210   18.7220 O   0  0  0  0  0  0  0  0  0  0  0  0
    3.1560    2.9730   17.4340 C   0  0  2  0  0  0  0  0  0  0  0  0
    1.4970    4.3180   16.9200 H   0  0  0  0  0  0  0  0  0  0  0  0
    0.3300    2.4290   17.7100 H   0  0  0  0  0  0  0  0  0  0  0  0
    0.3550    3.3180   19.2520 H   0  0  0  0  0  0  0  0  0  0  0  0
    1.5260    1.1660   19.6800 H   0  0  0  0  0  0  0  0  0  0  0  0
    2.9260    2.4860   16.4740 H   0  0  0  0  0  0  0  0  0  0  0  0
    4.4710    3.6830   17.2490 C   0  0  0  0  0  0  0  0  0  0  0  0
    5.3380    4.0060   18.2880 C   0  0  0  0  0  0  0  0  0  0  0  0
    6.5290    4.6710   17.9990 C   0  0  0  0  0  0  0  0  0  0  0  0
    6.8310    5.0010   16.6850 C   0  0  0  0  0  0  0  0  0  0  0  0
    5.9180    4.6600   15.7060 C   0  0  0  0  0  0  0  0  0  0  0  0
    4.7480    4.0290   15.9590 N   0  0  0  0  0  0  0  0  0  0  0  0
    5.1170    3.7550   19.3210 H   0  0  0  0  0  0  0  0  0  0  0  0
    7.2180    4.9230   18.8010 H   0  0  0  0  0  0  0  0  0  0  0  0
    7.7530    5.5130   16.4320 H   0  0  0  0  0  0  0  0  0  0  0  0
    6.1010    4.9020   14.6630 H   0  0  0  0  0  0  0  0  0  0  0  0
    2.4110    4.8760   19.9730 O   0  0  0  0  0  0  0  0  0  0  0  0
    2.2950    5.0150   18.7590 C   0  0  0  0  0  0  0  0  0  0  0  0
    2.4420    6.2330   18.1360 N   0  0  0  0  0  0  0  0  0  0  0  0
    2.6520    6.2170   17.1380 H   0  0  0  0  0  0  0  0  0  0  0  0
    2.9190    7.3760   18.8780 C   0  0  0  0  0  0  0  0  0  0  0  0
    3.7130    7.8550   18.2940 H   0  0  0  0  0  0  0  0  0  0  0  0
    3.3700    7.0300   19.8150 H   0  0  0  0  0  0  0  0  0  0  0  0
    1.8000    8.3420   19.1620 C   0  0  0  0  0  0  0  0  0  0  0  0
    1.2700    8.4610   20.4540 C   0  0  0  0  0  0  0  0  0  0  0  0
    0.2450    9.3710   20.7190 C   0  0  0  0  0  0  0  0  0  0  0  0
   -0.2580   10.1720   19.6960 C   0  0  0  0  0  0  0  0  0  0  0  0
    0.2630   10.0660   18.4080 C   0  0  0  0  0  0  0  0  0  0  0  0
    1.2870    9.1560   18.1410 C   0  0  0  0  0  0  0  0  0  0  0  0
    1.6550    7.8440   21.2640 H   0  0  0  0  0  0  0  0  0  0  0  0
   -0.1630    9.4520   21.7230 H   0  0  0  0  0  0  0  0  0  0  0  0
   -1.0580   10.8790   19.9020 H   0  0  0  0  0  0  0  0  0  0  0  0
   -0.1300   10.6900   17.6100 H   0  0  0  0  0  0  0  0  0  0  0  0
    1.6890    9.0830   17.1330 H   0  0  0  0  0  0  0  0  0  0  0  0
  1  7  1  6  0  0  0
  1  2  1  0  0  0  0
  1 23  1  0  0  0  0
  2  3  1  0  0  0  0
  2  9  1  0  0  0  0
  3 10  1  0  0  0  0
  4  5  2  0  0  0  0
  4  3  1  0  0  0  0
  6 11  1  6  0  0  0
  6  1  1  0  0  0  0
  6  4  1  0  0  0  0
  8  2  1  0  0  0  0
 12  6  1  0  0  0  0
 12 13  1  0  0  0  0
 13 18  1  0  0  0  0
 14 13  2  0  0  0  0
 14 19  1  0  0  0  0
 15 14  1  0  0  0  0
 16 17  1  0  0  0  0
 16 15  2  0  0  0  0
 17 12  2  0  0  0  0
 20 15  1  0  0  0  0
 21 16  1  0  0  0  0
 23 22  2  0  0  0  0
 24 23  1  0  0  0  0
 24 26  1  0  0  0  0
 25 24  1  0  0  0  0
 26 29  1  0  0  0  0
 26 28  1  0  0  0  0
 27 26  1  0  0  0  0
 29 30  1  0  0  0  0
 30 31  2  0  0  0  0
 30 35  1  0  0  0  0
 31 36  1  0  0  0  0
 32 37  1  0  0  0  0
 32 31  1  0  0  0  0
 33 32  2  0  0  0  0
 34 33  1  0  0  0  0
 34 29  2  0  0  0  0
 38 33  1  0  0  0  0
 39 34  1  0  0  0  0
M  END
>  <MODEL>
5

>  <REMARK>
 VINA RESULT:    -7.930      2.198      5.423
 INTER + INTRA:         -10.028
 INTER:                  -9.381
 INTRA:                  -0.647
 UNBOUND:                -0.244
  Name = 
  4 active torsions:
  status: ('A' for Active; 'I' for Inactive)
    1  A    between atoms: C_2  and  C_11
    2  A    between atoms: N_3  and  C_4
    3  A    between atoms: C_4  and  C_5
    4  A    between atoms: C_16  and  C_17
                            x       y       z     vdW  Elec       q    Type
                         _______ _______ _______ _____ _____    ______ ____

>  <TORSDO>
F 4

$$$$
=
 OpenBabel07192307433D

 39 41  0  0  1  0  0  0  0  0999 V2000
    5.3760    6.3360   17.7570 C   0  0  2  0  0  0  0  0  0  0  0  0
    5.8000    7.3380   16.6910 C   0  0  0  0  0  0  0  0  0  0  0  0
    5.5850    6.6540   15.4510 N   0  0  0  0  0  0  0  0  0  0  0  0
    5.4790    5.2880   15.6080 C   0  0  0  0  0  0  0  0  0  0  0  0
    5.3580    4.5090   14.6770 O   0  0  0  0  0  0  0  0  0  0  0  0
    5.6280    4.9690   17.0810 C   0  0  2  0  0  0  0  0  0  0  0  0
    6.0000    6.4570   18.6520 H   0  0  0  0  0  0  0  0  0  0  0  0
    6.8700    7.5590   16.7590 H   0  0  0  0  0  0  0  0  0  0  0  0
    5.2450    8.2810   16.6920 H   0  0  0  0  0  0  0  0  0  0  0  0
    5.5560    7.0830   14.5330 H   0  0  0  0  0  0  0  0  0  0  0  0
    6.6940    4.7230   17.2010 H   0  0  0  0  0  0  0  0  0  0  0  0
    4.8550    3.8060   17.6450 C   0  0  0  0  0  0  0  0  0  0  0  0
    3.8070    3.1700   16.9870 C   0  0  0  0  0  0  0  0  0  0  0  0
    3.1580    2.1050   17.6100 C   0  0  0  0  0  0  0  0  0  0  0  0
    3.5640    1.6960   18.8730 C   0  0  0  0  0  0  0  0  0  0  0  0
    4.6020    2.3810   19.4720 C   0  0  0  0  0  0  0  0  0  0  0  0
    5.2410    3.4280   18.8980 N   0  0  0  0  0  0  0  0  0  0  0  0
    3.4780    3.4760   15.9990 H   0  0  0  0  0  0  0  0  0  0  0  0
    2.3430    1.5950   17.1030 H   0  0  0  0  0  0  0  0  0  0  0  0
    3.0800    0.8670   19.3770 H   0  0  0  0  0  0  0  0  0  0  0  0
    4.9530    2.1080   20.4630 H   0  0  0  0  0  0  0  0  0  0  0  0
    3.0530    6.9530   17.4230 O   0  0  0  0  0  0  0  0  0  0  0  0
    3.9320    6.5700   18.1880 C   0  0  0  0  0  0  0  0  0  0  0  0
    3.7010    6.3360   19.5240 N   0  0  0  0  0  0  0  0  0  0  0  0
    4.3640    5.7300   20.0060 H   0  0  0  0  0  0  0  0  0  0  0  0
    2.3540    6.3620   20.0430 C   0  0  0  0  0  0  0  0  0  0  0  0
    1.6970    6.7730   19.2680 H   0  0  0  0  0  0  0  0  0  0  0  0
    2.3140    7.0480   20.8980 H   0  0  0  0  0  0  0  0  0  0  0  0
    1.9060    4.9850   20.4570 C   0  0  0  0  0  0  0  0  0  0  0  0
    0.9500    4.2900   19.7040 C   0  0  0  0  0  0  0  0  0  0  0  0
    0.5500    3.0060   20.0780 C   0  0  0  0  0  0  0  0  0  0  0  0
    1.1040    2.4040   21.2060 C   0  0  0  0  0  0  0  0  0  0  0  0
    2.0580    3.0840   21.9610 C   0  0  0  0  0  0  0  0  0  0  0  0
    2.4580    4.3680   21.5890 C   0  0  0  0  0  0  0  0  0  0  0  0
    0.5120    4.7450   18.8180 H   0  0  0  0  0  0  0  0  0  0  0  0
   -0.1960    2.4770   19.4910 H   0  0  0  0  0  0  0  0  0  0  0  0
    0.7900    1.4050   21.4990 H   0  0  0  0  0  0  0  0  0  0  0  0
    2.4890    2.6150   22.8410 H   0  0  0  0  0  0  0  0  0  0  0  0
    3.2050    4.8890   22.1830 H   0  0  0  0  0  0  0  0  0  0  0  0
  1 23  1  0  0  0  0
  1  7  1  1  0  0  0
  2  9  1  0  0  0  0
  2  8  1  0  0  0  0
  2  1  1  0  0  0  0
  3  4  1  0  0  0  0
  3  2  1  0  0  0  0
  4  6  1  0  0  0  0
  5  4  2  0  0  0  0
  6 11  1  1  0  0  0
  6 12  1  0  0  0  0
  6  1  1  0  0  0  0
 10  3  1  0  0  0  0
 12 17  1  0  0  0  0
 13 14  1  0  0  0  0
 13 12  2  0  0  0  0
 14 15  2  0  0  0  0
 15 20  1  0  0  0  0
 15 16  1  0  0  0  0
 16 21  1  0  0  0  0
 17 16  2  0  0  0  0
 18 13  1  0  0  0  0
 19 14  1  0  0  0  0
 22 23  2  0  0  0  0
 23 24  1  0  0  0  0
 24 25  1  0  0  0  0
 24 26  1  0  0  0  0
 26 29  1  0  0  0  0
 26 28  1  0  0  0  0
 27 26  1  0  0  0  0
 29 34  1  0  0  0  0
 30 31  1  0  0  0  0
 30 29  2  0  0  0  0
 31 32  2  0  0  0  0
 32 37  1  0  0  0  0
 32 33  1  0  0  0  0
 33 38  1  0  0  0  0
 34 33  2  0  0  0  0
 34 39  1  0  0  0  0
 35 30  1  0  0  0  0
 36 31  1  0  0  0  0
M  END
>  <MODEL>
6

>  <REMARK>
 VINA RESULT:    -7.762      1.671      3.608
 INTER + INTRA:          -9.820
 INTER:                  -8.172
 INTRA:                  -1.648
 UNBOUND:                -0.244
  Name = 
  4 active torsions:
  status: ('A' for Active; 'I' for Inactive)
    1  A    between atoms: C_2  and  C_11
    2  A    between atoms: N_3  and  C_4
    3  A    between atoms: C_4  and  C_5
    4  A    between atoms: C_16  and  C_17
                            x       y       z     vdW  Elec       q    Type
                         _______ _______ _______ _____ _____    ______ ____

>  <TORSDO>
F 4

$$$$
=
 OpenBabel07192307433D

 39 41  0  0  1  0  0  0  0  0999 V2000
    2.9750    6.3580   17.7460 C   0  0  2  0  0  0  0  0  0  0  0  0
    2.6890    7.6910   18.4250 C   0  0  0  0  0  0  0  0  0  0  0  0
    2.4950    7.3560   19.8040 N   0  0  0  0  0  0  0  0  0  0  0  0
    2.2310    6.0160   19.9950 C   0  0  0  0  0  0  0  0  0  0  0  0
    1.9730    5.5270   21.0820 O   0  0  0  0  0  0  0  0  0  0  0  0
    2.2380    5.3360   18.6410 C   0  0  2  0  0  0  0  0  0  0  0  0
    2.5650    6.3620   16.7280 H   0  0  0  0  0  0  0  0  0  0  0  0
    1.7510    8.1260   18.0620 H   0  0  0  0  0  0  0  0  0  0  0  0
    3.4820    8.4390   18.3360 H   0  0  0  0  0  0  0  0  0  0  0  0
    2.4970    8.0080   20.5800 H   0  0  0  0  0  0  0  0  0  0  0  0
    1.1800    5.3210   18.3380 H   0  0  0  0  0  0  0  0  0  0  0  0
    2.7280    3.9150   18.5550 C   0  0  0  0  0  0  0  0  0  0  0  0
    2.4190    3.0420   17.5150 C   0  0  0  0  0  0  0  0  0  0  0  0
    2.9240    1.7430   17.5440 C   0  0  0  0  0  0  0  0  0  0  0  0
    3.7240    1.3390   18.6040 C   0  0  0  0  0  0  0  0  0  0  0  0
    3.9780    2.2530   19.6070 C   0  0  0  0  0  0  0  0  0  0  0  0
    3.4890    3.5150   19.6140 N   0  0  0  0  0  0  0  0  0  0  0  0
    1.7960    3.3430   16.6780 H   0  0  0  0  0  0  0  0  0  0  0  0
    2.6960    1.0550   16.7340 H   0  0  0  0  0  0  0  0  0  0  0  0
    4.1340    0.3370   18.6470 H   0  0  0  0  0  0  0  0  0  0  0  0
    4.5910    1.9860   20.4630 H   0  0  0  0  0  0  0  0  0  0  0  0
    5.2610    6.2460   18.5530 O   0  0  0  0  0  0  0  0  0  0  0  0
    4.4760    6.1180   17.6190 C   0  0  0  0  0  0  0  0  0  0  0  0
    4.8820    5.7650   16.3520 N   0  0  0  0  0  0  0  0  0  0  0  0
    4.1730    5.3720   15.7350 H   0  0  0  0  0  0  0  0  0  0  0  0
    6.2460    5.3540   16.1150 C   0  0  0  0  0  0  0  0  0  0  0  0
    6.5050    4.5880   16.8550 H   0  0  0  0  0  0  0  0  0  0  0  0
    6.9110    6.2080   16.2870 H   0  0  0  0  0  0  0  0  0  0  0  0
    6.4170    4.8310   14.7140 C   0  0  0  0  0  0  0  0  0  0  0  0
    5.4940    3.9250   14.1720 C   0  0  0  0  0  0  0  0  0  0  0  0
    5.6440    3.4560   12.8670 C   0  0  0  0  0  0  0  0  0  0  0  0
    6.7160    3.8890   12.0880 C   0  0  0  0  0  0  0  0  0  0  0  0
    7.6390    4.7920   12.6140 C   0  0  0  0  0  0  0  0  0  0  0  0
    7.4900    5.2610   13.9200 C   0  0  0  0  0  0  0  0  0  0  0  0
    4.6500    3.5810   14.7660 H   0  0  0  0  0  0  0  0  0  0  0  0
    4.9270    2.7490   12.4570 H   0  0  0  0  0  0  0  0  0  0  0  0
    6.8340    3.5210   11.0720 H   0  0  0  0  0  0  0  0  0  0  0  0
    8.4740    5.1290   12.0080 H   0  0  0  0  0  0  0  0  0  0  0  0
    8.2140    5.9680   14.3200 H   0  0  0  0  0  0  0  0  0  0  0  0
  1  7  1  6  0  0  0
  1  2  1  0  0  0  0
  1  6  1  0  0  0  0
  2  3  1  0  0  0  0
  3  4  1  0  0  0  0
  3 10  1  0  0  0  0
  4  5  2  0  0  0  0
  6 11  1  6  0  0  0
  6  4  1  0  0  0  0
  8  2  1  0  0  0  0
  9  2  1  0  0  0  0
 12  6  1  0  0  0  0
 12 17  1  0  0  0  0
 13 14  1  0  0  0  0
 13 12  2  0  0  0  0
 14 15  2  0  0  0  0
 15 20  1  0  0  0  0
 15 16  1  0  0  0  0
 16 17  2  0  0  0  0
 16 21  1  0  0  0  0
 18 13  1  0  0  0  0
 19 14  1  0  0  0  0
 23  1  1  0  0  0  0
 23 22  2  0  0  0  0
 24 23  1  0  0  0  0
 25 24  1  0  0  0  0
 26 28  1  0  0  0  0
 26 24  1  0  0  0  0
 26 27  1  0  0  0  0
 29 26  1  0  0  0  0
 30 29  1  0  0  0  0
 30 35  1  0  0  0  0
 31 30  2  0  0  0  0
 32 33  2  0  0  0  0
 32 31  1  0  0  0  0
 33 34  1  0  0  0  0
 34 39  1  0  0  0  0
 34 29  2  0  0  0  0
 36 31  1  0  0  0  0
 37 32  1  0  0  0  0
 38 33  1  0  0  0  0
M  END
>  <MODEL>
7

>  <REMARK>
 VINA RESULT:    -7.592      2.311      6.049
 INTER + INTRA:          -9.611
 INTER:                  -8.992
 INTRA:                  -0.619
 UNBOUND:                -0.244
  Name = 
  4 active torsions:
  status: ('A' for Active; 'I' for Inactive)
    1  A    between atoms: C_2  and  C_11
    2  A    between atoms: N_3  and  C_4
    3  A    between atoms: C_4  and  C_5
    4  A    between atoms: C_16  and  C_17
                            x       y       z     vdW  Elec       q    Type
                         _______ _______ _______ _____ _____    ______ ____

>  <TORSDO>
F 4

$$$$
=
 OpenBabel07192307433D

 39 41  0  0  1  0  0  0  0  0999 V2000
    5.9680    6.2730   17.6160 C   0  0  2  0  0  0  0  0  0  0  0  0
    7.2100    6.5140   16.7670 C   0  0  0  0  0  0  0  0  0  0  0  0
    7.2400    5.4090   15.8560 N   0  0  0  0  0  0  0  0  0  0  0  0
    6.4550    4.3550   16.2720 C   0  0  0  0  0  0  0  0  0  0  0  0
    6.3850    3.2910   15.6800 O   0  0  0  0  0  0  0  0  0  0  0  0
    5.8080    4.7360   17.5870 C   0  0  2  0  0  0  0  0  0  0  0  0
    6.1380    6.6360   18.6380 H   0  0  0  0  0  0  0  0  0  0  0  0
    8.1200    6.4590   17.3750 H   0  0  0  0  0  0  0  0  0  0  0  0
    7.2160    7.4530   16.2070 H   0  0  0  0  0  0  0  0  0  0  0  0
    7.7990    5.3500   15.0140 H   0  0  0  0  0  0  0  0  0  0  0  0
    6.4760    4.3120   18.3530 H   0  0  0  0  0  0  0  0  0  0  0  0
    4.4280    4.2140   17.8870 C   0  0  0  0  0  0  0  0  0  0  0  0
    3.5980    3.6120   16.9470 C   0  0  0  0  0  0  0  0  0  0  0  0
    2.3340    3.1710   17.3370 C   0  0  0  0  0  0  0  0  0  0  0  0
    1.9230    3.3390   18.6520 C   0  0  0  0  0  0  0  0  0  0  0  0
    2.7930    3.9570   19.5280 C   0  0  0  0  0  0  0  0  0  0  0  0
    4.0190    4.4090   19.1740 N   0  0  0  0  0  0  0  0  0  0  0  0
    3.9050    3.4710   15.9150 H   0  0  0  0  0  0  0  0  0  0  0  0
    1.6800    2.6920   16.6140 H   0  0  0  0  0  0  0  0  0  0  0  0
    0.9470    3.0000   18.9830 H   0  0  0  0  0  0  0  0  0  0  0  0
    2.5180    4.1220   20.5660 H   0  0  0  0  0  0  0  0  0  0  0  0
    4.5970    7.2570   15.8720 O   0  0  0  0  0  0  0  0  0  0  0  0
    4.7710    7.0420   17.0670 C   0  0  0  0  0  0  0  0  0  0  0  0
    3.9050    7.4980   18.0350 N   0  0  0  0  0  0  0  0  0  0  0  0
    3.9310    7.0220   18.9360 H   0  0  0  0  0  0  0  0  0  0  0  0
    2.6490    8.1030   17.6600 C   0  0  0  0  0  0  0  0  0  0  0  0
    2.1050    7.3940   17.0250 H   0  0  0  0  0  0  0  0  0  0  0  0
    2.8490    8.9940   17.0520 H   0  0  0  0  0  0  0  0  0  0  0  0
    1.8410    8.4710   18.8760 C   0  0  0  0  0  0  0  0  0  0  0  0
    1.9230    7.7030   20.0460 C   0  0  0  0  0  0  0  0  0  0  0  0
    1.1870    8.0560   21.1780 C   0  0  0  0  0  0  0  0  0  0  0  0
    0.3640    9.1810   21.1530 C   0  0  0  0  0  0  0  0  0  0  0  0
    0.2760    9.9530   19.9960 C   0  0  0  0  0  0  0  0  0  0  0  0
    1.0110    9.6010   18.8630 C   0  0  0  0  0  0  0  0  0  0  0  0
    2.5640    6.8250   20.0820 H   0  0  0  0  0  0  0  0  0  0  0  0
    1.2540    7.4520   22.0790 H   0  0  0  0  0  0  0  0  0  0  0  0
   -0.2110    9.4540   22.0340 H   0  0  0  0  0  0  0  0  0  0  0  0
   -0.3660   10.8290   19.9760 H   0  0  0  0  0  0  0  0  0  0  0  0
    0.9370   10.2130   17.9660 H   0  0  0  0  0  0  0  0  0  0  0  0
  1  7  1  1  0  0  0
  2  8  1  0  0  0  0
  2  1  1  0  0  0  0
  3  4  1  0  0  0  0
  3  2  1  0  0  0  0
  4  6  1  0  0  0  0
  5  4  2  0  0  0  0
  6  1  1  0  0  0  0
  6 12  1  0  0  0  0
  6 11  1  1  0  0  0
  9  2  1  0  0  0  0
 10  3  1  0  0  0  0
 12 17  1  0  0  0  0
 13 14  1  0  0  0  0
 13 12  2  0  0  0  0
 14 15  2  0  0  0  0
 15 20  1  0  0  0  0
 15 16  1  0  0  0  0
 16 21  1  0  0  0  0
 17 16  2  0  0  0  0
 18 13  1  0  0  0  0
 19 14  1  0  0  0  0
 22 23  2  0  0  0  0
 23  1  1  0  0  0  0
 23 24  1  0  0  0  0
 24 25  1  0  0  0  0
 26 24  1  0  0  0  0
 26 29  1  0  0  0  0
 27 26  1  0  0  0  0
 28 26  1  0  0  0  0
 29 30  1  0  0  0  0
 30 35  1  0  0  0  0
 30 31  2  0  0  0  0
 31 36  1  0  0  0  0
 32 31  1  0  0  0  0
 32 37  1  0  0  0  0
 33 32  2  0  0  0  0
 34 29  2  0  0  0  0
 34 33  1  0  0  0  0
 38 33  1  0  0  0  0
 39 34  1  0  0  0  0
M  END
>  <MODEL>
8

>  <REMARK>
 VINA RESULT:    -7.441      1.986      4.458
 INTER + INTRA:          -9.425
 INTER:                  -8.546
 INTRA:                  -0.878
 UNBOUND:                -0.244
  Name = 
  4 active torsions:
  status: ('A' for Active; 'I' for Inactive)
    1  A    between atoms: C_2  and  C_11
    2  A    between atoms: N_3  and  C_4
    3  A    between atoms: C_4  and  C_5
    4  A    between atoms: C_16  and  C_17
                            x       y       z     vdW  Elec       q    Type
                         _______ _______ _______ _____ _____    ______ ____

>  <TORSDO>
F 4

$$$$
=
 OpenBabel07192307433D

 39 41  0  0  1  0  0  0  0  0999 V2000
    3.7380    2.8350   19.0840 C   0  0  2  0  0  0  0  0  0  0  0  0
    3.3380    1.3820   18.8610 C   0  0  0  0  0  0  0  0  0  0  0  0
    1.9540    1.4430   18.4990 N   0  0  0  0  0  0  0  0  0  0  0  0
    1.3650    2.6400   18.8480 C   0  0  0  0  0  0  0  0  0  0  0  0
    0.1800    2.8800   18.6900 O   0  0  0  0  0  0  0  0  0  0  0  0
    2.4140    3.5070   19.5130 C   0  0  2  0  0  0  0  0  0  0  0  0
    4.4910    2.8960   19.8810 H   0  0  0  0  0  0  0  0  0  0  0  0
    3.4060    0.8060   19.7900 H   0  0  0  0  0  0  0  0  0  0  0  0
    3.9000    0.8590   18.0810 H   0  0  0  0  0  0  0  0  0  0  0  0
    1.4180    0.6950   18.0750 H   0  0  0  0  0  0  0  0  0  0  0  0
    2.2750    3.3260   20.5900 H   0  0  0  0  0  0  0  0  0  0  0  0
    2.3420    4.9980   19.3170 C   0  0  0  0  0  0  0  0  0  0  0  0
    2.5210    5.6360   18.0930 C   0  0  0  0  0  0  0  0  0  0  0  0
    2.4380    7.0270   18.0320 C   0  0  0  0  0  0  0  0  0  0  0  0
    2.1810    7.7520   19.1880 C   0  0  0  0  0  0  0  0  0  0  0  0
    2.0280    7.0540   20.3690 C   0  0  0  0  0  0  0  0  0  0  0  0
    2.1180    5.7070   20.4610 N   0  0  0  0  0  0  0  0  0  0  0  0
    2.7210    5.0840   17.1810 H   0  0  0  0  0  0  0  0  0  0  0  0
    2.5680    7.5360   17.0810 H   0  0  0  0  0  0  0  0  0  0  0  0
    2.1060    8.8340   19.1670 H   0  0  0  0  0  0  0  0  0  0  0  0
    1.8340    7.5730   21.3030 H   0  0  0  0  0  0  0  0  0  0  0  0
    3.8250    3.4220   16.7310 O   0  0  0  0  0  0  0  0  0  0  0  0
    4.3710    3.4290   17.8300 C   0  0  0  0  0  0  0  0  0  0  0  0
    5.6250    3.9580   18.0320 N   0  0  0  0  0  0  0  0  0  0  0  0
    5.8670    4.2170   18.9880 H   0  0  0  0  0  0  0  0  0  0  0  0
    6.2810    4.6940   16.9770 C   0  0  0  0  0  0  0  0  0  0  0  0
    5.5190    5.0070   16.2540 H   0  0  0  0  0  0  0  0  0  0  0  0
    6.9710    4.0250   16.4500 H   0  0  0  0  0  0  0  0  0  0  0  0
    7.0220    5.8830   17.5270 C   0  0  0  0  0  0  0  0  0  0  0  0
    6.9680    7.1230   16.8750 C   0  0  0  0  0  0  0  0  0  0  0  0
    7.6400    8.2290   17.3980 C   0  0  0  0  0  0  0  0  0  0  0  0
    8.3720    8.1070   18.5780 C   0  0  0  0  0  0  0  0  0  0  0  0
    8.4320    6.8810   19.2370 C   0  0  0  0  0  0  0  0  0  0  0  0
    7.7600    5.7740   18.7150 C   0  0  0  0  0  0  0  0  0  0  0  0
    6.3970    7.2340   15.9560 H   0  0  0  0  0  0  0  0  0  0  0  0
    7.5960    9.1850   16.8820 H   0  0  0  0  0  0  0  0  0  0  0  0
    8.8980    8.9680   18.9830 H   0  0  0  0  0  0  0  0  0  0  0  0
    9.0020    6.7860   20.1560 H   0  0  0  0  0  0  0  0  0  0  0  0
    7.8100    4.8220   19.2390 H   0  0  0  0  0  0  0  0  0  0  0  0
  1  6  1  0  0  0  0
  1  7  1  1  0  0  0
  2  1  1  0  0  0  0
  2  8  1  0  0  0  0
  3  4  1  0  0  0  0
  3  2  1  0  0  0  0
  4  6  1  0  0  0  0
  5  4  2  0  0  0  0
  6 11  1  1  0  0  0
  9  2  1  0  0  0  0
 10  3  1  0  0  0  0
 12  6  1  0  0  0  0
 12 17  1  0  0  0  0
 13 12  2  0  0  0  0
 14 13  1  0  0  0  0
 14 15  2  0  0  0  0
 15 16  1  0  0  0  0
 16 17  2  0  0  0  0
 16 21  1  0  0  0  0
 18 13  1  0  0  0  0
 19 14  1  0  0  0  0
 20 15  1  0  0  0  0
 22 23  2  0  0  0  0
 23 24  1  0  0  0  0
 23  1  1  0  0  0  0
 24 25  1  0  0  0  0
 26 29  1  0  0  0  0
 26 24  1  0  0  0  0
 27 26  1  0  0  0  0
 28 26  1  0  0  0  0
 29 34  1  0  0  0  0
 30 31  1  0  0  0  0
 30 29  2  0  0  0  0
 31 32  2  0  0  0  0
 32 37  1  0  0  0  0
 32 33  1  0  0  0  0
 33 38  1  0  0  0  0
 34 33  2  0  0  0  0
 34 39  1  0  0  0  0
 35 30  1  0  0  0  0
 36 31  1  0  0  0  0
M  END
>  <MODEL>
9

>  <REMARK>
 VINA RESULT:    -6.972      1.924      5.216
 INTER + INTRA:          -8.847
 INTER:                  -8.953
 INTRA:                   0.106
 UNBOUND:                -0.244
  Name = 
  4 active torsions:
  status: ('A' for Active; 'I' for Inactive)
    1  A    between atoms: C_2  and  C_11
    2  A    between atoms: N_3  and  C_4
    3  A    between atoms: C_4  and  C_5
    4  A    between atoms: C_16  and  C_17
                            x       y       z     vdW  Elec       q    Type
                         _______ _______ _______ _____ _____    ______ ____

>  <TORSDO>
F 4

$$$$
=
 OpenBabel07192307433D

 39 41  0  0  1  0  0  0  0  0999 V2000
    4.1660    3.6520   19.7540 C   0  0  2  0  0  0  0  0  0  0  0  0
    4.2340    2.1920   19.3230 C   0  0  0  0  0  0  0  0  0  0  0  0
    3.2980    2.0930   18.2440 N   0  0  0  0  0  0  0  0  0  0  0  0
    2.4040    3.1420   18.2170 C   0  0  0  0  0  0  0  0  0  0  0  0
    1.4830    3.2240   17.4210 O   0  0  0  0  0  0  0  0  0  0  0  0
    2.7280    4.0700   19.3700 C   0  0  2  0  0  0  0  0  0  0  0  0
    4.3260    3.7300   20.8370 H   0  0  0  0  0  0  0  0  0  0  0  0
    3.8830    1.5280   20.1210 H   0  0  0  0  0  0  0  0  0  0  0  0
    5.2180    1.8510   18.9890 H   0  0  0  0  0  0  0  0  0  0  0  0
    3.2350    1.3290   17.5820 H   0  0  0  0  0  0  0  0  0  0  0  0
    2.0540    3.7470   20.1780 H   0  0  0  0  0  0  0  0  0  0  0  0
    2.5010    5.5470   19.1880 C   0  0  0  0  0  0  0  0  0  0  0  0
    2.7550    6.2390   18.0080 C   0  0  0  0  0  0  0  0  0  0  0  0
    2.5120    7.6110   17.9580 C   0  0  0  0  0  0  0  0  0  0  0  0
    2.0230    8.2650   19.0800 C   0  0  0  0  0  0  0  0  0  0  0  0
    1.8060    7.5180   20.2200 C   0  0  0  0  0  0  0  0  0  0  0  0
    2.0470    6.1890   20.3040 N   0  0  0  0  0  0  0  0  0  0  0  0
    3.1370    5.7430   17.1210 H   0  0  0  0  0  0  0  0  0  0  0  0
    2.7000    8.1610   17.0390 H   0  0  0  0  0  0  0  0  0  0  0  0
    1.8200    9.3300   19.0650 H   0  0  0  0  0  0  0  0  0  0  0  0
    1.4320    7.9810   21.1290 H   0  0  0  0  0  0  0  0  0  0  0  0
    5.7160    5.5090   19.5600 O   0  0  0  0  0  0  0  0  0  0  0  0
    5.2620    4.4730   19.0830 C   0  0  0  0  0  0  0  0  0  0  0  0
    5.6870    3.9640   17.8770 N   0  0  0  0  0  0  0  0  0  0  0  0
    5.5140    2.9730   17.7100 H   0  0  0  0  0  0  0  0  0  0  0  0
    6.8250    4.5440   17.2050 C   0  0  0  0  0  0  0  0  0  0  0  0
    7.7280    4.0300   17.5560 H   0  0  0  0  0  0  0  0  0  0  0  0
    6.9170    5.5960   17.5000 H   0  0  0  0  0  0  0  0  0  0  0  0
    6.6870    4.4290   15.7100 C   0  0  0  0  0  0  0  0  0  0  0  0
    7.5930    5.0760   14.8580 C   0  0  0  0  0  0  0  0  0  0  0  0
    7.4740    4.9530   13.4720 C   0  0  0  0  0  0  0  0  0  0  0  0
    6.4500    4.1810   12.9260 C   0  0  0  0  0  0  0  0  0  0  0  0
    5.5450    3.5310   13.7630 C   0  0  0  0  0  0  0  0  0  0  0  0
    5.6620    3.6540   15.1480 C   0  0  0  0  0  0  0  0  0  0  0  0
    8.3990    5.6780   15.2700 H   0  0  0  0  0  0  0  0  0  0  0  0
    8.1770    5.4620   12.8200 H   0  0  0  0  0  0  0  0  0  0  0  0
    6.3550    4.0880   11.8470 H   0  0  0  0  0  0  0  0  0  0  0  0
    4.7460    2.9300   13.3370 H   0  0  0  0  0  0  0  0  0  0  0  0
    4.9520    3.1400   15.7930 H   0  0  0  0  0  0  0  0  0  0  0  0
  1  7  1  1  0  0  0
  2  1  1  0  0  0  0
  2  8  1  0  0  0  0
  3  2  1  0  0  0  0
  4  3  1  0  0  0  0
  4  6  1  0  0  0  0
  5  4  2  0  0  0  0
  6  1  1  0  0  0  0
  6 11  1  1  0  0  0
  9  2  1  0  0  0  0
 10  3  1  0  0  0  0
 12  6  1  0  0  0  0
 12 17  1  0  0  0  0
 13 12  2  0  0  0  0
 14 13  1  0  0  0  0
 14 15  2  0  0  0  0
 15 16  1  0  0  0  0
 16 17  2  0  0  0  0
 16 21  1  0  0  0  0
 18 13  1  0  0  0  0
 19 14  1  0  0  0  0
 20 15  1  0  0  0  0
 23 22  2  0  0  0  0
 23  1  1  0  0  0  0
 24 23  1  0  0  0  0
 25 24  1  0  0  0  0
 26 28  1  0  0  0  0
 26 27  1  0  0  0  0
 26 24  1  0  0  0  0
 29 26  1  0  0  0  0
 30 35  1  0  0  0  0
 30 29  2  0  0  0  0
 31 30  1  0  0  0  0
 32 31  2  0  0  0  0
 32 33  1  0  0  0  0
 33 34  2  0  0  0  0
 34 29  1  0  0  0  0
 34 39  1  0  0  0  0
 36 31  1  0  0  0  0
 37 32  1  0  0  0  0
 38 33  1  0  0  0  0
M  END
>  <MODEL>
10

>  <REMARK>
 VINA RESULT:    -6.934      1.728      5.155
 INTER + INTRA:          -8.799
 INTER:                  -8.616
 INTRA:                  -0.183
 UNBOUND:                -0.244
  Name = 
  4 active torsions:
  status: ('A' for Active; 'I' for Inactive)
    1  A    between atoms: C_2  and  C_11
    2  A    between atoms: N_3  and  C_4
    3  A    between atoms: C_4  and  C_5
    4  A    between atoms: C_16  and  C_17
                            x       y       z     vdW  Elec       q    Type
                         _______ _______ _______ _____ _____    ______ ____

>  <TORSDO>
F 4

$$$$
=
 OpenBabel07192307433D

 39 41  0  0  1  0  0  0  0  0999 V2000
    4.5760    3.4210   19.1140 C   0  0  2  0  0  0  0  0  0  0  0  0
    4.2600    2.2090   19.9800 C   0  0  0  0  0  0  0  0  0  0  0  0
    3.0330    2.5490   20.6370 N   0  0  0  0  0  0  0  0  0  0  0  0
    2.7730    3.9020   20.6110 C   0  0  0  0  0  0  0  0  0  0  0  0
    1.8150    4.4170   21.1650 O   0  0  0  0  0  0  0  0  0  0  0  0
    3.9050    4.5880   19.8740 C   0  0  2  0  0  0  0  0  0  0  0  0
    5.6640    3.5620   19.0520 H   0  0  0  0  0  0  0  0  0  0  0  0
    5.0180    2.0710   20.7590 H   0  0  0  0  0  0  0  0  0  0  0  0
    4.1380    1.2680   19.4370 H   0  0  0  0  0  0  0  0  0  0  0  0
    2.4200    1.9030   21.1200 H   0  0  0  0  0  0  0  0  0  0  0  0
    4.5920    4.9140   20.6700 H   0  0  0  0  0  0  0  0  0  0  0  0
    3.5910    5.8110   19.0540 C   0  0  0  0  0  0  0  0  0  0  0  0
    2.4200    6.5540   19.1730 C   0  0  0  0  0  0  0  0  0  0  0  0
    2.2340    7.6670   18.3540 C   0  0  0  0  0  0  0  0  0  0  0  0
    3.2130    8.0160   17.4350 C   0  0  0  0  0  0  0  0  0  0  0  0
    4.3440    7.2260   17.3620 C   0  0  0  0  0  0  0  0  0  0  0  0
    4.5450    6.1320   18.1320 N   0  0  0  0  0  0  0  0  0  0  0  0
    1.6450    6.2950   19.8870 H   0  0  0  0  0  0  0  0  0  0  0  0
    1.3270    8.2590   18.4430 H   0  0  0  0  0  0  0  0  0  0  0  0
    3.0960    8.8800   16.7900 H   0  0  0  0  0  0  0  0  0  0  0  0
    5.1360    7.4500   16.6540 H   0  0  0  0  0  0  0  0  0  0  0  0
    2.9740    2.7490   17.4210 O   0  0  0  0  0  0  0  0  0  0  0  0
    4.0720    3.2240   17.6890 C   0  0  0  0  0  0  0  0  0  0  0  0
    4.9710    3.6060   16.7180 N   0  0  0  0  0  0  0  0  0  0  0  0
    5.6940    4.2690   16.9960 H   0  0  0  0  0  0  0  0  0  0  0  0
    4.5750    3.6260   15.3300 C   0  0  0  0  0  0  0  0  0  0  0  0
    3.7100    4.2920   15.2300 H   0  0  0  0  0  0  0  0  0  0  0  0
    4.2460    2.6220   15.0380 H   0  0  0  0  0  0  0  0  0  0  0  0
    5.7100    4.0810   14.4500 C   0  0  0  0  0  0  0  0  0  0  0  0
    5.8370    3.5950   13.1410 C   0  0  0  0  0  0  0  0  0  0  0  0
    6.8780    4.0320   12.3220 C   0  0  0  0  0  0  0  0  0  0  0  0
    7.8010    4.9600   12.8010 C   0  0  0  0  0  0  0  0  0  0  0  0
    7.6840    5.4530   14.0990 C   0  0  0  0  0  0  0  0  0  0  0  0
    6.6430    5.0160   14.9200 C   0  0  0  0  0  0  0  0  0  0  0  0
    5.1220    2.8730   12.7520 H   0  0  0  0  0  0  0  0  0  0  0  0
    6.9720    3.6460   11.3100 H   0  0  0  0  0  0  0  0  0  0  0  0
    8.6140    5.2980   12.1630 H   0  0  0  0  0  0  0  0  0  0  0  0
    8.4030    6.1760   14.4730 H   0  0  0  0  0  0  0  0  0  0  0  0
    6.5580    5.4090   15.9310 H   0  0  0  0  0  0  0  0  0  0  0  0
  1  7  1  6  0  0  0
  1  6  1  0  0  0  0
  1  2  1  0  0  0  0
  2  3  1  0  0  0  0
  2  8  1  0  0  0  0
  3 10  1  0  0  0  0
  4  3  1  0  0  0  0
  4  5  2  0  0  0  0
  6  4  1  0  0  0  0
  6 11  1  1  0  0  0
  9  2  1  0  0  0  0
 12 13  1  0  0  0  0
 12  6  1  0  0  0  0
 13 18  1  0  0  0  0
 14 19  1  0  0  0  0
 14 13  2  0  0  0  0
 15 14  1  0  0  0  0
 16 15  2  0  0  0  0
 16 17  1  0  0  0  0
 17 12  2  0  0  0  0
 20 15  1  0  0  0  0
 21 16  1  0  0  0  0
 22 23  2  0  0  0  0
 23  1  1  0  0  0  0
 24 25  1  0  0  0  0
 24 23  1  0  0  0  0
 26 24  1  0  0  0  0
 27 26  1  0  0  0  0
 28 26  1  0  0  0  0
 29 34  1  0  0  0  0
 29 26  1  0  0  0  0
 30 29  2  0  0  0  0
 31 32  2  0  0  0  0
 31 30  1  0  0  0  0
 32 33  1  0  0  0  0
 33 38  1  0  0  0  0
 33 34  2  0  0  0  0
 34 39  1  0  0  0  0
 35 30  1  0  0  0  0
 36 31  1  0  0  0  0
 37 32  1  0  0  0  0
M  END
>  <MODEL>
11

>  <REMARK>
 VINA RESULT:    -6.702      2.183      5.406
 INTER + INTRA:          -8.513
 INTER:                  -8.066
 INTRA:                  -0.447
 UNBOUND:                -0.244
  Name = 
  4 active torsions:
  status: ('A' for Active; 'I' for Inactive)
    1  A    between atoms: C_2  and  C_11
    2  A    between atoms: N_3  and  C_4
    3  A    between atoms: C_4  and  C_5
    4  A    between atoms: C_16  and  C_17
                            x       y       z     vdW  Elec       q    Type
                         _______ _______ _______ _____ _____    ______ ____

>  <TORSDO>
F 4

$$$$
=
 OpenBabel07192307433D

 39 41  0  0  1  0  0  0  0  0999 V2000
    6.9630    4.6840   18.5970 C   0  0  2  0  0  0  0  0  0  0  0  0
    7.5460    5.5020   19.7430 C   0  0  0  0  0  0  0  0  0  0  0  0
    7.7310    6.8100   19.1910 N   0  0  0  0  0  0  0  0  0  0  0  0
    7.7260    6.8120   17.8120 C   0  0  0  0  0  0  0  0  0  0  0  0
    7.9300    7.8080   17.1370 O   0  0  0  0  0  0  0  0  0  0  0  0
    7.5180    5.3880   17.3380 C   0  0  2  0  0  0  0  0  0  0  0  0
    7.3170    3.6470   18.6610 H   0  0  0  0  0  0  0  0  0  0  0  0
    8.5340    5.1280   20.0320 H   0  0  0  0  0  0  0  0  0  0  0  0
    6.9180    5.5650   20.6360 H   0  0  0  0  0  0  0  0  0  0  0  0
    7.8980    7.6590   19.7190 H   0  0  0  0  0  0  0  0  0  0  0  0
    8.5360    5.0090   17.1580 H   0  0  0  0  0  0  0  0  0  0  0  0
    6.7460    5.1610   16.0650 C   0  0  0  0  0  0  0  0  0  0  0  0
    5.8000    6.0450   15.5550 C   0  0  0  0  0  0  0  0  0  0  0  0
    5.1420    5.7260   14.3680 C   0  0  0  0  0  0  0  0  0  0  0  0
    5.4360    4.5370   13.7160 C   0  0  0  0  0  0  0  0  0  0  0  0
    6.3750    3.7010   14.2870 C   0  0  0  0  0  0  0  0  0  0  0  0
    7.0200    3.9770   15.4440 N   0  0  0  0  0  0  0  0  0  0  0  0
    5.5600    6.9790   16.0520 H   0  0  0  0  0  0  0  0  0  0  0  0
    4.4060    6.4120   13.9550 H   0  0  0  0  0  0  0  0  0  0  0  0
    4.9420    4.2680   12.7890 H   0  0  0  0  0  0  0  0  0  0  0  0
    6.6360    2.7550   13.8220 H   0  0  0  0  0  0  0  0  0  0  0  0
    4.7670    5.5010   19.2280 O   0  0  0  0  0  0  0  0  0  0  0  0
    5.4410    4.6380   18.6750 C   0  0  0  0  0  0  0  0  0  0  0  0
    4.8830    3.5260   18.0870 N   0  0  0  0  0  0  0  0  0  0  0  0
    5.4470    3.0410   17.3900 H   0  0  0  0  0  0  0  0  0  0  0  0
    3.4500    3.4220   17.9430 C   0  0  0  0  0  0  0  0  0  0  0  0
    3.2350    2.6000   17.2510 H   0  0  0  0  0  0  0  0  0  0  0  0
    3.0700    4.3410   17.4810 H   0  0  0  0  0  0  0  0  0  0  0  0
    2.7870    3.1940   19.2750 C   0  0  0  0  0  0  0  0  0  0  0  0
    3.4420    2.4740   20.2850 C   0  0  0  0  0  0  0  0  0  0  0  0
    2.8340    2.2800   21.5260 C   0  0  0  0  0  0  0  0  0  0  0  0
    1.5660    2.8050   21.7710 C   0  0  0  0  0  0  0  0  0  0  0  0
    0.9060    3.5240   20.7770 C   0  0  0  0  0  0  0  0  0  0  0  0
    1.5130    3.7190   19.5350 C   0  0  0  0  0  0  0  0  0  0  0  0
    4.4340    2.0620   20.1090 H   0  0  0  0  0  0  0  0  0  0  0  0
    3.3480    1.7170   22.3000 H   0  0  0  0  0  0  0  0  0  0  0  0
    1.0920    2.6510   22.7370 H   0  0  0  0  0  0  0  0  0  0  0  0
   -0.0820    3.9330   20.9680 H   0  0  0  0  0  0  0  0  0  0  0  0
    0.9900    4.2840   18.7670 H   0  0  0  0  0  0  0  0  0  0  0  0
  1  7  1  1  0  0  0
  1 23  1  0  0  0  0
  1  2  1  0  0  0  0
  2  8  1  0  0  0  0
  2  9  1  0  0  0  0
  3 10  1  0  0  0  0
  3  2  1  0  0  0  0
  4  3  1  0  0  0  0
  5  4  2  0  0  0  0
  6 11  1  6  0  0  0
  6  4  1  0  0  0  0
  6  1  1  0  0  0  0
 12  6  1  0  0  0  0
 13 18  1  0  0  0  0
 13 12  1  0  0  0  0
 14 13  2  0  0  0  0
 15 16  2  0  0  0  0
 15 14  1  0  0  0  0
 16 17  1  0  0  0  0
 17 12  2  0  0  0  0
 19 14  1  0  0  0  0
 20 15  1  0  0  0  0
 21 16  1  0  0  0  0
 23 22  2  0  0  0  0
 24 23  1  0  0  0  0
 25 24  1  0  0  0  0
 26 24  1  0  0  0  0
 26 29  1  0  0  0  0
 27 26  1  0  0  0  0
 28 26  1  0  0  0  0
 29 34  2  0  0  0  0
 29 30  1  0  0  0  0
 30 31  2  0  0  0  0
 31 32  1  0  0  0  0
 31 36  1  0  0  0  0
 32 37  1  0  0  0  0
 33 38  1  0  0  0  0
 33 32  2  0  0  0  0
 34 33  1  0  0  0  0
 35 30  1  0  0  0  0
 39 34  1  0  0  0  0
M  END
>  <MODEL>
12

>  <REMARK>
 VINA RESULT:    -6.570      2.185      3.418
 INTER + INTRA:          -8.350
 INTER:                  -7.966
 INTRA:                  -0.383
 UNBOUND:                -0.244
  Name = 
  4 active torsions:
  status: ('A' for Active; 'I' for Inactive)
    1  A    between atoms: C_2  and  C_11
    2  A    between atoms: N_3  and  C_4
    3  A    between atoms: C_4  and  C_5
    4  A    between atoms: C_16  and  C_17
                            x       y       z     vdW  Elec       q    Type
                         _______ _______ _______ _____ _____    ______ ____

>  <TORSDO>
F 4

$$$$
=
 OpenBabel07192307433D

 39 41  0  0  1  0  0  0  0  0999 V2000
    4.2260    6.4910   18.1920 C   0  0  2  0  0  0  0  0  0  0  0  0
    5.1500    6.6720   16.9940 C   0  0  0  0  0  0  0  0  0  0  0  0
    5.0540    5.4350   16.2780 N   0  0  0  0  0  0  0  0  0  0  0  0
    4.5410    4.4130   17.0480 C   0  0  0  0  0  0  0  0  0  0  0  0
    4.4330    3.2630   16.6570 O   0  0  0  0  0  0  0  0  0  0  0  0
    4.2430    4.9640   18.4270 C   0  0  2  0  0  0  0  0  0  0  0  0
    4.6290    7.0310   19.0590 H   0  0  0  0  0  0  0  0  0  0  0  0
    6.1920    6.7840   17.3120 H   0  0  0  0  0  0  0  0  0  0  0  0
    4.8930    7.5020   16.3300 H   0  0  0  0  0  0  0  0  0  0  0  0
    5.3620    5.2750   15.3260 H   0  0  0  0  0  0  0  0  0  0  0  0
    5.1400    4.7210   19.0180 H   0  0  0  0  0  0  0  0  0  0  0  0
    3.0680    4.4040   19.1850 C   0  0  0  0  0  0  0  0  0  0  0  0
    2.7500    4.7430   20.4970 C   0  0  0  0  0  0  0  0  0  0  0  0
    1.6390    4.1550   21.1010 C   0  0  0  0  0  0  0  0  0  0  0  0
    0.8720    3.2430   20.3910 C   0  0  0  0  0  0  0  0  0  0  0  0
    1.2540    2.9430   19.0990 C   0  0  0  0  0  0  0  0  0  0  0  0
    2.3350    3.4860   18.4910 N   0  0  0  0  0  0  0  0  0  0  0  0
    3.3390    5.4560   21.0660 H   0  0  0  0  0  0  0  0  0  0  0  0
    1.3760    4.4180   22.1230 H   0  0  0  0  0  0  0  0  0  0  0  0
    0.0000    2.7760   20.8360 H   0  0  0  0  0  0  0  0  0  0  0  0
    0.6940    2.2300   18.5020 H   0  0  0  0  0  0  0  0  0  0  0  0
    1.9240    6.4200   17.4280 O   0  0  0  0  0  0  0  0  0  0  0  0
    2.8440    7.0710   17.9120 C   0  0  0  0  0  0  0  0  0  0  0  0
    2.7210    8.4050   18.2300 N   0  0  0  0  0  0  0  0  0  0  0  0
    3.3870    8.7810   18.9040 H   0  0  0  0  0  0  0  0  0  0  0  0
    1.4300    9.0500   18.1690 C   0  0  0  0  0  0  0  0  0  0  0  0
    0.7440    8.3900   17.6250 H   0  0  0  0  0  0  0  0  0  0  0  0
    1.5210    9.9740   17.5850 H   0  0  0  0  0  0  0  0  0  0  0  0
    0.9100    9.3510   19.5490 C   0  0  0  0  0  0  0  0  0  0  0  0
    1.2600    8.5390   20.6370 C   0  0  0  0  0  0  0  0  0  0  0  0
    0.7920    8.8310   21.9190 C   0  0  0  0  0  0  0  0  0  0  0  0
   -0.0270    9.9390   22.1270 C   0  0  0  0  0  0  0  0  0  0  0  0
   -0.3800   10.7560   21.0540 C   0  0  0  0  0  0  0  0  0  0  0  0
    0.0870   10.4650   19.7710 C   0  0  0  0  0  0  0  0  0  0  0  0
    1.9020    7.6730   20.4900 H   0  0  0  0  0  0  0  0  0  0  0  0
    1.0640    8.1930   22.7550 H   0  0  0  0  0  0  0  0  0  0  0  0
   -0.3940   10.1650   23.1250 H   0  0  0  0  0  0  0  0  0  0  0  0
   -1.0190   11.6190   21.2160 H   0  0  0  0  0  0  0  0  0  0  0  0
   -0.1910   11.1110   18.9410 H   0  0  0  0  0  0  0  0  0  0  0  0
  1  6  1  0  0  0  0
  1  7  1  1  0  0  0
  2  8  1  0  0  0  0
  2  1  1  0  0  0  0
  3  2  1  0  0  0  0
  3  4  1  0  0  0  0
  4  6  1  0  0  0  0
  5  4  2  0  0  0  0
  6 11  1  1  0  0  0
  6 12  1  0  0  0  0
  9  2  1  0  0  0  0
 10  3  1  0  0  0  0
 12 13  1  0  0  0  0
 13 18  1  0  0  0  0
 13 14  2  0  0  0  0
 14 19  1  0  0  0  0
 15 20  1  0  0  0  0
 15 14  1  0  0  0  0
 16 15  2  0  0  0  0
 17 16  1  0  0  0  0
 17 12  2  0  0  0  0
 21 16  1  0  0  0  0
 22 23  2  0  0  0  0
 23  1  1  0  0  0  0
 23 24  1  0  0  0  0
 24 25  1  0  0  0  0
 26 24  1  0  0  0  0
 26 29  1  0  0  0  0
 27 26  1  0  0  0  0
 28 26  1  0  0  0  0
 29 34  2  0  0  0  0
 29 30  1  0  0  0  0
 30 31  2  0  0  0  0
 31 32  1  0  0  0  0
 31 36  1  0  0  0  0
 32 37  1  0  0  0  0
 33 38  1  0  0  0  0
 33 32  2  0  0  0  0
 34 33  1  0  0  0  0
 35 30  1  0  0  0  0
 39 34  1  0  0  0  0
M  END
>  <MODEL>
13

>  <REMARK>
 VINA RESULT:    -6.445      2.384      5.116
 INTER + INTRA:          -8.196
 INTER:                  -8.236
 INTRA:                   0.039
 UNBOUND:                -0.244
  Name = 
  4 active torsions:
  status: ('A' for Active; 'I' for Inactive)
    1  A    between atoms: C_2  and  C_11
    2  A    between atoms: N_3  and  C_4
    3  A    between atoms: C_4  and  C_5
    4  A    between atoms: C_16  and  C_17
                            x       y       z     vdW  Elec       q    Type
                         _______ _______ _______ _____ _____    ______ ____

>  <TORSDO>
F 4

$$$$
=
 OpenBabel07192307433D

 39 41  0  0  1  0  0  0  0  0999 V2000
    4.9640    6.1970   18.0380 C   0  0  2  0  0  0  0  0  0  0  0  0
    5.8410    6.8780   16.9950 C   0  0  0  0  0  0  0  0  0  0  0  0
    5.9790    5.9040   15.9540 N   0  0  0  0  0  0  0  0  0  0  0  0
    5.6640    4.6290   16.3730 C   0  0  0  0  0  0  0  0  0  0  0  0
    5.7740    3.6400   15.6670 O   0  0  0  0  0  0  0  0  0  0  0  0
    5.2650    4.6960   17.8320 C   0  0  2  0  0  0  0  0  0  0  0  0
    5.2570    6.5270   19.0440 H   0  0  0  0  0  0  0  0  0  0  0  0
    6.8430    7.0770   17.3900 H   0  0  0  0  0  0  0  0  0  0  0  0
    5.4350    7.8050   16.5800 H   0  0  0  0  0  0  0  0  0  0  0  0
    6.3150    6.0830   15.0150 H   0  0  0  0  0  0  0  0  0  0  0  0
    6.1900    4.4570   18.3800 H   0  0  0  0  0  0  0  0  0  0  0  0
    4.2140    3.7410   18.3330 C   0  0  0  0  0  0  0  0  0  0  0  0
    3.9570    3.4950   19.6790 C   0  0  0  0  0  0  0  0  0  0  0  0
    2.9610    2.5830   20.0260 C   0  0  0  0  0  0  0  0  0  0  0  0
    2.2440    1.9350   19.0300 C   0  0  0  0  0  0  0  0  0  0  0  0
    2.5600    2.2180   17.7160 C   0  0  0  0  0  0  0  0  0  0  0  0
    3.5310    3.0870   17.3490 N   0  0  0  0  0  0  0  0  0  0  0  0
    4.5080    3.9940   20.4700 H   0  0  0  0  0  0  0  0  0  0  0  0
    2.7470    2.3880   21.0740 H   0  0  0  0  0  0  0  0  0  0  0  0
    1.4600    1.2260   19.2730 H   0  0  0  0  0  0  0  0  0  0  0  0
    2.0360    1.7330   16.8990 H   0  0  0  0  0  0  0  0  0  0  0  0
    2.5990    5.7550   17.7240 O   0  0  0  0  0  0  0  0  0  0  0  0
    3.4990    6.5780   17.8570 C   0  0  0  0  0  0  0  0  0  0  0  0
    3.2710    7.9350   17.8310 N   0  0  0  0  0  0  0  0  0  0  0  0
    3.9800    8.5290   18.2590 H   0  0  0  0  0  0  0  0  0  0  0  0
    1.9200    8.4450   17.8250 C   0  0  0  0  0  0  0  0  0  0  0  0
    1.2570    7.6510   17.4620 H   0  0  0  0  0  0  0  0  0  0  0  0
    1.8540    9.2730   17.1090 H   0  0  0  0  0  0  0  0  0  0  0  0
    1.5090    8.9070   19.1970 C   0  0  0  0  0  0  0  0  0  0  0  0
    0.9580   10.1820   19.3870 C   0  0  0  0  0  0  0  0  0  0  0  0
    0.5610   10.6010   20.6570 C   0  0  0  0  0  0  0  0  0  0  0  0
    0.7080    9.7490   21.7500 C   0  0  0  0  0  0  0  0  0  0  0  0
    1.2510    8.4780   21.5750 C   0  0  0  0  0  0  0  0  0  0  0  0
    1.6490    8.0580   20.3050 C   0  0  0  0  0  0  0  0  0  0  0  0
    0.8340   10.8570   18.5420 H   0  0  0  0  0  0  0  0  0  0  0  0
    0.1400   11.5940   20.7940 H   0  0  0  0  0  0  0  0  0  0  0  0
    0.4010   10.0770   22.7400 H   0  0  0  0  0  0  0  0  0  0  0  0
    1.3650    7.8140   22.4270 H   0  0  0  0  0  0  0  0  0  0  0  0
    2.0690    7.0620   20.1780 H   0  0  0  0  0  0  0  0  0  0  0  0
  1  7  1  1  0  0  0
  2  8  1  0  0  0  0
  2  1  1  0  0  0  0
  3  4  1  0  0  0  0
  3  2  1  0  0  0  0
  4  6  1  0  0  0  0
  5  4  2  0  0  0  0
  6  1  1  0  0  0  0
  6 12  1  0  0  0  0
  6 11  1  1  0  0  0
  9  2  1  0  0  0  0
 10  3  1  0  0  0  0
 12 13  1  0  0  0  0
 13 14  2  0  0  0  0
 13 18  1  0  0  0  0
 14 19  1  0  0  0  0
 15 20  1  0  0  0  0
 15 14  1  0  0  0  0
 16 15  2  0  0  0  0
 17 16  1  0  0  0  0
 17 12  2  0  0  0  0
 21 16  1  0  0  0  0
 22 23  2  0  0  0  0
 23  1  1  0  0  0  0
 24 23  1  0  0  0  0
 24 25  1  0  0  0  0
 26 24  1  0  0  0  0
 26 29  1  0  0  0  0
 27 26  1  0  0  0  0
 28 26  1  0  0  0  0
 29 30  2  0  0  0  0
 29 34  1  0  0  0  0
 30 31  1  0  0  0  0
 31 36  1  0  0  0  0
 31 32  2  0  0  0  0
 32 37  1  0  0  0  0
 33 32  1  0  0  0  0
 33 38  1  0  0  0  0
 34 33  2  0  0  0  0
 35 30  1  0  0  0  0
 39 34  1  0  0  0  0
M  END
>  <MODEL>
14

>  <REMARK>
 VINA RESULT:    -6.370      2.029      4.984
 INTER + INTRA:          -8.103
 INTER:                  -8.863
 INTRA:                   0.760
 UNBOUND:                -0.244
  Name = 
  4 active torsions:
  status: ('A' for Active; 'I' for Inactive)
    1  A    between atoms: C_2  and  C_11
    2  A    between atoms: N_3  and  C_4
    3  A    between atoms: C_4  and  C_5
    4  A    between atoms: C_16  and  C_17
                            x       y       z     vdW  Elec       q    Type
                         _______ _______ _______ _____ _____    ______ ____

>  <TORSDO>
F 4

$$$$
=
 OpenBabel07192307433D

 39 41  0  0  1  0  0  0  0  0999 V2000
   -2.3010   13.8970   21.5290 C   0  0  2  0  0  0  0  0  0  0  0  0
   -2.2560   15.1940   20.7310 C   0  0  0  0  0  0  0  0  0  0  0  0
   -1.2210   14.9830   19.7640 N   0  0  0  0  0  0  0  0  0  0  0  0
   -0.3830   13.9410   20.1000 C   0  0  0  0  0  0  0  0  0  0  0  0
    0.6010   13.6300   19.4500 O   0  0  0  0  0  0  0  0  0  0  0  0
   -0.8580   13.3570   21.4140 C   0  0  2  0  0  0  0  0  0  0  0  0
   -2.5640   14.1110   22.5740 H   0  0  0  0  0  0  0  0  0  0  0  0
   -1.9460   16.0350   21.3610 H   0  0  0  0  0  0  0  0  0  0  0  0
   -3.1870   15.4600   20.2220 H   0  0  0  0  0  0  0  0  0  0  0  0
   -1.0590   15.5440   18.9360 H   0  0  0  0  0  0  0  0  0  0  0  0
   -0.2450   13.8640   22.1760 H   0  0  0  0  0  0  0  0  0  0  0  0
   -0.6900   11.8790   21.6450 C   0  0  0  0  0  0  0  0  0  0  0  0
   -0.3620   10.9630   20.6500 C   0  0  0  0  0  0  0  0  0  0  0  0
   -0.2390    9.6140   20.9790 C   0  0  0  0  0  0  0  0  0  0  0  0
   -0.4470    9.2040   22.2890 C   0  0  0  0  0  0  0  0  0  0  0  0
   -0.7830   10.1650   23.2220 C   0  0  0  0  0  0  0  0  0  0  0  0
   -0.9240   11.4780   22.9290 N   0  0  0  0  0  0  0  0  0  0  0  0
   -0.1950   11.2680   19.6210 H   0  0  0  0  0  0  0  0  0  0  0  0
    0.0250    8.8910   20.2120 H   0  0  0  0  0  0  0  0  0  0  0  0
   -0.3520    8.1620   22.5730 H   0  0  0  0  0  0  0  0  0  0  0  0
   -0.9650    9.8970   24.2590 H   0  0  0  0  0  0  0  0  0  0  0  0
   -4.1990   12.3940   21.6970 O   0  0  0  0  0  0  0  0  0  0  0  0
   -3.3720   12.9560   20.9870 C   0  0  0  0  0  0  0  0  0  0  0  0
   -3.3190   12.7720   19.6240 N   0  0  0  0  0  0  0  0  0  0  0  0
   -2.8430   13.4920   19.0800 H   0  0  0  0  0  0  0  0  0  0  0  0
   -4.3620   12.0370   18.9490 C   0  0  0  0  0  0  0  0  0  0  0  0
   -5.1320   12.7490   18.6320 H   0  0  0  0  0  0  0  0  0  0  0  0
   -4.8310   11.3480   19.6610 H   0  0  0  0  0  0  0  0  0  0  0  0
   -3.8120   11.2760   17.7710 C   0  0  0  0  0  0  0  0  0  0  0  0
   -4.4150   11.3820   16.5090 C   0  0  0  0  0  0  0  0  0  0  0  0
   -3.8930   10.6910   15.4150 C   0  0  0  0  0  0  0  0  0  0  0  0
   -2.7620    9.8900   15.5700 C   0  0  0  0  0  0  0  0  0  0  0  0
   -2.1530    9.7800   16.8180 C   0  0  0  0  0  0  0  0  0  0  0  0
   -2.6740   10.4700   17.9140 C   0  0  0  0  0  0  0  0  0  0  0  0
   -5.2950   12.0060   16.3730 H   0  0  0  0  0  0  0  0  0  0  0  0
   -4.3700   10.7750   14.4420 H   0  0  0  0  0  0  0  0  0  0  0  0
   -2.3580    9.3500   14.7180 H   0  0  0  0  0  0  0  0  0  0  0  0
   -1.2720    9.1550   16.9390 H   0  0  0  0  0  0  0  0  0  0  0  0
   -2.1890   10.3790   18.8830 H   0  0  0  0  0  0  0  0  0  0  0  0
  1  7  1  1  0  0  0
  2  8  1  0  0  0  0
  2  1  1  0  0  0  0
  3  4  1  0  0  0  0
  3  2  1  0  0  0  0
  4  6  1  0  0  0  0
  5  4  2  0  0  0  0
  6  1  1  0  0  0  0
  6 12  1  0  0  0  0
  6 11  1  1  0  0  0
  9  2  1  0  0  0  0
 10  3  1  0  0  0  0
 12 17  1  0  0  0  0
 13 14  1  0  0  0  0
 13 12  2  0  0  0  0
 14 15  2  0  0  0  0
 15 20  1  0  0  0  0
 15 16  1  0  0  0  0
 16 21  1  0  0  0  0
 17 16  2  0  0  0  0
 18 13  1  0  0  0  0
 19 14  1  0  0  0  0
 23  1  1  0  0  0  0
 23 22  2  0  0  0  0
 24 23  1  0  0  0  0
 25 24  1  0  0  0  0
 26 24  1  0  0  0  0
 26 28  1  0  0  0  0
 27 26  1  0  0  0  0
 29 34  1  0  0  0  0
 29 26  1  0  0  0  0
 30 29  2  0  0  0  0
 31 32  2  0  0  0  0
 31 30  1  0  0  0  0
 32 33  1  0  0  0  0
 33 38  1  0  0  0  0
 33 34  2  0  0  0  0
 34 39  1  0  0  0  0
 35 30  1  0  0  0  0
 36 31  1  0  0  0  0
 37 32  1  0  0  0  0
M  END
>  <MODEL>
15

>  <REMARK>
 VINA RESULT:    -6.275      8.267     10.700
 INTER + INTRA:          -7.986
 INTER:                  -7.691
 INTRA:                  -0.295
 UNBOUND:                -0.244
  Name = 
  4 active torsions:
  status: ('A' for Active; 'I' for Inactive)
    1  A    between atoms: C_2  and  C_11
    2  A    between atoms: N_3  and  C_4
    3  A    between atoms: C_4  and  C_5
    4  A    between atoms: C_16  and  C_17
                            x       y       z     vdW  Elec       q    Type
                         _______ _______ _______ _____ _____    ______ ____

>  <TORSDO>
F 4

$$$$
=
 OpenBabel07192307433D

 39 41  0  0  1  0  0  0  0  0999 V2000
    2.5240    6.4040   17.7860 C   0  0  2  0  0  0  0  0  0  0  0  0
    2.6190    7.9230   17.8640 C   0  0  0  0  0  0  0  0  0  0  0  0
    2.4680    8.2190   19.2570 N   0  0  0  0  0  0  0  0  0  0  0  0
    1.9110    7.1760   19.9660 C   0  0  0  0  0  0  0  0  0  0  0  0
    1.6350    7.2370   21.1520 O   0  0  0  0  0  0  0  0  0  0  0  0
    1.6440    6.0380   19.0020 C   0  0  2  0  0  0  0  0  0  0  0  0
    2.0440    6.1080   16.8440 H   0  0  0  0  0  0  0  0  0  0  0  0
    1.7840    8.3980   17.3370 H   0  0  0  0  0  0  0  0  0  0  0  0
    3.5560    8.3500   17.4970 H   0  0  0  0  0  0  0  0  0  0  0  0
    2.6880    9.1020   19.7030 H   0  0  0  0  0  0  0  0  0  0  0  0
    0.5900    6.1700   18.7090 H   0  0  0  0  0  0  0  0  0  0  0  0
    1.7740    4.6250   19.5050 C   0  0  0  0  0  0  0  0  0  0  0  0
    1.4010    3.4980   18.7780 C   0  0  0  0  0  0  0  0  0  0  0  0
    1.5620    2.2370   19.3500 C   0  0  0  0  0  0  0  0  0  0  0  0
    2.0870    2.1230   20.6290 C   0  0  0  0  0  0  0  0  0  0  0  0
    2.4230    3.2840   21.2970 C   0  0  0  0  0  0  0  0  0  0  0  0
    2.2650    4.5220   20.7740 N   0  0  0  0  0  0  0  0  0  0  0  0
    0.9900    3.5700   17.7770 H   0  0  0  0  0  0  0  0  0  0  0  0
    1.2820    1.3490   18.7890 H   0  0  0  0  0  0  0  0  0  0  0  0
    2.2280    1.1530   21.0940 H   0  0  0  0  0  0  0  0  0  0  0  0
    2.8300    3.2510   22.3030 H   0  0  0  0  0  0  0  0  0  0  0  0
    4.6820    5.8450   18.7460 O   0  0  0  0  0  0  0  0  0  0  0  0
    3.9100    5.7670   17.7950 C   0  0  0  0  0  0  0  0  0  0  0  0
    4.2330    5.1110   16.6300 N   0  0  0  0  0  0  0  0  0  0  0  0
    3.4580    4.8140   16.0380 H   0  0  0  0  0  0  0  0  0  0  0  0
    5.4430    4.3270   16.5490 C   0  0  0  0  0  0  0  0  0  0  0  0
    5.2120    3.3080   16.8810 H   0  0  0  0  0  0  0  0  0  0  0  0
    6.1810    4.7350   17.2500 H   0  0  0  0  0  0  0  0  0  0  0  0
    5.9960    4.3270   15.1490 C   0  0  0  0  0  0  0  0  0  0  0  0
    7.1570    5.0490   14.8400 C   0  0  0  0  0  0  0  0  0  0  0  0
    7.6780    5.0320   13.5450 C   0  0  0  0  0  0  0  0  0  0  0  0
    7.0460    4.2920   12.5480 C   0  0  0  0  0  0  0  0  0  0  0  0
    5.8930    3.5670   12.8430 C   0  0  0  0  0  0  0  0  0  0  0  0
    5.3700    3.5840   14.1370 C   0  0  0  0  0  0  0  0  0  0  0  0
    7.6630    5.6280   15.6090 H   0  0  0  0  0  0  0  0  0  0  0  0
    8.5760    5.6000   13.3140 H   0  0  0  0  0  0  0  0  0  0  0  0
    7.4510    4.2820   11.5390 H   0  0  0  0  0  0  0  0  0  0  0  0
    5.4000    2.9910   12.0660 H   0  0  0  0  0  0  0  0  0  0  0  0
    4.4710    3.0120   14.3580 H   0  0  0  0  0  0  0  0  0  0  0  0
  1  7  1  6  0  0  0
  1 23  1  0  0  0  0
  1  2  1  0  0  0  0
  1  6  1  0  0  0  0
  2  3  1  0  0  0  0
  3 10  1  0  0  0  0
  3  4  1  0  0  0  0
  4  5  2  0  0  0  0
  6 11  1  6  0  0  0
  6 12  1  0  0  0  0
  6  4  1  0  0  0  0
  8  2  1  0  0  0  0
  9  2  1  0  0  0  0
 12 17  1  0  0  0  0
 13 14  1  0  0  0  0
 13 12  2  0  0  0  0
 14 15  2  0  0  0  0
 15 20  1  0  0  0  0
 15 16  1  0  0  0  0
 16 21  1  0  0  0  0
 17 16  2  0  0  0  0
 18 13  1  0  0  0  0
 19 14  1  0  0  0  0
 23 22  2  0  0  0  0
 24 23  1  0  0  0  0
 25 24  1  0  0  0  0
 26 24  1  0  0  0  0
 26 27  1  0  0  0  0
 26 28  1  0  0  0  0
 29 26  1  0  0  0  0
 30 29  1  0  0  0  0
 30 35  1  0  0  0  0
 31 30  2  0  0  0  0
 32 33  2  0  0  0  0
 32 31  1  0  0  0  0
 33 34  1  0  0  0  0
 34 39  1  0  0  0  0
 34 29  2  0  0  0  0
 36 31  1  0  0  0  0
 37 32  1  0  0  0  0
 38 33  1  0  0  0  0
M  END
>  <MODEL>
16

>  <REMARK>
 VINA RESULT:    -6.245      2.313      5.798
 INTER + INTRA:          -7.949
 INTER:                  -7.667
 INTRA:                  -0.282
 UNBOUND:                -0.244
  Name = 
  4 active torsions:
  status: ('A' for Active; 'I' for Inactive)
    1  A    between atoms: C_2  and  C_11
    2  A    between atoms: N_3  and  C_4
    3  A    between atoms: C_4  and  C_5
    4  A    between atoms: C_16  and  C_17
                            x       y       z     vdW  Elec       q    Type
                         _______ _______ _______ _____ _____    ______ ____

>  <TORSDO>
F 4

$$$$
=
 OpenBabel07192307433D

 39 41  0  0  1  0  0  0  0  0999 V2000
    1.7960    4.5920   19.0170 C   0  0  2  0  0  0  0  0  0  0  0  0
    1.0850    4.2540   20.3210 C   0  0  0  0  0  0  0  0  0  0  0  0
    2.0840    3.6000   21.1130 N   0  0  0  0  0  0  0  0  0  0  0  0
    3.1460    3.1450   20.3610 C   0  0  0  0  0  0  0  0  0  0  0  0
    4.0760    2.5050   20.8240 O   0  0  0  0  0  0  0  0  0  0  0  0
    2.8880    3.5040   18.9120 C   0  0  2  0  0  0  0  0  0  0  0  0
    1.0890    4.5270   18.1790 H   0  0  0  0  0  0  0  0  0  0  0  0
    0.2780    3.5320   20.1560 H   0  0  0  0  0  0  0  0  0  0  0  0
    0.6850    5.1110   20.8690 H   0  0  0  0  0  0  0  0  0  0  0  0
    2.0320    3.4290   22.1100 H   0  0  0  0  0  0  0  0  0  0  0  0
    2.4260    2.6000   18.4850 H   0  0  0  0  0  0  0  0  0  0  0  0
    4.0650    3.8370   18.0340 C   0  0  0  0  0  0  0  0  0  0  0  0
    4.0430    3.7880   16.6440 C   0  0  0  0  0  0  0  0  0  0  0  0
    5.1970    4.1130   15.9330 C   0  0  0  0  0  0  0  0  0  0  0  0
    6.3480    4.4760   16.6180 C   0  0  0  0  0  0  0  0  0  0  0  0
    6.3010    4.4910   17.9980 C   0  0  0  0  0  0  0  0  0  0  0  0
    5.2010    4.1660   18.7150 N   0  0  0  0  0  0  0  0  0  0  0  0
    3.1510    3.5070   16.0920 H   0  0  0  0  0  0  0  0  0  0  0  0
    5.1900    4.0860   14.8460 H   0  0  0  0  0  0  0  0  0  0  0  0
    7.2570    4.7390   16.0890 H   0  0  0  0  0  0  0  0  0  0  0  0
    7.1760    4.7590   18.5840 H   0  0  0  0  0  0  0  0  0  0  0  0
    3.2750    6.3980   18.3530 O   0  0  0  0  0  0  0  0  0  0  0  0
    2.3290    6.0210   19.0370 C   0  0  0  0  0  0  0  0  0  0  0  0
    1.6690    6.8540   19.9120 N   0  0  0  0  0  0  0  0  0  0  0  0
    0.7270    6.5770   20.1880 H   0  0  0  0  0  0  0  0  0  0  0  0
    1.9570    8.2690   19.9250 C   0  0  0  0  0  0  0  0  0  0  0  0
    1.8960    8.6390   18.8950 H   0  0  0  0  0  0  0  0  0  0  0  0
    2.9890    8.4200   20.2630 H   0  0  0  0  0  0  0  0  0  0  0  0
    0.9990    9.0070   20.8210 C   0  0  0  0  0  0  0  0  0  0  0  0
    0.6360    8.4790   22.0680 C   0  0  0  0  0  0  0  0  0  0  0  0
   -0.2370    9.1740   22.9060 C   0  0  0  0  0  0  0  0  0  0  0  0
   -0.7540   10.4050   22.5070 C   0  0  0  0  0  0  0  0  0  0  0  0
   -0.3990   10.9420   21.2710 C   0  0  0  0  0  0  0  0  0  0  0  0
    0.4730   10.2480   20.4320 C   0  0  0  0  0  0  0  0  0  0  0  0
    1.0350    7.5210   22.3950 H   0  0  0  0  0  0  0  0  0  0  0  0
   -0.5160    8.7530   23.8680 H   0  0  0  0  0  0  0  0  0  0  0  0
   -1.4370   10.9450   23.1590 H   0  0  0  0  0  0  0  0  0  0  0  0
   -0.8030   11.9020   20.9600 H   0  0  0  0  0  0  0  0  0  0  0  0
    0.7470   10.6780   19.4710 H   0  0  0  0  0  0  0  0  0  0  0  0
  1  7  1  6  0  0  0
  1 23  1  0  0  0  0
  1  2  1  0  0  0  0
  2  9  1  0  0  0  0
  2  3  1  0  0  0  0
  3 10  1  0  0  0  0
  4  5  2  0  0  0  0
  4  3  1  0  0  0  0
  6 11  1  6  0  0  0
  6  1  1  0  0  0  0
  6  4  1  0  0  0  0
  8  2  1  0  0  0  0
 12 17  1  0  0  0  0
 12  6  1  0  0  0  0
 13 12  2  0  0  0  0
 14 15  2  0  0  0  0
 14 13  1  0  0  0  0
 15 16  1  0  0  0  0
 16 21  1  0  0  0  0
 16 17  2  0  0  0  0
 18 13  1  0  0  0  0
 19 14  1  0  0  0  0
 20 15  1  0  0  0  0
 22 23  2  0  0  0  0
 23 24  1  0  0  0  0
 24 26  1  0  0  0  0
 24 25  1  0  0  0  0
 26 28  1  0  0  0  0
 26 29  1  0  0  0  0
 27 26  1  0  0  0  0
 29 30  1  0  0  0  0
 30 35  1  0  0  0  0
 30 31  2  0  0  0  0
 31 36  1  0  0  0  0
 32 31  1  0  0  0  0
 32 37  1  0  0  0  0
 33 32  2  0  0  0  0
 34 29  2  0  0  0  0
 34 33  1  0  0  0  0
 38 33  1  0  0  0  0
 39 34  1  0  0  0  0
M  END
>  <MODEL>
17

>  <REMARK>
 VINA RESULT:    -6.121      2.828      5.727
 INTER + INTRA:          -7.796
 INTER:                  -8.390
 INTRA:                   0.593
 UNBOUND:                -0.244
  Name = 
  4 active torsions:
  status: ('A' for Active; 'I' for Inactive)
    1  A    between atoms: C_2  and  C_11
    2  A    between atoms: N_3  and  C_4
    3  A    between atoms: C_4  and  C_5
    4  A    between atoms: C_16  and  C_17
                            x       y       z     vdW  Elec       q    Type
                         _______ _______ _______ _____ _____    ______ ____

>  <TORSDO>
F 4

$$$$
=
 OpenBabel07192307433D

 39 41  0  0  1  0  0  0  0  0999 V2000
   -0.6930   13.2350   22.1040 C   0  0  2  0  0  0  0  0  0  0  0  0
   -1.0230   13.9460   23.4100 C   0  0  0  0  0  0  0  0  0  0  0  0
   -2.4160   14.2620   23.3020 N   0  0  0  0  0  0  0  0  0  0  0  0
   -2.8740   14.2120   22.0030 C   0  0  0  0  0  0  0  0  0  0  0  0
   -4.0120   14.5070   21.6760 O   0  0  0  0  0  0  0  0  0  0  0  0
   -1.7150   13.8250   21.1070 C   0  0  2  0  0  0  0  0  0  0  0  0
    0.3370   13.4680   21.8030 H   0  0  0  0  0  0  0  0  0  0  0  0
   -0.4800   14.8930   23.4930 H   0  0  0  0  0  0  0  0  0  0  0  0
   -0.8490   13.3590   24.3170 H   0  0  0  0  0  0  0  0  0  0  0  0
   -3.0220   14.5440   24.0640 H   0  0  0  0  0  0  0  0  0  0  0  0
   -1.3180   14.7860   20.7440 H   0  0  0  0  0  0  0  0  0  0  0  0
   -1.9990   12.9910   19.8870 C   0  0  0  0  0  0  0  0  0  0  0  0
   -3.1640   12.2540   19.6950 C   0  0  0  0  0  0  0  0  0  0  0  0
   -3.3150   11.5110   18.5250 C   0  0  0  0  0  0  0  0  0  0  0  0
   -2.3050   11.5150   17.5720 C   0  0  0  0  0  0  0  0  0  0  0  0
   -1.1710   12.2580   17.8340 C   0  0  0  0  0  0  0  0  0  0  0  0
   -0.9900   12.9760   18.9670 N   0  0  0  0  0  0  0  0  0  0  0  0
   -3.9630   12.2410   20.4290 H   0  0  0  0  0  0  0  0  0  0  0  0
   -4.2240   10.9380   18.3610 H   0  0  0  0  0  0  0  0  0  0  0  0
   -2.4000   10.9510   16.6510 H   0  0  0  0  0  0  0  0  0  0  0  0
   -0.3480   12.2890   17.1270 H   0  0  0  0  0  0  0  0  0  0  0  0
   -1.5680   11.1640   23.0190 O   0  0  0  0  0  0  0  0  0  0  0  0
   -0.7730   11.7200   22.2680 C   0  0  0  0  0  0  0  0  0  0  0  0
    0.1440   11.0250   21.5140 N   0  0  0  0  0  0  0  0  0  0  0  0
    0.5310   11.5050   20.7020 H   0  0  0  0  0  0  0  0  0  0  0  0
    0.0840    9.5840   21.4440 C   0  0  0  0  0  0  0  0  0  0  0  0
   -0.9700    9.2890   21.3720 H   0  0  0  0  0  0  0  0  0  0  0  0
    0.4740    9.1650   22.3780 H   0  0  0  0  0  0  0  0  0  0  0  0
    0.8700    9.0660   20.2690 C   0  0  0  0  0  0  0  0  0  0  0  0
    0.8730    9.7590   19.0500 C   0  0  0  0  0  0  0  0  0  0  0  0
    1.6180    9.2880   17.9690 C   0  0  0  0  0  0  0  0  0  0  0  0
    2.3690    8.1200   18.0950 C   0  0  0  0  0  0  0  0  0  0  0  0
    2.3760    7.4230   19.3020 C   0  0  0  0  0  0  0  0  0  0  0  0
    1.6310    7.8940   20.3840 C   0  0  0  0  0  0  0  0  0  0  0  0
    0.2950   10.6740   18.9390 H   0  0  0  0  0  0  0  0  0  0  0  0
    1.6100    9.8290   17.0260 H   0  0  0  0  0  0  0  0  0  0  0  0
    2.9470    7.7510   17.2510 H   0  0  0  0  0  0  0  0  0  0  0  0
    2.9610    6.5130   19.4000 H   0  0  0  0  0  0  0  0  0  0  0  0
    1.6470    7.3440   21.3230 H   0  0  0  0  0  0  0  0  0  0  0  0
  1  7  1  6  0  0  0
  1 23  1  0  0  0  0
  1  2  1  0  0  0  0
  2  8  1  0  0  0  0
  2  9  1  0  0  0  0
  3  2  1  0  0  0  0
  3 10  1  0  0  0  0
  4  3  1  0  0  0  0
  5  4  2  0  0  0  0
  6 11  1  6  0  0  0
  6  4  1  0  0  0  0
  6  1  1  0  0  0  0
 12  6  1  0  0  0  0
 13 12  1  0  0  0  0
 13 18  1  0  0  0  0
 14 13  2  0  0  0  0
 15 16  2  0  0  0  0
 15 14  1  0  0  0  0
 16 17  1  0  0  0  0
 17 12  2  0  0  0  0
 19 14  1  0  0  0  0
 20 15  1  0  0  0  0
 21 16  1  0  0  0  0
 23 22  2  0  0  0  0
 24 23  1  0  0  0  0
 25 24  1  0  0  0  0
 26 24  1  0  0  0  0
 26 28  1  0  0  0  0
 27 26  1  0  0  0  0
 29 34  1  0  0  0  0
 29 26  1  0  0  0  0
 30 29  2  0  0  0  0
 31 32  2  0  0  0  0
 31 30  1  0  0  0  0
 32 33  1  0  0  0  0
 33 38  1  0  0  0  0
 33 34  2  0  0  0  0
 34 39  1  0  0  0  0
 35 30  1  0  0  0  0
 36 31  1  0  0  0  0
 37 32  1  0  0  0  0
M  END
>  <MODEL>
18

>  <REMARK>
 VINA RESULT:    -6.119      7.139      9.966
 INTER + INTRA:          -7.794
 INTER:                  -6.852
 INTRA:                  -0.941
 UNBOUND:                -0.244
  Name = 
  4 active torsions:
  status: ('A' for Active; 'I' for Inactive)
    1  A    between atoms: C_2  and  C_11
    2  A    between atoms: N_3  and  C_4
    3  A    between atoms: C_4  and  C_5
    4  A    between atoms: C_16  and  C_17
                            x       y       z     vdW  Elec       q    Type
                         _______ _______ _______ _____ _____    ______ ____

>  <TORSDO>
F 4

$$$$
=
 OpenBabel07192307433D

 39 41  0  0  1  0  0  0  0  0999 V2000
    2.2420    6.4520   18.5180 C   0  0  2  0  0  0  0  0  0  0  0  0
    2.0090    7.5710   19.5260 C   0  0  0  0  0  0  0  0  0  0  0  0
    2.1790    6.9430   20.8020 N   0  0  0  0  0  0  0  0  0  0  0  0
    2.0870    5.5690   20.7370 C   0  0  0  0  0  0  0  0  0  0  0  0
    2.1380    4.8410   21.7140 O   0  0  0  0  0  0  0  0  0  0  0  0
    1.8310    5.1800   19.2950 C   0  0  2  0  0  0  0  0  0  0  0  0
    1.6030    6.6030   17.6380 H   0  0  0  0  0  0  0  0  0  0  0  0
    0.9770    7.9360   19.4780 H   0  0  0  0  0  0  0  0  0  0  0  0
    2.6890    8.4220   19.4410 H   0  0  0  0  0  0  0  0  0  0  0  0
    2.3070    7.4210   21.6860 H   0  0  0  0  0  0  0  0  0  0  0  0
    0.7370    5.0810   19.2280 H   0  0  0  0  0  0  0  0  0  0  0  0
    2.4090    3.8860   18.7870 C   0  0  0  0  0  0  0  0  0  0  0  0
    2.1300    3.3410   17.5380 C   0  0  0  0  0  0  0  0  0  0  0  0
    2.7190    2.1300   17.1760 C   0  0  0  0  0  0  0  0  0  0  0  0
    3.5700    1.4870   18.0630 C   0  0  0  0  0  0  0  0  0  0  0  0
    3.7920    2.0790   19.2910 C   0  0  0  0  0  0  0  0  0  0  0  0
    3.2230    3.2450   19.6760 N   0  0  0  0  0  0  0  0  0  0  0  0
    1.4670    3.8320   16.8320 H   0  0  0  0  0  0  0  0  0  0  0  0
    2.5140    1.6990   16.2000 H   0  0  0  0  0  0  0  0  0  0  0  0
    4.0460    0.5480   17.8050 H   0  0  0  0  0  0  0  0  0  0  0  0
    4.4430    1.6140   20.0260 H   0  0  0  0  0  0  0  0  0  0  0  0
    4.0820    7.1540   17.1010 O   0  0  0  0  0  0  0  0  0  0  0  0
    3.6840    6.4510   18.0240 C   0  0  0  0  0  0  0  0  0  0  0  0
    4.5050    5.5700   18.6910 N   0  0  0  0  0  0  0  0  0  0  0  0
    4.2060    5.2750   19.6190 H   0  0  0  0  0  0  0  0  0  0  0  0
    5.9280    5.5720   18.4410 C   0  0  0  0  0  0  0  0  0  0  0  0
    6.4040    4.9110   19.1740 H   0  0  0  0  0  0  0  0  0  0  0  0
    6.3190    6.5810   18.6140 H   0  0  0  0  0  0  0  0  0  0  0  0
    6.2310    5.1260   17.0350 C   0  0  0  0  0  0  0  0  0  0  0  0
    5.5870    4.0090   16.4860 C   0  0  0  0  0  0  0  0  0  0  0  0
    5.8550    3.6090   15.1760 C   0  0  0  0  0  0  0  0  0  0  0  0
    6.7680    4.3230   14.4020 C   0  0  0  0  0  0  0  0  0  0  0  0
    7.4120    5.4380   14.9350 C   0  0  0  0  0  0  0  0  0  0  0  0
    7.1450    5.8380   16.2450 C   0  0  0  0  0  0  0  0  0  0  0  0
    4.8700    3.4440   17.0770 H   0  0  0  0  0  0  0  0  0  0  0  0
    5.3550    2.7380   14.7610 H   0  0  0  0  0  0  0  0  0  0  0  0
    6.9790    4.0090   13.3830 H   0  0  0  0  0  0  0  0  0  0  0  0
    8.1230    5.9940   14.3320 H   0  0  0  0  0  0  0  0  0  0  0  0
    7.6510    6.7120   16.6510 H   0  0  0  0  0  0  0  0  0  0  0  0
  1  7  1  6  0  0  0
  1  6  1  0  0  0  0
  1  2  1  0  0  0  0
  2  3  1  0  0  0  0
  3 10  1  0  0  0  0
  4  3  1  0  0  0  0
  4  5  2  0  0  0  0
  6 11  1  6  0  0  0
  6  4  1  0  0  0  0
  8  2  1  0  0  0  0
  9  2  1  0  0  0  0
 12  6  1  0  0  0  0
 12 17  1  0  0  0  0
 13 12  2  0  0  0  0
 14 13  1  0  0  0  0
 14 15  2  0  0  0  0
 15 16  1  0  0  0  0
 16 17  2  0  0  0  0
 16 21  1  0  0  0  0
 18 13  1  0  0  0  0
 19 14  1  0  0  0  0
 20 15  1  0  0  0  0
 22 23  2  0  0  0  0
 23  1  1  0  0  0  0
 23 24  1  0  0  0  0
 24 25  1  0  0  0  0
 26 28  1  0  0  0  0
 26 24  1  0  0  0  0
 26 27  1  0  0  0  0
 29 26  1  0  0  0  0
 30 29  1  0  0  0  0
 30 35  1  0  0  0  0
 31 30  2  0  0  0  0
 32 33  2  0  0  0  0
 32 31  1  0  0  0  0
 33 34  1  0  0  0  0
 34 39  1  0  0  0  0
 34 29  2  0  0  0  0
 36 31  1  0  0  0  0
 37 32  1  0  0  0  0
 38 33  1  0  0  0  0
M  END
>  <MODEL>
19

>  <REMARK>
 VINA RESULT:    -6.000      2.010      5.552
 INTER + INTRA:          -7.647
 INTER:                  -8.175
 INTRA:                   0.528
 UNBOUND:                -0.244
  Name = 
  4 active torsions:
  status: ('A' for Active; 'I' for Inactive)
    1  A    between atoms: C_2  and  C_11
    2  A    between atoms: N_3  and  C_4
    3  A    between atoms: C_4  and  C_5
    4  A    between atoms: C_16  and  C_17
                            x       y       z     vdW  Elec       q    Type
                         _______ _______ _______ _____ _____    ______ ____

>  <TORSDO>
F 4

$$$$
=
 OpenBabel07192307433D

 39 41  0  0  1  0  0  0  0  0999 V2000
   -0.0420   12.4990   20.5170 C   0  0  2  0  0  0  0  0  0  0  0  0
   -0.0300   13.5420   21.6280 C   0  0  0  0  0  0  0  0  0  0  0  0
   -1.4020   13.9230   21.7760 N   0  0  0  0  0  0  0  0  0  0  0  0
   -2.1720   13.5770   20.6850 C   0  0  0  0  0  0  0  0  0  0  0  0
   -3.3520   13.8630   20.5740 O   0  0  0  0  0  0  0  0  0  0  0  0
   -1.2770   12.8900   19.6740 C   0  0  2  0  0  0  0  0  0  0  0  0
    0.8810   12.5720   19.9270 H   0  0  0  0  0  0  0  0  0  0  0  0
    0.5250   14.4360   21.3240 H   0  0  0  0  0  0  0  0  0  0  0  0
    0.3610   13.1940   22.5880 H   0  0  0  0  0  0  0  0  0  0  0  0
   -1.7960   14.4330   22.5580 H   0  0  0  0  0  0  0  0  0  0  0  0
   -0.9760   13.6950   18.9850 H   0  0  0  0  0  0  0  0  0  0  0  0
   -1.8640   11.7960   18.8230 C   0  0  0  0  0  0  0  0  0  0  0  0
   -3.2270   11.5480   18.6980 C   0  0  0  0  0  0  0  0  0  0  0  0
   -3.6560   10.5000   17.8840 C   0  0  0  0  0  0  0  0  0  0  0  0
   -2.7220    9.7220   17.2140 C   0  0  0  0  0  0  0  0  0  0  0  0
   -1.3860   10.0170   17.3950 C   0  0  0  0  0  0  0  0  0  0  0  0
   -0.9390   11.0170   18.1890 N   0  0  0  0  0  0  0  0  0  0  0  0
   -3.9700   12.1470   19.2140 H   0  0  0  0  0  0  0  0  0  0  0  0
   -4.7190   10.3020   17.7720 H   0  0  0  0  0  0  0  0  0  0  0  0
   -3.0300    8.9060   16.5700 H   0  0  0  0  0  0  0  0  0  0  0  0
   -0.6140    9.4350   16.9010 H   0  0  0  0  0  0  0  0  0  0  0  0
   -0.8790   10.7410   21.9650 O   0  0  0  0  0  0  0  0  0  0  0  0
   -0.0920   11.0870   21.0910 C   0  0  0  0  0  0  0  0  0  0  0  0
    0.8440   10.2310   20.5560 N   0  0  0  0  0  0  0  0  0  0  0  0
    1.2260   10.4780   19.6440 H   0  0  0  0  0  0  0  0  0  0  0  0
    0.8150    8.8260   20.8850 C   0  0  0  0  0  0  0  0  0  0  0  0
   -0.2290    8.4940   20.8720 H   0  0  0  0  0  0  0  0  0  0  0  0
    1.1850    8.6910   21.9090 H   0  0  0  0  0  0  0  0  0  0  0  0
    1.6480    8.0270   19.9180 C   0  0  0  0  0  0  0  0  0  0  0  0
    2.0530    6.7220   20.2340 C   0  0  0  0  0  0  0  0  0  0  0  0
    2.8090    5.9760   19.3280 C   0  0  0  0  0  0  0  0  0  0  0  0
    3.1650    6.5260   18.0980 C   0  0  0  0  0  0  0  0  0  0  0  0
    2.7660    7.8200   17.7710 C   0  0  0  0  0  0  0  0  0  0  0  0
    2.0110    8.5670   18.6760 C   0  0  0  0  0  0  0  0  0  0  0  0
    1.7790    6.2790   21.1890 H   0  0  0  0  0  0  0  0  0  0  0  0
    3.1230    4.9680   19.5840 H   0  0  0  0  0  0  0  0  0  0  0  0
    3.7570    5.9450   17.3940 H   0  0  0  0  0  0  0  0  0  0  0  0
    3.0440    8.2490   16.8130 H   0  0  0  0  0  0  0  0  0  0  0  0
    1.7020    9.5760   18.4100 H   0  0  0  0  0  0  0  0  0  0  0  0
  1  7  1  6  0  0  0
  1 23  1  0  0  0  0
  1  2  1  0  0  0  0
  2  3  1  0  0  0  0
  2  9  1  0  0  0  0
  3 10  1  0  0  0  0
  4  3  1  0  0  0  0
  5  4  2  0  0  0  0
  6 11  1  6  0  0  0
  6  1  1  0  0  0  0
  6  4  1  0  0  0  0
  8  2  1  0  0  0  0
 12  6  1  0  0  0  0
 13 12  1  0  0  0  0
 13 18  1  0  0  0  0
 14 13  2  0  0  0  0
 15 16  2  0  0  0  0
 15 14  1  0  0  0  0
 16 17  1  0  0  0  0
 17 12  2  0  0  0  0
 19 14  1  0  0  0  0
 20 15  1  0  0  0  0
 21 16  1  0  0  0  0
 23 22  2  0  0  0  0
 24 26  1  0  0  0  0
 24 23  1  0  0  0  0
 25 24  1  0  0  0  0
 26 28  1  0  0  0  0
 27 26  1  0  0  0  0
 29 30  1  0  0  0  0
 29 26  1  0  0  0  0
 30 35  1  0  0  0  0
 31 36  1  0  0  0  0
 31 30  2  0  0  0  0
 32 31  1  0  0  0  0
 33 32  2  0  0  0  0
 33 34  1  0  0  0  0
 34 29  2  0  0  0  0
 37 32  1  0  0  0  0
 38 33  1  0  0  0  0
 39 34  1  0  0  0  0
M  END
>  <MODEL>
20

>  <REMARK>
 VINA RESULT:    -5.983      6.174      8.789
 INTER + INTRA:          -7.626
 INTER:                  -7.075
 INTRA:                  -0.551
 UNBOUND:                -0.244
  Name = 
  4 active torsions:
  status: ('A' for Active; 'I' for Inactive)
    1  A    between atoms: C_2  and  C_11
    2  A    between atoms: N_3  and  C_4
    3  A    between atoms: C_4  and  C_5
    4  A    between atoms: C_16  and  C_17
                            x       y       z     vdW  Elec       q    Type
                         _______ _______ _______ _____ _____    ______ ____

>  <TORSDO>
F 4

$$$$
=
 OpenBabel07192307433D

 39 41  0  0  1  0  0  0  0  0999 V2000
   -0.1830   12.5510   20.5460 C   0  0  2  0  0  0  0  0  0  0  0  0
   -0.2350   13.5870   21.6610 C   0  0  0  0  0  0  0  0  0  0  0  0
   -1.6240   13.9180   21.7770 N   0  0  0  0  0  0  0  0  0  0  0  0
   -2.3530   13.5510   20.6660 C   0  0  0  0  0  0  0  0  0  0  0  0
   -3.5400   13.7940   20.5260 O   0  0  0  0  0  0  0  0  0  0  0  0
   -1.4090   12.9020   19.6740 C   0  0  2  0  0  0  0  0  0  0  0  0
    0.7520   12.6600   19.9800 H   0  0  0  0  0  0  0  0  0  0  0  0
    0.2940   14.5030   21.3750 H   0  0  0  0  0  0  0  0  0  0  0  0
    0.1440   13.2490   22.6300 H   0  0  0  0  0  0  0  0  0  0  0  0
   -2.0550   14.4100   22.5510 H   0  0  0  0  0  0  0  0  0  0  0  0
   -1.1200   13.7200   18.9960 H   0  0  0  0  0  0  0  0  0  0  0  0
   -1.9350   11.7920   18.8030 C   0  0  0  0  0  0  0  0  0  0  0  0
   -3.2860   11.5150   18.6190 C   0  0  0  0  0  0  0  0  0  0  0  0
   -3.6570   10.4550   17.7930 C   0  0  0  0  0  0  0  0  0  0  0  0
   -2.6780    9.6930   17.1690 C   0  0  0  0  0  0  0  0  0  0  0  0
   -1.3570   10.0170   17.4080 C   0  0  0  0  0  0  0  0  0  0  0  0
   -0.9670   11.0300   18.2160 N   0  0  0  0  0  0  0  0  0  0  0  0
   -4.0640   12.1010   19.0980 H   0  0  0  0  0  0  0  0  0  0  0  0
   -4.7090   10.2340   17.6340 H   0  0  0  0  0  0  0  0  0  0  0  0
   -2.9400    8.8670   16.5170 H   0  0  0  0  0  0  0  0  0  0  0  0
   -0.5520    9.4480   16.9520 H   0  0  0  0  0  0  0  0  0  0  0  0
   -1.0150   10.7450   21.9370 O   0  0  0  0  0  0  0  0  0  0  0  0
   -0.1950   11.1350   21.1120 C   0  0  0  0  0  0  0  0  0  0  0  0
    0.8130   10.3300   20.6320 N   0  0  0  0  0  0  0  0  0  0  0  0
    1.2350   10.6010   19.7450 H   0  0  0  0  0  0  0  0  0  0  0  0
    0.8340    8.9230   20.9550 C   0  0  0  0  0  0  0  0  0  0  0  0
   -0.2020    8.5720   21.0220 H   0  0  0  0  0  0  0  0  0  0  0  0
    1.2850    8.7910   21.9460 H   0  0  0  0  0  0  0  0  0  0  0  0
    1.6030    8.1430   19.9220 C   0  0  0  0  0  0  0  0  0  0  0  0
    1.9480    8.7280   18.6960 C   0  0  0  0  0  0  0  0  0  0  0  0
    2.6770    8.0100   17.7470 C   0  0  0  0  0  0  0  0  0  0  0  0
    3.0710    6.7000   18.0160 C   0  0  0  0  0  0  0  0  0  0  0  0
    2.7380    6.1080   19.2320 C   0  0  0  0  0  0  0  0  0  0  0  0
    2.0080    6.8250   20.1810 C   0  0  0  0  0  0  0  0  0  0  0  0
    1.6500    9.7510   18.4740 H   0  0  0  0  0  0  0  0  0  0  0  0
    2.9340    8.4700   16.7970 H   0  0  0  0  0  0  0  0  0  0  0  0
    3.6370    6.1400   17.2750 H   0  0  0  0  0  0  0  0  0  0  0  0
    3.0450    5.0870   19.4410 H   0  0  0  0  0  0  0  0  0  0  0  0
    1.7550    6.3550   21.1290 H   0  0  0  0  0  0  0  0  0  0  0  0
  1  7  1  6  0  0  0
  1 23  1  0  0  0  0
  1  2  1  0  0  0  0
  2  3  1  0  0  0  0
  2  9  1  0  0  0  0
  3 10  1  0  0  0  0
  4  3  1  0  0  0  0
  5  4  2  0  0  0  0
  6 11  1  6  0  0  0
  6  1  1  0  0  0  0
  6  4  1  0  0  0  0
  8  2  1  0  0  0  0
 12  6  1  0  0  0  0
 13 12  1  0  0  0  0
 13 18  1  0  0  0  0
 14 13  2  0  0  0  0
 15 16  2  0  0  0  0
 15 14  1  0  0  0  0
 16 17  1  0  0  0  0
 17 12  2  0  0  0  0
 19 14  1  0  0  0  0
 20 15  1  0  0  0  0
 21 16  1  0  0  0  0
 23 22  2  0  0  0  0
 24 26  1  0  0  0  0
 24 23  1  0  0  0  0
 25 24  1  0  0  0  0
 26 27  1  0  0  0  0
 26 28  1  0  0  0  0
 29 34  1  0  0  0  0
 29 26  1  0  0  0  0
 30 29  2  0  0  0  0
 31 32  2  0  0  0  0
 31 30  1  0  0  0  0
 32 33  1  0  0  0  0
 33 38  1  0  0  0  0
 33 34  2  0  0  0  0
 34 39  1  0  0  0  0
 35 30  1  0  0  0  0
 36 31  1  0  0  0  0
 37 32  1  0  0  0  0
M  END
>  <MODEL>
21

>  <REMARK>
 VINA RESULT:    -5.955      6.221      8.901
 INTER + INTRA:          -7.591
 INTER:                  -7.043
 INTRA:                  -0.549
 UNBOUND:                -0.244
  Name = 
  4 active torsions:
  status: ('A' for Active; 'I' for Inactive)
    1  A    between atoms: C_2  and  C_11
    2  A    between atoms: N_3  and  C_4
    3  A    between atoms: C_4  and  C_5
    4  A    between atoms: C_16  and  C_17
                            x       y       z     vdW  Elec       q    Type
                         _______ _______ _______ _____ _____    ______ ____

>  <TORSDO>
F 4

$$$$
=
 OpenBabel07192307433D

 39 41  0  0  1  0  0  0  0  0999 V2000
    0.6900   10.1910   22.1080 C   0  0  2  0  0  0  0  0  0  0  0  0
    0.1010    9.5480   23.3580 C   0  0  0  0  0  0  0  0  0  0  0  0
   -1.2270   10.0760   23.4400 N   0  0  0  0  0  0  0  0  0  0  0  0
   -1.3950   11.2160   22.6820 C   0  0  0  0  0  0  0  0  0  0  0  0
   -2.4280   11.8640   22.6570 O   0  0  0  0  0  0  0  0  0  0  0  0
   -0.0790   11.5270   21.9980 C   0  0  2  0  0  0  0  0  0  0  0  0
    1.7650   10.3620   22.2470 H   0  0  0  0  0  0  0  0  0  0  0  0
    0.6370    9.8710   24.2570 H   0  0  0  0  0  0  0  0  0  0  0  0
    0.0620    8.4550   23.3440 H   0  0  0  0  0  0  0  0  0  0  0  0
   -1.9760    9.7120   24.0180 H   0  0  0  0  0  0  0  0  0  0  0  0
    0.4090   12.2550   22.6640 H   0  0  0  0  0  0  0  0  0  0  0  0
   -0.1120   12.1550   20.6300 C   0  0  0  0  0  0  0  0  0  0  0  0
   -1.2120   12.1170   19.7780 C   0  0  0  0  0  0  0  0  0  0  0  0
   -1.1250   12.7290   18.5280 C   0  0  0  0  0  0  0  0  0  0  0  0
    0.0510   13.3640   18.1530 C   0  0  0  0  0  0  0  0  0  0  0  0
    1.1060   13.3510   19.0430 C   0  0  0  0  0  0  0  0  0  0  0  0
    1.0560   12.7520   20.2560 N   0  0  0  0  0  0  0  0  0  0  0  0
   -2.1390   11.6270   20.0570 H   0  0  0  0  0  0  0  0  0  0  0  0
   -1.9800   12.7130   17.8570 H   0  0  0  0  0  0  0  0  0  0  0  0
    0.1420   13.8520   17.1890 H   0  0  0  0  0  0  0  0  0  0  0  0
    2.0510   13.8240   18.7960 H   0  0  0  0  0  0  0  0  0  0  0  0
   -0.3900    8.4870   20.7580 O   0  0  0  0  0  0  0  0  0  0  0  0
    0.5400    9.2750   20.8970 C   0  0  0  0  0  0  0  0  0  0  0  0
    1.5560    9.3920   19.9770 N   0  0  0  0  0  0  0  0  0  0  0  0
    2.0930   10.2590   19.9910 H   0  0  0  0  0  0  0  0  0  0  0  0
    1.4690    8.7070   18.7080 C   0  0  0  0  0  0  0  0  0  0  0  0
    1.6230    9.4440   17.9110 H   0  0  0  0  0  0  0  0  0  0  0  0
    0.4560    8.3070   18.5870 H   0  0  0  0  0  0  0  0  0  0  0  0
    2.4840    7.5990   18.6220 C   0  0  0  0  0  0  0  0  0  0  0  0
    2.5100    6.5790   19.5830 C   0  0  0  0  0  0  0  0  0  0  0  0
    3.4390    5.5420   19.4910 C   0  0  0  0  0  0  0  0  0  0  0  0
    4.3490    5.5120   18.4350 C   0  0  0  0  0  0  0  0  0  0  0  0
    4.3310    6.5180   17.4710 C   0  0  0  0  0  0  0  0  0  0  0  0
    3.4030    7.5570   17.5630 C   0  0  0  0  0  0  0  0  0  0  0  0
    1.8040    6.5870   20.4100 H   0  0  0  0  0  0  0  0  0  0  0  0
    3.4560    4.7580   20.2440 H   0  0  0  0  0  0  0  0  0  0  0  0
    5.0750    4.7050   18.3650 H   0  0  0  0  0  0  0  0  0  0  0  0
    5.0400    6.4950   16.6490 H   0  0  0  0  0  0  0  0  0  0  0  0
    3.3950    8.3360   16.8040 H   0  0  0  0  0  0  0  0  0  0  0  0
  1  7  1  1  0  0  0
  1  2  1  0  0  0  0
  2  3  1  0  0  0  0
  2  8  1  0  0  0  0
  3 10  1  0  0  0  0
  4  3  1  0  0  0  0
  5  4  2  0  0  0  0
  6  1  1  0  0  0  0
  6 11  1  1  0  0  0
  6  4  1  0  0  0  0
  9  2  1  0  0  0  0
 12  6  1  0  0  0  0
 13 18  1  0  0  0  0
 13 12  2  0  0  0  0
 14 13  1  0  0  0  0
 15 14  2  0  0  0  0
 15 16  1  0  0  0  0
 16 17  2  0  0  0  0
 17 12  1  0  0  0  0
 19 14  1  0  0  0  0
 20 15  1  0  0  0  0
 21 16  1  0  0  0  0
 22 23  2  0  0  0  0
 23  1  1  0  0  0  0
 24 25  1  0  0  0  0
 24 23  1  0  0  0  0
 26 24  1  0  0  0  0
 27 26  1  0  0  0  0
 28 26  1  0  0  0  0
 29 26  1  0  0  0  0
 29 30  1  0  0  0  0
 30 35  1  0  0  0  0
 31 30  2  0  0  0  0
 31 36  1  0  0  0  0
 32 31  1  0  0  0  0
 33 34  1  0  0  0  0
 33 32  2  0  0  0  0
 34 29  2  0  0  0  0
 37 32  1  0  0  0  0
 38 33  1  0  0  0  0
 39 34  1  0  0  0  0
M  END
>  <MODEL>
22

>  <REMARK>
 VINA RESULT:    -5.913      5.338      7.950
 INTER + INTRA:          -7.540
 INTER:                  -6.764
 INTRA:                  -0.775
 UNBOUND:                -0.244
  Name = 
  4 active torsions:
  status: ('A' for Active; 'I' for Inactive)
    1  A    between atoms: C_2  and  C_11
    2  A    between atoms: N_3  and  C_4
    3  A    between atoms: C_4  and  C_5
    4  A    between atoms: C_16  and  C_17
                            x       y       z     vdW  Elec       q    Type
                         _______ _______ _______ _____ _____    ______ ____

>  <TORSDO>
F 4

$$$$
=
 OpenBabel07192307433D

 39 41  0  0  1  0  0  0  0  0999 V2000
    5.0680    4.7370   15.0270 C   0  0  2  0  0  0  0  0  0  0  0  0
    5.0580    4.1060   13.6400 C   0  0  0  0  0  0  0  0  0  0  0  0
    6.4390    4.0400   13.2680 N   0  0  0  0  0  0  0  0  0  0  0  0
    7.2350    4.8760   14.0230 C   0  0  0  0  0  0  0  0  0  0  0  0
    8.4310    5.0240   13.8320 O   0  0  0  0  0  0  0  0  0  0  0  0
    6.3510    5.5980   15.0190 C   0  0  2  0  0  0  0  0  0  0  0  0
    4.1730    5.3590   15.1600 H   0  0  0  0  0  0  0  0  0  0  0  0
    4.5560    4.7550   12.9150 H   0  0  0  0  0  0  0  0  0  0  0  0
    4.6140    3.1080   13.5860 H   0  0  0  0  0  0  0  0  0  0  0  0
    6.8240    3.4900   12.5090 H   0  0  0  0  0  0  0  0  0  0  0  0
    6.1140    6.5550   14.5300 H   0  0  0  0  0  0  0  0  0  0  0  0
    6.9210    5.9390   16.3700 C   0  0  0  0  0  0  0  0  0  0  0  0
    7.0490    7.2340   16.8610 C   0  0  0  0  0  0  0  0  0  0  0  0
    7.5990    7.4310   18.1270 C   0  0  0  0  0  0  0  0  0  0  0  0
    8.0110    6.3370   18.8760 C   0  0  0  0  0  0  0  0  0  0  0  0
    7.8670    5.0810   18.3200 C   0  0  0  0  0  0  0  0  0  0  0  0
    7.3510    4.8610   17.0890 N   0  0  0  0  0  0  0  0  0  0  0  0
    6.7300    8.1000   16.2900 H   0  0  0  0  0  0  0  0  0  0  0  0
    7.6970    8.4380   18.5250 H   0  0  0  0  0  0  0  0  0  0  0  0
    8.4370    6.4620   19.8650 H   0  0  0  0  0  0  0  0  0  0  0  0
    8.1810    4.1930   18.8590 H   0  0  0  0  0  0  0  0  0  0  0  0
    5.5000    2.5440   15.9740 O   0  0  0  0  0  0  0  0  0  0  0  0
    5.0310    3.6690   16.1160 C   0  0  0  0  0  0  0  0  0  0  0  0
    4.4030    4.0690   17.2730 N   0  0  0  0  0  0  0  0  0  0  0  0
    4.3360    5.0740   17.4370 H   0  0  0  0  0  0  0  0  0  0  0  0
    4.4300    3.2250   18.4440 C   0  0  0  0  0  0  0  0  0  0  0  0
    5.2290    3.5810   19.1040 H   0  0  0  0  0  0  0  0  0  0  0  0
    4.6920    2.2040   18.1410 H   0  0  0  0  0  0  0  0  0  0  0  0
    3.1010    3.2370   19.1500 C   0  0  0  0  0  0  0  0  0  0  0  0
    2.8590    4.1330   20.2010 C   0  0  0  0  0  0  0  0  0  0  0  0
    1.6190    4.1550   20.8420 C   0  0  0  0  0  0  0  0  0  0  0  0
    0.6090    3.2840   20.4380 C   0  0  0  0  0  0  0  0  0  0  0  0
    0.8360    2.3900   19.3930 C   0  0  0  0  0  0  0  0  0  0  0  0
    2.0760    2.3670   18.7520 C   0  0  0  0  0  0  0  0  0  0  0  0
    3.6360    4.8210   20.5240 H   0  0  0  0  0  0  0  0  0  0  0  0
    1.4430    4.8500   21.6590 H   0  0  0  0  0  0  0  0  0  0  0  0
   -0.3550    3.2990   20.9400 H   0  0  0  0  0  0  0  0  0  0  0  0
    0.0490    1.7110   19.0790 H   0  0  0  0  0  0  0  0  0  0  0  0
    2.2420    1.6670   17.9350 H   0  0  0  0  0  0  0  0  0  0  0  0
  1  7  1  1  0  0  0
  1 23  1  0  0  0  0
  2  1  1  0  0  0  0
  3  2  1  0  0  0  0
  3  4  1  0  0  0  0
  4  6  1  0  0  0  0
  5  4  2  0  0  0  0
  6 11  1  6  0  0  0
  6  1  1  0  0  0  0
  6 12  1  0  0  0  0
  8  2  1  0  0  0  0
  9  2  1  0  0  0  0
 10  3  1  0  0  0  0
 12 13  2  0  0  0  0
 12 17  1  0  0  0  0
 13 14  1  0  0  0  0
 14 19  1  0  0  0  0
 14 15  2  0  0  0  0
 15 20  1  0  0  0  0
 16 21  1  0  0  0  0
 16 15  1  0  0  0  0
 17 16  2  0  0  0  0
 18 13  1  0  0  0  0
 22 23  2  0  0  0  0
 23 24  1  0  0  0  0
 24 25  1  0  0  0  0
 24 26  1  0  0  0  0
 26 27  1  0  0  0  0
 26 29  1  0  0  0  0
 28 26  1  0  0  0  0
 29 30  1  0  0  0  0
 30 35  1  0  0  0  0
 30 31  2  0  0  0  0
 31 36  1  0  0  0  0
 32 31  1  0  0  0  0
 32 37  1  0  0  0  0
 33 32  2  0  0  0  0
 34 29  2  0  0  0  0
 34 33  1  0  0  0  0
 38 33  1  0  0  0  0
 39 34  1  0  0  0  0
M  END
>  <MODEL>
23

>  <REMARK>
 VINA RESULT:    -5.802      2.269      3.181
 INTER + INTRA:          -7.402
 INTER:                  -7.066
 INTRA:                  -0.336
 UNBOUND:                -0.244
  Name = 
  4 active torsions:
  status: ('A' for Active; 'I' for Inactive)
    1  A    between atoms: C_2  and  C_11
    2  A    between atoms: N_3  and  C_4
    3  A    between atoms: C_4  and  C_5
    4  A    between atoms: C_16  and  C_17
                            x       y       z     vdW  Elec       q    Type
                         _______ _______ _______ _____ _____    ______ ____

>  <TORSDO>
F 4

$$$$
=
 OpenBabel07192307433D

 39 41  0  0  1  0  0  0  0  0999 V2000
   -0.9460   10.3010   18.1490 C   0  0  2  0  0  0  0  0  0  0  0  0
   -1.4030   11.3220   17.1150 C   0  0  0  0  0  0  0  0  0  0  0  0
   -1.6460   12.5130   17.8710 N   0  0  0  0  0  0  0  0  0  0  0  0
   -1.7870   12.2680   19.2210 C   0  0  0  0  0  0  0  0  0  0  0  0
   -2.0620   13.1300   20.0390 O   0  0  0  0  0  0  0  0  0  0  0  0
   -1.6310   10.7790   19.4490 C   0  0  2  0  0  0  0  0  0  0  0  0
   -1.2920    9.2990   17.8630 H   0  0  0  0  0  0  0  0  0  0  0  0
   -2.3550   11.0250   16.6610 H   0  0  0  0  0  0  0  0  0  0  0  0
   -0.6830   11.5320   16.3190 H   0  0  0  0  0  0  0  0  0  0  0  0
   -1.7550   13.4460   17.4910 H   0  0  0  0  0  0  0  0  0  0  0  0
   -2.6630   10.3930   19.4500 H   0  0  0  0  0  0  0  0  0  0  0  0
   -1.0000   10.3120   20.7340 C   0  0  0  0  0  0  0  0  0  0  0  0
   -0.3280    9.1020   20.8810 C   0  0  0  0  0  0  0  0  0  0  0  0
    0.2120    8.7700   22.1230 C   0  0  0  0  0  0  0  0  0  0  0  0
    0.0730    9.6470   23.1900 C   0  0  0  0  0  0  0  0  0  0  0  0
   -0.6170   10.8230   22.9750 C   0  0  0  0  0  0  0  0  0  0  0  0
   -1.1660   11.1650   21.7860 N   0  0  0  0  0  0  0  0  0  0  0  0
   -0.2090    8.4060   20.0570 H   0  0  0  0  0  0  0  0  0  0  0  0
    0.7460    7.8320   22.2480 H   0  0  0  0  0  0  0  0  0  0  0  0
    0.4890    9.4160   24.1650 H   0  0  0  0  0  0  0  0  0  0  0  0
   -0.7630   11.5400   23.7780 H   0  0  0  0  0  0  0  0  0  0  0  0
    1.2720   11.1820   18.5900 O   0  0  0  0  0  0  0  0  0  0  0  0
    0.5760   10.2400   18.2240 C   0  0  0  0  0  0  0  0  0  0  0  0
    1.1100    9.0370   17.8220 N   0  0  0  0  0  0  0  0  0  0  0  0
    0.4900    8.2270   17.8470 H   0  0  0  0  0  0  0  0  0  0  0  0
    2.5200    8.7760   17.9880 C   0  0  0  0  0  0  0  0  0  0  0  0
    2.9120    9.4770   18.7330 H   0  0  0  0  0  0  0  0  0  0  0  0
    3.0360    8.9870   17.0430 H   0  0  0  0  0  0  0  0  0  0  0  0
    2.7610    7.3500   18.4070 C   0  0  0  0  0  0  0  0  0  0  0  0
    3.4980    6.4810   17.5910 C   0  0  0  0  0  0  0  0  0  0  0  0
    3.7360    5.1650   17.9900 C   0  0  0  0  0  0  0  0  0  0  0  0
    3.2430    4.7060   19.2110 C   0  0  0  0  0  0  0  0  0  0  0  0
    2.5120    5.5620   20.0330 C   0  0  0  0  0  0  0  0  0  0  0  0
    2.2720    6.8780   19.6340 C   0  0  0  0  0  0  0  0  0  0  0  0
    3.8920    6.8260   16.6380 H   0  0  0  0  0  0  0  0  0  0  0  0
    4.3040    4.4970   17.3480 H   0  0  0  0  0  0  0  0  0  0  0  0
    3.4260    3.6800   19.5200 H   0  0  0  0  0  0  0  0  0  0  0  0
    2.1270    5.2040   20.9830 H   0  0  0  0  0  0  0  0  0  0  0  0
    1.7030    7.5380   20.2840 H   0  0  0  0  0  0  0  0  0  0  0  0
  1  7  1  6  0  0  0
  1 23  1  0  0  0  0
  1  6  1  0  0  0  0
  2  3  1  0  0  0  0
  2  1  1  0  0  0  0
  3  4  1  0  0  0  0
  4  6  1  0  0  0  0
  4  5  2  0  0  0  0
  6 11  1  6  0  0  0
  6 12  1  0  0  0  0
  8  2  1  0  0  0  0
  9  2  1  0  0  0  0
 10  3  1  0  0  0  0
 12 13  2  0  0  0  0
 12 17  1  0  0  0  0
 13 14  1  0  0  0  0
 14 19  1  0  0  0  0
 14 15  2  0  0  0  0
 15 20  1  0  0  0  0
 16 15  1  0  0  0  0
 16 21  1  0  0  0  0
 17 16  2  0  0  0  0
 18 13  1  0  0  0  0
 23 22  2  0  0  0  0
 24 25  1  0  0  0  0
 24 26  1  0  0  0  0
 24 23  1  0  0  0  0
 26 29  1  0  0  0  0
 26 27  1  0  0  0  0
 28 26  1  0  0  0  0
 29 34  1  0  0  0  0
 30 31  1  0  0  0  0
 30 29  2  0  0  0  0
 31 32  2  0  0  0  0
 32 37  1  0  0  0  0
 32 33  1  0  0  0  0
 33 38  1  0  0  0  0
 34 33  2  0  0  0  0
 34 39  1  0  0  0  0
 35 30  1  0  0  0  0
 36 31  1  0  0  0  0
M  END
>  <MODEL>
24

>  <REMARK>
 VINA RESULT:    -5.794      5.158      7.531
 INTER + INTRA:          -7.393
 INTER:                  -7.370
 INTRA:                  -0.022
 UNBOUND:                -0.244
  Name = 
  4 active torsions:
  status: ('A' for Active; 'I' for Inactive)
    1  A    between atoms: C_2  and  C_11
    2  A    between atoms: N_3  and  C_4
    3  A    between atoms: C_4  and  C_5
    4  A    between atoms: C_16  and  C_17
                            x       y       z     vdW  Elec       q    Type
                         _______ _______ _______ _____ _____    ______ ____

>  <TORSDO>
F 4

$$$$
=
 OpenBabel07192307433D

 39 41  0  0  1  0  0  0  0  0999 V2000
   -2.2420   12.0490   17.8560 C   0  0  2  0  0  0  0  0  0  0  0  0
   -2.2380   11.1160   16.6510 C   0  0  0  0  0  0  0  0  0  0  0  0
   -1.4100   10.0180   17.0520 N   0  0  0  0  0  0  0  0  0  0  0  0
   -0.6100   10.3210   18.1330 C   0  0  0  0  0  0  0  0  0  0  0  0
    0.2160    9.5540   18.5980 O   0  0  0  0  0  0  0  0  0  0  0  0
   -0.8890   11.7530   18.5410 C   0  0  2  0  0  0  0  0  0  0  0  0
   -2.2980   13.0930   17.5200 H   0  0  0  0  0  0  0  0  0  0  0  0
   -1.7560   11.5890   15.7880 H   0  0  0  0  0  0  0  0  0  0  0  0
   -3.2200   10.7450   16.3470 H   0  0  0  0  0  0  0  0  0  0  0  0
   -1.3540    9.1180   16.5910 H   0  0  0  0  0  0  0  0  0  0  0  0
   -0.1130   12.3400   18.0260 H   0  0  0  0  0  0  0  0  0  0  0  0
   -0.7990   12.1140   20.0000 C   0  0  0  0  0  0  0  0  0  0  0  0
   -0.9100   11.1980   21.0420 C   0  0  0  0  0  0  0  0  0  0  0  0
   -0.8170   11.6490   22.3580 C   0  0  0  0  0  0  0  0  0  0  0  0
   -0.6180   12.9990   22.6100 C   0  0  0  0  0  0  0  0  0  0  0  0
   -0.5310   13.8530   21.5290 C   0  0  0  0  0  0  0  0  0  0  0  0
   -0.6320   13.4470   20.2420 N   0  0  0  0  0  0  0  0  0  0  0  0
   -1.0650   10.1390   20.8620 H   0  0  0  0  0  0  0  0  0  0  0  0
   -0.8940   10.9410   23.1800 H   0  0  0  0  0  0  0  0  0  0  0  0
   -0.5370   13.3750   23.6240 H   0  0  0  0  0  0  0  0  0  0  0  0
   -0.3840   14.9200   21.6710 H   0  0  0  0  0  0  0  0  0  0  0  0
   -4.1580   10.7940   18.6590 O   0  0  0  0  0  0  0  0  0  0  0  0
   -3.4620   11.8010   18.7370 C   0  0  0  0  0  0  0  0  0  0  0  0
   -3.7340   12.8230   19.6180 N   0  0  0  0  0  0  0  0  0  0  0  0
   -2.9630   13.4480   19.8510 H   0  0  0  0  0  0  0  0  0  0  0  0
   -4.7600   12.6630   20.6220 C   0  0  0  0  0  0  0  0  0  0  0  0
   -4.9470   11.5900   20.7510 H   0  0  0  0  0  0  0  0  0  0  0  0
   -5.6910   13.1110   20.2550 H   0  0  0  0  0  0  0  0  0  0  0  0
   -4.3490   13.3000   21.9220 C   0  0  0  0  0  0  0  0  0  0  0  0
   -4.0150   14.6600   21.9760 C   0  0  0  0  0  0  0  0  0  0  0  0
   -3.6520   15.2530   23.1860 C   0  0  0  0  0  0  0  0  0  0  0  0
   -3.6230   14.4940   24.3550 C   0  0  0  0  0  0  0  0  0  0  0  0
   -3.9560   13.1410   24.3150 C   0  0  0  0  0  0  0  0  0  0  0  0
   -4.3180   12.5460   23.1050 C   0  0  0  0  0  0  0  0  0  0  0  0
   -4.0370   15.2660   21.0730 H   0  0  0  0  0  0  0  0  0  0  0  0
   -3.3890   16.3070   23.2170 H   0  0  0  0  0  0  0  0  0  0  0  0
   -3.3380   14.9550   25.2960 H   0  0  0  0  0  0  0  0  0  0  0  0
   -3.9330   12.5490   25.2250 H   0  0  0  0  0  0  0  0  0  0  0  0
   -4.5800   11.4900   23.0850 H   0  0  0  0  0  0  0  0  0  0  0  0
  1  7  1  6  0  0  0
  1  6  1  0  0  0  0
  1 23  1  0  0  0  0
  2  3  1  0  0  0  0
  2  1  1  0  0  0  0
  3  4  1  0  0  0  0
  4  6  1  0  0  0  0
  4  5  2  0  0  0  0
  6 11  1  6  0  0  0
  6 12  1  0  0  0  0
  8  2  1  0  0  0  0
  9  2  1  0  0  0  0
 10  3  1  0  0  0  0
 12 17  2  0  0  0  0
 12 13  1  0  0  0  0
 13 14  2  0  0  0  0
 14 15  1  0  0  0  0
 14 19  1  0  0  0  0
 15 20  1  0  0  0  0
 16 21  1  0  0  0  0
 16 15  2  0  0  0  0
 17 16  1  0  0  0  0
 18 13  1  0  0  0  0
 22 23  2  0  0  0  0
 23 24  1  0  0  0  0
 24 25  1  0  0  0  0
 24 26  1  0  0  0  0
 26 27  1  0  0  0  0
 26 29  1  0  0  0  0
 28 26  1  0  0  0  0
 29 30  2  0  0  0  0
 29 34  1  0  0  0  0
 30 31  1  0  0  0  0
 31 36  1  0  0  0  0
 31 32  2  0  0  0  0
 32 37  1  0  0  0  0
 33 32  1  0  0  0  0
 33 38  1  0  0  0  0
 34 33  2  0  0  0  0
 35 30  1  0  0  0  0
 39 34  1  0  0  0  0
M  END
>  <MODEL>
25

>  <REMARK>
 VINA RESULT:    -5.777      8.072     10.812
 INTER + INTRA:          -7.371
 INTER:                  -5.766
 INTRA:                  -1.605
 UNBOUND:                -0.244
  Name = 
  4 active torsions:
  status: ('A' for Active; 'I' for Inactive)
    1  A    between atoms: C_2  and  C_11
    2  A    between atoms: N_3  and  C_4
    3  A    between atoms: C_4  and  C_5
    4  A    between atoms: C_16  and  C_17
                            x       y       z     vdW  Elec       q    Type
                         _______ _______ _______ _____ _____    ______ ____

>  <TORSDO>
F 4

$$$$
=
 OpenBabel07192307433D

 39 41  0  0  1  0  0  0  0  0999 V2000
    0.5710   12.3740   18.8160 C   0  0  2  0  0  0  0  0  0  0  0  0
   -0.3710   13.3620   18.1400 C   0  0  0  0  0  0  0  0  0  0  0  0
   -1.6600   12.7440   18.2250 N   0  0  0  0  0  0  0  0  0  0  0  0
   -1.5860   11.3920   18.4830 C   0  0  0  0  0  0  0  0  0  0  0  0
   -2.5600   10.6600   18.5330 O   0  0  0  0  0  0  0  0  0  0  0  0
   -0.1240   11.0110   18.5940 C   0  0  2  0  0  0  0  0  0  0  0  0
    1.5540   12.4020   18.3290 H   0  0  0  0  0  0  0  0  0  0  0  0
   -0.1320   13.4710   17.0770 H   0  0  0  0  0  0  0  0  0  0  0  0
   -0.4080   14.3550   18.5970 H   0  0  0  0  0  0  0  0  0  0  0  0
   -2.5500   13.2040   18.0720 H   0  0  0  0  0  0  0  0  0  0  0  0
    0.1430   10.6540   17.5870 H   0  0  0  0  0  0  0  0  0  0  0  0
    0.2620    9.9140   19.5510 C   0  0  0  0  0  0  0  0  0  0  0  0
   -0.3840    9.6670   20.7590 C   0  0  0  0  0  0  0  0  0  0  0  0
    0.0650    8.6250   21.5700 C   0  0  0  0  0  0  0  0  0  0  0  0
    1.1460    7.8550   21.1640 C   0  0  0  0  0  0  0  0  0  0  0  0
    1.7460    8.1650   19.9600 C   0  0  0  0  0  0  0  0  0  0  0  0
    1.3430    9.1790   19.1600 N   0  0  0  0  0  0  0  0  0  0  0  0
   -1.2310   10.2590   21.0900 H   0  0  0  0  0  0  0  0  0  0  0  0
   -0.4360    8.4170   22.5120 H   0  0  0  0  0  0  0  0  0  0  0  0
    1.5110    7.0350   21.7730 H   0  0  0  0  0  0  0  0  0  0  0  0
    2.6010    7.5990   19.6000 H   0  0  0  0  0  0  0  0  0  0  0  0
    1.8470   12.5450   20.8730 O   0  0  0  0  0  0  0  0  0  0  0  0
    0.7910   12.7390   20.2800 C   0  0  0  0  0  0  0  0  0  0  0  0
   -0.3120   13.2880   20.8930 N   0  0  0  0  0  0  0  0  0  0  0  0
   -1.0150   13.7080   20.2850 H   0  0  0  0  0  0  0  0  0  0  0  0
   -0.2070   13.8280   22.2280 C   0  0  0  0  0  0  0  0  0  0  0  0
   -0.0010   14.9010   22.1480 H   0  0  0  0  0  0  0  0  0  0  0  0
    0.6520   13.3710   22.7320 H   0  0  0  0  0  0  0  0  0  0  0  0
   -1.4680   13.5780   23.0130 C   0  0  0  0  0  0  0  0  0  0  0  0
   -2.1020   12.3290   22.9650 C   0  0  0  0  0  0  0  0  0  0  0  0
   -3.2600   12.0930   23.7080 C   0  0  0  0  0  0  0  0  0  0  0  0
   -3.7930   13.1020   24.5080 C   0  0  0  0  0  0  0  0  0  0  0  0
   -3.1700   14.3470   24.5670 C   0  0  0  0  0  0  0  0  0  0  0  0
   -2.0120   14.5840   23.8230 C   0  0  0  0  0  0  0  0  0  0  0  0
   -1.6950   11.5300   22.3480 H   0  0  0  0  0  0  0  0  0  0  0  0
   -3.7470   11.1230   23.6610 H   0  0  0  0  0  0  0  0  0  0  0  0
   -4.6960   12.9190   25.0850 H   0  0  0  0  0  0  0  0  0  0  0  0
   -3.5860   15.1340   25.1900 H   0  0  0  0  0  0  0  0  0  0  0  0
   -1.5320   15.5590   23.8790 H   0  0  0  0  0  0  0  0  0  0  0  0
  1  7  1  6  0  0  0
  1 23  1  0  0  0  0
  2  3  1  0  0  0  0
  2  9  1  0  0  0  0
  2  1  1  0  0  0  0
  3  4  1  0  0  0  0
  4  5  2  0  0  0  0
  4  6  1  0  0  0  0
  6 11  1  6  0  0  0
  6  1  1  0  0  0  0
  6 12  1  0  0  0  0
  8  2  1  0  0  0  0
 10  3  1  0  0  0  0
 12 13  1  0  0  0  0
 13 18  1  0  0  0  0
 13 14  2  0  0  0  0
 14 19  1  0  0  0  0
 15 14  1  0  0  0  0
 15 20  1  0  0  0  0
 16 15  2  0  0  0  0
 17 12  2  0  0  0  0
 17 16  1  0  0  0  0
 21 16  1  0  0  0  0
 23 22  2  0  0  0  0
 23 24  1  0  0  0  0
 24 26  1  0  0  0  0
 25 24  1  0  0  0  0
 26 28  1  0  0  0  0
 26 29  1  0  0  0  0
 27 26  1  0  0  0  0
 29 34  1  0  0  0  0
 30 29  2  0  0  0  0
 30 31  1  0  0  0  0
 31 32  2  0  0  0  0
 32 33  1  0  0  0  0
 32 37  1  0  0  0  0
 33 38  1  0  0  0  0
 34 39  1  0  0  0  0
 34 33  2  0  0  0  0
 35 30  1  0  0  0  0
 36 31  1  0  0  0  0
M  END
>  <MODEL>
26

>  <REMARK>
 VINA RESULT:    -5.767      6.944     10.008
 INTER + INTRA:          -7.359
 INTER:                  -7.020
 INTRA:                  -0.339
 UNBOUND:                -0.244
  Name = 
  4 active torsions:
  status: ('A' for Active; 'I' for Inactive)
    1  A    between atoms: C_2  and  C_11
    2  A    between atoms: N_3  and  C_4
    3  A    between atoms: C_4  and  C_5
    4  A    between atoms: C_16  and  C_17
                            x       y       z     vdW  Elec       q    Type
                         _______ _______ _______ _____ _____    ______ ____

>  <TORSDO>
F 4

$$$$
=
 OpenBabel07192307433D

 39 41  0  0  1  0  0  0  0  0999 V2000
   -3.3070   12.4610   22.5600 C   0  0  2  0  0  0  0  0  0  0  0  0
   -3.9100   13.1790   23.7600 C   0  0  0  0  0  0  0  0  0  0  0  0
   -2.9720   14.2180   24.0650 N   0  0  0  0  0  0  0  0  0  0  0  0
   -1.7320   13.9970   23.5030 C   0  0  0  0  0  0  0  0  0  0  0  0
   -0.7690   14.7220   23.6860 O   0  0  0  0  0  0  0  0  0  0  0  0
   -1.7880   12.6950   22.7300 C   0  0  2  0  0  0  0  0  0  0  0  0
   -3.5510   11.3920   22.6030 H   0  0  0  0  0  0  0  0  0  0  0  0
   -3.9580   12.5190   24.6330 H   0  0  0  0  0  0  0  0  0  0  0  0
   -4.8990   13.6150   23.5930 H   0  0  0  0  0  0  0  0  0  0  0  0
   -3.1450   15.0180   24.6620 H   0  0  0  0  0  0  0  0  0  0  0  0
   -1.4070   11.9420   23.4370 H   0  0  0  0  0  0  0  0  0  0  0  0
   -0.9600   12.5660   21.4800 C   0  0  0  0  0  0  0  0  0  0  0  0
   -0.7880   13.5830   20.5460 C   0  0  0  0  0  0  0  0  0  0  0  0
   -0.0020   13.3470   19.4190 C   0  0  0  0  0  0  0  0  0  0  0  0
    0.5940   12.1060   19.2440 C   0  0  0  0  0  0  0  0  0  0  0  0
    0.3700   11.1390   20.2040 C   0  0  0  0  0  0  0  0  0  0  0  0
   -0.4000   11.3340   21.3000 N   0  0  0  0  0  0  0  0  0  0  0  0
   -1.2470   14.5590   20.6690 H   0  0  0  0  0  0  0  0  0  0  0  0
    0.1460   14.1360   18.6870 H   0  0  0  0  0  0  0  0  0  0  0  0
    1.2160   11.8980   18.3800 H   0  0  0  0  0  0  0  0  0  0  0  0
    0.8060   10.1490   20.1120 H   0  0  0  0  0  0  0  0  0  0  0  0
   -4.0370   14.1900   21.0210 O   0  0  0  0  0  0  0  0  0  0  0  0
   -3.8840   12.9950   21.2540 C   0  0  0  0  0  0  0  0  0  0  0  0
   -4.2450   12.0150   20.3570 N   0  0  0  0  0  0  0  0  0  0  0  0
   -3.8050   11.1020   20.4720 H   0  0  0  0  0  0  0  0  0  0  0  0
   -4.6570   12.3690   19.0200 C   0  0  0  0  0  0  0  0  0  0  0  0
   -4.4620   13.4380   18.8740 H   0  0  0  0  0  0  0  0  0  0  0  0
   -5.7400   12.2230   18.9300 H   0  0  0  0  0  0  0  0  0  0  0  0
   -3.9310   11.5430   17.9930 C   0  0  0  0  0  0  0  0  0  0  0  0
   -4.4140   11.4490   16.6800 C   0  0  0  0  0  0  0  0  0  0  0  0
   -3.7290   10.6970   15.7240 C   0  0  0  0  0  0  0  0  0  0  0  0
   -2.5530   10.0340   16.0700 C   0  0  0  0  0  0  0  0  0  0  0  0
   -2.0600   10.1220   17.3710 C   0  0  0  0  0  0  0  0  0  0  0  0
   -2.7450   10.8730   18.3280 C   0  0  0  0  0  0  0  0  0  0  0  0
   -5.3290   11.9640   16.3950 H   0  0  0  0  0  0  0  0  0  0  0  0
   -4.1150   10.6260   14.7110 H   0  0  0  0  0  0  0  0  0  0  0  0
   -2.0210    9.4470   15.3260 H   0  0  0  0  0  0  0  0  0  0  0  0
   -1.1440    9.6050   17.6410 H   0  0  0  0  0  0  0  0  0  0  0  0
   -2.3500   10.9380   19.3400 H   0  0  0  0  0  0  0  0  0  0  0  0
  1  7  1  1  0  0  0
  1  6  1  0  0  0  0
  1  2  1  0  0  0  0
  2  3  1  0  0  0  0
  2  8  1  0  0  0  0
  3 10  1  0  0  0  0
  4  5  2  0  0  0  0
  4  3  1  0  0  0  0
  6 11  1  1  0  0  0
  6  4  1  0  0  0  0
  9  2  1  0  0  0  0
 12  6  1  0  0  0  0
 13 18  1  0  0  0  0
 13 12  2  0  0  0  0
 14 13  1  0  0  0  0
 15 14  2  0  0  0  0
 15 16  1  0  0  0  0
 16 17  2  0  0  0  0
 17 12  1  0  0  0  0
 19 14  1  0  0  0  0
 20 15  1  0  0  0  0
 21 16  1  0  0  0  0
 22 23  2  0  0  0  0
 23  1  1  0  0  0  0
 24 25  1  0  0  0  0
 24 23  1  0  0  0  0
 26 24  1  0  0  0  0
 27 26  1  0  0  0  0
 28 26  1  0  0  0  0
 29 34  1  0  0  0  0
 29 26  1  0  0  0  0
 30 29  2  0  0  0  0
 31 32  2  0  0  0  0
 31 30  1  0  0  0  0
 32 33  1  0  0  0  0
 33 38  1  0  0  0  0
 33 34  2  0  0  0  0
 34 39  1  0  0  0  0
 35 30  1  0  0  0  0
 36 31  1  0  0  0  0
 37 32  1  0  0  0  0
M  END
>  <MODEL>
27

>  <REMARK>
 VINA RESULT:    -5.762      8.922     11.337
 INTER + INTRA:          -7.353
 INTER:                  -6.222
 INTRA:                  -1.131
 UNBOUND:                -0.244
  Name = 
  4 active torsions:
  status: ('A' for Active; 'I' for Inactive)
    1  A    between atoms: C_2  and  C_11
    2  A    between atoms: N_3  and  C_4
    3  A    between atoms: C_4  and  C_5
    4  A    between atoms: C_16  and  C_17
                            x       y       z     vdW  Elec       q    Type
                         _______ _______ _______ _____ _____    ______ ____

>  <TORSDO>
F 4

$$$$
=
 OpenBabel07192307433D

 39 41  0  0  1  0  0  0  0  0999 V2000
   -0.4500   12.6740   21.1790 C   0  0  2  0  0  0  0  0  0  0  0  0
    0.3070   11.5120   20.5500 C   0  0  0  0  0  0  0  0  0  0  0  0
   -0.1100   10.3650   21.2990 N   0  0  0  0  0  0  0  0  0  0  0  0
   -0.6810   10.6980   22.5090 C   0  0  0  0  0  0  0  0  0  0  0  0
   -1.0480    9.8760   23.3320 O   0  0  0  0  0  0  0  0  0  0  0  0
   -0.6730   12.2080   22.6360 C   0  0  2  0  0  0  0  0  0  0  0  0
    0.1640   13.5840   21.1430 H   0  0  0  0  0  0  0  0  0  0  0  0
    1.3880   11.6200   20.6950 H   0  0  0  0  0  0  0  0  0  0  0  0
    0.1090   11.3490   19.4870 H   0  0  0  0  0  0  0  0  0  0  0  0
    0.0230    9.3980   21.0270 H   0  0  0  0  0  0  0  0  0  0  0  0
    0.2430   12.4290   23.2060 H   0  0  0  0  0  0  0  0  0  0  0  0
   -1.8060   12.8730   23.3720 C   0  0  0  0  0  0  0  0  0  0  0  0
   -3.0730   12.3180   23.5230 C   0  0  0  0  0  0  0  0  0  0  0  0
   -4.0480   13.0290   24.2210 C   0  0  0  0  0  0  0  0  0  0  0  0
   -3.7440   14.2750   24.7510 C   0  0  0  0  0  0  0  0  0  0  0  0
   -2.4710   14.7700   24.5510 C   0  0  0  0  0  0  0  0  0  0  0  0
   -1.5080   14.1100   23.8660 N   0  0  0  0  0  0  0  0  0  0  0  0
   -3.3270   11.3440   23.1160 H   0  0  0  0  0  0  0  0  0  0  0  0
   -5.0400   12.6020   24.3530 H   0  0  0  0  0  0  0  0  0  0  0  0
   -4.4830   14.8460   25.3030 H   0  0  0  0  0  0  0  0  0  0  0  0
   -2.1830   15.7430   24.9370 H   0  0  0  0  0  0  0  0  0  0  0  0
   -2.1650   14.1090   20.2350 O   0  0  0  0  0  0  0  0  0  0  0  0
   -1.7320   12.9750   20.4100 C   0  0  0  0  0  0  0  0  0  0  0  0
   -2.3820   11.8540   19.9430 N   0  0  0  0  0  0  0  0  0  0  0  0
   -1.8230   11.0080   19.8400 H   0  0  0  0  0  0  0  0  0  0  0  0
   -3.5200   11.9880   19.0650 C   0  0  0  0  0  0  0  0  0  0  0  0
   -3.6890   13.0550   18.8850 H   0  0  0  0  0  0  0  0  0  0  0  0
   -4.4110   11.6000   19.5740 H   0  0  0  0  0  0  0  0  0  0  0  0
   -3.2940   11.2510   17.7710 C   0  0  0  0  0  0  0  0  0  0  0  0
   -4.1290   11.4750   16.6670 C   0  0  0  0  0  0  0  0  0  0  0  0
   -3.9070   10.8050   15.4630 C   0  0  0  0  0  0  0  0  0  0  0  0
   -2.8470    9.9070   15.3500 C   0  0  0  0  0  0  0  0  0  0  0  0
   -2.0080    9.6780   16.4390 C   0  0  0  0  0  0  0  0  0  0  0  0
   -2.2300   10.3470   17.6440 C   0  0  0  0  0  0  0  0  0  0  0  0
   -4.9580   12.1760   16.7400 H   0  0  0  0  0  0  0  0  0  0  0  0
   -4.5620   10.9810   14.6150 H   0  0  0  0  0  0  0  0  0  0  0  0
   -2.6760    9.3830   14.4130 H   0  0  0  0  0  0  0  0  0  0  0  0
   -1.1830    8.9780   16.3510 H   0  0  0  0  0  0  0  0  0  0  0  0
   -1.5680   10.1630   18.4880 H   0  0  0  0  0  0  0  0  0  0  0  0
  1  7  1  6  0  0  0
  1  6  1  0  0  0  0
  2  8  1  0  0  0  0
  2  1  1  0  0  0  0
  2  3  1  0  0  0  0
  3  4  1  0  0  0  0
  4  6  1  0  0  0  0
  4  5  2  0  0  0  0
  6 11  1  1  0  0  0
  6 12  1  0  0  0  0
  9  2  1  0  0  0  0
 10  3  1  0  0  0  0
 12 13  2  0  0  0  0
 12 17  1  0  0  0  0
 13 14  1  0  0  0  0
 14 19  1  0  0  0  0
 14 15  2  0  0  0  0
 15 20  1  0  0  0  0
 16 15  1  0  0  0  0
 16 21  1  0  0  0  0
 17 16  2  0  0  0  0
 18 13  1  0  0  0  0
 22 23  2  0  0  0  0
 23  1  1  0  0  0  0
 24 23  1  0  0  0  0
 25 24  1  0  0  0  0
 26 28  1  0  0  0  0
 26 24  1  0  0  0  0
 27 26  1  0  0  0  0
 29 26  1  0  0  0  0
 30 35  1  0  0  0  0
 30 29  2  0  0  0  0
 31 30  1  0  0  0  0
 32 31  2  0  0  0  0
 32 33  1  0  0  0  0
 33 34  2  0  0  0  0
 34 29  1  0  0  0  0
 34 39  1  0  0  0  0
 36 31  1  0  0  0  0
 37 32  1  0  0  0  0
 38 33  1  0  0  0  0
M  END
>  <MODEL>
28

>  <REMARK>
 VINA RESULT:    -5.735      8.469     10.833
 INTER + INTRA:          -7.319
 INTER:                  -7.104
 INTRA:                  -0.215
 UNBOUND:                -0.244
  Name = 
  4 active torsions:
  status: ('A' for Active; 'I' for Inactive)
    1  A    between atoms: C_2  and  C_11
    2  A    between atoms: N_3  and  C_4
    3  A    between atoms: C_4  and  C_5
    4  A    between atoms: C_16  and  C_17
                            x       y       z     vdW  Elec       q    Type
                         _______ _______ _______ _____ _____    ______ ____

>  <TORSDO>
F 4

$$$$
=
 OpenBabel07192307433D

 39 41  0  0  1  0  0  0  0  0999 V2000
    1.3010    9.2640   21.9560 C   0  0  2  0  0  0  0  0  0  0  0  0
    1.1960    9.2700   23.4750 C   0  0  0  0  0  0  0  0  0  0  0  0
   -0.0980    9.8220   23.7420 N   0  0  0  0  0  0  0  0  0  0  0  0
   -0.6190   10.5040   22.6630 C   0  0  0  0  0  0  0  0  0  0  0  0
   -1.6800   11.1050   22.6920 O   0  0  0  0  0  0  0  0  0  0  0  0
    0.3840   10.4320   21.5290 C   0  0  2  0  0  0  0  0  0  0  0  0
    2.3410    9.4440   21.6530 H   0  0  0  0  0  0  0  0  0  0  0  0
    1.9350    9.9450   23.9190 H   0  0  0  0  0  0  0  0  0  0  0  0
    1.2830    8.2900   23.9520 H   0  0  0  0  0  0  0  0  0  0  0  0
   -0.5910    9.7800   24.6270 H   0  0  0  0  0  0  0  0  0  0  0  0
    0.9610   11.3660   21.6160 H   0  0  0  0  0  0  0  0  0  0  0  0
   -0.1330   10.3790   20.1160 C   0  0  0  0  0  0  0  0  0  0  0  0
   -1.4100   10.7780   19.7340 C   0  0  0  0  0  0  0  0  0  0  0  0
   -1.7820   10.6780   18.3940 C   0  0  0  0  0  0  0  0  0  0  0  0
   -0.8790   10.1840   17.4640 C   0  0  0  0  0  0  0  0  0  0  0  0
    0.3670    9.7950   17.9160 C   0  0  0  0  0  0  0  0  0  0  0  0
    0.7510    9.8660   19.2120 N   0  0  0  0  0  0  0  0  0  0  0  0
   -2.1290   11.1680   20.4490 H   0  0  0  0  0  0  0  0  0  0  0  0
   -2.7750   10.9940   18.0830 H   0  0  0  0  0  0  0  0  0  0  0  0
   -1.1410   10.1010   16.4150 H   0  0  0  0  0  0  0  0  0  0  0  0
    1.1090    9.3930   17.2320 H   0  0  0  0  0  0  0  0  0  0  0  0
   -0.2320    7.4460   21.4690 O   0  0  0  0  0  0  0  0  0  0  0  0
    0.9020    7.9080   21.3840 C   0  0  0  0  0  0  0  0  0  0  0  0
    1.9340    7.2290   20.7780 N   0  0  0  0  0  0  0  0  0  0  0  0
    2.7290    7.7850   20.4630 H   0  0  0  0  0  0  0  0  0  0  0  0
    1.6740    6.0070   20.0540 C   0  0  0  0  0  0  0  0  0  0  0  0
    0.6470    6.0460   19.6750 H   0  0  0  0  0  0  0  0  0  0  0  0
    1.7310    5.1610   20.7490 H   0  0  0  0  0  0  0  0  0  0  0  0
    2.6580    5.8250   18.9280 C   0  0  0  0  0  0  0  0  0  0  0  0
    3.2280    6.9370   18.2930 C   0  0  0  0  0  0  0  0  0  0  0  0
    4.1540    6.7660   17.2620 C   0  0  0  0  0  0  0  0  0  0  0  0
    4.5200    5.4830   16.8580 C   0  0  0  0  0  0  0  0  0  0  0  0
    3.9620    4.3700   17.4840 C   0  0  0  0  0  0  0  0  0  0  0  0
    3.0360    4.5390   18.5140 C   0  0  0  0  0  0  0  0  0  0  0  0
    2.9550    7.9440   18.6000 H   0  0  0  0  0  0  0  0  0  0  0  0
    4.5870    7.6340   16.7720 H   0  0  0  0  0  0  0  0  0  0  0  0
    5.2390    5.3510   16.0540 H   0  0  0  0  0  0  0  0  0  0  0  0
    4.2470    3.3700   17.1690 H   0  0  0  0  0  0  0  0  0  0  0  0
    2.6080    3.6640   18.9990 H   0  0  0  0  0  0  0  0  0  0  0  0
  1  7  1  6  0  0  0
  1  2  1  0  0  0  0
  2  3  1  0  0  0  0
  2  8  1  0  0  0  0
  2  9  1  0  0  0  0
  3 10  1  0  0  0  0
  4  5  2  0  0  0  0
  4  3  1  0  0  0  0
  6 11  1  1  0  0  0
  6  1  1  0  0  0  0
  6  4  1  0  0  0  0
 12  6  1  0  0  0  0
 13 12  1  0  0  0  0
 13 18  1  0  0  0  0
 14 13  2  0  0  0  0
 15 16  2  0  0  0  0
 15 14  1  0  0  0  0
 16 17  1  0  0  0  0
 17 12  2  0  0  0  0
 19 14  1  0  0  0  0
 20 15  1  0  0  0  0
 21 16  1  0  0  0  0
 23 22  2  0  0  0  0
 23  1  1  0  0  0  0
 24 23  1  0  0  0  0
 25 24  1  0  0  0  0
 26 28  1  0  0  0  0
 26 24  1  0  0  0  0
 27 26  1  0  0  0  0
 29 26  1  0  0  0  0
 30 35  1  0  0  0  0
 30 29  2  0  0  0  0
 31 30  1  0  0  0  0
 32 31  2  0  0  0  0
 32 33  1  0  0  0  0
 33 34  2  0  0  0  0
 34 29  1  0  0  0  0
 34 39  1  0  0  0  0
 36 31  1  0  0  0  0
 37 32  1  0  0  0  0
 38 33  1  0  0  0  0
M  END
>  <MODEL>
29

>  <REMARK>
 VINA RESULT:    -5.733      4.515      7.010
 INTER + INTRA:          -7.317
 INTER:                  -7.076
 INTRA:                  -0.241
 UNBOUND:                -0.244
  Name = 
  4 active torsions:
  status: ('A' for Active; 'I' for Inactive)
    1  A    between atoms: C_2  and  C_11
    2  A    between atoms: N_3  and  C_4
    3  A    between atoms: C_4  and  C_5
    4  A    between atoms: C_16  and  C_17
                            x       y       z     vdW  Elec       q    Type
                         _______ _______ _______ _____ _____    ______ ____

>  <TORSDO>
F 4

$$$$
=
 OpenBabel07192307433D

 39 41  0  0  1  0  0  0  0  0999 V2000
   -0.3150   11.6580   22.1530 C   0  0  2  0  0  0  0  0  0  0  0  0
   -1.4450   11.1550   23.0430 C   0  0  0  0  0  0  0  0  0  0  0  0
   -2.4840   12.1280   22.8840 N   0  0  0  0  0  0  0  0  0  0  0  0
   -2.0240   13.3190   22.3630 C   0  0  0  0  0  0  0  0  0  0  0  0
   -2.7260   14.3030   22.2050 O   0  0  0  0  0  0  0  0  0  0  0  0
   -0.5330   13.1870   22.1280 C   0  0  2  0  0  0  0  0  0  0  0  0
    0.6550   11.4020   22.6020 H   0  0  0  0  0  0  0  0  0  0  0  0
   -1.1500   11.1630   24.0980 H   0  0  0  0  0  0  0  0  0  0  0  0
   -1.8290   10.1630   22.7910 H   0  0  0  0  0  0  0  0  0  0  0  0
   -3.4530   12.0110   23.1560 H   0  0  0  0  0  0  0  0  0  0  0  0
   -0.0750   13.6100   23.0350 H   0  0  0  0  0  0  0  0  0  0  0  0
    0.0770   13.9180   20.9610 C   0  0  0  0  0  0  0  0  0  0  0  0
   -0.6580   14.5670   19.9740 C   0  0  0  0  0  0  0  0  0  0  0  0
    0.0160   15.2080   18.9350 C   0  0  0  0  0  0  0  0  0  0  0  0
    1.4030   15.1870   18.8980 C   0  0  0  0  0  0  0  0  0  0  0  0
    2.0670   14.5130   19.9040 C   0  0  0  0  0  0  0  0  0  0  0  0
    1.4400   13.8700   20.9170 N   0  0  0  0  0  0  0  0  0  0  0  0
   -1.7430   14.5940   19.9880 H   0  0  0  0  0  0  0  0  0  0  0  0
   -0.5470   15.7250   18.1620 H   0  0  0  0  0  0  0  0  0  0  0  0
    1.9520   15.6820   18.1040 H   0  0  0  0  0  0  0  0  0  0  0  0
    3.1510   14.4590   19.9190 H   0  0  0  0  0  0  0  0  0  0  0  0
   -1.3950   10.8080   20.1530 O   0  0  0  0  0  0  0  0  0  0  0  0
   -0.3580   10.9910   20.7820 C   0  0  0  0  0  0  0  0  0  0  0  0
    0.8720   10.5890   20.3150 N   0  0  0  0  0  0  0  0  0  0  0  0
    1.6900   11.0480   20.7160 H   0  0  0  0  0  0  0  0  0  0  0  0
    1.0100   10.0880   18.9680 C   0  0  0  0  0  0  0  0  0  0  0  0
    1.5400   10.8420   18.3750 H   0  0  0  0  0  0  0  0  0  0  0  0
    0.0130    9.9730   18.5260 H   0  0  0  0  0  0  0  0  0  0  0  0
    1.7440    8.7740   18.9510 C   0  0  0  0  0  0  0  0  0  0  0  0
    1.6730    7.9020   20.0470 C   0  0  0  0  0  0  0  0  0  0  0  0
    2.3390    6.6760   20.0220 C   0  0  0  0  0  0  0  0  0  0  0  0
    3.0810    6.3080   18.9010 C   0  0  0  0  0  0  0  0  0  0  0  0
    3.1570    7.1640   17.8040 C   0  0  0  0  0  0  0  0  0  0  0  0
    2.4920    8.3910   17.8280 C   0  0  0  0  0  0  0  0  0  0  0  0
    1.0940    8.1750   20.9270 H   0  0  0  0  0  0  0  0  0  0  0  0
    2.2820    6.0100   20.8790 H   0  0  0  0  0  0  0  0  0  0  0  0
    3.6020    5.3540   18.8830 H   0  0  0  0  0  0  0  0  0  0  0  0
    3.7360    6.8770   16.9310 H   0  0  0  0  0  0  0  0  0  0  0  0
    2.5550    9.0510   16.9650 H   0  0  0  0  0  0  0  0  0  0  0  0
  1  7  1  1  0  0  0
  1  2  1  0  0  0  0
  2  8  1  0  0  0  0
  3  2  1  0  0  0  0
  3 10  1  0  0  0  0
  4  3  1  0  0  0  0
  5  4  2  0  0  0  0
  6  1  1  0  0  0  0
  6  4  1  0  0  0  0
  6 11  1  1  0  0  0
  9  2  1  0  0  0  0
 12  6  1  0  0  0  0
 13 18  1  0  0  0  0
 13 12  2  0  0  0  0
 14 13  1  0  0  0  0
 15 14  2  0  0  0  0
 15 16  1  0  0  0  0
 16 21  1  0  0  0  0
 16 17  2  0  0  0  0
 17 12  1  0  0  0  0
 19 14  1  0  0  0  0
 20 15  1  0  0  0  0
 22 23  2  0  0  0  0
 23  1  1  0  0  0  0
 24 25  1  0  0  0  0
 24 23  1  0  0  0  0
 26 24  1  0  0  0  0
 27 26  1  0  0  0  0
 28 26  1  0  0  0  0
 29 26  1  0  0  0  0
 29 30  1  0  0  0  0
 30 35  1  0  0  0  0
 31 30  2  0  0  0  0
 31 36  1  0  0  0  0
 32 31  1  0  0  0  0
 33 34  1  0  0  0  0
 33 32  2  0  0  0  0
 34 29  2  0  0  0  0
 37 32  1  0  0  0  0
 38 33  1  0  0  0  0
 39 34  1  0  0  0  0
M  END
>  <MODEL>
30

>  <REMARK>
 VINA RESULT:    -5.668      6.602      9.208
 INTER + INTRA:          -7.238
 INTER:                  -6.481
 INTRA:                  -0.757
 UNBOUND:                -0.244
  Name = 
  4 active torsions:
  status: ('A' for Active; 'I' for Inactive)
    1  A    between atoms: C_2  and  C_11
    2  A    between atoms: N_3  and  C_4
    3  A    between atoms: C_4  and  C_5
    4  A    between atoms: C_16  and  C_17
                            x       y       z     vdW  Elec       q    Type
                         _______ _______ _______ _____ _____    ______ ____

>  <TORSDO>
F 4

$$$$
=
 OpenBabel07192307433D

 39 41  0  0  1  0  0  0  0  0999 V2000
    0.8970    9.9320   22.1360 C   0  0  2  0  0  0  0  0  0  0  0  0
    0.1010    9.2870   23.2630 C   0  0  0  0  0  0  0  0  0  0  0  0
   -1.1630    9.9590   23.2380 N   0  0  0  0  0  0  0  0  0  0  0  0
   -1.1180   11.1530   22.5500 C   0  0  0  0  0  0  0  0  0  0  0  0
   -2.0650   11.9160   22.4590 O   0  0  0  0  0  0  0  0  0  0  0  0
    0.2940   11.3520   22.0390 C   0  0  2  0  0  0  0  0  0  0  0  0
    1.9610    9.9700   22.4040 H   0  0  0  0  0  0  0  0  0  0  0  0
    0.5590    9.4930   24.2370 H   0  0  0  0  0  0  0  0  0  0  0  0
   -0.0530    8.2090   23.1670 H   0  0  0  0  0  0  0  0  0  0  0  0
   -2.0090    9.6490   23.7020 H   0  0  0  0  0  0  0  0  0  0  0  0
    0.7770   11.9780   22.8060 H   0  0  0  0  0  0  0  0  0  0  0  0
    0.4890   12.0600   20.7250 C   0  0  0  0  0  0  0  0  0  0  0  0
   -0.5270   12.2950   19.8040 C   0  0  0  0  0  0  0  0  0  0  0  0
   -0.2280   12.9560   18.6140 C   0  0  0  0  0  0  0  0  0  0  0  0
    1.0740   13.3680   18.3640 C   0  0  0  0  0  0  0  0  0  0  0  0
    2.0340   13.0900   19.3160 C   0  0  0  0  0  0  0  0  0  0  0  0
    1.7770   12.4370   20.4730 N   0  0  0  0  0  0  0  0  0  0  0  0
   -1.5500   11.9800   19.9840 H   0  0  0  0  0  0  0  0  0  0  0  0
   -1.0150   13.1520   17.8900 H   0  0  0  0  0  0  0  0  0  0  0  0
    1.3320   13.8890   17.4490 H   0  0  0  0  0  0  0  0  0  0  0  0
    3.0700   13.3820   19.1670 H   0  0  0  0  0  0  0  0  0  0  0  0
   -0.2200    9.0680   20.1620 O   0  0  0  0  0  0  0  0  0  0  0  0
    0.7930    9.1140   20.8530 C   0  0  0  0  0  0  0  0  0  0  0  0
    1.9330    8.4070   20.5440 N   0  0  0  0  0  0  0  0  0  0  0  0
    2.8050    8.7360   20.9590 H   0  0  0  0  0  0  0  0  0  0  0  0
    2.0390    7.7150   19.2820 C   0  0  0  0  0  0  0  0  0  0  0  0
    2.9540    8.0520   18.7830 H   0  0  0  0  0  0  0  0  0  0  0  0
    1.1960    8.0060   18.6430 H   0  0  0  0  0  0  0  0  0  0  0  0
    2.0520    6.2230   19.4820 C   0  0  0  0  0  0  0  0  0  0  0  0
    2.3580    5.3620   18.4180 C   0  0  0  0  0  0  0  0  0  0  0  0
    2.3880    3.9800   18.6110 C   0  0  0  0  0  0  0  0  0  0  0  0
    2.1150    3.4450   19.8690 C   0  0  0  0  0  0  0  0  0  0  0  0
    1.8130    4.2900   20.9350 C   0  0  0  0  0  0  0  0  0  0  0  0
    1.7820    5.6720   20.7430 C   0  0  0  0  0  0  0  0  0  0  0  0
    2.5760    5.7660   17.4320 H   0  0  0  0  0  0  0  0  0  0  0  0
    2.6210    3.3210   17.7790 H   0  0  0  0  0  0  0  0  0  0  0  0
    2.1360    2.3680   20.0170 H   0  0  0  0  0  0  0  0  0  0  0  0
    1.6000    3.8730   21.9150 H   0  0  0  0  0  0  0  0  0  0  0  0
    1.5480    6.3230   21.5830 H   0  0  0  0  0  0  0  0  0  0  0  0
  1  7  1  1  0  0  0
  1  2  1  0  0  0  0
  2  8  1  0  0  0  0
  3  2  1  0  0  0  0
  3 10  1  0  0  0  0
  4  3  1  0  0  0  0
  5  4  2  0  0  0  0
  6  1  1  0  0  0  0
  6  4  1  0  0  0  0
  6 11  1  1  0  0  0
  9  2  1  0  0  0  0
 12  6  1  0  0  0  0
 13 18  1  0  0  0  0
 13 12  2  0  0  0  0
 14 13  1  0  0  0  0
 15 14  2  0  0  0  0
 15 16  1  0  0  0  0
 16 17  2  0  0  0  0
 17 12  1  0  0  0  0
 19 14  1  0  0  0  0
 20 15  1  0  0  0  0
 21 16  1  0  0  0  0
 22 23  2  0  0  0  0
 23  1  1  0  0  0  0
 24 23  1  0  0  0  0
 24 25  1  0  0  0  0
 26 29  1  0  0  0  0
 26 24  1  0  0  0  0
 27 26  1  0  0  0  0
 28 26  1  0  0  0  0
 29 34  1  0  0  0  0
 30 31  1  0  0  0  0
 30 29  2  0  0  0  0
 31 32  2  0  0  0  0
 32 37  1  0  0  0  0
 32 33  1  0  0  0  0
 33 38  1  0  0  0  0
 34 33  2  0  0  0  0
 34 39  1  0  0  0  0
 35 30  1  0  0  0  0
 36 31  1  0  0  0  0
M  END
>  <MODEL>
31

>  <REMARK>
 VINA RESULT:    -5.644      5.153      7.412
 INTER + INTRA:          -7.208
 INTER:                  -6.964
 INTRA:                  -0.244
 UNBOUND:                -0.244
  Name = 
  4 active torsions:
  status: ('A' for Active; 'I' for Inactive)
    1  A    between atoms: C_2  and  C_11
    2  A    between atoms: N_3  and  C_4
    3  A    between atoms: C_4  and  C_5
    4  A    between atoms: C_16  and  C_17
                            x       y       z     vdW  Elec       q    Type
                         _______ _______ _______ _____ _____    ______ ____

>  <TORSDO>
F 4

$$$$
=
 OpenBabel07192307433D

 39 41  0  0  1  0  0  0  0  0999 V2000
    0.6530   11.1580   19.9130 C   0  0  2  0  0  0  0  0  0  0  0  0
    1.6310   12.2170   20.4070 C   0  0  0  0  0  0  0  0  0  0  0  0
    1.0370   13.4610   20.0200 N   0  0  0  0  0  0  0  0  0  0  0  0
    0.0750   13.3110   19.0440 C   0  0  0  0  0  0  0  0  0  0  0  0
   -0.5120   14.2460   18.5240 O   0  0  0  0  0  0  0  0  0  0  0  0
   -0.0300   11.8380   18.7050 C   0  0  2  0  0  0  0  0  0  0  0  0
    1.2010   10.2580   19.6060 H   0  0  0  0  0  0  0  0  0  0  0  0
    2.5920   12.1390   19.8860 H   0  0  0  0  0  0  0  0  0  0  0  0
    1.8130   12.2150   21.4850 H   0  0  0  0  0  0  0  0  0  0  0  0
    1.2980   14.3770   20.3660 H   0  0  0  0  0  0  0  0  0  0  0  0
    0.6270   11.7120   17.8300 H   0  0  0  0  0  0  0  0  0  0  0  0
   -1.3740   11.2850   18.3140 C   0  0  0  0  0  0  0  0  0  0  0  0
   -1.5550   10.1600   17.5150 C   0  0  0  0  0  0  0  0  0  0  0  0
   -2.8500    9.7420   17.2110 C   0  0  0  0  0  0  0  0  0  0  0  0
   -3.9360   10.4510   17.7060 C   0  0  0  0  0  0  0  0  0  0  0  0
   -3.6820   11.5660   18.4810 C   0  0  0  0  0  0  0  0  0  0  0  0
   -2.4370   12.0040   18.7800 N   0  0  0  0  0  0  0  0  0  0  0  0
   -0.7170    9.5930   17.1210 H   0  0  0  0  0  0  0  0  0  0  0  0
   -3.0040    8.8600   16.5950 H   0  0  0  0  0  0  0  0  0  0  0  0
   -4.9530   10.1440   17.4890 H   0  0  0  0  0  0  0  0  0  0  0  0
   -4.4950   12.1610   18.8860 H   0  0  0  0  0  0  0  0  0  0  0  0
   -0.6660    9.5770   21.1990 O   0  0  0  0  0  0  0  0  0  0  0  0
   -0.3050   10.7360   21.0230 C   0  0  0  0  0  0  0  0  0  0  0  0
   -0.7510   11.7780   21.8050 N   0  0  0  0  0  0  0  0  0  0  0  0
   -0.1810   12.6230   21.8140 H   0  0  0  0  0  0  0  0  0  0  0  0
   -1.5350   11.5130   22.9880 C   0  0  0  0  0  0  0  0  0  0  0  0
   -0.9190   11.7460   23.8650 H   0  0  0  0  0  0  0  0  0  0  0  0
   -1.7660   10.4430   23.0310 H   0  0  0  0  0  0  0  0  0  0  0  0
   -2.8030   12.3240   22.9890 C   0  0  0  0  0  0  0  0  0  0  0  0
   -3.6730   12.2880   24.0890 C   0  0  0  0  0  0  0  0  0  0  0  0
   -4.8390   13.0540   24.0960 C   0  0  0  0  0  0  0  0  0  0  0  0
   -5.1470   13.8660   23.0050 C   0  0  0  0  0  0  0  0  0  0  0  0
   -4.2890   13.9130   21.9080 C   0  0  0  0  0  0  0  0  0  0  0  0
   -3.1230   13.1460   21.8990 C   0  0  0  0  0  0  0  0  0  0  0  0
   -3.4440   11.6620   24.9480 H   0  0  0  0  0  0  0  0  0  0  0  0
   -5.5090   13.0150   24.9500 H   0  0  0  0  0  0  0  0  0  0  0  0
   -6.0560   14.4610   23.0100 H   0  0  0  0  0  0  0  0  0  0  0  0
   -4.5290   14.5460   21.0580 H   0  0  0  0  0  0  0  0  0  0  0  0
   -2.4580   13.1930   21.0390 H   0  0  0  0  0  0  0  0  0  0  0  0
  1  7  1  6  0  0  0
  1  2  1  0  0  0  0
  1 23  1  0  0  0  0
  2  9  1  0  0  0  0
  3 10  1  0  0  0  0
  3  2  1  0  0  0  0
  4  3  1  0  0  0  0
  5  4  2  0  0  0  0
  6 11  1  6  0  0  0
  6  4  1  0  0  0  0
  6  1  1  0  0  0  0
  8  2  1  0  0  0  0
 12  6  1  0  0  0  0
 12 17  1  0  0  0  0
 13 12  2  0  0  0  0
 14 13  1  0  0  0  0
 14 15  2  0  0  0  0
 15 16  1  0  0  0  0
 16 17  2  0  0  0  0
 16 21  1  0  0  0  0
 18 13  1  0  0  0  0
 19 14  1  0  0  0  0
 20 15  1  0  0  0  0
 23 22  2  0  0  0  0
 23 24  1  0  0  0  0
 24 25  1  0  0  0  0
 24 26  1  0  0  0  0
 26 29  1  0  0  0  0
 26 28  1  0  0  0  0
 26 27  1  0  0  0  0
 29 30  1  0  0  0  0
 30 31  2  0  0  0  0
 30 35  1  0  0  0  0
 31 36  1  0  0  0  0
 32 37  1  0  0  0  0
 32 31  1  0  0  0  0
 33 32  2  0  0  0  0
 34 33  1  0  0  0  0
 34 29  2  0  0  0  0
 38 33  1  0  0  0  0
 39 34  1  0  0  0  0
M  END
>  <MODEL>
32

>  <REMARK>
 VINA RESULT:    -5.643      8.334     10.261
 INTER + INTRA:          -7.206
 INTER:                  -6.873
 INTRA:                  -0.334
 UNBOUND:                -0.244
  Name = 
  4 active torsions:
  status: ('A' for Active; 'I' for Inactive)
    1  A    between atoms: C_2  and  C_11
    2  A    between atoms: N_3  and  C_4
    3  A    between atoms: C_4  and  C_5
    4  A    between atoms: C_16  and  C_17
                            x       y       z     vdW  Elec       q    Type
                         _______ _______ _______ _____ _____    ______ ____

>  <TORSDO>
F 4

$$$$
=
 OpenBabel07192307433D

 39 41  0  0  1  0  0  0  0  0999 V2000
    0.3880   12.9460   19.4380 C   0  0  2  0  0  0  0  0  0  0  0  0
   -0.1740   13.4420   18.1120 C   0  0  0  0  0  0  0  0  0  0  0  0
   -1.3040   12.5970   17.8640 N   0  0  0  0  0  0  0  0  0  0  0  0
   -1.2770   11.4390   18.6120 C   0  0  0  0  0  0  0  0  0  0  0  0
   -2.1060   10.5500   18.5110 O   0  0  0  0  0  0  0  0  0  0  0  0
   -0.0260   11.4570   19.4670 C   0  0  2  0  0  0  0  0  0  0  0  0
    1.4810   13.0540   19.4430 H   0  0  0  0  0  0  0  0  0  0  0  0
    0.5380   13.2800   17.2950 H   0  0  0  0  0  0  0  0  0  0  0  0
   -0.4890   14.4890   18.1020 H   0  0  0  0  0  0  0  0  0  0  0  0
   -2.0380   12.7710   17.1880 H   0  0  0  0  0  0  0  0  0  0  0  0
    0.7130   10.8880   18.8820 H   0  0  0  0  0  0  0  0  0  0  0  0
   -0.0780   10.8170   20.8290 C   0  0  0  0  0  0  0  0  0  0  0  0
   -1.0500   11.0920   21.7860 C   0  0  0  0  0  0  0  0  0  0  0  0
   -0.9950   10.4420   23.0180 C   0  0  0  0  0  0  0  0  0  0  0  0
    0.0250    9.5360   23.2730 C   0  0  0  0  0  0  0  0  0  0  0  0
    0.9630    9.3220   22.2820 C   0  0  0  0  0  0  0  0  0  0  0  0
    0.9430    9.9490   21.0830 N   0  0  0  0  0  0  0  0  0  0  0  0
   -1.8550   11.7970   21.6030 H   0  0  0  0  0  0  0  0  0  0  0  0
   -1.7530   10.6430   23.7710 H   0  0  0  0  0  0  0  0  0  0  0  0
    0.0880    9.0120   24.2210 H   0  0  0  0  0  0  0  0  0  0  0  0
    1.7860    8.6290   22.4320 H   0  0  0  0  0  0  0  0  0  0  0  0
    0.5030   14.0030   21.6190 O   0  0  0  0  0  0  0  0  0  0  0  0
   -0.1450   13.7720   20.6030 C   0  0  0  0  0  0  0  0  0  0  0  0
   -1.4340   14.2230   20.4280 N   0  0  0  0  0  0  0  0  0  0  0  0
   -1.7760   14.2760   19.4690 H   0  0  0  0  0  0  0  0  0  0  0  0
   -2.0150   15.1470   21.3730 C   0  0  0  0  0  0  0  0  0  0  0  0
   -2.6280   15.8650   20.8160 H   0  0  0  0  0  0  0  0  0  0  0  0
   -1.2110   15.7160   21.8560 H   0  0  0  0  0  0  0  0  0  0  0  0
   -2.8360   14.4210   22.4050 C   0  0  0  0  0  0  0  0  0  0  0  0
   -3.8300   13.5130   22.0150 C   0  0  0  0  0  0  0  0  0  0  0  0
   -4.5780   12.8260   22.9730 C   0  0  0  0  0  0  0  0  0  0  0  0
   -4.3370   13.0400   24.3300 C   0  0  0  0  0  0  0  0  0  0  0  0
   -3.3500   13.9380   24.7300 C   0  0  0  0  0  0  0  0  0  0  0  0
   -2.6020   14.6260   23.7720 C   0  0  0  0  0  0  0  0  0  0  0  0
   -4.0260   13.3330   20.9600 H   0  0  0  0  0  0  0  0  0  0  0  0
   -5.3490   12.1280   22.6620 H   0  0  0  0  0  0  0  0  0  0  0  0
   -4.9220   12.5070   25.0760 H   0  0  0  0  0  0  0  0  0  0  0  0
   -3.1630   14.1050   25.7870 H   0  0  0  0  0  0  0  0  0  0  0  0
   -1.8320   15.3230   24.0950 H   0  0  0  0  0  0  0  0  0  0  0  0
  1  7  1  6  0  0  0
  1  6  1  0  0  0  0
  1 23  1  0  0  0  0
  2  1  1  0  0  0  0
  3  2  1  0  0  0  0
  3  4  1  0  0  0  0
  4  6  1  0  0  0  0
  5  4  2  0  0  0  0
  6 11  1  6  0  0  0
  6 12  1  0  0  0  0
  8  2  1  0  0  0  0
  9  2  1  0  0  0  0
 10  3  1  0  0  0  0
 12 17  2  0  0  0  0
 12 13  1  0  0  0  0
 13 14  2  0  0  0  0
 14 15  1  0  0  0  0
 14 19  1  0  0  0  0
 15 20  1  0  0  0  0
 16 21  1  0  0  0  0
 16 15  2  0  0  0  0
 17 16  1  0  0  0  0
 18 13  1  0  0  0  0
 23 22  2  0  0  0  0
 24 23  1  0  0  0  0
 24 26  1  0  0  0  0
 25 24  1  0  0  0  0
 26 28  1  0  0  0  0
 26 29  1  0  0  0  0
 27 26  1  0  0  0  0
 29 34  1  0  0  0  0
 30 29  2  0  0  0  0
 30 31  1  0  0  0  0
 31 32  2  0  0  0  0
 32 33  1  0  0  0  0
 32 37  1  0  0  0  0
 33 38  1  0  0  0  0
 34 39  1  0  0  0  0
 34 33  2  0  0  0  0
 35 30  1  0  0  0  0
 36 31  1  0  0  0  0
M  END
>  <MODEL>
33

>  <REMARK>
 VINA RESULT:    -5.548      7.771     10.780
 INTER + INTRA:          -7.089
 INTER:                  -6.643
 INTRA:                  -0.445
 UNBOUND:                -0.244
  Name = 
  4 active torsions:
  status: ('A' for Active; 'I' for Inactive)
    1  A    between atoms: C_2  and  C_11
    2  A    between atoms: N_3  and  C_4
    3  A    between atoms: C_4  and  C_5
    4  A    between atoms: C_16  and  C_17
                            x       y       z     vdW  Elec       q    Type
                         _______ _______ _______ _____ _____    ______ ____

>  <TORSDO>
F 4

$$$$
