=
 OpenBabel07192307433D

 66 68  0  0  0  0  0  0  0  0999 V2000
    2.3510    7.0040   20.0260 N   0  0  0  0  0  0  0  0  0  0  0  0
    3.3210    7.1610   20.2840 H   0  0  0  0  0  0  0  0  0  0  0  0
    1.2900    9.0510   19.2530 C   0  0  0  0  0  0  0  0  0  0  0  0
    0.4670   10.1700   19.4910 C   0  0  0  0  0  0  0  0  0  0  0  0
   -0.1080   10.3810   20.7470 C   0  0  0  0  0  0  0  0  0  0  0  0
    0.1160    9.4510   21.7610 C   0  0  0  0  0  0  0  0  0  0  0  0
    0.9390    8.3420   21.5320 C   0  0  0  0  0  0  0  0  0  0  0  0
    1.5720    8.1380   20.2970 C   0  0  0  0  0  0  0  0  0  0  0  0
    0.2480   10.8500   18.6720 H   0  0  0  0  0  0  0  0  0  0  0  0
   -0.3510    9.5810   22.7350 H   0  0  0  0  0  0  0  0  0  0  0  0
    1.0690    7.6440   22.3540 H   0  0  0  0  0  0  0  0  0  0  0  0
    1.8580    8.8650   17.8690 C   0  0  0  0  0  0  0  0  0  0  0  0
    2.3070    9.7970   17.5080 H   0  0  0  0  0  0  0  0  0  0  0  0
    1.0700    8.5460   17.1810 H   0  0  0  0  0  0  0  0  0  0  0  0
    2.6450    8.1040   17.8550 H   0  0  0  0  0  0  0  0  0  0  0  0
   -0.9870   11.5490   21.0300 C   0  0  0  0  0  0  0  0  0  0  0  0
   -1.4730   12.1940   20.1080 O   0  0  0  0  0  0  0  0  0  0  0  0
   -1.2370   11.8160   22.3630 N   0  0  0  0  0  0  0  0  0  0  0  0
   -1.0330   11.0910   23.0360 H   0  0  0  0  0  0  0  0  0  0  0  0
   -2.1830   12.8420   22.7470 C   0  0  0  0  0  0  0  0  0  0  0  0
   -1.5410   13.9430   23.5800 C   0  0  0  0  0  0  0  0  0  0  0  0
   -2.7300   14.6380   24.2320 C   0  0  0  0  0  0  0  0  0  0  0  0
   -3.8050   13.5620   24.3880 C   0  0  0  0  0  0  0  0  0  0  0  0
   -3.2790   12.3210   23.6720 C   0  0  0  0  0  0  0  0  0  0  0  0
   -2.6340   13.2690   21.8420 H   0  0  0  0  0  0  0  0  0  0  0  0
   -0.9410   14.6300   22.9740 H   0  0  0  0  0  0  0  0  0  0  0  0
   -0.8840   13.5230   24.3520 H   0  0  0  0  0  0  0  0  0  0  0  0
   -3.1010   15.4390   23.5820 H   0  0  0  0  0  0  0  0  0  0  0  0
   -2.4590   15.0910   25.1910 H   0  0  0  0  0  0  0  0  0  0  0  0
   -4.0060   13.3450   25.4420 H   0  0  0  0  0  0  0  0  0  0  0  0
   -4.7450   13.9020   23.9390 H   0  0  0  0  0  0  0  0  0  0  0  0
   -2.8670   11.6170   24.4070 H   0  0  0  0  0  0  0  0  0  0  0  0
   -4.0700   11.7940   23.1270 H   0  0  0  0  0  0  0  0  0  0  0  0
    1.8700    5.6670   20.3640 C   0  0  0  0  0  0  0  0  0  0  0  0
    2.0700    5.4430   21.4180 H   0  0  0  0  0  0  0  0  0  0  0  0
    0.7870    5.6200   20.1990 H   0  0  0  0  0  0  0  0  0  0  0  0
    2.5370    4.6160   19.4580 C   0  0  0  0  0  0  0  0  0  0  0  0
    2.5220    5.0310   17.9730 C   0  0  0  0  0  0  0  0  0  0  0  0
    3.2940    4.0320   17.1110 C   0  0  0  0  0  0  0  0  0  0  0  0
    4.6560    3.8820   17.6140 N   0  0  0  0  0  0  0  0  0  0  0  0
    5.8300    4.3870   17.0680 C   0  0  0  0  0  0  0  0  0  0  0  0
    6.8650    4.3850   17.7480 O   0  0  0  0  0  0  0  0  0  0  0  0
    4.6980    3.3830   18.9890 C   0  0  0  0  0  0  0  0  0  0  0  0
    3.9840    4.3610   19.9220 C   0  0  0  0  0  0  0  0  0  0  0  0
    1.9820    3.6710   19.5510 H   0  0  0  0  0  0  0  0  0  0  0  0
    1.4940    5.0970   17.6000 H   0  0  0  0  0  0  0  0  0  0  0  0
    2.9690    6.0280   17.8670 H   0  0  0  0  0  0  0  0  0  0  0  0
    3.2590    4.3430   16.0740 H   0  0  0  0  0  0  0  0  0  0  0  0
    2.8150    3.0460   17.1560 H   0  0  0  0  0  0  0  0  0  0  0  0
    4.1980    2.4070   19.0050 H   0  0  0  0  0  0  0  0  0  0  0  0
    5.7230    3.2200   19.3360 H   0  0  0  0  0  0  0  0  0  0  0  0
    3.9870    3.9580   20.9410 H   0  0  0  0  0  0  0  0  0  0  0  0
    4.5370    5.3100   19.9460 H   0  0  0  0  0  0  0  0  0  0  0  0
    5.8900    4.9450   15.6180 C   0  0  0  0  0  0  0  0  0  0  0  0
    5.3120    3.9480   14.6040 C   0  0  0  0  0  0  0  0  0  0  0  0
    5.7380    2.9460   14.6840 H   0  0  0  0  0  0  0  0  0  0  0  0
    4.2290    3.8400   14.7310 H   0  0  0  0  0  0  0  0  0  0  0  0
    5.4970    4.2870   13.5790 H   0  0  0  0  0  0  0  0  0  0  0  0
    5.2460    6.3350   15.5080 C   0  0  0  0  0  0  0  0  0  0  0  0
    5.2470    6.7380   14.4940 H   0  0  0  0  0  0  0  0  0  0  0  0
    5.7800    7.0680   16.1240 H   0  0  0  0  0  0  0  0  0  0  0  0
    4.2050    6.3110   15.8480 H   0  0  0  0  0  0  0  0  0  0  0  0
    7.3860    5.1290   15.2440 C   0  0  0  0  0  0  0  0  0  0  0  0
    8.0030    5.2970   16.1340 H   0  0  0  0  0  0  0  0  0  0  0  0
    7.7830    4.2440   14.7330 H   0  0  0  0  0  0  0  0  0  0  0  0
    7.5280    5.9870   14.5770 H   0  0  0  0  0  0  0  0  0  0  0  0
  1  2  1  0  0  0  0
  1  8  1  0  0  0  0
  1 34  1  0  0  0  0
  3  4  2  0  0  0  0
  3  8  1  0  0  0  0
  4  5  1  0  0  0  0
  5 16  1  0  0  0  0
  5  6  2  0  0  0  0
  6 10  1  0  0  0  0
  7  6  1  0  0  0  0
  7 11  1  0  0  0  0
  8  7  2  0  0  0  0
  9  4  1  0  0  0  0
 12  3  1  0  0  0  0
 13 12  1  0  0  0  0
 14 12  1  0  0  0  0
 15 12  1  0  0  0  0
 16 18  1  0  0  0  0
 17 16  2  0  0  0  0
 18 20  1  0  0  0  0
 18 19  1  0  0  0  0
 20 21  1  0  0  0  0
 20 24  1  0  0  0  0
 21 22  1  0  0  0  0
 21 27  1  0  0  0  0
 22 23  1  0  0  0  0
 22 29  1  0  0  0  0
 23 30  1  0  0  0  0
 24 23  1  0  0  0  0
 24 32  1  0  0  0  0
 25 20  1  0  0  0  0
 26 21  1  0  0  0  0
 28 22  1  0  0  0  0
 31 23  1  0  0  0  0
 33 24  1  0  0  0  0
 34 35  1  0  0  0  0
 36 34  1  0  0  0  0
 37 45  1  0  0  0  0
 37 44  1  0  0  0  0
 37 34  1  0  0  0  0
 38 37  1  0  0  0  0
 39 49  1  0  0  0  0
 39 40  1  0  0  0  0
 39 38  1  0  0  0  0
 40 43  1  0  0  0  0
 41 40  1  0  0  0  0
 41 42  2  0  0  0  0
 43 50  1  0  0  0  0
 43 51  1  0  0  0  0
 43 44  1  0  0  0  0
 44 53  1  0  0  0  0
 44 52  1  0  0  0  0
 46 38  1  0  0  0  0
 47 38  1  0  0  0  0
 48 39  1  0  0  0  0
 54 41  1  0  0  0  0
 55 56  1  0  0  0  0
 55 57  1  0  0  0  0
 55 54  1  0  0  0  0
 58 55  1  0  0  0  0
 59 54  1  0  0  0  0
 59 62  1  0  0  0  0
 59 61  1  0  0  0  0
 60 59  1  0  0  0  0
 63 54  1  0  0  0  0
 63 64  1  0  0  0  0
 65 63  1  0  0  0  0
 66 63  1  0  0  0  0
M  END
>  <MODEL>
1

>  <REMARK>
 VINA RESULT:    -7.621      0.000      0.000
 INTER + INTRA:         -11.687
 INTER:                 -11.016
 INTRA:                  -0.671
 UNBOUND:                -0.503
  Name = 
  10 active torsions:
  status: ('A' for Active; 'I' for Inactive)
    1  A    between atoms: C_1  and  C_2
    2  A    between atoms: C_4  and  C_5
    3  A    between atoms: N_7  and  C_8
    4  A    between atoms: C_15  and  N_16
    5  A    between atoms: N_16  and  C_17
    6  A    between atoms: C_17  and  C_18
    7  A    between atoms: C_22  and  C_24
    8  A    between atoms: C_24  and  C_25
    9  A    between atoms: C_24  and  C_26
   10  A    between atoms: C_24  and  C_27
                            x       y       z     vdW  Elec       q    Type
                         _______ _______ _______ _____ _____    ______ ____

>  <TORSDO>
F 10

$$$$
=
 OpenBabel07192307433D

 66 68  0  0  0  0  0  0  0  0999 V2000
    2.3520    6.9620   20.2470 N   0  0  0  0  0  0  0  0  0  0  0  0
    3.1580    7.0720   20.8550 H   0  0  0  0  0  0  0  0  0  0  0  0
    1.6030    8.9090   18.9980 C   0  0  0  0  0  0  0  0  0  0  0  0
    0.8170   10.0750   18.9020 C   0  0  0  0  0  0  0  0  0  0  0  0
    0.0040   10.4790   19.9630 C   0  0  0  0  0  0  0  0  0  0  0  0
   -0.0470    9.6960   21.1150 C   0  0  0  0  0  0  0  0  0  0  0  0
    0.7370    8.5420   21.2190 C   0  0  0  0  0  0  0  0  0  0  0  0
    1.6030    8.1450   20.1900 C   0  0  0  0  0  0  0  0  0  0  0  0
    0.8170   10.6380   17.9720 H   0  0  0  0  0  0  0  0  0  0  0  0
   -0.7010    9.9770   21.9380 H   0  0  0  0  0  0  0  0  0  0  0  0
    0.6490    7.9640   22.1350 H   0  0  0  0  0  0  0  0  0  0  0  0
    2.4380    8.5110   17.8080 C   0  0  0  0  0  0  0  0  0  0  0  0
    3.4300    8.1760   18.1270 H   0  0  0  0  0  0  0  0  0  0  0  0
    2.5400    9.3580   17.1220 H   0  0  0  0  0  0  0  0  0  0  0  0
    1.9830    7.6840   17.2540 H   0  0  0  0  0  0  0  0  0  0  0  0
   -0.8440   11.7010   19.8920 C   0  0  0  0  0  0  0  0  0  0  0  0
   -0.7610   12.4550   18.9280 O   0  0  0  0  0  0  0  0  0  0  0  0
   -1.7260   11.8950   20.9370 N   0  0  0  0  0  0  0  0  0  0  0  0
   -1.9270   11.1070   21.5370 H   0  0  0  0  0  0  0  0  0  0  0  0
   -2.6890   12.9750   20.9040 C   0  0  0  0  0  0  0  0  0  0  0  0
   -3.2380   13.3080   22.2840 C   0  0  0  0  0  0  0  0  0  0  0  0
   -4.5000   14.1070   21.9830 C   0  0  0  0  0  0  0  0  0  0  0  0
   -5.0130   13.5830   20.6410 C   0  0  0  0  0  0  0  0  0  0  0  0
   -3.9490   12.6210   20.1190 C   0  0  0  0  0  0  0  0  0  0  0  0
   -2.2150   13.8610   20.4630 H   0  0  0  0  0  0  0  0  0  0  0  0
   -2.5250   13.8740   22.8920 H   0  0  0  0  0  0  0  0  0  0  0  0
   -3.4950   12.3970   22.8380 H   0  0  0  0  0  0  0  0  0  0  0  0
   -4.2590   15.1730   21.8950 H   0  0  0  0  0  0  0  0  0  0  0  0
   -5.2460   14.0020   22.7780 H   0  0  0  0  0  0  0  0  0  0  0  0
   -5.9760   13.0750   20.7510 H   0  0  0  0  0  0  0  0  0  0  0  0
   -5.1610   14.4160   19.9450 H   0  0  0  0  0  0  0  0  0  0  0  0
   -4.2560   11.5870   20.3210 H   0  0  0  0  0  0  0  0  0  0  0  0
   -3.8080   12.7120   19.0370 H   0  0  0  0  0  0  0  0  0  0  0  0
    1.6940    5.6650   20.3850 C   0  0  0  0  0  0  0  0  0  0  0  0
    1.6890    5.3480   21.4340 H   0  0  0  0  0  0  0  0  0  0  0  0
    0.6560    5.7480   20.0430 H   0  0  0  0  0  0  0  0  0  0  0  0
    2.4010    4.6130   19.5120 C   0  0  0  0  0  0  0  0  0  0  0  0
    2.4280    5.0130   18.0220 C   0  0  0  0  0  0  0  0  0  0  0  0
    3.2390    4.0140   17.1960 C   0  0  0  0  0  0  0  0  0  0  0  0
    4.5860    3.8860   17.7420 N   0  0  0  0  0  0  0  0  0  0  0  0
    5.7710    4.3990   17.2280 C   0  0  0  0  0  0  0  0  0  0  0  0
    6.7840    4.4170   17.9400 O   0  0  0  0  0  0  0  0  0  0  0  0
    4.5910    3.4020   19.1240 C   0  0  0  0  0  0  0  0  0  0  0  0
    3.8370    4.3800   20.0230 C   0  0  0  0  0  0  0  0  0  0  0  0
    1.8560    3.6620   19.5970 H   0  0  0  0  0  0  0  0  0  0  0  0
    1.4120    5.0620   17.6170 H   0  0  0  0  0  0  0  0  0  0  0  0
    2.8670    6.0130   17.9190 H   0  0  0  0  0  0  0  0  0  0  0  0
    3.2330    4.3140   16.1550 H   0  0  0  0  0  0  0  0  0  0  0  0
    2.7710    3.0230   17.2360 H   0  0  0  0  0  0  0  0  0  0  0  0
    4.1020    2.4190   19.1340 H   0  0  0  0  0  0  0  0  0  0  0  0
    5.6070    3.2540   19.5040 H   0  0  0  0  0  0  0  0  0  0  0  0
    3.8130    3.9880   21.0460 H   0  0  0  0  0  0  0  0  0  0  0  0
    4.3770    5.3360   20.0540 H   0  0  0  0  0  0  0  0  0  0  0  0
    5.8700    4.9430   15.7750 C   0  0  0  0  0  0  0  0  0  0  0  0
    5.3570    3.9190   14.7510 C   0  0  0  0  0  0  0  0  0  0  0  0
    5.0180    4.3690   13.8170 H   0  0  0  0  0  0  0  0  0  0  0  0
    6.1420    3.2000   14.4890 H   0  0  0  0  0  0  0  0  0  0  0  0
    4.5100    3.3570   15.1570 H   0  0  0  0  0  0  0  0  0  0  0  0
    5.1920    6.3130   15.6240 C   0  0  0  0  0  0  0  0  0  0  0  0
    4.3170    6.2990   14.9740 H   0  0  0  0  0  0  0  0  0  0  0  0
    5.8800    7.0470   15.1870 H   0  0  0  0  0  0  0  0  0  0  0  0
    4.8690    6.6990   16.5980 H   0  0  0  0  0  0  0  0  0  0  0  0
    7.3730    5.1640   15.4540 C   0  0  0  0  0  0  0  0  0  0  0  0
    8.0010    4.4050   15.9360 H   0  0  0  0  0  0  0  0  0  0  0  0
    7.5650    5.1100   14.3760 H   0  0  0  0  0  0  0  0  0  0  0  0
    7.7160    6.1450   15.8010 H   0  0  0  0  0  0  0  0  0  0  0  0
  1 34  1  0  0  0  0
  1  2  1  0  0  0  0
  3  8  1  0  0  0  0
  4  3  2  0  0  0  0
  4  5  1  0  0  0  0
  5  6  2  0  0  0  0
  6  7  1  0  0  0  0
  6 10  1  0  0  0  0
  7 11  1  0  0  0  0
  8  1  1  0  0  0  0
  8  7  2  0  0  0  0
  9  4  1  0  0  0  0
 12 13  1  0  0  0  0
 12  3  1  0  0  0  0
 14 12  1  0  0  0  0
 15 12  1  0  0  0  0
 16  5  1  0  0  0  0
 16 18  1  0  0  0  0
 17 16  2  0  0  0  0
 18 19  1  0  0  0  0
 20 18  1  0  0  0  0
 20 21  1  0  0  0  0
 21 27  1  0  0  0  0
 21 26  1  0  0  0  0
 22 21  1  0  0  0  0
 22 29  1  0  0  0  0
 23 30  1  0  0  0  0
 23 22  1  0  0  0  0
 24 32  1  0  0  0  0
 24 23  1  0  0  0  0
 24 20  1  0  0  0  0
 25 20  1  0  0  0  0
 28 22  1  0  0  0  0
 31 23  1  0  0  0  0
 33 24  1  0  0  0  0
 34 35  1  0  0  0  0
 36 34  1  0  0  0  0
 37 45  1  0  0  0  0
 37 44  1  0  0  0  0
 37 34  1  0  0  0  0
 38 37  1  0  0  0  0
 39 49  1  0  0  0  0
 39 40  1  0  0  0  0
 39 38  1  0  0  0  0
 40 43  1  0  0  0  0
 41 40  1  0  0  0  0
 41 42  2  0  0  0  0
 43 50  1  0  0  0  0
 43 51  1  0  0  0  0
 43 44  1  0  0  0  0
 44 53  1  0  0  0  0
 44 52  1  0  0  0  0
 46 38  1  0  0  0  0
 47 38  1  0  0  0  0
 48 39  1  0  0  0  0
 54 41  1  0  0  0  0
 55 58  1  0  0  0  0
 55 54  1  0  0  0  0
 56 55  1  0  0  0  0
 57 55  1  0  0  0  0
 59 54  1  0  0  0  0
 59 62  1  0  0  0  0
 60 59  1  0  0  0  0
 61 59  1  0  0  0  0
 63 54  1  0  0  0  0
 63 66  1  0  0  0  0
 63 64  1  0  0  0  0
 65 63  1  0  0  0  0
M  END
>  <MODEL>
2

>  <REMARK>
 VINA RESULT:    -7.393      1.220      1.367
 INTER + INTRA:         -11.353
 INTER:                 -10.635
 INTRA:                  -0.718
 UNBOUND:                -0.503
  Name = 
  10 active torsions:
  status: ('A' for Active; 'I' for Inactive)
    1  A    between atoms: C_1  and  C_2
    2  A    between atoms: C_4  and  C_5
    3  A    between atoms: N_7  and  C_8
    4  A    between atoms: C_15  and  N_16
    5  A    between atoms: N_16  and  C_17
    6  A    between atoms: C_17  and  C_18
    7  A    between atoms: C_22  and  C_24
    8  A    between atoms: C_24  and  C_25
    9  A    between atoms: C_24  and  C_26
   10  A    between atoms: C_24  and  C_27
                            x       y       z     vdW  Elec       q    Type
                         _______ _______ _______ _____ _____    ______ ____

>  <TORSDO>
F 10

$$$$
=
 OpenBabel07192307433D

 66 68  0  0  0  0  0  0  0  0999 V2000
    0.0970   10.8440   19.8530 N   0  0  0  0  0  0  0  0  0  0  0  0
    0.6720   11.6120   20.1830 H   0  0  0  0  0  0  0  0  0  0  0  0
    1.1880    8.7420   20.4070 C   0  0  0  0  0  0  0  0  0  0  0  0
    1.9410    7.6140   20.0240 C   0  0  0  0  0  0  0  0  0  0  0  0
    2.3780    7.4600   18.7050 C   0  0  0  0  0  0  0  0  0  0  0  0
    2.0330    8.4240   17.7590 C   0  0  0  0  0  0  0  0  0  0  0  0
    1.2930    9.5490   18.1360 C   0  0  0  0  0  0  0  0  0  0  0  0
    0.8900    9.7550   19.4640 C   0  0  0  0  0  0  0  0  0  0  0  0
    2.1440    6.8380   20.7580 H   0  0  0  0  0  0  0  0  0  0  0  0
    2.3360    8.3030   16.7210 H   0  0  0  0  0  0  0  0  0  0  0  0
    1.0430   10.2620   17.3560 H   0  0  0  0  0  0  0  0  0  0  0  0
    0.7230    8.8360   21.8380 C   0  0  0  0  0  0  0  0  0  0  0  0
    1.4080    9.4550   22.4260 H   0  0  0  0  0  0  0  0  0  0  0  0
    0.6610    7.8360   22.2780 H   0  0  0  0  0  0  0  0  0  0  0  0
   -0.2670    9.2970   21.9100 H   0  0  0  0  0  0  0  0  0  0  0  0
    3.1680    6.2770   18.2650 C   0  0  0  0  0  0  0  0  0  0  0  0
    2.7560    5.1430   18.4840 O   0  0  0  0  0  0  0  0  0  0  0  0
    4.3400    6.5450   17.5840 N   0  0  0  0  0  0  0  0  0  0  0  0
    4.4660    7.4750   17.2100 H   0  0  0  0  0  0  0  0  0  0  0  0
    5.1160    5.4750   16.9950 C   0  0  0  0  0  0  0  0  0  0  0  0
    6.4960    5.3400   17.6260 C   0  0  0  0  0  0  0  0  0  0  0  0
    7.2730    4.5120   16.6110 C   0  0  0  0  0  0  0  0  0  0  0  0
    6.6630    4.8430   15.2490 C   0  0  0  0  0  0  0  0  0  0  0  0
    5.4430    5.7180   15.5250 C   0  0  0  0  0  0  0  0  0  0  0  0
    4.5620    4.5330   17.1000 H   0  0  0  0  0  0  0  0  0  0  0  0
    6.4610    4.8640   18.6100 H   0  0  0  0  0  0  0  0  0  0  0  0
    6.9700    6.3210   17.7500 H   0  0  0  0  0  0  0  0  0  0  0  0
    7.1470    3.4430   16.8210 H   0  0  0  0  0  0  0  0  0  0  0  0
    8.3450    4.7300   16.6450 H   0  0  0  0  0  0  0  0  0  0  0  0
    7.3770    5.3650   14.6050 H   0  0  0  0  0  0  0  0  0  0  0  0
    6.3720    3.9210   14.7330 H   0  0  0  0  0  0  0  0  0  0  0  0
    5.6980    6.7720   15.3520 H   0  0  0  0  0  0  0  0  0  0  0  0
    4.6040    5.4750   14.8650 H   0  0  0  0  0  0  0  0  0  0  0  0
   -1.0340   11.2750   19.0360 C   0  0  0  0  0  0  0  0  0  0  0  0
   -0.7480   11.3200   17.9790 H   0  0  0  0  0  0  0  0  0  0  0  0
   -1.8540   10.5550   19.1430 H   0  0  0  0  0  0  0  0  0  0  0  0
   -1.5410   12.6500   19.5100 C   0  0  0  0  0  0  0  0  0  0  0  0
   -2.8540   12.5430   20.3120 C   0  0  0  0  0  0  0  0  0  0  0  0
   -3.2720   13.9020   20.8740 C   0  0  0  0  0  0  0  0  0  0  0  0
   -2.1940   14.4650   21.6800 N   0  0  0  0  0  0  0  0  0  0  0  0
   -2.1200   14.5590   23.0650 C   0  0  0  0  0  0  0  0  0  0  0  0
   -1.0360   14.8300   23.5970 O   0  0  0  0  0  0  0  0  0  0  0  0
   -0.9660   14.6790   20.9120 C   0  0  0  0  0  0  0  0  0  0  0  0
   -0.4590   13.3480   20.3570 C   0  0  0  0  0  0  0  0  0  0  0  0
   -1.7330   13.2760   18.6270 H   0  0  0  0  0  0  0  0  0  0  0  0
   -3.6630   12.1590   19.6800 H   0  0  0  0  0  0  0  0  0  0  0  0
   -2.7220   11.8320   21.1380 H   0  0  0  0  0  0  0  0  0  0  0  0
   -4.2000   13.7990   21.4230 H   0  0  0  0  0  0  0  0  0  0  0  0
   -3.4720   14.6030   20.0540 H   0  0  0  0  0  0  0  0  0  0  0  0
   -1.2020   15.3690   20.0910 H   0  0  0  0  0  0  0  0  0  0  0  0
   -0.1840   15.1550   21.5110 H   0  0  0  0  0  0  0  0  0  0  0  0
    0.4370   13.5250   19.7510 H   0  0  0  0  0  0  0  0  0  0  0  0
   -0.1640   12.6960   21.1900 H   0  0  0  0  0  0  0  0  0  0  0  0
   -3.3640   14.3450   23.9710 C   0  0  0  0  0  0  0  0  0  0  0  0
   -4.5410   15.2300   23.5360 C   0  0  0  0  0  0  0  0  0  0  0  0
   -4.4450   16.2700   23.8530 H   0  0  0  0  0  0  0  0  0  0  0  0
   -4.6410   15.2420   22.4450 H   0  0  0  0  0  0  0  0  0  0  0  0
   -5.4820   14.8580   23.9550 H   0  0  0  0  0  0  0  0  0  0  0  0
   -3.7530   12.8630   24.0780 C   0  0  0  0  0  0  0  0  0  0  0  0
   -3.9400   12.3900   23.1130 H   0  0  0  0  0  0  0  0  0  0  0  0
   -4.6750   12.7370   24.6580 H   0  0  0  0  0  0  0  0  0  0  0  0
   -2.9650   12.2870   24.5760 H   0  0  0  0  0  0  0  0  0  0  0  0
   -2.9860   14.7990   25.4080 C   0  0  0  0  0  0  0  0  0  0  0  0
   -3.8790   15.0100   26.0080 H   0  0  0  0  0  0  0  0  0  0  0  0
   -2.4130   14.0270   25.9350 H   0  0  0  0  0  0  0  0  0  0  0  0
   -2.3770   15.7090   25.3920 H   0  0  0  0  0  0  0  0  0  0  0  0
  1  2  1  0  0  0  0
  3 12  1  0  0  0  0
  4  3  1  0  0  0  0
  4  9  1  0  0  0  0
  5  4  2  0  0  0  0
  6  7  2  0  0  0  0
  6  5  1  0  0  0  0
  7  8  1  0  0  0  0
  8  1  1  0  0  0  0
  8  3  2  0  0  0  0
 10  6  1  0  0  0  0
 11  7  1  0  0  0  0
 12 15  1  0  0  0  0
 12 14  1  0  0  0  0
 12 13  1  0  0  0  0
 16 17  2  0  0  0  0
 16  5  1  0  0  0  0
 18 16  1  0  0  0  0
 19 18  1  0  0  0  0
 20 25  1  0  0  0  0
 20 18  1  0  0  0  0
 20 21  1  0  0  0  0
 21 27  1  0  0  0  0
 21 26  1  0  0  0  0
 22 29  1  0  0  0  0
 22 28  1  0  0  0  0
 22 21  1  0  0  0  0
 23 24  1  0  0  0  0
 23 22  1  0  0  0  0
 24 20  1  0  0  0  0
 30 23  1  0  0  0  0
 31 23  1  0  0  0  0
 32 24  1  0  0  0  0
 33 24  1  0  0  0  0
 34 36  1  0  0  0  0
 34 37  1  0  0  0  0
 34  1  1  0  0  0  0
 35 34  1  0  0  0  0
 37 38  1  0  0  0  0
 37 44  1  0  0  0  0
 38 39  1  0  0  0  0
 38 47  1  0  0  0  0
 39 48  1  0  0  0  0
 39 40  1  0  0  0  0
 40 41  1  0  0  0  0
 41 42  2  0  0  0  0
 41 54  1  0  0  0  0
 43 51  1  0  0  0  0
 43 40  1  0  0  0  0
 44 43  1  0  0  0  0
 44 53  1  0  0  0  0
 45 37  1  0  0  0  0
 46 38  1  0  0  0  0
 49 39  1  0  0  0  0
 50 43  1  0  0  0  0
 52 44  1  0  0  0  0
 54 59  1  0  0  0  0
 54 63  1  0  0  0  0
 55 56  1  0  0  0  0
 55 58  1  0  0  0  0
 55 54  1  0  0  0  0
 57 55  1  0  0  0  0
 59 62  1  0  0  0  0
 59 61  1  0  0  0  0
 60 59  1  0  0  0  0
 63 65  1  0  0  0  0
 63 64  1  0  0  0  0
 66 63  1  0  0  0  0
M  END
>  <MODEL>
3

>  <REMARK>
 VINA RESULT:    -6.915      2.006     11.149
 INTER + INTRA:         -10.651
 INTER:                 -10.115
 INTRA:                  -0.536
 UNBOUND:                -0.503
  Name = 
  10 active torsions:
  status: ('A' for Active; 'I' for Inactive)
    1  A    between atoms: C_1  and  C_2
    2  A    between atoms: C_4  and  C_5
    3  A    between atoms: N_7  and  C_8
    4  A    between atoms: C_15  and  N_16
    5  A    between atoms: N_16  and  C_17
    6  A    between atoms: C_17  and  C_18
    7  A    between atoms: C_22  and  C_24
    8  A    between atoms: C_24  and  C_25
    9  A    between atoms: C_24  and  C_26
   10  A    between atoms: C_24  and  C_27
                            x       y       z     vdW  Elec       q    Type
                         _______ _______ _______ _____ _____    ______ ____

>  <TORSDO>
F 10

$$$$
=
 OpenBabel07192307433D

 66 68  0  0  0  0  0  0  0  0999 V2000
    2.8200    6.7110   20.1760 N   0  0  0  0  0  0  0  0  0  0  0  0
    3.5440    6.9610   20.8420 H   0  0  0  0  0  0  0  0  0  0  0  0
    1.9840    8.4350   18.6790 C   0  0  0  0  0  0  0  0  0  0  0  0
    1.0940    9.4930   18.4030 C   0  0  0  0  0  0  0  0  0  0  0  0
    0.1570    9.9050   19.3550 C   0  0  0  0  0  0  0  0  0  0  0  0
    0.0890    9.2360   20.5750 C   0  0  0  0  0  0  0  0  0  0  0  0
    0.9750    8.1900   20.8560 C   0  0  0  0  0  0  0  0  0  0  0  0
    1.9610    7.7940   19.9400 C   0  0  0  0  0  0  0  0  0  0  0  0
    1.1150    9.9610   17.4220 H   0  0  0  0  0  0  0  0  0  0  0  0
   -0.6570    9.5210   21.3140 H   0  0  0  0  0  0  0  0  0  0  0  0
    0.8690    7.6970   21.8180 H   0  0  0  0  0  0  0  0  0  0  0  0
    2.9520    8.0190   17.6010 C   0  0  0  0  0  0  0  0  0  0  0  0
    2.5720    8.2980   16.6130 H   0  0  0  0  0  0  0  0  0  0  0  0
    3.1150    6.9380   17.6410 H   0  0  0  0  0  0  0  0  0  0  0  0
    3.9240    8.5100   17.7200 H   0  0  0  0  0  0  0  0  0  0  0  0
   -0.8020   11.0140   19.0930 C   0  0  0  0  0  0  0  0  0  0  0  0
   -0.4590   12.1800   19.2620 O   0  0  0  0  0  0  0  0  0  0  0  0
   -2.0490   10.6460   18.6270 N   0  0  0  0  0  0  0  0  0  0  0  0
   -2.1590    9.7110   18.2590 H   0  0  0  0  0  0  0  0  0  0  0  0
   -3.0110   11.6460   18.2150 C   0  0  0  0  0  0  0  0  0  0  0  0
   -4.0100   11.9810   19.3140 C   0  0  0  0  0  0  0  0  0  0  0  0
   -5.1460   12.6680   18.5670 C   0  0  0  0  0  0  0  0  0  0  0  0
   -5.1470   12.0620   17.1630 C   0  0  0  0  0  0  0  0  0  0  0  0
   -3.9120   11.1690   17.0790 C   0  0  0  0  0  0  0  0  0  0  0  0
   -2.4730   12.5520   17.9060 H   0  0  0  0  0  0  0  0  0  0  0  0
   -3.5790   12.6210   20.0900 H   0  0  0  0  0  0  0  0  0  0  0  0
   -4.3800   11.0720   19.8030 H   0  0  0  0  0  0  0  0  0  0  0  0
   -4.9570   13.7460   18.5020 H   0  0  0  0  0  0  0  0  0  0  0  0
   -6.1060   12.5320   19.0740 H   0  0  0  0  0  0  0  0  0  0  0  0
   -6.0570   11.4830   16.9760 H   0  0  0  0  0  0  0  0  0  0  0  0
   -5.1050   12.8560   16.4100 H   0  0  0  0  0  0  0  0  0  0  0  0
   -4.2030   10.1210   17.2270 H   0  0  0  0  0  0  0  0  0  0  0  0
   -3.4220   11.2350   16.1020 H   0  0  0  0  0  0  0  0  0  0  0  0
    2.2890    5.3650   20.3740 C   0  0  0  0  0  0  0  0  0  0  0  0
    2.4210    5.0510   21.4160 H   0  0  0  0  0  0  0  0  0  0  0  0
    1.2170    5.3600   20.1430 H   0  0  0  0  0  0  0  0  0  0  0  0
    2.9850    4.3720   19.4250 C   0  0  0  0  0  0  0  0  0  0  0  0
    2.8060    4.7590   17.9420 C   0  0  0  0  0  0  0  0  0  0  0  0
    3.6050    3.8300   17.0280 C   0  0  0  0  0  0  0  0  0  0  0  0
    5.0110    3.8300   17.4170 N   0  0  0  0  0  0  0  0  0  0  0  0
    6.0790    4.4430   16.7710 C   0  0  0  0  0  0  0  0  0  0  0  0
    7.1600    4.5590   17.3630 O   0  0  0  0  0  0  0  0  0  0  0  0
    5.2170    3.3610   18.7880 C   0  0  0  0  0  0  0  0  0  0  0  0
    4.4850    4.2750   19.7690 C   0  0  0  0  0  0  0  0  0  0  0  0
    2.5410    3.3770   19.5710 H   0  0  0  0  0  0  0  0  0  0  0  0
    1.7500    4.7130   17.6550 H   0  0  0  0  0  0  0  0  0  0  0  0
    3.1380    5.7950   17.7910 H   0  0  0  0  0  0  0  0  0  0  0  0
    3.4540    4.1190   15.9950 H   0  0  0  0  0  0  0  0  0  0  0  0
    3.2360    2.8020   17.1200 H   0  0  0  0  0  0  0  0  0  0  0  0
    4.8240    2.3380   18.8540 H   0  0  0  0  0  0  0  0  0  0  0  0
    6.2790    3.3090   19.0500 H   0  0  0  0  0  0  0  0  0  0  0  0
    4.6120    3.8920   20.7880 H   0  0  0  0  0  0  0  0  0  0  0  0
    4.9360    5.2770   19.7390 H   0  0  0  0  0  0  0  0  0  0  0  0
    5.9620    4.9800   15.3170 C   0  0  0  0  0  0  0  0  0  0  0  0
    7.3420    5.2360   14.6960 C   0  0  0  0  0  0  0  0  0  0  0  0
    7.9320    5.9810   15.2330 H   0  0  0  0  0  0  0  0  0  0  0  0
    7.9400    4.3180   14.6740 H   0  0  0  0  0  0  0  0  0  0  0  0
    7.2430    5.5960   13.6660 H   0  0  0  0  0  0  0  0  0  0  0  0
    5.0800    4.0810   14.4390 C   0  0  0  0  0  0  0  0  0  0  0  0
    5.4810    3.9210   13.4370 H   0  0  0  0  0  0  0  0  0  0  0  0
    4.0850    4.5200   14.2980 H   0  0  0  0  0  0  0  0  0  0  0  0
    4.9470    3.0950   14.8980 H   0  0  0  0  0  0  0  0  0  0  0  0
    5.2500    6.3590   15.3790 C   0  0  0  0  0  0  0  0  0  0  0  0
    5.0490    6.7500   14.3740 H   0  0  0  0  0  0  0  0  0  0  0  0
    4.2890    6.2920   15.9020 H   0  0  0  0  0  0  0  0  0  0  0  0
    5.8610    7.1010   15.9050 H   0  0  0  0  0  0  0  0  0  0  0  0
  1 34  1  0  0  0  0
  1  2  1  0  0  0  0
  3  8  1  0  0  0  0
  4  3  2  0  0  0  0
  4  5  1  0  0  0  0
  5  6  2  0  0  0  0
  6  7  1  0  0  0  0
  6 10  1  0  0  0  0
  7 11  1  0  0  0  0
  8  1  1  0  0  0  0
  8  7  2  0  0  0  0
  9  4  1  0  0  0  0
 12 14  1  0  0  0  0
 12 15  1  0  0  0  0
 12  3  1  0  0  0  0
 13 12  1  0  0  0  0
 16 17  2  0  0  0  0
 16  5  1  0  0  0  0
 18 16  1  0  0  0  0
 19 18  1  0  0  0  0
 20 18  1  0  0  0  0
 20 21  1  0  0  0  0
 21 27  1  0  0  0  0
 21 26  1  0  0  0  0
 22 29  1  0  0  0  0
 22 21  1  0  0  0  0
 23 22  1  0  0  0  0
 24 23  1  0  0  0  0
 24 32  1  0  0  0  0
 24 20  1  0  0  0  0
 25 20  1  0  0  0  0
 28 22  1  0  0  0  0
 30 23  1  0  0  0  0
 31 23  1  0  0  0  0
 33 24  1  0  0  0  0
 34 35  1  0  0  0  0
 36 34  1  0  0  0  0
 37 45  1  0  0  0  0
 37 44  1  0  0  0  0
 37 34  1  0  0  0  0
 38 37  1  0  0  0  0
 39 49  1  0  0  0  0
 39 40  1  0  0  0  0
 39 38  1  0  0  0  0
 40 43  1  0  0  0  0
 41 42  2  0  0  0  0
 41 40  1  0  0  0  0
 43 50  1  0  0  0  0
 43 51  1  0  0  0  0
 43 44  1  0  0  0  0
 44 52  1  0  0  0  0
 46 38  1  0  0  0  0
 47 38  1  0  0  0  0
 48 39  1  0  0  0  0
 53 44  1  0  0  0  0
 54 63  1  0  0  0  0
 54 41  1  0  0  0  0
 55 56  1  0  0  0  0
 55 54  1  0  0  0  0
 57 55  1  0  0  0  0
 58 55  1  0  0  0  0
 59 62  1  0  0  0  0
 59 54  1  0  0  0  0
 60 59  1  0  0  0  0
 61 59  1  0  0  0  0
 63 65  1  0  0  0  0
 63 66  1  0  0  0  0
 64 63  1  0  0  0  0
M  END
>  <MODEL>
4

>  <REMARK>
 VINA RESULT:    -6.871      2.313      2.914
 INTER + INTRA:         -10.586
 INTER:                 -10.192
 INTRA:                  -0.395
 UNBOUND:                -0.503
  Name = 
  10 active torsions:
  status: ('A' for Active; 'I' for Inactive)
    1  A    between atoms: C_1  and  C_2
    2  A    between atoms: C_4  and  C_5
    3  A    between atoms: N_7  and  C_8
    4  A    between atoms: C_15  and  N_16
    5  A    between atoms: N_16  and  C_17
    6  A    between atoms: C_17  and  C_18
    7  A    between atoms: C_22  and  C_24
    8  A    between atoms: C_24  and  C_25
    9  A    between atoms: C_24  and  C_26
   10  A    between atoms: C_24  and  C_27
                            x       y       z     vdW  Elec       q    Type
                         _______ _______ _______ _____ _____    ______ ____

>  <TORSDO>
F 10

$$$$
=
 OpenBabel07192307433D

 66 68  0  0  0  0  0  0  0  0999 V2000
    2.1970   10.0160   17.7960 N   0  0  0  0  0  0  0  0  0  0  0  0
    3.1280   10.2310   18.1400 H   0  0  0  0  0  0  0  0  0  0  0  0
    1.3100   12.0700   18.7490 C   0  0  0  0  0  0  0  0  0  0  0  0
    0.3100   12.7550   19.4670 C   0  0  0  0  0  0  0  0  0  0  0  0
   -0.8000   12.0750   19.9730 C   0  0  0  0  0  0  0  0  0  0  0  0
   -0.9270   10.7080   19.7330 C   0  0  0  0  0  0  0  0  0  0  0  0
    0.0670   10.0220   19.0270 C   0  0  0  0  0  0  0  0  0  0  0  0
    1.2190   10.6710   18.5570 C   0  0  0  0  0  0  0  0  0  0  0  0
    0.3890   13.8330   19.5890 H   0  0  0  0  0  0  0  0  0  0  0  0
   -1.8020   10.1690   20.0900 H   0  0  0  0  0  0  0  0  0  0  0  0
   -0.0880    8.9600   18.8580 H   0  0  0  0  0  0  0  0  0  0  0  0
    2.4690   12.8660   18.2050 C   0  0  0  0  0  0  0  0  0  0  0  0
    2.4660   13.8820   18.6150 H   0  0  0  0  0  0  0  0  0  0  0  0
    2.4140   12.9090   17.1130 H   0  0  0  0  0  0  0  0  0  0  0  0
    3.4300   12.4160   18.4750 H   0  0  0  0  0  0  0  0  0  0  0  0
   -1.8790   12.7700   20.7300 C   0  0  0  0  0  0  0  0  0  0  0  0
   -2.9350   13.0570   20.1770 O   0  0  0  0  0  0  0  0  0  0  0  0
   -1.6230   13.0230   22.0640 N   0  0  0  0  0  0  0  0  0  0  0  0
   -0.8640   12.5200   22.5030 H   0  0  0  0  0  0  0  0  0  0  0  0
   -2.6500   13.5710   22.9240 C   0  0  0  0  0  0  0  0  0  0  0  0
   -2.0730   14.3890   24.0720 C   0  0  0  0  0  0  0  0  0  0  0  0
   -3.2280   14.4820   25.0610 C   0  0  0  0  0  0  0  0  0  0  0  0
   -4.0500   13.2070   24.8610 C   0  0  0  0  0  0  0  0  0  0  0  0
   -3.4510   12.4950   23.6510 C   0  0  0  0  0  0  0  0  0  0  0  0
   -3.3250   14.1930   22.3220 H   0  0  0  0  0  0  0  0  0  0  0  0
   -1.7240   15.3740   23.7490 H   0  0  0  0  0  0  0  0  0  0  0  0
   -1.2240   13.8730   24.5370 H   0  0  0  0  0  0  0  0  0  0  0  0
   -3.8470   15.3580   24.8360 H   0  0  0  0  0  0  0  0  0  0  0  0
   -2.8730   14.5840   26.0910 H   0  0  0  0  0  0  0  0  0  0  0  0
   -4.0160   12.5650   25.7460 H   0  0  0  0  0  0  0  0  0  0  0  0
   -5.1000   13.4620   24.6820 H   0  0  0  0  0  0  0  0  0  0  0  0
   -2.7950   11.6820   23.9890 H   0  0  0  0  0  0  0  0  0  0  0  0
   -4.2220   12.0470   23.0150 H   0  0  0  0  0  0  0  0  0  0  0  0
    2.0310    8.6190   17.4060 C   0  0  0  0  0  0  0  0  0  0  0  0
    1.0070    8.2840   17.6080 H   0  0  0  0  0  0  0  0  0  0  0  0
    2.2230    8.5170   16.3310 H   0  0  0  0  0  0  0  0  0  0  0  0
    3.0410    7.7320   18.1570 C   0  0  0  0  0  0  0  0  0  0  0  0
    2.3460    6.7080   19.0780 C   0  0  0  0  0  0  0  0  0  0  0  0
    3.3620    5.7620   19.7190 C   0  0  0  0  0  0  0  0  0  0  0  0
    4.1560    5.1040   18.6870 N   0  0  0  0  0  0  0  0  0  0  0  0
    4.0680    3.7880   18.2470 C   0  0  0  0  0  0  0  0  0  0  0  0
    4.6360    3.4600   17.1980 O   0  0  0  0  0  0  0  0  0  0  0  0
    4.9120    6.0510   17.8660 C   0  0  0  0  0  0  0  0  0  0  0  0
    3.9550    7.0030   17.1520 C   0  0  0  0  0  0  0  0  0  0  0  0
    3.6750    8.3750   18.7830 H   0  0  0  0  0  0  0  0  0  0  0  0
    1.7900    7.2180   19.8720 H   0  0  0  0  0  0  0  0  0  0  0  0
    1.6200    6.1250   18.4970 H   0  0  0  0  0  0  0  0  0  0  0  0
    2.8480    5.0620   20.3660 H   0  0  0  0  0  0  0  0  0  0  0  0
    4.0520    6.3260   20.3580 H   0  0  0  0  0  0  0  0  0  0  0  0
    5.5800    6.6110   18.5340 H   0  0  0  0  0  0  0  0  0  0  0  0
    5.5490    5.5440   17.1340 H   0  0  0  0  0  0  0  0  0  0  0  0
    4.5340    7.7330   16.5730 H   0  0  0  0  0  0  0  0  0  0  0  0
    3.3420    6.4360   16.4390 H   0  0  0  0  0  0  0  0  0  0  0  0
    3.2840    2.7060   19.0420 C   0  0  0  0  0  0  0  0  0  0  0  0
    3.8490    2.5240   20.4580 C   0  0  0  0  0  0  0  0  0  0  0  0
    4.4380    3.3740   20.8060 H   0  0  0  0  0  0  0  0  0  0  0  0
    3.0430    2.3800   21.1880 H   0  0  0  0  0  0  0  0  0  0  0  0
    4.5030    1.6470   20.5050 H   0  0  0  0  0  0  0  0  0  0  0  0
    1.7710    2.9730   19.0440 C   0  0  0  0  0  0  0  0  0  0  0  0
    1.1690    2.0740   19.1820 H   0  0  0  0  0  0  0  0  0  0  0  0
    1.4470    3.4090   18.0910 H   0  0  0  0  0  0  0  0  0  0  0  0
    1.4990    3.6740   19.8400 H   0  0  0  0  0  0  0  0  0  0  0  0
    3.4840    1.3480   18.3160 C   0  0  0  0  0  0  0  0  0  0  0  0
    4.2980    0.7690   18.7690 H   0  0  0  0  0  0  0  0  0  0  0  0
    2.5800    0.7310   18.3630 H   0  0  0  0  0  0  0  0  0  0  0  0
    3.7310    1.4930   17.2590 H   0  0  0  0  0  0  0  0  0  0  0  0
  1  2  1  0  0  0  0
  1  8  1  0  0  0  0
  3  4  1  0  0  0  0
  4  9  1  0  0  0  0
  4  5  2  0  0  0  0
  5 16  1  0  0  0  0
  6  5  1  0  0  0  0
  6 10  1  0  0  0  0
  7  6  2  0  0  0  0
  8  3  2  0  0  0  0
  8  7  1  0  0  0  0
 11  7  1  0  0  0  0
 12 15  1  0  0  0  0
 12 13  1  0  0  0  0
 12  3  1  0  0  0  0
 14 12  1  0  0  0  0
 16 18  1  0  0  0  0
 17 16  2  0  0  0  0
 18 19  1  0  0  0  0
 18 20  1  0  0  0  0
 20 24  1  0  0  0  0
 20 21  1  0  0  0  0
 21 27  1  0  0  0  0
 21 22  1  0  0  0  0
 22 29  1  0  0  0  0
 23 22  1  0  0  0  0
 23 30  1  0  0  0  0
 24 32  1  0  0  0  0
 24 23  1  0  0  0  0
 25 20  1  0  0  0  0
 26 21  1  0  0  0  0
 28 22  1  0  0  0  0
 31 23  1  0  0  0  0
 33 24  1  0  0  0  0
 34 35  1  0  0  0  0
 34  1  1  0  0  0  0
 34 37  1  0  0  0  0
 36 34  1  0  0  0  0
 37 45  1  0  0  0  0
 37 38  1  0  0  0  0
 38 39  1  0  0  0  0
 38 46  1  0  0  0  0
 39 49  1  0  0  0  0
 39 48  1  0  0  0  0
 40 39  1  0  0  0  0
 41 40  1  0  0  0  0
 41 54  1  0  0  0  0
 42 41  2  0  0  0  0
 43 50  1  0  0  0  0
 43 40  1  0  0  0  0
 44 43  1  0  0  0  0
 44 37  1  0  0  0  0
 47 38  1  0  0  0  0
 51 43  1  0  0  0  0
 52 44  1  0  0  0  0
 53 44  1  0  0  0  0
 54 59  1  0  0  0  0
 54 55  1  0  0  0  0
 55 58  1  0  0  0  0
 55 56  1  0  0  0  0
 55 57  1  0  0  0  0
 59 60  1  0  0  0  0
 59 62  1  0  0  0  0
 61 59  1  0  0  0  0
 63 65  1  0  0  0  0
 63 64  1  0  0  0  0
 63 54  1  0  0  0  0
 66 63  1  0  0  0  0
M  END
>  <MODEL>
5

>  <REMARK>
 VINA RESULT:    -6.794      1.958      3.235
 INTER + INTRA:         -10.474
 INTER:                  -9.960
 INTRA:                  -0.514
 UNBOUND:                -0.503
  Name = 
  10 active torsions:
  status: ('A' for Active; 'I' for Inactive)
    1  A    between atoms: C_1  and  C_2
    2  A    between atoms: C_4  and  C_5
    3  A    between atoms: N_7  and  C_8
    4  A    between atoms: C_15  and  N_16
    5  A    between atoms: N_16  and  C_17
    6  A    between atoms: C_17  and  C_18
    7  A    between atoms: C_22  and  C_24
    8  A    between atoms: C_24  and  C_25
    9  A    between atoms: C_24  and  C_26
   10  A    between atoms: C_24  and  C_27
                            x       y       z     vdW  Elec       q    Type
                         _______ _______ _______ _____ _____    ______ ____

>  <TORSDO>
F 10

$$$$
=
 OpenBabel07192307433D

 66 68  0  0  0  0  0  0  0  0999 V2000
   -0.0210   10.9450   19.7960 N   0  0  0  0  0  0  0  0  0  0  0  0
    0.5330   11.7320   20.1180 H   0  0  0  0  0  0  0  0  0  0  0  0
    1.1030    8.8770   20.4060 C   0  0  0  0  0  0  0  0  0  0  0  0
    1.8850    7.7580   20.0560 C   0  0  0  0  0  0  0  0  0  0  0  0
    2.3500    7.5910   18.7490 C   0  0  0  0  0  0  0  0  0  0  0  0
    2.0030    8.5310   17.7800 C   0  0  0  0  0  0  0  0  0  0  0  0
    1.2330    9.6470   18.1240 C   0  0  0  0  0  0  0  0  0  0  0  0
    0.8020    9.8670   19.4400 C   0  0  0  0  0  0  0  0  0  0  0  0
    2.0910    7.0000   20.8070 H   0  0  0  0  0  0  0  0  0  0  0  0
    2.3270    8.3980   16.7490 H   0  0  0  0  0  0  0  0  0  0  0  0
    0.9830   10.3410   17.3260 H   0  0  0  0  0  0  0  0  0  0  0  0
    0.6100    8.9860   21.8260 C   0  0  0  0  0  0  0  0  0  0  0  0
    0.0770    9.9310   21.9780 H   0  0  0  0  0  0  0  0  0  0  0  0
    1.4520    8.9220   22.5210 H   0  0  0  0  0  0  0  0  0  0  0  0
   -0.0900    8.1810   22.0730 H   0  0  0  0  0  0  0  0  0  0  0  0
    3.1720    6.4180   18.3440 C   0  0  0  0  0  0  0  0  0  0  0  0
    4.2870    6.5820   17.8590 O   0  0  0  0  0  0  0  0  0  0  0  0
    2.6210    5.1730   18.5820 N   0  0  0  0  0  0  0  0  0  0  0  0
    1.8410    5.1180   19.2220 H   0  0  0  0  0  0  0  0  0  0  0  0
    3.3860    3.9670   18.3520 C   0  0  0  0  0  0  0  0  0  0  0  0
    2.5220    2.8120   17.8640 C   0  0  0  0  0  0  0  0  0  0  0  0
    3.3900    1.5860   18.1120 C   0  0  0  0  0  0  0  0  0  0  0  0
    4.2650    1.9330   19.3180 C   0  0  0  0  0  0  0  0  0  0  0  0
    4.0050    3.4040   19.6290 C   0  0  0  0  0  0  0  0  0  0  0  0
    4.1770    4.1800   17.6210 H   0  0  0  0  0  0  0  0  0  0  0  0
    2.2430    2.9160   16.8110 H   0  0  0  0  0  0  0  0  0  0  0  0
    1.5960    2.7390   18.4460 H   0  0  0  0  0  0  0  0  0  0  0  0
    4.0250    1.3910   17.2400 H   0  0  0  0  0  0  0  0  0  0  0  0
    2.7860    0.6900   18.2870 H   0  0  0  0  0  0  0  0  0  0  0  0
    4.0250    1.3050   20.1820 H   0  0  0  0  0  0  0  0  0  0  0  0
    5.3200    1.7670   19.0770 H   0  0  0  0  0  0  0  0  0  0  0  0
    3.3040    3.4860   20.4700 H   0  0  0  0  0  0  0  0  0  0  0  0
    4.9200    3.9320   19.9170 H   0  0  0  0  0  0  0  0  0  0  0  0
   -1.1490   11.3350   18.9540 C   0  0  0  0  0  0  0  0  0  0  0  0
   -0.8400   11.3970   17.9040 H   0  0  0  0  0  0  0  0  0  0  0  0
   -1.9410   10.5820   19.0380 H   0  0  0  0  0  0  0  0  0  0  0  0
   -1.7220   12.6850   19.4230 C   0  0  0  0  0  0  0  0  0  0  0  0
   -2.9760   12.5120   20.3030 C   0  0  0  0  0  0  0  0  0  0  0  0
   -3.4550   13.8560   20.8550 C   0  0  0  0  0  0  0  0  0  0  0  0
   -2.3750   14.5150   21.5810 N   0  0  0  0  0  0  0  0  0  0  0  0
   -2.2270   14.6540   22.9560 C   0  0  0  0  0  0  0  0  0  0  0  0
   -1.1360   15.0140   23.4160 O   0  0  0  0  0  0  0  0  0  0  0  0
   -1.2110   14.7890   20.7360 C   0  0  0  0  0  0  0  0  0  0  0  0
   -0.6450   13.4800   20.1860 C   0  0  0  0  0  0  0  0  0  0  0  0
   -2.0080   13.2710   18.5370 H   0  0  0  0  0  0  0  0  0  0  0  0
   -3.7910   12.0560   19.7310 H   0  0  0  0  0  0  0  0  0  0  0  0
   -2.7480   11.8360   21.1380 H   0  0  0  0  0  0  0  0  0  0  0  0
   -4.3400   13.7060   21.4600 H   0  0  0  0  0  0  0  0  0  0  0  0
   -3.7510   14.5170   20.0310 H   0  0  0  0  0  0  0  0  0  0  0  0
   -1.5410   15.4370   19.9140 H   0  0  0  0  0  0  0  0  0  0  0  0
   -0.4310   15.3340   21.2750 H   0  0  0  0  0  0  0  0  0  0  0  0
    0.2000   13.7010   19.5240 H   0  0  0  0  0  0  0  0  0  0  0  0
   -0.2580   12.8740   21.0160 H   0  0  0  0  0  0  0  0  0  0  0  0
   -3.4000   14.3820   23.9400 C   0  0  0  0  0  0  0  0  0  0  0  0
   -4.6400   15.2150   23.5870 C   0  0  0  0  0  0  0  0  0  0  0  0
   -5.2820   15.4280   24.4440 H   0  0  0  0  0  0  0  0  0  0  0  0
   -4.3550   16.1830   23.1590 H   0  0  0  0  0  0  0  0  0  0  0  0
   -5.2600   14.6930   22.8500 H   0  0  0  0  0  0  0  0  0  0  0  0
   -3.7140   12.8840   24.0630 C   0  0  0  0  0  0  0  0  0  0  0  0
   -4.2320   12.4730   23.1960 H   0  0  0  0  0  0  0  0  0  0  0  0
   -4.3660   12.6860   24.9230 H   0  0  0  0  0  0  0  0  0  0  0  0
   -2.7960   12.3020   24.2020 H   0  0  0  0  0  0  0  0  0  0  0  0
   -2.9500   14.8490   25.3520 C   0  0  0  0  0  0  0  0  0  0  0  0
   -3.6420   15.5910   25.7660 H   0  0  0  0  0  0  0  0  0  0  0  0
   -2.9080   14.0110   26.0570 H   0  0  0  0  0  0  0  0  0  0  0  0
   -1.9540   15.3050   25.3230 H   0  0  0  0  0  0  0  0  0  0  0  0
  1  2  1  0  0  0  0
  3 12  1  0  0  0  0
  4  3  1  0  0  0  0
  4  9  1  0  0  0  0
  5  4  2  0  0  0  0
  6  7  2  0  0  0  0
  6  5  1  0  0  0  0
  7  8  1  0  0  0  0
  8  1  1  0  0  0  0
  8  3  2  0  0  0  0
 10  6  1  0  0  0  0
 11  7  1  0  0  0  0
 12 13  1  0  0  0  0
 12 15  1  0  0  0  0
 12 14  1  0  0  0  0
 16 18  1  0  0  0  0
 16  5  1  0  0  0  0
 17 16  2  0  0  0  0
 18 19  1  0  0  0  0
 20 18  1  0  0  0  0
 20 24  1  0  0  0  0
 21 22  1  0  0  0  0
 21 20  1  0  0  0  0
 21 27  1  0  0  0  0
 22 29  1  0  0  0  0
 22 23  1  0  0  0  0
 23 24  1  0  0  0  0
 23 30  1  0  0  0  0
 24 33  1  0  0  0  0
 24 32  1  0  0  0  0
 25 20  1  0  0  0  0
 26 21  1  0  0  0  0
 28 22  1  0  0  0  0
 31 23  1  0  0  0  0
 34 36  1  0  0  0  0
 34 37  1  0  0  0  0
 34  1  1  0  0  0  0
 35 34  1  0  0  0  0
 37 44  1  0  0  0  0
 37 38  1  0  0  0  0
 38 39  1  0  0  0  0
 38 47  1  0  0  0  0
 39 48  1  0  0  0  0
 39 40  1  0  0  0  0
 40 41  1  0  0  0  0
 41 42  2  0  0  0  0
 41 54  1  0  0  0  0
 43 51  1  0  0  0  0
 43 40  1  0  0  0  0
 44 43  1  0  0  0  0
 44 53  1  0  0  0  0
 45 37  1  0  0  0  0
 46 38  1  0  0  0  0
 49 39  1  0  0  0  0
 50 43  1  0  0  0  0
 52 44  1  0  0  0  0
 54 59  1  0  0  0  0
 54 63  1  0  0  0  0
 55 54  1  0  0  0  0
 55 56  1  0  0  0  0
 57 55  1  0  0  0  0
 58 55  1  0  0  0  0
 59 62  1  0  0  0  0
 59 61  1  0  0  0  0
 60 59  1  0  0  0  0
 63 64  1  0  0  0  0
 63 65  1  0  0  0  0
 66 63  1  0  0  0  0
M  END
>  <MODEL>
6

>  <REMARK>
 VINA RESULT:    -6.733      2.348     11.002
 INTER + INTRA:         -10.384
 INTER:                  -9.836
 INTRA:                  -0.548
 UNBOUND:                -0.503
  Name = 
  10 active torsions:
  status: ('A' for Active; 'I' for Inactive)
    1  A    between atoms: C_1  and  C_2
    2  A    between atoms: C_4  and  C_5
    3  A    between atoms: N_7  and  C_8
    4  A    between atoms: C_15  and  N_16
    5  A    between atoms: N_16  and  C_17
    6  A    between atoms: C_17  and  C_18
    7  A    between atoms: C_22  and  C_24
    8  A    between atoms: C_24  and  C_25
    9  A    between atoms: C_24  and  C_26
   10  A    between atoms: C_24  and  C_27
                            x       y       z     vdW  Elec       q    Type
                         _______ _______ _______ _____ _____    ______ ____

>  <TORSDO>
F 10

$$$$
=
 OpenBabel07192307433D

 66 68  0  0  0  0  0  0  0  0999 V2000
    1.6150    6.9140   20.2920 N   0  0  0  0  0  0  0  0  0  0  0  0
    1.2860    6.1960   20.9290 H   0  0  0  0  0  0  0  0  0  0  0  0
    3.0940    5.0950   19.6440 C   0  0  0  0  0  0  0  0  0  0  0  0
    4.0690    4.5580   18.7810 C   0  0  0  0  0  0  0  0  0  0  0  0
    4.5650    5.3050   17.7090 C   0  0  0  0  0  0  0  0  0  0  0  0
    4.0590    6.5830   17.4800 C   0  0  0  0  0  0  0  0  0  0  0  0
    3.0960    7.1240   18.3390 C   0  0  0  0  0  0  0  0  0  0  0  0
    2.6230    6.4160   19.4540 C   0  0  0  0  0  0  0  0  0  0  0  0
    4.4050    3.5350   18.9320 H   0  0  0  0  0  0  0  0  0  0  0  0
    4.4090    7.1650   16.6300 H   0  0  0  0  0  0  0  0  0  0  0  0
    2.7290    8.1190   18.1070 H   0  0  0  0  0  0  0  0  0  0  0  0
    2.5790    4.2290   20.7650 C   0  0  0  0  0  0  0  0  0  0  0  0
    2.3930    4.8290   21.6620 H   0  0  0  0  0  0  0  0  0  0  0  0
    3.3040    3.4420   20.9940 H   0  0  0  0  0  0  0  0  0  0  0  0
    1.6330    3.7470   20.5010 H   0  0  0  0  0  0  0  0  0  0  0  0
    5.5910    4.7650   16.7740 C   0  0  0  0  0  0  0  0  0  0  0  0
    6.6660    4.3600   17.2030 O   0  0  0  0  0  0  0  0  0  0  0  0
    5.2380    4.7210   15.4390 N   0  0  0  0  0  0  0  0  0  0  0  0
    4.2590    4.8100   15.2060 H   0  0  0  0  0  0  0  0  0  0  0  0
    6.1040    4.0940   14.4640 C   0  0  0  0  0  0  0  0  0  0  0  0
    7.0880    5.0750   13.8410 C   0  0  0  0  0  0  0  0  0  0  0  0
    7.5630    4.3570   12.5850 C   0  0  0  0  0  0  0  0  0  0  0  0
    6.3970    3.4700   12.1470 C   0  0  0  0  0  0  0  0  0  0  0  0
    5.3450    3.5660   13.2490 C   0  0  0  0  0  0  0  0  0  0  0  0
    6.6480    3.2710   14.9460 H   0  0  0  0  0  0  0  0  0  0  0  0
    7.9150    5.3220   14.5150 H   0  0  0  0  0  0  0  0  0  0  0  0
    6.5910    6.0140   13.5700 H   0  0  0  0  0  0  0  0  0  0  0  0
    8.4350    3.7320   12.8140 H   0  0  0  0  0  0  0  0  0  0  0  0
    7.8600    5.0620   11.8020 H   0  0  0  0  0  0  0  0  0  0  0  0
    5.9840    3.7950   11.1870 H   0  0  0  0  0  0  0  0  0  0  0  0
    6.7370    2.4360   12.0230 H   0  0  0  0  0  0  0  0  0  0  0  0
    4.5570    4.2680   12.9470 H   0  0  0  0  0  0  0  0  0  0  0  0
    4.8640    2.6020   13.4440 H   0  0  0  0  0  0  0  0  0  0  0  0
    1.7410    8.2290   20.9150 C   0  0  0  0  0  0  0  0  0  0  0  0
    1.9350    8.1260   21.9900 H   0  0  0  0  0  0  0  0  0  0  0  0
    2.5820    8.7660   20.4610 H   0  0  0  0  0  0  0  0  0  0  0  0
    0.4640    9.0550   20.6790 C   0  0  0  0  0  0  0  0  0  0  0  0
    0.3850   10.2850   21.6070 C   0  0  0  0  0  0  0  0  0  0  0  0
   -0.8280   11.1540   21.2710 C   0  0  0  0  0  0  0  0  0  0  0  0
   -0.7940   11.5430   19.8660 N   0  0  0  0  0  0  0  0  0  0  0  0
   -0.4770   12.7840   19.3280 C   0  0  0  0  0  0  0  0  0  0  0  0
   -0.2500   12.8800   18.1140 O   0  0  0  0  0  0  0  0  0  0  0  0
   -0.8290   10.3920   18.9610 C   0  0  0  0  0  0  0  0  0  0  0  0
    0.3860    9.4990   19.2050 C   0  0  0  0  0  0  0  0  0  0  0  0
   -0.4080    8.4190   20.8850 H   0  0  0  0  0  0  0  0  0  0  0  0
    0.3170    9.9750   22.6550 H   0  0  0  0  0  0  0  0  0  0  0  0
    1.3010   10.8810   21.5040 H   0  0  0  0  0  0  0  0  0  0  0  0
   -0.8630   12.0030   21.9430 H   0  0  0  0  0  0  0  0  0  0  0  0
   -1.7530   10.5890   21.4360 H   0  0  0  0  0  0  0  0  0  0  0  0
   -1.7550    9.8390   19.1600 H   0  0  0  0  0  0  0  0  0  0  0  0
   -0.8620   10.6960   17.9100 H   0  0  0  0  0  0  0  0  0  0  0  0
    0.3290    8.6210   18.5510 H   0  0  0  0  0  0  0  0  0  0  0  0
    1.3000   10.0460   18.9350 H   0  0  0  0  0  0  0  0  0  0  0  0
   -0.4080   14.0670   20.2030 C   0  0  0  0  0  0  0  0  0  0  0  0
   -1.7560   14.3670   20.8740 C   0  0  0  0  0  0  0  0  0  0  0  0
   -2.3830   13.4840   21.0090 H   0  0  0  0  0  0  0  0  0  0  0  0
   -1.6120   14.8070   21.8680 H   0  0  0  0  0  0  0  0  0  0  0  0
   -2.3370   15.0770   20.2750 H   0  0  0  0  0  0  0  0  0  0  0  0
    0.7500   14.0170   21.2110 C   0  0  0  0  0  0  0  0  0  0  0  0
    0.4230   13.9900   22.2510 H   0  0  0  0  0  0  0  0  0  0  0  0
    1.3910   14.9020   21.1200 H   0  0  0  0  0  0  0  0  0  0  0  0
    1.3760   13.1340   21.0430 H   0  0  0  0  0  0  0  0  0  0  0  0
   -0.1130   15.2670   19.2620 C   0  0  0  0  0  0  0  0  0  0  0  0
    0.1610   16.1630   19.8310 H   0  0  0  0  0  0  0  0  0  0  0  0
    0.7160   15.0470   18.5800 H   0  0  0  0  0  0  0  0  0  0  0  0
   -0.9870   15.5180   18.6500 H   0  0  0  0  0  0  0  0  0  0  0  0
  1 34  1  0  0  0  0
  1  2  1  0  0  0  0
  3 12  1  0  0  0  0
  4  9  1  0  0  0  0
  4  3  2  0  0  0  0
  5  4  1  0  0  0  0
  6  5  2  0  0  0  0
  6  7  1  0  0  0  0
  7  8  2  0  0  0  0
  8  3  1  0  0  0  0
  8  1  1  0  0  0  0
 10  6  1  0  0  0  0
 11  7  1  0  0  0  0
 12 14  1  0  0  0  0
 12 13  1  0  0  0  0
 15 12  1  0  0  0  0
 16 17  2  0  0  0  0
 16  5  1  0  0  0  0
 18 16  1  0  0  0  0
 19 18  1  0  0  0  0
 20 25  1  0  0  0  0
 20 18  1  0  0  0  0
 21 20  1  0  0  0  0
 21 26  1  0  0  0  0
 22 28  1  0  0  0  0
 22 21  1  0  0  0  0
 23 22  1  0  0  0  0
 23 24  1  0  0  0  0
 24 33  1  0  0  0  0
 24 20  1  0  0  0  0
 27 21  1  0  0  0  0
 29 22  1  0  0  0  0
 30 23  1  0  0  0  0
 31 23  1  0  0  0  0
 32 24  1  0  0  0  0
 34 35  1  0  0  0  0
 36 34  1  0  0  0  0
 37 45  1  0  0  0  0
 37 34  1  0  0  0  0
 37 38  1  0  0  0  0
 38 46  1  0  0  0  0
 39 49  1  0  0  0  0
 39 38  1  0  0  0  0
 39 48  1  0  0  0  0
 40 39  1  0  0  0  0
 41 40  1  0  0  0  0
 41 54  1  0  0  0  0
 42 41  2  0  0  0  0
 43 50  1  0  0  0  0
 43 44  1  0  0  0  0
 43 40  1  0  0  0  0
 44 37  1  0  0  0  0
 47 38  1  0  0  0  0
 51 43  1  0  0  0  0
 52 44  1  0  0  0  0
 53 44  1  0  0  0  0
 54 55  1  0  0  0  0
 54 59  1  0  0  0  0
 55 56  1  0  0  0  0
 55 57  1  0  0  0  0
 58 55  1  0  0  0  0
 59 60  1  0  0  0  0
 61 59  1  0  0  0  0
 62 59  1  0  0  0  0
 63 64  1  0  0  0  0
 63 54  1  0  0  0  0
 65 63  1  0  0  0  0
 66 63  1  0  0  0  0
M  END
>  <MODEL>
7

>  <REMARK>
 VINA RESULT:    -6.679      1.930     10.612
 INTER + INTRA:         -10.306
 INTER:                  -9.784
 INTRA:                  -0.522
 UNBOUND:                -0.503
  Name = 
  10 active torsions:
  status: ('A' for Active; 'I' for Inactive)
    1  A    between atoms: C_1  and  C_2
    2  A    between atoms: C_4  and  C_5
    3  A    between atoms: N_7  and  C_8
    4  A    between atoms: C_15  and  N_16
    5  A    between atoms: N_16  and  C_17
    6  A    between atoms: C_17  and  C_18
    7  A    between atoms: C_22  and  C_24
    8  A    between atoms: C_24  and  C_25
    9  A    between atoms: C_24  and  C_26
   10  A    between atoms: C_24  and  C_27
                            x       y       z     vdW  Elec       q    Type
                         _______ _______ _______ _____ _____    ______ ____

>  <TORSDO>
F 10

$$$$
=
 OpenBabel07192307433D

 66 68  0  0  0  0  0  0  0  0999 V2000
    1.7430    8.2910   19.6320 N   0  0  0  0  0  0  0  0  0  0  0  0
    2.2660    8.6970   20.4010 H   0  0  0  0  0  0  0  0  0  0  0  0
    2.5470    6.0310   19.2280 C   0  0  0  0  0  0  0  0  0  0  0  0
    3.3040    5.1180   18.4670 C   0  0  0  0  0  0  0  0  0  0  0  0
    4.0370    5.5460   17.3570 C   0  0  0  0  0  0  0  0  0  0  0  0
    3.9860    6.8890   16.9870 C   0  0  0  0  0  0  0  0  0  0  0  0
    3.2420    7.8010   17.7440 C   0  0  0  0  0  0  0  0  0  0  0  0
    2.5430    7.4070   18.8940 C   0  0  0  0  0  0  0  0  0  0  0  0
    3.2790    4.0630   18.7280 H   0  0  0  0  0  0  0  0  0  0  0  0
    4.5230    7.2340   16.1050 H   0  0  0  0  0  0  0  0  0  0  0  0
    3.2290    8.8330   17.4030 H   0  0  0  0  0  0  0  0  0  0  0  0
    1.7560    5.5020   20.3970 C   0  0  0  0  0  0  0  0  0  0  0  0
    1.3210    6.3260   20.9730 H   0  0  0  0  0  0  0  0  0  0  0  0
    2.4020    4.9010   21.0440 H   0  0  0  0  0  0  0  0  0  0  0  0
    0.9260    4.8680   20.0690 H   0  0  0  0  0  0  0  0  0  0  0  0
    4.8410    4.6070   16.5280 C   0  0  0  0  0  0  0  0  0  0  0  0
    4.9840    3.4400   16.8780 O   0  0  0  0  0  0  0  0  0  0  0  0
    5.3640    5.1200   15.3560 N   0  0  0  0  0  0  0  0  0  0  0  0
    4.9800    5.9880   15.0080 H   0  0  0  0  0  0  0  0  0  0  0  0
    6.0470    4.2630   14.4110 C   0  0  0  0  0  0  0  0  0  0  0  0
    7.0640    5.0190   13.5670 C   0  0  0  0  0  0  0  0  0  0  0  0
    7.3210    4.0830   12.3940 C   0  0  0  0  0  0  0  0  0  0  0  0
    6.0230    3.2990   12.1950 C   0  0  0  0  0  0  0  0  0  0  0  0
    5.1110    3.6760   13.3590 C   0  0  0  0  0  0  0  0  0  0  0  0
    6.5430    3.4510   14.9600 H   0  0  0  0  0  0  0  0  0  0  0  0
    7.9790    5.2490   14.1220 H   0  0  0  0  0  0  0  0  0  0  0  0
    6.6490    5.9680   13.2060 H   0  0  0  0  0  0  0  0  0  0  0  0
    8.1370    3.3910   12.6350 H   0  0  0  0  0  0  0  0  0  0  0  0
    7.6110    4.6330   11.4920 H   0  0  0  0  0  0  0  0  0  0  0  0
    5.5510    3.5410   11.2380 H   0  0  0  0  0  0  0  0  0  0  0  0
    6.2310    2.2240   12.1940 H   0  0  0  0  0  0  0  0  0  0  0  0
    4.3790    4.4240   13.0280 H   0  0  0  0  0  0  0  0  0  0  0  0
    4.5470    2.8150   13.7350 H   0  0  0  0  0  0  0  0  0  0  0  0
    0.8650    9.2450   18.9600 C   0  0  0  0  0  0  0  0  0  0  0  0
    1.2640    9.5000   17.9710 H   0  0  0  0  0  0  0  0  0  0  0  0
   -0.1260    8.7950   18.8280 H   0  0  0  0  0  0  0  0  0  0  0  0
    0.7030   10.5150   19.8140 C   0  0  0  0  0  0  0  0  0  0  0  0
   -0.3280   11.4930   19.2160 C   0  0  0  0  0  0  0  0  0  0  0  0
   -0.5600   12.6880   20.1420 C   0  0  0  0  0  0  0  0  0  0  0  0
   -0.9620   12.2260   21.4660 N   0  0  0  0  0  0  0  0  0  0  0  0
   -2.2270   12.2680   22.0400 C   0  0  0  0  0  0  0  0  0  0  0  0
   -2.4510   11.6100   23.0640 O   0  0  0  0  0  0  0  0  0  0  0  0
    0.0510   11.3820   22.1020 C   0  0  0  0  0  0  0  0  0  0  0  0
    0.3000   10.1360   21.2530 C   0  0  0  0  0  0  0  0  0  0  0  0
    1.6730   11.0310   19.8610 H   0  0  0  0  0  0  0  0  0  0  0  0
    0.0100   11.8640   18.2420 H   0  0  0  0  0  0  0  0  0  0  0  0
   -1.2780   10.9690   19.0520 H   0  0  0  0  0  0  0  0  0  0  0  0
   -1.2790   13.3610   19.6930 H   0  0  0  0  0  0  0  0  0  0  0  0
    0.3700   13.2590   20.2600 H   0  0  0  0  0  0  0  0  0  0  0  0
    0.9710   11.9740   22.1910 H   0  0  0  0  0  0  0  0  0  0  0  0
   -0.2350   11.0890   23.1170 H   0  0  0  0  0  0  0  0  0  0  0  0
    1.0880    9.5320   21.7170 H   0  0  0  0  0  0  0  0  0  0  0  0
   -0.6100    9.5220   21.2320 H   0  0  0  0  0  0  0  0  0  0  0  0
   -3.3740   13.1290   21.4400 C   0  0  0  0  0  0  0  0  0  0  0  0
   -2.9990   14.6170   21.3920 C   0  0  0  0  0  0  0  0  0  0  0  0
   -1.9430   14.8070   21.5850 H   0  0  0  0  0  0  0  0  0  0  0  0
   -3.2220   15.0470   20.4080 H   0  0  0  0  0  0  0  0  0  0  0  0
   -3.5640   15.1830   22.1400 H   0  0  0  0  0  0  0  0  0  0  0  0
   -3.8430   12.5970   20.0770 C   0  0  0  0  0  0  0  0  0  0  0  0
   -3.5740   11.5550   19.8990 H   0  0  0  0  0  0  0  0  0  0  0  0
   -3.3940   13.1680   19.2550 H   0  0  0  0  0  0  0  0  0  0  0  0
   -4.9310   12.6740   19.9800 H   0  0  0  0  0  0  0  0  0  0  0  0
   -4.5960   13.0190   22.3920 C   0  0  0  0  0  0  0  0  0  0  0  0
   -5.5410   13.0420   21.8350 H   0  0  0  0  0  0  0  0  0  0  0  0
   -4.5760   12.0830   22.9630 H   0  0  0  0  0  0  0  0  0  0  0  0
   -4.6170   13.8450   23.1120 H   0  0  0  0  0  0  0  0  0  0  0  0
  1  2  1  0  0  0  0
  3 12  1  0  0  0  0
  4  9  1  0  0  0  0
  4  3  2  0  0  0  0
  5  4  1  0  0  0  0
  6  5  2  0  0  0  0
  6  7  1  0  0  0  0
  7  8  2  0  0  0  0
  8  3  1  0  0  0  0
  8  1  1  0  0  0  0
 10  6  1  0  0  0  0
 11  7  1  0  0  0  0
 12 13  1  0  0  0  0
 12 14  1  0  0  0  0
 15 12  1  0  0  0  0
 16 17  2  0  0  0  0
 16  5  1  0  0  0  0
 18 16  1  0  0  0  0
 19 18  1  0  0  0  0
 20 25  1  0  0  0  0
 20 18  1  0  0  0  0
 21 26  1  0  0  0  0
 21 20  1  0  0  0  0
 22 28  1  0  0  0  0
 22 21  1  0  0  0  0
 23 22  1  0  0  0  0
 23 24  1  0  0  0  0
 24 33  1  0  0  0  0
 24 20  1  0  0  0  0
 27 21  1  0  0  0  0
 29 22  1  0  0  0  0
 30 23  1  0  0  0  0
 31 23  1  0  0  0  0
 32 24  1  0  0  0  0
 34  1  1  0  0  0  0
 34 37  1  0  0  0  0
 35 34  1  0  0  0  0
 36 34  1  0  0  0  0
 37 45  1  0  0  0  0
 37 44  1  0  0  0  0
 38 37  1  0  0  0  0
 38 39  1  0  0  0  0
 39 49  1  0  0  0  0
 39 40  1  0  0  0  0
 40 41  1  0  0  0  0
 40 43  1  0  0  0  0
 41 42  2  0  0  0  0
 43 50  1  0  0  0  0
 43 51  1  0  0  0  0
 44 52  1  0  0  0  0
 44 43  1  0  0  0  0
 46 38  1  0  0  0  0
 47 38  1  0  0  0  0
 48 39  1  0  0  0  0
 53 44  1  0  0  0  0
 54 41  1  0  0  0  0
 54 63  1  0  0  0  0
 55 54  1  0  0  0  0
 55 56  1  0  0  0  0
 55 58  1  0  0  0  0
 57 55  1  0  0  0  0
 59 54  1  0  0  0  0
 60 59  1  0  0  0  0
 61 59  1  0  0  0  0
 62 59  1  0  0  0  0
 63 65  1  0  0  0  0
 63 66  1  0  0  0  0
 64 63  1  0  0  0  0
M  END
>  <MODEL>
8

>  <REMARK>
 VINA RESULT:    -6.640      1.816     11.098
 INTER + INTRA:         -10.248
 INTER:                  -9.783
 INTRA:                  -0.465
 UNBOUND:                -0.503
  Name = 
  10 active torsions:
  status: ('A' for Active; 'I' for Inactive)
    1  A    between atoms: C_1  and  C_2
    2  A    between atoms: C_4  and  C_5
    3  A    between atoms: N_7  and  C_8
    4  A    between atoms: C_15  and  N_16
    5  A    between atoms: N_16  and  C_17
    6  A    between atoms: C_17  and  C_18
    7  A    between atoms: C_22  and  C_24
    8  A    between atoms: C_24  and  C_25
    9  A    between atoms: C_24  and  C_26
   10  A    between atoms: C_24  and  C_27
                            x       y       z     vdW  Elec       q    Type
                         _______ _______ _______ _____ _____    ______ ____

>  <TORSDO>
F 10

$$$$
=
 OpenBabel07192307433D

 66 68  0  0  0  0  0  0  0  0999 V2000
    0.8830   11.6250   18.3300 N   0  0  0  0  0  0  0  0  0  0  0  0
   -0.0760   11.8060   18.6070 H   0  0  0  0  0  0  0  0  0  0  0  0
    0.8100    9.7840   19.9170 C   0  0  0  0  0  0  0  0  0  0  0  0
    1.1490    8.4650   20.2800 C   0  0  0  0  0  0  0  0  0  0  0  0
    1.9180    7.6650   19.4320 C   0  0  0  0  0  0  0  0  0  0  0  0
    2.3240    8.1750   18.2000 C   0  0  0  0  0  0  0  0  0  0  0  0
    1.9960    9.4870   17.8380 C   0  0  0  0  0  0  0  0  0  0  0  0
    1.2730   10.3290   18.6960 C   0  0  0  0  0  0  0  0  0  0  0  0
    0.7690    8.0580   21.2140 H   0  0  0  0  0  0  0  0  0  0  0  0
    2.8940    7.5540   17.5120 H   0  0  0  0  0  0  0  0  0  0  0  0
    2.3290    9.8280   16.8620 H   0  0  0  0  0  0  0  0  0  0  0  0
   -0.0450   10.5870   20.8640 C   0  0  0  0  0  0  0  0  0  0  0  0
    0.4350   11.5420   21.1020 H   0  0  0  0  0  0  0  0  0  0  0  0
   -0.2160   10.0220   21.7850 H   0  0  0  0  0  0  0  0  0  0  0  0
   -1.0210   10.8190   20.4270 H   0  0  0  0  0  0  0  0  0  0  0  0
    2.2880    6.2650   19.7820 C   0  0  0  0  0  0  0  0  0  0  0  0
    2.2430    5.8880   20.9480 O   0  0  0  0  0  0  0  0  0  0  0  0
    2.6360    5.4430   18.7270 N   0  0  0  0  0  0  0  0  0  0  0  0
    2.3860    5.7410   17.7940 H   0  0  0  0  0  0  0  0  0  0  0  0
    2.8830    4.0330   18.9370 C   0  0  0  0  0  0  0  0  0  0  0  0
    3.6610    3.4010   17.7900 C   0  0  0  0  0  0  0  0  0  0  0  0
    3.4250    1.9080   17.9790 C   0  0  0  0  0  0  0  0  0  0  0  0
    2.0500    1.7840   18.6370 C   0  0  0  0  0  0  0  0  0  0  0  0
    1.6010    3.2050   18.9670 C   0  0  0  0  0  0  0  0  0  0  0  0
    3.4300    3.9030   19.8800 H   0  0  0  0  0  0  0  0  0  0  0  0
    4.7240    3.6590   17.8150 H   0  0  0  0  0  0  0  0  0  0  0  0
    3.2640    3.7220   16.8200 H   0  0  0  0  0  0  0  0  0  0  0  0
    4.1900    1.4860   18.6420 H   0  0  0  0  0  0  0  0  0  0  0  0
    3.4760    1.3660   17.0300 H   0  0  0  0  0  0  0  0  0  0  0  0
    1.3300    1.2940   17.9740 H   0  0  0  0  0  0  0  0  0  0  0  0
    2.1220    1.1770   19.5460 H   0  0  0  0  0  0  0  0  0  0  0  0
    0.8930    3.5550   18.2050 H   0  0  0  0  0  0  0  0  0  0  0  0
    1.0910    3.2610   19.9350 H   0  0  0  0  0  0  0  0  0  0  0  0
    1.7740   12.7630   18.5410 C   0  0  0  0  0  0  0  0  0  0  0  0
    2.6830   12.4440   19.0640 H   0  0  0  0  0  0  0  0  0  0  0  0
    2.0610   13.1830   17.5700 H   0  0  0  0  0  0  0  0  0  0  0  0
    1.0540   13.8620   19.3420 C   0  0  0  0  0  0  0  0  0  0  0  0
   -0.4780   13.8030   19.1680 C   0  0  0  0  0  0  0  0  0  0  0  0
   -1.1770   14.8250   20.0660 C   0  0  0  0  0  0  0  0  0  0  0  0
   -0.7850   14.6220   21.4570 N   0  0  0  0  0  0  0  0  0  0  0  0
   -1.5350   14.0610   22.4850 C   0  0  0  0  0  0  0  0  0  0  0  0
   -0.9720   13.7320   23.5370 O   0  0  0  0  0  0  0  0  0  0  0  0
    0.6550   14.7810   21.6680 C   0  0  0  0  0  0  0  0  0  0  0  0
    1.4210   13.7540   20.8350 C   0  0  0  0  0  0  0  0  0  0  0  0
    1.3980   14.8420   18.9810 H   0  0  0  0  0  0  0  0  0  0  0  0
   -0.7570   14.0000   18.1270 H   0  0  0  0  0  0  0  0  0  0  0  0
   -0.8360   12.7950   19.4150 H   0  0  0  0  0  0  0  0  0  0  0  0
   -2.2480   14.7670   19.9160 H   0  0  0  0  0  0  0  0  0  0  0  0
   -0.8770   15.8420   19.7840 H   0  0  0  0  0  0  0  0  0  0  0  0
    0.9260   15.7990   21.3620 H   0  0  0  0  0  0  0  0  0  0  0  0
    0.9290   14.6840   22.7230 H   0  0  0  0  0  0  0  0  0  0  0  0
    2.4980   13.9090   20.9700 H   0  0  0  0  0  0  0  0  0  0  0  0
    1.1890   12.7440   21.2000 H   0  0  0  0  0  0  0  0  0  0  0  0
   -3.0700   13.8440   22.3590 C   0  0  0  0  0  0  0  0  0  0  0  0
   -3.8110   15.1680   22.1230 C   0  0  0  0  0  0  0  0  0  0  0  0
   -3.1570   16.0410   22.1250 H   0  0  0  0  0  0  0  0  0  0  0  0
   -4.3250   15.1630   21.1550 H   0  0  0  0  0  0  0  0  0  0  0  0
   -4.5630   15.3350   22.9010 H   0  0  0  0  0  0  0  0  0  0  0  0
   -3.4180   12.7810   21.3070 C   0  0  0  0  0  0  0  0  0  0  0  0
   -3.2370   11.7590   21.6430 H   0  0  0  0  0  0  0  0  0  0  0  0
   -2.8160   12.9100   20.4000 H   0  0  0  0  0  0  0  0  0  0  0  0
   -4.4730   12.8470   21.0190 H   0  0  0  0  0  0  0  0  0  0  0  0
   -3.5820   13.2960   23.7180 C   0  0  0  0  0  0  0  0  0  0  0  0
   -4.6650   13.4340   23.8230 H   0  0  0  0  0  0  0  0  0  0  0  0
   -3.3790   12.2230   23.8200 H   0  0  0  0  0  0  0  0  0  0  0  0
   -3.1020   13.8050   24.5610 H   0  0  0  0  0  0  0  0  0  0  0  0
  1 34  1  0  0  0  0
  1  2  1  0  0  0  0
  1  8  1  0  0  0  0
  3  4  1  0  0  0  0
  3 12  1  0  0  0  0
  4  9  1  0  0  0  0
  5 16  1  0  0  0  0
  5  4  2  0  0  0  0
  6  5  1  0  0  0  0
  7  6  2  0  0  0  0
  7  8  1  0  0  0  0
  8  3  2  0  0  0  0
 10  6  1  0  0  0  0
 11  7  1  0  0  0  0
 12 13  1  0  0  0  0
 12 14  1  0  0  0  0
 15 12  1  0  0  0  0
 16 17  2  0  0  0  0
 18 20  1  0  0  0  0
 18 16  1  0  0  0  0
 19 18  1  0  0  0  0
 20 24  1  0  0  0  0
 20 25  1  0  0  0  0
 21 26  1  0  0  0  0
 21 22  1  0  0  0  0
 21 20  1  0  0  0  0
 22 23  1  0  0  0  0
 22 28  1  0  0  0  0
 23 24  1  0  0  0  0
 23 31  1  0  0  0  0
 24 33  1  0  0  0  0
 27 21  1  0  0  0  0
 29 22  1  0  0  0  0
 30 23  1  0  0  0  0
 32 24  1  0  0  0  0
 34 35  1  0  0  0  0
 34 37  1  0  0  0  0
 36 34  1  0  0  0  0
 37 44  1  0  0  0  0
 38 37  1  0  0  0  0
 38 47  1  0  0  0  0
 38 39  1  0  0  0  0
 39 40  1  0  0  0  0
 40 43  1  0  0  0  0
 40 41  1  0  0  0  0
 41 42  2  0  0  0  0
 43 51  1  0  0  0  0
 44 52  1  0  0  0  0
 44 53  1  0  0  0  0
 44 43  1  0  0  0  0
 45 37  1  0  0  0  0
 46 38  1  0  0  0  0
 48 39  1  0  0  0  0
 49 39  1  0  0  0  0
 50 43  1  0  0  0  0
 54 41  1  0  0  0  0
 54 63  1  0  0  0  0
 55 56  1  0  0  0  0
 55 54  1  0  0  0  0
 55 58  1  0  0  0  0
 57 55  1  0  0  0  0
 59 60  1  0  0  0  0
 59 54  1  0  0  0  0
 61 59  1  0  0  0  0
 62 59  1  0  0  0  0
 63 65  1  0  0  0  0
 63 64  1  0  0  0  0
 63 66  1  0  0  0  0
M  END
>  <MODEL>
9

>  <REMARK>
 VINA RESULT:    -6.538      2.500     10.425
 INTER + INTRA:         -10.098
 INTER:                  -9.170
 INTRA:                  -0.928
 UNBOUND:                -0.503
  Name = 
  10 active torsions:
  status: ('A' for Active; 'I' for Inactive)
    1  A    between atoms: C_1  and  C_2
    2  A    between atoms: C_4  and  C_5
    3  A    between atoms: N_7  and  C_8
    4  A    between atoms: C_15  and  N_16
    5  A    between atoms: N_16  and  C_17
    6  A    between atoms: C_17  and  C_18
    7  A    between atoms: C_22  and  C_24
    8  A    between atoms: C_24  and  C_25
    9  A    between atoms: C_24  and  C_26
   10  A    between atoms: C_24  and  C_27
                            x       y       z     vdW  Elec       q    Type
                         _______ _______ _______ _____ _____    ______ ____

>  <TORSDO>
F 10

$$$$
=
 OpenBabel07192307433D

 66 68  0  0  0  0  0  0  0  0999 V2000
    1.7420    8.1980   20.5300 N   0  0  0  0  0  0  0  0  0  0  0  0
    2.0440    9.1480   20.3390 H   0  0  0  0  0  0  0  0  0  0  0  0
    2.6710    7.6960   18.3400 C   0  0  0  0  0  0  0  0  0  0  0  0
    3.3400    6.8160   17.4650 C   0  0  0  0  0  0  0  0  0  0  0  0
    3.7360    5.5460   17.8920 C   0  0  0  0  0  0  0  0  0  0  0  0
    3.4900    5.1660   19.2100 C   0  0  0  0  0  0  0  0  0  0  0  0
    2.8190    6.0330   20.0800 C   0  0  0  0  0  0  0  0  0  0  0  0
    2.3620    7.2900   19.6600 C   0  0  0  0  0  0  0  0  0  0  0  0
    3.5850    7.1520   16.4610 H   0  0  0  0  0  0  0  0  0  0  0  0
    3.8220    4.1940   19.5700 H   0  0  0  0  0  0  0  0  0  0  0  0
    2.6640    5.6890   21.0990 H   0  0  0  0  0  0  0  0  0  0  0  0
    2.2950    9.0620   17.8270 C   0  0  0  0  0  0  0  0  0  0  0  0
    1.7670    8.9830   16.8710 H   0  0  0  0  0  0  0  0  0  0  0  0
    3.1930    9.6750   17.7010 H   0  0  0  0  0  0  0  0  0  0  0  0
    1.6270    9.5830   18.5200 H   0  0  0  0  0  0  0  0  0  0  0  0
    4.4510    4.5950   16.9960 C   0  0  0  0  0  0  0  0  0  0  0  0
    4.3020    3.3860   17.1340 O   0  0  0  0  0  0  0  0  0  0  0  0
    5.2370    5.1590   16.0090 N   0  0  0  0  0  0  0  0  0  0  0  0
    5.0910    6.1350   15.7910 H   0  0  0  0  0  0  0  0  0  0  0  0
    5.8680    4.3330   15.0030 C   0  0  0  0  0  0  0  0  0  0  0  0
    7.0180    5.0450   14.3020 C   0  0  0  0  0  0  0  0  0  0  0  0
    7.2310    4.2210   13.0390 C   0  0  0  0  0  0  0  0  0  0  0  0
    5.8630    3.6340   12.6890 C   0  0  0  0  0  0  0  0  0  0  0  0
    4.9330    3.9900   13.8460 C   0  0  0  0  0  0  0  0  0  0  0  0
    6.2290    3.4100   15.4740 H   0  0  0  0  0  0  0  0  0  0  0  0
    7.9180    5.0940   14.9220 H   0  0  0  0  0  0  0  0  0  0  0  0
    6.7420    6.0730   14.0360 H   0  0  0  0  0  0  0  0  0  0  0  0
    7.9410    3.4090   13.2340 H   0  0  0  0  0  0  0  0  0  0  0  0
    7.6390    4.8260   12.2240 H   0  0  0  0  0  0  0  0  0  0  0  0
    5.4820    4.0390   11.7460 H   0  0  0  0  0  0  0  0  0  0  0  0
    5.9390    2.5480   12.5710 H   0  0  0  0  0  0  0  0  0  0  0  0
    4.3180    4.8570   13.5720 H   0  0  0  0  0  0  0  0  0  0  0  0
    4.2490    3.1710   14.0910 H   0  0  0  0  0  0  0  0  0  0  0  0
    0.3160    8.0920   20.8310 C   0  0  0  0  0  0  0  0  0  0  0  0
   -0.1950    7.5050   20.0580 H   0  0  0  0  0  0  0  0  0  0  0  0
    0.1860    7.5850   21.7940 H   0  0  0  0  0  0  0  0  0  0  0  0
   -0.3110    9.4930   20.9400 C   0  0  0  0  0  0  0  0  0  0  0  0
    0.6610   10.5220   21.5530 C   0  0  0  0  0  0  0  0  0  0  0  0
    0.0600   11.9280   21.5400 C   0  0  0  0  0  0  0  0  0  0  0  0
   -0.3260   12.2960   20.1820 N   0  0  0  0  0  0  0  0  0  0  0  0
    0.3110   13.1820   19.3210 C   0  0  0  0  0  0  0  0  0  0  0  0
    0.0020   13.1920   18.1220 O   0  0  0  0  0  0  0  0  0  0  0  0
   -1.3320   11.3960   19.6160 C   0  0  0  0  0  0  0  0  0  0  0  0
   -0.7810    9.9720   19.5520 C   0  0  0  0  0  0  0  0  0  0  0  0
   -1.1950    9.4320   21.5910 H   0  0  0  0  0  0  0  0  0  0  0  0
    0.9060   10.2540   22.5870 H   0  0  0  0  0  0  0  0  0  0  0  0
    1.6000   10.5210   20.9860 H   0  0  0  0  0  0  0  0  0  0  0  0
    0.7590   12.6260   21.9840 H   0  0  0  0  0  0  0  0  0  0  0  0
   -0.8450   11.9570   22.1600 H   0  0  0  0  0  0  0  0  0  0  0  0
   -2.2160   11.4330   20.2650 H   0  0  0  0  0  0  0  0  0  0  0  0
   -1.6570   11.7140   18.6210 H   0  0  0  0  0  0  0  0  0  0  0  0
   -1.5560    9.3000   19.1650 H   0  0  0  0  0  0  0  0  0  0  0  0
    0.0600    9.9390   18.8460 H   0  0  0  0  0  0  0  0  0  0  0  0
    1.3980   14.1760   19.8200 C   0  0  0  0  0  0  0  0  0  0  0  0
    0.8420   15.1330   20.8850 C   0  0  0  0  0  0  0  0  0  0  0  0
    1.5240   15.3000   21.7200 H   0  0  0  0  0  0  0  0  0  0  0  0
    0.6260   16.1170   20.4540 H   0  0  0  0  0  0  0  0  0  0  0  0
   -0.0880   14.7420   21.3100 H   0  0  0  0  0  0  0  0  0  0  0  0
    2.6700   13.4540   20.2860 C   0  0  0  0  0  0  0  0  0  0  0  0
    3.5910   13.9110   19.9210 H   0  0  0  0  0  0  0  0  0  0  0  0
    2.6880   12.4170   19.9310 H   0  0  0  0  0  0  0  0  0  0  0  0
    2.7290   13.4310   21.3800 H   0  0  0  0  0  0  0  0  0  0  0  0
    1.8170   15.0620   18.6160 C   0  0  0  0  0  0  0  0  0  0  0  0
    1.1760   15.9470   18.5280 H   0  0  0  0  0  0  0  0  0  0  0  0
    2.8500   15.4160   18.7180 H   0  0  0  0  0  0  0  0  0  0  0  0
    1.7500   14.5100   17.6710 H   0  0  0  0  0  0  0  0  0  0  0  0
  1 34  1  0  0  0  0
  2  1  1  0  0  0  0
  3  8  1  0  0  0  0
  4  5  1  0  0  0  0
  4  3  2  0  0  0  0
  5  6  2  0  0  0  0
  6 10  1  0  0  0  0
  6  7  1  0  0  0  0
  7 11  1  0  0  0  0
  8  7  2  0  0  0  0
  8  1  1  0  0  0  0
  9  4  1  0  0  0  0
 12  3  1  0  0  0  0
 12 15  1  0  0  0  0
 13 12  1  0  0  0  0
 14 12  1  0  0  0  0
 16 17  2  0  0  0  0
 16  5  1  0  0  0  0
 18 16  1  0  0  0  0
 19 18  1  0  0  0  0
 20 25  1  0  0  0  0
 20 18  1  0  0  0  0
 21 26  1  0  0  0  0
 21 20  1  0  0  0  0
 22 28  1  0  0  0  0
 22 21  1  0  0  0  0
 23 22  1  0  0  0  0
 23 24  1  0  0  0  0
 24 33  1  0  0  0  0
 24 20  1  0  0  0  0
 27 21  1  0  0  0  0
 29 22  1  0  0  0  0
 30 23  1  0  0  0  0
 31 23  1  0  0  0  0
 32 24  1  0  0  0  0
 34 37  1  0  0  0  0
 34 36  1  0  0  0  0
 35 34  1  0  0  0  0
 37 38  1  0  0  0  0
 37 45  1  0  0  0  0
 38 46  1  0  0  0  0
 39 38  1  0  0  0  0
 39 48  1  0  0  0  0
 39 49  1  0  0  0  0
 40 39  1  0  0  0  0
 41 54  1  0  0  0  0
 41 40  1  0  0  0  0
 42 41  2  0  0  0  0
 43 40  1  0  0  0  0
 43 50  1  0  0  0  0
 44 43  1  0  0  0  0
 44 37  1  0  0  0  0
 47 38  1  0  0  0  0
 51 43  1  0  0  0  0
 52 44  1  0  0  0  0
 53 44  1  0  0  0  0
 54 59  1  0  0  0  0
 54 55  1  0  0  0  0
 55 58  1  0  0  0  0
 55 56  1  0  0  0  0
 57 55  1  0  0  0  0
 59 62  1  0  0  0  0
 60 59  1  0  0  0  0
 61 59  1  0  0  0  0
 63 65  1  0  0  0  0
 63 54  1  0  0  0  0
 64 63  1  0  0  0  0
 66 63  1  0  0  0  0
M  END
>  <MODEL>
10

>  <REMARK>
 VINA RESULT:    -6.433      2.207     10.176
 INTER + INTRA:          -9.945
 INTER:                  -9.188
 INTRA:                  -0.756
 UNBOUND:                -0.503
  Name = 
  10 active torsions:
  status: ('A' for Active; 'I' for Inactive)
    1  A    between atoms: C_1  and  C_2
    2  A    between atoms: C_4  and  C_5
    3  A    between atoms: N_7  and  C_8
    4  A    between atoms: C_15  and  N_16
    5  A    between atoms: N_16  and  C_17
    6  A    between atoms: C_17  and  C_18
    7  A    between atoms: C_22  and  C_24
    8  A    between atoms: C_24  and  C_25
    9  A    between atoms: C_24  and  C_26
   10  A    between atoms: C_24  and  C_27
                            x       y       z     vdW  Elec       q    Type
                         _______ _______ _______ _____ _____    ______ ____

>  <TORSDO>
F 10

$$$$
=
 OpenBabel07192307433D

 66 68  0  0  0  0  0  0  0  0999 V2000
    1.4160    7.3750   20.1020 N   0  0  0  0  0  0  0  0  0  0  0  0
    0.9780    6.6720   20.6890 H   0  0  0  0  0  0  0  0  0  0  0  0
    2.8960    5.5040   19.6270 C   0  0  0  0  0  0  0  0  0  0  0  0
    3.8960    4.9030   18.8370 C   0  0  0  0  0  0  0  0  0  0  0  0
    4.4370    5.5740   17.7370 C   0  0  0  0  0  0  0  0  0  0  0  0
    3.9540    6.8380   17.4070 C   0  0  0  0  0  0  0  0  0  0  0  0
    2.9670    7.4430   18.1940 C   0  0  0  0  0  0  0  0  0  0  0  0
    2.4470    6.8140   19.3350 C   0  0  0  0  0  0  0  0  0  0  0  0
    4.2140    3.8890   19.0660 H   0  0  0  0  0  0  0  0  0  0  0  0
    4.3400    7.3610   16.5340 H   0  0  0  0  0  0  0  0  0  0  0  0
    2.6190    8.4240   17.8840 H   0  0  0  0  0  0  0  0  0  0  0  0
    2.3330    4.7180   20.7830 C   0  0  0  0  0  0  0  0  0  0  0  0
    2.9640    4.8320   21.6710 H   0  0  0  0  0  0  0  0  0  0  0  0
    2.2600    3.6600   20.5170 H   0  0  0  0  0  0  0  0  0  0  0  0
    1.3310    5.0650   21.0570 H   0  0  0  0  0  0  0  0  0  0  0  0
    5.4900    4.9650   16.8770 C   0  0  0  0  0  0  0  0  0  0  0  0
    6.4840    4.4570   17.3840 O   0  0  0  0  0  0  0  0  0  0  0  0
    5.2510    4.9800   15.5160 N   0  0  0  0  0  0  0  0  0  0  0  0
    4.3070    5.1620   15.2040 H   0  0  0  0  0  0  0  0  0  0  0  0
    6.1410    4.2990   14.6000 C   0  0  0  0  0  0  0  0  0  0  0  0
    7.1710    5.2360   13.9830 C   0  0  0  0  0  0  0  0  0  0  0  0
    7.6790    4.4620   12.7740 C   0  0  0  0  0  0  0  0  0  0  0  0
    6.5110    3.5850   12.3210 C   0  0  0  0  0  0  0  0  0  0  0  0
    5.4190    3.7440   13.3750 C   0  0  0  0  0  0  0  0  0  0  0  0
    6.6460    3.4840   15.1340 H   0  0  0  0  0  0  0  0  0  0  0  0
    7.9750    5.4900   14.6800 H   0  0  0  0  0  0  0  0  0  0  0  0
    6.7060    6.1750   13.6580 H   0  0  0  0  0  0  0  0  0  0  0  0
    8.5260    3.8280   13.0610 H   0  0  0  0  0  0  0  0  0  0  0  0
    8.0220    5.1310   11.9790 H   0  0  0  0  0  0  0  0  0  0  0  0
    6.1440    3.8840   11.3340 H   0  0  0  0  0  0  0  0  0  0  0  0
    6.8320    2.5400   12.2480 H   0  0  0  0  0  0  0  0  0  0  0  0
    4.6600    4.4510   13.0170 H   0  0  0  0  0  0  0  0  0  0  0  0
    4.9080    2.7980   13.5850 H   0  0  0  0  0  0  0  0  0  0  0  0
    1.5940    8.6610   20.7710 C   0  0  0  0  0  0  0  0  0  0  0  0
    1.0320    8.6840   21.7120 H   0  0  0  0  0  0  0  0  0  0  0  0
    2.6570    8.8060   20.9980 H   0  0  0  0  0  0  0  0  0  0  0  0
    1.1410    9.8080   19.8500 C   0  0  0  0  0  0  0  0  0  0  0  0
    0.3270    9.3000   18.6420 C   0  0  0  0  0  0  0  0  0  0  0  0
   -0.2130   10.4640   17.8100 C   0  0  0  0  0  0  0  0  0  0  0  0
   -1.0010   11.3590   18.6510 N   0  0  0  0  0  0  0  0  0  0  0  0
   -2.3830   11.4990   18.6930 C   0  0  0  0  0  0  0  0  0  0  0  0
   -2.9020   12.1150   19.6330 O   0  0  0  0  0  0  0  0  0  0  0  0
   -0.2190   11.9410   19.7430 C   0  0  0  0  0  0  0  0  0  0  0  0
    0.3150   10.8340   20.6510 C   0  0  0  0  0  0  0  0  0  0  0  0
    2.0340   10.3220   19.4650 H   0  0  0  0  0  0  0  0  0  0  0  0
    0.9460    8.6650   17.9990 H   0  0  0  0  0  0  0  0  0  0  0  0
   -0.5100    8.6860   18.9970 H   0  0  0  0  0  0  0  0  0  0  0  0
   -0.7710   10.0780   16.9660 H   0  0  0  0  0  0  0  0  0  0  0  0
    0.6170   11.0470   17.3940 H   0  0  0  0  0  0  0  0  0  0  0  0
    0.6110   12.5030   19.2970 H   0  0  0  0  0  0  0  0  0  0  0  0
   -0.8030   12.6550   20.3320 H   0  0  0  0  0  0  0  0  0  0  0  0
    0.9310   11.2780   21.4410 H   0  0  0  0  0  0  0  0  0  0  0  0
   -0.5270   10.3270   21.1410 H   0  0  0  0  0  0  0  0  0  0  0  0
   -3.3030   10.9140   17.5860 C   0  0  0  0  0  0  0  0  0  0  0  0
   -2.7940   11.2690   16.1810 C   0  0  0  0  0  0  0  0  0  0  0  0
   -2.2080   10.4750   15.7150 H   0  0  0  0  0  0  0  0  0  0  0  0
   -3.6290   11.4830   15.5030 H   0  0  0  0  0  0  0  0  0  0  0  0
   -2.1540   12.1560   16.2140 H   0  0  0  0  0  0  0  0  0  0  0  0
   -3.5330    9.4050   17.7630 C   0  0  0  0  0  0  0  0  0  0  0  0
   -3.0360    8.9880   18.6400 H   0  0  0  0  0  0  0  0  0  0  0  0
   -3.1470    8.8440   16.9030 H   0  0  0  0  0  0  0  0  0  0  0  0
   -4.6010    9.1810   17.8550 H   0  0  0  0  0  0  0  0  0  0  0  0
   -4.6970   11.5840   17.7250 C   0  0  0  0  0  0  0  0  0  0  0  0
   -4.7070   12.3200   18.5390 H   0  0  0  0  0  0  0  0  0  0  0  0
   -4.9840   12.1090   16.8070 H   0  0  0  0  0  0  0  0  0  0  0  0
   -5.4760   10.8450   17.9400 H   0  0  0  0  0  0  0  0  0  0  0  0
  1  2  1  0  0  0  0
  1 34  1  0  0  0  0
  3 12  1  0  0  0  0
  4  9  1  0  0  0  0
  4  3  2  0  0  0  0
  5  4  1  0  0  0  0
  6  5  2  0  0  0  0
  6  7  1  0  0  0  0
  7  8  2  0  0  0  0
  8  3  1  0  0  0  0
  8  1  1  0  0  0  0
 10  6  1  0  0  0  0
 11  7  1  0  0  0  0
 12 15  1  0  0  0  0
 12 13  1  0  0  0  0
 14 12  1  0  0  0  0
 16 17  2  0  0  0  0
 16  5  1  0  0  0  0
 18 16  1  0  0  0  0
 19 18  1  0  0  0  0
 20 25  1  0  0  0  0
 20 18  1  0  0  0  0
 21 20  1  0  0  0  0
 21 26  1  0  0  0  0
 22 28  1  0  0  0  0
 22 21  1  0  0  0  0
 23 22  1  0  0  0  0
 23 24  1  0  0  0  0
 24 33  1  0  0  0  0
 24 20  1  0  0  0  0
 27 21  1  0  0  0  0
 29 22  1  0  0  0  0
 30 23  1  0  0  0  0
 31 23  1  0  0  0  0
 32 24  1  0  0  0  0
 34 36  1  0  0  0  0
 34 35  1  0  0  0  0
 37 44  1  0  0  0  0
 37 34  1  0  0  0  0
 38 47  1  0  0  0  0
 38 37  1  0  0  0  0
 39 38  1  0  0  0  0
 39 40  1  0  0  0  0
 40 41  1  0  0  0  0
 40 43  1  0  0  0  0
 41 42  2  0  0  0  0
 43 51  1  0  0  0  0
 43 44  1  0  0  0  0
 44 53  1  0  0  0  0
 44 52  1  0  0  0  0
 45 37  1  0  0  0  0
 46 38  1  0  0  0  0
 48 39  1  0  0  0  0
 49 39  1  0  0  0  0
 50 43  1  0  0  0  0
 54 63  1  0  0  0  0
 54 59  1  0  0  0  0
 54 41  1  0  0  0  0
 55 58  1  0  0  0  0
 55 54  1  0  0  0  0
 56 55  1  0  0  0  0
 57 55  1  0  0  0  0
 59 62  1  0  0  0  0
 59 60  1  0  0  0  0
 61 59  1  0  0  0  0
 63 66  1  0  0  0  0
 63 64  1  0  0  0  0
 65 63  1  0  0  0  0
M  END
>  <MODEL>
11

>  <REMARK>
 VINA RESULT:    -6.365      2.538     10.398
 INTER + INTRA:          -9.844
 INTER:                  -9.787
 INTRA:                  -0.057
 UNBOUND:                -0.503
  Name = 
  10 active torsions:
  status: ('A' for Active; 'I' for Inactive)
    1  A    between atoms: C_1  and  C_2
    2  A    between atoms: C_4  and  C_5
    3  A    between atoms: N_7  and  C_8
    4  A    between atoms: C_15  and  N_16
    5  A    between atoms: N_16  and  C_17
    6  A    between atoms: C_17  and  C_18
    7  A    between atoms: C_22  and  C_24
    8  A    between atoms: C_24  and  C_25
    9  A    between atoms: C_24  and  C_26
   10  A    between atoms: C_24  and  C_27
                            x       y       z     vdW  Elec       q    Type
                         _______ _______ _______ _____ _____    ______ ____

>  <TORSDO>
F 10

$$$$
=
 OpenBabel07192307433D

 66 68  0  0  0  0  0  0  0  0999 V2000
    0.7180    9.3420   17.7340 N   0  0  0  0  0  0  0  0  0  0  0  0
    0.4310    9.3580   16.7610 H   0  0  0  0  0  0  0  0  0  0  0  0
   -1.3880   10.5000   18.1010 C   0  0  0  0  0  0  0  0  0  0  0  0
   -2.2040   11.3410   18.8840 C   0  0  0  0  0  0  0  0  0  0  0  0
   -1.7290   11.8870   20.0790 C   0  0  0  0  0  0  0  0  0  0  0  0
   -0.4430   11.5650   20.5090 C   0  0  0  0  0  0  0  0  0  0  0  0
    0.3730   10.7370   19.7310 C   0  0  0  0  0  0  0  0  0  0  0  0
   -0.0600   10.2210   18.5010 C   0  0  0  0  0  0  0  0  0  0  0  0
   -3.2280   11.5290   18.5700 H   0  0  0  0  0  0  0  0  0  0  0  0
   -0.0690   11.9540   21.4540 H   0  0  0  0  0  0  0  0  0  0  0  0
    1.3620   10.5100   20.1200 H   0  0  0  0  0  0  0  0  0  0  0  0
   -1.9690    9.9210   16.8360 C   0  0  0  0  0  0  0  0  0  0  0  0
   -2.3630    8.9150   17.0180 H   0  0  0  0  0  0  0  0  0  0  0  0
   -1.2020    9.8790   16.0570 H   0  0  0  0  0  0  0  0  0  0  0  0
   -2.7990   10.5260   16.4580 H   0  0  0  0  0  0  0  0  0  0  0  0
   -2.5670   12.7740   20.9340 C   0  0  0  0  0  0  0  0  0  0  0  0
   -3.6790   13.1250   20.5560 O   0  0  0  0  0  0  0  0  0  0  0  0
   -2.0310   13.1260   22.1580 N   0  0  0  0  0  0  0  0  0  0  0  0
   -1.2510   12.5860   22.5050 H   0  0  0  0  0  0  0  0  0  0  0  0
   -2.8120   13.8720   23.1210 C   0  0  0  0  0  0  0  0  0  0  0  0
   -1.9420   14.6330   24.1130 C   0  0  0  0  0  0  0  0  0  0  0  0
   -2.8990   14.9560   25.2530 C   0  0  0  0  0  0  0  0  0  0  0  0
   -3.9310   13.8270   25.2630 C   0  0  0  0  0  0  0  0  0  0  0  0
   -3.6470   12.9740   24.0300 C   0  0  0  0  0  0  0  0  0  0  0  0
   -3.4690   14.5700   22.5850 H   0  0  0  0  0  0  0  0  0  0  0  0
   -1.5000   15.5330   23.6750 H   0  0  0  0  0  0  0  0  0  0  0  0
   -1.1220   14.0050   24.4800 H   0  0  0  0  0  0  0  0  0  0  0  0
   -3.4020   15.9120   25.0630 H   0  0  0  0  0  0  0  0  0  0  0  0
   -2.3760   15.0440   26.2100 H   0  0  0  0  0  0  0  0  0  0  0  0
   -3.8580   13.2260   26.1750 H   0  0  0  0  0  0  0  0  0  0  0  0
   -4.9430   14.2430   25.2250 H   0  0  0  0  0  0  0  0  0  0  0  0
   -3.0810   12.0800   24.3210 H   0  0  0  0  0  0  0  0  0  0  0  0
   -4.5680   12.6320   23.5460 H   0  0  0  0  0  0  0  0  0  0  0  0
    2.1670    9.2750   17.9120 C   0  0  0  0  0  0  0  0  0  0  0  0
    2.6630   10.0330   17.2940 H   0  0  0  0  0  0  0  0  0  0  0  0
    2.4120    9.4690   18.9620 H   0  0  0  0  0  0  0  0  0  0  0  0
    2.6840    7.8700   17.5520 C   0  0  0  0  0  0  0  0  0  0  0  0
    4.0740    7.9130   16.8860 C   0  0  0  0  0  0  0  0  0  0  0  0
    4.6180    6.5040   16.6500 C   0  0  0  0  0  0  0  0  0  0  0  0
    4.6460    5.7590   17.9030 N   0  0  0  0  0  0  0  0  0  0  0  0
    5.7500    5.4340   18.6830 C   0  0  0  0  0  0  0  0  0  0  0  0
    5.5780    5.0210   19.8370 O   0  0  0  0  0  0  0  0  0  0  0  0
    3.3180    5.6100   18.5010 C   0  0  0  0  0  0  0  0  0  0  0  0
    2.7280    6.9850   18.8130 C   0  0  0  0  0  0  0  0  0  0  0  0
    1.9820    7.4100   16.8420 H   0  0  0  0  0  0  0  0  0  0  0  0
    4.0270    8.4380   15.9260 H   0  0  0  0  0  0  0  0  0  0  0  0
    4.7700    8.4700   17.5260 H   0  0  0  0  0  0  0  0  0  0  0  0
    5.5890    6.5640   16.1730 H   0  0  0  0  0  0  0  0  0  0  0  0
    3.9650    5.9590   15.9560 H   0  0  0  0  0  0  0  0  0  0  0  0
    2.6840    5.0780   17.7800 H   0  0  0  0  0  0  0  0  0  0  0  0
    3.3410    5.0010   19.4100 H   0  0  0  0  0  0  0  0  0  0  0  0
    1.7190    6.8630   19.2230 H   0  0  0  0  0  0  0  0  0  0  0  0
    3.3360    7.4740   19.5870 H   0  0  0  0  0  0  0  0  0  0  0  0
    7.2030    5.5610   18.1440 C   0  0  0  0  0  0  0  0  0  0  0  0
    7.5110    4.4890   17.0900 C   0  0  0  0  0  0  0  0  0  0  0  0
    7.1770    4.7540   16.0860 H   0  0  0  0  0  0  0  0  0  0  0  0
    8.5900    4.3020   17.0230 H   0  0  0  0  0  0  0  0  0  0  0  0
    7.0230    3.5420   17.3450 H   0  0  0  0  0  0  0  0  0  0  0  0
    7.5110    6.9810   17.6450 C   0  0  0  0  0  0  0  0  0  0  0  0
    7.1150    7.7660   18.2900 H   0  0  0  0  0  0  0  0  0  0  0  0
    7.0720    7.1550   16.6550 H   0  0  0  0  0  0  0  0  0  0  0  0
    8.5910    7.1400   17.5620 H   0  0  0  0  0  0  0  0  0  0  0  0
    8.1710    5.2980   19.3290 C   0  0  0  0  0  0  0  0  0  0  0  0
    7.7280    5.6060   20.2830 H   0  0  0  0  0  0  0  0  0  0  0  0
    8.4220    4.2340   19.4130 H   0  0  0  0  0  0  0  0  0  0  0  0
    9.1100    5.8500   19.2080 H   0  0  0  0  0  0  0  0  0  0  0  0
  1 34  1  0  0  0  0
  1  8  1  0  0  0  0
  2  1  1  0  0  0  0
  3  8  2  0  0  0  0
  3  4  1  0  0  0  0
  4  5  2  0  0  0  0
  5  6  1  0  0  0  0
  5 16  1  0  0  0  0
  6 10  1  0  0  0  0
  7 11  1  0  0  0  0
  7  6  2  0  0  0  0
  8  7  1  0  0  0  0
  9  4  1  0  0  0  0
 12 13  1  0  0  0  0
 12  3  1  0  0  0  0
 14 12  1  0  0  0  0
 15 12  1  0  0  0  0
 16 18  1  0  0  0  0
 17 16  2  0  0  0  0
 18 19  1  0  0  0  0
 18 20  1  0  0  0  0
 20 24  1  0  0  0  0
 20 21  1  0  0  0  0
 21 27  1  0  0  0  0
 21 22  1  0  0  0  0
 22 23  1  0  0  0  0
 22 29  1  0  0  0  0
 23 30  1  0  0  0  0
 24 32  1  0  0  0  0
 24 23  1  0  0  0  0
 25 20  1  0  0  0  0
 26 21  1  0  0  0  0
 28 22  1  0  0  0  0
 31 23  1  0  0  0  0
 33 24  1  0  0  0  0
 34 36  1  0  0  0  0
 35 34  1  0  0  0  0
 37 34  1  0  0  0  0
 37 44  1  0  0  0  0
 38 47  1  0  0  0  0
 38 37  1  0  0  0  0
 39 38  1  0  0  0  0
 39 40  1  0  0  0  0
 40 43  1  0  0  0  0
 40 41  1  0  0  0  0
 41 42  2  0  0  0  0
 43 44  1  0  0  0  0
 43 51  1  0  0  0  0
 44 52  1  0  0  0  0
 44 53  1  0  0  0  0
 45 37  1  0  0  0  0
 46 38  1  0  0  0  0
 48 39  1  0  0  0  0
 49 39  1  0  0  0  0
 50 43  1  0  0  0  0
 54 41  1  0  0  0  0
 54 63  1  0  0  0  0
 55 58  1  0  0  0  0
 55 54  1  0  0  0  0
 56 55  1  0  0  0  0
 57 55  1  0  0  0  0
 59 54  1  0  0  0  0
 59 60  1  0  0  0  0
 61 59  1  0  0  0  0
 62 59  1  0  0  0  0
 63 65  1  0  0  0  0
 63 64  1  0  0  0  0
 66 63  1  0  0  0  0
M  END
>  <MODEL>
12

>  <REMARK>
 VINA RESULT:    -6.308      1.994      2.814
 INTER + INTRA:          -9.760
 INTER:                  -9.409
 INTRA:                  -0.351
 UNBOUND:                -0.503
  Name = 
  10 active torsions:
  status: ('A' for Active; 'I' for Inactive)
    1  A    between atoms: C_1  and  C_2
    2  A    between atoms: C_4  and  C_5
    3  A    between atoms: N_7  and  C_8
    4  A    between atoms: C_15  and  N_16
    5  A    between atoms: N_16  and  C_17
    6  A    between atoms: C_17  and  C_18
    7  A    between atoms: C_22  and  C_24
    8  A    between atoms: C_24  and  C_25
    9  A    between atoms: C_24  and  C_26
   10  A    between atoms: C_24  and  C_27
                            x       y       z     vdW  Elec       q    Type
                         _______ _______ _______ _____ _____    ______ ____

>  <TORSDO>
F 10

$$$$
=
 OpenBabel07192307433D

 66 68  0  0  0  0  0  0  0  0999 V2000
    1.7500    7.7930   20.8380 N   0  0  0  0  0  0  0  0  0  0  0  0
    2.4010    8.5220   21.1130 H   0  0  0  0  0  0  0  0  0  0  0  0
    2.6680    7.4020   18.6200 C   0  0  0  0  0  0  0  0  0  0  0  0
    3.3050    6.5570   17.6900 C   0  0  0  0  0  0  0  0  0  0  0  0
    3.6480    5.2460   18.0320 C   0  0  0  0  0  0  0  0  0  0  0  0
    3.3810    4.7890   19.3210 C   0  0  0  0  0  0  0  0  0  0  0  0
    2.7420    5.6210   20.2460 C   0  0  0  0  0  0  0  0  0  0  0  0
    2.3370    6.9220   19.9100 C   0  0  0  0  0  0  0  0  0  0  0  0
    3.5670    6.9490   16.7100 H   0  0  0  0  0  0  0  0  0  0  0  0
    3.6730    3.7820   19.6150 H   0  0  0  0  0  0  0  0  0  0  0  0
    2.5690    5.2170   21.2390 H   0  0  0  0  0  0  0  0  0  0  0  0
    2.3480    8.8130   18.1990 C   0  0  0  0  0  0  0  0  0  0  0  0
    2.3590    8.9020   17.1080 H   0  0  0  0  0  0  0  0  0  0  0  0
    3.0760    9.5070   18.6320 H   0  0  0  0  0  0  0  0  0  0  0  0
    1.3530    9.1190   18.5360 H   0  0  0  0  0  0  0  0  0  0  0  0
    4.3280    4.3290   17.0750 C   0  0  0  0  0  0  0  0  0  0  0  0
    4.0910    3.1260   17.0970 O   0  0  0  0  0  0  0  0  0  0  0  0
    5.1870    4.9210   16.1680 N   0  0  0  0  0  0  0  0  0  0  0  0
    5.1180    5.9200   16.0350 H   0  0  0  0  0  0  0  0  0  0  0  0
    5.7970    4.1440   15.1100 C   0  0  0  0  0  0  0  0  0  0  0  0
    7.0450    4.8080   14.5440 C   0  0  0  0  0  0  0  0  0  0  0  0
    7.2540    4.1000   13.2120 C   0  0  0  0  0  0  0  0  0  0  0  0
    5.8600    3.6870   12.7380 C   0  0  0  0  0  0  0  0  0  0  0  0
    4.9020    4.0120   13.8810 C   0  0  0  0  0  0  0  0  0  0  0  0
    6.0450    3.1470   15.4970 H   0  0  0  0  0  0  0  0  0  0  0  0
    7.9090    4.7070   15.2080 H   0  0  0  0  0  0  0  0  0  0  0  0
    6.8800    5.8800   14.3770 H   0  0  0  0  0  0  0  0  0  0  0  0
    7.8750    3.2080   13.3530 H   0  0  0  0  0  0  0  0  0  0  0  0
    7.7610    4.7430   12.4860 H   0  0  0  0  0  0  0  0  0  0  0  0
    5.5720    4.2200   11.8270 H   0  0  0  0  0  0  0  0  0  0  0  0
    5.8440    2.6160   12.5090 H   0  0  0  0  0  0  0  0  0  0  0  0
    4.3850    4.9570   13.6720 H   0  0  0  0  0  0  0  0  0  0  0  0
    4.1330    3.2420   14.0050 H   0  0  0  0  0  0  0  0  0  0  0  0
    0.3840    8.2750   20.6510 C   0  0  0  0  0  0  0  0  0  0  0  0
    0.0960    8.2110   19.5950 H   0  0  0  0  0  0  0  0  0  0  0  0
   -0.3030    7.6520   21.2360 H   0  0  0  0  0  0  0  0  0  0  0  0
    0.2570    9.7260   21.1520 C   0  0  0  0  0  0  0  0  0  0  0  0
   -0.5010   10.6230   20.1520 C   0  0  0  0  0  0  0  0  0  0  0  0
   -0.7190   12.0250   20.7230 C   0  0  0  0  0  0  0  0  0  0  0  0
   -1.4120   11.9430   22.0050 N   0  0  0  0  0  0  0  0  0  0  0  0
   -2.7400   12.2470   22.2810 C   0  0  0  0  0  0  0  0  0  0  0  0
   -3.2340   11.8850   23.3570 O   0  0  0  0  0  0  0  0  0  0  0  0
   -0.6600   11.1860   23.0060 C   0  0  0  0  0  0  0  0  0  0  0  0
   -0.4450    9.7520   22.5240 C   0  0  0  0  0  0  0  0  0  0  0  0
    1.2660   10.1410   21.2820 H   0  0  0  0  0  0  0  0  0  0  0  0
    0.0540   10.7090   19.2120 H   0  0  0  0  0  0  0  0  0  0  0  0
   -1.4720   10.1700   19.9160 H   0  0  0  0  0  0  0  0  0  0  0  0
   -1.2440   12.6350   19.9980 H   0  0  0  0  0  0  0  0  0  0  0  0
    0.2460   12.5150   20.9000 H   0  0  0  0  0  0  0  0  0  0  0  0
    0.3050   11.6890   23.1490 H   0  0  0  0  0  0  0  0  0  0  0  0
   -1.1600   11.1800   23.9790 H   0  0  0  0  0  0  0  0  0  0  0  0
    0.1530    9.2060   23.2630 H   0  0  0  0  0  0  0  0  0  0  0  0
   -1.4160    9.2430   22.4520 H   0  0  0  0  0  0  0  0  0  0  0  0
   -3.6270   13.0420   21.2820 C   0  0  0  0  0  0  0  0  0  0  0  0
   -3.1430   14.4910   21.1250 C   0  0  0  0  0  0  0  0  0  0  0  0
   -3.1890   14.8580   20.0980 H   0  0  0  0  0  0  0  0  0  0  0  0
   -3.7470   15.1750   21.7310 H   0  0  0  0  0  0  0  0  0  0  0  0
   -2.1010   14.5880   21.4480 H   0  0  0  0  0  0  0  0  0  0  0  0
   -3.7680   12.3200   19.9340 C   0  0  0  0  0  0  0  0  0  0  0  0
   -4.7520   11.8790   19.7750 H   0  0  0  0  0  0  0  0  0  0  0  0
   -3.0510   11.4940   19.8520 H   0  0  0  0  0  0  0  0  0  0  0  0
   -3.5790   13.0070   19.1020 H   0  0  0  0  0  0  0  0  0  0  0  0
   -5.0570   13.1250   21.8820 C   0  0  0  0  0  0  0  0  0  0  0  0
   -5.7810   12.5770   21.2670 H   0  0  0  0  0  0  0  0  0  0  0  0
   -5.0950   12.6960   22.8900 H   0  0  0  0  0  0  0  0  0  0  0  0
   -5.4020   14.1630   21.9520 H   0  0  0  0  0  0  0  0  0  0  0  0
  1  2  1  0  0  0  0
  3  8  1  0  0  0  0
  4  5  1  0  0  0  0
  4  3  2  0  0  0  0
  5  6  2  0  0  0  0
  6 10  1  0  0  0  0
  6  7  1  0  0  0  0
  7 11  1  0  0  0  0
  8  7  2  0  0  0  0
  8  1  1  0  0  0  0
  9  4  1  0  0  0  0
 12 15  1  0  0  0  0
 12  3  1  0  0  0  0
 12 14  1  0  0  0  0
 13 12  1  0  0  0  0
 16 17  2  0  0  0  0
 16  5  1  0  0  0  0
 18 16  1  0  0  0  0
 19 18  1  0  0  0  0
 20 25  1  0  0  0  0
 20 18  1  0  0  0  0
 21 20  1  0  0  0  0
 21 26  1  0  0  0  0
 22 28  1  0  0  0  0
 22 21  1  0  0  0  0
 23 22  1  0  0  0  0
 23 24  1  0  0  0  0
 24 33  1  0  0  0  0
 24 20  1  0  0  0  0
 27 21  1  0  0  0  0
 29 22  1  0  0  0  0
 30 23  1  0  0  0  0
 31 23  1  0  0  0  0
 32 24  1  0  0  0  0
 34  1  1  0  0  0  0
 34 37  1  0  0  0  0
 34 36  1  0  0  0  0
 35 34  1  0  0  0  0
 37 45  1  0  0  0  0
 37 44  1  0  0  0  0
 38 39  1  0  0  0  0
 38 37  1  0  0  0  0
 39 49  1  0  0  0  0
 39 40  1  0  0  0  0
 40 41  1  0  0  0  0
 40 43  1  0  0  0  0
 41 42  2  0  0  0  0
 43 50  1  0  0  0  0
 43 51  1  0  0  0  0
 44 43  1  0  0  0  0
 44 52  1  0  0  0  0
 46 38  1  0  0  0  0
 47 38  1  0  0  0  0
 48 39  1  0  0  0  0
 53 44  1  0  0  0  0
 54 63  1  0  0  0  0
 54 41  1  0  0  0  0
 55 54  1  0  0  0  0
 55 58  1  0  0  0  0
 55 57  1  0  0  0  0
 56 55  1  0  0  0  0
 59 54  1  0  0  0  0
 60 59  1  0  0  0  0
 61 59  1  0  0  0  0
 62 59  1  0  0  0  0
 63 66  1  0  0  0  0
 63 65  1  0  0  0  0
 64 63  1  0  0  0  0
M  END
>  <MODEL>
13

>  <REMARK>
 VINA RESULT:    -6.265      1.743     10.881
 INTER + INTRA:          -9.698
 INTER:                  -9.534
 INTRA:                  -0.164
 UNBOUND:                -0.503
  Name = 
  10 active torsions:
  status: ('A' for Active; 'I' for Inactive)
    1  A    between atoms: C_1  and  C_2
    2  A    between atoms: C_4  and  C_5
    3  A    between atoms: N_7  and  C_8
    4  A    between atoms: C_15  and  N_16
    5  A    between atoms: N_16  and  C_17
    6  A    between atoms: C_17  and  C_18
    7  A    between atoms: C_22  and  C_24
    8  A    between atoms: C_24  and  C_25
    9  A    between atoms: C_24  and  C_26
   10  A    between atoms: C_24  and  C_27
                            x       y       z     vdW  Elec       q    Type
                         _______ _______ _______ _____ _____    ______ ____

>  <TORSDO>
F 10

$$$$
=
 OpenBabel07192307433D

 66 68  0  0  0  0  0  0  0  0999 V2000
    0.2340   10.4180   20.2480 N   0  0  0  0  0  0  0  0  0  0  0  0
    0.8130   11.2380   20.3950 H   0  0  0  0  0  0  0  0  0  0  0  0
    1.7510    9.4860   18.5910 C   0  0  0  0  0  0  0  0  0  0  0  0
    2.5680    8.4330   18.1330 C   0  0  0  0  0  0  0  0  0  0  0  0
    2.6760    7.2440   18.8590 C   0  0  0  0  0  0  0  0  0  0  0  0
    1.9890    7.1200   20.0650 C   0  0  0  0  0  0  0  0  0  0  0  0
    1.1700    8.1590   20.5200 C   0  0  0  0  0  0  0  0  0  0  0  0
    1.0010    9.3400   19.7820 C   0  0  0  0  0  0  0  0  0  0  0  0
    3.1510    8.5710   17.2260 H   0  0  0  0  0  0  0  0  0  0  0  0
    2.0880    6.2140   20.6600 H   0  0  0  0  0  0  0  0  0  0  0  0
    0.6670    8.0120   21.4710 H   0  0  0  0  0  0  0  0  0  0  0  0
    1.6990   10.7530   17.7770 C   0  0  0  0  0  0  0  0  0  0  0  0
    1.9260   10.5460   16.7260 H   0  0  0  0  0  0  0  0  0  0  0  0
    2.4140   11.4820   18.1710 H   0  0  0  0  0  0  0  0  0  0  0  0
    0.7040   11.2100   17.8060 H   0  0  0  0  0  0  0  0  0  0  0  0
    3.5360    6.1150   18.4070 C   0  0  0  0  0  0  0  0  0  0  0  0
    3.4680    5.0250   18.9650 O   0  0  0  0  0  0  0  0  0  0  0  0
    4.3580    6.3680   17.3260 N   0  0  0  0  0  0  0  0  0  0  0  0
    4.1590    7.1820   16.7620 H   0  0  0  0  0  0  0  0  0  0  0  0
    5.1350    5.3070   16.7220 C   0  0  0  0  0  0  0  0  0  0  0  0
    6.5420    5.2140   17.2970 C   0  0  0  0  0  0  0  0  0  0  0  0
    7.2970    4.3890   16.2630 C   0  0  0  0  0  0  0  0  0  0  0  0
    6.6240    4.6850   14.9220 C   0  0  0  0  0  0  0  0  0  0  0  0
    5.3960    5.5360   15.2360 C   0  0  0  0  0  0  0  0  0  0  0  0
    4.6080    4.3540   16.8630 H   0  0  0  0  0  0  0  0  0  0  0  0
    6.5590    4.7520   18.2890 H   0  0  0  0  0  0  0  0  0  0  0  0
    6.9980    6.2080   17.3870 H   0  0  0  0  0  0  0  0  0  0  0  0
    7.2050    3.3210   16.4930 H   0  0  0  0  0  0  0  0  0  0  0  0
    8.3640    4.6330   16.2500 H   0  0  0  0  0  0  0  0  0  0  0  0
    7.2990    5.2140   14.2430 H   0  0  0  0  0  0  0  0  0  0  0  0
    6.3350    3.7490   14.4320 H   0  0  0  0  0  0  0  0  0  0  0  0
    5.6190    6.5920   15.0380 H   0  0  0  0  0  0  0  0  0  0  0  0
    4.5370    5.2630   14.6140 H   0  0  0  0  0  0  0  0  0  0  0  0
   -1.0650   10.7240   19.6540 C   0  0  0  0  0  0  0  0  0  0  0  0
   -1.0380   10.5600   18.5700 H   0  0  0  0  0  0  0  0  0  0  0  0
   -1.8250   10.0620   20.0850 H   0  0  0  0  0  0  0  0  0  0  0  0
   -1.4640   12.1780   19.9650 C   0  0  0  0  0  0  0  0  0  0  0  0
   -2.7990   12.2640   20.7340 C   0  0  0  0  0  0  0  0  0  0  0  0
   -3.1130   13.7060   21.1360 C   0  0  0  0  0  0  0  0  0  0  0  0
   -2.0090   14.2630   21.9110 N   0  0  0  0  0  0  0  0  0  0  0  0
   -1.9570   14.4990   23.2800 C   0  0  0  0  0  0  0  0  0  0  0  0
   -0.8650   14.7370   23.8130 O   0  0  0  0  0  0  0  0  0  0  0  0
   -0.7520   14.2920   21.1620 C   0  0  0  0  0  0  0  0  0  0  0  0
   -0.3460   12.8730   20.7660 C   0  0  0  0  0  0  0  0  0  0  0  0
   -1.5840   12.7190   19.0160 H   0  0  0  0  0  0  0  0  0  0  0  0
   -3.6230   11.8820   20.1220 H   0  0  0  0  0  0  0  0  0  0  0  0
   -2.7450   11.6380   21.6330 H   0  0  0  0  0  0  0  0  0  0  0  0
   -4.0580   13.7380   21.6650 H   0  0  0  0  0  0  0  0  0  0  0  0
   -3.2360   14.3290   20.2420 H   0  0  0  0  0  0  0  0  0  0  0  0
   -0.9110   14.9070   20.2670 H   0  0  0  0  0  0  0  0  0  0  0  0
    0.0550   14.7650   21.7310 H   0  0  0  0  0  0  0  0  0  0  0  0
    0.5740   12.9110   20.1720 H   0  0  0  0  0  0  0  0  0  0  0  0
   -0.1250   12.2920   21.6720 H   0  0  0  0  0  0  0  0  0  0  0  0
   -3.2340   14.4850   24.1660 C   0  0  0  0  0  0  0  0  0  0  0  0
   -2.9330   14.9490   25.5990 C   0  0  0  0  0  0  0  0  0  0  0  0
   -3.6480   15.6810   25.9790 H   0  0  0  0  0  0  0  0  0  0  0  0
   -2.9470   14.1040   26.2970 H   0  0  0  0  0  0  0  0  0  0  0  0
   -1.9440   15.4150   25.6560 H   0  0  0  0  0  0  0  0  0  0  0  0
   -4.3900   15.2670   23.5250 C   0  0  0  0  0  0  0  0  0  0  0  0
   -4.0890   15.8640   22.6640 H   0  0  0  0  0  0  0  0  0  0  0  0
   -4.8330   15.9710   24.2400 H   0  0  0  0  0  0  0  0  0  0  0  0
   -5.1820   14.5890   23.1910 H   0  0  0  0  0  0  0  0  0  0  0  0
   -3.7150   13.0120   24.2780 C   0  0  0  0  0  0  0  0  0  0  0  0
   -4.8090   12.9500   24.3060 H   0  0  0  0  0  0  0  0  0  0  0  0
   -3.3750   12.4130   23.4260 H   0  0  0  0  0  0  0  0  0  0  0  0
   -3.3340   12.5360   25.1890 H   0  0  0  0  0  0  0  0  0  0  0  0
  1  2  1  0  0  0  0
  3  8  1  0  0  0  0
  4  3  2  0  0  0  0
  4  5  1  0  0  0  0
  5  6  2  0  0  0  0
  6  7  1  0  0  0  0
  6 10  1  0  0  0  0
  7 11  1  0  0  0  0
  8  1  1  0  0  0  0
  8  7  2  0  0  0  0
  9  4  1  0  0  0  0
 12 15  1  0  0  0  0
 12 14  1  0  0  0  0
 12  3  1  0  0  0  0
 13 12  1  0  0  0  0
 16  5  1  0  0  0  0
 16 17  2  0  0  0  0
 18 16  1  0  0  0  0
 19 18  1  0  0  0  0
 20 25  1  0  0  0  0
 20 21  1  0  0  0  0
 20 18  1  0  0  0  0
 21 27  1  0  0  0  0
 21 26  1  0  0  0  0
 22 28  1  0  0  0  0
 22 21  1  0  0  0  0
 23 24  1  0  0  0  0
 23 22  1  0  0  0  0
 24 20  1  0  0  0  0
 29 22  1  0  0  0  0
 30 23  1  0  0  0  0
 31 23  1  0  0  0  0
 32 24  1  0  0  0  0
 33 24  1  0  0  0  0
 34 37  1  0  0  0  0
 34 36  1  0  0  0  0
 34  1  1  0  0  0  0
 35 34  1  0  0  0  0
 37 38  1  0  0  0  0
 37 44  1  0  0  0  0
 38 39  1  0  0  0  0
 38 47  1  0  0  0  0
 39 48  1  0  0  0  0
 39 40  1  0  0  0  0
 40 41  1  0  0  0  0
 41 42  2  0  0  0  0
 41 54  1  0  0  0  0
 43 51  1  0  0  0  0
 43 40  1  0  0  0  0
 44 43  1  0  0  0  0
 44 53  1  0  0  0  0
 45 37  1  0  0  0  0
 46 38  1  0  0  0  0
 49 39  1  0  0  0  0
 50 43  1  0  0  0  0
 52 44  1  0  0  0  0
 54 63  1  0  0  0  0
 54 55  1  0  0  0  0
 55 58  1  0  0  0  0
 55 56  1  0  0  0  0
 55 57  1  0  0  0  0
 59 54  1  0  0  0  0
 59 61  1  0  0  0  0
 60 59  1  0  0  0  0
 62 59  1  0  0  0  0
 63 64  1  0  0  0  0
 63 66  1  0  0  0  0
 65 63  1  0  0  0  0
M  END
>  <MODEL>
14

>  <REMARK>
 VINA RESULT:    -5.827      1.954     11.114
 INTER + INTRA:          -9.055
 INTER:                  -8.835
 INTRA:                  -0.220
 UNBOUND:                -0.503
  Name = 
  10 active torsions:
  status: ('A' for Active; 'I' for Inactive)
    1  A    between atoms: C_1  and  C_2
    2  A    between atoms: C_4  and  C_5
    3  A    between atoms: N_7  and  C_8
    4  A    between atoms: C_15  and  N_16
    5  A    between atoms: N_16  and  C_17
    6  A    between atoms: C_17  and  C_18
    7  A    between atoms: C_22  and  C_24
    8  A    between atoms: C_24  and  C_25
    9  A    between atoms: C_24  and  C_26
   10  A    between atoms: C_24  and  C_27
                            x       y       z     vdW  Elec       q    Type
                         _______ _______ _______ _____ _____    ______ ____

>  <TORSDO>
F 10

$$$$
=
 OpenBabel07192307433D

 66 68  0  0  0  0  0  0  0  0999 V2000
    1.3960    9.6050   17.7630 N   0  0  0  0  0  0  0  0  0  0  0  0
    1.7950   10.1320   16.9930 H   0  0  0  0  0  0  0  0  0  0  0  0
   -0.8660   10.4090   18.1530 C   0  0  0  0  0  0  0  0  0  0  0  0
   -1.7860   11.1570   18.9150 C   0  0  0  0  0  0  0  0  0  0  0  0
   -1.3680   11.8710   20.0410 C   0  0  0  0  0  0  0  0  0  0  0  0
   -0.0300   11.8110   20.4260 C   0  0  0  0  0  0  0  0  0  0  0  0
    0.8890   11.0760   19.6680 C   0  0  0  0  0  0  0  0  0  0  0  0
    0.5060   10.3960   18.5030 C   0  0  0  0  0  0  0  0  0  0  0  0
   -2.8380   11.1400   18.6410 H   0  0  0  0  0  0  0  0  0  0  0  0
    0.3050   12.3330   21.3200 H   0  0  0  0  0  0  0  0  0  0  0  0
    1.9160   11.0540   20.0210 H   0  0  0  0  0  0  0  0  0  0  0  0
   -1.3830    9.6390   16.9660 C   0  0  0  0  0  0  0  0  0  0  0  0
   -2.4760    9.5740   16.9940 H   0  0  0  0  0  0  0  0  0  0  0  0
   -0.9560    8.6310   16.9570 H   0  0  0  0  0  0  0  0  0  0  0  0
   -1.1160   10.1240   16.0220 H   0  0  0  0  0  0  0  0  0  0  0  0
   -2.3150   12.6660   20.8720 C   0  0  0  0  0  0  0  0  0  0  0  0
   -3.4290   12.9450   20.4420 O   0  0  0  0  0  0  0  0  0  0  0  0
   -1.8740   13.0180   22.1330 N   0  0  0  0  0  0  0  0  0  0  0  0
   -1.0760   12.5260   22.5080 H   0  0  0  0  0  0  0  0  0  0  0  0
   -2.7600   13.6730   23.0710 C   0  0  0  0  0  0  0  0  0  0  0  0
   -2.0050   14.4760   24.1220 C   0  0  0  0  0  0  0  0  0  0  0  0
   -3.0400   14.6920   25.2180 C   0  0  0  0  0  0  0  0  0  0  0  0
   -3.9740   13.4830   25.1520 C   0  0  0  0  0  0  0  0  0  0  0  0
   -3.5620   12.6880   23.9160 C   0  0  0  0  0  0  0  0  0  0  0  0
   -3.4450   14.3290   22.5170 H   0  0  0  0  0  0  0  0  0  0  0  0
   -1.6160   15.4200   23.7270 H   0  0  0  0  0  0  0  0  0  0  0  0
   -1.1540   13.9080   24.5170 H   0  0  0  0  0  0  0  0  0  0  0  0
   -3.6090   15.6090   25.0250 H   0  0  0  0  0  0  0  0  0  0  0  0
   -2.5720   14.7960   26.2030 H   0  0  0  0  0  0  0  0  0  0  0  0
   -3.8970   12.8670   26.0530 H   0  0  0  0  0  0  0  0  0  0  0  0
   -5.0140   13.8160   25.0720 H   0  0  0  0  0  0  0  0  0  0  0  0
   -2.9390   11.8350   24.2160 H   0  0  0  0  0  0  0  0  0  0  0  0
   -4.4270   12.2850   23.3790 H   0  0  0  0  0  0  0  0  0  0  0  0
    2.3600    8.7360   18.4330 C   0  0  0  0  0  0  0  0  0  0  0  0
    3.2990    8.6990   17.8690 H   0  0  0  0  0  0  0  0  0  0  0  0
    2.5710    9.1330   19.4330 H   0  0  0  0  0  0  0  0  0  0  0  0
    1.7780    7.3200   18.5950 C   0  0  0  0  0  0  0  0  0  0  0  0
    2.5480    6.2740   17.7630 C   0  0  0  0  0  0  0  0  0  0  0  0
    2.0300    4.8610   18.0330 C   0  0  0  0  0  0  0  0  0  0  0  0
    2.0950    4.5660   19.4600 N   0  0  0  0  0  0  0  0  0  0  0  0
    2.9980    3.7430   20.1240 C   0  0  0  0  0  0  0  0  0  0  0  0
    3.0750    3.7990   21.3580 O   0  0  0  0  0  0  0  0  0  0  0  0
    1.2830    5.4810   20.2640 C   0  0  0  0  0  0  0  0  0  0  0  0
    1.7770    6.9150   20.0820 C   0  0  0  0  0  0  0  0  0  0  0  0
    0.7350    7.3280   18.2480 H   0  0  0  0  0  0  0  0  0  0  0  0
    2.4520    6.4860   16.6920 H   0  0  0  0  0  0  0  0  0  0  0  0
    3.6160    6.3240   18.0090 H   0  0  0  0  0  0  0  0  0  0  0  0
    2.5810    4.1500   17.4290 H   0  0  0  0  0  0  0  0  0  0  0  0
    0.9790    4.7800   17.7270 H   0  0  0  0  0  0  0  0  0  0  0  0
    0.2430    5.3900   19.9240 H   0  0  0  0  0  0  0  0  0  0  0  0
    1.2930    5.2160   21.3250 H   0  0  0  0  0  0  0  0  0  0  0  0
    1.1370    7.5950   20.6560 H   0  0  0  0  0  0  0  0  0  0  0  0
    2.7930    7.0040   20.4900 H   0  0  0  0  0  0  0  0  0  0  0  0
    3.9100    2.7410   19.3630 C   0  0  0  0  0  0  0  0  0  0  0  0
    3.0890    1.7590   18.5160 C   0  0  0  0  0  0  0  0  0  0  0  0
    3.5370    1.5380   17.5450 H   0  0  0  0  0  0  0  0  0  0  0  0
    2.9690    0.7990   19.0320 H   0  0  0  0  0  0  0  0  0  0  0  0
    2.0890    2.1590   18.3180 H   0  0  0  0  0  0  0  0  0  0  0  0
    4.9970    3.4550   18.5450 C   0  0  0  0  0  0  0  0  0  0  0  0
    5.9810    3.4360   19.0150 H   0  0  0  0  0  0  0  0  0  0  0  0
    4.7520    4.5150   18.4040 H   0  0  0  0  0  0  0  0  0  0  0  0
    5.1000    3.0030   17.5530 H   0  0  0  0  0  0  0  0  0  0  0  0
    4.6570    1.8840   20.4210 C   0  0  0  0  0  0  0  0  0  0  0  0
    4.8170    2.4450   21.3490 H   0  0  0  0  0  0  0  0  0  0  0  0
    4.0910    0.9810   20.6780 H   0  0  0  0  0  0  0  0  0  0  0  0
    5.6390    1.5640   20.0550 H   0  0  0  0  0  0  0  0  0  0  0  0
  1 34  1  0  0  0  0
  1  8  1  0  0  0  0
  2  1  1  0  0  0  0
  3  8  2  0  0  0  0
  3  4  1  0  0  0  0
  4  5  2  0  0  0  0
  5  6  1  0  0  0  0
  5 16  1  0  0  0  0
  6 10  1  0  0  0  0
  7 11  1  0  0  0  0
  7  6  2  0  0  0  0
  8  7  1  0  0  0  0
  9  4  1  0  0  0  0
 12 13  1  0  0  0  0
 12  3  1  0  0  0  0
 14 12  1  0  0  0  0
 15 12  1  0  0  0  0
 16 18  1  0  0  0  0
 17 16  2  0  0  0  0
 18 19  1  0  0  0  0
 18 20  1  0  0  0  0
 20 24  1  0  0  0  0
 20 21  1  0  0  0  0
 21 27  1  0  0  0  0
 21 22  1  0  0  0  0
 22 29  1  0  0  0  0
 23 22  1  0  0  0  0
 23 30  1  0  0  0  0
 24 32  1  0  0  0  0
 24 23  1  0  0  0  0
 25 20  1  0  0  0  0
 26 21  1  0  0  0  0
 28 22  1  0  0  0  0
 31 23  1  0  0  0  0
 33 24  1  0  0  0  0
 34 37  1  0  0  0  0
 34 36  1  0  0  0  0
 35 34  1  0  0  0  0
 37 44  1  0  0  0  0
 38 47  1  0  0  0  0
 38 39  1  0  0  0  0
 38 37  1  0  0  0  0
 39 40  1  0  0  0  0
 40 41  1  0  0  0  0
 40 43  1  0  0  0  0
 41 42  2  0  0  0  0
 43 51  1  0  0  0  0
 44 43  1  0  0  0  0
 44 53  1  0  0  0  0
 44 52  1  0  0  0  0
 45 37  1  0  0  0  0
 46 38  1  0  0  0  0
 48 39  1  0  0  0  0
 49 39  1  0  0  0  0
 50 43  1  0  0  0  0
 54 41  1  0  0  0  0
 54 63  1  0  0  0  0
 55 57  1  0  0  0  0
 55 54  1  0  0  0  0
 56 55  1  0  0  0  0
 58 55  1  0  0  0  0
 59 60  1  0  0  0  0
 59 54  1  0  0  0  0
 61 59  1  0  0  0  0
 62 59  1  0  0  0  0
 63 65  1  0  0  0  0
 63 64  1  0  0  0  0
 66 63  1  0  0  0  0
M  END
>  <MODEL>
15

>  <REMARK>
 VINA RESULT:    -5.760      2.235      3.250
 INTER + INTRA:          -8.956
 INTER:                  -8.287
 INTRA:                  -0.669
 UNBOUND:                -0.503
  Name = 
  10 active torsions:
  status: ('A' for Active; 'I' for Inactive)
    1  A    between atoms: C_1  and  C_2
    2  A    between atoms: C_4  and  C_5
    3  A    between atoms: N_7  and  C_8
    4  A    between atoms: C_15  and  N_16
    5  A    between atoms: N_16  and  C_17
    6  A    between atoms: C_17  and  C_18
    7  A    between atoms: C_22  and  C_24
    8  A    between atoms: C_24  and  C_25
    9  A    between atoms: C_24  and  C_26
   10  A    between atoms: C_24  and  C_27
                            x       y       z     vdW  Elec       q    Type
                         _______ _______ _______ _____ _____    ______ ____

>  <TORSDO>
F 10

$$$$
=
 OpenBabel07192307433D

 66 68  0  0  0  0  0  0  0  0999 V2000
    0.7100   11.2770   20.0110 N   0  0  0  0  0  0  0  0  0  0  0  0
    1.1270   11.5690   20.8890 H   0  0  0  0  0  0  0  0  0  0  0  0
    1.3970    8.9690   20.3540 C   0  0  0  0  0  0  0  0  0  0  0  0
    1.9660    7.7760   19.8680 C   0  0  0  0  0  0  0  0  0  0  0  0
    2.4410    7.6910   18.5570 C   0  0  0  0  0  0  0  0  0  0  0  0
    2.3170    8.7970   17.7170 C   0  0  0  0  0  0  0  0  0  0  0  0
    1.7590    9.9870   18.1970 C   0  0  0  0  0  0  0  0  0  0  0  0
    1.3260   10.1150   19.5260 C   0  0  0  0  0  0  0  0  0  0  0  0
    1.9950    6.9010   20.5140 H   0  0  0  0  0  0  0  0  0  0  0  0
    2.6490    8.7380   16.6830 H   0  0  0  0  0  0  0  0  0  0  0  0
    1.6760   10.8130   17.4960 H   0  0  0  0  0  0  0  0  0  0  0  0
    0.8780    8.9880   21.7690 C   0  0  0  0  0  0  0  0  0  0  0  0
    1.6130    9.4410   22.4430 H   0  0  0  0  0  0  0  0  0  0  0  0
    0.6550    7.9690   22.1000 H   0  0  0  0  0  0  0  0  0  0  0  0
   -0.0400    9.5770   21.8550 H   0  0  0  0  0  0  0  0  0  0  0  0
    3.0420    6.4430   18.0100 C   0  0  0  0  0  0  0  0  0  0  0  0
    2.4360    5.3800   18.0890 O   0  0  0  0  0  0  0  0  0  0  0  0
    4.2720    6.5760   17.3940 N   0  0  0  0  0  0  0  0  0  0  0  0
    4.5690    7.5050   17.1290 H   0  0  0  0  0  0  0  0  0  0  0  0
    4.8830    5.4560   16.7120 C   0  0  0  0  0  0  0  0  0  0  0  0
    6.1940    5.0260   17.3570 C   0  0  0  0  0  0  0  0  0  0  0  0
    6.8650    4.1870   16.2770 C   0  0  0  0  0  0  0  0  0  0  0  0
    6.3750    4.7550   14.9440 C   0  0  0  0  0  0  0  0  0  0  0  0
    5.3070    5.7910   15.2850 C   0  0  0  0  0  0  0  0  0  0  0  0
    4.1760    4.6160   16.7010 H   0  0  0  0  0  0  0  0  0  0  0  0
    6.0400    4.4640   18.2820 H   0  0  0  0  0  0  0  0  0  0  0  0
    6.8190    5.8950   17.5970 H   0  0  0  0  0  0  0  0  0  0  0  0
    6.5550    3.1390   16.3670 H   0  0  0  0  0  0  0  0  0  0  0  0
    7.9560    4.2160   16.3600 H   0  0  0  0  0  0  0  0  0  0  0  0
    7.1930    5.2120   14.3780 H   0  0  0  0  0  0  0  0  0  0  0  0
    5.9580    3.9540   14.3250 H   0  0  0  0  0  0  0  0  0  0  0  0
    5.7400    6.7980   15.2330 H   0  0  0  0  0  0  0  0  0  0  0  0
    4.4680    5.7620   14.5820 H   0  0  0  0  0  0  0  0  0  0  0  0
    0.4020   12.3900   19.1160 C   0  0  0  0  0  0  0  0  0  0  0  0
    0.7290   12.1620   18.0950 H   0  0  0  0  0  0  0  0  0  0  0  0
   -0.6820   12.5550   19.1040 H   0  0  0  0  0  0  0  0  0  0  0  0
    1.0760   13.6800   19.6180 C   0  0  0  0  0  0  0  0  0  0  0  0
    1.5370   13.5640   21.0860 C   0  0  0  0  0  0  0  0  0  0  0  0
    2.3090   14.8100   21.5230 C   0  0  0  0  0  0  0  0  0  0  0  0
    3.4330   15.0450   20.6230 N   0  0  0  0  0  0  0  0  0  0  0  0
    4.7840   14.8250   20.8650 C   0  0  0  0  0  0  0  0  0  0  0  0
    5.5800   14.8360   19.9170 O   0  0  0  0  0  0  0  0  0  0  0  0
    3.0120   15.2670   19.2390 C   0  0  0  0  0  0  0  0  0  0  0  0
    2.2730   14.0370   18.7150 C   0  0  0  0  0  0  0  0  0  0  0  0
    0.3490   14.5020   19.5550 H   0  0  0  0  0  0  0  0  0  0  0  0
    0.6770   13.4310   21.7520 H   0  0  0  0  0  0  0  0  0  0  0  0
    2.1760   12.6800   21.2010 H   0  0  0  0  0  0  0  0  0  0  0  0
    2.6110   14.7050   22.5580 H   0  0  0  0  0  0  0  0  0  0  0  0
    1.6590   15.6920   21.4770 H   0  0  0  0  0  0  0  0  0  0  0  0
    2.3510   16.1430   19.2270 H   0  0  0  0  0  0  0  0  0  0  0  0
    3.8570   15.5000   18.5840 H   0  0  0  0  0  0  0  0  0  0  0  0
    1.9270   14.2290   17.6920 H   0  0  0  0  0  0  0  0  0  0  0  0
    2.9670   13.1870   18.6690 H   0  0  0  0  0  0  0  0  0  0  0  0
    5.3330   14.5740   22.2980 C   0  0  0  0  0  0  0  0  0  0  0  0
    4.4610   15.2520   23.3640 C   0  0  0  0  0  0  0  0  0  0  0  0
    4.9800   16.0350   23.9190 H   0  0  0  0  0  0  0  0  0  0  0  0
    3.5790   15.7190   22.9120 H   0  0  0  0  0  0  0  0  0  0  0  0
    4.1120   14.5210   24.1020 H   0  0  0  0  0  0  0  0  0  0  0  0
    5.5500   13.0800   22.5800 C   0  0  0  0  0  0  0  0  0  0  0  0
    5.3090   12.7890   23.6030 H   0  0  0  0  0  0  0  0  0  0  0  0
    6.5980   12.7970   22.4250 H   0  0  0  0  0  0  0  0  0  0  0  0
    4.9370   12.4630   21.9120 H   0  0  0  0  0  0  0  0  0  0  0  0
    6.7330   15.2410   22.3910 C   0  0  0  0  0  0  0  0  0  0  0  0
    7.3520   14.9930   21.5210 H   0  0  0  0  0  0  0  0  0  0  0  0
    6.6540   16.3330   22.4370 H   0  0  0  0  0  0  0  0  0  0  0  0
    7.2730   14.9110   23.2860 H   0  0  0  0  0  0  0  0  0  0  0  0
  1  2  1  0  0  0  0
  3 12  1  0  0  0  0
  4  3  1  0  0  0  0
  4  9  1  0  0  0  0
  5  4  2  0  0  0  0
  6  7  2  0  0  0  0
  6  5  1  0  0  0  0
  7  8  1  0  0  0  0
  8  1  1  0  0  0  0
  8  3  2  0  0  0  0
 10  6  1  0  0  0  0
 11  7  1  0  0  0  0
 12 15  1  0  0  0  0
 12 14  1  0  0  0  0
 12 13  1  0  0  0  0
 16 17  2  0  0  0  0
 16  5  1  0  0  0  0
 18 16  1  0  0  0  0
 19 18  1  0  0  0  0
 20 21  1  0  0  0  0
 20 18  1  0  0  0  0
 21 27  1  0  0  0  0
 21 26  1  0  0  0  0
 22 29  1  0  0  0  0
 22 28  1  0  0  0  0
 22 21  1  0  0  0  0
 23 24  1  0  0  0  0
 23 22  1  0  0  0  0
 24 20  1  0  0  0  0
 25 20  1  0  0  0  0
 30 23  1  0  0  0  0
 31 23  1  0  0  0  0
 32 24  1  0  0  0  0
 33 24  1  0  0  0  0
 34 37  1  0  0  0  0
 34  1  1  0  0  0  0
 35 34  1  0  0  0  0
 36 34  1  0  0  0  0
 37 38  1  0  0  0  0
 38 47  1  0  0  0  0
 38 39  1  0  0  0  0
 38 46  1  0  0  0  0
 39 48  1  0  0  0  0
 40 41  1  0  0  0  0
 40 39  1  0  0  0  0
 41 54  1  0  0  0  0
 42 41  2  0  0  0  0
 43 40  1  0  0  0  0
 44 43  1  0  0  0  0
 44 37  1  0  0  0  0
 45 37  1  0  0  0  0
 49 39  1  0  0  0  0
 50 43  1  0  0  0  0
 51 43  1  0  0  0  0
 52 44  1  0  0  0  0
 53 44  1  0  0  0  0
 54 63  1  0  0  0  0
 54 59  1  0  0  0  0
 54 55  1  0  0  0  0
 55 56  1  0  0  0  0
 55 58  1  0  0  0  0
 57 55  1  0  0  0  0
 59 60  1  0  0  0  0
 61 59  1  0  0  0  0
 62 59  1  0  0  0  0
 63 65  1  0  0  0  0
 63 66  1  0  0  0  0
 64 63  1  0  0  0  0
M  END
>  <MODEL>
16

>  <REMARK>
 VINA RESULT:    -5.754      4.089     10.015
 INTER + INTRA:          -8.948
 INTER:                  -8.502
 INTRA:                  -0.446
 UNBOUND:                -0.503
  Name = 
  10 active torsions:
  status: ('A' for Active; 'I' for Inactive)
    1  A    between atoms: C_1  and  C_2
    2  A    between atoms: C_4  and  C_5
    3  A    between atoms: N_7  and  C_8
    4  A    between atoms: C_15  and  N_16
    5  A    between atoms: N_16  and  C_17
    6  A    between atoms: C_17  and  C_18
    7  A    between atoms: C_22  and  C_24
    8  A    between atoms: C_24  and  C_25
    9  A    between atoms: C_24  and  C_26
   10  A    between atoms: C_24  and  C_27
                            x       y       z     vdW  Elec       q    Type
                         _______ _______ _______ _____ _____    ______ ____

>  <TORSDO>
F 10

$$$$
=
 OpenBabel07192307433D

 66 68  0  0  0  0  0  0  0  0999 V2000
    1.9970    7.5790   20.0770 N   0  0  0  0  0  0  0  0  0  0  0  0
    2.9450    7.7180   20.4140 H   0  0  0  0  0  0  0  0  0  0  0  0
    1.2160    9.4450   21.4260 C   0  0  0  0  0  0  0  0  0  0  0  0
    0.5110   10.6600   21.5460 C   0  0  0  0  0  0  0  0  0  0  0  0
   -0.1400   11.2210   20.4450 C   0  0  0  0  0  0  0  0  0  0  0  0
   -0.0580   10.5810   19.2100 C   0  0  0  0  0  0  0  0  0  0  0  0
    0.6340    9.3710   19.0860 C   0  0  0  0  0  0  0  0  0  0  0  0
    1.2480    8.7590   20.1890 C   0  0  0  0  0  0  0  0  0  0  0  0
    0.5130   11.1810   22.5000 H   0  0  0  0  0  0  0  0  0  0  0  0
   -0.5300   11.0220   18.3340 H   0  0  0  0  0  0  0  0  0  0  0  0
    0.6750    8.9230   18.0980 H   0  0  0  0  0  0  0  0  0  0  0  0
    1.9200    8.9060   22.6450 C   0  0  0  0  0  0  0  0  0  0  0  0
    1.9030    7.8110   22.6460 H   0  0  0  0  0  0  0  0  0  0  0  0
    1.4390    9.2820   23.5530 H   0  0  0  0  0  0  0  0  0  0  0  0
    2.9710    9.2100   22.6710 H   0  0  0  0  0  0  0  0  0  0  0  0
   -0.8870   12.5060   20.5360 C   0  0  0  0  0  0  0  0  0  0  0  0
   -0.5210   13.4810   19.8890 O   0  0  0  0  0  0  0  0  0  0  0  0
   -2.0070   12.5050   21.3460 N   0  0  0  0  0  0  0  0  0  0  0  0
   -2.3920   11.6120   21.6190 H   0  0  0  0  0  0  0  0  0  0  0  0
   -2.8810   13.6570   21.4030 C   0  0  0  0  0  0  0  0  0  0  0  0
   -2.8810   14.3210   22.7740 C   0  0  0  0  0  0  0  0  0  0  0  0
   -4.1390   15.1790   22.7550 C   0  0  0  0  0  0  0  0  0  0  0  0
   -5.1210   14.4570   21.8310 C   0  0  0  0  0  0  0  0  0  0  0  0
   -4.3500   13.2970   21.2070 C   0  0  0  0  0  0  0  0  0  0  0  0
   -2.5700   14.3790   20.6360 H   0  0  0  0  0  0  0  0  0  0  0  0
   -1.9780   14.9140   22.9510 H   0  0  0  0  0  0  0  0  0  0  0  0
   -2.9490   13.5750   23.5740 H   0  0  0  0  0  0  0  0  0  0  0  0
   -3.9130   16.1720   22.3480 H   0  0  0  0  0  0  0  0  0  0  0  0
   -4.5490   15.3200   23.7600 H   0  0  0  0  0  0  0  0  0  0  0  0
   -5.9940   14.0920   22.3800 H   0  0  0  0  0  0  0  0  0  0  0  0
   -5.4840   15.1440   21.0580 H   0  0  0  0  0  0  0  0  0  0  0  0
   -4.5960   12.3650   21.7320 H   0  0  0  0  0  0  0  0  0  0  0  0
   -4.6070   13.1520   20.1520 H   0  0  0  0  0  0  0  0  0  0  0  0
    1.4270    6.2910   20.4620 C   0  0  0  0  0  0  0  0  0  0  0  0
    1.5860    6.1070   21.5310 H   0  0  0  0  0  0  0  0  0  0  0  0
    0.3480    6.3000   20.2680 H   0  0  0  0  0  0  0  0  0  0  0  0
    2.0530    5.1590   19.6270 C   0  0  0  0  0  0  0  0  0  0  0  0
    2.2600    5.5680   18.1540 C   0  0  0  0  0  0  0  0  0  0  0  0
    2.9920    4.4740   17.3740 C   0  0  0  0  0  0  0  0  0  0  0  0
    4.2570    4.1530   18.0260 N   0  0  0  0  0  0  0  0  0  0  0  0
    5.5410    4.5000   17.6230 C   0  0  0  0  0  0  0  0  0  0  0  0
    6.4820    4.3680   18.4160 O   0  0  0  0  0  0  0  0  0  0  0  0
    4.0780    3.6580   19.3930 C   0  0  0  0  0  0  0  0  0  0  0  0
    3.3940    4.7220   20.2490 C   0  0  0  0  0  0  0  0  0  0  0  0
    1.3750    4.2940   19.6460 H   0  0  0  0  0  0  0  0  0  0  0  0
    1.2980    5.7630   17.6680 H   0  0  0  0  0  0  0  0  0  0  0  0
    2.8410    6.4980   18.1100 H   0  0  0  0  0  0  0  0  0  0  0  0
    3.1150    4.7840   16.3440 H   0  0  0  0  0  0  0  0  0  0  0  0
    2.3880    3.5580   17.3540 H   0  0  0  0  0  0  0  0  0  0  0  0
    3.4590    2.7530   19.3410 H   0  0  0  0  0  0  0  0  0  0  0  0
    5.0270    3.3650   19.8520 H   0  0  0  0  0  0  0  0  0  0  0  0
    3.2290    4.3260   21.2570 H   0  0  0  0  0  0  0  0  0  0  0  0
    4.0570    5.5930   20.3460 H   0  0  0  0  0  0  0  0  0  0  0  0
    5.8360    5.0410   16.1960 C   0  0  0  0  0  0  0  0  0  0  0  0
    5.6950    3.9410   15.1340 C   0  0  0  0  0  0  0  0  0  0  0  0
    5.4950    2.9530   15.5520 H   0  0  0  0  0  0  0  0  0  0  0  0
    4.8710    4.1640   14.4450 H   0  0  0  0  0  0  0  0  0  0  0  0
    6.6120    3.8540   14.5420 H   0  0  0  0  0  0  0  0  0  0  0  0
    5.0010    6.2870   15.8660 C   0  0  0  0  0  0  0  0  0  0  0  0
    4.2790    6.1290   15.0640 H   0  0  0  0  0  0  0  0  0  0  0  0
    5.6400    7.1140   15.5360 H   0  0  0  0  0  0  0  0  0  0  0  0
    4.4430    6.6270   16.7450 H   0  0  0  0  0  0  0  0  0  0  0  0
    7.3220    5.4920   16.1590 C   0  0  0  0  0  0  0  0  0  0  0  0
    7.8200    5.1540   15.2430 H   0  0  0  0  0  0  0  0  0  0  0  0
    7.4110    6.5840   16.1960 H   0  0  0  0  0  0  0  0  0  0  0  0
    7.8830    5.0860   17.0090 H   0  0  0  0  0  0  0  0  0  0  0  0
  1  8  1  0  0  0  0
  1  2  1  0  0  0  0
  1 34  1  0  0  0  0
  3  4  1  0  0  0  0
  3 12  1  0  0  0  0
  4  9  1  0  0  0  0
  5 16  1  0  0  0  0
  5  4  2  0  0  0  0
  6  5  1  0  0  0  0
  7  6  2  0  0  0  0
  7  8  1  0  0  0  0
  8  3  2  0  0  0  0
 10  6  1  0  0  0  0
 11  7  1  0  0  0  0
 12 13  1  0  0  0  0
 12 15  1  0  0  0  0
 12 14  1  0  0  0  0
 16 18  1  0  0  0  0
 17 16  2  0  0  0  0
 18 20  1  0  0  0  0
 18 19  1  0  0  0  0
 20 21  1  0  0  0  0
 21 26  1  0  0  0  0
 21 27  1  0  0  0  0
 22 21  1  0  0  0  0
 22 29  1  0  0  0  0
 23 30  1  0  0  0  0
 23 22  1  0  0  0  0
 24 20  1  0  0  0  0
 24 32  1  0  0  0  0
 24 23  1  0  0  0  0
 25 20  1  0  0  0  0
 28 22  1  0  0  0  0
 31 23  1  0  0  0  0
 33 24  1  0  0  0  0
 34 35  1  0  0  0  0
 36 34  1  0  0  0  0
 37 45  1  0  0  0  0
 37 44  1  0  0  0  0
 37 34  1  0  0  0  0
 38 37  1  0  0  0  0
 39 40  1  0  0  0  0
 39 38  1  0  0  0  0
 40 43  1  0  0  0  0
 41 40  1  0  0  0  0
 41 42  2  0  0  0  0
 43 51  1  0  0  0  0
 43 44  1  0  0  0  0
 44 53  1  0  0  0  0
 44 52  1  0  0  0  0
 46 38  1  0  0  0  0
 47 38  1  0  0  0  0
 48 39  1  0  0  0  0
 49 39  1  0  0  0  0
 50 43  1  0  0  0  0
 54 41  1  0  0  0  0
 55 56  1  0  0  0  0
 55 54  1  0  0  0  0
 57 55  1  0  0  0  0
 58 55  1  0  0  0  0
 59 54  1  0  0  0  0
 59 62  1  0  0  0  0
 60 59  1  0  0  0  0
 61 59  1  0  0  0  0
 63 65  1  0  0  0  0
 63 54  1  0  0  0  0
 63 66  1  0  0  0  0
 64 63  1  0  0  0  0
M  END
>  <MODEL>
17

>  <REMARK>
 VINA RESULT:    -5.593      1.261      1.746
 INTER + INTRA:          -8.711
 INTER:                  -8.358
 INTRA:                  -0.353
 UNBOUND:                -0.503
  Name = 
  10 active torsions:
  status: ('A' for Active; 'I' for Inactive)
    1  A    between atoms: C_1  and  C_2
    2  A    between atoms: C_4  and  C_5
    3  A    between atoms: N_7  and  C_8
    4  A    between atoms: C_15  and  N_16
    5  A    between atoms: N_16  and  C_17
    6  A    between atoms: C_17  and  C_18
    7  A    between atoms: C_22  and  C_24
    8  A    between atoms: C_24  and  C_25
    9  A    between atoms: C_24  and  C_26
   10  A    between atoms: C_24  and  C_27
                            x       y       z     vdW  Elec       q    Type
                         _______ _______ _______ _____ _____    ______ ____

>  <TORSDO>
F 10

$$$$
=
 OpenBabel07192307433D

 66 68  0  0  0  0  0  0  0  0999 V2000
    9.8050   13.2450   19.0630 N   0  0  0  0  0  0  0  0  0  0  0  0
    9.5790   13.8460   18.2760 H   0  0  0  0  0  0  0  0  0  0  0  0
    8.3550   11.7180   17.8470 C   0  0  0  0  0  0  0  0  0  0  0  0
    7.8930   10.4120   17.5890 C   0  0  0  0  0  0  0  0  0  0  0  0
    8.3990    9.3200   18.2990 C   0  0  0  0  0  0  0  0  0  0  0  0
    9.3960    9.5320   19.2500 C   0  0  0  0  0  0  0  0  0  0  0  0
    9.8530   10.8280   19.5150 C   0  0  0  0  0  0  0  0  0  0  0  0
    9.3210   11.9460   18.8560 C   0  0  0  0  0  0  0  0  0  0  0  0
    7.1640   10.2540   16.7980 H   0  0  0  0  0  0  0  0  0  0  0  0
    9.8260    8.6900   19.7870 H   0  0  0  0  0  0  0  0  0  0  0  0
   10.6390   10.9330   20.2580 H   0  0  0  0  0  0  0  0  0  0  0  0
    7.7890   12.8490   17.0280 C   0  0  0  0  0  0  0  0  0  0  0  0
    6.7050   12.7380   16.9130 H   0  0  0  0  0  0  0  0  0  0  0  0
    8.2630   12.8720   16.0430 H   0  0  0  0  0  0  0  0  0  0  0  0
    7.9610   13.8190   17.5060 H   0  0  0  0  0  0  0  0  0  0  0  0
    7.9380    7.9270   18.0460 C   0  0  0  0  0  0  0  0  0  0  0  0
    8.3520    7.0040   18.7390 O   0  0  0  0  0  0  0  0  0  0  0  0
    7.0130    7.7640   17.0330 N   0  0  0  0  0  0  0  0  0  0  0  0
    6.5250    8.5850   16.7030 H   0  0  0  0  0  0  0  0  0  0  0  0
    6.3980    6.4770   16.7900 C   0  0  0  0  0  0  0  0  0  0  0  0
    7.3880    5.4490   16.2590 C   0  0  0  0  0  0  0  0  0  0  0  0
    6.4960    4.3650   15.6680 C   0  0  0  0  0  0  0  0  0  0  0  0
    5.2260    5.0800   15.2040 C   0  0  0  0  0  0  0  0  0  0  0  0
    5.3410    6.5220   15.6910 C   0  0  0  0  0  0  0  0  0  0  0  0
    5.9460    6.1160   17.7240 H   0  0  0  0  0  0  0  0  0  0  0  0
    8.0480    5.0610   17.0410 H   0  0  0  0  0  0  0  0  0  0  0  0
    8.0220    5.8810   15.4750 H   0  0  0  0  0  0  0  0  0  0  0  0
    6.2430    3.6250   16.4360 H   0  0  0  0  0  0  0  0  0  0  0  0
    6.9910    3.8340   14.8490 H   0  0  0  0  0  0  0  0  0  0  0  0
    5.1200    5.0450   14.1160 H   0  0  0  0  0  0  0  0  0  0  0  0
    4.3430    4.5930   15.6340 H   0  0  0  0  0  0  0  0  0  0  0  0
    5.6670    7.1650   14.8630 H   0  0  0  0  0  0  0  0  0  0  0  0
    4.3830    6.9140   16.0480 H   0  0  0  0  0  0  0  0  0  0  0  0
    9.6520   13.9040   20.3580 C   0  0  0  0  0  0  0  0  0  0  0  0
   10.4670   13.6140   21.0320 H   0  0  0  0  0  0  0  0  0  0  0  0
    9.6880   14.9910   20.2180 H   0  0  0  0  0  0  0  0  0  0  0  0
    8.2900   13.5470   20.9810 C   0  0  0  0  0  0  0  0  0  0  0  0
    8.4230   12.5170   22.1210 C   0  0  0  0  0  0  0  0  0  0  0  0
    7.0760   12.2700   22.8020 C   0  0  0  0  0  0  0  0  0  0  0  0
    6.5150   13.5300   23.2780 N   0  0  0  0  0  0  0  0  0  0  0  0
    6.4420   13.9950   24.5860 C   0  0  0  0  0  0  0  0  0  0  0  0
    6.1690   15.1840   24.7930 O   0  0  0  0  0  0  0  0  0  0  0  0
    6.2780   14.4870   22.1960 C   0  0  0  0  0  0  0  0  0  0  0  0
    7.5950   14.8220   21.4970 C   0  0  0  0  0  0  0  0  0  0  0  0
    7.6520   13.1080   20.2000 H   0  0  0  0  0  0  0  0  0  0  0  0
    8.8040   11.5640   21.7390 H   0  0  0  0  0  0  0  0  0  0  0  0
    9.1450   12.8810   22.8620 H   0  0  0  0  0  0  0  0  0  0  0  0
    7.1970   11.5370   23.5910 H   0  0  0  0  0  0  0  0  0  0  0  0
    6.3640   11.8410   22.0860 H   0  0  0  0  0  0  0  0  0  0  0  0
    5.5780   14.0240   21.4890 H   0  0  0  0  0  0  0  0  0  0  0  0
    5.8040   15.4050   22.5560 H   0  0  0  0  0  0  0  0  0  0  0  0
    7.4000   15.5070   20.6640 H   0  0  0  0  0  0  0  0  0  0  0  0
    8.2570   15.3450   22.2000 H   0  0  0  0  0  0  0  0  0  0  0  0
    6.6830   13.0610   25.8060 C   0  0  0  0  0  0  0  0  0  0  0  0
    6.7070   11.5830   25.3900 C   0  0  0  0  0  0  0  0  0  0  0  0
    5.9390   10.9800   25.8780 H   0  0  0  0  0  0  0  0  0  0  0  0
    6.5530   11.4760   24.3100 H   0  0  0  0  0  0  0  0  0  0  0  0
    7.6710   11.1270   25.6380 H   0  0  0  0  0  0  0  0  0  0  0  0
    7.9290   13.4660   26.6060 C   0  0  0  0  0  0  0  0  0  0  0  0
    7.7830   13.4380   27.6870 H   0  0  0  0  0  0  0  0  0  0  0  0
    8.2330   14.4940   26.3710 H   0  0  0  0  0  0  0  0  0  0  0  0
    8.7740   12.8090   26.3730 H   0  0  0  0  0  0  0  0  0  0  0  0
    5.4760   13.2220   26.7700 C   0  0  0  0  0  0  0  0  0  0  0  0
    4.6130   12.6360   26.4320 H   0  0  0  0  0  0  0  0  0  0  0  0
    5.7240   12.8850   27.7830 H   0  0  0  0  0  0  0  0  0  0  0  0
    5.1580   14.2690   26.8400 H   0  0  0  0  0  0  0  0  0  0  0  0
  1 34  1  0  0  0  0
  2  1  1  0  0  0  0
  3  8  1  0  0  0  0
  4  3  2  0  0  0  0
  4  5  1  0  0  0  0
  5  6  2  0  0  0  0
  6  7  1  0  0  0  0
  6 10  1  0  0  0  0
  7 11  1  0  0  0  0
  8  1  1  0  0  0  0
  8  7  2  0  0  0  0
  9  4  1  0  0  0  0
 12 15  1  0  0  0  0
 12  3  1  0  0  0  0
 13 12  1  0  0  0  0
 14 12  1  0  0  0  0
 16  5  1  0  0  0  0
 16 17  2  0  0  0  0
 18 16  1  0  0  0  0
 19 18  1  0  0  0  0
 20 18  1  0  0  0  0
 20 25  1  0  0  0  0
 21 20  1  0  0  0  0
 21 26  1  0  0  0  0
 22 21  1  0  0  0  0
 22 28  1  0  0  0  0
 23 31  1  0  0  0  0
 23 22  1  0  0  0  0
 23 24  1  0  0  0  0
 24 33  1  0  0  0  0
 24 20  1  0  0  0  0
 27 21  1  0  0  0  0
 29 22  1  0  0  0  0
 30 23  1  0  0  0  0
 32 24  1  0  0  0  0
 34 37  1  0  0  0  0
 34 35  1  0  0  0  0
 36 34  1  0  0  0  0
 37 44  1  0  0  0  0
 37 38  1  0  0  0  0
 38 39  1  0  0  0  0
 38 47  1  0  0  0  0
 39 40  1  0  0  0  0
 39 48  1  0  0  0  0
 40 41  1  0  0  0  0
 41 42  2  0  0  0  0
 41 54  1  0  0  0  0
 43 51  1  0  0  0  0
 43 40  1  0  0  0  0
 44 43  1  0  0  0  0
 44 53  1  0  0  0  0
 45 37  1  0  0  0  0
 46 38  1  0  0  0  0
 49 39  1  0  0  0  0
 50 43  1  0  0  0  0
 52 44  1  0  0  0  0
 54 59  1  0  0  0  0
 54 63  1  0  0  0  0
 55 58  1  0  0  0  0
 55 54  1  0  0  0  0
 55 56  1  0  0  0  0
 57 55  1  0  0  0  0
 59 60  1  0  0  0  0
 61 59  1  0  0  0  0
 62 59  1  0  0  0  0
 63 66  1  0  0  0  0
 63 65  1  0  0  0  0
 64 63  1  0  0  0  0
M  END
>  <MODEL>
18

>  <REMARK>
 VINA RESULT:    -5.403      6.912     11.557
 INTER + INTRA:          -8.433
 INTER:                  -8.685
 INTRA:                   0.252
 UNBOUND:                -0.503
  Name = 
  10 active torsions:
  status: ('A' for Active; 'I' for Inactive)
    1  A    between atoms: C_1  and  C_2
    2  A    between atoms: C_4  and  C_5
    3  A    between atoms: N_7  and  C_8
    4  A    between atoms: C_15  and  N_16
    5  A    between atoms: N_16  and  C_17
    6  A    between atoms: C_17  and  C_18
    7  A    between atoms: C_22  and  C_24
    8  A    between atoms: C_24  and  C_25
    9  A    between atoms: C_24  and  C_26
   10  A    between atoms: C_24  and  C_27
                            x       y       z     vdW  Elec       q    Type
                         _______ _______ _______ _____ _____    ______ ____

>  <TORSDO>
F 10

$$$$
=
 OpenBabel07192307433D

 66 68  0  0  0  0  0  0  0  0999 V2000
    2.0340    8.6250   19.1880 N   0  0  0  0  0  0  0  0  0  0  0  0
    2.0880    7.8680   19.8610 H   0  0  0  0  0  0  0  0  0  0  0  0
    0.5720    9.6630   20.8320 C   0  0  0  0  0  0  0  0  0  0  0  0
   -0.4660   10.5590   21.1550 C   0  0  0  0  0  0  0  0  0  0  0  0
   -1.1030   11.3050   20.1600 C   0  0  0  0  0  0  0  0  0  0  0  0
   -0.6770   11.1780   18.8390 C   0  0  0  0  0  0  0  0  0  0  0  0
    0.3480   10.2840   18.5120 C   0  0  0  0  0  0  0  0  0  0  0  0
    0.9650    9.4830   19.4840 C   0  0  0  0  0  0  0  0  0  0  0  0
   -0.7410   10.6970   22.1980 H   0  0  0  0  0  0  0  0  0  0  0  0
   -1.1380   11.7770   18.0570 H   0  0  0  0  0  0  0  0  0  0  0  0
    0.6470   10.2350   17.4680 H   0  0  0  0  0  0  0  0  0  0  0  0
    1.2380    8.9070   21.9530 C   0  0  0  0  0  0  0  0  0  0  0  0
    0.5260    8.2310   22.4380 H   0  0  0  0  0  0  0  0  0  0  0  0
    1.6390    9.6090   22.6910 H   0  0  0  0  0  0  0  0  0  0  0  0
    2.0670    8.2920   21.5890 H   0  0  0  0  0  0  0  0  0  0  0  0
   -2.1980   12.2660   20.4690 C   0  0  0  0  0  0  0  0  0  0  0  0
   -3.0620   12.5070   19.6320 O   0  0  0  0  0  0  0  0  0  0  0  0
   -2.1890   12.8160   21.7360 N   0  0  0  0  0  0  0  0  0  0  0  0
   -1.6210   12.3680   22.4410 H   0  0  0  0  0  0  0  0  0  0  0  0
   -3.2780   13.6560   22.1870 C   0  0  0  0  0  0  0  0  0  0  0  0
   -2.8410   14.6590   23.2450 C   0  0  0  0  0  0  0  0  0  0  0  0
   -4.1520   15.1030   23.8810 C   0  0  0  0  0  0  0  0  0  0  0  0
   -5.1000   13.9100   23.7550 C   0  0  0  0  0  0  0  0  0  0  0  0
   -4.3740   12.8720   22.9030 C   0  0  0  0  0  0  0  0  0  0  0  0
   -3.7040   14.1830   21.3230 H   0  0  0  0  0  0  0  0  0  0  0  0
   -2.2810   15.4980   22.8200 H   0  0  0  0  0  0  0  0  0  0  0  0
   -2.2020   14.1840   23.9990 H   0  0  0  0  0  0  0  0  0  0  0  0
   -4.5640   15.9610   23.3350 H   0  0  0  0  0  0  0  0  0  0  0  0
   -4.0140   15.4110   24.9220 H   0  0  0  0  0  0  0  0  0  0  0  0
   -5.3570   13.4960   24.7350 H   0  0  0  0  0  0  0  0  0  0  0  0
   -6.0350   14.2220   23.2770 H   0  0  0  0  0  0  0  0  0  0  0  0
   -3.9410   12.1000   23.5510 H   0  0  0  0  0  0  0  0  0  0  0  0
   -5.0510   12.3670   22.2050 H   0  0  0  0  0  0  0  0  0  0  0  0
    2.2970    8.2020   17.8150 C   0  0  0  0  0  0  0  0  0  0  0  0
    1.4110    8.3640   17.1890 H   0  0  0  0  0  0  0  0  0  0  0  0
    3.1230    8.7940   17.4050 H   0  0  0  0  0  0  0  0  0  0  0  0
    2.7090    6.7190   17.7840 C   0  0  0  0  0  0  0  0  0  0  0  0
    3.3980    6.2780   19.0910 C   0  0  0  0  0  0  0  0  0  0  0  0
    3.6880    4.7760   19.0840 C   0  0  0  0  0  0  0  0  0  0  0  0
    2.4590    4.0280   18.8440 N   0  0  0  0  0  0  0  0  0  0  0  0
    1.7100    3.2960   19.7590 C   0  0  0  0  0  0  0  0  0  0  0  0
    0.5660    2.9330   19.4540 O   0  0  0  0  0  0  0  0  0  0  0  0
    1.8430    4.3510   17.5560 C   0  0  0  0  0  0  0  0  0  0  0  0
    1.4770    5.8340   17.5090 C   0  0  0  0  0  0  0  0  0  0  0  0
    3.4200    6.5710   16.9590 H   0  0  0  0  0  0  0  0  0  0  0  0
    4.3400    6.8180   19.2330 H   0  0  0  0  0  0  0  0  0  0  0  0
    2.7530    6.5200   19.9450 H   0  0  0  0  0  0  0  0  0  0  0  0
    4.1790    4.4970   20.0080 H   0  0  0  0  0  0  0  0  0  0  0  0
    4.3870    4.5310   18.2740 H   0  0  0  0  0  0  0  0  0  0  0  0
    2.5690    4.1120   16.7700 H   0  0  0  0  0  0  0  0  0  0  0  0
    0.9540    3.7430   17.3610 H   0  0  0  0  0  0  0  0  0  0  0  0
    1.0540    6.0720   16.5270 H   0  0  0  0  0  0  0  0  0  0  0  0
    0.7000    6.0410   18.2570 H   0  0  0  0  0  0  0  0  0  0  0  0
    2.2700    2.9060   21.1550 C   0  0  0  0  0  0  0  0  0  0  0  0
    1.2270    2.1500   21.9920 C   0  0  0  0  0  0  0  0  0  0  0  0
    0.2800    2.6820   22.0930 H   0  0  0  0  0  0  0  0  0  0  0  0
    0.9960    1.1760   21.5450 H   0  0  0  0  0  0  0  0  0  0  0  0
    1.5990    1.9730   23.0070 H   0  0  0  0  0  0  0  0  0  0  0  0
    3.6020    2.1490   21.0530 C   0  0  0  0  0  0  0  0  0  0  0  0
    3.8070    1.5070   21.9110 H   0  0  0  0  0  0  0  0  0  0  0  0
    4.4470    2.8440   20.9880 H   0  0  0  0  0  0  0  0  0  0  0  0
    3.6230    1.5150   20.1590 H   0  0  0  0  0  0  0  0  0  0  0  0
    2.5760    4.2200   21.9260 C   0  0  0  0  0  0  0  0  0  0  0  0
    1.6650    4.8080   22.0910 H   0  0  0  0  0  0  0  0  0  0  0  0
    3.0160    4.0150   22.9080 H   0  0  0  0  0  0  0  0  0  0  0  0
    3.2800    4.8510   21.3730 H   0  0  0  0  0  0  0  0  0  0  0  0
  1  8  1  0  0  0  0
  1  2  1  0  0  0  0
  3  4  1  0  0  0  0
  3 12  1  0  0  0  0
  4  9  1  0  0  0  0
  5 16  1  0  0  0  0
  5  4  2  0  0  0  0
  6  5  1  0  0  0  0
  7  6  2  0  0  0  0
  7  8  1  0  0  0  0
  8  3  2  0  0  0  0
 10  6  1  0  0  0  0
 11  7  1  0  0  0  0
 12 13  1  0  0  0  0
 12 14  1  0  0  0  0
 15 12  1  0  0  0  0
 16 18  1  0  0  0  0
 17 16  2  0  0  0  0
 18 20  1  0  0  0  0
 18 19  1  0  0  0  0
 20 24  1  0  0  0  0
 20 21  1  0  0  0  0
 21 22  1  0  0  0  0
 21 27  1  0  0  0  0
 22 29  1  0  0  0  0
 23 22  1  0  0  0  0
 23 30  1  0  0  0  0
 24 32  1  0  0  0  0
 24 23  1  0  0  0  0
 25 20  1  0  0  0  0
 26 21  1  0  0  0  0
 28 22  1  0  0  0  0
 31 23  1  0  0  0  0
 33 24  1  0  0  0  0
 34  1  1  0  0  0  0
 35 34  1  0  0  0  0
 36 34  1  0  0  0  0
 37 34  1  0  0  0  0
 37 38  1  0  0  0  0
 38 46  1  0  0  0  0
 38 47  1  0  0  0  0
 39 38  1  0  0  0  0
 39 48  1  0  0  0  0
 40 39  1  0  0  0  0
 40 41  1  0  0  0  0
 41 54  1  0  0  0  0
 42 41  2  0  0  0  0
 43 40  1  0  0  0  0
 44 43  1  0  0  0  0
 44 37  1  0  0  0  0
 44 53  1  0  0  0  0
 45 37  1  0  0  0  0
 49 39  1  0  0  0  0
 50 43  1  0  0  0  0
 51 43  1  0  0  0  0
 52 44  1  0  0  0  0
 54 63  1  0  0  0  0
 54 55  1  0  0  0  0
 55 56  1  0  0  0  0
 55 58  1  0  0  0  0
 57 55  1  0  0  0  0
 59 54  1  0  0  0  0
 59 60  1  0  0  0  0
 61 59  1  0  0  0  0
 62 59  1  0  0  0  0
 63 64  1  0  0  0  0
 63 65  1  0  0  0  0
 66 63  1  0  0  0  0
M  END
>  <MODEL>
19

>  <REMARK>
 VINA RESULT:    -5.310      2.470      3.935
 INTER + INTRA:          -8.296
 INTER:                  -7.880
 INTRA:                  -0.417
 UNBOUND:                -0.503
  Name = 
  10 active torsions:
  status: ('A' for Active; 'I' for Inactive)
    1  A    between atoms: C_1  and  C_2
    2  A    between atoms: C_4  and  C_5
    3  A    between atoms: N_7  and  C_8
    4  A    between atoms: C_15  and  N_16
    5  A    between atoms: N_16  and  C_17
    6  A    between atoms: C_17  and  C_18
    7  A    between atoms: C_22  and  C_24
    8  A    between atoms: C_24  and  C_25
    9  A    between atoms: C_24  and  C_26
   10  A    between atoms: C_24  and  C_27
                            x       y       z     vdW  Elec       q    Type
                         _______ _______ _______ _____ _____    ______ ____

>  <TORSDO>
F 10

$$$$
=
 OpenBabel07192307433D

 66 68  0  0  0  0  0  0  0  0999 V2000
    0.8160    8.1750   20.6080 N   0  0  0  0  0  0  0  0  0  0  0  0
   -0.0340    7.6210   20.5820 H   0  0  0  0  0  0  0  0  0  0  0  0
    2.1630    6.3580   19.7130 C   0  0  0  0  0  0  0  0  0  0  0  0
    3.0570    5.8570   18.7460 C   0  0  0  0  0  0  0  0  0  0  0  0
    3.5220    6.6720   17.7110 C   0  0  0  0  0  0  0  0  0  0  0  0
    3.0650    7.9860   17.6250 C   0  0  0  0  0  0  0  0  0  0  0  0
    2.1830    8.4910   18.5870 C   0  0  0  0  0  0  0  0  0  0  0  0
    1.7460    7.7100   19.6670 C   0  0  0  0  0  0  0  0  0  0  0  0
    3.3520    4.8110   18.7880 H   0  0  0  0  0  0  0  0  0  0  0  0
    3.3890    8.6250   16.8050 H   0  0  0  0  0  0  0  0  0  0  0  0
    1.8500    9.5180   18.4640 H   0  0  0  0  0  0  0  0  0  0  0  0
    1.6770    5.4200   20.7890 C   0  0  0  0  0  0  0  0  0  0  0  0
    2.5160    5.0610   21.3950 H   0  0  0  0  0  0  0  0  0  0  0  0
    1.1590    4.5690   20.3380 H   0  0  0  0  0  0  0  0  0  0  0  0
    0.9790    5.9160   21.4710 H   0  0  0  0  0  0  0  0  0  0  0  0
    4.4610    6.1730   16.6690 C   0  0  0  0  0  0  0  0  0  0  0  0
    4.9750    6.9540   15.8750 O   0  0  0  0  0  0  0  0  0  0  0  0
    4.7300    4.8180   16.6880 N   0  0  0  0  0  0  0  0  0  0  0  0
    4.4920    4.3010   17.5230 H   0  0  0  0  0  0  0  0  0  0  0  0
    5.7280    4.2480   15.8080 C   0  0  0  0  0  0  0  0  0  0  0  0
    6.8950    5.1940   15.5610 C   0  0  0  0  0  0  0  0  0  0  0  0
    7.5630    4.6200   14.3190 C   0  0  0  0  0  0  0  0  0  0  0  0
    6.4480    3.9420   13.5210 C   0  0  0  0  0  0  0  0  0  0  0  0
    5.2000    3.9930   14.3990 C   0  0  0  0  0  0  0  0  0  0  0  0
    6.0920    3.3080   16.2440 H   0  0  0  0  0  0  0  0  0  0  0  0
    7.5790    5.2460   16.4130 H   0  0  0  0  0  0  0  0  0  0  0  0
    6.5410    6.2120   15.3580 H   0  0  0  0  0  0  0  0  0  0  0  0
    8.3150    3.8750   14.6050 H   0  0  0  0  0  0  0  0  0  0  0  0
    8.0720    5.3940   13.7360 H   0  0  0  0  0  0  0  0  0  0  0  0
    6.2710    4.4490   12.5670 H   0  0  0  0  0  0  0  0  0  0  0  0
    6.7230    2.9070   13.2950 H   0  0  0  0  0  0  0  0  0  0  0  0
    4.5510    4.8140   14.0720 H   0  0  0  0  0  0  0  0  0  0  0  0
    4.6140    3.0700   14.3340 H   0  0  0  0  0  0  0  0  0  0  0  0
    1.2360    8.5310   21.9610 C   0  0  0  0  0  0  0  0  0  0  0  0
    0.8030    7.8370   22.6910 H   0  0  0  0  0  0  0  0  0  0  0  0
    2.3280    8.4700   22.0300 H   0  0  0  0  0  0  0  0  0  0  0  0
    0.8180    9.9770   22.2850 C   0  0  0  0  0  0  0  0  0  0  0  0
    0.6600   10.8370   21.0150 C   0  0  0  0  0  0  0  0  0  0  0  0
    0.1280   12.2310   21.3520 C   0  0  0  0  0  0  0  0  0  0  0  0
   -1.1260   12.1250   22.0890 N   0  0  0  0  0  0  0  0  0  0  0  0
   -2.4140   12.3730   21.6280 C   0  0  0  0  0  0  0  0  0  0  0  0
   -3.3820   11.9950   22.3010 O   0  0  0  0  0  0  0  0  0  0  0  0
   -0.9790   11.4050   23.3550 C   0  0  0  0  0  0  0  0  0  0  0  0
   -0.4950    9.9790   23.0920 C   0  0  0  0  0  0  0  0  0  0  0  0
    1.5980   10.4360   22.9100 H   0  0  0  0  0  0  0  0  0  0  0  0
    1.6200   10.9420   20.4970 H   0  0  0  0  0  0  0  0  0  0  0  0
   -0.0310   10.3420   20.3200 H   0  0  0  0  0  0  0  0  0  0  0  0
    0.0370   12.8150   20.4450 H   0  0  0  0  0  0  0  0  0  0  0  0
    0.8440   12.7620   21.9920 H   0  0  0  0  0  0  0  0  0  0  0  0
   -0.2460   11.9490   23.9650 H   0  0  0  0  0  0  0  0  0  0  0  0
   -1.9120   11.3820   23.9270 H   0  0  0  0  0  0  0  0  0  0  0  0
   -0.3500    9.4630   24.0480 H   0  0  0  0  0  0  0  0  0  0  0  0
   -1.2690    9.4290   22.5400 H   0  0  0  0  0  0  0  0  0  0  0  0
   -2.6790   13.1250   20.2940 C   0  0  0  0  0  0  0  0  0  0  0  0
   -2.0900   14.5430   20.3170 C   0  0  0  0  0  0  0  0  0  0  0  0
   -2.8460   15.3290   20.3430 H   0  0  0  0  0  0  0  0  0  0  0  0
   -1.4530   14.6900   21.1970 H   0  0  0  0  0  0  0  0  0  0  0  0
   -1.4780   14.7230   19.4270 H   0  0  0  0  0  0  0  0  0  0  0  0
   -2.2150   12.3160   19.0730 C   0  0  0  0  0  0  0  0  0  0  0  0
   -1.6000   11.4520   19.3300 H   0  0  0  0  0  0  0  0  0  0  0  0
   -1.6030   12.9310   18.4020 H   0  0  0  0  0  0  0  0  0  0  0  0
   -3.0720   11.9490   18.4990 H   0  0  0  0  0  0  0  0  0  0  0  0
   -4.2150   13.2950   20.1440 C   0  0  0  0  0  0  0  0  0  0  0  0
   -4.5180   14.3390   20.2860 H   0  0  0  0  0  0  0  0  0  0  0  0
   -4.5570   12.9880   19.1490 H   0  0  0  0  0  0  0  0  0  0  0  0
   -4.7570   12.6910   20.8800 H   0  0  0  0  0  0  0  0  0  0  0  0
  1 34  1  0  0  0  0
  2  1  1  0  0  0  0
  3 12  1  0  0  0  0
  4  9  1  0  0  0  0
  4  3  2  0  0  0  0
  5  4  1  0  0  0  0
  6  5  2  0  0  0  0
  6  7  1  0  0  0  0
  7  8  2  0  0  0  0
  8  3  1  0  0  0  0
  8  1  1  0  0  0  0
 10  6  1  0  0  0  0
 11  7  1  0  0  0  0
 12 13  1  0  0  0  0
 12 15  1  0  0  0  0
 14 12  1  0  0  0  0
 16 18  1  0  0  0  0
 16  5  1  0  0  0  0
 17 16  2  0  0  0  0
 18 19  1  0  0  0  0
 20 25  1  0  0  0  0
 20 18  1  0  0  0  0
 21 20  1  0  0  0  0
 21 26  1  0  0  0  0
 22 28  1  0  0  0  0
 22 21  1  0  0  0  0
 23 22  1  0  0  0  0
 23 24  1  0  0  0  0
 24 20  1  0  0  0  0
 27 21  1  0  0  0  0
 29 22  1  0  0  0  0
 30 23  1  0  0  0  0
 31 23  1  0  0  0  0
 32 24  1  0  0  0  0
 33 24  1  0  0  0  0
 34 36  1  0  0  0  0
 34 37  1  0  0  0  0
 34 35  1  0  0  0  0
 37 45  1  0  0  0  0
 37 44  1  0  0  0  0
 38 39  1  0  0  0  0
 38 37  1  0  0  0  0
 39 49  1  0  0  0  0
 39 40  1  0  0  0  0
 40 43  1  0  0  0  0
 41 40  1  0  0  0  0
 41 42  2  0  0  0  0
 43 51  1  0  0  0  0
 43 50  1  0  0  0  0
 44 43  1  0  0  0  0
 44 52  1  0  0  0  0
 46 38  1  0  0  0  0
 47 38  1  0  0  0  0
 48 39  1  0  0  0  0
 53 44  1  0  0  0  0
 54 55  1  0  0  0  0
 54 41  1  0  0  0  0
 55 56  1  0  0  0  0
 55 57  1  0  0  0  0
 58 55  1  0  0  0  0
 59 60  1  0  0  0  0
 59 54  1  0  0  0  0
 61 59  1  0  0  0  0
 62 59  1  0  0  0  0
 63 64  1  0  0  0  0
 63 54  1  0  0  0  0
 63 66  1  0  0  0  0
 65 63  1  0  0  0  0
M  END
>  <MODEL>
20

>  <REMARK>
 VINA RESULT:    -5.296      1.878     10.468
 INTER + INTRA:          -8.276
 INTER:                  -8.654
 INTRA:                   0.378
 UNBOUND:                -0.503
  Name = 
  10 active torsions:
  status: ('A' for Active; 'I' for Inactive)
    1  A    between atoms: C_1  and  C_2
    2  A    between atoms: C_4  and  C_5
    3  A    between atoms: N_7  and  C_8
    4  A    between atoms: C_15  and  N_16
    5  A    between atoms: N_16  and  C_17
    6  A    between atoms: C_17  and  C_18
    7  A    between atoms: C_22  and  C_24
    8  A    between atoms: C_24  and  C_25
    9  A    between atoms: C_24  and  C_26
   10  A    between atoms: C_24  and  C_27
                            x       y       z     vdW  Elec       q    Type
                         _______ _______ _______ _____ _____    ______ ____

>  <TORSDO>
F 10

$$$$
=
 OpenBabel07192307433D

 66 68  0  0  0  0  0  0  0  0999 V2000
    0.1850   11.5990   20.3930 N   0  0  0  0  0  0  0  0  0  0  0  0
    0.5320   11.8770   21.3050 H   0  0  0  0  0  0  0  0  0  0  0  0
    0.8660    9.2900   20.7320 C   0  0  0  0  0  0  0  0  0  0  0  0
    1.4860    8.1140   20.2640 C   0  0  0  0  0  0  0  0  0  0  0  0
    2.0670    8.0690   18.9940 C   0  0  0  0  0  0  0  0  0  0  0  0
    2.0000    9.1950   18.1760 C   0  0  0  0  0  0  0  0  0  0  0  0
    1.3920   10.3670   18.6390 C   0  0  0  0  0  0  0  0  0  0  0  0
    0.8510   10.4560   19.9300 C   0  0  0  0  0  0  0  0  0  0  0  0
    1.4710    7.2230   20.8870 H   0  0  0  0  0  0  0  0  0  0  0  0
    2.4170    9.1660   17.1710 H   0  0  0  0  0  0  0  0  0  0  0  0
    1.3580   11.2110   17.9550 H   0  0  0  0  0  0  0  0  0  0  0  0
    0.2330    9.2660   22.1000 C   0  0  0  0  0  0  0  0  0  0  0  0
   -0.8340    9.5050   22.0350 H   0  0  0  0  0  0  0  0  0  0  0  0
    0.7320    9.9860   22.7560 H   0  0  0  0  0  0  0  0  0  0  0  0
    0.3120    8.2780   22.5640 H   0  0  0  0  0  0  0  0  0  0  0  0
    2.7240    6.8410   18.4660 C   0  0  0  0  0  0  0  0  0  0  0  0
    3.3750    6.8860   17.4280 O   0  0  0  0  0  0  0  0  0  0  0  0
    2.5810    5.6960   19.2270 N   0  0  0  0  0  0  0  0  0  0  0  0
    2.2740    5.8010   20.1840 H   0  0  0  0  0  0  0  0  0  0  0  0
    3.2870    4.4820   18.8790 C   0  0  0  0  0  0  0  0  0  0  0  0
    2.6790    3.7800   17.6720 C   0  0  0  0  0  0  0  0  0  0  0  0
    3.2510    2.3710   17.7530 C   0  0  0  0  0  0  0  0  0  0  0  0
    3.4810    2.1000   19.2400 C   0  0  0  0  0  0  0  0  0  0  0  0
    3.2000    3.4130   19.9650 C   0  0  0  0  0  0  0  0  0  0  0  0
    4.3390    4.7250   18.6820 H   0  0  0  0  0  0  0  0  0  0  0  0
    2.9320    4.2760   16.7300 H   0  0  0  0  0  0  0  0  0  0  0  0
    1.5860    3.7450   17.7450 H   0  0  0  0  0  0  0  0  0  0  0  0
    4.2060    2.3200   17.2170 H   0  0  0  0  0  0  0  0  0  0  0  0
    2.5790    1.6340   17.3000 H   0  0  0  0  0  0  0  0  0  0  0  0
    2.8250    1.3050   19.6090 H   0  0  0  0  0  0  0  0  0  0  0  0
    4.5130    1.7760   19.4080 H   0  0  0  0  0  0  0  0  0  0  0  0
    2.1940    3.3850   20.4040 H   0  0  0  0  0  0  0  0  0  0  0  0
    3.9060    3.5910   20.7830 H   0  0  0  0  0  0  0  0  0  0  0  0
   -0.0730   12.7280   19.5010 C   0  0  0  0  0  0  0  0  0  0  0  0
    0.1410   12.4510   18.4620 H   0  0  0  0  0  0  0  0  0  0  0  0
   -1.1280   13.0140   19.5740 H   0  0  0  0  0  0  0  0  0  0  0  0
    0.7800   13.9400   19.9170 C   0  0  0  0  0  0  0  0  0  0  0  0
    1.3090   13.8150   21.3600 C   0  0  0  0  0  0  0  0  0  0  0  0
    2.2500   14.9690   21.7070 C   0  0  0  0  0  0  0  0  0  0  0  0
    3.3390   15.0380   20.7390 N   0  0  0  0  0  0  0  0  0  0  0  0
    4.6660   14.6620   20.9150 C   0  0  0  0  0  0  0  0  0  0  0  0
    5.4000   14.5470   19.9250 O   0  0  0  0  0  0  0  0  0  0  0  0
    2.8670   15.2670   19.3730 C   0  0  0  0  0  0  0  0  0  0  0  0
    1.9560   14.1210   18.9360 C   0  0  0  0  0  0  0  0  0  0  0  0
    0.1550   14.8430   19.8630 H   0  0  0  0  0  0  0  0  0  0  0  0
    0.4810   13.8080   22.0770 H   0  0  0  0  0  0  0  0  0  0  0  0
    1.8430   12.8620   21.4730 H   0  0  0  0  0  0  0  0  0  0  0  0
    2.5980   14.8600   22.7270 H   0  0  0  0  0  0  0  0  0  0  0  0
    1.7090   15.9220   21.6640 H   0  0  0  0  0  0  0  0  0  0  0  0
    2.3170   16.2160   19.3650 H   0  0  0  0  0  0  0  0  0  0  0  0
    3.6940   15.3750   18.6640 H   0  0  0  0  0  0  0  0  0  0  0  0
    1.5760   14.3230   17.9280 H   0  0  0  0  0  0  0  0  0  0  0  0
    2.5390   13.1920   18.8840 H   0  0  0  0  0  0  0  0  0  0  0  0
    5.2640   14.3900   22.3240 C   0  0  0  0  0  0  0  0  0  0  0  0
    4.6040   15.2670   23.3980 C   0  0  0  0  0  0  0  0  0  0  0  0
    5.3100   15.6760   24.1220 H   0  0  0  0  0  0  0  0  0  0  0  0
    4.0880   16.1210   22.9440 H   0  0  0  0  0  0  0  0  0  0  0  0
    3.8650   14.6930   23.9660 H   0  0  0  0  0  0  0  0  0  0  0  0
    5.2350   12.8970   22.6850 C   0  0  0  0  0  0  0  0  0  0  0  0
    6.1720   12.3800   22.4790 H   0  0  0  0  0  0  0  0  0  0  0  0
    4.4660   12.3670   22.1110 H   0  0  0  0  0  0  0  0  0  0  0  0
    5.0110   12.7570   23.7490 H   0  0  0  0  0  0  0  0  0  0  0  0
    6.7620   14.7990   22.2890 C   0  0  0  0  0  0  0  0  0  0  0  0
    7.3820   14.0090   21.8480 H   0  0  0  0  0  0  0  0  0  0  0  0
    6.9160   15.7060   21.6930 H   0  0  0  0  0  0  0  0  0  0  0  0
    7.1460   14.9960   23.2960 H   0  0  0  0  0  0  0  0  0  0  0  0
  1  2  1  0  0  0  0
  3 12  1  0  0  0  0
  4  3  1  0  0  0  0
  4  9  1  0  0  0  0
  5  4  2  0  0  0  0
  6  7  2  0  0  0  0
  6  5  1  0  0  0  0
  7  8  1  0  0  0  0
  8  1  1  0  0  0  0
  8  3  2  0  0  0  0
 10  6  1  0  0  0  0
 11  7  1  0  0  0  0
 12 15  1  0  0  0  0
 12 14  1  0  0  0  0
 13 12  1  0  0  0  0
 16  5  1  0  0  0  0
 16 18  1  0  0  0  0
 17 16  2  0  0  0  0
 18 19  1  0  0  0  0
 20 18  1  0  0  0  0
 20 24  1  0  0  0  0
 21 27  1  0  0  0  0
 21 22  1  0  0  0  0
 21 20  1  0  0  0  0
 22 23  1  0  0  0  0
 23 31  1  0  0  0  0
 23 30  1  0  0  0  0
 23 24  1  0  0  0  0
 24 32  1  0  0  0  0
 24 33  1  0  0  0  0
 25 20  1  0  0  0  0
 26 21  1  0  0  0  0
 28 22  1  0  0  0  0
 29 22  1  0  0  0  0
 34 36  1  0  0  0  0
 34 37  1  0  0  0  0
 34  1  1  0  0  0  0
 35 34  1  0  0  0  0
 37 38  1  0  0  0  0
 38 47  1  0  0  0  0
 38 39  1  0  0  0  0
 38 46  1  0  0  0  0
 39 48  1  0  0  0  0
 40 41  1  0  0  0  0
 40 39  1  0  0  0  0
 41 54  1  0  0  0  0
 42 41  2  0  0  0  0
 43 40  1  0  0  0  0
 44 43  1  0  0  0  0
 44 37  1  0  0  0  0
 45 37  1  0  0  0  0
 49 39  1  0  0  0  0
 50 43  1  0  0  0  0
 51 43  1  0  0  0  0
 52 44  1  0  0  0  0
 53 44  1  0  0  0  0
 54 59  1  0  0  0  0
 54 55  1  0  0  0  0
 55 58  1  0  0  0  0
 55 56  1  0  0  0  0
 57 55  1  0  0  0  0
 59 62  1  0  0  0  0
 60 59  1  0  0  0  0
 61 59  1  0  0  0  0
 63 54  1  0  0  0  0
 63 66  1  0  0  0  0
 64 63  1  0  0  0  0
 65 63  1  0  0  0  0
M  END
>  <MODEL>
21

>  <REMARK>
 VINA RESULT:    -5.225      3.984      9.613
 INTER + INTRA:          -8.172
 INTER:                  -7.731
 INTRA:                  -0.441
 UNBOUND:                -0.503
  Name = 
  10 active torsions:
  status: ('A' for Active; 'I' for Inactive)
    1  A    between atoms: C_1  and  C_2
    2  A    between atoms: C_4  and  C_5
    3  A    between atoms: N_7  and  C_8
    4  A    between atoms: C_15  and  N_16
    5  A    between atoms: N_16  and  C_17
    6  A    between atoms: C_17  and  C_18
    7  A    between atoms: C_22  and  C_24
    8  A    between atoms: C_24  and  C_25
    9  A    between atoms: C_24  and  C_26
   10  A    between atoms: C_24  and  C_27
                            x       y       z     vdW  Elec       q    Type
                         _______ _______ _______ _____ _____    ______ ____

>  <TORSDO>
F 10

$$$$
=
 OpenBabel07192307433D

 66 68  0  0  0  0  0  0  0  0999 V2000
    0.0510   12.4880   18.2870 N   0  0  0  0  0  0  0  0  0  0  0  0
   -0.8190   12.4470   18.8080 H   0  0  0  0  0  0  0  0  0  0  0  0
   -0.0940   10.0610   18.2220 C   0  0  0  0  0  0  0  0  0  0  0  0
    0.5280    8.7980   18.1610 C   0  0  0  0  0  0  0  0  0  0  0  0
    1.9200    8.6870   18.1250 C   0  0  0  0  0  0  0  0  0  0  0  0
    2.6930    9.8460   18.1170 C   0  0  0  0  0  0  0  0  0  0  0  0
    2.0810   11.1030   18.1850 C   0  0  0  0  0  0  0  0  0  0  0  0
    0.6880   11.2390   18.2780 C   0  0  0  0  0  0  0  0  0  0  0  0
   -0.0900    7.9050   18.0990 H   0  0  0  0  0  0  0  0  0  0  0  0
    3.7780    9.7790   18.0550 H   0  0  0  0  0  0  0  0  0  0  0  0
    2.7320   11.9720   18.1640 H   0  0  0  0  0  0  0  0  0  0  0  0
   -1.6000   10.1150   18.2300 C   0  0  0  0  0  0  0  0  0  0  0  0
   -2.0160    9.3960   17.5150 H   0  0  0  0  0  0  0  0  0  0  0  0
   -1.9410   11.1230   17.9780 H   0  0  0  0  0  0  0  0  0  0  0  0
   -2.0080    9.8590   19.2140 H   0  0  0  0  0  0  0  0  0  0  0  0
    2.6090    7.3680   18.0540 C   0  0  0  0  0  0  0  0  0  0  0  0
    2.0900    6.3730   18.5480 O   0  0  0  0  0  0  0  0  0  0  0  0
    3.8150    7.3440   17.3800 N   0  0  0  0  0  0  0  0  0  0  0  0
    4.0340    8.1260   16.7770 H   0  0  0  0  0  0  0  0  0  0  0  0
    4.5020    6.0950   17.1350 C   0  0  0  0  0  0  0  0  0  0  0  0
    5.6480    5.8590   18.1110 C   0  0  0  0  0  0  0  0  0  0  0  0
    6.4800    4.7800   17.4310 C   0  0  0  0  0  0  0  0  0  0  0  0
    6.2780    4.9840   15.9280 C   0  0  0  0  0  0  0  0  0  0  0  0
    5.2050    6.0600   15.7810 C   0  0  0  0  0  0  0  0  0  0  0  0
    3.7790    5.2710   17.1990 H   0  0  0  0  0  0  0  0  0  0  0  0
    5.2960    5.5490   19.1000 H   0  0  0  0  0  0  0  0  0  0  0  0
    6.2470    6.7670   18.2420 H   0  0  0  0  0  0  0  0  0  0  0  0
    6.1180    3.7860   17.7190 H   0  0  0  0  0  0  0  0  0  0  0  0
    7.5350    4.8420   17.7150 H   0  0  0  0  0  0  0  0  0  0  0  0
    7.2060    5.2920   15.4360 H   0  0  0  0  0  0  0  0  0  0  0  0
    5.9560    4.0470   15.4620 H   0  0  0  0  0  0  0  0  0  0  0  0
    5.6780    7.0260   15.5630 H   0  0  0  0  0  0  0  0  0  0  0  0
    4.5150    5.8430   14.9580 H   0  0  0  0  0  0  0  0  0  0  0  0
    0.8090   13.7140   18.5190 C   0  0  0  0  0  0  0  0  0  0  0  0
    1.8740   13.4860   18.6490 H   0  0  0  0  0  0  0  0  0  0  0  0
    0.7000   14.3770   17.6520 H   0  0  0  0  0  0  0  0  0  0  0  0
    0.2660   14.4510   19.7560 C   0  0  0  0  0  0  0  0  0  0  0  0
   -1.2700   14.5830   19.7290 C   0  0  0  0  0  0  0  0  0  0  0  0
   -1.7950   15.2090   21.0220 C   0  0  0  0  0  0  0  0  0  0  0  0
   -1.3430   14.4370   22.1730 N   0  0  0  0  0  0  0  0  0  0  0  0
   -2.0840   13.5700   22.9680 C   0  0  0  0  0  0  0  0  0  0  0  0
   -1.4950   12.8050   23.7440 O   0  0  0  0  0  0  0  0  0  0  0  0
    0.1160   14.3880   22.2830 C   0  0  0  0  0  0  0  0  0  0  0  0
    0.7120   13.7260   21.0410 C   0  0  0  0  0  0  0  0  0  0  0  0
    0.6930   15.4640   19.7760 H   0  0  0  0  0  0  0  0  0  0  0  0
   -1.5910   15.2010   18.8830 H   0  0  0  0  0  0  0  0  0  0  0  0
   -1.7210   13.5910   19.5940 H   0  0  0  0  0  0  0  0  0  0  0  0
   -2.8740   15.2980   20.9700 H   0  0  0  0  0  0  0  0  0  0  0  0
   -1.4050   16.2280   21.1320 H   0  0  0  0  0  0  0  0  0  0  0  0
    0.4780   15.4200   22.3760 H   0  0  0  0  0  0  0  0  0  0  0  0
    0.4440   13.8560   23.1810 H   0  0  0  0  0  0  0  0  0  0  0  0
    1.8050   13.7320   21.1160 H   0  0  0  0  0  0  0  0  0  0  0  0
    0.3940   12.6750   21.0020 H   0  0  0  0  0  0  0  0  0  0  0  0
   -3.6370   13.5380   22.9230 C   0  0  0  0  0  0  0  0  0  0  0  0
   -4.2200   12.7010   24.0710 C   0  0  0  0  0  0  0  0  0  0  0  0
   -5.3030   12.5840   24.0200 H   0  0  0  0  0  0  0  0  0  0  0  0
   -3.7940   11.6900   24.0750 H   0  0  0  0  0  0  0  0  0  0  0  0
   -3.9970   13.1620   25.0390 H   0  0  0  0  0  0  0  0  0  0  0  0
   -4.2420   14.9490   22.8610 C   0  0  0  0  0  0  0  0  0  0  0  0
   -3.7480   15.6660   23.5180 H   0  0  0  0  0  0  0  0  0  0  0  0
   -5.2960   14.9400   23.1620 H   0  0  0  0  0  0  0  0  0  0  0  0
   -4.1910   15.3510   21.8430 H   0  0  0  0  0  0  0  0  0  0  0  0
   -4.0580   12.8270   21.6090 C   0  0  0  0  0  0  0  0  0  0  0  0
   -4.8240   12.0640   21.7940 H   0  0  0  0  0  0  0  0  0  0  0  0
   -4.4720   13.5360   20.8830 H   0  0  0  0  0  0  0  0  0  0  0  0
   -3.2050   12.3290   21.1340 H   0  0  0  0  0  0  0  0  0  0  0  0
  1 34  1  0  0  0  0
  1  2  1  0  0  0  0
  3 12  1  0  0  0  0
  3  8  1  0  0  0  0
  4  3  2  0  0  0  0
  5  4  1  0  0  0  0
  6  5  2  0  0  0  0
  6  7  1  0  0  0  0
  7  8  2  0  0  0  0
  8  1  1  0  0  0  0
  9  4  1  0  0  0  0
 10  6  1  0  0  0  0
 11  7  1  0  0  0  0
 12 15  1  0  0  0  0
 13 12  1  0  0  0  0
 14 12  1  0  0  0  0
 16  5  1  0  0  0  0
 16 17  2  0  0  0  0
 18 16  1  0  0  0  0
 19 18  1  0  0  0  0
 20 25  1  0  0  0  0
 20 18  1  0  0  0  0
 20 21  1  0  0  0  0
 21 27  1  0  0  0  0
 21 26  1  0  0  0  0
 22 29  1  0  0  0  0
 22 28  1  0  0  0  0
 22 21  1  0  0  0  0
 23 22  1  0  0  0  0
 24 23  1  0  0  0  0
 24 20  1  0  0  0  0
 30 23  1  0  0  0  0
 31 23  1  0  0  0  0
 32 24  1  0  0  0  0
 33 24  1  0  0  0  0
 34 35  1  0  0  0  0
 34 37  1  0  0  0  0
 36 34  1  0  0  0  0
 37 45  1  0  0  0  0
 37 44  1  0  0  0  0
 38 37  1  0  0  0  0
 38 39  1  0  0  0  0
 39 49  1  0  0  0  0
 39 40  1  0  0  0  0
 40 43  1  0  0  0  0
 40 41  1  0  0  0  0
 41 42  2  0  0  0  0
 43 50  1  0  0  0  0
 43 51  1  0  0  0  0
 44 52  1  0  0  0  0
 44 43  1  0  0  0  0
 46 38  1  0  0  0  0
 47 38  1  0  0  0  0
 48 39  1  0  0  0  0
 53 44  1  0  0  0  0
 54 41  1  0  0  0  0
 54 55  1  0  0  0  0
 55 57  1  0  0  0  0
 55 58  1  0  0  0  0
 56 55  1  0  0  0  0
 59 54  1  0  0  0  0
 59 61  1  0  0  0  0
 59 60  1  0  0  0  0
 62 59  1  0  0  0  0
 63 64  1  0  0  0  0
 63 54  1  0  0  0  0
 65 63  1  0  0  0  0
 66 63  1  0  0  0  0
M  END
>  <MODEL>
22

>  <REMARK>
 VINA RESULT:    -5.063      2.466     10.754
 INTER + INTRA:          -7.934
 INTER:                  -7.380
 INTRA:                  -0.554
 UNBOUND:                -0.503
  Name = 
  10 active torsions:
  status: ('A' for Active; 'I' for Inactive)
    1  A    between atoms: C_1  and  C_2
    2  A    between atoms: C_4  and  C_5
    3  A    between atoms: N_7  and  C_8
    4  A    between atoms: C_15  and  N_16
    5  A    between atoms: N_16  and  C_17
    6  A    between atoms: C_17  and  C_18
    7  A    between atoms: C_22  and  C_24
    8  A    between atoms: C_24  and  C_25
    9  A    between atoms: C_24  and  C_26
   10  A    between atoms: C_24  and  C_27
                            x       y       z     vdW  Elec       q    Type
                         _______ _______ _______ _____ _____    ______ ____

>  <TORSDO>
F 10

$$$$
=
 OpenBabel07192307433D

 66 68  0  0  0  0  0  0  0  0999 V2000
    4.5680   15.2630   19.2990 N   0  0  0  0  0  0  0  0  0  0  0  0
    4.7270   15.6530   20.2220 H   0  0  0  0  0  0  0  0  0  0  0  0
    2.7500   14.1750   20.4930 C   0  0  0  0  0  0  0  0  0  0  0  0
    1.6840   13.2550   20.5250 C   0  0  0  0  0  0  0  0  0  0  0  0
    1.3720   12.4810   19.4040 C   0  0  0  0  0  0  0  0  0  0  0  0
    2.1100   12.6520   18.2350 C   0  0  0  0  0  0  0  0  0  0  0  0
    3.1750   13.5590   18.2000 C   0  0  0  0  0  0  0  0  0  0  0  0
    3.5440   14.3060   19.3280 C   0  0  0  0  0  0  0  0  0  0  0  0
    1.0740   13.1810   21.4230 H   0  0  0  0  0  0  0  0  0  0  0  0
    1.8590   12.0830   17.3420 H   0  0  0  0  0  0  0  0  0  0  0  0
    3.7090   13.6600   17.2590 H   0  0  0  0  0  0  0  0  0  0  0  0
    3.0190   14.9990   21.7260 C   0  0  0  0  0  0  0  0  0  0  0  0
    2.3270   15.8460   21.7820 H   0  0  0  0  0  0  0  0  0  0  0  0
    4.0490   15.3660   21.7140 H   0  0  0  0  0  0  0  0  0  0  0  0
    2.8820   14.4130   22.6410 H   0  0  0  0  0  0  0  0  0  0  0  0
    0.2470   11.5050   19.4030 C   0  0  0  0  0  0  0  0  0  0  0  0
    0.0020   10.8430   20.4050 O   0  0  0  0  0  0  0  0  0  0  0  0
   -0.4970   11.4320   18.2400 N   0  0  0  0  0  0  0  0  0  0  0  0
   -0.4080   12.1870   17.5750 H   0  0  0  0  0  0  0  0  0  0  0  0
   -1.6910   10.6160   18.1750 C   0  0  0  0  0  0  0  0  0  0  0  0
   -1.8900    9.9850   16.8040 C   0  0  0  0  0  0  0  0  0  0  0  0
   -3.3560    9.5710   16.8110 C   0  0  0  0  0  0  0  0  0  0  0  0
   -4.0650   10.5690   17.7280 C   0  0  0  0  0  0  0  0  0  0  0  0
   -2.9710   11.4250   18.3600 C   0  0  0  0  0  0  0  0  0  0  0  0
   -1.6320    9.8350   18.9440 H   0  0  0  0  0  0  0  0  0  0  0  0
   -1.2210    9.1360   16.6330 H   0  0  0  0  0  0  0  0  0  0  0  0
   -1.7110   10.7130   16.0040 H   0  0  0  0  0  0  0  0  0  0  0  0
   -3.4600    8.5580   17.2180 H   0  0  0  0  0  0  0  0  0  0  0  0
   -3.7820    9.5660   15.8030 H   0  0  0  0  0  0  0  0  0  0  0  0
   -4.7730   11.1910   17.1720 H   0  0  0  0  0  0  0  0  0  0  0  0
   -4.6340   10.0340   18.4960 H   0  0  0  0  0  0  0  0  0  0  0  0
   -2.9040   12.3860   17.8330 H   0  0  0  0  0  0  0  0  0  0  0  0
   -3.1780   11.6460   19.4120 H   0  0  0  0  0  0  0  0  0  0  0  0
    5.7990   15.0190   18.5520 C   0  0  0  0  0  0  0  0  0  0  0  0
    5.7450   14.0570   18.0290 H   0  0  0  0  0  0  0  0  0  0  0  0
    5.9340   15.8120   17.8070 H   0  0  0  0  0  0  0  0  0  0  0  0
    7.0120   15.0440   19.5000 C   0  0  0  0  0  0  0  0  0  0  0  0
    6.5980   15.2630   20.9700 C   0  0  0  0  0  0  0  0  0  0  0  0
    7.8040   15.1630   21.9050 C   0  0  0  0  0  0  0  0  0  0  0  0
    8.4780   13.8820   21.7210 N   0  0  0  0  0  0  0  0  0  0  0  0
    8.4590   12.7760   22.5620 C   0  0  0  0  0  0  0  0  0  0  0  0
    8.8730   11.6870   22.1430 O   0  0  0  0  0  0  0  0  0  0  0  0
    8.9770   13.6970   20.3570 C   0  0  0  0  0  0  0  0  0  0  0  0
    7.8150   13.7350   19.3660 C   0  0  0  0  0  0  0  0  0  0  0  0
    7.6700   15.8740   19.2060 H   0  0  0  0  0  0  0  0  0  0  0  0
    6.1330   16.2460   21.0990 H   0  0  0  0  0  0  0  0  0  0  0  0
    5.8520   14.5110   21.2570 H   0  0  0  0  0  0  0  0  0  0  0  0
    7.4870   15.3300   22.9270 H   0  0  0  0  0  0  0  0  0  0  0  0
    8.5280   15.9540   21.6720 H   0  0  0  0  0  0  0  0  0  0  0  0
    9.6840   14.5100   20.1480 H   0  0  0  0  0  0  0  0  0  0  0  0
    9.5310   12.7600   20.2450 H   0  0  0  0  0  0  0  0  0  0  0  0
    8.2040   13.6360   18.3460 H   0  0  0  0  0  0  0  0  0  0  0  0
    7.1540   12.8770   19.5460 H   0  0  0  0  0  0  0  0  0  0  0  0
    7.9440   12.8650   24.0260 C   0  0  0  0  0  0  0  0  0  0  0  0
    8.8220   13.7910   24.8800 C   0  0  0  0  0  0  0  0  0  0  0  0
    8.5700   13.7750   25.9420 H   0  0  0  0  0  0  0  0  0  0  0  0
    9.8790   13.5110   24.8030 H   0  0  0  0  0  0  0  0  0  0  0  0
    8.7250   14.8300   24.5480 H   0  0  0  0  0  0  0  0  0  0  0  0
    6.4560   13.2410   24.0930 C   0  0  0  0  0  0  0  0  0  0  0  0
    6.0130   13.4430   23.1170 H   0  0  0  0  0  0  0  0  0  0  0  0
    6.3050   14.1500   24.6860 H   0  0  0  0  0  0  0  0  0  0  0  0
    5.8710   12.4390   24.5570 H   0  0  0  0  0  0  0  0  0  0  0  0
    8.0630   11.4500   24.6570 C   0  0  0  0  0  0  0  0  0  0  0  0
    7.5610   11.4030   25.6300 H   0  0  0  0  0  0  0  0  0  0  0  0
    7.6070   10.6860   24.0160 H   0  0  0  0  0  0  0  0  0  0  0  0
    9.1110   11.1690   24.8110 H   0  0  0  0  0  0  0  0  0  0  0  0
  1  8  1  0  0  0  0
  1  2  1  0  0  0  0
  3  4  1  0  0  0  0
  3 12  1  0  0  0  0
  4  9  1  0  0  0  0
  5  4  2  0  0  0  0
  6  5  1  0  0  0  0
  7  6  2  0  0  0  0
  7  8  1  0  0  0  0
  8  3  2  0  0  0  0
 10  6  1  0  0  0  0
 11  7  1  0  0  0  0
 12 13  1  0  0  0  0
 12 15  1  0  0  0  0
 14 12  1  0  0  0  0
 16  5  1  0  0  0  0
 16 17  2  0  0  0  0
 18 16  1  0  0  0  0
 19 18  1  0  0  0  0
 20 18  1  0  0  0  0
 20 24  1  0  0  0  0
 20 25  1  0  0  0  0
 21 22  1  0  0  0  0
 21 20  1  0  0  0  0
 22 28  1  0  0  0  0
 22 23  1  0  0  0  0
 23 24  1  0  0  0  0
 23 31  1  0  0  0  0
 24 33  1  0  0  0  0
 26 21  1  0  0  0  0
 27 21  1  0  0  0  0
 29 22  1  0  0  0  0
 30 23  1  0  0  0  0
 32 24  1  0  0  0  0
 34  1  1  0  0  0  0
 34 37  1  0  0  0  0
 35 34  1  0  0  0  0
 36 34  1  0  0  0  0
 37 38  1  0  0  0  0
 38 46  1  0  0  0  0
 38 47  1  0  0  0  0
 38 39  1  0  0  0  0
 39 48  1  0  0  0  0
 40 39  1  0  0  0  0
 40 41  1  0  0  0  0
 41 54  1  0  0  0  0
 42 41  2  0  0  0  0
 43 40  1  0  0  0  0
 44 37  1  0  0  0  0
 44 53  1  0  0  0  0
 44 43  1  0  0  0  0
 45 37  1  0  0  0  0
 49 39  1  0  0  0  0
 50 43  1  0  0  0  0
 51 43  1  0  0  0  0
 52 44  1  0  0  0  0
 54 59  1  0  0  0  0
 54 63  1  0  0  0  0
 54 55  1  0  0  0  0
 55 56  1  0  0  0  0
 57 55  1  0  0  0  0
 58 55  1  0  0  0  0
 59 62  1  0  0  0  0
 59 61  1  0  0  0  0
 60 59  1  0  0  0  0
 63 66  1  0  0  0  0
 63 64  1  0  0  0  0
 65 63  1  0  0  0  0
M  END
>  <MODEL>
23

>  <REMARK>
 VINA RESULT:    -5.054      6.518      8.808
 INTER + INTRA:          -7.920
 INTER:                  -7.123
 INTRA:                  -0.797
 UNBOUND:                -0.503
  Name = 
  10 active torsions:
  status: ('A' for Active; 'I' for Inactive)
    1  A    between atoms: C_1  and  C_2
    2  A    between atoms: C_4  and  C_5
    3  A    between atoms: N_7  and  C_8
    4  A    between atoms: C_15  and  N_16
    5  A    between atoms: N_16  and  C_17
    6  A    between atoms: C_17  and  C_18
    7  A    between atoms: C_22  and  C_24
    8  A    between atoms: C_24  and  C_25
    9  A    between atoms: C_24  and  C_26
   10  A    between atoms: C_24  and  C_27
                            x       y       z     vdW  Elec       q    Type
                         _______ _______ _______ _____ _____    ______ ____

>  <TORSDO>
F 10

$$$$
=
 OpenBabel07192307433D

 66 68  0  0  0  0  0  0  0  0999 V2000
    2.2130    8.5460   17.8200 N   0  0  0  0  0  0  0  0  0  0  0  0
    1.7660    8.9010   16.9810 H   0  0  0  0  0  0  0  0  0  0  0  0
    1.2680   10.4280   19.0370 C   0  0  0  0  0  0  0  0  0  0  0  0
    0.5980   10.9460   20.1620 C   0  0  0  0  0  0  0  0  0  0  0  0
    0.2150   10.1110   21.2150 C   0  0  0  0  0  0  0  0  0  0  0  0
    0.4760    8.7450   21.1260 C   0  0  0  0  0  0  0  0  0  0  0  0
    1.1480    8.2260   20.0140 C   0  0  0  0  0  0  0  0  0  0  0  0
    1.5920    9.0510   18.9700 C   0  0  0  0  0  0  0  0  0  0  0  0
    0.3420   12.0030   20.1870 H   0  0  0  0  0  0  0  0  0  0  0  0
    0.1540    8.0740   21.9210 H   0  0  0  0  0  0  0  0  0  0  0  0
    1.3140    7.1520   19.9920 H   0  0  0  0  0  0  0  0  0  0  0  0
    1.6300   11.3760   17.9230 C   0  0  0  0  0  0  0  0  0  0  0  0
    1.5800   12.4140   18.2680 H   0  0  0  0  0  0  0  0  0  0  0  0
    0.9510   11.2370   17.0760 H   0  0  0  0  0  0  0  0  0  0  0  0
    2.6510   11.2080   17.5650 H   0  0  0  0  0  0  0  0  0  0  0  0
   -0.5000   10.6250   22.4150 C   0  0  0  0  0  0  0  0  0  0  0  0
   -0.5180    9.9700   23.4520 O   0  0  0  0  0  0  0  0  0  0  0  0
   -1.0890   11.8690   22.2900 N   0  0  0  0  0  0  0  0  0  0  0  0
   -0.8010   12.4510   21.5160 H   0  0  0  0  0  0  0  0  0  0  0  0
   -1.6940   12.5210   23.4310 C   0  0  0  0  0  0  0  0  0  0  0  0
   -3.2030   12.3200   23.4850 C   0  0  0  0  0  0  0  0  0  0  0  0
   -3.6740   13.4070   24.4430 C   0  0  0  0  0  0  0  0  0  0  0  0
   -2.6750   14.5550   24.2930 C   0  0  0  0  0  0  0  0  0  0  0  0
   -1.5610   14.0400   23.3850 C   0  0  0  0  0  0  0  0  0  0  0  0
   -1.2310   12.1360   24.3490 H   0  0  0  0  0  0  0  0  0  0  0  0
   -3.4790   11.3180   23.8270 H   0  0  0  0  0  0  0  0  0  0  0  0
   -3.6560   12.4700   22.4980 H   0  0  0  0  0  0  0  0  0  0  0  0
   -3.6550   13.0350   25.4740 H   0  0  0  0  0  0  0  0  0  0  0  0
   -4.6990   13.7240   24.2250 H   0  0  0  0  0  0  0  0  0  0  0  0
   -3.1460   15.4440   23.8620 H   0  0  0  0  0  0  0  0  0  0  0  0
   -2.2780   14.8380   25.2730 H   0  0  0  0  0  0  0  0  0  0  0  0
   -1.7140   14.4140   22.3640 H   0  0  0  0  0  0  0  0  0  0  0  0
   -0.5730   14.3830   23.7100 H   0  0  0  0  0  0  0  0  0  0  0  0
    3.6690    8.4860   17.7200 C   0  0  0  0  0  0  0  0  0  0  0  0
    3.9960    8.7790   16.7160 H   0  0  0  0  0  0  0  0  0  0  0  0
    4.1110    9.1800   18.4450 H   0  0  0  0  0  0  0  0  0  0  0  0
    4.1680    7.0680   18.0510 C   0  0  0  0  0  0  0  0  0  0  0  0
    3.5370    6.5150   19.3450 C   0  0  0  0  0  0  0  0  0  0  0  0
    3.9530    5.0630   19.5880 C   0  0  0  0  0  0  0  0  0  0  0  0
    3.6130    4.2430   18.4300 N   0  0  0  0  0  0  0  0  0  0  0  0
    2.5780    3.3230   18.3070 C   0  0  0  0  0  0  0  0  0  0  0  0
    2.2730    2.9000   17.1850 O   0  0  0  0  0  0  0  0  0  0  0  0
    4.2870    4.6830   17.2080 C   0  0  0  0  0  0  0  0  0  0  0  0
    3.8780    6.1170   16.8730 C   0  0  0  0  0  0  0  0  0  0  0  0
    5.2570    7.1040   18.1940 H   0  0  0  0  0  0  0  0  0  0  0  0
    3.8380    7.1160   20.2100 H   0  0  0  0  0  0  0  0  0  0  0  0
    2.4430    6.5730   19.2740 H   0  0  0  0  0  0  0  0  0  0  0  0
    3.5040    4.7050   20.5060 H   0  0  0  0  0  0  0  0  0  0  0  0
    5.0400    5.0010   19.7280 H   0  0  0  0  0  0  0  0  0  0  0  0
    5.3690    4.6260   17.3850 H   0  0  0  0  0  0  0  0  0  0  0  0
    4.0710    4.0270   16.3590 H   0  0  0  0  0  0  0  0  0  0  0  0
    4.4190    6.4500   15.9800 H   0  0  0  0  0  0  0  0  0  0  0  0
    2.8070    6.1430   16.6320 H   0  0  0  0  0  0  0  0  0  0  0  0
    1.7950    2.7960   19.5420 C   0  0  0  0  0  0  0  0  0  0  0  0
    2.7240    2.0940   20.5440 C   0  0  0  0  0  0  0  0  0  0  0  0
    3.6270    2.6600   20.7730 H   0  0  0  0  0  0  0  0  0  0  0  0
    2.2120    1.9170   21.4970 H   0  0  0  0  0  0  0  0  0  0  0  0
    3.0500    1.1230   20.1540 H   0  0  0  0  0  0  0  0  0  0  0  0
    0.9470    3.8950   20.2000 C   0  0  0  0  0  0  0  0  0  0  0  0
    0.8400    4.7900   19.5860 H   0  0  0  0  0  0  0  0  0  0  0  0
    1.3950    4.2290   21.1430 H   0  0  0  0  0  0  0  0  0  0  0  0
   -0.0620    3.5290   20.4220 H   0  0  0  0  0  0  0  0  0  0  0  0
    0.7960    1.7160   19.0440 C   0  0  0  0  0  0  0  0  0  0  0  0
    0.6970    1.7370   17.9520 H   0  0  0  0  0  0  0  0  0  0  0  0
    1.1240    0.7080   19.3230 H   0  0  0  0  0  0  0  0  0  0  0  0
   -0.2020    1.8680   19.4690 H   0  0  0  0  0  0  0  0  0  0  0  0
  1  8  1  0  0  0  0
  2  1  1  0  0  0  0
  3  4  1  0  0  0  0
  4  9  1  0  0  0  0
  4  5  2  0  0  0  0
  5 16  1  0  0  0  0
  6  5  1  0  0  0  0
  6 10  1  0  0  0  0
  7  6  2  0  0  0  0
  8  3  2  0  0  0  0
  8  7  1  0  0  0  0
 11  7  1  0  0  0  0
 12 13  1  0  0  0  0
 12  3  1  0  0  0  0
 14 12  1  0  0  0  0
 15 12  1  0  0  0  0
 16 17  2  0  0  0  0
 18 16  1  0  0  0  0
 18 20  1  0  0  0  0
 19 18  1  0  0  0  0
 20 21  1  0  0  0  0
 20 25  1  0  0  0  0
 21 26  1  0  0  0  0
 21 22  1  0  0  0  0
 22 28  1  0  0  0  0
 23 22  1  0  0  0  0
 23 31  1  0  0  0  0
 24 20  1  0  0  0  0
 24 33  1  0  0  0  0
 24 23  1  0  0  0  0
 27 21  1  0  0  0  0
 29 22  1  0  0  0  0
 30 23  1  0  0  0  0
 32 24  1  0  0  0  0
 34  1  1  0  0  0  0
 34 37  1  0  0  0  0
 34 36  1  0  0  0  0
 35 34  1  0  0  0  0
 37 45  1  0  0  0  0
 37 38  1  0  0  0  0
 38 39  1  0  0  0  0
 38 46  1  0  0  0  0
 39 49  1  0  0  0  0
 39 48  1  0  0  0  0
 40 39  1  0  0  0  0
 41 40  1  0  0  0  0
 41 54  1  0  0  0  0
 42 41  2  0  0  0  0
 43 50  1  0  0  0  0
 43 40  1  0  0  0  0
 44 43  1  0  0  0  0
 44 37  1  0  0  0  0
 47 38  1  0  0  0  0
 51 43  1  0  0  0  0
 52 44  1  0  0  0  0
 53 44  1  0  0  0  0
 54 59  1  0  0  0  0
 54 55  1  0  0  0  0
 55 56  1  0  0  0  0
 55 57  1  0  0  0  0
 58 55  1  0  0  0  0
 59 62  1  0  0  0  0
 59 61  1  0  0  0  0
 60 59  1  0  0  0  0
 63 65  1  0  0  0  0
 63 66  1  0  0  0  0
 63 54  1  0  0  0  0
 64 63  1  0  0  0  0
M  END
>  <MODEL>
24

>  <REMARK>
 VINA RESULT:    -4.987      1.955      3.503
 INTER + INTRA:          -7.821
 INTER:                  -7.820
 INTRA:                  -0.001
 UNBOUND:                -0.503
  Name = 
  10 active torsions:
  status: ('A' for Active; 'I' for Inactive)
    1  A    between atoms: C_1  and  C_2
    2  A    between atoms: C_4  and  C_5
    3  A    between atoms: N_7  and  C_8
    4  A    between atoms: C_15  and  N_16
    5  A    between atoms: N_16  and  C_17
    6  A    between atoms: C_17  and  C_18
    7  A    between atoms: C_22  and  C_24
    8  A    between atoms: C_24  and  C_25
    9  A    between atoms: C_24  and  C_26
   10  A    between atoms: C_24  and  C_27
                            x       y       z     vdW  Elec       q    Type
                         _______ _______ _______ _____ _____    ______ ____

>  <TORSDO>
F 10

$$$$
=
 OpenBabel07192307433D

 66 68  0  0  0  0  0  0  0  0999 V2000
    1.6010    2.9900   19.1530 N   0  0  0  0  0  0  0  0  0  0  0  0
    0.7100    2.6700   19.5180 H   0  0  0  0  0  0  0  0  0  0  0  0
    1.9200    5.1650   20.1920 C   0  0  0  0  0  0  0  0  0  0  0  0
    2.0010    6.5690   20.0960 C   0  0  0  0  0  0  0  0  0  0  0  0
    1.8250    7.2130   18.8690 C   0  0  0  0  0  0  0  0  0  0  0  0
    1.5980    6.4470   17.7270 C   0  0  0  0  0  0  0  0  0  0  0  0
    1.5090    5.0540   17.8180 C   0  0  0  0  0  0  0  0  0  0  0  0
    1.6270    4.3880   19.0470 C   0  0  0  0  0  0  0  0  0  0  0  0
    2.2450    7.1480   20.9830 H   0  0  0  0  0  0  0  0  0  0  0  0
    1.4920    6.9300   16.7570 H   0  0  0  0  0  0  0  0  0  0  0  0
    1.3420    4.5070   16.8950 H   0  0  0  0  0  0  0  0  0  0  0  0
    2.1470    4.5290   21.5400 C   0  0  0  0  0  0  0  0  0  0  0  0
    1.3500    3.8140   21.7680 H   0  0  0  0  0  0  0  0  0  0  0  0
    2.1840    5.2990   22.3160 H   0  0  0  0  0  0  0  0  0  0  0  0
    3.0910    3.9760   21.5710 H   0  0  0  0  0  0  0  0  0  0  0  0
    1.9110    8.6940   18.7310 C   0  0  0  0  0  0  0  0  0  0  0  0
    2.6030    9.1930   17.8500 O   0  0  0  0  0  0  0  0  0  0  0  0
    1.1490    9.4350   19.6140 N   0  0  0  0  0  0  0  0  0  0  0  0
    0.4110    8.9600   20.1140 H   0  0  0  0  0  0  0  0  0  0  0  0
    1.0540   10.8730   19.4840 C   0  0  0  0  0  0  0  0  0  0  0  0
    0.8290   11.5650   20.8220 C   0  0  0  0  0  0  0  0  0  0  0  0
    0.3240   12.9470   20.4290 C   0  0  0  0  0  0  0  0  0  0  0  0
   -0.4060   12.7600   19.0980 C   0  0  0  0  0  0  0  0  0  0  0  0
   -0.1600   11.3150   18.6720 C   0  0  0  0  0  0  0  0  0  0  0  0
    1.9720   11.2500   19.0150 H   0  0  0  0  0  0  0  0  0  0  0  0
    1.7410   11.6130   21.4260 H   0  0  0  0  0  0  0  0  0  0  0  0
    0.0680   11.0430   21.4140 H   0  0  0  0  0  0  0  0  0  0  0  0
    1.1690   13.6330   20.2920 H   0  0  0  0  0  0  0  0  0  0  0  0
   -0.3270   13.3750   21.1970 H   0  0  0  0  0  0  0  0  0  0  0  0
   -1.4780   12.9580   19.1970 H   0  0  0  0  0  0  0  0  0  0  0  0
   -0.0120   13.4590   18.3520 H   0  0  0  0  0  0  0  0  0  0  0  0
   -1.0370   10.7030   18.9170 H   0  0  0  0  0  0  0  0  0  0  0  0
    0.0060   11.2270   17.5930 H   0  0  0  0  0  0  0  0  0  0  0  0
    2.1260    2.1480   18.0810 C   0  0  0  0  0  0  0  0  0  0  0  0
    1.9130    1.0920   18.2860 H   0  0  0  0  0  0  0  0  0  0  0  0
    1.6420    2.4220   17.1360 H   0  0  0  0  0  0  0  0  0  0  0  0
    3.6410    2.3670   17.9240 C   0  0  0  0  0  0  0  0  0  0  0  0
    3.9760    3.3060   16.7470 C   0  0  0  0  0  0  0  0  0  0  0  0
    5.4740    3.6040   16.6850 C   0  0  0  0  0  0  0  0  0  0  0  0
    5.9300    4.1540   17.9580 N   0  0  0  0  0  0  0  0  0  0  0  0
    6.2630    5.4710   18.2520 C   0  0  0  0  0  0  0  0  0  0  0  0
    6.3860    5.8170   19.4340 O   0  0  0  0  0  0  0  0  0  0  0  0
    5.7220    3.2340   19.0770 C   0  0  0  0  0  0  0  0  0  0  0  0
    4.2330    2.9270   19.2320 C   0  0  0  0  0  0  0  0  0  0  0  0
    4.1170    1.3960   17.7280 H   0  0  0  0  0  0  0  0  0  0  0  0
    3.6660    2.8590   15.7950 H   0  0  0  0  0  0  0  0  0  0  0  0
    3.4210    4.2460   16.8590 H   0  0  0  0  0  0  0  0  0  0  0  0
    5.6810    4.2570   15.8460 H   0  0  0  0  0  0  0  0  0  0  0  0
    6.0360    2.6790   16.5050 H   0  0  0  0  0  0  0  0  0  0  0  0
    6.2810    2.3140   18.8610 H   0  0  0  0  0  0  0  0  0  0  0  0
    6.1190    3.6320   20.0160 H   0  0  0  0  0  0  0  0  0  0  0  0
    4.0940    2.2070   20.0470 H   0  0  0  0  0  0  0  0  0  0  0  0
    3.7000    3.8450   19.5150 H   0  0  0  0  0  0  0  0  0  0  0  0
    6.4990    6.5280   17.1360 C   0  0  0  0  0  0  0  0  0  0  0  0
    5.1740    7.0600   16.5710 C   0  0  0  0  0  0  0  0  0  0  0  0
    4.2930    6.6530   17.0690 H   0  0  0  0  0  0  0  0  0  0  0  0
    5.1150    8.1500   16.6660 H   0  0  0  0  0  0  0  0  0  0  0  0
    5.0790    6.8110   15.5080 H   0  0  0  0  0  0  0  0  0  0  0  0
    7.4350    7.6550   17.5970 C   0  0  0  0  0  0  0  0  0  0  0  0
    7.5400    7.7200   18.6810 H   0  0  0  0  0  0  0  0  0  0  0  0
    7.0640    8.6340   17.2720 H   0  0  0  0  0  0  0  0  0  0  0  0
    8.4390    7.5250   17.1790 H   0  0  0  0  0  0  0  0  0  0  0  0
    7.2210    5.8190   15.9580 C   0  0  0  0  0  0  0  0  0  0  0  0
    8.3050    5.9780   16.0000 H   0  0  0  0  0  0  0  0  0  0  0  0
    7.0490    4.7360   15.9760 H   0  0  0  0  0  0  0  0  0  0  0  0
    6.8690    6.1930   14.9900 H   0  0  0  0  0  0  0  0  0  0  0  0
  1  2  1  0  0  0  0
  3 12  1  0  0  0  0
  4  3  1  0  0  0  0
  4  9  1  0  0  0  0
  5  4  2  0  0  0  0
  6  7  2  0  0  0  0
  6  5  1  0  0  0  0
  7  8  1  0  0  0  0
  8  1  1  0  0  0  0
  8  3  2  0  0  0  0
 10  6  1  0  0  0  0
 11  7  1  0  0  0  0
 12 15  1  0  0  0  0
 12 13  1  0  0  0  0
 12 14  1  0  0  0  0
 16  5  1  0  0  0  0
 16 18  1  0  0  0  0
 17 16  2  0  0  0  0
 18 19  1  0  0  0  0
 20 18  1  0  0  0  0
 20 21  1  0  0  0  0
 21 27  1  0  0  0  0
 21 26  1  0  0  0  0
 22 21  1  0  0  0  0
 22 29  1  0  0  0  0
 23 30  1  0  0  0  0
 23 22  1  0  0  0  0
 24 32  1  0  0  0  0
 24 23  1  0  0  0  0
 24 20  1  0  0  0  0
 25 20  1  0  0  0  0
 28 22  1  0  0  0  0
 31 23  1  0  0  0  0
 33 24  1  0  0  0  0
 34 35  1  0  0  0  0
 34  1  1  0  0  0  0
 36 34  1  0  0  0  0
 37 34  1  0  0  0  0
 37 44  1  0  0  0  0
 38 47  1  0  0  0  0
 38 37  1  0  0  0  0
 39 38  1  0  0  0  0
 39 40  1  0  0  0  0
 40 41  1  0  0  0  0
 40 43  1  0  0  0  0
 41 42  2  0  0  0  0
 43 44  1  0  0  0  0
 43 51  1  0  0  0  0
 44 53  1  0  0  0  0
 44 52  1  0  0  0  0
 45 37  1  0  0  0  0
 46 38  1  0  0  0  0
 48 39  1  0  0  0  0
 49 39  1  0  0  0  0
 50 43  1  0  0  0  0
 54 59  1  0  0  0  0
 54 41  1  0  0  0  0
 55 57  1  0  0  0  0
 55 56  1  0  0  0  0
 55 54  1  0  0  0  0
 58 55  1  0  0  0  0
 59 60  1  0  0  0  0
 61 59  1  0  0  0  0
 62 59  1  0  0  0  0
 63 65  1  0  0  0  0
 63 64  1  0  0  0  0
 63 54  1  0  0  0  0
 66 63  1  0  0  0  0
M  END
>  <MODEL>
25

>  <REMARK>
 VINA RESULT:    -4.983      2.717      4.014
 INTER + INTRA:          -7.815
 INTER:                  -7.889
 INTRA:                   0.074
 UNBOUND:                -0.503
  Name = 
  10 active torsions:
  status: ('A' for Active; 'I' for Inactive)
    1  A    between atoms: C_1  and  C_2
    2  A    between atoms: C_4  and  C_5
    3  A    between atoms: N_7  and  C_8
    4  A    between atoms: C_15  and  N_16
    5  A    between atoms: N_16  and  C_17
    6  A    between atoms: C_17  and  C_18
    7  A    between atoms: C_22  and  C_24
    8  A    between atoms: C_24  and  C_25
    9  A    between atoms: C_24  and  C_26
   10  A    between atoms: C_24  and  C_27
                            x       y       z     vdW  Elec       q    Type
                         _______ _______ _______ _____ _____    ______ ____

>  <TORSDO>
F 10

$$$$
=
 OpenBabel07192307433D

 66 68  0  0  0  0  0  0  0  0999 V2000
   -0.6590   11.9950   22.7590 N   0  0  0  0  0  0  0  0  0  0  0  0
   -0.1300   12.8190   22.4930 H   0  0  0  0  0  0  0  0  0  0  0  0
    0.9070   10.9780   21.2010 C   0  0  0  0  0  0  0  0  0  0  0  0
    1.4810    9.8340   20.6120 C   0  0  0  0  0  0  0  0  0  0  0  0
    1.0510    8.5530   20.9710 C   0  0  0  0  0  0  0  0  0  0  0  0
    0.0660    8.4160   21.9470 C   0  0  0  0  0  0  0  0  0  0  0  0
   -0.5110    9.5500   22.5300 C   0  0  0  0  0  0  0  0  0  0  0  0
   -0.1380   10.8470   22.1470 C   0  0  0  0  0  0  0  0  0  0  0  0
    2.2940    9.9550   19.9020 H   0  0  0  0  0  0  0  0  0  0  0  0
   -0.2560    7.4260   22.2640 H   0  0  0  0  0  0  0  0  0  0  0  0
   -1.2660    9.3840   23.2940 H   0  0  0  0  0  0  0  0  0  0  0  0
    1.4330   12.3300   20.7920 C   0  0  0  0  0  0  0  0  0  0  0  0
    1.8150   12.3010   19.7660 H   0  0  0  0  0  0  0  0  0  0  0  0
    2.2310   12.6440   21.4720 H   0  0  0  0  0  0  0  0  0  0  0  0
    0.6490   13.0940   20.8200 H   0  0  0  0  0  0  0  0  0  0  0  0
    1.6400    7.3230   20.3730 C   0  0  0  0  0  0  0  0  0  0  0  0
    2.3410    7.3990   19.3690 O   0  0  0  0  0  0  0  0  0  0  0  0
    1.3780    6.1380   21.0320 N   0  0  0  0  0  0  0  0  0  0  0  0
    1.0350    6.1910   21.9810 H   0  0  0  0  0  0  0  0  0  0  0  0
    2.0090    4.9030   20.6160 C   0  0  0  0  0  0  0  0  0  0  0  0
    1.0670    4.0060   19.8240 C   0  0  0  0  0  0  0  0  0  0  0  0
    1.7440    2.6420   19.8780 C   0  0  0  0  0  0  0  0  0  0  0  0
    2.5150    2.6130   21.1980 C   0  0  0  0  0  0  0  0  0  0  0  0
    2.4070    4.0150   21.7910 C   0  0  0  0  0  0  0  0  0  0  0  0
    2.8960    5.1410   20.0150 H   0  0  0  0  0  0  0  0  0  0  0  0
    0.9220    4.3560   18.7970 H   0  0  0  0  0  0  0  0  0  0  0  0
    0.0800    3.9530   20.2990 H   0  0  0  0  0  0  0  0  0  0  0  0
    2.4430    2.5340   19.0410 H   0  0  0  0  0  0  0  0  0  0  0  0
    1.0170    1.8260   19.8090 H   0  0  0  0  0  0  0  0  0  0  0  0
    2.1040    1.8680   21.8870 H   0  0  0  0  0  0  0  0  0  0  0  0
    3.5620    2.3470   21.0160 H   0  0  0  0  0  0  0  0  0  0  0  0
    1.6320    4.0280   22.5690 H   0  0  0  0  0  0  0  0  0  0  0  0
    3.3430    4.3370   22.2600 H   0  0  0  0  0  0  0  0  0  0  0  0
   -2.1010   12.2230   22.8170 C   0  0  0  0  0  0  0  0  0  0  0  0
   -2.6210   11.3060   23.1160 H   0  0  0  0  0  0  0  0  0  0  0  0
   -2.3150   13.0000   23.5600 H   0  0  0  0  0  0  0  0  0  0  0  0
   -2.6190   12.7110   21.4520 C   0  0  0  0  0  0  0  0  0  0  0  0
   -1.6890   12.2980   20.2940 C   0  0  0  0  0  0  0  0  0  0  0  0
   -2.2840   12.6870   18.9400 C   0  0  0  0  0  0  0  0  0  0  0  0
   -3.6160   12.1110   18.7920 N   0  0  0  0  0  0  0  0  0  0  0  0
   -3.9990   11.0320   18.0040 C   0  0  0  0  0  0  0  0  0  0  0  0
   -5.1090   10.5130   18.1840 O   0  0  0  0  0  0  0  0  0  0  0  0
   -4.5490   12.5750   19.8200 C   0  0  0  0  0  0  0  0  0  0  0  0
   -4.0430   12.1750   21.2050 C   0  0  0  0  0  0  0  0  0  0  0  0
   -2.6710   13.8090   21.4700 H   0  0  0  0  0  0  0  0  0  0  0  0
   -0.7070   12.7740   20.3970 H   0  0  0  0  0  0  0  0  0  0  0  0
   -1.5270   11.2120   20.3220 H   0  0  0  0  0  0  0  0  0  0  0  0
   -1.6070   12.3940   18.1470 H   0  0  0  0  0  0  0  0  0  0  0  0
   -2.3870   13.7780   18.8740 H   0  0  0  0  0  0  0  0  0  0  0  0
   -4.6180   13.6670   19.7390 H   0  0  0  0  0  0  0  0  0  0  0  0
   -5.5590   12.1820   19.6660 H   0  0  0  0  0  0  0  0  0  0  0  0
   -4.7280   12.5620   21.9680 H   0  0  0  0  0  0  0  0  0  0  0  0
   -4.0450   11.0800   21.2910 H   0  0  0  0  0  0  0  0  0  0  0  0
   -3.0790   10.4590   16.8900 C   0  0  0  0  0  0  0  0  0  0  0  0
   -2.9160   11.4490   15.7270 C   0  0  0  0  0  0  0  0  0  0  0  0
   -2.8680   12.4920   16.0440 H   0  0  0  0  0  0  0  0  0  0  0  0
   -1.9960   11.2480   15.1660 H   0  0  0  0  0  0  0  0  0  0  0  0
   -3.7570   11.3700   15.0300 H   0  0  0  0  0  0  0  0  0  0  0  0
   -1.7300    9.9790   17.4450 C   0  0  0  0  0  0  0  0  0  0  0  0
   -1.8230    9.2350   18.2370 H   0  0  0  0  0  0  0  0  0  0  0  0
   -1.1630   10.8110   17.8800 H   0  0  0  0  0  0  0  0  0  0  0  0
   -1.1160    9.5370   16.6520 H   0  0  0  0  0  0  0  0  0  0  0  0
   -3.7770    9.2040   16.2980 C   0  0  0  0  0  0  0  0  0  0  0  0
   -4.1440    8.5400   17.0900 H   0  0  0  0  0  0  0  0  0  0  0  0
   -4.6380    9.4790   15.6780 H   0  0  0  0  0  0  0  0  0  0  0  0
   -3.0900    8.6240   15.6720 H   0  0  0  0  0  0  0  0  0  0  0  0
  1 34  1  0  0  0  0
  2  1  1  0  0  0  0
  3  8  1  0  0  0  0
  4  5  1  0  0  0  0
  4  3  2  0  0  0  0
  5  6  2  0  0  0  0
  6 10  1  0  0  0  0
  6  7  1  0  0  0  0
  7 11  1  0  0  0  0
  8  7  2  0  0  0  0
  8  1  1  0  0  0  0
  9  4  1  0  0  0  0
 12 15  1  0  0  0  0
 12  3  1  0  0  0  0
 12 14  1  0  0  0  0
 13 12  1  0  0  0  0
 16  5  1  0  0  0  0
 16 18  1  0  0  0  0
 17 16  2  0  0  0  0
 18 19  1  0  0  0  0
 20 18  1  0  0  0  0
 20 24  1  0  0  0  0
 21 22  1  0  0  0  0
 21 27  1  0  0  0  0
 21 20  1  0  0  0  0
 22 23  1  0  0  0  0
 23 24  1  0  0  0  0
 23 30  1  0  0  0  0
 24 33  1  0  0  0  0
 24 32  1  0  0  0  0
 25 20  1  0  0  0  0
 26 21  1  0  0  0  0
 28 22  1  0  0  0  0
 29 22  1  0  0  0  0
 31 23  1  0  0  0  0
 34 35  1  0  0  0  0
 34 36  1  0  0  0  0
 37 45  1  0  0  0  0
 37 34  1  0  0  0  0
 38 47  1  0  0  0  0
 38 46  1  0  0  0  0
 38 37  1  0  0  0  0
 39 38  1  0  0  0  0
 40 39  1  0  0  0  0
 40 43  1  0  0  0  0
 41 42  2  0  0  0  0
 41 40  1  0  0  0  0
 43 44  1  0  0  0  0
 44 53  1  0  0  0  0
 44 37  1  0  0  0  0
 44 52  1  0  0  0  0
 48 39  1  0  0  0  0
 49 39  1  0  0  0  0
 50 43  1  0  0  0  0
 51 43  1  0  0  0  0
 54 59  1  0  0  0  0
 54 41  1  0  0  0  0
 55 56  1  0  0  0  0
 55 54  1  0  0  0  0
 57 55  1  0  0  0  0
 58 55  1  0  0  0  0
 59 61  1  0  0  0  0
 59 60  1  0  0  0  0
 62 59  1  0  0  0  0
 63 54  1  0  0  0  0
 63 64  1  0  0  0  0
 65 63  1  0  0  0  0
 66 63  1  0  0  0  0
M  END
>  <MODEL>
26

>  <REMARK>
 VINA RESULT:    -4.917      3.543      9.122
 INTER + INTRA:          -7.719
 INTER:                  -8.101
 INTRA:                   0.382
 UNBOUND:                -0.503
  Name = 
  10 active torsions:
  status: ('A' for Active; 'I' for Inactive)
    1  A    between atoms: C_1  and  C_2
    2  A    between atoms: C_4  and  C_5
    3  A    between atoms: N_7  and  C_8
    4  A    between atoms: C_15  and  N_16
    5  A    between atoms: N_16  and  C_17
    6  A    between atoms: C_17  and  C_18
    7  A    between atoms: C_22  and  C_24
    8  A    between atoms: C_24  and  C_25
    9  A    between atoms: C_24  and  C_26
   10  A    between atoms: C_24  and  C_27
                            x       y       z     vdW  Elec       q    Type
                         _______ _______ _______ _____ _____    ______ ____

>  <TORSDO>
F 10

$$$$
=
 OpenBabel07192307433D

 66 68  0  0  0  0  0  0  0  0999 V2000
    7.4210    6.5300   16.5840 N   0  0  0  0  0  0  0  0  0  0  0  0
    8.1080    6.3730   15.8540 H   0  0  0  0  0  0  0  0  0  0  0  0
    8.2890    7.3200   18.7140 C   0  0  0  0  0  0  0  0  0  0  0  0
    8.7270    8.3710   19.5440 C   0  0  0  0  0  0  0  0  0  0  0  0
    8.7210    9.6920   19.0890 C   0  0  0  0  0  0  0  0  0  0  0  0
    8.3050    9.9590   17.7860 C   0  0  0  0  0  0  0  0  0  0  0  0
    7.8610    8.9200   16.9600 C   0  0  0  0  0  0  0  0  0  0  0  0
    7.8050    7.5940   17.4120 C   0  0  0  0  0  0  0  0  0  0  0  0
    9.1130    8.1390   20.5330 H   0  0  0  0  0  0  0  0  0  0  0  0
    8.3260   10.9780   17.4030 H   0  0  0  0  0  0  0  0  0  0  0  0
    7.5590    9.1850   15.9510 H   0  0  0  0  0  0  0  0  0  0  0  0
    8.3460    5.9140   19.2530 C   0  0  0  0  0  0  0  0  0  0  0  0
    7.5510    5.3010   18.8160 H   0  0  0  0  0  0  0  0  0  0  0  0
    8.2430    5.9260   20.3430 H   0  0  0  0  0  0  0  0  0  0  0  0
    9.2960    5.4270   19.0110 H   0  0  0  0  0  0  0  0  0  0  0  0
    9.1850   10.8250   19.9370 C   0  0  0  0  0  0  0  0  0  0  0  0
    9.8530   11.7300   19.4490 O   0  0  0  0  0  0  0  0  0  0  0  0
    8.7870   10.8000   21.2600 N   0  0  0  0  0  0  0  0  0  0  0  0
    8.0270   10.1830   21.5130 H   0  0  0  0  0  0  0  0  0  0  0  0
    9.0670   11.9140   22.1400 C   0  0  0  0  0  0  0  0  0  0  0  0
    8.3970   11.7670   23.4990 C   0  0  0  0  0  0  0  0  0  0  0  0
    8.4360   13.1780   24.0710 C   0  0  0  0  0  0  0  0  0  0  0  0
    8.3880   14.1170   22.8660 C   0  0  0  0  0  0  0  0  0  0  0  0
    8.4950   13.2330   21.6260 C   0  0  0  0  0  0  0  0  0  0  0  0
   10.1540   12.0060   22.2640 H   0  0  0  0  0  0  0  0  0  0  0  0
    8.9100   11.0450   24.1420 H   0  0  0  0  0  0  0  0  0  0  0  0
    7.3570   11.4350   23.3920 H   0  0  0  0  0  0  0  0  0  0  0  0
    9.3700   13.3350   24.6240 H   0  0  0  0  0  0  0  0  0  0  0  0
    7.6080   13.3570   24.7650 H   0  0  0  0  0  0  0  0  0  0  0  0
    7.4610   14.7000   22.8470 H   0  0  0  0  0  0  0  0  0  0  0  0
    9.2200   14.8280   22.9100 H   0  0  0  0  0  0  0  0  0  0  0  0
    7.4980   13.0820   21.1930 H   0  0  0  0  0  0  0  0  0  0  0  0
    9.1210   13.6860   20.8500 H   0  0  0  0  0  0  0  0  0  0  0  0
    6.8850    5.2950   17.1510 C   0  0  0  0  0  0  0  0  0  0  0  0
    7.3100    4.4230   16.6400 H   0  0  0  0  0  0  0  0  0  0  0  0
    7.1510    5.2390   18.2130 H   0  0  0  0  0  0  0  0  0  0  0  0
    5.3490    5.2820   17.0430 C   0  0  0  0  0  0  0  0  0  0  0  0
    4.7670    3.8600   17.1790 C   0  0  0  0  0  0  0  0  0  0  0  0
    3.2380    3.8860   17.1890 C   0  0  0  0  0  0  0  0  0  0  0  0
    2.7580    4.7670   18.2490 N   0  0  0  0  0  0  0  0  0  0  0  0
    2.1890    4.4110   19.4660 C   0  0  0  0  0  0  0  0  0  0  0  0
    2.0690    5.2660   20.3530 O   0  0  0  0  0  0  0  0  0  0  0  0
    3.2090    6.1500   18.0820 C   0  0  0  0  0  0  0  0  0  0  0  0
    4.7360    6.2080   18.1110 C   0  0  0  0  0  0  0  0  0  0  0  0
    5.0640    5.6720   16.0550 H   0  0  0  0  0  0  0  0  0  0  0  0
    5.1020    3.2240   16.3520 H   0  0  0  0  0  0  0  0  0  0  0  0
    5.1300    3.4020   18.1080 H   0  0  0  0  0  0  0  0  0  0  0  0
    2.8580    2.8760   17.2760 H   0  0  0  0  0  0  0  0  0  0  0  0
    2.8610    4.2800   16.2370 H   0  0  0  0  0  0  0  0  0  0  0  0
    2.8320    6.5090   17.1160 H   0  0  0  0  0  0  0  0  0  0  0  0
    2.7970    6.8130   18.8490 H   0  0  0  0  0  0  0  0  0  0  0  0
    5.0630    7.2420   17.9450 H   0  0  0  0  0  0  0  0  0  0  0  0
    5.0920    5.9110   19.1070 H   0  0  0  0  0  0  0  0  0  0  0  0
    1.6830    2.9680   19.7460 C   0  0  0  0  0  0  0  0  0  0  0  0
    0.4620    2.6180   18.8830 C   0  0  0  0  0  0  0  0  0  0  0  0
    0.6940    2.5100   17.8230 H   0  0  0  0  0  0  0  0  0  0  0  0
    0.0110    1.6730   19.2060 H   0  0  0  0  0  0  0  0  0  0  0  0
   -0.3030    3.3980   18.9610 H   0  0  0  0  0  0  0  0  0  0  0  0
    2.8070    1.9280   19.6230 C   0  0  0  0  0  0  0  0  0  0  0  0
    2.6480    1.2060   18.8200 H   0  0  0  0  0  0  0  0  0  0  0  0
    2.9020    1.3390   20.5430 H   0  0  0  0  0  0  0  0  0  0  0  0
    3.7710    2.4150   19.4380 H   0  0  0  0  0  0  0  0  0  0  0  0
    1.2020    2.9140   21.2220 C   0  0  0  0  0  0  0  0  0  0  0  0
    2.0450    2.9800   21.9200 H   0  0  0  0  0  0  0  0  0  0  0  0
    0.5210    3.7420   21.4520 H   0  0  0  0  0  0  0  0  0  0  0  0
    0.6700    1.9800   21.4350 H   0  0  0  0  0  0  0  0  0  0  0  0
  1 34  1  0  0  0  0
  1  8  1  0  0  0  0
  2  1  1  0  0  0  0
  3 12  1  0  0  0  0
  3  4  1  0  0  0  0
  4  9  1  0  0  0  0
  5  4  2  0  0  0  0
  5 16  1  0  0  0  0
  6  5  1  0  0  0  0
  7  8  1  0  0  0  0
  7  6  2  0  0  0  0
  8  3  2  0  0  0  0
 10  6  1  0  0  0  0
 11  7  1  0  0  0  0
 12 14  1  0  0  0  0
 13 12  1  0  0  0  0
 15 12  1  0  0  0  0
 16 18  1  0  0  0  0
 17 16  2  0  0  0  0
 18 19  1  0  0  0  0
 18 20  1  0  0  0  0
 20 25  1  0  0  0  0
 20 21  1  0  0  0  0
 21 22  1  0  0  0  0
 21 26  1  0  0  0  0
 22 28  1  0  0  0  0
 22 29  1  0  0  0  0
 23 31  1  0  0  0  0
 23 22  1  0  0  0  0
 24 20  1  0  0  0  0
 24 23  1  0  0  0  0
 27 21  1  0  0  0  0
 30 23  1  0  0  0  0
 32 24  1  0  0  0  0
 33 24  1  0  0  0  0
 34 36  1  0  0  0  0
 35 34  1  0  0  0  0
 37 34  1  0  0  0  0
 37 38  1  0  0  0  0
 37 44  1  0  0  0  0
 38 39  1  0  0  0  0
 38 47  1  0  0  0  0
 39 48  1  0  0  0  0
 39 40  1  0  0  0  0
 40 41  1  0  0  0  0
 41 54  1  0  0  0  0
 41 42  2  0  0  0  0
 43 44  1  0  0  0  0
 43 40  1  0  0  0  0
 43 51  1  0  0  0  0
 44 53  1  0  0  0  0
 45 37  1  0  0  0  0
 46 38  1  0  0  0  0
 49 39  1  0  0  0  0
 50 43  1  0  0  0  0
 52 44  1  0  0  0  0
 54 63  1  0  0  0  0
 55 58  1  0  0  0  0
 55 57  1  0  0  0  0
 55 54  1  0  0  0  0
 56 55  1  0  0  0  0
 59 54  1  0  0  0  0
 59 61  1  0  0  0  0
 60 59  1  0  0  0  0
 62 59  1  0  0  0  0
 63 66  1  0  0  0  0
 63 65  1  0  0  0  0
 63 64  1  0  0  0  0
M  END
>  <MODEL>
27

>  <REMARK>
 VINA RESULT:    -4.672      5.864      7.917
 INTER + INTRA:          -7.360
 INTER:                  -8.166
 INTRA:                   0.806
 UNBOUND:                -0.503
  Name = 
  10 active torsions:
  status: ('A' for Active; 'I' for Inactive)
    1  A    between atoms: C_1  and  C_2
    2  A    between atoms: C_4  and  C_5
    3  A    between atoms: N_7  and  C_8
    4  A    between atoms: C_15  and  N_16
    5  A    between atoms: N_16  and  C_17
    6  A    between atoms: C_17  and  C_18
    7  A    between atoms: C_22  and  C_24
    8  A    between atoms: C_24  and  C_25
    9  A    between atoms: C_24  and  C_26
   10  A    between atoms: C_24  and  C_27
                            x       y       z     vdW  Elec       q    Type
                         _______ _______ _______ _____ _____    ______ ____

>  <TORSDO>
F 10

$$$$
