=
 OpenBabel07192307433D

 58 60  0  0  1  0  0  0  0  0999 V2000
    5.4890    4.7990   18.7710 C   0  0  0  0  0  0  0  0  0  0  0  0
    4.6560    5.8660   19.1480 C   0  0  0  0  0  0  0  0  0  0  0  0
    3.2800    5.6870   19.3330 C   0  0  0  0  0  0  0  0  0  0  0  0
    2.7270    4.4220   19.1370 C   0  0  0  0  0  0  0  0  0  0  0  0
    3.5360    3.3340   18.7650 C   0  0  0  0  0  0  0  0  0  0  0  0
    4.9120    3.5360   18.5790 C   0  0  0  0  0  0  0  0  0  0  0  0
    5.0920    6.8530   19.2960 H   0  0  0  0  0  0  0  0  0  0  0  0
    1.6620    4.2490   19.2690 H   0  0  0  0  0  0  0  0  0  0  0  0
    5.5350    2.6910   18.2830 H   0  0  0  0  0  0  0  0  0  0  0  0
    2.5350    6.8140   19.7160 N   0  0  0  0  0  0  0  0  0  0  0  0
    2.1730    7.9080   18.9530 C   0  0  0  0  0  0  0  0  0  0  0  0
    2.4530    8.1160   17.7780 O   0  0  0  0  0  0  0  0  0  0  0  0
    2.2040    6.8650   20.6770 H   0  0  0  0  0  0  0  0  0  0  0  0
    1.3430    8.8970   19.7180 C   0  0  0  0  0  0  0  0  0  0  0  0
    1.0040    8.6520   21.0380 C   0  0  0  0  0  0  0  0  0  0  0  0
    0.2460    9.6090   21.7130 C   0  0  0  0  0  0  0  0  0  0  0  0
   -0.1600   10.7840   21.0670 C   0  0  0  0  0  0  0  0  0  0  0  0
    0.2390   10.9190   19.7320 C   0  0  0  0  0  0  0  0  0  0  0  0
    0.9740   10.0180   19.0390 N   0  0  0  0  0  0  0  0  0  0  0  0
    1.3210    7.7410   21.5360 H   0  0  0  0  0  0  0  0  0  0  0  0
   -0.0110    9.4080   22.7500 H   0  0  0  0  0  0  0  0  0  0  0  0
   -0.0300   11.8010   19.1530 H   0  0  0  0  0  0  0  0  0  0  0  0
   -0.9740   11.8880   21.7570 C   0  0  0  0  0  0  0  0  0  0  0  0
   -2.1600   12.2860   20.8520 C   0  0  0  0  0  0  0  0  0  0  0  0
   -1.8580   12.3270   19.7980 H   0  0  0  0  0  0  0  0  0  0  0  0
   -2.5620   13.2720   21.1100 H   0  0  0  0  0  0  0  0  0  0  0  0
   -2.9810   11.5630   20.9340 H   0  0  0  0  0  0  0  0  0  0  0  0
   -1.5200   11.3800   23.1090 C   0  0  0  0  0  0  0  0  0  0  0  0
   -0.7040   11.1540   23.8060 H   0  0  0  0  0  0  0  0  0  0  0  0
   -2.1220   10.4710   23.0000 H   0  0  0  0  0  0  0  0  0  0  0  0
   -2.1640   12.1320   23.5820 H   0  0  0  0  0  0  0  0  0  0  0  0
   -0.1620   13.1700   22.0460 C   0  0  0  0  0  0  0  0  0  0  0  0
    0.9090   13.0180   21.8760 H   0  0  0  0  0  0  0  0  0  0  0  0
   -0.4780   13.9890   21.3890 H   0  0  0  0  0  0  0  0  0  0  0  0
   -0.3010   13.5100   23.0790 H   0  0  0  0  0  0  0  0  0  0  0  0
    2.9140    1.9780   18.5400 C   0  0  0  0  0  0  0  0  0  0  0  0
    2.3390    1.8490   17.3100 F   0  0  0  0  0  0  0  0  0  0  0  0
    3.8110    0.9570   18.6330 F   0  0  0  0  0  0  0  0  0  0  0  0
    1.9300    1.7000   19.4400 F   0  0  0  0  0  0  0  0  0  0  0  0
    6.9830    5.0320   18.5950 C   0  0  2  0  0  0  0  0  0  0  0  0
    7.4660    4.0530   18.4700 H   0  0  0  0  0  0  0  0  0  0  0  0
    7.5930    5.6630   19.8530 C   0  0  0  0  0  0  0  0  0  0  0  0
    7.1370    6.6370   20.0590 H   0  0  0  0  0  0  0  0  0  0  0  0
    8.6710    5.8120   19.7530 H   0  0  0  0  0  0  0  0  0  0  0  0
    7.4250    5.0300   20.7320 H   0  0  0  0  0  0  0  0  0  0  0  0
    7.2490    5.8700   17.3270 C   0  0  0  0  0  0  0  0  0  0  0  0
    8.3250    6.0490   17.2030 H   0  0  0  0  0  0  0  0  0  0  0  0
    6.7920    6.8640   17.4290 H   0  0  0  0  0  0  0  0  0  0  0  0
    6.7220    5.2150   16.0960 C   0  0  0  0  0  0  0  0  0  0  0  0
    7.1760    4.1090   15.5440 N   0  0  0  0  0  0  0  0  0  0  0  0
    6.4130    3.8380   14.4330 N   0  0  0  0  0  0  0  0  0  0  0  0
    5.5160    4.7860   14.3270 C   0  0  0  0  0  0  0  0  0  0  0  0
    5.6700    5.6730   15.3470 N   0  0  0  0  0  0  0  0  0  0  0  0
    4.7630    4.8660   13.5550 H   0  0  0  0  0  0  0  0  0  0  0  0
    4.8680    6.8420   15.5800 C   0  0  0  0  0  0  0  0  0  0  0  0
    3.8250    6.5920   15.3700 H   0  0  0  0  0  0  0  0  0  0  0  0
    4.9700    7.1570   16.6210 H   0  0  0  0  0  0  0  0  0  0  0  0
    5.2070    7.6440   14.9230 H   0  0  0  0  0  0  0  0  0  0  0  0
  1  2  1  0  0  0  0
  2  7  1  0  0  0  0
  2  3  2  0  0  0  0
  3 10  1  0  0  0  0
  4  8  1  0  0  0  0
  4  3  1  0  0  0  0
  5  4  2  0  0  0  0
  6  5  1  0  0  0  0
  6  1  2  0  0  0  0
  9  6  1  0  0  0  0
 10 13  1  0  0  0  0
 11 10  1  0  0  0  0
 11 14  1  0  0  0  0
 12 11  2  0  0  0  0
 14 15  1  0  0  0  0
 15 20  1  0  0  0  0
 15 16  2  0  0  0  0
 16 21  1  0  0  0  0
 17 16  1  0  0  0  0
 17 23  1  0  0  0  0
 18 17  2  0  0  0  0
 19 14  2  0  0  0  0
 19 18  1  0  0  0  0
 22 18  1  0  0  0  0
 23 32  1  0  0  0  0
 23 28  1  0  0  0  0
 24 27  1  0  0  0  0
 24 26  1  0  0  0  0
 24 23  1  0  0  0  0
 25 24  1  0  0  0  0
 28 31  1  0  0  0  0
 28 29  1  0  0  0  0
 30 28  1  0  0  0  0
 32 35  1  0  0  0  0
 33 32  1  0  0  0  0
 34 32  1  0  0  0  0
 36 38  1  0  0  0  0
 36  5  1  0  0  0  0
 36 39  1  0  0  0  0
 37 36  1  0  0  0  0
 40 41  1  6  0  0  0
 40  1  1  0  0  0  0
 40 42  1  0  0  0  0
 42 43  1  0  0  0  0
 42 45  1  0  0  0  0
 44 42  1  0  0  0  0
 46 48  1  0  0  0  0
 46 40  1  0  0  0  0
 47 46  1  0  0  0  0
 49 46  1  0  0  0  0
 50 49  2  0  0  0  0
 51 50  1  0  0  0  0
 52 51  2  0  0  0  0
 52 53  1  0  0  0  0
 53 55  1  0  0  0  0
 53 49  1  0  0  0  0
 54 52  1  0  0  0  0
 55 57  1  0  0  0  0
 56 55  1  0  0  0  0
 58 55  1  0  0  0  0
M  END
>  <MODEL>
1

>  <REMARK>
 VINA RESULT:    -8.972      0.000      0.000
 INTER + INTRA:         -13.457
 INTER:                 -12.063
 INTRA:                  -1.393
 UNBOUND:                 0.498
  Name = 
  12 active torsions:
  status: ('A' for Active; 'I' for Inactive)
    1  A    between atoms: C_1  and  C_2
    2  A    between atoms: C_2  and  C_3
    3  A    between atoms: C_2  and  C_10
    4  A    between atoms: C_3  and  C_4
    5  A    between atoms: N_8  and  C_9
    6  A    between atoms: C_12  and  N_13
    7  A    between atoms: C_14  and  C_16
    8  A    between atoms: C_19  and  C_20
    9  A    between atoms: C_20  and  C_21
   10  A    between atoms: C_20  and  C_22
   11  A    between atoms: C_20  and  C_23
   12  A    between atoms: C_27  and  C_28
                            x       y       z     vdW  Elec       q    Type
                         _______ _______ _______ _____ _____    ______ ____

>  <TORSDO>
F 12

$$$$
=
 OpenBabel07192307433D

 58 60  0  0  1  0  0  0  0  0999 V2000
    3.4270    5.4890   18.9970 C   0  0  0  0  0  0  0  0  0  0  0  0
    2.6960    6.5930   19.4660 C   0  0  0  0  0  0  0  0  0  0  0  0
    1.7380    6.4570   20.4780 C   0  0  0  0  0  0  0  0  0  0  0  0
    1.5080    5.1970   21.0300 C   0  0  0  0  0  0  0  0  0  0  0  0
    2.2270    4.0750   20.5840 C   0  0  0  0  0  0  0  0  0  0  0  0
    3.1790    4.2310   19.5640 C   0  0  0  0  0  0  0  0  0  0  0  0
    2.8760    7.5740   19.0290 H   0  0  0  0  0  0  0  0  0  0  0  0
    0.7700    5.0550   21.8150 H   0  0  0  0  0  0  0  0  0  0  0  0
    3.7300    3.3570   19.2160 H   0  0  0  0  0  0  0  0  0  0  0  0
    1.0660    7.6210   20.8820 N   0  0  0  0  0  0  0  0  0  0  0  0
    1.0000    8.8440   20.2420 C   0  0  0  0  0  0  0  0  0  0  0  0
    1.5410    9.1580   19.1880 O   0  0  0  0  0  0  0  0  0  0  0  0
    0.5500    7.5960   21.7590 H   0  0  0  0  0  0  0  0  0  0  0  0
    0.1490    9.8360   20.9790 C   0  0  0  0  0  0  0  0  0  0  0  0
   -0.1200    9.6630   22.3260 C   0  0  0  0  0  0  0  0  0  0  0  0
   -0.9010   10.6220   22.9720 C   0  0  0  0  0  0  0  0  0  0  0  0
   -1.3990   11.7280   22.2700 C   0  0  0  0  0  0  0  0  0  0  0  0
   -1.0650   11.7940   20.9120 C   0  0  0  0  0  0  0  0  0  0  0  0
   -0.3120   10.8880   20.2470 N   0  0  0  0  0  0  0  0  0  0  0  0
    0.2690    8.8060   22.8670 H   0  0  0  0  0  0  0  0  0  0  0  0
   -1.1020   10.4770   24.0300 H   0  0  0  0  0  0  0  0  0  0  0  0
   -1.4080   12.6190   20.2900 H   0  0  0  0  0  0  0  0  0  0  0  0
   -2.2450   12.8300   22.9240 C   0  0  0  0  0  0  0  0  0  0  0  0
   -2.9400   13.6590   21.8220 C   0  0  0  0  0  0  0  0  0  0  0  0
   -2.3020   13.7540   20.9350 H   0  0  0  0  0  0  0  0  0  0  0  0
   -3.1770   14.6740   22.1580 H   0  0  0  0  0  0  0  0  0  0  0  0
   -3.8790   13.1880   21.5060 H   0  0  0  0  0  0  0  0  0  0  0  0
   -3.3190   12.2040   23.8390 C   0  0  0  0  0  0  0  0  0  0  0  0
   -3.6420   12.9110   24.6130 H   0  0  0  0  0  0  0  0  0  0  0  0
   -2.9600   11.3010   24.3450 H   0  0  0  0  0  0  0  0  0  0  0  0
   -4.2060   11.9130   23.2620 H   0  0  0  0  0  0  0  0  0  0  0  0
   -1.4230   13.8110   23.7910 C   0  0  0  0  0  0  0  0  0  0  0  0
   -0.3460   13.6790   23.6410 H   0  0  0  0  0  0  0  0  0  0  0  0
   -1.6580   14.8510   23.5330 H   0  0  0  0  0  0  0  0  0  0  0  0
   -1.6400   13.6830   24.8580 H   0  0  0  0  0  0  0  0  0  0  0  0
    1.9490    2.7180   21.1830 C   0  0  0  0  0  0  0  0  0  0  0  0
    0.8920    2.7190   22.0440 F   0  0  0  0  0  0  0  0  0  0  0  0
    1.6570    1.7720   20.2470 F   0  0  0  0  0  0  0  0  0  0  0  0
    3.0060    2.2350   21.8940 F   0  0  0  0  0  0  0  0  0  0  0  0
    4.4700    5.6820   17.9040 C   0  0  2  0  0  0  0  0  0  0  0  0
    5.4530    5.7710   18.3870 H   0  0  0  0  0  0  0  0  0  0  0  0
    4.2340    6.9930   17.1450 C   0  0  0  0  0  0  0  0  0  0  0  0
    4.1260    6.8060   16.0710 H   0  0  0  0  0  0  0  0  0  0  0  0
    5.0600    7.6970   17.2790 H   0  0  0  0  0  0  0  0  0  0  0  0
    3.3180    7.4870   17.4860 H   0  0  0  0  0  0  0  0  0  0  0  0
    4.4990    4.4550   16.9680 C   0  0  0  0  0  0  0  0  0  0  0  0
    3.5230    4.3160   16.4860 H   0  0  0  0  0  0  0  0  0  0  0  0
    4.6760    3.5410   17.5510 H   0  0  0  0  0  0  0  0  0  0  0  0
    5.5480    4.5720   15.9140 C   0  0  0  0  0  0  0  0  0  0  0  0
    5.3440    4.6460   14.6160 N   0  0  0  0  0  0  0  0  0  0  0  0
    6.5660    4.7540   13.9950 N   0  0  0  0  0  0  0  0  0  0  0  0
    7.4870    4.7350   14.9250 C   0  0  0  0  0  0  0  0  0  0  0  0
    6.8970    4.6230   16.1450 N   0  0  0  0  0  0  0  0  0  0  0  0
    8.5540    4.8000   14.7650 H   0  0  0  0  0  0  0  0  0  0  0  0
    7.5730    4.5820   17.4130 C   0  0  0  0  0  0  0  0  0  0  0  0
    8.6090    4.8950   17.2600 H   0  0  0  0  0  0  0  0  0  0  0  0
    7.0820    5.2590   18.1150 H   0  0  0  0  0  0  0  0  0  0  0  0
    7.5370    3.5640   17.8040 H   0  0  0  0  0  0  0  0  0  0  0  0
  1  2  2  0  0  0  0
  1  6  1  0  0  0  0
  2  3  1  0  0  0  0
  3 10  1  0  0  0  0
  3  4  2  0  0  0  0
  4  8  1  0  0  0  0
  5  4  1  0  0  0  0
  5 36  1  0  0  0  0
  6  5  2  0  0  0  0
  7  2  1  0  0  0  0
  9  6  1  0  0  0  0
 10 13  1  0  0  0  0
 11 10  1  0  0  0  0
 11 14  1  0  0  0  0
 12 11  2  0  0  0  0
 14 15  1  0  0  0  0
 15 20  1  0  0  0  0
 15 16  2  0  0  0  0
 16 21  1  0  0  0  0
 17 23  1  0  0  0  0
 17 16  1  0  0  0  0
 18 17  2  0  0  0  0
 19 18  1  0  0  0  0
 19 14  2  0  0  0  0
 22 18  1  0  0  0  0
 23 32  1  0  0  0  0
 23 28  1  0  0  0  0
 24 26  1  0  0  0  0
 24 23  1  0  0  0  0
 25 24  1  0  0  0  0
 27 24  1  0  0  0  0
 28 30  1  0  0  0  0
 28 29  1  0  0  0  0
 31 28  1  0  0  0  0
 32 35  1  0  0  0  0
 33 32  1  0  0  0  0
 34 32  1  0  0  0  0
 36 39  1  0  0  0  0
 36 37  1  0  0  0  0
 38 36  1  0  0  0  0
 40 41  1  1  0  0  0
 40  1  1  0  0  0  0
 42 44  1  0  0  0  0
 42 45  1  0  0  0  0
 42 40  1  0  0  0  0
 43 42  1  0  0  0  0
 46 48  1  0  0  0  0
 46 40  1  0  0  0  0
 47 46  1  0  0  0  0
 49 53  1  0  0  0  0
 49 46  1  0  0  0  0
 50 49  2  0  0  0  0
 51 50  1  0  0  0  0
 51 52  2  0  0  0  0
 52 53  1  0  0  0  0
 53 55  1  0  0  0  0
 54 52  1  0  0  0  0
 55 58  1  0  0  0  0
 55 57  1  0  0  0  0
 56 55  1  0  0  0  0
M  END
>  <MODEL>
2

>  <REMARK>
 VINA RESULT:    -8.760      1.654      2.490
 INTER + INTRA:         -13.127
 INTER:                 -12.662
 INTRA:                  -0.466
 UNBOUND:                 0.498
  Name = 
  12 active torsions:
  status: ('A' for Active; 'I' for Inactive)
    1  A    between atoms: C_1  and  C_2
    2  A    between atoms: C_2  and  C_3
    3  A    between atoms: C_2  and  C_10
    4  A    between atoms: C_3  and  C_4
    5  A    between atoms: N_8  and  C_9
    6  A    between atoms: C_12  and  N_13
    7  A    between atoms: C_14  and  C_16
    8  A    between atoms: C_19  and  C_20
    9  A    between atoms: C_20  and  C_21
   10  A    between atoms: C_20  and  C_22
   11  A    between atoms: C_20  and  C_23
   12  A    between atoms: C_27  and  C_28
                            x       y       z     vdW  Elec       q    Type
                         _______ _______ _______ _____ _____    ______ ____

>  <TORSDO>
F 12

$$$$
=
 OpenBabel07192307433D

 58 60  0  0  1  0  0  0  0  0999 V2000
    4.2920    5.0660   17.1760 C   0  0  0  0  0  0  0  0  0  0  0  0
    3.6470    6.1880   17.7210 C   0  0  0  0  0  0  0  0  0  0  0  0
    2.5800    6.0530   18.6170 C   0  0  0  0  0  0  0  0  0  0  0  0
    2.1510    4.7750   18.9740 C   0  0  0  0  0  0  0  0  0  0  0  0
    2.7800    3.6330   18.4490 C   0  0  0  0  0  0  0  0  0  0  0  0
    3.8440    3.7900   17.5470 C   0  0  0  0  0  0  0  0  0  0  0  0
    3.9830    7.1840   17.4370 H   0  0  0  0  0  0  0  0  0  0  0  0
    1.3240    4.6340   19.6650 H   0  0  0  0  0  0  0  0  0  0  0  0
    4.3250    2.9020   17.1360 H   0  0  0  0  0  0  0  0  0  0  0  0
    2.0070    7.2360   19.1110 N   0  0  0  0  0  0  0  0  0  0  0  0
    1.8960    8.4650   18.4890 C   0  0  0  0  0  0  0  0  0  0  0  0
    2.3000    8.7680   17.3720 O   0  0  0  0  0  0  0  0  0  0  0  0
    1.6140    7.2210   20.0500 H   0  0  0  0  0  0  0  0  0  0  0  0
    1.1860    9.4790   19.3370 C   0  0  0  0  0  0  0  0  0  0  0  0
    0.8940    9.2020   20.6620 C   0  0  0  0  0  0  0  0  0  0  0  0
    0.2480   10.1830   21.4140 C   0  0  0  0  0  0  0  0  0  0  0  0
   -0.0950   11.4140   20.8390 C   0  0  0  0  0  0  0  0  0  0  0  0
    0.2460   11.5770   19.4910 C   0  0  0  0  0  0  0  0  0  0  0  0
    0.8720   10.6540   18.7250 N   0  0  0  0  0  0  0  0  0  0  0  0
    1.1630    8.2480   21.1050 H   0  0  0  0  0  0  0  0  0  0  0  0
    0.0280    9.9560   22.4540 H   0  0  0  0  0  0  0  0  0  0  0  0
    0.0190   12.5020   18.9640 H   0  0  0  0  0  0  0  0  0  0  0  0
   -0.7860   12.5440   21.6160 C   0  0  0  0  0  0  0  0  0  0  0  0
    0.2250   13.6880   21.8540 C   0  0  0  0  0  0  0  0  0  0  0  0
    0.7840   13.5350   22.7850 H   0  0  0  0  0  0  0  0  0  0  0  0
   -0.2680   14.6630   21.9310 H   0  0  0  0  0  0  0  0  0  0  0  0
    0.9530   13.7490   21.0360 H   0  0  0  0  0  0  0  0  0  0  0  0
   -1.9840   13.0890   20.8090 C   0  0  0  0  0  0  0  0  0  0  0  0
   -2.5550   13.8200   21.3930 H   0  0  0  0  0  0  0  0  0  0  0  0
   -2.6760   12.2960   20.5060 H   0  0  0  0  0  0  0  0  0  0  0  0
   -1.6470   13.5850   19.8900 H   0  0  0  0  0  0  0  0  0  0  0  0
   -1.3250   12.1090   22.9970 C   0  0  0  0  0  0  0  0  0  0  0  0
   -2.2320   12.6610   23.2690 H   0  0  0  0  0  0  0  0  0  0  0  0
   -1.5870   11.0450   22.9970 H   0  0  0  0  0  0  0  0  0  0  0  0
   -0.5800   12.2620   23.7860 H   0  0  0  0  0  0  0  0  0  0  0  0
    2.2870    2.2600   18.8340 C   0  0  0  0  0  0  0  0  0  0  0  0
    2.1520    2.0980   20.1810 F   0  0  0  0  0  0  0  0  0  0  0  0
    1.0670    1.9620   18.3060 F   0  0  0  0  0  0  0  0  0  0  0  0
    3.1290    1.2700   18.4250 F   0  0  0  0  0  0  0  0  0  0  0  0
    5.4590    5.2560   16.2150 C   0  0  2  0  0  0  0  0  0  0  0  0
    5.4180    6.2850   15.8330 H   0  0  0  0  0  0  0  0  0  0  0  0
    5.3260    4.3300   15.0000 C   0  0  0  0  0  0  0  0  0  0  0  0
    5.1350    3.2990   15.3150 H   0  0  0  0  0  0  0  0  0  0  0  0
    6.2310    4.3300   14.3860 H   0  0  0  0  0  0  0  0  0  0  0  0
    4.4910    4.6380   14.3600 H   0  0  0  0  0  0  0  0  0  0  0  0
    6.7990    5.0660   16.9570 C   0  0  0  0  0  0  0  0  0  0  0  0
    7.5360    4.5830   16.3030 H   0  0  0  0  0  0  0  0  0  0  0  0
    6.6650    4.3860   17.8090 H   0  0  0  0  0  0  0  0  0  0  0  0
    7.3610    6.3580   17.4480 C   0  0  0  0  0  0  0  0  0  0  0  0
    7.3690    7.5030   16.7980 N   0  0  0  0  0  0  0  0  0  0  0  0
    7.9680    8.4470   17.5980 N   0  0  0  0  0  0  0  0  0  0  0  0
    8.3190    7.8570   18.7130 C   0  0  0  0  0  0  0  0  0  0  0  0
    7.9590    6.5460   18.6660 N   0  0  0  0  0  0  0  0  0  0  0  0
    8.8160    8.3250   19.5510 H   0  0  0  0  0  0  0  0  0  0  0  0
    8.1630    5.5740   19.7040 C   0  0  0  0  0  0  0  0  0  0  0  0
    8.2220    4.5850   19.2430 H   0  0  0  0  0  0  0  0  0  0  0  0
    9.0920    5.7910   20.2350 H   0  0  0  0  0  0  0  0  0  0  0  0
    7.3270    5.6180   20.4040 H   0  0  0  0  0  0  0  0  0  0  0  0
  1  6  2  0  0  0  0
  1  2  1  0  0  0  0
  2  3  2  0  0  0  0
  3  4  1  0  0  0  0
  3 10  1  0  0  0  0
  4  8  1  0  0  0  0
  5 36  1  0  0  0  0
  5  4  2  0  0  0  0
  6  5  1  0  0  0  0
  7  2  1  0  0  0  0
  9  6  1  0  0  0  0
 10 13  1  0  0  0  0
 11 10  1  0  0  0  0
 11 14  1  0  0  0  0
 12 11  2  0  0  0  0
 14 15  1  0  0  0  0
 15 20  1  0  0  0  0
 15 16  2  0  0  0  0
 16 21  1  0  0  0  0
 17 16  1  0  0  0  0
 17 23  1  0  0  0  0
 18 17  2  0  0  0  0
 19 14  2  0  0  0  0
 19 18  1  0  0  0  0
 22 18  1  0  0  0  0
 23 24  1  0  0  0  0
 23 32  1  0  0  0  0
 24 26  1  0  0  0  0
 24 25  1  0  0  0  0
 27 24  1  0  0  0  0
 28 29  1  0  0  0  0
 28 23  1  0  0  0  0
 30 28  1  0  0  0  0
 31 28  1  0  0  0  0
 32 34  1  0  0  0  0
 32 33  1  0  0  0  0
 32 35  1  0  0  0  0
 36 37  1  0  0  0  0
 38 36  1  0  0  0  0
 39 36  1  0  0  0  0
 40 41  1  6  0  0  0
 40 46  1  0  0  0  0
 40  1  1  0  0  0  0
 42 43  1  0  0  0  0
 42 40  1  0  0  0  0
 44 42  1  0  0  0  0
 45 42  1  0  0  0  0
 46 49  1  0  0  0  0
 46 48  1  0  0  0  0
 47 46  1  0  0  0  0
 49 53  1  0  0  0  0
 50 49  2  0  0  0  0
 50 51  1  0  0  0  0
 51 52  2  0  0  0  0
 52 54  1  0  0  0  0
 53 52  1  0  0  0  0
 53 55  1  0  0  0  0
 55 57  1  0  0  0  0
 55 58  1  0  0  0  0
 56 55  1  0  0  0  0
M  END
>  <MODEL>
3

>  <REMARK>
 VINA RESULT:    -8.527      1.534      2.685
 INTER + INTRA:         -12.765
 INTER:                 -11.885
 INTRA:                  -0.880
 UNBOUND:                 0.498
  Name = 
  12 active torsions:
  status: ('A' for Active; 'I' for Inactive)
    1  A    between atoms: C_1  and  C_2
    2  A    between atoms: C_2  and  C_3
    3  A    between atoms: C_2  and  C_10
    4  A    between atoms: C_3  and  C_4
    5  A    between atoms: N_8  and  C_9
    6  A    between atoms: C_12  and  N_13
    7  A    between atoms: C_14  and  C_16
    8  A    between atoms: C_19  and  C_20
    9  A    between atoms: C_20  and  C_21
   10  A    between atoms: C_20  and  C_22
   11  A    between atoms: C_20  and  C_23
   12  A    between atoms: C_27  and  C_28
                            x       y       z     vdW  Elec       q    Type
                         _______ _______ _______ _____ _____    ______ ____

>  <TORSDO>
F 12

$$$$
=
 OpenBabel07192307433D

 58 60  0  0  1  0  0  0  0  0999 V2000
    4.3230    5.0100   17.1760 C   0  0  0  0  0  0  0  0  0  0  0  0
    3.6460    6.1030   17.7420 C   0  0  0  0  0  0  0  0  0  0  0  0
    2.6130    5.9220   18.6690 C   0  0  0  0  0  0  0  0  0  0  0  0
    2.2490    4.6260   19.0350 C   0  0  0  0  0  0  0  0  0  0  0  0
    2.9110    3.5130   18.4900 C   0  0  0  0  0  0  0  0  0  0  0  0
    3.9410    3.7160   17.5580 C   0  0  0  0  0  0  0  0  0  0  0  0
    3.9310    7.1130   17.4500 H   0  0  0  0  0  0  0  0  0  0  0  0
    1.4500    4.4490   19.7500 H   0  0  0  0  0  0  0  0  0  0  0  0
    4.4470    2.8500   17.1310 H   0  0  0  0  0  0  0  0  0  0  0  0
    2.0040    7.0790   19.1820 N   0  0  0  0  0  0  0  0  0  0  0  0
    1.9010    8.3280   18.6000 C   0  0  0  0  0  0  0  0  0  0  0  0
    2.3450    8.6780   17.5120 O   0  0  0  0  0  0  0  0  0  0  0  0
    1.5740    7.0250   20.1020 H   0  0  0  0  0  0  0  0  0  0  0  0
    1.1430    9.3010   19.4550 C   0  0  0  0  0  0  0  0  0  0  0  0
    0.8390    8.9890   20.7680 C   0  0  0  0  0  0  0  0  0  0  0  0
    0.1480    9.9340   21.5280 C   0  0  0  0  0  0  0  0  0  0  0  0
   -0.2260   11.1640   20.9710 C   0  0  0  0  0  0  0  0  0  0  0  0
    0.1320   11.3650   19.6330 C   0  0  0  0  0  0  0  0  0  0  0  0
    0.8010   10.4780   18.8590 N   0  0  0  0  0  0  0  0  0  0  0  0
    1.1310    8.0370   21.1980 H   0  0  0  0  0  0  0  0  0  0  0  0
   -0.0820    9.6800   22.5600 H   0  0  0  0  0  0  0  0  0  0  0  0
   -0.1160   12.2920   19.1190 H   0  0  0  0  0  0  0  0  0  0  0  0
   -0.9660   12.2560   21.7560 C   0  0  0  0  0  0  0  0  0  0  0  0
   -2.1900   12.7280   20.9410 C   0  0  0  0  0  0  0  0  0  0  0  0
   -2.7990   11.8780   20.6120 H   0  0  0  0  0  0  0  0  0  0  0  0
   -1.8970   13.2810   20.0420 H   0  0  0  0  0  0  0  0  0  0  0  0
   -2.8330   13.3870   21.5380 H   0  0  0  0  0  0  0  0  0  0  0  0
   -1.4480   11.7000   23.1140 C   0  0  0  0  0  0  0  0  0  0  0  0
   -2.3180   11.0450   22.9880 H   0  0  0  0  0  0  0  0  0  0  0  0
   -1.7320   12.4960   23.8120 H   0  0  0  0  0  0  0  0  0  0  0  0
   -0.6580   11.1160   23.6030 H   0  0  0  0  0  0  0  0  0  0  0  0
   -0.1010   13.5010   22.0550 C   0  0  0  0  0  0  0  0  0  0  0  0
   -0.3480   13.9420   23.0270 H   0  0  0  0  0  0  0  0  0  0  0  0
    0.9630   13.2390   22.0830 H   0  0  0  0  0  0  0  0  0  0  0  0
   -0.2270   14.2710   21.2850 H   0  0  0  0  0  0  0  0  0  0  0  0
    2.4890    2.1200   18.8870 C   0  0  0  0  0  0  0  0  0  0  0  0
    3.3740    1.1600   18.4930 F   0  0  0  0  0  0  0  0  0  0  0  0
    2.3580    1.9650   20.2340 F   0  0  0  0  0  0  0  0  0  0  0  0
    1.2920    1.7630   18.3460 F   0  0  0  0  0  0  0  0  0  0  0  0
    5.4510    5.2510   16.1830 C   0  0  2  0  0  0  0  0  0  0  0  0
    6.3890    5.3340   16.7490 H   0  0  0  0  0  0  0  0  0  0  0  0
    5.2620    6.5840   15.4490 C   0  0  0  0  0  0  0  0  0  0  0  0
    6.1040    7.2570   15.6430 H   0  0  0  0  0  0  0  0  0  0  0  0
    4.3470    7.0950   15.7600 H   0  0  0  0  0  0  0  0  0  0  0  0
    5.2060    6.4320   14.3650 H   0  0  0  0  0  0  0  0  0  0  0  0
    5.5760    4.0560   15.2130 C   0  0  0  0  0  0  0  0  0  0  0  0
    4.5850    3.7390   14.8640 H   0  0  0  0  0  0  0  0  0  0  0  0
    5.9980    3.1880   15.7380 H   0  0  0  0  0  0  0  0  0  0  0  0
    6.4280    4.3730   14.0310 C   0  0  0  0  0  0  0  0  0  0  0  0
    7.5330    5.0880   14.0350 N   0  0  0  0  0  0  0  0  0  0  0  0
    8.0190    5.1360   12.7500 N   0  0  0  0  0  0  0  0  0  0  0  0
    7.1970    4.4570   11.9900 C   0  0  0  0  0  0  0  0  0  0  0  0
    6.1840    3.9590   12.7480 N   0  0  0  0  0  0  0  0  0  0  0  0
    7.2950    4.3040   10.9240 H   0  0  0  0  0  0  0  0  0  0  0  0
    5.0930    3.1500   12.2790 C   0  0  0  0  0  0  0  0  0  0  0  0
    5.5060    2.2620   11.7950 H   0  0  0  0  0  0  0  0  0  0  0  0
    4.4640    2.8540   13.1210 H   0  0  0  0  0  0  0  0  0  0  0  0
    4.5000    3.7290   11.5690 H   0  0  0  0  0  0  0  0  0  0  0  0
  1  6  2  0  0  0  0
  1  2  1  0  0  0  0
  2  3  2  0  0  0  0
  3  4  1  0  0  0  0
  3 10  1  0  0  0  0
  4  8  1  0  0  0  0
  5 36  1  0  0  0  0
  5  4  2  0  0  0  0
  6  5  1  0  0  0  0
  7  2  1  0  0  0  0
  9  6  1  0  0  0  0
 10 13  1  0  0  0  0
 11 10  1  0  0  0  0
 11 14  1  0  0  0  0
 12 11  2  0  0  0  0
 14 15  1  0  0  0  0
 15 20  1  0  0  0  0
 15 16  2  0  0  0  0
 16 21  1  0  0  0  0
 17 16  1  0  0  0  0
 17 23  1  0  0  0  0
 18 17  2  0  0  0  0
 19 14  2  0  0  0  0
 19 18  1  0  0  0  0
 22 18  1  0  0  0  0
 23 32  1  0  0  0  0
 23 28  1  0  0  0  0
 24 27  1  0  0  0  0
 24 23  1  0  0  0  0
 25 24  1  0  0  0  0
 26 24  1  0  0  0  0
 28 31  1  0  0  0  0
 28 30  1  0  0  0  0
 29 28  1  0  0  0  0
 32 34  1  0  0  0  0
 32 33  1  0  0  0  0
 35 32  1  0  0  0  0
 36 38  1  0  0  0  0
 37 36  1  0  0  0  0
 39 36  1  0  0  0  0
 40 41  1  1  0  0  0
 40  1  1  0  0  0  0
 42 43  1  0  0  0  0
 42 44  1  0  0  0  0
 42 40  1  0  0  0  0
 45 42  1  0  0  0  0
 46 48  1  0  0  0  0
 46 40  1  0  0  0  0
 47 46  1  0  0  0  0
 49 50  2  0  0  0  0
 49 46  1  0  0  0  0
 51 50  1  0  0  0  0
 52 53  1  0  0  0  0
 52 51  2  0  0  0  0
 53 49  1  0  0  0  0
 54 52  1  0  0  0  0
 55 53  1  0  0  0  0
 55 57  1  0  0  0  0
 56 55  1  0  0  0  0
 58 55  1  0  0  0  0
M  END
>  <MODEL>
4

>  <REMARK>
 VINA RESULT:    -8.247      1.411      1.996
 INTER + INTRA:         -12.330
 INTER:                 -11.981
 INTRA:                  -0.349
 UNBOUND:                 0.498
  Name = 
  12 active torsions:
  status: ('A' for Active; 'I' for Inactive)
    1  A    between atoms: C_1  and  C_2
    2  A    between atoms: C_2  and  C_3
    3  A    between atoms: C_2  and  C_10
    4  A    between atoms: C_3  and  C_4
    5  A    between atoms: N_8  and  C_9
    6  A    between atoms: C_12  and  N_13
    7  A    between atoms: C_14  and  C_16
    8  A    between atoms: C_19  and  C_20
    9  A    between atoms: C_20  and  C_21
   10  A    between atoms: C_20  and  C_22
   11  A    between atoms: C_20  and  C_23
   12  A    between atoms: C_27  and  C_28
                            x       y       z     vdW  Elec       q    Type
                         _______ _______ _______ _____ _____    ______ ____

>  <TORSDO>
F 12

$$$$
=
 OpenBabel07192307433D

 58 60  0  0  1  0  0  0  0  0999 V2000
    5.1920    4.6680   17.3840 C   0  0  0  0  0  0  0  0  0  0  0  0
    4.4910    5.8370   17.7210 C   0  0  0  0  0  0  0  0  0  0  0  0
    3.2220    5.7830   18.3110 C   0  0  0  0  0  0  0  0  0  0  0  0
    2.6450    4.5390   18.5660 C   0  0  0  0  0  0  0  0  0  0  0  0
    3.3250    3.3520   18.2430 C   0  0  0  0  0  0  0  0  0  0  0  0
    4.5940    3.4280   17.6480 C   0  0  0  0  0  0  0  0  0  0  0  0
    4.9440    6.8060   17.5170 H   0  0  0  0  0  0  0  0  0  0  0  0
    1.6600    4.4600   19.0200 H   0  0  0  0  0  0  0  0  0  0  0  0
    5.1150    2.5050   17.3930 H   0  0  0  0  0  0  0  0  0  0  0  0
    2.6070    7.0070   18.6170 N   0  0  0  0  0  0  0  0  0  0  0  0
    1.9560    7.3770   19.7780 C   0  0  0  0  0  0  0  0  0  0  0  0
    1.7730    6.6900   20.7770 O   0  0  0  0  0  0  0  0  0  0  0  0
    2.6210    7.7400   17.9110 H   0  0  0  0  0  0  0  0  0  0  0  0
    1.4560    8.7920   19.7340 C   0  0  0  0  0  0  0  0  0  0  0  0
    1.5040    9.5140   18.5540 C   0  0  0  0  0  0  0  0  0  0  0  0
    1.0120   10.8190   18.5580 C   0  0  0  0  0  0  0  0  0  0  0  0
    0.4850   11.3800   19.7290 C   0  0  0  0  0  0  0  0  0  0  0  0
    0.4930   10.5560   20.8610 C   0  0  0  0  0  0  0  0  0  0  0  0
    0.9600    9.2870   20.9020 N   0  0  0  0  0  0  0  0  0  0  0  0
    1.9110    9.0770   17.6480 H   0  0  0  0  0  0  0  0  0  0  0  0
    1.0500   11.3750   17.6250 H   0  0  0  0  0  0  0  0  0  0  0  0
    0.1020   10.9090   21.8140 H   0  0  0  0  0  0  0  0  0  0  0  0
   -0.0940   12.8000   19.7980 C   0  0  0  0  0  0  0  0  0  0  0  0
   -1.4770   12.7530   20.4830 C   0  0  0  0  0  0  0  0  0  0  0  0
   -1.8670   11.7280   20.5190 H   0  0  0  0  0  0  0  0  0  0  0  0
   -2.2200   13.3610   19.9540 H   0  0  0  0  0  0  0  0  0  0  0  0
   -1.4210   13.1230   21.5140 H   0  0  0  0  0  0  0  0  0  0  0  0
    0.8420   13.7180   20.6130 C   0  0  0  0  0  0  0  0  0  0  0  0
    0.6710   14.7740   20.3730 H   0  0  0  0  0  0  0  0  0  0  0  0
    1.9010   13.5040   20.4260 H   0  0  0  0  0  0  0  0  0  0  0  0
    0.6780   13.5900   21.6910 H   0  0  0  0  0  0  0  0  0  0  0  0
   -0.2870   13.4600   18.4130 C   0  0  0  0  0  0  0  0  0  0  0  0
   -0.8180   12.7980   17.7200 H   0  0  0  0  0  0  0  0  0  0  0  0
   -0.8790   14.3790   18.4980 H   0  0  0  0  0  0  0  0  0  0  0  0
    0.6740   13.7320   17.9610 H   0  0  0  0  0  0  0  0  0  0  0  0
    2.6740    2.0170   18.5110 C   0  0  0  0  0  0  0  0  0  0  0  0
    3.5160    0.9620   18.3180 F   0  0  0  0  0  0  0  0  0  0  0  0
    2.2200    1.8920   19.7900 F   0  0  0  0  0  0  0  0  0  0  0  0
    1.6020    1.7880   17.7040 F   0  0  0  0  0  0  0  0  0  0  0  0
    6.5770    4.7710   16.7580 C   0  0  2  0  0  0  0  0  0  0  0  0
    6.9020    3.7570   16.4860 H   0  0  0  0  0  0  0  0  0  0  0  0
    7.5990    5.3020   17.7700 C   0  0  0  0  0  0  0  0  0  0  0  0
    7.1870    5.2830   18.7850 H   0  0  0  0  0  0  0  0  0  0  0  0
    7.8950    6.3310   17.5490 H   0  0  0  0  0  0  0  0  0  0  0  0
    8.5070    4.6890   17.7720 H   0  0  0  0  0  0  0  0  0  0  0  0
    6.5220    5.6230   15.4730 C   0  0  0  0  0  0  0  0  0  0  0  0
    7.4090    6.2650   15.3980 H   0  0  0  0  0  0  0  0  0  0  0  0
    5.6620    6.3060   15.5100 H   0  0  0  0  0  0  0  0  0  0  0  0
    6.4260    4.7860   14.2420 C   0  0  0  0  0  0  0  0  0  0  0  0
    5.5170    3.8670   13.9930 N   0  0  0  0  0  0  0  0  0  0  0  0
    5.7730    3.3340   12.7520 N   0  0  0  0  0  0  0  0  0  0  0  0
    6.8350    3.9330   12.2750 C   0  0  0  0  0  0  0  0  0  0  0  0
    7.2800    4.8510   13.1730 N   0  0  0  0  0  0  0  0  0  0  0  0
    7.2980    3.7400   11.3170 H   0  0  0  0  0  0  0  0  0  0  0  0
    8.4150    5.7180   13.0080 C   0  0  0  0  0  0  0  0  0  0  0  0
    9.2960    5.0980   12.8250 H   0  0  0  0  0  0  0  0  0  0  0  0
    8.2490    6.3850   12.1600 H   0  0  0  0  0  0  0  0  0  0  0  0
    8.5470    6.3100   13.9150 H   0  0  0  0  0  0  0  0  0  0  0  0
  1  6  2  0  0  0  0
  1  2  1  0  0  0  0
  2  3  2  0  0  0  0
  3  4  1  0  0  0  0
  3 10  1  0  0  0  0
  4  8  1  0  0  0  0
  5 36  1  0  0  0  0
  5  4  2  0  0  0  0
  6  5  1  0  0  0  0
  7  2  1  0  0  0  0
  9  6  1  0  0  0  0
 10 11  1  0  0  0  0
 11 12  2  0  0  0  0
 13 10  1  0  0  0  0
 14 11  1  0  0  0  0
 14 19  1  0  0  0  0
 15 16  1  0  0  0  0
 15 14  2  0  0  0  0
 16 17  2  0  0  0  0
 17 23  1  0  0  0  0
 17 18  1  0  0  0  0
 18 19  2  0  0  0  0
 18 22  1  0  0  0  0
 20 15  1  0  0  0  0
 21 16  1  0  0  0  0
 23 24  1  0  0  0  0
 23 28  1  0  0  0  0
 24 25  1  0  0  0  0
 24 27  1  0  0  0  0
 26 24  1  0  0  0  0
 28 31  1  0  0  0  0
 29 28  1  0  0  0  0
 30 28  1  0  0  0  0
 32 34  1  0  0  0  0
 32 23  1  0  0  0  0
 33 32  1  0  0  0  0
 35 32  1  0  0  0  0
 36 38  1  0  0  0  0
 37 36  1  0  0  0  0
 39 36  1  0  0  0  0
 40 41  1  6  0  0  0
 40  1  1  0  0  0  0
 40 42  1  0  0  0  0
 42 45  1  0  0  0  0
 42 43  1  0  0  0  0
 44 42  1  0  0  0  0
 46 48  1  0  0  0  0
 46 40  1  0  0  0  0
 47 46  1  0  0  0  0
 49 46  1  0  0  0  0
 50 49  2  0  0  0  0
 51 50  1  0  0  0  0
 52 51  2  0  0  0  0
 52 53  1  0  0  0  0
 53 49  1  0  0  0  0
 54 52  1  0  0  0  0
 55 53  1  0  0  0  0
 55 58  1  0  0  0  0
 56 55  1  0  0  0  0
 57 55  1  0  0  0  0
M  END
>  <MODEL>
5

>  <REMARK>
 VINA RESULT:    -8.219      1.530      2.204
 INTER + INTRA:         -12.286
 INTER:                 -11.283
 INTRA:                  -1.004
 UNBOUND:                 0.498
  Name = 
  12 active torsions:
  status: ('A' for Active; 'I' for Inactive)
    1  A    between atoms: C_1  and  C_2
    2  A    between atoms: C_2  and  C_3
    3  A    between atoms: C_2  and  C_10
    4  A    between atoms: C_3  and  C_4
    5  A    between atoms: N_8  and  C_9
    6  A    between atoms: C_12  and  N_13
    7  A    between atoms: C_14  and  C_16
    8  A    between atoms: C_19  and  C_20
    9  A    between atoms: C_20  and  C_21
   10  A    between atoms: C_20  and  C_22
   11  A    between atoms: C_20  and  C_23
   12  A    between atoms: C_27  and  C_28
                            x       y       z     vdW  Elec       q    Type
                         _______ _______ _______ _____ _____    ______ ____

>  <TORSDO>
F 12

$$$$
=
 OpenBabel07192307433D

 58 60  0  0  1  0  0  0  0  0999 V2000
    3.8430    5.1440   18.1720 C   0  0  0  0  0  0  0  0  0  0  0  0
    3.3030    6.3900   18.5300 C   0  0  0  0  0  0  0  0  0  0  0  0
    2.3570    6.5070   19.5560 C   0  0  0  0  0  0  0  0  0  0  0  0
    1.9450    5.3600   20.2340 C   0  0  0  0  0  0  0  0  0  0  0  0
    2.4720    4.1010   19.9010 C   0  0  0  0  0  0  0  0  0  0  0  0
    3.4150    4.0040   18.8650 C   0  0  0  0  0  0  0  0  0  0  0  0
    3.6240    7.2820   17.9960 H   0  0  0  0  0  0  0  0  0  0  0  0
    1.2100    5.4150   21.0330 H   0  0  0  0  0  0  0  0  0  0  0  0
    3.8160    3.0240   18.6050 H   0  0  0  0  0  0  0  0  0  0  0  0
    1.8820    7.7970   19.8430 N   0  0  0  0  0  0  0  0  0  0  0  0
    1.5630    8.8130   18.9630 C   0  0  0  0  0  0  0  0  0  0  0  0
    1.6510    8.7890   17.7400 O   0  0  0  0  0  0  0  0  0  0  0  0
    1.7450    8.0500   20.8190 H   0  0  0  0  0  0  0  0  0  0  0  0
    1.0540   10.0410   19.6590 C   0  0  0  0  0  0  0  0  0  0  0  0
    0.3740    9.9330   20.8600 C   0  0  0  0  0  0  0  0  0  0  0  0
   -0.0640   11.1040   21.4780 C   0  0  0  0  0  0  0  0  0  0  0  0
    0.1790   12.3540   20.8930 C   0  0  0  0  0  0  0  0  0  0  0  0
    0.8710   12.3380   19.6770 C   0  0  0  0  0  0  0  0  0  0  0  0
    1.3140   11.2280   19.0430 N   0  0  0  0  0  0  0  0  0  0  0  0
    0.1890    8.9640   21.3120 H   0  0  0  0  0  0  0  0  0  0  0  0
   -0.5930   11.0080   22.4230 H   0  0  0  0  0  0  0  0  0  0  0  0
    1.1040   13.2640   19.1520 H   0  0  0  0  0  0  0  0  0  0  0  0
   -0.2550   13.6820   21.5310 C   0  0  0  0  0  0  0  0  0  0  0  0
   -0.9480   13.3960   22.8810 C   0  0  0  0  0  0  0  0  0  0  0  0
   -1.6610   14.1890   23.1370 H   0  0  0  0  0  0  0  0  0  0  0  0
   -0.2310   13.3290   23.7060 H   0  0  0  0  0  0  0  0  0  0  0  0
   -1.5020   12.4490   22.8490 H   0  0  0  0  0  0  0  0  0  0  0  0
    0.9750   14.5820   21.7750 C   0  0  0  0  0  0  0  0  0  0  0  0
    0.7730   15.6190   21.4830 H   0  0  0  0  0  0  0  0  0  0  0  0
    1.8540   14.2460   21.2140 H   0  0  0  0  0  0  0  0  0  0  0  0
    1.2570   14.5830   22.8360 H   0  0  0  0  0  0  0  0  0  0  0  0
   -1.2470   14.4920   20.6660 C   0  0  0  0  0  0  0  0  0  0  0  0
   -0.7380   15.0120   19.8460 H   0  0  0  0  0  0  0  0  0  0  0  0
   -1.9960   13.8330   20.2110 H   0  0  0  0  0  0  0  0  0  0  0  0
   -1.7870   15.2360   21.2620 H   0  0  0  0  0  0  0  0  0  0  0  0
    1.9990    2.8700   20.6350 C   0  0  0  0  0  0  0  0  0  0  0  0
    0.7780    3.0330   21.2210 F   0  0  0  0  0  0  0  0  0  0  0  0
    1.8730    1.7810   19.8270 F   0  0  0  0  0  0  0  0  0  0  0  0
    2.8450    2.5030   21.6370 F   0  0  0  0  0  0  0  0  0  0  0  0
    4.8810    5.0620   17.0600 C   0  0  2  0  0  0  0  0  0  0  0  0
    4.8720    6.0160   16.5170 H   0  0  0  0  0  0  0  0  0  0  0  0
    4.5120    3.9750   16.0440 C   0  0  0  0  0  0  0  0  0  0  0  0
    4.5350    2.9830   16.5090 H   0  0  0  0  0  0  0  0  0  0  0  0
    5.2000    3.9600   15.1940 H   0  0  0  0  0  0  0  0  0  0  0  0
    3.5010    4.1300   15.6500 H   0  0  0  0  0  0  0  0  0  0  0  0
    6.2900    4.8570   17.6570 C   0  0  0  0  0  0  0  0  0  0  0  0
    6.8800    4.1800   17.0270 H   0  0  0  0  0  0  0  0  0  0  0  0
    6.2160    4.3630   18.6360 H   0  0  0  0  0  0  0  0  0  0  0  0
    7.0300    6.1420   17.8140 C   0  0  0  0  0  0  0  0  0  0  0  0
    6.9660    7.1830   17.0090 N   0  0  0  0  0  0  0  0  0  0  0  0
    7.7890    8.1640   17.5100 N   0  0  0  0  0  0  0  0  0  0  0  0
    8.3420    7.6990   18.6020 C   0  0  0  0  0  0  0  0  0  0  0  0
    7.8960    6.4350   18.8340 N   0  0  0  0  0  0  0  0  0  0  0  0
    9.0430    8.2260   19.2330 H   0  0  0  0  0  0  0  0  0  0  0  0
    8.2640    5.5980   19.9410 C   0  0  0  0  0  0  0  0  0  0  0  0
    9.1260    6.0470   20.4410 H   0  0  0  0  0  0  0  0  0  0  0  0
    7.4290    5.5230   20.6410 H   0  0  0  0  0  0  0  0  0  0  0  0
    8.5150    4.6030   19.5690 H   0  0  0  0  0  0  0  0  0  0  0  0
  1  2  2  0  0  0  0
  1  6  1  0  0  0  0
  2  3  1  0  0  0  0
  3 10  1  0  0  0  0
  3  4  2  0  0  0  0
  4  8  1  0  0  0  0
  5  4  1  0  0  0  0
  5 36  1  0  0  0  0
  6  5  2  0  0  0  0
  7  2  1  0  0  0  0
  9  6  1  0  0  0  0
 10 13  1  0  0  0  0
 11 14  1  0  0  0  0
 11 10  1  0  0  0  0
 12 11  2  0  0  0  0
 14 15  1  0  0  0  0
 15 20  1  0  0  0  0
 15 16  2  0  0  0  0
 16 21  1  0  0  0  0
 17 16  1  0  0  0  0
 17 23  1  0  0  0  0
 18 17  2  0  0  0  0
 19 14  2  0  0  0  0
 19 18  1  0  0  0  0
 22 18  1  0  0  0  0
 23 28  1  0  0  0  0
 23 24  1  0  0  0  0
 24 25  1  0  0  0  0
 24 26  1  0  0  0  0
 27 24  1  0  0  0  0
 28 31  1  0  0  0  0
 29 28  1  0  0  0  0
 30 28  1  0  0  0  0
 32 35  1  0  0  0  0
 32 23  1  0  0  0  0
 33 32  1  0  0  0  0
 34 32  1  0  0  0  0
 36 37  1  0  0  0  0
 36 39  1  0  0  0  0
 38 36  1  0  0  0  0
 40 41  1  6  0  0  0
 40 46  1  0  0  0  0
 40  1  1  0  0  0  0
 42 43  1  0  0  0  0
 42 40  1  0  0  0  0
 44 42  1  0  0  0  0
 45 42  1  0  0  0  0
 46 49  1  0  0  0  0
 46 48  1  0  0  0  0
 47 46  1  0  0  0  0
 49 53  1  0  0  0  0
 50 51  1  0  0  0  0
 50 49  2  0  0  0  0
 51 52  2  0  0  0  0
 52 53  1  0  0  0  0
 52 54  1  0  0  0  0
 53 55  1  0  0  0  0
 55 56  1  0  0  0  0
 55 57  1  0  0  0  0
 58 55  1  0  0  0  0
M  END
>  <MODEL>
6

>  <REMARK>
 VINA RESULT:    -8.216      1.799      2.897
 INTER + INTRA:         -12.282
 INTER:                 -11.329
 INTRA:                  -0.952
 UNBOUND:                 0.498
  Name = 
  12 active torsions:
  status: ('A' for Active; 'I' for Inactive)
    1  A    between atoms: C_1  and  C_2
    2  A    between atoms: C_2  and  C_3
    3  A    between atoms: C_2  and  C_10
    4  A    between atoms: C_3  and  C_4
    5  A    between atoms: N_8  and  C_9
    6  A    between atoms: C_12  and  N_13
    7  A    between atoms: C_14  and  C_16
    8  A    between atoms: C_19  and  C_20
    9  A    between atoms: C_20  and  C_21
   10  A    between atoms: C_20  and  C_22
   11  A    between atoms: C_20  and  C_23
   12  A    between atoms: C_27  and  C_28
                            x       y       z     vdW  Elec       q    Type
                         _______ _______ _______ _____ _____    ______ ____

>  <TORSDO>
F 12

$$$$
=
 OpenBabel07192307433D

 58 60  0  0  1  0  0  0  0  0999 V2000
   -0.6640   12.6360   19.6680 C   0  0  0  0  0  0  0  0  0  0  0  0
    0.2260   11.5760   19.4340 C   0  0  0  0  0  0  0  0  0  0  0  0
   -0.1750   10.4250   18.7460 C   0  0  0  0  0  0  0  0  0  0  0  0
   -1.4870   10.3320   18.2840 C   0  0  0  0  0  0  0  0  0  0  0  0
   -2.3990   11.3800   18.4980 C   0  0  0  0  0  0  0  0  0  0  0  0
   -1.9800   12.5230   19.1960 C   0  0  0  0  0  0  0  0  0  0  0  0
    1.2490   11.6510   19.8000 H   0  0  0  0  0  0  0  0  0  0  0  0
   -1.8320    9.4520   17.7480 H   0  0  0  0  0  0  0  0  0  0  0  0
   -2.6920   13.3300   19.3660 H   0  0  0  0  0  0  0  0  0  0  0  0
    0.7920    9.4240   18.5570 N   0  0  0  0  0  0  0  0  0  0  0  0
    1.4150    8.6380   19.5080 C   0  0  0  0  0  0  0  0  0  0  0  0
    1.2520    8.6760   20.7230 O   0  0  0  0  0  0  0  0  0  0  0  0
    1.0980    9.2270   17.6070 H   0  0  0  0  0  0  0  0  0  0  0  0
    2.3720    7.6520   18.9050 C   0  0  0  0  0  0  0  0  0  0  0  0
    3.0740    7.9720   17.7550 C   0  0  0  0  0  0  0  0  0  0  0  0
    3.9650    7.0290   17.2420 C   0  0  0  0  0  0  0  0  0  0  0  0
    4.1410    5.7930   17.8770 C   0  0  0  0  0  0  0  0  0  0  0  0
    3.3740    5.5800   19.0290 C   0  0  0  0  0  0  0  0  0  0  0  0
    2.4990    6.4650   19.5610 N   0  0  0  0  0  0  0  0  0  0  0  0
    2.9370    8.9310   17.2660 H   0  0  0  0  0  0  0  0  0  0  0  0
    4.5140    7.2930   16.3420 H   0  0  0  0  0  0  0  0  0  0  0  0
    3.4470    4.6480   19.5880 H   0  0  0  0  0  0  0  0  0  0  0  0
    5.1210    4.7210   17.3800 C   0  0  0  0  0  0  0  0  0  0  0  0
    4.5120    3.3220   17.6230 C   0  0  0  0  0  0  0  0  0  0  0  0
    3.4240    3.3350   17.4870 H   0  0  0  0  0  0  0  0  0  0  0  0
    4.7060    2.9590   18.6380 H   0  0  0  0  0  0  0  0  0  0  0  0
    4.9250    2.5840   16.9240 H   0  0  0  0  0  0  0  0  0  0  0  0
    5.3850    4.9010   15.8700 C   0  0  0  0  0  0  0  0  0  0  0  0
    5.5540    3.9360   15.3780 H   0  0  0  0  0  0  0  0  0  0  0  0
    6.2610    5.5290   15.6720 H   0  0  0  0  0  0  0  0  0  0  0  0
    4.5320    5.3830   15.3760 H   0  0  0  0  0  0  0  0  0  0  0  0
    6.4930    4.7570   18.0900 C   0  0  0  0  0  0  0  0  0  0  0  0
    6.9530    5.7490   18.0320 H   0  0  0  0  0  0  0  0  0  0  0  0
    6.3890    4.5130   19.1540 H   0  0  0  0  0  0  0  0  0  0  0  0
    7.1890    4.0300   17.6560 H   0  0  0  0  0  0  0  0  0  0  0  0
   -3.8200   11.2510   18.0050 C   0  0  0  0  0  0  0  0  0  0  0  0
   -4.7310   11.8270   18.8410 F   0  0  0  0  0  0  0  0  0  0  0  0
   -4.0190   11.8350   16.7910 F   0  0  0  0  0  0  0  0  0  0  0  0
   -4.2100    9.9530   17.8700 F   0  0  0  0  0  0  0  0  0  0  0  0
   -0.1850   13.8780   20.4080 C   0  0  2  0  0  0  0  0  0  0  0  0
   -0.9610   14.6490   20.3150 H   0  0  0  0  0  0  0  0  0  0  0  0
    1.0810   14.4500   19.7590 C   0  0  0  0  0  0  0  0  0  0  0  0
    0.8750   15.4190   19.2930 H   0  0  0  0  0  0  0  0  0  0  0  0
    1.4800   13.7860   18.9870 H   0  0  0  0  0  0  0  0  0  0  0  0
    1.8710   14.6040   20.5030 H   0  0  0  0  0  0  0  0  0  0  0  0
    0.0110   13.5660   21.9070 C   0  0  0  0  0  0  0  0  0  0  0  0
    0.4990   14.4070   22.4150 H   0  0  0  0  0  0  0  0  0  0  0  0
    0.6890   12.7100   22.0280 H   0  0  0  0  0  0  0  0  0  0  0  0
   -1.2780   13.2670   22.5950 C   0  0  0  0  0  0  0  0  0  0  0  0
   -2.2310   14.1310   22.8760 N   0  0  0  0  0  0  0  0  0  0  0  0
   -3.2520   13.4560   23.5020 N   0  0  0  0  0  0  0  0  0  0  0  0
   -2.8980   12.1990   23.5960 C   0  0  0  0  0  0  0  0  0  0  0  0
   -1.6680   12.0320   23.0410 N   0  0  0  0  0  0  0  0  0  0  0  0
   -3.4810   11.4050   24.0420 H   0  0  0  0  0  0  0  0  0  0  0  0
   -0.9450   10.7940   22.9410 C   0  0  0  0  0  0  0  0  0  0  0  0
   -0.0940   10.8360   23.6250 H   0  0  0  0  0  0  0  0  0  0  0  0
   -1.5980    9.9620   23.2140 H   0  0  0  0  0  0  0  0  0  0  0  0
   -0.6010   10.6630   21.9140 H   0  0  0  0  0  0  0  0  0  0  0  0
  1 40  1  0  0  0  0
  2  1  1  0  0  0  0
  2  7  1  0  0  0  0
  3  2  2  0  0  0  0
  4  5  2  0  0  0  0
  4  3  1  0  0  0  0
  5  6  1  0  0  0  0
  6  9  1  0  0  0  0
  6  1  2  0  0  0  0
  8  4  1  0  0  0  0
 10  3  1  0  0  0  0
 10 11  1  0  0  0  0
 11 12  2  0  0  0  0
 13 10  1  0  0  0  0
 14 11  1  0  0  0  0
 14 19  1  0  0  0  0
 15 14  2  0  0  0  0
 16 15  1  0  0  0  0
 16 17  2  0  0  0  0
 17 18  1  0  0  0  0
 18 19  2  0  0  0  0
 18 22  1  0  0  0  0
 20 15  1  0  0  0  0
 21 16  1  0  0  0  0
 23 24  1  0  0  0  0
 23 17  1  0  0  0  0
 23 32  1  0  0  0  0
 24 26  1  0  0  0  0
 25 24  1  0  0  0  0
 27 24  1  0  0  0  0
 28 23  1  0  0  0  0
 29 28  1  0  0  0  0
 30 28  1  0  0  0  0
 31 28  1  0  0  0  0
 32 34  1  0  0  0  0
 33 32  1  0  0  0  0
 35 32  1  0  0  0  0
 36  5  1  0  0  0  0
 36 37  1  0  0  0  0
 38 36  1  0  0  0  0
 39 36  1  0  0  0  0
 40 41  1  6  0  0  0
 40 46  1  0  0  0  0
 42 40  1  0  0  0  0
 42 45  1  0  0  0  0
 43 42  1  0  0  0  0
 44 42  1  0  0  0  0
 46 48  1  0  0  0  0
 46 47  1  0  0  0  0
 46 49  1  0  0  0  0
 49 50  2  0  0  0  0
 49 53  1  0  0  0  0
 50 51  1  0  0  0  0
 51 52  2  0  0  0  0
 52 54  1  0  0  0  0
 53 52  1  0  0  0  0
 55 53  1  0  0  0  0
 55 57  1  0  0  0  0
 55 56  1  0  0  0  0
 58 55  1  0  0  0  0
M  END
>  <MODEL>
7

>  <REMARK>
 VINA RESULT:    -8.064      4.289     10.133
 INTER + INTRA:         -12.045
 INTER:                 -10.694
 INTRA:                  -1.351
 UNBOUND:                 0.498
  Name = 
  12 active torsions:
  status: ('A' for Active; 'I' for Inactive)
    1  A    between atoms: C_1  and  C_2
    2  A    between atoms: C_2  and  C_3
    3  A    between atoms: C_2  and  C_10
    4  A    between atoms: C_3  and  C_4
    5  A    between atoms: N_8  and  C_9
    6  A    between atoms: C_12  and  N_13
    7  A    between atoms: C_14  and  C_16
    8  A    between atoms: C_19  and  C_20
    9  A    between atoms: C_20  and  C_21
   10  A    between atoms: C_20  and  C_22
   11  A    between atoms: C_20  and  C_23
   12  A    between atoms: C_27  and  C_28
                            x       y       z     vdW  Elec       q    Type
                         _______ _______ _______ _____ _____    ______ ____

>  <TORSDO>
F 12

$$$$
=
 OpenBabel07192307433D

 58 60  0  0  1  0  0  0  0  0999 V2000
   -0.3280   12.2450   19.2510 C   0  0  0  0  0  0  0  0  0  0  0  0
    0.5580   11.1890   18.9790 C   0  0  0  0  0  0  0  0  0  0  0  0
    0.1550   10.0710   18.2400 C   0  0  0  0  0  0  0  0  0  0  0  0
   -1.1550   10.0070   17.7650 C   0  0  0  0  0  0  0  0  0  0  0  0
   -2.0620   11.0500   18.0170 C   0  0  0  0  0  0  0  0  0  0  0  0
   -1.6400   12.1600   18.7650 C   0  0  0  0  0  0  0  0  0  0  0  0
    1.5780   11.2420   19.3550 H   0  0  0  0  0  0  0  0  0  0  0  0
   -1.5020    9.1520   17.1900 H   0  0  0  0  0  0  0  0  0  0  0  0
   -2.3490   12.9650   18.9650 H   0  0  0  0  0  0  0  0  0  0  0  0
    1.1160    9.0720   18.0160 N   0  0  0  0  0  0  0  0  0  0  0  0
    1.7220    8.2380   18.9360 C   0  0  0  0  0  0  0  0  0  0  0  0
    1.5450    8.2210   20.1490 O   0  0  0  0  0  0  0  0  0  0  0  0
    1.4320    8.9180   17.0610 H   0  0  0  0  0  0  0  0  0  0  0  0
    2.6790    7.2740   18.2990 C   0  0  0  0  0  0  0  0  0  0  0  0
    2.4770    5.9090   18.4140 C   0  0  0  0  0  0  0  0  0  0  0  0
    3.3850    5.0530   17.7890 C   0  0  0  0  0  0  0  0  0  0  0  0
    4.4700    5.5660   17.0670 C   0  0  0  0  0  0  0  0  0  0  0  0
    4.5730    6.9620   17.0240 C   0  0  0  0  0  0  0  0  0  0  0  0
    3.7170    7.8290   17.6140 N   0  0  0  0  0  0  0  0  0  0  0  0
    1.6350    5.5140   18.9730 H   0  0  0  0  0  0  0  0  0  0  0  0
    3.2140    3.9840   17.8830 H   0  0  0  0  0  0  0  0  0  0  0  0
    5.3840    7.4480   16.4840 H   0  0  0  0  0  0  0  0  0  0  0  0
    5.4910    4.6820   16.3370 C   0  0  0  0  0  0  0  0  0  0  0  0
    6.8480    4.7620   17.0690 C   0  0  0  0  0  0  0  0  0  0  0  0
    6.7310    5.1740   18.0780 H   0  0  0  0  0  0  0  0  0  0  0  0
    7.5640    5.4030   16.5410 H   0  0  0  0  0  0  0  0  0  0  0  0
    7.3040    3.7690   17.1660 H   0  0  0  0  0  0  0  0  0  0  0  0
    5.0100    3.2150   16.3230 C   0  0  0  0  0  0  0  0  0  0  0  0
    3.9170    3.1550   16.3820 H   0  0  0  0  0  0  0  0  0  0  0  0
    5.4180    2.6360   17.1580 H   0  0  0  0  0  0  0  0  0  0  0  0
    5.3230    2.7070   15.4010 H   0  0  0  0  0  0  0  0  0  0  0  0
    5.7330    5.0960   14.8680 C   0  0  0  0  0  0  0  0  0  0  0  0
    5.6420    6.1800   14.7320 H   0  0  0  0  0  0  0  0  0  0  0  0
    6.7430    4.8170   14.5450 H   0  0  0  0  0  0  0  0  0  0  0  0
    5.0260    4.6050   14.1900 H   0  0  0  0  0  0  0  0  0  0  0  0
   -3.4800   10.9520   17.5090 C   0  0  0  0  0  0  0  0  0  0  0  0
   -4.3200   11.8570   18.0880 F   0  0  0  0  0  0  0  0  0  0  0  0
   -3.5830   11.1640   16.1670 F   0  0  0  0  0  0  0  0  0  0  0  0
   -4.0340    9.7300   17.7430 F   0  0  0  0  0  0  0  0  0  0  0  0
    0.1540   13.4510   20.0460 C   0  0  2  0  0  0  0  0  0  0  0  0
   -0.6340   14.2150   20.0140 H   0  0  0  0  0  0  0  0  0  0  0  0
    1.3960   14.0750   19.3980 C   0  0  0  0  0  0  0  0  0  0  0  0
    2.3090   13.5990   19.7700 H   0  0  0  0  0  0  0  0  0  0  0  0
    1.4700   15.1460   19.6060 H   0  0  0  0  0  0  0  0  0  0  0  0
    1.3790   13.9480   18.3100 H   0  0  0  0  0  0  0  0  0  0  0  0
    0.3920   13.0600   21.5200 C   0  0  0  0  0  0  0  0  0  0  0  0
    0.9800   13.8320   22.0330 H   0  0  0  0  0  0  0  0  0  0  0  0
    0.9930   12.1420   21.5750 H   0  0  0  0  0  0  0  0  0  0  0  0
   -0.8850   12.8520   22.2630 C   0  0  0  0  0  0  0  0  0  0  0  0
   -1.8030   13.7630   22.5080 N   0  0  0  0  0  0  0  0  0  0  0  0
   -2.8250   13.1670   23.2080 N   0  0  0  0  0  0  0  0  0  0  0  0
   -2.5050   11.9090   23.3810 C   0  0  0  0  0  0  0  0  0  0  0  0
   -1.2980   11.6640   22.8060 N   0  0  0  0  0  0  0  0  0  0  0  0
   -3.0990   11.1670   23.8970 H   0  0  0  0  0  0  0  0  0  0  0  0
   -0.6160   10.4000   22.7740 C   0  0  0  0  0  0  0  0  0  0  0  0
   -1.3430    9.6230   22.5260 H   0  0  0  0  0  0  0  0  0  0  0  0
    0.1720   10.4240   22.0180 H   0  0  0  0  0  0  0  0  0  0  0  0
   -0.1730   10.2080   23.7530 H   0  0  0  0  0  0  0  0  0  0  0  0
  1 40  1  0  0  0  0
  2  1  1  0  0  0  0
  2  7  1  0  0  0  0
  3  2  2  0  0  0  0
  4  5  2  0  0  0  0
  4  3  1  0  0  0  0
  5  6  1  0  0  0  0
  6  9  1  0  0  0  0
  6  1  2  0  0  0  0
  8  4  1  0  0  0  0
 10  3  1  0  0  0  0
 10 11  1  0  0  0  0
 11 12  2  0  0  0  0
 13 10  1  0  0  0  0
 14 15  1  0  0  0  0
 14 11  1  0  0  0  0
 15 20  1  0  0  0  0
 16 21  1  0  0  0  0
 16 15  2  0  0  0  0
 17 16  1  0  0  0  0
 18 17  2  0  0  0  0
 18 19  1  0  0  0  0
 19 14  2  0  0  0  0
 22 18  1  0  0  0  0
 23 17  1  0  0  0  0
 23 24  1  0  0  0  0
 24 27  1  0  0  0  0
 24 25  1  0  0  0  0
 26 24  1  0  0  0  0
 28 23  1  0  0  0  0
 28 29  1  0  0  0  0
 28 30  1  0  0  0  0
 31 28  1  0  0  0  0
 32 23  1  0  0  0  0
 33 32  1  0  0  0  0
 34 32  1  0  0  0  0
 35 32  1  0  0  0  0
 36 39  1  0  0  0  0
 36  5  1  0  0  0  0
 36 37  1  0  0  0  0
 38 36  1  0  0  0  0
 40 41  1  6  0  0  0
 40 46  1  0  0  0  0
 42 44  1  0  0  0  0
 42 43  1  0  0  0  0
 42 40  1  0  0  0  0
 45 42  1  0  0  0  0
 46 48  1  0  0  0  0
 46 47  1  0  0  0  0
 46 49  1  0  0  0  0
 49 50  2  0  0  0  0
 49 53  1  0  0  0  0
 50 51  1  0  0  0  0
 51 52  2  0  0  0  0
 52 54  1  0  0  0  0
 53 52  1  0  0  0  0
 55 53  1  0  0  0  0
 55 58  1  0  0  0  0
 56 55  1  0  0  0  0
 57 55  1  0  0  0  0
M  END
>  <MODEL>
8

>  <REMARK>
 VINA RESULT:    -8.002      4.193      9.919
 INTER + INTRA:         -11.948
 INTER:                 -10.667
 INTRA:                  -1.281
 UNBOUND:                 0.498
  Name = 
  12 active torsions:
  status: ('A' for Active; 'I' for Inactive)
    1  A    between atoms: C_1  and  C_2
    2  A    between atoms: C_2  and  C_3
    3  A    between atoms: C_2  and  C_10
    4  A    between atoms: C_3  and  C_4
    5  A    between atoms: N_8  and  C_9
    6  A    between atoms: C_12  and  N_13
    7  A    between atoms: C_14  and  C_16
    8  A    between atoms: C_19  and  C_20
    9  A    between atoms: C_20  and  C_21
   10  A    between atoms: C_20  and  C_22
   11  A    between atoms: C_20  and  C_23
   12  A    between atoms: C_27  and  C_28
                            x       y       z     vdW  Elec       q    Type
                         _______ _______ _______ _____ _____    ______ ____

>  <TORSDO>
F 12

$$$$
=
 OpenBabel07192307433D

 58 60  0  0  1  0  0  0  0  0999 V2000
   -0.2770   10.9860   19.3690 C   0  0  0  0  0  0  0  0  0  0  0  0
    0.6310   10.0500   18.8480 C   0  0  0  0  0  0  0  0  0  0  0  0
    1.1960    9.0540   19.6540 C   0  0  0  0  0  0  0  0  0  0  0  0
    0.8470    8.9930   21.0030 C   0  0  0  0  0  0  0  0  0  0  0  0
   -0.0630    9.9130   21.5510 C   0  0  0  0  0  0  0  0  0  0  0  0
   -0.6130   10.9080   20.7280 C   0  0  0  0  0  0  0  0  0  0  0  0
    0.9030   10.1040   17.7950 H   0  0  0  0  0  0  0  0  0  0  0  0
    1.2690    8.2340   21.6570 H   0  0  0  0  0  0  0  0  0  0  0  0
   -1.3140   11.6240   21.1590 H   0  0  0  0  0  0  0  0  0  0  0  0
    2.0880    8.1620   19.0370 N   0  0  0  0  0  0  0  0  0  0  0  0
    2.3560    6.8470   19.3650 C   0  0  0  0  0  0  0  0  0  0  0  0
    1.8690    6.1990   20.2850 O   0  0  0  0  0  0  0  0  0  0  0  0
    2.6260    8.4980   18.2410 H   0  0  0  0  0  0  0  0  0  0  0  0
    3.3540    6.2130   18.4410 C   0  0  0  0  0  0  0  0  0  0  0  0
    3.4760    4.8360   18.3810 C   0  0  0  0  0  0  0  0  0  0  0  0
    4.4060    4.2930   17.4930 C   0  0  0  0  0  0  0  0  0  0  0  0
    5.1940    5.1260   16.6880 C   0  0  0  0  0  0  0  0  0  0  0  0
    4.9850    6.5020   16.8380 C   0  0  0  0  0  0  0  0  0  0  0  0
    4.0960    7.0700   17.6850 N   0  0  0  0  0  0  0  0  0  0  0  0
    2.8630    4.1930   19.0050 H   0  0  0  0  0  0  0  0  0  0  0  0
    4.4900    3.2100   17.4520 H   0  0  0  0  0  0  0  0  0  0  0  0
    5.5520    7.2230   16.2520 H   0  0  0  0  0  0  0  0  0  0  0  0
    6.2180    4.5950   15.6740 C   0  0  0  0  0  0  0  0  0  0  0  0
    7.5810    4.4130   16.3770 C   0  0  0  0  0  0  0  0  0  0  0  0
    7.5590    3.5650   17.0730 H   0  0  0  0  0  0  0  0  0  0  0  0
    7.8670    5.2980   16.9570 H   0  0  0  0  0  0  0  0  0  0  0  0
    8.3800    4.2240   15.6490 H   0  0  0  0  0  0  0  0  0  0  0  0
    5.7540    3.2340   15.1120 C   0  0  0  0  0  0  0  0  0  0  0  0
    6.1100    3.0870   14.0860 H   0  0  0  0  0  0  0  0  0  0  0  0
    4.6630    3.1390   15.1010 H   0  0  0  0  0  0  0  0  0  0  0  0
    6.1390    2.4050   15.7210 H   0  0  0  0  0  0  0  0  0  0  0  0
    6.4420    5.5340   14.4680 C   0  0  0  0  0  0  0  0  0  0  0  0
    6.5840    4.9710   13.5380 H   0  0  0  0  0  0  0  0  0  0  0  0
    5.5760    6.1890   14.3170 H   0  0  0  0  0  0  0  0  0  0  0  0
    7.3160    6.1780   14.6160 H   0  0  0  0  0  0  0  0  0  0  0  0
   -0.4120    9.8400   23.0170 C   0  0  0  0  0  0  0  0  0  0  0  0
   -0.9780   10.9870   23.4910 F   0  0  0  0  0  0  0  0  0  0  0  0
   -1.3010    8.8490   23.3060 F   0  0  0  0  0  0  0  0  0  0  0  0
    0.6770    9.6130   23.8030 F   0  0  0  0  0  0  0  0  0  0  0  0
   -0.8800   12.0440   18.4560 C   0  0  2  0  0  0  0  0  0  0  0  0
   -0.4540   11.9090   17.4530 H   0  0  0  0  0  0  0  0  0  0  0  0
   -0.4870   13.4540   18.9130 C   0  0  0  0  0  0  0  0  0  0  0  0
    0.3860   13.4190   19.5740 H   0  0  0  0  0  0  0  0  0  0  0  0
   -1.2970   13.9480   19.4560 H   0  0  0  0  0  0  0  0  0  0  0  0
   -0.2260   14.0870   18.0580 H   0  0  0  0  0  0  0  0  0  0  0  0
   -2.4100   11.8610   18.3610 C   0  0  0  0  0  0  0  0  0  0  0  0
   -2.9160   12.8350   18.3720 H   0  0  0  0  0  0  0  0  0  0  0  0
   -2.7800   11.3230   19.2440 H   0  0  0  0  0  0  0  0  0  0  0  0
   -2.8150   11.1190   17.1320 C   0  0  0  0  0  0  0  0  0  0  0  0
   -2.0800   10.2570   16.4620 N   0  0  0  0  0  0  0  0  0  0  0  0
   -2.8210    9.7910   15.4020 N   0  0  0  0  0  0  0  0  0  0  0  0
   -3.9880   10.3840   15.4430 C   0  0  0  0  0  0  0  0  0  0  0  0
   -4.0310   11.2260   16.5100 N   0  0  0  0  0  0  0  0  0  0  0  0
   -4.8010   10.2370   14.7460 H   0  0  0  0  0  0  0  0  0  0  0  0
   -5.1470   12.0450   16.8980 C   0  0  0  0  0  0  0  0  0  0  0  0
   -4.9540   12.4370   17.9000 H   0  0  0  0  0  0  0  0  0  0  0  0
   -5.2600   12.8710   16.1930 H   0  0  0  0  0  0  0  0  0  0  0  0
   -6.0540   11.4380   16.8940 H   0  0  0  0  0  0  0  0  0  0  0  0
  1  6  1  0  0  0  0
  2  1  2  0  0  0  0
  2  3  1  0  0  0  0
  3  4  2  0  0  0  0
  4  5  1  0  0  0  0
  4  8  1  0  0  0  0
  5 36  1  0  0  0  0
  6  9  1  0  0  0  0
  6  5  2  0  0  0  0
  7  2  1  0  0  0  0
 10 11  1  0  0  0  0
 10  3  1  0  0  0  0
 11 12  2  0  0  0  0
 13 10  1  0  0  0  0
 14 11  1  0  0  0  0
 15 14  1  0  0  0  0
 15 20  1  0  0  0  0
 16 15  2  0  0  0  0
 17 18  2  0  0  0  0
 17 16  1  0  0  0  0
 18 19  1  0  0  0  0
 19 14  2  0  0  0  0
 21 16  1  0  0  0  0
 22 18  1  0  0  0  0
 23 24  1  0  0  0  0
 23 17  1  0  0  0  0
 24 26  1  0  0  0  0
 24 25  1  0  0  0  0
 27 24  1  0  0  0  0
 28 23  1  0  0  0  0
 28 31  1  0  0  0  0
 29 28  1  0  0  0  0
 30 28  1  0  0  0  0
 32 35  1  0  0  0  0
 32 23  1  0  0  0  0
 33 32  1  0  0  0  0
 34 32  1  0  0  0  0
 36 38  1  0  0  0  0
 36 37  1  0  0  0  0
 36 39  1  0  0  0  0
 40 41  1  6  0  0  0
 40 42  1  0  0  0  0
 40  1  1  0  0  0  0
 42 44  1  0  0  0  0
 42 43  1  0  0  0  0
 45 42  1  0  0  0  0
 46 47  1  0  0  0  0
 46 40  1  0  0  0  0
 46 48  1  0  0  0  0
 49 46  1  0  0  0  0
 50 49  2  0  0  0  0
 51 52  2  0  0  0  0
 51 50  1  0  0  0  0
 52 53  1  0  0  0  0
 53 55  1  0  0  0  0
 53 49  1  0  0  0  0
 54 52  1  0  0  0  0
 55 56  1  0  0  0  0
 57 55  1  0  0  0  0
 58 55  1  0  0  0  0
M  END
>  <MODEL>
9

>  <REMARK>
 VINA RESULT:    -7.993      3.887      9.306
 INTER + INTRA:         -11.934
 INTER:                 -11.056
 INTRA:                  -0.878
 UNBOUND:                 0.498
  Name = 
  12 active torsions:
  status: ('A' for Active; 'I' for Inactive)
    1  A    between atoms: C_1  and  C_2
    2  A    between atoms: C_2  and  C_3
    3  A    between atoms: C_2  and  C_10
    4  A    between atoms: C_3  and  C_4
    5  A    between atoms: N_8  and  C_9
    6  A    between atoms: C_12  and  N_13
    7  A    between atoms: C_14  and  C_16
    8  A    between atoms: C_19  and  C_20
    9  A    between atoms: C_20  and  C_21
   10  A    between atoms: C_20  and  C_22
   11  A    between atoms: C_20  and  C_23
   12  A    between atoms: C_27  and  C_28
                            x       y       z     vdW  Elec       q    Type
                         _______ _______ _______ _____ _____    ______ ____

>  <TORSDO>
F 12

$$$$
=
 OpenBabel07192307433D

 58 60  0  0  1  0  0  0  0  0999 V2000
   -0.1670   11.0930   20.3440 C   0  0  0  0  0  0  0  0  0  0  0  0
    0.8080   10.1930   19.8860 C   0  0  0  0  0  0  0  0  0  0  0  0
    0.6780    9.5400   18.6540 C   0  0  0  0  0  0  0  0  0  0  0  0
   -0.4470    9.7910   17.8680 C   0  0  0  0  0  0  0  0  0  0  0  0
   -1.4370   10.6910   18.2980 C   0  0  0  0  0  0  0  0  0  0  0  0
   -1.2900   11.3310   19.5390 C   0  0  0  0  0  0  0  0  0  0  0  0
    1.6820    9.9960   20.5040 H   0  0  0  0  0  0  0  0  0  0  0  0
   -0.5810    9.3000   16.9080 H   0  0  0  0  0  0  0  0  0  0  0  0
   -2.0640   12.0230   19.8720 H   0  0  0  0  0  0  0  0  0  0  0  0
    1.7100    8.6640   18.2820 N   0  0  0  0  0  0  0  0  0  0  0  0
    2.2480    7.6120   19.0000 C   0  0  0  0  0  0  0  0  0  0  0  0
    1.9330    7.2470   20.1270 O   0  0  0  0  0  0  0  0  0  0  0  0
    2.1430    8.7940   17.3710 H   0  0  0  0  0  0  0  0  0  0  0  0
    3.3220    6.8870   18.2440 C   0  0  0  0  0  0  0  0  0  0  0  0
    3.8870    7.4540   17.1140 C   0  0  0  0  0  0  0  0  0  0  0  0
    4.8950    6.7490   16.4560 C   0  0  0  0  0  0  0  0  0  0  0  0
    5.3200    5.5010   16.9290 C   0  0  0  0  0  0  0  0  0  0  0  0
    4.6740    5.0280   18.0770 C   0  0  0  0  0  0  0  0  0  0  0  0
    3.6930    5.6770   18.7470 N   0  0  0  0  0  0  0  0  0  0  0  0
    3.5560    8.4220   16.7510 H   0  0  0  0  0  0  0  0  0  0  0  0
    5.3330    7.2060   15.5720 H   0  0  0  0  0  0  0  0  0  0  0  0
    4.9410    4.0680   18.5160 H   0  0  0  0  0  0  0  0  0  0  0  0
    6.4390    4.6840   16.2670 C   0  0  0  0  0  0  0  0  0  0  0  0
    7.5830    4.4720   17.2820 C   0  0  0  0  0  0  0  0  0  0  0  0
    7.1960    4.1230   18.2480 H   0  0  0  0  0  0  0  0  0  0  0  0
    8.1410    5.3950   17.4730 H   0  0  0  0  0  0  0  0  0  0  0  0
    8.2990    3.7230   16.9210 H   0  0  0  0  0  0  0  0  0  0  0  0
    5.8990    3.3090   15.8190 C   0  0  0  0  0  0  0  0  0  0  0  0
    6.7150    2.5900   15.6780 H   0  0  0  0  0  0  0  0  0  0  0  0
    5.3440    3.3670   14.8760 H   0  0  0  0  0  0  0  0  0  0  0  0
    5.2130    2.8930   16.5670 H   0  0  0  0  0  0  0  0  0  0  0  0
    7.0480    5.3630   15.0200 C   0  0  0  0  0  0  0  0  0  0  0  0
    6.3210    6.0070   14.5130 H   0  0  0  0  0  0  0  0  0  0  0  0
    7.8990    5.9970   15.2960 H   0  0  0  0  0  0  0  0  0  0  0  0
    7.4150    4.6240   14.2980 H   0  0  0  0  0  0  0  0  0  0  0  0
   -2.6540   10.9350   17.4400 C   0  0  0  0  0  0  0  0  0  0  0  0
   -3.4180    9.8190   17.2650 F   0  0  0  0  0  0  0  0  0  0  0  0
   -3.4930   11.8740   17.9580 F   0  0  0  0  0  0  0  0  0  0  0  0
   -2.3320   11.3630   16.1880 F   0  0  0  0  0  0  0  0  0  0  0  0
    0.0200   11.7940   21.6830 C   0  0  2  0  0  0  0  0  0  0  0  0
    0.9780   11.4640   22.1060 H   0  0  0  0  0  0  0  0  0  0  0  0
   -1.0680   11.3740   22.6790 C   0  0  0  0  0  0  0  0  0  0  0  0
   -0.6790   11.3770   23.7030 H   0  0  0  0  0  0  0  0  0  0  0  0
   -1.4480   10.3710   22.4700 H   0  0  0  0  0  0  0  0  0  0  0  0
   -1.9180   12.0640   22.6490 H   0  0  0  0  0  0  0  0  0  0  0  0
    0.0780   13.3230   21.4830 C   0  0  0  0  0  0  0  0  0  0  0  0
    0.1700   13.8340   22.4500 H   0  0  0  0  0  0  0  0  0  0  0  0
   -0.8640   13.6820   21.0450 H   0  0  0  0  0  0  0  0  0  0  0  0
    1.2120   13.7360   20.6070 C   0  0  0  0  0  0  0  0  0  0  0  0
    2.4890   13.4950   20.8170 N   0  0  0  0  0  0  0  0  0  0  0  0
    3.2050   14.0330   19.7750 N   0  0  0  0  0  0  0  0  0  0  0  0
    2.3530   14.5970   18.9570 C   0  0  0  0  0  0  0  0  0  0  0  0
    1.0900   14.4370   19.4360 N   0  0  0  0  0  0  0  0  0  0  0  0
    2.5980   15.1120   18.0390 H   0  0  0  0  0  0  0  0  0  0  0  0
   -0.1170   14.9060   18.8140 C   0  0  0  0  0  0  0  0  0  0  0  0
   -0.9070   14.1740   19.0020 H   0  0  0  0  0  0  0  0  0  0  0  0
   -0.3990   15.8720   19.2380 H   0  0  0  0  0  0  0  0  0  0  0  0
    0.0530   15.0160   17.7420 H   0  0  0  0  0  0  0  0  0  0  0  0
  1 40  1  0  0  0  0
  2  1  1  0  0  0  0
  2  7  1  0  0  0  0
  3  2  2  0  0  0  0
  4  5  2  0  0  0  0
  4  3  1  0  0  0  0
  5  6  1  0  0  0  0
  6  9  1  0  0  0  0
  6  1  2  0  0  0  0
  8  4  1  0  0  0  0
 10  3  1  0  0  0  0
 10 11  1  0  0  0  0
 11 12  2  0  0  0  0
 13 10  1  0  0  0  0
 14 19  1  0  0  0  0
 14 11  1  0  0  0  0
 15 14  2  0  0  0  0
 16 17  2  0  0  0  0
 16 15  1  0  0  0  0
 17 18  1  0  0  0  0
 18 22  1  0  0  0  0
 18 19  2  0  0  0  0
 20 15  1  0  0  0  0
 21 16  1  0  0  0  0
 23 17  1  0  0  0  0
 23 24  1  0  0  0  0
 24 26  1  0  0  0  0
 24 25  1  0  0  0  0
 27 24  1  0  0  0  0
 28 23  1  0  0  0  0
 28 31  1  0  0  0  0
 29 28  1  0  0  0  0
 30 28  1  0  0  0  0
 32 34  1  0  0  0  0
 32 23  1  0  0  0  0
 33 32  1  0  0  0  0
 35 32  1  0  0  0  0
 36 38  1  0  0  0  0
 36  5  1  0  0  0  0
 37 36  1  0  0  0  0
 39 36  1  0  0  0  0
 40 41  1  1  0  0  0
 40 42  1  0  0  0  0
 42 43  1  0  0  0  0
 44 42  1  0  0  0  0
 45 42  1  0  0  0  0
 46 40  1  0  0  0  0
 46 47  1  0  0  0  0
 48 46  1  0  0  0  0
 49 50  2  0  0  0  0
 49 46  1  0  0  0  0
 51 50  1  0  0  0  0
 52 53  1  0  0  0  0
 52 51  2  0  0  0  0
 53 49  1  0  0  0  0
 54 52  1  0  0  0  0
 55 56  1  0  0  0  0
 55 57  1  0  0  0  0
 55 53  1  0  0  0  0
 58 55  1  0  0  0  0
M  END
>  <MODEL>
10

>  <REMARK>
 VINA RESULT:    -7.951      3.967      9.437
 INTER + INTRA:         -11.870
 INTER:                 -10.660
 INTRA:                  -1.209
 UNBOUND:                 0.498
  Name = 
  12 active torsions:
  status: ('A' for Active; 'I' for Inactive)
    1  A    between atoms: C_1  and  C_2
    2  A    between atoms: C_2  and  C_3
    3  A    between atoms: C_2  and  C_10
    4  A    between atoms: C_3  and  C_4
    5  A    between atoms: N_8  and  C_9
    6  A    between atoms: C_12  and  N_13
    7  A    between atoms: C_14  and  C_16
    8  A    between atoms: C_19  and  C_20
    9  A    between atoms: C_20  and  C_21
   10  A    between atoms: C_20  and  C_22
   11  A    between atoms: C_20  and  C_23
   12  A    between atoms: C_27  and  C_28
                            x       y       z     vdW  Elec       q    Type
                         _______ _______ _______ _____ _____    ______ ____

>  <TORSDO>
F 12

$$$$
=
 OpenBabel07192307433D

 58 60  0  0  1  0  0  0  0  0999 V2000
   -1.3470   11.8420   19.4770 C   0  0  0  0  0  0  0  0  0  0  0  0
   -0.7270   10.5820   19.4520 C   0  0  0  0  0  0  0  0  0  0  0  0
    0.6460   10.4490   19.2110 C   0  0  0  0  0  0  0  0  0  0  0  0
    1.4110   11.5950   18.9920 C   0  0  0  0  0  0  0  0  0  0  0  0
    0.8190   12.8690   19.0170 C   0  0  0  0  0  0  0  0  0  0  0  0
   -0.5600   12.9800   19.2540 C   0  0  0  0  0  0  0  0  0  0  0  0
   -1.3280    9.6900   19.6190 H   0  0  0  0  0  0  0  0  0  0  0  0
    2.4790   11.5280   18.8000 H   0  0  0  0  0  0  0  0  0  0  0  0
   -1.0170   13.9700   19.2650 H   0  0  0  0  0  0  0  0  0  0  0  0
    1.1730    9.1480   19.2120 N   0  0  0  0  0  0  0  0  0  0  0  0
    1.5250    8.3620   20.2930 C   0  0  0  0  0  0  0  0  0  0  0  0
    1.4590    8.6620   21.4800 O   0  0  0  0  0  0  0  0  0  0  0  0
    1.3300    8.6950   18.3150 H   0  0  0  0  0  0  0  0  0  0  0  0
    2.0230    7.0070   19.8830 C   0  0  0  0  0  0  0  0  0  0  0  0
    1.7160    5.8900   20.6410 C   0  0  0  0  0  0  0  0  0  0  0  0
    2.1870    4.6500   20.2100 C   0  0  0  0  0  0  0  0  0  0  0  0
    2.9520    4.5440   19.0410 C   0  0  0  0  0  0  0  0  0  0  0  0
    3.2030    5.7410   18.3610 C   0  0  0  0  0  0  0  0  0  0  0  0
    2.7660    6.9640   18.7430 N   0  0  0  0  0  0  0  0  0  0  0  0
    1.1210    5.9750   21.5450 H   0  0  0  0  0  0  0  0  0  0  0  0
    1.9360    3.7790   20.8100 H   0  0  0  0  0  0  0  0  0  0  0  0
    3.7880    5.7530   17.4420 H   0  0  0  0  0  0  0  0  0  0  0  0
    3.4820    3.2090   18.4980 C   0  0  0  0  0  0  0  0  0  0  0  0
    4.3870    3.4800   17.2760 C   0  0  0  0  0  0  0  0  0  0  0  0
    3.8980    4.1540   16.5620 H   0  0  0  0  0  0  0  0  0  0  0  0
    4.6330    2.5600   16.7340 H   0  0  0  0  0  0  0  0  0  0  0  0
    5.3320    3.9470   17.5800 H   0  0  0  0  0  0  0  0  0  0  0  0
    4.3040    2.4810   19.5840 C   0  0  0  0  0  0  0  0  0  0  0  0
    4.7040    3.1890   20.3190 H   0  0  0  0  0  0  0  0  0  0  0  0
    5.1510    1.9280   19.1640 H   0  0  0  0  0  0  0  0  0  0  0  0
    3.6850    1.7530   20.1240 H   0  0  0  0  0  0  0  0  0  0  0  0
    2.3690    2.2380   18.0420 C   0  0  0  0  0  0  0  0  0  0  0  0
    2.7810    1.3640   17.5250 H   0  0  0  0  0  0  0  0  0  0  0  0
    1.8010    1.8640   18.9020 H   0  0  0  0  0  0  0  0  0  0  0  0
    1.6570    2.7300   17.3700 H   0  0  0  0  0  0  0  0  0  0  0  0
    1.6610   14.0940   18.7590 C   0  0  0  0  0  0  0  0  0  0  0  0
    2.5020   13.9520   17.6950 F   0  0  0  0  0  0  0  0  0  0  0  0
    0.9200   15.2060   18.4940 F   0  0  0  0  0  0  0  0  0  0  0  0
    2.4560   14.4130   19.8180 F   0  0  0  0  0  0  0  0  0  0  0  0
   -2.8400   11.9440   19.7580 C   0  0  2  0  0  0  0  0  0  0  0  0
   -3.1230   11.0970   20.3980 H   0  0  0  0  0  0  0  0  0  0  0  0
   -3.6530   11.8060   18.4640 C   0  0  0  0  0  0  0  0  0  0  0  0
   -4.6410   11.3820   18.6700 H   0  0  0  0  0  0  0  0  0  0  0  0
   -3.1560   11.1570   17.7370 H   0  0  0  0  0  0  0  0  0  0  0  0
   -3.8060   12.7810   17.9890 H   0  0  0  0  0  0  0  0  0  0  0  0
   -3.1550   13.2510   20.5150 C   0  0  0  0  0  0  0  0  0  0  0  0
   -3.9020   13.8420   19.9700 H   0  0  0  0  0  0  0  0  0  0  0  0
   -2.2570   13.8820   20.5670 H   0  0  0  0  0  0  0  0  0  0  0  0
   -3.6540   12.9980   21.8970 C   0  0  0  0  0  0  0  0  0  0  0  0
   -4.9140   12.9320   22.2730 N   0  0  0  0  0  0  0  0  0  0  0  0
   -4.9470   12.6730   23.6220 N   0  0  0  0  0  0  0  0  0  0  0  0
   -3.7100   12.5940   24.0420 C   0  0  0  0  0  0  0  0  0  0  0  0
   -2.8630   12.7910   22.9970 N   0  0  0  0  0  0  0  0  0  0  0  0
   -3.3940   12.4020   25.0580 H   0  0  0  0  0  0  0  0  0  0  0  0
   -1.4270   12.7680   23.0540 C   0  0  0  0  0  0  0  0  0  0  0  0
   -1.1260   12.7090   24.1030 H   0  0  0  0  0  0  0  0  0  0  0  0
   -1.0500   11.8980   22.5120 H   0  0  0  0  0  0  0  0  0  0  0  0
   -1.0370   13.6780   22.5960 H   0  0  0  0  0  0  0  0  0  0  0  0
  1 40  1  0  0  0  0
  2  1  1  0  0  0  0
  2  7  1  0  0  0  0
  3 10  1  0  0  0  0
  3  2  2  0  0  0  0
  4  5  2  0  0  0  0
  4  3  1  0  0  0  0
  5  6  1  0  0  0  0
  6  9  1  0  0  0  0
  6  1  2  0  0  0  0
  8  4  1  0  0  0  0
 10 11  1  0  0  0  0
 11 12  2  0  0  0  0
 13 10  1  0  0  0  0
 14 11  1  0  0  0  0
 14 15  1  0  0  0  0
 15 20  1  0  0  0  0
 16 15  2  0  0  0  0
 16 21  1  0  0  0  0
 17 16  1  0  0  0  0
 18 19  1  0  0  0  0
 18 17  2  0  0  0  0
 19 14  2  0  0  0  0
 22 18  1  0  0  0  0
 23 17  1  0  0  0  0
 23 28  1  0  0  0  0
 24 27  1  0  0  0  0
 24 23  1  0  0  0  0
 25 24  1  0  0  0  0
 26 24  1  0  0  0  0
 28 31  1  0  0  0  0
 28 29  1  0  0  0  0
 30 28  1  0  0  0  0
 32 23  1  0  0  0  0
 32 34  1  0  0  0  0
 33 32  1  0  0  0  0
 35 32  1  0  0  0  0
 36  5  1  0  0  0  0
 36 39  1  0  0  0  0
 37 36  1  0  0  0  0
 38 36  1  0  0  0  0
 40 41  1  1  0  0  0
 40 46  1  0  0  0  0
 42 43  1  0  0  0  0
 42 40  1  0  0  0  0
 44 42  1  0  0  0  0
 45 42  1  0  0  0  0
 46 48  1  0  0  0  0
 46 49  1  0  0  0  0
 47 46  1  0  0  0  0
 49 50  2  0  0  0  0
 49 53  1  0  0  0  0
 50 51  1  0  0  0  0
 51 52  2  0  0  0  0
 52 54  1  0  0  0  0
 53 55  1  0  0  0  0
 53 52  1  0  0  0  0
 55 56  1  0  0  0  0
 57 55  1  0  0  0  0
 58 55  1  0  0  0  0
M  END
>  <MODEL>
11

>  <REMARK>
 VINA RESULT:    -7.878      4.778     10.599
 INTER + INTRA:         -11.755
 INTER:                 -10.494
 INTRA:                  -1.261
 UNBOUND:                 0.498
  Name = 
  12 active torsions:
  status: ('A' for Active; 'I' for Inactive)
    1  A    between atoms: C_1  and  C_2
    2  A    between atoms: C_2  and  C_3
    3  A    between atoms: C_2  and  C_10
    4  A    between atoms: C_3  and  C_4
    5  A    between atoms: N_8  and  C_9
    6  A    between atoms: C_12  and  N_13
    7  A    between atoms: C_14  and  C_16
    8  A    between atoms: C_19  and  C_20
    9  A    between atoms: C_20  and  C_21
   10  A    between atoms: C_20  and  C_22
   11  A    between atoms: C_20  and  C_23
   12  A    between atoms: C_27  and  C_28
                            x       y       z     vdW  Elec       q    Type
                         _______ _______ _______ _____ _____    ______ ____

>  <TORSDO>
F 12

$$$$
=
 OpenBabel07192307433D

 58 60  0  0  1  0  0  0  0  0999 V2000
    3.8690    5.1960   18.1520 C   0  0  0  0  0  0  0  0  0  0  0  0
    3.3440    6.4790   18.3780 C   0  0  0  0  0  0  0  0  0  0  0  0
    2.4250    6.7210   19.4070 C   0  0  0  0  0  0  0  0  0  0  0  0
    2.0240    5.6620   20.2210 C   0  0  0  0  0  0  0  0  0  0  0  0
    2.5350    4.3680   20.0220 C   0  0  0  0  0  0  0  0  0  0  0  0
    3.4510    4.1460   18.9820 C   0  0  0  0  0  0  0  0  0  0  0  0
    3.6580    7.3010   17.7380 H   0  0  0  0  0  0  0  0  0  0  0  0
    1.3100    5.8140   21.0270 H   0  0  0  0  0  0  0  0  0  0  0  0
    3.8410    3.1390   18.8260 H   0  0  0  0  0  0  0  0  0  0  0  0
    1.9650    8.0390   19.5560 N   0  0  0  0  0  0  0  0  0  0  0  0
    1.1770    8.5680   20.5610 C   0  0  0  0  0  0  0  0  0  0  0  0
    0.7070    7.9730   21.5240 O   0  0  0  0  0  0  0  0  0  0  0  0
    2.2260    8.7200   18.8460 H   0  0  0  0  0  0  0  0  0  0  0  0
    0.9250   10.0360   20.3830 C   0  0  0  0  0  0  0  0  0  0  0  0
    1.1780   10.6470   19.1670 C   0  0  0  0  0  0  0  0  0  0  0  0
    0.9110   12.0110   19.0460 C   0  0  0  0  0  0  0  0  0  0  0  0
    0.4010   12.7390   20.1290 C   0  0  0  0  0  0  0  0  0  0  0  0
    0.1890   12.0140   21.3080 C   0  0  0  0  0  0  0  0  0  0  0  0
    0.4340   10.6930   21.4700 N   0  0  0  0  0  0  0  0  0  0  0  0
    1.5720   10.0820   18.3290 H   0  0  0  0  0  0  0  0  0  0  0  0
    1.1100   12.4800   18.0850 H   0  0  0  0  0  0  0  0  0  0  0  0
   -0.2070   12.4980   22.2000 H   0  0  0  0  0  0  0  0  0  0  0  0
    0.0620   14.2350   20.0560 C   0  0  0  0  0  0  0  0  0  0  0  0
    1.2690   15.0540   20.5630 C   0  0  0  0  0  0  0  0  0  0  0  0
    1.3780   14.9680   21.6510 H   0  0  0  0  0  0  0  0  0  0  0  0
    1.1690   16.1200   20.3330 H   0  0  0  0  0  0  0  0  0  0  0  0
    2.2040   14.7050   20.1070 H   0  0  0  0  0  0  0  0  0  0  0  0
   -0.2470   14.6400   18.5990 C   0  0  0  0  0  0  0  0  0  0  0  0
   -1.3180   14.8270   18.4590 H   0  0  0  0  0  0  0  0  0  0  0  0
    0.0500   13.8680   17.8810 H   0  0  0  0  0  0  0  0  0  0  0  0
    0.2910   15.5560   18.3230 H   0  0  0  0  0  0  0  0  0  0  0  0
   -1.1600   14.6370   20.9110 C   0  0  0  0  0  0  0  0  0  0  0  0
   -2.0850   14.6350   20.3220 H   0  0  0  0  0  0  0  0  0  0  0  0
   -1.3070   13.9330   21.7390 H   0  0  0  0  0  0  0  0  0  0  0  0
   -1.0340   15.6340   21.3490 H   0  0  0  0  0  0  0  0  0  0  0  0
    2.0740    3.2340   20.9040 C   0  0  0  0  0  0  0  0  0  0  0  0
    0.8200    2.7930   20.5960 F   0  0  0  0  0  0  0  0  0  0  0  0
    2.8770    2.1360   20.8260 F   0  0  0  0  0  0  0  0  0  0  0  0
    2.0320    3.5800   22.2200 F   0  0  0  0  0  0  0  0  0  0  0  0
    4.8780    4.9780   17.0330 C   0  0  2  0  0  0  0  0  0  0  0  0
    4.8760    5.8740   16.3970 H   0  0  0  0  0  0  0  0  0  0  0  0
    4.4610    3.8040   16.1380 C   0  0  0  0  0  0  0  0  0  0  0  0
    3.3700    3.7120   16.1010 H   0  0  0  0  0  0  0  0  0  0  0  0
    4.8640    2.8540   16.4980 H   0  0  0  0  0  0  0  0  0  0  0  0
    4.8140    3.9470   15.1110 H   0  0  0  0  0  0  0  0  0  0  0  0
    6.2950    4.8000   17.6160 C   0  0  0  0  0  0  0  0  0  0  0  0
    6.8970    4.1450   16.9740 H   0  0  0  0  0  0  0  0  0  0  0  0
    6.2410    4.2940   18.5900 H   0  0  0  0  0  0  0  0  0  0  0  0
    7.0060    6.1010   17.7820 C   0  0  0  0  0  0  0  0  0  0  0  0
    6.9150    7.1470   16.9880 N   0  0  0  0  0  0  0  0  0  0  0  0
    7.7160    8.1420   17.4940 N   0  0  0  0  0  0  0  0  0  0  0  0
    8.2850    7.6800   18.5800 C   0  0  0  0  0  0  0  0  0  0  0  0
    7.8700    6.4040   18.8010 N   0  0  0  0  0  0  0  0  0  0  0  0
    8.9770    8.2170   19.2130 H   0  0  0  0  0  0  0  0  0  0  0  0
    8.2620    5.5650   19.8990 C   0  0  0  0  0  0  0  0  0  0  0  0
    8.1320    4.5220   19.5990 H   0  0  0  0  0  0  0  0  0  0  0  0
    9.3090    5.7490   20.1490 H   0  0  0  0  0  0  0  0  0  0  0  0
    7.6380    5.7930   20.7640 H   0  0  0  0  0  0  0  0  0  0  0  0
  1  2  2  0  0  0  0
  1  6  1  0  0  0  0
  2  3  1  0  0  0  0
  3 10  1  0  0  0  0
  3  4  2  0  0  0  0
  4  8  1  0  0  0  0
  5  4  1  0  0  0  0
  5 36  1  0  0  0  0
  6  5  2  0  0  0  0
  7  2  1  0  0  0  0
  9  6  1  0  0  0  0
 10 11  1  0  0  0  0
 11 12  2  0  0  0  0
 13 10  1  0  0  0  0
 14 11  1  0  0  0  0
 14 19  1  0  0  0  0
 15 14  2  0  0  0  0
 16 15  1  0  0  0  0
 16 17  2  0  0  0  0
 17 18  1  0  0  0  0
 18 19  2  0  0  0  0
 18 22  1  0  0  0  0
 20 15  1  0  0  0  0
 21 16  1  0  0  0  0
 23 17  1  0  0  0  0
 23 24  1  0  0  0  0
 23 32  1  0  0  0  0
 24 25  1  0  0  0  0
 26 24  1  0  0  0  0
 27 24  1  0  0  0  0
 28 23  1  0  0  0  0
 29 28  1  0  0  0  0
 30 28  1  0  0  0  0
 31 28  1  0  0  0  0
 32 35  1  0  0  0  0
 32 34  1  0  0  0  0
 33 32  1  0  0  0  0
 36 39  1  0  0  0  0
 37 36  1  0  0  0  0
 38 36  1  0  0  0  0
 40 41  1  6  0  0  0
 40 46  1  0  0  0  0
 40  1  1  0  0  0  0
 42 44  1  0  0  0  0
 42 40  1  0  0  0  0
 43 42  1  0  0  0  0
 45 42  1  0  0  0  0
 46 49  1  0  0  0  0
 46 48  1  0  0  0  0
 47 46  1  0  0  0  0
 49 53  1  0  0  0  0
 50 51  1  0  0  0  0
 50 49  2  0  0  0  0
 51 52  2  0  0  0  0
 52 53  1  0  0  0  0
 52 54  1  0  0  0  0
 53 55  1  0  0  0  0
 55 57  1  0  0  0  0
 55 58  1  0  0  0  0
 56 55  1  0  0  0  0
M  END
>  <MODEL>
12

>  <REMARK>
 VINA RESULT:    -7.872      2.194      3.300
 INTER + INTRA:         -11.746
 INTER:                 -10.843
 INTRA:                  -0.903
 UNBOUND:                 0.498
  Name = 
  12 active torsions:
  status: ('A' for Active; 'I' for Inactive)
    1  A    between atoms: C_1  and  C_2
    2  A    between atoms: C_2  and  C_3
    3  A    between atoms: C_2  and  C_10
    4  A    between atoms: C_3  and  C_4
    5  A    between atoms: N_8  and  C_9
    6  A    between atoms: C_12  and  N_13
    7  A    between atoms: C_14  and  C_16
    8  A    between atoms: C_19  and  C_20
    9  A    between atoms: C_20  and  C_21
   10  A    between atoms: C_20  and  C_22
   11  A    between atoms: C_20  and  C_23
   12  A    between atoms: C_27  and  C_28
                            x       y       z     vdW  Elec       q    Type
                         _______ _______ _______ _____ _____    ______ ____

>  <TORSDO>
F 12

$$$$
=
 OpenBabel07192307433D

 58 60  0  0  1  0  0  0  0  0999 V2000
    4.4760    5.1570   19.2290 C   0  0  0  0  0  0  0  0  0  0  0  0
    3.7460    6.3540   19.3180 C   0  0  0  0  0  0  0  0  0  0  0  0
    2.4910    6.3980   19.9360 C   0  0  0  0  0  0  0  0  0  0  0  0
    1.9570    5.2270   20.4740 C   0  0  0  0  0  0  0  0  0  0  0  0
    2.6670    4.0170   20.4060 C   0  0  0  0  0  0  0  0  0  0  0  0
    3.9220    3.9920   19.7760 C   0  0  0  0  0  0  0  0  0  0  0  0
    4.1650    7.2640   18.8920 H   0  0  0  0  0  0  0  0  0  0  0  0
    0.9840    5.2260   20.9590 H   0  0  0  0  0  0  0  0  0  0  0  0
    4.4660    3.0490   19.7190 H   0  0  0  0  0  0  0  0  0  0  0  0
    1.8430    7.6430   19.9790 N   0  0  0  0  0  0  0  0  0  0  0  0
    1.6030    8.5260   18.9430 C   0  0  0  0  0  0  0  0  0  0  0  0
    1.9300    8.3960   17.7690 O   0  0  0  0  0  0  0  0  0  0  0  0
    1.4940    7.9700   20.8770 H   0  0  0  0  0  0  0  0  0  0  0  0
    0.8480    9.7450   19.3860 C   0  0  0  0  0  0  0  0  0  0  0  0
    0.0810   10.4590   18.4820 C   0  0  0  0  0  0  0  0  0  0  0  0
   -0.6160   11.5750   18.9460 C   0  0  0  0  0  0  0  0  0  0  0  0
   -0.5370   11.9590   20.2910 C   0  0  0  0  0  0  0  0  0  0  0  0
    0.2730   11.1620   21.1090 C   0  0  0  0  0  0  0  0  0  0  0  0
    0.9660   10.0730   20.7030 N   0  0  0  0  0  0  0  0  0  0  0  0
    0.0200   10.1590   17.4410 H   0  0  0  0  0  0  0  0  0  0  0  0
   -1.2190   12.1260   18.2280 H   0  0  0  0  0  0  0  0  0  0  0  0
    0.3910   11.3860   22.1680 H   0  0  0  0  0  0  0  0  0  0  0  0
   -1.2970   13.1610   20.8710 C   0  0  0  0  0  0  0  0  0  0  0  0
   -2.8130   12.9540   20.6630 C   0  0  0  0  0  0  0  0  0  0  0  0
   -3.3920   13.4290   21.4640 H   0  0  0  0  0  0  0  0  0  0  0  0
   -3.0860   11.8930   20.6540 H   0  0  0  0  0  0  0  0  0  0  0  0
   -3.1440   13.3880   19.7110 H   0  0  0  0  0  0  0  0  0  0  0  0
   -1.0080   13.2930   22.3820 C   0  0  0  0  0  0  0  0  0  0  0  0
   -0.7510   14.3250   22.6480 H   0  0  0  0  0  0  0  0  0  0  0  0
   -0.1800   12.6520   22.7050 H   0  0  0  0  0  0  0  0  0  0  0  0
   -1.8840   13.0030   22.9770 H   0  0  0  0  0  0  0  0  0  0  0  0
   -0.9200   14.5080   20.2160 C   0  0  0  0  0  0  0  0  0  0  0  0
   -0.9750   15.3360   20.9320 H   0  0  0  0  0  0  0  0  0  0  0  0
    0.1070   14.4830   19.8340 H   0  0  0  0  0  0  0  0  0  0  0  0
   -1.5770   14.7420   19.3700 H   0  0  0  0  0  0  0  0  0  0  0  0
    2.0630    2.7580   20.9790 C   0  0  0  0  0  0  0  0  0  0  0  0
    0.8550    2.9680   21.5760 F   0  0  0  0  0  0  0  0  0  0  0  0
    1.8440    1.7950   20.0400 F   0  0  0  0  0  0  0  0  0  0  0  0
    2.8520    2.1870   21.9310 F   0  0  0  0  0  0  0  0  0  0  0  0
    5.8450    5.1550   18.5620 C   0  0  2  0  0  0  0  0  0  0  0  0
    6.0600    4.1280   18.2350 H   0  0  0  0  0  0  0  0  0  0  0  0
    6.9440    5.5360   19.5610 C   0  0  0  0  0  0  0  0  0  0  0  0
    6.9580    6.6180   19.7280 H   0  0  0  0  0  0  0  0  0  0  0  0
    7.9360    5.2400   19.2090 H   0  0  0  0  0  0  0  0  0  0  0  0
    6.7790    5.0560   20.5320 H   0  0  0  0  0  0  0  0  0  0  0  0
    5.8360    6.0680   17.3180 C   0  0  0  0  0  0  0  0  0  0  0  0
    6.5630    6.8820   17.4330 H   0  0  0  0  0  0  0  0  0  0  0  0
    4.8570    6.5550   17.2150 H   0  0  0  0  0  0  0  0  0  0  0  0
    6.1430    5.3200   16.0650 C   0  0  0  0  0  0  0  0  0  0  0  0
    7.1820    5.5060   15.2780 N   0  0  0  0  0  0  0  0  0  0  0  0
    7.1000    4.6100   14.2390 N   0  0  0  0  0  0  0  0  0  0  0  0
    6.0120    3.9030   14.4090 C   0  0  0  0  0  0  0  0  0  0  0  0
    5.3780    4.3110   15.5400 N   0  0  0  0  0  0  0  0  0  0  0  0
    5.6590    3.1130   13.7600 H   0  0  0  0  0  0  0  0  0  0  0  0
    4.1570    3.7680   16.0700 C   0  0  0  0  0  0  0  0  0  0  0  0
    3.3870    4.5420   16.0190 H   0  0  0  0  0  0  0  0  0  0  0  0
    3.8510    2.9020   15.4780 H   0  0  0  0  0  0  0  0  0  0  0  0
    4.3210    3.4620   17.1040 H   0  0  0  0  0  0  0  0  0  0  0  0
  1  2  2  0  0  0  0
  1  6  1  0  0  0  0
  2  3  1  0  0  0  0
  3 10  1  0  0  0  0
  3  4  2  0  0  0  0
  4  8  1  0  0  0  0
  5  4  1  0  0  0  0
  5 36  1  0  0  0  0
  6  5  2  0  0  0  0
  7  2  1  0  0  0  0
  9  6  1  0  0  0  0
 10 13  1  0  0  0  0
 11 14  1  0  0  0  0
 11 10  1  0  0  0  0
 12 11  2  0  0  0  0
 14 19  1  0  0  0  0
 15 16  1  0  0  0  0
 15 14  2  0  0  0  0
 16 17  2  0  0  0  0
 17 23  1  0  0  0  0
 17 18  1  0  0  0  0
 18 22  1  0  0  0  0
 19 18  2  0  0  0  0
 20 15  1  0  0  0  0
 21 16  1  0  0  0  0
 23 28  1  0  0  0  0
 24 23  1  0  0  0  0
 24 25  1  0  0  0  0
 26 24  1  0  0  0  0
 27 24  1  0  0  0  0
 28 29  1  0  0  0  0
 28 30  1  0  0  0  0
 28 31  1  0  0  0  0
 32 23  1  0  0  0  0
 32 33  1  0  0  0  0
 34 32  1  0  0  0  0
 35 32  1  0  0  0  0
 36 37  1  0  0  0  0
 36 39  1  0  0  0  0
 38 36  1  0  0  0  0
 40 41  1  6  0  0  0
 40  1  1  0  0  0  0
 40 42  1  0  0  0  0
 42 43  1  0  0  0  0
 42 45  1  0  0  0  0
 44 42  1  0  0  0  0
 46 47  1  0  0  0  0
 46 40  1  0  0  0  0
 48 46  1  0  0  0  0
 49 46  1  0  0  0  0
 50 49  2  0  0  0  0
 51 52  2  0  0  0  0
 51 50  1  0  0  0  0
 52 53  1  0  0  0  0
 53 49  1  0  0  0  0
 53 55  1  0  0  0  0
 54 52  1  0  0  0  0
 55 58  1  0  0  0  0
 56 55  1  0  0  0  0
 57 55  1  0  0  0  0
M  END
>  <MODEL>
13

>  <REMARK>
 VINA RESULT:    -7.847      1.447      1.965
 INTER + INTRA:         -11.707
 INTER:                 -10.980
 INTRA:                  -0.727
 UNBOUND:                 0.498
  Name = 
  12 active torsions:
  status: ('A' for Active; 'I' for Inactive)
    1  A    between atoms: C_1  and  C_2
    2  A    between atoms: C_2  and  C_3
    3  A    between atoms: C_2  and  C_10
    4  A    between atoms: C_3  and  C_4
    5  A    between atoms: N_8  and  C_9
    6  A    between atoms: C_12  and  N_13
    7  A    between atoms: C_14  and  C_16
    8  A    between atoms: C_19  and  C_20
    9  A    between atoms: C_20  and  C_21
   10  A    between atoms: C_20  and  C_22
   11  A    between atoms: C_20  and  C_23
   12  A    between atoms: C_27  and  C_28
                            x       y       z     vdW  Elec       q    Type
                         _______ _______ _______ _____ _____    ______ ____

>  <TORSDO>
F 12

$$$$
=
 OpenBabel07192307433D

 58 60  0  0  1  0  0  0  0  0999 V2000
    3.1180    4.6040   17.6250 C   0  0  0  0  0  0  0  0  0  0  0  0
    2.4120    5.6650   18.2150 C   0  0  0  0  0  0  0  0  0  0  0  0
    3.0590    6.8410   18.6110 C   0  0  0  0  0  0  0  0  0  0  0  0
    4.4350    6.9580   18.4150 C   0  0  0  0  0  0  0  0  0  0  0  0
    5.1670    5.9150   17.8230 C   0  0  0  0  0  0  0  0  0  0  0  0
    4.5010    4.7420   17.4370 C   0  0  0  0  0  0  0  0  0  0  0  0
    1.3380    5.5680   18.3690 H   0  0  0  0  0  0  0  0  0  0  0  0
    4.9700    7.8570   18.7140 H   0  0  0  0  0  0  0  0  0  0  0  0
    5.0730    3.9320   16.9840 H   0  0  0  0  0  0  0  0  0  0  0  0
    2.2640    7.8460   19.1850 N   0  0  0  0  0  0  0  0  0  0  0  0
    1.7740    8.9970   18.5980 C   0  0  0  0  0  0  0  0  0  0  0  0
    1.9560    9.3770   17.4470 O   0  0  0  0  0  0  0  0  0  0  0  0
    1.9980    7.7460   20.1620 H   0  0  0  0  0  0  0  0  0  0  0  0
    0.9300    9.8090   19.5370 C   0  0  0  0  0  0  0  0  0  0  0  0
    0.8130    9.4420   20.8670 C   0  0  0  0  0  0  0  0  0  0  0  0
    0.0310   10.2390   21.7040 C   0  0  0  0  0  0  0  0  0  0  0  0
   -0.6160   11.3780   21.2080 C   0  0  0  0  0  0  0  0  0  0  0  0
   -0.4270   11.6460   19.8470 C   0  0  0  0  0  0  0  0  0  0  0  0
    0.3210   10.9010   18.9990 N   0  0  0  0  0  0  0  0  0  0  0  0
    1.3160    8.5610   21.2500 H   0  0  0  0  0  0  0  0  0  0  0  0
   -0.0500    9.9440   22.7480 H   0  0  0  0  0  0  0  0  0  0  0  0
   -0.8920   12.5110   19.3760 H   0  0  0  0  0  0  0  0  0  0  0  0
   -1.4710   12.3100   22.0790 C   0  0  0  0  0  0  0  0  0  0  0  0
   -2.6640   12.8300   21.2480 C   0  0  0  0  0  0  0  0  0  0  0  0
   -2.7950   13.9110   21.3760 H   0  0  0  0  0  0  0  0  0  0  0  0
   -3.6070   12.3550   21.5390 H   0  0  0  0  0  0  0  0  0  0  0  0
   -2.5150   12.6390   20.1780 H   0  0  0  0  0  0  0  0  0  0  0  0
   -2.0070   11.5450   23.3080 C   0  0  0  0  0  0  0  0  0  0  0  0
   -3.0760   11.7360   23.4590 H   0  0  0  0  0  0  0  0  0  0  0  0
   -1.4880   11.8260   24.2310 H   0  0  0  0  0  0  0  0  0  0  0  0
   -1.8750   10.4620   23.1870 H   0  0  0  0  0  0  0  0  0  0  0  0
   -0.7040   13.5420   22.6070 C   0  0  0  0  0  0  0  0  0  0  0  0
   -1.3770   14.3820   22.8100 H   0  0  0  0  0  0  0  0  0  0  0  0
   -0.1900   13.3090   23.5480 H   0  0  0  0  0  0  0  0  0  0  0  0
    0.0590   13.8780   21.8940 H   0  0  0  0  0  0  0  0  0  0  0  0
    6.6580    6.0560   17.6360 C   0  0  0  0  0  0  0  0  0  0  0  0
    7.1380    5.3280   16.5880 F   0  0  0  0  0  0  0  0  0  0  0  0
    7.0480    7.3390   17.3980 F   0  0  0  0  0  0  0  0  0  0  0  0
    7.3610    5.6420   18.7270 F   0  0  0  0  0  0  0  0  0  0  0  0
    2.3740    3.3470   17.1930 C   0  0  2  0  0  0  0  0  0  0  0  0
    2.6700    3.1160   16.1610 H   0  0  0  0  0  0  0  0  0  0  0  0
    0.8590    3.5860   17.1720 C   0  0  0  0  0  0  0  0  0  0  0  0
    0.3250    2.6680   16.9070 H   0  0  0  0  0  0  0  0  0  0  0  0
    0.5780    4.3560   16.4480 H   0  0  0  0  0  0  0  0  0  0  0  0
    0.4960    3.9060   18.1550 H   0  0  0  0  0  0  0  0  0  0  0  0
    2.7700    2.1560   18.0910 C   0  0  0  0  0  0  0  0  0  0  0  0
    3.8490    1.9660   18.0250 H   0  0  0  0  0  0  0  0  0  0  0  0
    2.2840    1.2370   17.7340 H   0  0  0  0  0  0  0  0  0  0  0  0
    2.4040    2.3770   19.5190 C   0  0  0  0  0  0  0  0  0  0  0  0
    1.1880    2.5380   19.9980 N   0  0  0  0  0  0  0  0  0  0  0  0
    1.2810    2.7040   21.3590 N   0  0  0  0  0  0  0  0  0  0  0  0
    2.5490    2.6490   21.6810 C   0  0  0  0  0  0  0  0  0  0  0  0
    3.2920    2.4460   20.5600 N   0  0  0  0  0  0  0  0  0  0  0  0
    2.9570    2.7470   22.6770 H   0  0  0  0  0  0  0  0  0  0  0  0
    4.7220    2.3170   20.5050 C   0  0  0  0  0  0  0  0  0  0  0  0
    5.0130    1.4500   21.1030 H   0  0  0  0  0  0  0  0  0  0  0  0
    5.0400    2.1750   19.4700 H   0  0  0  0  0  0  0  0  0  0  0  0
    5.1780    3.2250   20.9030 H   0  0  0  0  0  0  0  0  0  0  0  0
  1  2  1  0  0  0  0
  2  7  1  0  0  0  0
  2  3  2  0  0  0  0
  3 10  1  0  0  0  0
  4  3  1  0  0  0  0
  4  8  1  0  0  0  0
  5  4  2  0  0  0  0
  6  1  2  0  0  0  0
  6  5  1  0  0  0  0
  9  6  1  0  0  0  0
 10 13  1  0  0  0  0
 11 10  1  0  0  0  0
 11 14  1  0  0  0  0
 12 11  2  0  0  0  0
 14 15  1  0  0  0  0
 15 20  1  0  0  0  0
 15 16  2  0  0  0  0
 16 21  1  0  0  0  0
 17 16  1  0  0  0  0
 17 23  1  0  0  0  0
 18 17  2  0  0  0  0
 19 14  2  0  0  0  0
 19 18  1  0  0  0  0
 22 18  1  0  0  0  0
 23 32  1  0  0  0  0
 23 28  1  0  0  0  0
 24 25  1  0  0  0  0
 24 26  1  0  0  0  0
 24 23  1  0  0  0  0
 27 24  1  0  0  0  0
 28 29  1  0  0  0  0
 28 30  1  0  0  0  0
 31 28  1  0  0  0  0
 32 33  1  0  0  0  0
 32 34  1  0  0  0  0
 35 32  1  0  0  0  0
 36  5  1  0  0  0  0
 36 39  1  0  0  0  0
 37 36  1  0  0  0  0
 38 36  1  0  0  0  0
 40 41  1  6  0  0  0
 40  1  1  0  0  0  0
 40 46  1  0  0  0  0
 42 40  1  0  0  0  0
 42 45  1  0  0  0  0
 43 42  1  0  0  0  0
 44 42  1  0  0  0  0
 46 49  1  0  0  0  0
 47 46  1  0  0  0  0
 48 46  1  0  0  0  0
 49 50  2  0  0  0  0
 49 53  1  0  0  0  0
 50 51  1  0  0  0  0
 51 52  2  0  0  0  0
 52 54  1  0  0  0  0
 53 52  1  0  0  0  0
 55 53  1  0  0  0  0
 55 58  1  0  0  0  0
 55 56  1  0  0  0  0
 57 55  1  0  0  0  0
M  END
>  <MODEL>
14

>  <REMARK>
 VINA RESULT:    -7.825      3.027      4.542
 INTER + INTRA:         -11.673
 INTER:                 -10.626
 INTRA:                  -1.046
 UNBOUND:                 0.498
  Name = 
  12 active torsions:
  status: ('A' for Active; 'I' for Inactive)
    1  A    between atoms: C_1  and  C_2
    2  A    between atoms: C_2  and  C_3
    3  A    between atoms: C_2  and  C_10
    4  A    between atoms: C_3  and  C_4
    5  A    between atoms: N_8  and  C_9
    6  A    between atoms: C_12  and  N_13
    7  A    between atoms: C_14  and  C_16
    8  A    between atoms: C_19  and  C_20
    9  A    between atoms: C_20  and  C_21
   10  A    between atoms: C_20  and  C_22
   11  A    between atoms: C_20  and  C_23
   12  A    between atoms: C_27  and  C_28
                            x       y       z     vdW  Elec       q    Type
                         _______ _______ _______ _____ _____    ______ ____

>  <TORSDO>
F 12

$$$$
=
 OpenBabel07192307433D

 58 60  0  0  1  0  0  0  0  0999 V2000
    3.8440    4.8630   18.6430 C   0  0  0  0  0  0  0  0  0  0  0  0
    3.2870    6.1220   18.9250 C   0  0  0  0  0  0  0  0  0  0  0  0
    2.3470    6.2910   19.9480 C   0  0  0  0  0  0  0  0  0  0  0  0
    1.9560    5.1840   20.7010 C   0  0  0  0  0  0  0  0  0  0  0  0
    2.4990    3.9140   20.4450 C   0  0  0  0  0  0  0  0  0  0  0  0
    3.4360    3.7640   19.4110 C   0  0  0  0  0  0  0  0  0  0  0  0
    3.5930    6.9820   18.3320 H   0  0  0  0  0  0  0  0  0  0  0  0
    1.2260    5.2800   21.5010 H   0  0  0  0  0  0  0  0  0  0  0  0
    3.8500    2.7750   19.2110 H   0  0  0  0  0  0  0  0  0  0  0  0
    1.8550    7.5900   20.1550 N   0  0  0  0  0  0  0  0  0  0  0  0
    1.5810    8.5670   19.2180 C   0  0  0  0  0  0  0  0  0  0  0  0
    1.7330    8.4920   18.0040 O   0  0  0  0  0  0  0  0  0  0  0  0
    1.6670    7.8830   21.1120 H   0  0  0  0  0  0  0  0  0  0  0  0
    1.0340    9.8210   19.8340 C   0  0  0  0  0  0  0  0  0  0  0  0
    1.1020   11.0240   19.1520 C   0  0  0  0  0  0  0  0  0  0  0  0
    0.5640   12.1590   19.7590 C   0  0  0  0  0  0  0  0  0  0  0  0
   -0.0280   12.0780   21.0260 C   0  0  0  0  0  0  0  0  0  0  0  0
   -0.0350   10.8110   21.6200 C   0  0  0  0  0  0  0  0  0  0  0  0
    0.4750    9.6850   21.0690 N   0  0  0  0  0  0  0  0  0  0  0  0
    1.5600   11.0830   18.1700 H   0  0  0  0  0  0  0  0  0  0  0  0
    0.6200   13.0960   19.2120 H   0  0  0  0  0  0  0  0  0  0  0  0
   -0.4750   10.6550   22.6040 H   0  0  0  0  0  0  0  0  0  0  0  0
   -0.6590   13.2820   21.7410 C   0  0  0  0  0  0  0  0  0  0  0  0
   -1.7760   13.8720   20.8520 C   0  0  0  0  0  0  0  0  0  0  0  0
   -2.7070   13.9970   21.4180 H   0  0  0  0  0  0  0  0  0  0  0  0
   -2.0040   13.2280   19.9960 H   0  0  0  0  0  0  0  0  0  0  0  0
   -1.4910   14.8560   20.4590 H   0  0  0  0  0  0  0  0  0  0  0  0
   -1.2660   12.8420   23.0900 C   0  0  0  0  0  0  0  0  0  0  0  0
   -1.6350   13.7030   23.6590 H   0  0  0  0  0  0  0  0  0  0  0  0
   -0.5400   12.3170   23.7210 H   0  0  0  0  0  0  0  0  0  0  0  0
   -2.1090   12.1560   22.9370 H   0  0  0  0  0  0  0  0  0  0  0  0
    0.3420   14.4210   22.0410 C   0  0  0  0  0  0  0  0  0  0  0  0
   -0.0740   15.4030   21.7880 H   0  0  0  0  0  0  0  0  0  0  0  0
    0.5970   14.4460   23.1070 H   0  0  0  0  0  0  0  0  0  0  0  0
    1.2780   14.2910   21.4850 H   0  0  0  0  0  0  0  0  0  0  0  0
    2.0480    2.7260   21.2600 C   0  0  0  0  0  0  0  0  0  0  0  0
    1.5040    1.7320   20.5020 F   0  0  0  0  0  0  0  0  0  0  0  0
    3.0620    2.1410   21.9570 F   0  0  0  0  0  0  0  0  0  0  0  0
    1.0980    3.0540   22.1790 F   0  0  0  0  0  0  0  0  0  0  0  0
    4.8750    4.7240   17.5310 C   0  0  2  0  0  0  0  0  0  0  0  0
    4.8200    5.6240   16.9040 H   0  0  0  0  0  0  0  0  0  0  0  0
    4.5460    3.5340   16.6220 C   0  0  0  0  0  0  0  0  0  0  0  0
    3.6310    3.7230   16.0500 H   0  0  0  0  0  0  0  0  0  0  0  0
    4.3990    2.6130   17.1920 H   0  0  0  0  0  0  0  0  0  0  0  0
    5.3520    3.3530   15.9020 H   0  0  0  0  0  0  0  0  0  0  0  0
    6.2960    4.6360   18.1270 C   0  0  0  0  0  0  0  0  0  0  0  0
    6.8970    3.8960   17.5830 H   0  0  0  0  0  0  0  0  0  0  0  0
    6.2480    4.2750   19.1640 H   0  0  0  0  0  0  0  0  0  0  0  0
    7.0040    5.9480   18.1000 C   0  0  0  0  0  0  0  0  0  0  0  0
    7.9720    6.3300   18.9060 N   0  0  0  0  0  0  0  0  0  0  0  0
    8.3570    7.5990   18.5440 N   0  0  0  0  0  0  0  0  0  0  0  0
    7.6120    7.9670   17.5320 C   0  0  0  0  0  0  0  0  0  0  0  0
    6.7480    6.9650   17.2170 N   0  0  0  0  0  0  0  0  0  0  0  0
    7.6640    8.9150   17.0160 H   0  0  0  0  0  0  0  0  0  0  0  0
    5.7780    6.9840   16.1570 C   0  0  0  0  0  0  0  0  0  0  0  0
    6.0280    7.8040   15.4780 H   0  0  0  0  0  0  0  0  0  0  0  0
    5.8030    6.0360   15.6170 H   0  0  0  0  0  0  0  0  0  0  0  0
    4.7850    7.1330   16.5840 H   0  0  0  0  0  0  0  0  0  0  0  0
  1  2  2  0  0  0  0
  1  6  1  0  0  0  0
  2  3  1  0  0  0  0
  3 10  1  0  0  0  0
  3  4  2  0  0  0  0
  4  8  1  0  0  0  0
  5  4  1  0  0  0  0
  5 36  1  0  0  0  0
  6  5  2  0  0  0  0
  7  2  1  0  0  0  0
  9  6  1  0  0  0  0
 10 13  1  0  0  0  0
 11 14  1  0  0  0  0
 11 10  1  0  0  0  0
 12 11  2  0  0  0  0
 14 19  1  0  0  0  0
 15 16  1  0  0  0  0
 15 14  2  0  0  0  0
 16 17  2  0  0  0  0
 17 18  1  0  0  0  0
 17 23  1  0  0  0  0
 18 22  1  0  0  0  0
 19 18  2  0  0  0  0
 20 15  1  0  0  0  0
 21 16  1  0  0  0  0
 23 32  1  0  0  0  0
 23 28  1  0  0  0  0
 24 25  1  0  0  0  0
 24 23  1  0  0  0  0
 26 24  1  0  0  0  0
 27 24  1  0  0  0  0
 28 29  1  0  0  0  0
 28 30  1  0  0  0  0
 31 28  1  0  0  0  0
 32 34  1  0  0  0  0
 33 32  1  0  0  0  0
 35 32  1  0  0  0  0
 36 38  1  0  0  0  0
 36 39  1  0  0  0  0
 37 36  1  0  0  0  0
 40 41  1  6  0  0  0
 40 46  1  0  0  0  0
 40  1  1  0  0  0  0
 42 44  1  0  0  0  0
 42 40  1  0  0  0  0
 43 42  1  0  0  0  0
 45 42  1  0  0  0  0
 46 48  1  0  0  0  0
 47 46  1  0  0  0  0
 49 46  1  0  0  0  0
 49 50  2  0  0  0  0
 51 50  1  0  0  0  0
 52 51  2  0  0  0  0
 53 52  1  0  0  0  0
 53 49  1  0  0  0  0
 54 52  1  0  0  0  0
 55 58  1  0  0  0  0
 55 53  1  0  0  0  0
 56 55  1  0  0  0  0
 57 55  1  0  0  0  0
M  END
>  <MODEL>
15

>  <REMARK>
 VINA RESULT:    -7.768      1.884      2.642
 INTER + INTRA:         -11.585
 INTER:                 -11.447
 INTRA:                  -0.137
 UNBOUND:                 0.498
  Name = 
  12 active torsions:
  status: ('A' for Active; 'I' for Inactive)
    1  A    between atoms: C_1  and  C_2
    2  A    between atoms: C_2  and  C_3
    3  A    between atoms: C_2  and  C_10
    4  A    between atoms: C_3  and  C_4
    5  A    between atoms: N_8  and  C_9
    6  A    between atoms: C_12  and  N_13
    7  A    between atoms: C_14  and  C_16
    8  A    between atoms: C_19  and  C_20
    9  A    between atoms: C_20  and  C_21
   10  A    between atoms: C_20  and  C_22
   11  A    between atoms: C_20  and  C_23
   12  A    between atoms: C_27  and  C_28
                            x       y       z     vdW  Elec       q    Type
                         _______ _______ _______ _____ _____    ______ ____

>  <TORSDO>
F 12

$$$$
=
 OpenBabel07192307433D

 58 60  0  0  1  0  0  0  0  0999 V2000
   -0.4430   12.4450   19.3240 C   0  0  0  0  0  0  0  0  0  0  0  0
    0.4730   11.4130   19.0590 C   0  0  0  0  0  0  0  0  0  0  0  0
    0.0850   10.2470   18.3890 C   0  0  0  0  0  0  0  0  0  0  0  0
   -1.2410   10.1090   17.9770 C   0  0  0  0  0  0  0  0  0  0  0  0
   -2.1780   11.1270   18.2240 C   0  0  0  0  0  0  0  0  0  0  0  0
   -1.7700   12.2860   18.9020 C   0  0  0  0  0  0  0  0  0  0  0  0
    1.5060   11.5230   19.3860 H   0  0  0  0  0  0  0  0  0  0  0  0
   -1.5760    9.2160   17.4570 H   0  0  0  0  0  0  0  0  0  0  0  0
   -2.5030   13.0700   19.0980 H   0  0  0  0  0  0  0  0  0  0  0  0
    1.0760    9.2780   18.1660 N   0  0  0  0  0  0  0  0  0  0  0  0
    1.6810    8.4380   19.0820 C   0  0  0  0  0  0  0  0  0  0  0  0
    1.4770    8.3900   20.2900 O   0  0  0  0  0  0  0  0  0  0  0  0
    1.4180    9.1520   17.2160 H   0  0  0  0  0  0  0  0  0  0  0  0
    2.6770    7.5130   18.4470 C   0  0  0  0  0  0  0  0  0  0  0  0
    3.4670    7.9490   17.3980 C   0  0  0  0  0  0  0  0  0  0  0  0
    4.3910    7.0570   16.8520 C   0  0  0  0  0  0  0  0  0  0  0  0
    4.5100    5.7550   17.3550 C   0  0  0  0  0  0  0  0  0  0  0  0
    3.6560    5.4260   18.4140 C   0  0  0  0  0  0  0  0  0  0  0  0
    2.7460    6.2580   18.9730 N   0  0  0  0  0  0  0  0  0  0  0  0
    3.3740    8.9590   17.0100 H   0  0  0  0  0  0  0  0  0  0  0  0
    5.0090    7.4120   16.0310 H   0  0  0  0  0  0  0  0  0  0  0  0
    3.6800    4.4370   18.8680 H   0  0  0  0  0  0  0  0  0  0  0  0
    5.5200    4.7320   16.8160 C   0  0  0  0  0  0  0  0  0  0  0  0
    4.9090    3.3170   16.9080 C   0  0  0  0  0  0  0  0  0  0  0  0
    5.3400    2.6490   16.1520 H   0  0  0  0  0  0  0  0  0  0  0  0
    3.8250    3.3260   16.7490 H   0  0  0  0  0  0  0  0  0  0  0  0
    5.0950    2.8680   17.8910 H   0  0  0  0  0  0  0  0  0  0  0  0
    5.8570    5.0430   15.3420 C   0  0  0  0  0  0  0  0  0  0  0  0
    5.9570    4.1220   14.7560 H   0  0  0  0  0  0  0  0  0  0  0  0
    6.7940    5.6020   15.2380 H   0  0  0  0  0  0  0  0  0  0  0  0
    5.0700    5.6510   14.8780 H   0  0  0  0  0  0  0  0  0  0  0  0
    6.8550    4.7090   17.5940 C   0  0  0  0  0  0  0  0  0  0  0  0
    6.9660    5.5910   18.2350 H   0  0  0  0  0  0  0  0  0  0  0  0
    6.9120    3.8300   18.2470 H   0  0  0  0  0  0  0  0  0  0  0  0
    7.7150    4.6670   16.9160 H   0  0  0  0  0  0  0  0  0  0  0  0
   -3.6110   10.9500   17.7860 C   0  0  0  0  0  0  0  0  0  0  0  0
   -4.0140    9.6470   17.7860 F   0  0  0  0  0  0  0  0  0  0  0  0
   -4.4990   11.6060   18.5830 F   0  0  0  0  0  0  0  0  0  0  0  0
   -3.8300   11.4040   16.5210 F   0  0  0  0  0  0  0  0  0  0  0  0
    0.0230   13.7040   20.0420 C   0  0  2  0  0  0  0  0  0  0  0  0
   -0.8110   14.4180   20.0490 H   0  0  0  0  0  0  0  0  0  0  0  0
    1.1710   14.3780   19.2810 C   0  0  0  0  0  0  0  0  0  0  0  0
    0.8930   14.5560   18.2360 H   0  0  0  0  0  0  0  0  0  0  0  0
    2.0780   13.7670   19.2850 H   0  0  0  0  0  0  0  0  0  0  0  0
    1.4220   15.3480   19.7240 H   0  0  0  0  0  0  0  0  0  0  0  0
    0.3960   13.3800   21.5040 C   0  0  0  0  0  0  0  0  0  0  0  0
    0.7780   14.2740   22.0120 H   0  0  0  0  0  0  0  0  0  0  0  0
    1.2160   12.6490   21.5310 H   0  0  0  0  0  0  0  0  0  0  0  0
   -0.7610   12.8420   22.2770 C   0  0  0  0  0  0  0  0  0  0  0  0
   -0.9380   11.5920   22.6500 N   0  0  0  0  0  0  0  0  0  0  0  0
   -2.1190   11.5150   23.3480 N   0  0  0  0  0  0  0  0  0  0  0  0
   -2.6410   12.7150   23.3790 C   0  0  0  0  0  0  0  0  0  0  0  0
   -1.8260   13.5820   22.7210 N   0  0  0  0  0  0  0  0  0  0  0  0
   -3.5740   12.9910   23.8520 H   0  0  0  0  0  0  0  0  0  0  0  0
   -2.0490   14.9910   22.5500 C   0  0  0  0  0  0  0  0  0  0  0  0
   -2.7780   15.1280   21.7480 H   0  0  0  0  0  0  0  0  0  0  0  0
   -2.4340   15.4180   23.4780 H   0  0  0  0  0  0  0  0  0  0  0  0
   -1.1050   15.4730   22.2930 H   0  0  0  0  0  0  0  0  0  0  0  0
  1 40  1  0  0  0  0
  2  1  1  0  0  0  0
  2  7  1  0  0  0  0
  3  2  2  0  0  0  0
  4  5  2  0  0  0  0
  4  3  1  0  0  0  0
  5  6  1  0  0  0  0
  6  9  1  0  0  0  0
  6  1  2  0  0  0  0
  8  4  1  0  0  0  0
 10  3  1  0  0  0  0
 10 11  1  0  0  0  0
 11 12  2  0  0  0  0
 13 10  1  0  0  0  0
 14 19  1  0  0  0  0
 14 11  1  0  0  0  0
 15 14  2  0  0  0  0
 16 17  2  0  0  0  0
 16 15  1  0  0  0  0
 17 18  1  0  0  0  0
 18 22  1  0  0  0  0
 18 19  2  0  0  0  0
 20 15  1  0  0  0  0
 21 16  1  0  0  0  0
 23 24  1  0  0  0  0
 23 17  1  0  0  0  0
 23 32  1  0  0  0  0
 24 27  1  0  0  0  0
 25 24  1  0  0  0  0
 26 24  1  0  0  0  0
 28 23  1  0  0  0  0
 29 28  1  0  0  0  0
 30 28  1  0  0  0  0
 31 28  1  0  0  0  0
 32 33  1  0  0  0  0
 32 34  1  0  0  0  0
 35 32  1  0  0  0  0
 36  5  1  0  0  0  0
 36 38  1  0  0  0  0
 37 36  1  0  0  0  0
 39 36  1  0  0  0  0
 40 41  1  1  0  0  0
 40 46  1  0  0  0  0
 42 44  1  0  0  0  0
 42 45  1  0  0  0  0
 42 40  1  0  0  0  0
 43 42  1  0  0  0  0
 46 48  1  0  0  0  0
 46 47  1  0  0  0  0
 46 49  1  0  0  0  0
 49 50  2  0  0  0  0
 49 53  1  0  0  0  0
 50 51  1  0  0  0  0
 51 52  2  0  0  0  0
 52 54  1  0  0  0  0
 53 52  1  0  0  0  0
 55 53  1  0  0  0  0
 55 57  1  0  0  0  0
 56 55  1  0  0  0  0
 58 55  1  0  0  0  0
M  END
>  <MODEL>
16

>  <REMARK>
 VINA RESULT:    -7.728      4.136     10.002
 INTER + INTRA:         -11.522
 INTER:                 -10.348
 INTRA:                  -1.175
 UNBOUND:                 0.498
  Name = 
  12 active torsions:
  status: ('A' for Active; 'I' for Inactive)
    1  A    between atoms: C_1  and  C_2
    2  A    between atoms: C_2  and  C_3
    3  A    between atoms: C_2  and  C_10
    4  A    between atoms: C_3  and  C_4
    5  A    between atoms: N_8  and  C_9
    6  A    between atoms: C_12  and  N_13
    7  A    between atoms: C_14  and  C_16
    8  A    between atoms: C_19  and  C_20
    9  A    between atoms: C_20  and  C_21
   10  A    between atoms: C_20  and  C_22
   11  A    between atoms: C_20  and  C_23
   12  A    between atoms: C_27  and  C_28
                            x       y       z     vdW  Elec       q    Type
                         _______ _______ _______ _____ _____    ______ ____

>  <TORSDO>
F 12

$$$$
=
 OpenBabel07192307433D

 58 60  0  0  1  0  0  0  0  0999 V2000
    4.2560    3.9050   17.9000 C   0  0  0  0  0  0  0  0  0  0  0  0
    3.3940    4.9880   18.1390 C   0  0  0  0  0  0  0  0  0  0  0  0
    3.8830    6.2290   18.5640 C   0  0  0  0  0  0  0  0  0  0  0  0
    5.2550    6.3900   18.7540 C   0  0  0  0  0  0  0  0  0  0  0  0
    6.1420    5.3260   18.5180 C   0  0  0  0  0  0  0  0  0  0  0  0
    5.6320    4.0870   18.0980 C   0  0  0  0  0  0  0  0  0  0  0  0
    2.3230    4.8570   17.9920 H   0  0  0  0  0  0  0  0  0  0  0  0
    5.6680    7.3390   19.0860 H   0  0  0  0  0  0  0  0  0  0  0  0
    6.3230    3.2620   17.9220 H   0  0  0  0  0  0  0  0  0  0  0  0
    2.9410    7.2510   18.7690 N   0  0  0  0  0  0  0  0  0  0  0  0
    2.0580    7.4100   19.8200 C   0  0  0  0  0  0  0  0  0  0  0  0
    1.9120    6.6670   20.7840 O   0  0  0  0  0  0  0  0  0  0  0  0
    2.8730    7.9860   18.0690 H   0  0  0  0  0  0  0  0  0  0  0  0
    1.2300    8.6550   19.6940 C   0  0  0  0  0  0  0  0  0  0  0  0
    1.2040    9.3600   18.5030 C   0  0  0  0  0  0  0  0  0  0  0  0
    0.4050   10.5020   18.4300 C   0  0  0  0  0  0  0  0  0  0  0  0
   -0.3460   10.9200   19.5360 C   0  0  0  0  0  0  0  0  0  0  0  0
   -0.2360   10.1310   20.6860 C   0  0  0  0  0  0  0  0  0  0  0  0
    0.5250    9.0170   20.8020 N   0  0  0  0  0  0  0  0  0  0  0  0
    1.7850    9.0330   17.6470 H   0  0  0  0  0  0  0  0  0  0  0  0
    0.3890   11.0450   17.4880 H   0  0  0  0  0  0  0  0  0  0  0  0
   -0.7850   10.3800   21.5930 H   0  0  0  0  0  0  0  0  0  0  0  0
   -1.2620   12.1530   19.5160 C   0  0  0  0  0  0  0  0  0  0  0  0
   -1.4880   12.6420   20.9630 C   0  0  0  0  0  0  0  0  0  0  0  0
   -2.1010   13.5510   20.9830 H   0  0  0  0  0  0  0  0  0  0  0  0
   -0.5460   12.8780   21.4700 H   0  0  0  0  0  0  0  0  0  0  0  0
   -2.0030   11.8810   21.5620 H   0  0  0  0  0  0  0  0  0  0  0  0
   -0.6100   13.2870   18.6950 C   0  0  0  0  0  0  0  0  0  0  0  0
   -0.0560   12.8870   17.8380 H   0  0  0  0  0  0  0  0  0  0  0  0
    0.0890   13.8830   19.2920 H   0  0  0  0  0  0  0  0  0  0  0  0
   -1.3690   13.9790   18.3090 H   0  0  0  0  0  0  0  0  0  0  0  0
   -2.6520   11.8830   18.8970 C   0  0  0  0  0  0  0  0  0  0  0  0
   -2.9550   12.6880   18.2170 H   0  0  0  0  0  0  0  0  0  0  0  0
   -2.6460   10.9550   18.3130 H   0  0  0  0  0  0  0  0  0  0  0  0
   -3.4220   11.7780   19.6690 H   0  0  0  0  0  0  0  0  0  0  0  0
    7.6210    5.5160   18.7480 C   0  0  0  0  0  0  0  0  0  0  0  0
    8.0960    6.6880   18.2380 F   0  0  0  0  0  0  0  0  0  0  0  0
    7.9600    5.5270   20.0670 F   0  0  0  0  0  0  0  0  0  0  0  0
    8.3690    4.5330   18.1730 F   0  0  0  0  0  0  0  0  0  0  0  0
    3.6860    2.5760   17.4230 C   0  0  2  0  0  0  0  0  0  0  0  0
    4.3980    2.1370   16.7120 H   0  0  0  0  0  0  0  0  0  0  0  0
    2.3740    2.7840   16.6570 C   0  0  0  0  0  0  0  0  0  0  0  0
    2.2170    1.9810   15.9290 H   0  0  0  0  0  0  0  0  0  0  0  0
    2.3640    3.7330   16.1140 H   0  0  0  0  0  0  0  0  0  0  0  0
    1.5150    2.7820   17.3380 H   0  0  0  0  0  0  0  0  0  0  0  0
    3.5270    1.6040   18.6120 C   0  0  0  0  0  0  0  0  0  0  0  0
    4.5050    1.2250   18.9330 H   0  0  0  0  0  0  0  0  0  0  0  0
    2.9530    0.7200   18.3020 H   0  0  0  0  0  0  0  0  0  0  0  0
    2.8490    2.2420   19.7770 C   0  0  0  0  0  0  0  0  0  0  0  0
    3.4290    2.6800   20.8740 N   0  0  0  0  0  0  0  0  0  0  0  0
    2.4590    3.2060   21.6940 N   0  0  0  0  0  0  0  0  0  0  0  0
    1.3080    3.0710   21.0830 C   0  0  0  0  0  0  0  0  0  0  0  0
    1.5020    2.4720   19.8780 N   0  0  0  0  0  0  0  0  0  0  0  0
    0.3460    3.3830   21.4640 H   0  0  0  0  0  0  0  0  0  0  0  0
    0.4830    2.1640   18.9120 C   0  0  0  0  0  0  0  0  0  0  0  0
    0.6150    1.1280   18.5920 H   0  0  0  0  0  0  0  0  0  0  0  0
   -0.5030    2.2890   19.3630 H   0  0  0  0  0  0  0  0  0  0  0  0
    0.5820    2.8410   18.0610 H   0  0  0  0  0  0  0  0  0  0  0  0
  1  6  2  0  0  0  0
  1  2  1  0  0  0  0
  2  3  2  0  0  0  0
  3  4  1  0  0  0  0
  3 10  1  0  0  0  0
  4  8  1  0  0  0  0
  5 36  1  0  0  0  0
  5  4  2  0  0  0  0
  6  5  1  0  0  0  0
  7  2  1  0  0  0  0
  9  6  1  0  0  0  0
 10 11  1  0  0  0  0
 11 12  2  0  0  0  0
 13 10  1  0  0  0  0
 14 11  1  0  0  0  0
 14 19  1  0  0  0  0
 15 14  2  0  0  0  0
 16 15  1  0  0  0  0
 16 17  2  0  0  0  0
 17 18  1  0  0  0  0
 18 19  2  0  0  0  0
 18 22  1  0  0  0  0
 20 15  1  0  0  0  0
 21 16  1  0  0  0  0
 23 17  1  0  0  0  0
 23 24  1  0  0  0  0
 24 25  1  0  0  0  0
 24 26  1  0  0  0  0
 24 27  1  0  0  0  0
 28 30  1  0  0  0  0
 28 23  1  0  0  0  0
 29 28  1  0  0  0  0
 31 28  1  0  0  0  0
 32 23  1  0  0  0  0
 32 35  1  0  0  0  0
 33 32  1  0  0  0  0
 34 32  1  0  0  0  0
 36 38  1  0  0  0  0
 37 36  1  0  0  0  0
 39 36  1  0  0  0  0
 40 41  1  6  0  0  0
 40  1  1  0  0  0  0
 40 46  1  0  0  0  0
 42 45  1  0  0  0  0
 42 40  1  0  0  0  0
 43 42  1  0  0  0  0
 44 42  1  0  0  0  0
 46 47  1  0  0  0  0
 46 49  1  0  0  0  0
 48 46  1  0  0  0  0
 49 53  1  0  0  0  0
 49 50  2  0  0  0  0
 50 51  1  0  0  0  0
 52 54  1  0  0  0  0
 52 51  2  0  0  0  0
 53 52  1  0  0  0  0
 55 57  1  0  0  0  0
 55 53  1  0  0  0  0
 56 55  1  0  0  0  0
 58 55  1  0  0  0  0
M  END
>  <MODEL>
17

>  <REMARK>
 VINA RESULT:    -7.728      3.105      4.732
 INTER + INTRA:         -11.522
 INTER:                 -11.006
 INTRA:                  -0.516
 UNBOUND:                 0.498
  Name = 
  12 active torsions:
  status: ('A' for Active; 'I' for Inactive)
    1  A    between atoms: C_1  and  C_2
    2  A    between atoms: C_2  and  C_3
    3  A    between atoms: C_2  and  C_10
    4  A    between atoms: C_3  and  C_4
    5  A    between atoms: N_8  and  C_9
    6  A    between atoms: C_12  and  N_13
    7  A    between atoms: C_14  and  C_16
    8  A    between atoms: C_19  and  C_20
    9  A    between atoms: C_20  and  C_21
   10  A    between atoms: C_20  and  C_22
   11  A    between atoms: C_20  and  C_23
   12  A    between atoms: C_27  and  C_28
                            x       y       z     vdW  Elec       q    Type
                         _______ _______ _______ _____ _____    ______ ____

>  <TORSDO>
F 12

$$$$
=
 OpenBabel07192307433D

 58 60  0  0  1  0  0  0  0  0999 V2000
    3.4860    4.2710   17.4730 C   0  0  0  0  0  0  0  0  0  0  0  0
    2.8250    5.4500   17.8540 C   0  0  0  0  0  0  0  0  0  0  0  0
    3.5310    6.6300   18.1160 C   0  0  0  0  0  0  0  0  0  0  0  0
    4.9210    6.6310   17.9960 C   0  0  0  0  0  0  0  0  0  0  0  0
    5.6090    5.4680   17.6120 C   0  0  0  0  0  0  0  0  0  0  0  0
    4.8830    4.2930   17.3590 C   0  0  0  0  0  0  0  0  0  0  0  0
    1.7410    5.4440   17.9500 H   0  0  0  0  0  0  0  0  0  0  0  0
    5.5000    7.5290   18.1950 H   0  0  0  0  0  0  0  0  0  0  0  0
    5.4220    3.3910   17.0680 H   0  0  0  0  0  0  0  0  0  0  0  0
    2.7780    7.7570   18.4830 N   0  0  0  0  0  0  0  0  0  0  0  0
    1.9870    7.9370   19.6020 C   0  0  0  0  0  0  0  0  0  0  0  0
    1.7740    7.1270   20.4970 O   0  0  0  0  0  0  0  0  0  0  0  0
    2.7930    8.5650   17.8650 H   0  0  0  0  0  0  0  0  0  0  0  0
    1.3660    9.3020   19.6550 C   0  0  0  0  0  0  0  0  0  0  0  0
    1.2720   10.0730   18.5100 C   0  0  0  0  0  0  0  0  0  0  0  0
    0.6700   11.3280   18.6060 C   0  0  0  0  0  0  0  0  0  0  0  0
    0.1760   11.7910   19.8330 C   0  0  0  0  0  0  0  0  0  0  0  0
    0.3310   10.9260   20.9220 C   0  0  0  0  0  0  0  0  0  0  0  0
    0.9080    9.7020   20.8740 N   0  0  0  0  0  0  0  0  0  0  0  0
    1.6540    9.7120   17.5600 H   0  0  0  0  0  0  0  0  0  0  0  0
    0.5980   11.9230   17.6990 H   0  0  0  0  0  0  0  0  0  0  0  0
   -0.0240   11.2030   21.9130 H   0  0  0  0  0  0  0  0  0  0  0  0
   -0.5180   13.1500   20.0040 C   0  0  0  0  0  0  0  0  0  0  0  0
   -0.1690   14.0540   18.8010 C   0  0  0  0  0  0  0  0  0  0  0  0
   -0.9600   14.0270   18.0430 H   0  0  0  0  0  0  0  0  0  0  0  0
    0.7590   13.7450   18.3090 H   0  0  0  0  0  0  0  0  0  0  0  0
   -0.0440   15.0980   19.1140 H   0  0  0  0  0  0  0  0  0  0  0  0
   -2.0480   12.9620   20.0670 C   0  0  0  0  0  0  0  0  0  0  0  0
   -2.5560   13.5900   19.3260 H   0  0  0  0  0  0  0  0  0  0  0  0
   -2.4590   13.2150   21.0510 H   0  0  0  0  0  0  0  0  0  0  0  0
   -2.3250   11.9190   19.8660 H   0  0  0  0  0  0  0  0  0  0  0  0
   -0.0980   13.9050   21.2860 C   0  0  0  0  0  0  0  0  0  0  0  0
    0.8070   14.5020   21.1260 H   0  0  0  0  0  0  0  0  0  0  0  0
   -0.8850   14.5970   21.6070 H   0  0  0  0  0  0  0  0  0  0  0  0
    0.0880   13.2140   22.1160 H   0  0  0  0  0  0  0  0  0  0  0  0
    7.1140    5.4860   17.5060 C   0  0  0  0  0  0  0  0  0  0  0  0
    7.7370    5.4990   18.7190 F   0  0  0  0  0  0  0  0  0  0  0  0
    7.6170    4.4040   16.8490 F   0  0  0  0  0  0  0  0  0  0  0  0
    7.5770    6.5820   16.8420 F   0  0  0  0  0  0  0  0  0  0  0  0
    2.6800    3.0120   17.1820 C   0  0  2  0  0  0  0  0  0  0  0  0
    2.9660    2.6500   16.1850 H   0  0  0  0  0  0  0  0  0  0  0  0
    1.1800    3.3220   17.1220 C   0  0  0  0  0  0  0  0  0  0  0  0
    0.6490    2.8370   17.9490 H   0  0  0  0  0  0  0  0  0  0  0  0
    0.7280    2.9770   16.1880 H   0  0  0  0  0  0  0  0  0  0  0  0
    0.9960    4.3990   17.2010 H   0  0  0  0  0  0  0  0  0  0  0  0
    3.0140    1.9120   18.2110 C   0  0  0  0  0  0  0  0  0  0  0  0
    4.0950    1.7190   18.2320 H   0  0  0  0  0  0  0  0  0  0  0  0
    2.5480    0.9630   17.9140 H   0  0  0  0  0  0  0  0  0  0  0  0
    2.5610    2.2680   19.5870 C   0  0  0  0  0  0  0  0  0  0  0  0
    1.3230    2.5150   19.9610 N   0  0  0  0  0  0  0  0  0  0  0  0
    1.3280    2.7930   21.3070 N   0  0  0  0  0  0  0  0  0  0  0  0
    2.5670    2.7170   21.7240 C   0  0  0  0  0  0  0  0  0  0  0  0
    3.3770    2.3900   20.6810 N   0  0  0  0  0  0  0  0  0  0  0  0
    2.9100    2.8830   22.7350 H   0  0  0  0  0  0  0  0  0  0  0  0
    4.8000    2.2020   20.7400 C   0  0  0  0  0  0  0  0  0  0  0  0
    5.1070    1.6240   19.8650 H   0  0  0  0  0  0  0  0  0  0  0  0
    5.3010    3.1720   20.7370 H   0  0  0  0  0  0  0  0  0  0  0  0
    5.0510    1.6670   21.6570 H   0  0  0  0  0  0  0  0  0  0  0  0
  1  2  1  0  0  0  0
  2  7  1  0  0  0  0
  2  3  2  0  0  0  0
  3 10  1  0  0  0  0
  4  3  1  0  0  0  0
  4  8  1  0  0  0  0
  5  4  2  0  0  0  0
  6  1  2  0  0  0  0
  6  5  1  0  0  0  0
  9  6  1  0  0  0  0
 10 11  1  0  0  0  0
 11 14  1  0  0  0  0
 11 12  2  0  0  0  0
 13 10  1  0  0  0  0
 14 19  1  0  0  0  0
 15 16  1  0  0  0  0
 15 14  2  0  0  0  0
 16 17  2  0  0  0  0
 17 23  1  0  0  0  0
 17 18  1  0  0  0  0
 18 22  1  0  0  0  0
 19 18  2  0  0  0  0
 20 15  1  0  0  0  0
 21 16  1  0  0  0  0
 23 28  1  0  0  0  0
 23 32  1  0  0  0  0
 24 27  1  0  0  0  0
 24 23  1  0  0  0  0
 25 24  1  0  0  0  0
 26 24  1  0  0  0  0
 28 30  1  0  0  0  0
 29 28  1  0  0  0  0
 31 28  1  0  0  0  0
 32 34  1  0  0  0  0
 32 35  1  0  0  0  0
 33 32  1  0  0  0  0
 36  5  1  0  0  0  0
 36 37  1  0  0  0  0
 38 36  1  0  0  0  0
 39 36  1  0  0  0  0
 40 41  1  6  0  0  0
 40  1  1  0  0  0  0
 40 46  1  0  0  0  0
 42 40  1  0  0  0  0
 42 45  1  0  0  0  0
 42 43  1  0  0  0  0
 44 42  1  0  0  0  0
 46 47  1  0  0  0  0
 46 49  1  0  0  0  0
 48 46  1  0  0  0  0
 49 50  2  0  0  0  0
 49 53  1  0  0  0  0
 50 51  1  0  0  0  0
 51 52  2  0  0  0  0
 52 54  1  0  0  0  0
 53 55  1  0  0  0  0
 53 52  1  0  0  0  0
 55 58  1  0  0  0  0
 56 55  1  0  0  0  0
 57 55  1  0  0  0  0
M  END
>  <MODEL>
18

>  <REMARK>
 VINA RESULT:    -7.683      3.029      4.732
 INTER + INTRA:         -11.452
 INTER:                 -10.583
 INTRA:                  -0.869
 UNBOUND:                 0.498
  Name = 
  12 active torsions:
  status: ('A' for Active; 'I' for Inactive)
    1  A    between atoms: C_1  and  C_2
    2  A    between atoms: C_2  and  C_3
    3  A    between atoms: C_2  and  C_10
    4  A    between atoms: C_3  and  C_4
    5  A    between atoms: N_8  and  C_9
    6  A    between atoms: C_12  and  N_13
    7  A    between atoms: C_14  and  C_16
    8  A    between atoms: C_19  and  C_20
    9  A    between atoms: C_20  and  C_21
   10  A    between atoms: C_20  and  C_22
   11  A    between atoms: C_20  and  C_23
   12  A    between atoms: C_27  and  C_28
                            x       y       z     vdW  Elec       q    Type
                         _______ _______ _______ _____ _____    ______ ____

>  <TORSDO>
F 12

$$$$
=
 OpenBabel07192307433D

 58 60  0  0  1  0  0  0  0  0999 V2000
    4.5470    5.5090   16.4980 C   0  0  0  0  0  0  0  0  0  0  0  0
    4.1220    6.7910   16.8830 C   0  0  0  0  0  0  0  0  0  0  0  0
    3.2400    6.9750   17.9550 C   0  0  0  0  0  0  0  0  0  0  0  0
    2.7760    5.8600   18.6520 C   0  0  0  0  0  0  0  0  0  0  0  0
    3.1870    4.5650   18.2920 C   0  0  0  0  0  0  0  0  0  0  0  0
    4.0670    4.4020   17.2100 C   0  0  0  0  0  0  0  0  0  0  0  0
    4.4840    7.6590   16.3340 H   0  0  0  0  0  0  0  0  0  0  0  0
    2.0880    5.9670   19.4870 H   0  0  0  0  0  0  0  0  0  0  0  0
    4.3790    3.3950   16.9300 H   0  0  0  0  0  0  0  0  0  0  0  0
    2.8800    8.2960   18.2670 N   0  0  0  0  0  0  0  0  0  0  0  0
    1.6840    8.9430   18.0240 C   0  0  0  0  0  0  0  0  0  0  0  0
    0.6940    8.4850   17.4650 O   0  0  0  0  0  0  0  0  0  0  0  0
    3.5700    8.8830   18.7320 H   0  0  0  0  0  0  0  0  0  0  0  0
    1.6750   10.3530   18.5400 C   0  0  0  0  0  0  0  0  0  0  0  0
    0.9620   10.6750   19.6820 C   0  0  0  0  0  0  0  0  0  0  0  0
    0.9990   11.9950   20.1320 C   0  0  0  0  0  0  0  0  0  0  0  0
    1.7380   12.9650   19.4420 C   0  0  0  0  0  0  0  0  0  0  0  0
    2.4130   12.5220   18.2990 C   0  0  0  0  0  0  0  0  0  0  0  0
    2.4050   11.2540   17.8260 N   0  0  0  0  0  0  0  0  0  0  0  0
    0.3920    9.9210   20.2160 H   0  0  0  0  0  0  0  0  0  0  0  0
    0.4400   12.2350   21.0330 H   0  0  0  0  0  0  0  0  0  0  0  0
    3.0130   13.2070   17.7010 H   0  0  0  0  0  0  0  0  0  0  0  0
    1.8400   14.4280   19.8950 C   0  0  0  0  0  0  0  0  0  0  0  0
    0.7790   15.2670   19.1490 C   0  0  0  0  0  0  0  0  0  0  0  0
   -0.2360   14.9310   19.3940 H   0  0  0  0  0  0  0  0  0  0  0  0
    0.8870   15.1950   18.0610 H   0  0  0  0  0  0  0  0  0  0  0  0
    0.8510   16.3280   19.4180 H   0  0  0  0  0  0  0  0  0  0  0  0
    1.5890   14.5330   21.4150 C   0  0  0  0  0  0  0  0  0  0  0  0
    0.7640   15.2220   21.6340 H   0  0  0  0  0  0  0  0  0  0  0  0
    2.4700   14.8900   21.9580 H   0  0  0  0  0  0  0  0  0  0  0  0
    1.3290   13.5550   21.8390 H   0  0  0  0  0  0  0  0  0  0  0  0
    3.2170   15.0710   19.6150 C   0  0  0  0  0  0  0  0  0  0  0  0
    4.0390   14.3830   19.8450 H   0  0  0  0  0  0  0  0  0  0  0  0
    3.3130   15.3420   18.5570 H   0  0  0  0  0  0  0  0  0  0  0  0
    3.3600   15.9860   20.2000 H   0  0  0  0  0  0  0  0  0  0  0  0
    2.6580    3.3710   19.0480 C   0  0  0  0  0  0  0  0  0  0  0  0
    1.3010    3.3810   19.1820 F   0  0  0  0  0  0  0  0  0  0  0  0
    2.9570    2.1850   18.4490 F   0  0  0  0  0  0  0  0  0  0  0  0
    3.1550    3.2930   20.3130 F   0  0  0  0  0  0  0  0  0  0  0  0
    5.5190    5.3530   15.3360 C   0  0  2  0  0  0  0  0  0  0  0  0
    5.0550    5.7970   14.4440 H   0  0  0  0  0  0  0  0  0  0  0  0
    5.7580    3.8720   15.0150 C   0  0  0  0  0  0  0  0  0  0  0  0
    5.4600    3.2390   15.8570 H   0  0  0  0  0  0  0  0  0  0  0  0
    6.8100    3.6660   14.7980 H   0  0  0  0  0  0  0  0  0  0  0  0
    5.1720    3.5580   14.1440 H   0  0  0  0  0  0  0  0  0  0  0  0
    6.8300    6.1120   15.6290 C   0  0  0  0  0  0  0  0  0  0  0  0
    6.7000    7.1870   15.4540 H   0  0  0  0  0  0  0  0  0  0  0  0
    7.6160    5.7900   14.9310 H   0  0  0  0  0  0  0  0  0  0  0  0
    7.3050    5.9020   17.0270 C   0  0  0  0  0  0  0  0  0  0  0  0
    7.4720    4.7440   17.6290 N   0  0  0  0  0  0  0  0  0  0  0  0
    7.9300    4.9830   18.9030 N   0  0  0  0  0  0  0  0  0  0  0  0
    8.0250    6.2800   19.0530 C   0  0  0  0  0  0  0  0  0  0  0  0
    7.6440    6.8990   17.9040 N   0  0  0  0  0  0  0  0  0  0  0  0
    8.3540    6.7950   19.9450 H   0  0  0  0  0  0  0  0  0  0  0  0
    7.6220    8.3170   17.6720 C   0  0  0  0  0  0  0  0  0  0  0  0
    7.8890    8.4990   16.6280 H   0  0  0  0  0  0  0  0  0  0  0  0
    6.6220    8.7080   17.8710 H   0  0  0  0  0  0  0  0  0  0  0  0
    8.3390    8.7990   18.3390 H   0  0  0  0  0  0  0  0  0  0  0  0
  1  2  2  0  0  0  0
  1  6  1  0  0  0  0
  2  3  1  0  0  0  0
  3 10  1  0  0  0  0
  3  4  2  0  0  0  0
  4  8  1  0  0  0  0
  5  4  1  0  0  0  0
  5 36  1  0  0  0  0
  6  5  2  0  0  0  0
  7  2  1  0  0  0  0
  9  6  1  0  0  0  0
 10 13  1  0  0  0  0
 11 10  1  0  0  0  0
 11 14  1  0  0  0  0
 12 11  2  0  0  0  0
 14 15  1  0  0  0  0
 15 16  2  0  0  0  0
 15 20  1  0  0  0  0
 16 21  1  0  0  0  0
 17 23  1  0  0  0  0
 17 16  1  0  0  0  0
 18 17  2  0  0  0  0
 19 18  1  0  0  0  0
 19 14  2  0  0  0  0
 22 18  1  0  0  0  0
 23 28  1  0  0  0  0
 24 25  1  0  0  0  0
 24 27  1  0  0  0  0
 24 23  1  0  0  0  0
 26 24  1  0  0  0  0
 28 29  1  0  0  0  0
 28 31  1  0  0  0  0
 28 30  1  0  0  0  0
 32 33  1  0  0  0  0
 32 23  1  0  0  0  0
 32 35  1  0  0  0  0
 34 32  1  0  0  0  0
 36 37  1  0  0  0  0
 36 39  1  0  0  0  0
 38 36  1  0  0  0  0
 40 41  1  6  0  0  0
 40 46  1  0  0  0  0
 40  1  1  0  0  0  0
 42 40  1  0  0  0  0
 42 43  1  0  0  0  0
 44 42  1  0  0  0  0
 45 42  1  0  0  0  0
 46 49  1  0  0  0  0
 47 46  1  0  0  0  0
 48 46  1  0  0  0  0
 49 50  2  0  0  0  0
 49 53  1  0  0  0  0
 50 51  1  0  0  0  0
 51 52  2  0  0  0  0
 52 54  1  0  0  0  0
 53 52  1  0  0  0  0
 55 57  1  0  0  0  0
 55 53  1  0  0  0  0
 55 58  1  0  0  0  0
 56 55  1  0  0  0  0
M  END
>  <MODEL>
19

>  <REMARK>
 VINA RESULT:    -7.576      2.176      3.105
 INTER + INTRA:         -11.285
 INTER:                 -10.508
 INTRA:                  -0.777
 UNBOUND:                 0.498
  Name = 
  12 active torsions:
  status: ('A' for Active; 'I' for Inactive)
    1  A    between atoms: C_1  and  C_2
    2  A    between atoms: C_2  and  C_3
    3  A    between atoms: C_2  and  C_10
    4  A    between atoms: C_3  and  C_4
    5  A    between atoms: N_8  and  C_9
    6  A    between atoms: C_12  and  N_13
    7  A    between atoms: C_14  and  C_16
    8  A    between atoms: C_19  and  C_20
    9  A    between atoms: C_20  and  C_21
   10  A    between atoms: C_20  and  C_22
   11  A    between atoms: C_20  and  C_23
   12  A    between atoms: C_27  and  C_28
                            x       y       z     vdW  Elec       q    Type
                         _______ _______ _______ _____ _____    ______ ____

>  <TORSDO>
F 12

$$$$
=
 OpenBabel07192307433D

 58 60  0  0  1  0  0  0  0  0999 V2000
   -0.4870   12.2280   20.4540 C   0  0  0  0  0  0  0  0  0  0  0  0
    0.3900   11.2020   20.0680 C   0  0  0  0  0  0  0  0  0  0  0  0
    0.0290   10.2600   19.0960 C   0  0  0  0  0  0  0  0  0  0  0  0
   -1.2310   10.3470   18.5030 C   0  0  0  0  0  0  0  0  0  0  0  0
   -2.1270   11.3660   18.8660 C   0  0  0  0  0  0  0  0  0  0  0  0
   -1.7480   12.2970   19.8460 C   0  0  0  0  0  0  0  0  0  0  0  0
    1.3710   11.1360   20.5370 H   0  0  0  0  0  0  0  0  0  0  0  0
   -1.5440    9.6300   17.7470 H   0  0  0  0  0  0  0  0  0  0  0  0
   -2.4490   13.0820   20.1300 H   0  0  0  0  0  0  0  0  0  0  0  0
    0.9780    9.2770   18.7750 N   0  0  0  0  0  0  0  0  0  0  0  0
    1.5500    8.3280   19.6010 C   0  0  0  0  0  0  0  0  0  0  0  0
    1.3470    8.1710   20.8000 O   0  0  0  0  0  0  0  0  0  0  0  0
    1.3120    9.2310   17.8150 H   0  0  0  0  0  0  0  0  0  0  0  0
    2.5040    7.4290   18.8730 C   0  0  0  0  0  0  0  0  0  0  0  0
    3.1820    7.8860   17.7550 C   0  0  0  0  0  0  0  0  0  0  0  0
    4.0720    7.0180   17.1230 C   0  0  0  0  0  0  0  0  0  0  0  0
    4.2710    5.7190   17.6080 C   0  0  0  0  0  0  0  0  0  0  0  0
    3.5270    5.3680   18.7420 C   0  0  0  0  0  0  0  0  0  0  0  0
    2.6540    6.1760   19.3860 N   0  0  0  0  0  0  0  0  0  0  0  0
    3.0280    8.8930   17.3820 H   0  0  0  0  0  0  0  0  0  0  0  0
    4.6020    7.3890   16.2490 H   0  0  0  0  0  0  0  0  0  0  0  0
    3.6190    4.3790   19.1880 H   0  0  0  0  0  0  0  0  0  0  0  0
    5.2510    4.7220   16.9750 C   0  0  0  0  0  0  0  0  0  0  0  0
    4.6770    3.2930   17.1010 C   0  0  0  0  0  0  0  0  0  0  0  0
    5.3600    2.6390   17.6550 H   0  0  0  0  0  0  0  0  0  0  0  0
    4.5100    2.8290   16.1230 H   0  0  0  0  0  0  0  0  0  0  0  0
    3.7170    3.2980   17.6320 H   0  0  0  0  0  0  0  0  0  0  0  0
    5.4560    5.0530   15.4810 C   0  0  0  0  0  0  0  0  0  0  0  0
    6.5140    5.2350   15.2570 H   0  0  0  0  0  0  0  0  0  0  0  0
    4.8960    5.9430   15.1720 H   0  0  0  0  0  0  0  0  0  0  0  0
    5.1170    4.2270   14.8440 H   0  0  0  0  0  0  0  0  0  0  0  0
    6.6480    4.7180   17.6370 C   0  0  0  0  0  0  0  0  0  0  0  0
    7.1520    3.7530   17.5120 H   0  0  0  0  0  0  0  0  0  0  0  0
    7.2960    5.4790   17.1860 H   0  0  0  0  0  0  0  0  0  0  0  0
    6.5850    4.9370   18.7090 H   0  0  0  0  0  0  0  0  0  0  0  0
   -3.4910   11.4300   18.2240 C   0  0  0  0  0  0  0  0  0  0  0  0
   -3.4580   11.8830   16.9380 F   0  0  0  0  0  0  0  0  0  0  0  0
   -4.1130   10.2190   18.1680 F   0  0  0  0  0  0  0  0  0  0  0  0
   -4.3420   12.2620   18.8870 F   0  0  0  0  0  0  0  0  0  0  0  0
   -0.0490   13.2420   21.5030 C   0  0  2  0  0  0  0  0  0  0  0  0
    0.9210   12.9180   21.9030 H   0  0  0  0  0  0  0  0  0  0  0  0
   -1.0250   13.2640   22.6860 C   0  0  0  0  0  0  0  0  0  0  0  0
   -1.6800   14.1400   22.6330 H   0  0  0  0  0  0  0  0  0  0  0  0
   -0.5020   13.2950   23.6460 H   0  0  0  0  0  0  0  0  0  0  0  0
   -1.6660   12.3750   22.6860 H   0  0  0  0  0  0  0  0  0  0  0  0
    0.1310   14.6330   20.8610 C   0  0  0  0  0  0  0  0  0  0  0  0
    0.1760   15.4110   21.6340 H   0  0  0  0  0  0  0  0  0  0  0  0
   -0.7430   14.8790   20.2430 H   0  0  0  0  0  0  0  0  0  0  0  0
    1.3610   14.7140   20.0220 C   0  0  0  0  0  0  0  0  0  0  0  0
    1.4180   14.6220   18.7100 N   0  0  0  0  0  0  0  0  0  0  0  0
    2.7310   14.7570   18.3260 N   0  0  0  0  0  0  0  0  0  0  0  0
    3.4470   14.9200   19.4100 C   0  0  0  0  0  0  0  0  0  0  0  0
    2.6320   14.9010   20.4990 N   0  0  0  0  0  0  0  0  0  0  0  0
    4.5190   15.0530   19.4510 H   0  0  0  0  0  0  0  0  0  0  0  0
    3.0420   15.0610   21.8670 C   0  0  0  0  0  0  0  0  0  0  0  0
    4.0970   15.3460   21.8780 H   0  0  0  0  0  0  0  0  0  0  0  0
    2.4430   15.8390   22.3430 H   0  0  0  0  0  0  0  0  0  0  0  0
    2.8970   14.1170   22.3950 H   0  0  0  0  0  0  0  0  0  0  0  0
  1 40  1  0  0  0  0
  2  1  1  0  0  0  0
  2  7  1  0  0  0  0
  3  2  2  0  0  0  0
  4  5  2  0  0  0  0
  4  3  1  0  0  0  0
  5  6  1  0  0  0  0
  6  9  1  0  0  0  0
  6  1  2  0  0  0  0
  8  4  1  0  0  0  0
 10  3  1  0  0  0  0
 10 11  1  0  0  0  0
 11 12  2  0  0  0  0
 13 10  1  0  0  0  0
 14 19  1  0  0  0  0
 14 11  1  0  0  0  0
 15 14  2  0  0  0  0
 16 17  2  0  0  0  0
 16 15  1  0  0  0  0
 17 18  1  0  0  0  0
 18 22  1  0  0  0  0
 18 19  2  0  0  0  0
 20 15  1  0  0  0  0
 21 16  1  0  0  0  0
 23 24  1  0  0  0  0
 23 17  1  0  0  0  0
 23 32  1  0  0  0  0
 24 27  1  0  0  0  0
 24 25  1  0  0  0  0
 26 24  1  0  0  0  0
 28 23  1  0  0  0  0
 29 28  1  0  0  0  0
 30 28  1  0  0  0  0
 31 28  1  0  0  0  0
 32 35  1  0  0  0  0
 33 32  1  0  0  0  0
 34 32  1  0  0  0  0
 36  5  1  0  0  0  0
 36 39  1  0  0  0  0
 37 36  1  0  0  0  0
 38 36  1  0  0  0  0
 40 41  1  1  0  0  0
 40 42  1  0  0  0  0
 42 44  1  0  0  0  0
 43 42  1  0  0  0  0
 45 42  1  0  0  0  0
 46 40  1  0  0  0  0
 46 47  1  0  0  0  0
 48 46  1  0  0  0  0
 49 53  1  0  0  0  0
 49 46  1  0  0  0  0
 50 49  2  0  0  0  0
 51 50  1  0  0  0  0
 51 52  2  0  0  0  0
 52 54  1  0  0  0  0
 52 53  1  0  0  0  0
 53 55  1  0  0  0  0
 55 56  1  0  0  0  0
 55 57  1  0  0  0  0
 55 58  1  0  0  0  0
M  END
>  <MODEL>
20

>  <REMARK>
 VINA RESULT:    -7.535      4.238      9.607
 INTER + INTRA:         -11.222
 INTER:                 -10.056
 INTRA:                  -1.166
 UNBOUND:                 0.498
  Name = 
  12 active torsions:
  status: ('A' for Active; 'I' for Inactive)
    1  A    between atoms: C_1  and  C_2
    2  A    between atoms: C_2  and  C_3
    3  A    between atoms: C_2  and  C_10
    4  A    between atoms: C_3  and  C_4
    5  A    between atoms: N_8  and  C_9
    6  A    between atoms: C_12  and  N_13
    7  A    between atoms: C_14  and  C_16
    8  A    between atoms: C_19  and  C_20
    9  A    between atoms: C_20  and  C_21
   10  A    between atoms: C_20  and  C_22
   11  A    between atoms: C_20  and  C_23
   12  A    between atoms: C_27  and  C_28
                            x       y       z     vdW  Elec       q    Type
                         _______ _______ _______ _____ _____    ______ ____

>  <TORSDO>
F 12

$$$$
=
 OpenBabel07192307433D

 58 60  0  0  1  0  0  0  0  0999 V2000
   -0.3990   12.5080   19.3820 C   0  0  0  0  0  0  0  0  0  0  0  0
    0.4950   11.4440   19.1780 C   0  0  0  0  0  0  0  0  0  0  0  0
    0.0970   10.2710   18.5260 C   0  0  0  0  0  0  0  0  0  0  0  0
   -1.2180   10.1590   18.0730 C   0  0  0  0  0  0  0  0  0  0  0  0
   -2.1330   11.2080   18.2590 C   0  0  0  0  0  0  0  0  0  0  0  0
   -1.7150   12.3740   18.9190 C   0  0  0  0  0  0  0  0  0  0  0  0
    1.5190   11.5350   19.5370 H   0  0  0  0  0  0  0  0  0  0  0  0
   -1.5610    9.2610   17.5660 H   0  0  0  0  0  0  0  0  0  0  0  0
   -2.4310   13.1840   19.0680 H   0  0  0  0  0  0  0  0  0  0  0  0
    1.0660    9.2680   18.3650 N   0  0  0  0  0  0  0  0  0  0  0  0
    1.6030    8.4270   19.3210 C   0  0  0  0  0  0  0  0  0  0  0  0
    1.3430    8.4050   20.5190 O   0  0  0  0  0  0  0  0  0  0  0  0
    1.4470    9.1170   17.4340 H   0  0  0  0  0  0  0  0  0  0  0  0
    2.5980    7.4610   18.7470 C   0  0  0  0  0  0  0  0  0  0  0  0
    2.7600    6.2070   19.3100 C   0  0  0  0  0  0  0  0  0  0  0  0
    3.6840    5.3370   18.7290 C   0  0  0  0  0  0  0  0  0  0  0  0
    4.4260    5.7290   17.6070 C   0  0  0  0  0  0  0  0  0  0  0  0
    4.1790    7.0210   17.1290 C   0  0  0  0  0  0  0  0  0  0  0  0
    3.2940    7.8970   17.6600 N   0  0  0  0  0  0  0  0  0  0  0  0
    2.1820    5.9050   20.1780 H   0  0  0  0  0  0  0  0  0  0  0  0
    3.8000    4.3540   19.1770 H   0  0  0  0  0  0  0  0  0  0  0  0
    4.7100    7.4090   16.2610 H   0  0  0  0  0  0  0  0  0  0  0  0
    5.4410    4.8140   16.9060 C   0  0  0  0  0  0  0  0  0  0  0  0
    5.7950    5.4110   15.5270 C   0  0  0  0  0  0  0  0  0  0  0  0
    5.4800    4.7450   14.7140 H   0  0  0  0  0  0  0  0  0  0  0  0
    6.8730    5.5720   15.4110 H   0  0  0  0  0  0  0  0  0  0  0  0
    5.2990    6.3780   15.3740 H   0  0  0  0  0  0  0  0  0  0  0  0
    6.7270    4.7010   17.7520 C   0  0  0  0  0  0  0  0  0  0  0  0
    6.7960    5.5160   18.4820 H   0  0  0  0  0  0  0  0  0  0  0  0
    7.6340    4.7310   17.1380 H   0  0  0  0  0  0  0  0  0  0  0  0
    6.7510    3.7540   18.3070 H   0  0  0  0  0  0  0  0  0  0  0  0
    4.9230    3.3780   16.6690 C   0  0  0  0  0  0  0  0  0  0  0  0
    3.8790    3.2670   16.9850 H   0  0  0  0  0  0  0  0  0  0  0  0
    4.9640    3.1180   15.6050 H   0  0  0  0  0  0  0  0  0  0  0  0
    5.5260    2.6390   17.2090 H   0  0  0  0  0  0  0  0  0  0  0  0
   -3.5550   11.0590   17.7760 C   0  0  0  0  0  0  0  0  0  0  0  0
   -4.4560   11.7330   18.5470 F   0  0  0  0  0  0  0  0  0  0  0  0
   -3.7410   11.5220   16.5090 F   0  0  0  0  0  0  0  0  0  0  0  0
   -3.9700    9.7620   17.7700 F   0  0  0  0  0  0  0  0  0  0  0  0
    0.0790   13.7730   20.0820 C   0  0  2  0  0  0  0  0  0  0  0  0
    0.4570   13.4900   21.0730 H   0  0  0  0  0  0  0  0  0  0  0  0
   -1.0850   14.7440   20.3170 C   0  0  0  0  0  0  0  0  0  0  0  0
   -0.7140   15.7340   20.6020 H   0  0  0  0  0  0  0  0  0  0  0  0
   -1.7520   14.3960   21.1110 H   0  0  0  0  0  0  0  0  0  0  0  0
   -1.6860   14.8670   19.4090 H   0  0  0  0  0  0  0  0  0  0  0  0
    1.2340   14.4200   19.2880 C   0  0  0  0  0  0  0  0  0  0  0  0
    0.9470   15.4190   18.9350 H   0  0  0  0  0  0  0  0  0  0  0  0
    1.4440   13.8340   18.3830 H   0  0  0  0  0  0  0  0  0  0  0  0
    2.4820   14.5330   20.0970 C   0  0  0  0  0  0  0  0  0  0  0  0
    2.5710   14.4580   21.4080 N   0  0  0  0  0  0  0  0  0  0  0  0
    3.8930   14.6010   21.7580 N   0  0  0  0  0  0  0  0  0  0  0  0
    4.5790   14.7680   20.6550 C   0  0  0  0  0  0  0  0  0  0  0  0
    3.7380   14.7320   19.5880 N   0  0  0  0  0  0  0  0  0  0  0  0
    5.6490   14.9110   20.5870 H   0  0  0  0  0  0  0  0  0  0  0  0
    4.1150   14.8660   18.2070 C   0  0  0  0  0  0  0  0  0  0  0  0
    4.6770   13.9750   17.9170 H   0  0  0  0  0  0  0  0  0  0  0  0
    3.2200   14.9570   17.5880 H   0  0  0  0  0  0  0  0  0  0  0  0
    4.7300   15.7590   18.0900 H   0  0  0  0  0  0  0  0  0  0  0  0
  1 40  1  0  0  0  0
  2  1  1  0  0  0  0
  2  7  1  0  0  0  0
  3  2  2  0  0  0  0
  4  5  2  0  0  0  0
  4  3  1  0  0  0  0
  5  6  1  0  0  0  0
  6  9  1  0  0  0  0
  6  1  2  0  0  0  0
  8  4  1  0  0  0  0
 10  3  1  0  0  0  0
 10 11  1  0  0  0  0
 11 12  2  0  0  0  0
 13 10  1  0  0  0  0
 14 15  1  0  0  0  0
 14 11  1  0  0  0  0
 15 20  1  0  0  0  0
 16 21  1  0  0  0  0
 16 15  2  0  0  0  0
 17 16  1  0  0  0  0
 18 17  2  0  0  0  0
 18 19  1  0  0  0  0
 19 14  2  0  0  0  0
 22 18  1  0  0  0  0
 23 17  1  0  0  0  0
 23 28  1  0  0  0  0
 24 23  1  0  0  0  0
 25 24  1  0  0  0  0
 26 24  1  0  0  0  0
 27 24  1  0  0  0  0
 28 31  1  0  0  0  0
 28 29  1  0  0  0  0
 30 28  1  0  0  0  0
 32 23  1  0  0  0  0
 32 33  1  0  0  0  0
 32 35  1  0  0  0  0
 34 32  1  0  0  0  0
 36  5  1  0  0  0  0
 36 37  1  0  0  0  0
 38 36  1  0  0  0  0
 39 36  1  0  0  0  0
 40 42  1  0  0  0  0
 40 41  1  1  0  0  0
 42 43  1  0  0  0  0
 42 44  1  0  0  0  0
 45 42  1  0  0  0  0
 46 40  1  0  0  0  0
 46 49  1  0  0  0  0
 47 46  1  0  0  0  0
 48 46  1  0  0  0  0
 49 50  2  0  0  0  0
 50 51  1  0  0  0  0
 52 51  2  0  0  0  0
 53 49  1  0  0  0  0
 53 52  1  0  0  0  0
 54 52  1  0  0  0  0
 55 53  1  0  0  0  0
 56 55  1  0  0  0  0
 57 55  1  0  0  0  0
 58 55  1  0  0  0  0
M  END
>  <MODEL>
21

>  <REMARK>
 VINA RESULT:    -7.523      4.446      9.501
 INTER + INTRA:         -11.203
 INTER:                 -10.013
 INTRA:                  -1.191
 UNBOUND:                 0.498
  Name = 
  12 active torsions:
  status: ('A' for Active; 'I' for Inactive)
    1  A    between atoms: C_1  and  C_2
    2  A    between atoms: C_2  and  C_3
    3  A    between atoms: C_2  and  C_10
    4  A    between atoms: C_3  and  C_4
    5  A    between atoms: N_8  and  C_9
    6  A    between atoms: C_12  and  N_13
    7  A    between atoms: C_14  and  C_16
    8  A    between atoms: C_19  and  C_20
    9  A    between atoms: C_20  and  C_21
   10  A    between atoms: C_20  and  C_22
   11  A    between atoms: C_20  and  C_23
   12  A    between atoms: C_27  and  C_28
                            x       y       z     vdW  Elec       q    Type
                         _______ _______ _______ _____ _____    ______ ____

>  <TORSDO>
F 12

$$$$
=
 OpenBabel07192307433D

 58 60  0  0  1  0  0  0  0  0999 V2000
   -0.9390   12.2440   20.3400 C   0  0  0  0  0  0  0  0  0  0  0  0
   -0.4700   10.9220   20.2880 C   0  0  0  0  0  0  0  0  0  0  0  0
    0.7800   10.6120   19.7390 C   0  0  0  0  0  0  0  0  0  0  0  0
    1.5740   11.6410   19.2330 C   0  0  0  0  0  0  0  0  0  0  0  0
    1.1330   12.9750   19.2760 C   0  0  0  0  0  0  0  0  0  0  0  0
   -0.1260   13.2640   19.8250 C   0  0  0  0  0  0  0  0  0  0  0  0
   -1.0940   10.1210   20.6810 H   0  0  0  0  0  0  0  0  0  0  0  0
    2.5480   11.4360   18.7970 H   0  0  0  0  0  0  0  0  0  0  0  0
   -0.4680   14.2990   19.8500 H   0  0  0  0  0  0  0  0  0  0  0  0
    1.1620    9.2600   19.7390 N   0  0  0  0  0  0  0  0  0  0  0  0
    1.8710    8.5650   18.7790 C   0  0  0  0  0  0  0  0  0  0  0  0
    2.2980    8.9980   17.7150 O   0  0  0  0  0  0  0  0  0  0  0  0
    0.8930    8.6880   20.5370 H   0  0  0  0  0  0  0  0  0  0  0  0
    2.1100    7.1340   19.1620 C   0  0  0  0  0  0  0  0  0  0  0  0
    1.7930    6.6870   20.4330 C   0  0  0  0  0  0  0  0  0  0  0  0
    2.0160    5.3440   20.7350 C   0  0  0  0  0  0  0  0  0  0  0  0
    2.5500    4.4740   19.7750 C   0  0  0  0  0  0  0  0  0  0  0  0
    2.8350    5.0400   18.5270 C   0  0  0  0  0  0  0  0  0  0  0  0
    2.6350    6.3360   18.1900 N   0  0  0  0  0  0  0  0  0  0  0  0
    1.3780    7.3620   21.1750 H   0  0  0  0  0  0  0  0  0  0  0  0
    1.7590    5.0030   21.7350 H   0  0  0  0  0  0  0  0  0  0  0  0
    3.2510    4.4390   17.7200 H   0  0  0  0  0  0  0  0  0  0  0  0
    2.7990    2.9820   20.0340 C   0  0  0  0  0  0  0  0  0  0  0  0
    2.4250    2.6500   21.4950 C   0  0  0  0  0  0  0  0  0  0  0  0
    1.7600    3.4130   21.9170 H   0  0  0  0  0  0  0  0  0  0  0  0
    3.3060    2.5960   22.1440 H   0  0  0  0  0  0  0  0  0  0  0  0
    1.9070    1.6850   21.5620 H   0  0  0  0  0  0  0  0  0  0  0  0
    1.9340    2.1250   19.0840 C   0  0  0  0  0  0  0  0  0  0  0  0
    0.8820    2.1300   19.3930 H   0  0  0  0  0  0  0  0  0  0  0  0
    2.2630    1.0810   19.0500 H   0  0  0  0  0  0  0  0  0  0  0  0
    1.9820    2.5070   18.0560 H   0  0  0  0  0  0  0  0  0  0  0  0
    4.2680    2.5520   19.8240 C   0  0  0  0  0  0  0  0  0  0  0  0
    4.5750    2.6540   18.7770 H   0  0  0  0  0  0  0  0  0  0  0  0
    4.9460    3.1750   20.4190 H   0  0  0  0  0  0  0  0  0  0  0  0
    4.4300    1.5110   20.1290 H   0  0  0  0  0  0  0  0  0  0  0  0
    1.9990   14.0710   18.7060 C   0  0  0  0  0  0  0  0  0  0  0  0
    1.3160   15.2290   18.4770 F   0  0  0  0  0  0  0  0  0  0  0  0
    3.0340   14.4130   19.5240 F   0  0  0  0  0  0  0  0  0  0  0  0
    2.5570   13.7280   17.5120 F   0  0  0  0  0  0  0  0  0  0  0  0
   -2.2980   12.5410   20.9600 C   0  0  2  0  0  0  0  0  0  0  0  0
   -3.0530   11.9580   20.4150 H   0  0  0  0  0  0  0  0  0  0  0  0
   -2.6720   14.0180   20.7840 C   0  0  0  0  0  0  0  0  0  0  0  0
   -2.9890   14.2180   19.7550 H   0  0  0  0  0  0  0  0  0  0  0  0
   -1.8320   14.6810   21.0100 H   0  0  0  0  0  0  0  0  0  0  0  0
   -3.5020   14.2950   21.4430 H   0  0  0  0  0  0  0  0  0  0  0  0
   -2.3200   12.0990   22.4390 C   0  0  0  0  0  0  0  0  0  0  0  0
   -1.5070   11.3900   22.6410 H   0  0  0  0  0  0  0  0  0  0  0  0
   -3.2500   11.5560   22.6560 H   0  0  0  0  0  0  0  0  0  0  0  0
   -2.2000   13.2530   23.3750 C   0  0  0  0  0  0  0  0  0  0  0  0
   -1.1060   13.9390   23.6330 N   0  0  0  0  0  0  0  0  0  0  0  0
   -1.4200   14.9240   24.5400 N   0  0  0  0  0  0  0  0  0  0  0  0
   -2.6940   14.8130   24.8210 C   0  0  0  0  0  0  0  0  0  0  0  0
   -3.2260   13.7800   24.1150 N   0  0  0  0  0  0  0  0  0  0  0  0
   -3.2510   15.4380   25.5050 H   0  0  0  0  0  0  0  0  0  0  0  0
   -4.5980   13.3520   24.1440 C   0  0  0  0  0  0  0  0  0  0  0  0
   -4.7230   12.6570   24.9780 H   0  0  0  0  0  0  0  0  0  0  0  0
   -5.2510   14.2160   24.2820 H   0  0  0  0  0  0  0  0  0  0  0  0
   -4.8390   12.8620   23.2000 H   0  0  0  0  0  0  0  0  0  0  0  0
  1 40  1  0  0  0  0
  2  1  1  0  0  0  0
  2  7  1  0  0  0  0
  3  2  2  0  0  0  0
  4  5  2  0  0  0  0
  4  3  1  0  0  0  0
  5  6  1  0  0  0  0
  6  9  1  0  0  0  0
  6  1  2  0  0  0  0
  8  4  1  0  0  0  0
 10  3  1  0  0  0  0
 10 13  1  0  0  0  0
 11 14  1  0  0  0  0
 11 10  1  0  0  0  0
 12 11  2  0  0  0  0
 14 15  1  0  0  0  0
 15 16  2  0  0  0  0
 15 20  1  0  0  0  0
 16 21  1  0  0  0  0
 17 23  1  0  0  0  0
 17 16  1  0  0  0  0
 18 17  2  0  0  0  0
 19 18  1  0  0  0  0
 19 14  2  0  0  0  0
 22 18  1  0  0  0  0
 23 24  1  0  0  0  0
 24 27  1  0  0  0  0
 24 25  1  0  0  0  0
 24 26  1  0  0  0  0
 28 29  1  0  0  0  0
 28 23  1  0  0  0  0
 30 28  1  0  0  0  0
 31 28  1  0  0  0  0
 32 23  1  0  0  0  0
 32 35  1  0  0  0  0
 32 34  1  0  0  0  0
 33 32  1  0  0  0  0
 36  5  1  0  0  0  0
 36 38  1  0  0  0  0
 37 36  1  0  0  0  0
 39 36  1  0  0  0  0
 40 41  1  6  0  0  0
 40 46  1  0  0  0  0
 42 40  1  0  0  0  0
 42 44  1  0  0  0  0
 42 45  1  0  0  0  0
 43 42  1  0  0  0  0
 46 47  1  0  0  0  0
 46 48  1  0  0  0  0
 46 49  1  0  0  0  0
 49 50  2  0  0  0  0
 49 53  1  0  0  0  0
 50 51  1  0  0  0  0
 51 52  2  0  0  0  0
 52 54  1  0  0  0  0
 53 55  1  0  0  0  0
 53 52  1  0  0  0  0
 55 57  1  0  0  0  0
 55 56  1  0  0  0  0
 58 55  1  0  0  0  0
M  END
>  <MODEL>
22

>  <REMARK>
 VINA RESULT:    -7.422      4.816     10.647
 INTER + INTRA:         -11.047
 INTER:                 -10.194
 INTRA:                  -0.853
 UNBOUND:                 0.498
  Name = 
  12 active torsions:
  status: ('A' for Active; 'I' for Inactive)
    1  A    between atoms: C_1  and  C_2
    2  A    between atoms: C_2  and  C_3
    3  A    between atoms: C_2  and  C_10
    4  A    between atoms: C_3  and  C_4
    5  A    between atoms: N_8  and  C_9
    6  A    between atoms: C_12  and  N_13
    7  A    between atoms: C_14  and  C_16
    8  A    between atoms: C_19  and  C_20
    9  A    between atoms: C_20  and  C_21
   10  A    between atoms: C_20  and  C_22
   11  A    between atoms: C_20  and  C_23
   12  A    between atoms: C_27  and  C_28
                            x       y       z     vdW  Elec       q    Type
                         _______ _______ _______ _____ _____    ______ ____

>  <TORSDO>
F 12

$$$$
=
 OpenBabel07192307433D

 58 60  0  0  1  0  0  0  0  0999 V2000
    3.1020    4.4600   18.2930 C   0  0  0  0  0  0  0  0  0  0  0  0
    2.7610    5.8170   18.4210 C   0  0  0  0  0  0  0  0  0  0  0  0
    2.2210    6.3240   19.6090 C   0  0  0  0  0  0  0  0  0  0  0  0
    2.0180    5.4610   20.6860 C   0  0  0  0  0  0  0  0  0  0  0  0
    2.3550    4.1000   20.5890 C   0  0  0  0  0  0  0  0  0  0  0  0
    2.8900    3.6100   19.3870 C   0  0  0  0  0  0  0  0  0  0  0  0
    2.9170    6.4860   17.5770 H   0  0  0  0  0  0  0  0  0  0  0  0
    1.5980    5.8210   21.6220 H   0  0  0  0  0  0  0  0  0  0  0  0
    3.1440    2.5520   19.3140 H   0  0  0  0  0  0  0  0  0  0  0  0
    1.9190    7.6950   19.6390 N   0  0  0  0  0  0  0  0  0  0  0  0
    1.9090    8.5980   18.5940 C   0  0  0  0  0  0  0  0  0  0  0  0
    2.1840    8.3760   17.4200 O   0  0  0  0  0  0  0  0  0  0  0  0
    1.6720    8.1110   20.5350 H   0  0  0  0  0  0  0  0  0  0  0  0
    1.4990    9.9760   19.0250 C   0  0  0  0  0  0  0  0  0  0  0  0
    0.7000   10.1510   20.1420 C   0  0  0  0  0  0  0  0  0  0  0  0
    0.3610   11.4520   20.5140 C   0  0  0  0  0  0  0  0  0  0  0  0
    0.8170   12.5490   19.7720 C   0  0  0  0  0  0  0  0  0  0  0  0
    1.6140   12.2490   18.6600 C   0  0  0  0  0  0  0  0  0  0  0  0
    1.9680   11.0040   18.2640 N   0  0  0  0  0  0  0  0  0  0  0  0
    0.3490    9.2990   20.7160 H   0  0  0  0  0  0  0  0  0  0  0  0
   -0.2630   11.5770   21.3950 H   0  0  0  0  0  0  0  0  0  0  0  0
    2.0140   13.0390   18.0270 H   0  0  0  0  0  0  0  0  0  0  0  0
    0.5000   14.0060   20.1380 C   0  0  0  0  0  0  0  0  0  0  0  0
    1.0430   14.3040   21.5530 C   0  0  0  0  0  0  0  0  0  0  0  0
    1.0330   13.4030   22.1790 H   0  0  0  0  0  0  0  0  0  0  0  0
    0.4460   15.0620   22.0720 H   0  0  0  0  0  0  0  0  0  0  0  0
    2.0770   14.6680   21.5120 H   0  0  0  0  0  0  0  0  0  0  0  0
    1.1680   14.9650   19.1290 C   0  0  0  0  0  0  0  0  0  0  0  0
    0.7450   14.8410   18.1250 H   0  0  0  0  0  0  0  0  0  0  0  0
    2.2490   14.8050   19.0550 H   0  0  0  0  0  0  0  0  0  0  0  0
    1.0210   16.0120   19.4260 H   0  0  0  0  0  0  0  0  0  0  0  0
   -1.0100   14.3300   20.1450 C   0  0  0  0  0  0  0  0  0  0  0  0
   -1.5330   13.8070   20.9540 H   0  0  0  0  0  0  0  0  0  0  0  0
   -1.1790   15.4030   20.2960 H   0  0  0  0  0  0  0  0  0  0  0  0
   -1.4850   14.0560   19.1950 H   0  0  0  0  0  0  0  0  0  0  0  0
    2.1110    3.1810   21.7600 C   0  0  0  0  0  0  0  0  0  0  0  0
    2.3000    3.7880   22.9660 F   0  0  0  0  0  0  0  0  0  0  0  0
    0.8420    2.6860   21.7960 F   0  0  0  0  0  0  0  0  0  0  0  0
    2.9390    2.1000   21.7560 F   0  0  0  0  0  0  0  0  0  0  0  0
    3.7020    3.9510   16.9890 C   0  0  2  0  0  0  0  0  0  0  0  0
    3.4930    4.6950   16.2080 H   0  0  0  0  0  0  0  0  0  0  0  0
    3.0260    2.6480   16.5460 C   0  0  0  0  0  0  0  0  0  0  0  0
    3.3260    1.8160   17.1920 H   0  0  0  0  0  0  0  0  0  0  0  0
    3.2860    2.3820   15.5180 H   0  0  0  0  0  0  0  0  0  0  0  0
    1.9350    2.7300   16.6020 H   0  0  0  0  0  0  0  0  0  0  0  0
    5.2320    3.8060   17.1230 C   0  0  0  0  0  0  0  0  0  0  0  0
    5.5010    2.7710   17.3710 H   0  0  0  0  0  0  0  0  0  0  0  0
    5.5960    4.4170   17.9610 H   0  0  0  0  0  0  0  0  0  0  0  0
    5.9500    4.2080   15.8800 C   0  0  0  0  0  0  0  0  0  0  0  0
    5.8630    3.6220   14.7040 N   0  0  0  0  0  0  0  0  0  0  0  0
    6.6710    4.3020   13.8240 N   0  0  0  0  0  0  0  0  0  0  0  0
    7.2380    5.2810   14.4810 C   0  0  0  0  0  0  0  0  0  0  0  0
    6.8170    5.2640   15.7740 N   0  0  0  0  0  0  0  0  0  0  0  0
    7.9340    6.0010   14.0740 H   0  0  0  0  0  0  0  0  0  0  0  0
    7.2060    6.1870   16.8040 C   0  0  0  0  0  0  0  0  0  0  0  0
    6.3010    6.5880   17.2660 H   0  0  0  0  0  0  0  0  0  0  0  0
    7.8060    5.6690   17.5560 H   0  0  0  0  0  0  0  0  0  0  0  0
    7.7960    6.9900   16.3600 H   0  0  0  0  0  0  0  0  0  0  0  0
  1  2  2  0  0  0  0
  1  6  1  0  0  0  0
  2  3  1  0  0  0  0
  3 10  1  0  0  0  0
  3  4  2  0  0  0  0
  4  8  1  0  0  0  0
  5  4  1  0  0  0  0
  5 36  1  0  0  0  0
  6  5  2  0  0  0  0
  7  2  1  0  0  0  0
  9  6  1  0  0  0  0
 10 13  1  0  0  0  0
 11 14  1  0  0  0  0
 11 10  1  0  0  0  0
 12 11  2  0  0  0  0
 14 15  1  0  0  0  0
 15 16  2  0  0  0  0
 15 20  1  0  0  0  0
 16 21  1  0  0  0  0
 17 23  1  0  0  0  0
 17 16  1  0  0  0  0
 18 17  2  0  0  0  0
 19 18  1  0  0  0  0
 19 14  2  0  0  0  0
 22 18  1  0  0  0  0
 23 32  1  0  0  0  0
 23 24  1  0  0  0  0
 24 26  1  0  0  0  0
 24 25  1  0  0  0  0
 27 24  1  0  0  0  0
 28 31  1  0  0  0  0
 28 23  1  0  0  0  0
 29 28  1  0  0  0  0
 30 28  1  0  0  0  0
 32 34  1  0  0  0  0
 32 33  1  0  0  0  0
 35 32  1  0  0  0  0
 36 38  1  0  0  0  0
 36 37  1  0  0  0  0
 39 36  1  0  0  0  0
 40 41  1  6  0  0  0
 40 46  1  0  0  0  0
 40  1  1  0  0  0  0
 42 45  1  0  0  0  0
 42 40  1  0  0  0  0
 42 43  1  0  0  0  0
 44 42  1  0  0  0  0
 46 47  1  0  0  0  0
 46 48  1  0  0  0  0
 49 46  1  0  0  0  0
 50 49  2  0  0  0  0
 51 52  2  0  0  0  0
 51 50  1  0  0  0  0
 52 53  1  0  0  0  0
 53 49  1  0  0  0  0
 53 55  1  0  0  0  0
 54 52  1  0  0  0  0
 55 56  1  0  0  0  0
 55 57  1  0  0  0  0
 58 55  1  0  0  0  0
M  END
>  <MODEL>
23

>  <REMARK>
 VINA RESULT:    -7.216      1.955      2.926
 INTER + INTRA:         -10.726
 INTER:                 -10.143
 INTRA:                  -0.582
 UNBOUND:                 0.498
  Name = 
  12 active torsions:
  status: ('A' for Active; 'I' for Inactive)
    1  A    between atoms: C_1  and  C_2
    2  A    between atoms: C_2  and  C_3
    3  A    between atoms: C_2  and  C_10
    4  A    between atoms: C_3  and  C_4
    5  A    between atoms: N_8  and  C_9
    6  A    between atoms: C_12  and  N_13
    7  A    between atoms: C_14  and  C_16
    8  A    between atoms: C_19  and  C_20
    9  A    between atoms: C_20  and  C_21
   10  A    between atoms: C_20  and  C_22
   11  A    between atoms: C_20  and  C_23
   12  A    between atoms: C_27  and  C_28
                            x       y       z     vdW  Elec       q    Type
                         _______ _______ _______ _____ _____    ______ ____

>  <TORSDO>
F 12

$$$$
=
 OpenBabel07192307433D

 58 60  0  0  1  0  0  0  0  0999 V2000
   -0.7510   10.9290   19.2670 C   0  0  0  0  0  0  0  0  0  0  0  0
    0.1770   10.0200   18.7330 C   0  0  0  0  0  0  0  0  0  0  0  0
    0.9080    9.1550   19.5570 C   0  0  0  0  0  0  0  0  0  0  0  0
    0.7080    9.2020   20.9370 C   0  0  0  0  0  0  0  0  0  0  0  0
   -0.2170   10.0970   21.4990 C   0  0  0  0  0  0  0  0  0  0  0  0
   -0.9360   10.9600   20.6560 C   0  0  0  0  0  0  0  0  0  0  0  0
    0.3320    9.9900   17.6560 H   0  0  0  0  0  0  0  0  0  0  0  0
    1.2610    8.5470   21.6060 H   0  0  0  0  0  0  0  0  0  0  0  0
   -1.6480   11.6580   21.0970 H   0  0  0  0  0  0  0  0  0  0  0  0
    1.8060    8.2790   18.9270 N   0  0  0  0  0  0  0  0  0  0  0  0
    2.2040    7.0180   19.3290 C   0  0  0  0  0  0  0  0  0  0  0  0
    1.8550    6.4180   20.3390 O   0  0  0  0  0  0  0  0  0  0  0  0
    2.2410    8.5830   18.0590 H   0  0  0  0  0  0  0  0  0  0  0  0
    3.1590    6.3800   18.3630 C   0  0  0  0  0  0  0  0  0  0  0  0
    2.9800    5.0660   17.9660 C   0  0  0  0  0  0  0  0  0  0  0  0
    3.8840    4.5220   17.0540 C   0  0  0  0  0  0  0  0  0  0  0  0
    4.9450    5.2900   16.5560 C   0  0  0  0  0  0  0  0  0  0  0  0
    5.0280    6.6040   17.0330 C   0  0  0  0  0  0  0  0  0  0  0  0
    4.1740    7.1710   17.9170 N   0  0  0  0  0  0  0  0  0  0  0  0
    2.1560    4.4740   18.3520 H   0  0  0  0  0  0  0  0  0  0  0  0
    3.7300    3.4910   16.7460 H   0  0  0  0  0  0  0  0  0  0  0  0
    5.8200    7.2730   16.7000 H   0  0  0  0  0  0  0  0  0  0  0  0
    5.9610    4.7620   15.5330 C   0  0  0  0  0  0  0  0  0  0  0  0
    5.4630    5.0860   14.1080 C   0  0  0  0  0  0  0  0  0  0  0  0
    5.0090    4.2050   13.6380 H   0  0  0  0  0  0  0  0  0  0  0  0
    6.2760    5.4170   13.4530 H   0  0  0  0  0  0  0  0  0  0  0  0
    4.7070    5.8800   14.1240 H   0  0  0  0  0  0  0  0  0  0  0  0
    7.3340    5.4340   15.7530 C   0  0  0  0  0  0  0  0  0  0  0  0
    7.2220    6.4970   15.9930 H   0  0  0  0  0  0  0  0  0  0  0  0
    7.9790    5.3610   14.8700 H   0  0  0  0  0  0  0  0  0  0  0  0
    7.8760    4.9600   16.5810 H   0  0  0  0  0  0  0  0  0  0  0  0
    6.1830    3.2350   15.6100 C   0  0  0  0  0  0  0  0  0  0  0  0
    6.9220    2.8960   14.8750 H   0  0  0  0  0  0  0  0  0  0  0  0
    6.5580    2.9440   16.5980 H   0  0  0  0  0  0  0  0  0  0  0  0
    5.2510    2.6840   15.4390 H   0  0  0  0  0  0  0  0  0  0  0  0
   -0.4040   10.1430   22.9960 C   0  0  0  0  0  0  0  0  0  0  0  0
   -0.6440   11.4000   23.4670 F   0  0  0  0  0  0  0  0  0  0  0  0
   -1.4520    9.3860   23.4260 F   0  0  0  0  0  0  0  0  0  0  0  0
    0.6900    9.6960   23.6720 F   0  0  0  0  0  0  0  0  0  0  0  0
   -1.5370   11.8410   18.3350 C   0  0  2  0  0  0  0  0  0  0  0  0
   -2.3250   12.3290   18.9240 H   0  0  0  0  0  0  0  0  0  0  0  0
   -2.2450   11.0320   17.2410 C   0  0  0  0  0  0  0  0  0  0  0  0
   -2.8180   11.6900   16.5800 H   0  0  0  0  0  0  0  0  0  0  0  0
   -2.9360   10.2960   17.6610 H   0  0  0  0  0  0  0  0  0  0  0  0
   -1.5210   10.4920   16.6200 H   0  0  0  0  0  0  0  0  0  0  0  0
   -0.6170   12.9370   17.7560 C   0  0  0  0  0  0  0  0  0  0  0  0
   -1.1650   13.5620   17.0400 H   0  0  0  0  0  0  0  0  0  0  0  0
    0.2010   12.4780   17.1840 H   0  0  0  0  0  0  0  0  0  0  0  0
   -0.0390   13.8100   18.8180 C   0  0  0  0  0  0  0  0  0  0  0  0
   -0.7100   14.5990   19.6300 N   0  0  0  0  0  0  0  0  0  0  0  0
    0.1880   15.2220   20.4640 N   0  0  0  0  0  0  0  0  0  0  0  0
    1.3860   14.8070   20.1370 C   0  0  0  0  0  0  0  0  0  0  0  0
    1.2950   13.9190   19.1110 N   0  0  0  0  0  0  0  0  0  0  0  0
    2.3140   15.1100   20.6030 H   0  0  0  0  0  0  0  0  0  0  0  0
    2.3910   13.2350   18.4830 C   0  0  0  0  0  0  0  0  0  0  0  0
    3.3170   13.7520   18.7480 H   0  0  0  0  0  0  0  0  0  0  0  0
    2.4310   12.2020   18.8340 H   0  0  0  0  0  0  0  0  0  0  0  0
    2.2460   13.2450   17.4010 H   0  0  0  0  0  0  0  0  0  0  0  0
  1  6  1  0  0  0  0
  2  1  2  0  0  0  0
  2  3  1  0  0  0  0
  3  4  2  0  0  0  0
  4  5  1  0  0  0  0
  4  8  1  0  0  0  0
  5 36  1  0  0  0  0
  6  9  1  0  0  0  0
  6  5  2  0  0  0  0
  7  2  1  0  0  0  0
 10 11  1  0  0  0  0
 10  3  1  0  0  0  0
 11 12  2  0  0  0  0
 13 10  1  0  0  0  0
 14 11  1  0  0  0  0
 15 20  1  0  0  0  0
 15 14  1  0  0  0  0
 16 15  2  0  0  0  0
 17 18  2  0  0  0  0
 17 16  1  0  0  0  0
 18 19  1  0  0  0  0
 19 14  2  0  0  0  0
 21 16  1  0  0  0  0
 22 18  1  0  0  0  0
 23 32  1  0  0  0  0
 23 28  1  0  0  0  0
 23 17  1  0  0  0  0
 24 27  1  0  0  0  0
 24 23  1  0  0  0  0
 25 24  1  0  0  0  0
 26 24  1  0  0  0  0
 28 29  1  0  0  0  0
 28 31  1  0  0  0  0
 30 28  1  0  0  0  0
 32 34  1  0  0  0  0
 33 32  1  0  0  0  0
 35 32  1  0  0  0  0
 36 38  1  0  0  0  0
 36 37  1  0  0  0  0
 36 39  1  0  0  0  0
 40 41  1  1  0  0  0
 40  1  1  0  0  0  0
 42 44  1  0  0  0  0
 42 40  1  0  0  0  0
 43 42  1  0  0  0  0
 45 42  1  0  0  0  0
 46 40  1  0  0  0  0
 46 49  1  0  0  0  0
 47 46  1  0  0  0  0
 48 46  1  0  0  0  0
 49 53  1  0  0  0  0
 49 50  2  0  0  0  0
 50 51  1  0  0  0  0
 52 51  2  0  0  0  0
 52 54  1  0  0  0  0
 53 52  1  0  0  0  0
 55 56  1  0  0  0  0
 55 57  1  0  0  0  0
 55 53  1  0  0  0  0
 58 55  1  0  0  0  0
M  END
>  <MODEL>
24

>  <REMARK>
 VINA RESULT:    -7.046      3.789      9.445
 INTER + INTRA:         -10.462
 INTER:                  -9.419
 INTRA:                  -1.043
 UNBOUND:                 0.498
  Name = 
  12 active torsions:
  status: ('A' for Active; 'I' for Inactive)
    1  A    between atoms: C_1  and  C_2
    2  A    between atoms: C_2  and  C_3
    3  A    between atoms: C_2  and  C_10
    4  A    between atoms: C_3  and  C_4
    5  A    between atoms: N_8  and  C_9
    6  A    between atoms: C_12  and  N_13
    7  A    between atoms: C_14  and  C_16
    8  A    between atoms: C_19  and  C_20
    9  A    between atoms: C_20  and  C_21
   10  A    between atoms: C_20  and  C_22
   11  A    between atoms: C_20  and  C_23
   12  A    between atoms: C_27  and  C_28
                            x       y       z     vdW  Elec       q    Type
                         _______ _______ _______ _____ _____    ______ ____

>  <TORSDO>
F 12

$$$$
=
 OpenBabel07192307433D

 58 60  0  0  1  0  0  0  0  0999 V2000
   -1.5180   11.8430   19.3200 C   0  0  0  0  0  0  0  0  0  0  0  0
   -0.5400   10.8510   19.1400 C   0  0  0  0  0  0  0  0  0  0  0  0
   -0.5930    9.9630   18.0590 C   0  0  0  0  0  0  0  0  0  0  0  0
   -1.6410   10.0680   17.1440 C   0  0  0  0  0  0  0  0  0  0  0  0
   -2.6310   11.0530   17.2960 C   0  0  0  0  0  0  0  0  0  0  0  0
   -2.5630   11.9310   18.3900 C   0  0  0  0  0  0  0  0  0  0  0  0
    0.2740   10.7710   19.8580 H   0  0  0  0  0  0  0  0  0  0  0  0
   -1.7130    9.3920   16.2950 H   0  0  0  0  0  0  0  0  0  0  0  0
   -3.3370   12.6900   18.5080 H   0  0  0  0  0  0  0  0  0  0  0  0
    0.4350    9.0120   17.9630 N   0  0  0  0  0  0  0  0  0  0  0  0
    1.7980    9.2220   17.8730 C   0  0  0  0  0  0  0  0  0  0  0  0
    2.3810   10.3000   17.8410 O   0  0  0  0  0  0  0  0  0  0  0  0
    0.1770    8.0270   17.9540 H   0  0  0  0  0  0  0  0  0  0  0  0
    2.5780    7.9410   17.8200 C   0  0  0  0  0  0  0  0  0  0  0  0
    2.0320    6.7690   18.3160 C   0  0  0  0  0  0  0  0  0  0  0  0
    2.7890    5.6000   18.2280 C   0  0  0  0  0  0  0  0  0  0  0  0
    4.0660    5.6170   17.6530 C   0  0  0  0  0  0  0  0  0  0  0  0
    4.5140    6.8600   17.1900 C   0  0  0  0  0  0  0  0  0  0  0  0
    3.8150    8.0180   17.2550 N   0  0  0  0  0  0  0  0  0  0  0  0
    1.0420    6.7580   18.7590 H   0  0  0  0  0  0  0  0  0  0  0  0
    2.3480    4.6850   18.6170 H   0  0  0  0  0  0  0  0  0  0  0  0
    5.4940    6.9670   16.7280 H   0  0  0  0  0  0  0  0  0  0  0  0
    4.9410    4.3640   17.5040 C   0  0  0  0  0  0  0  0  0  0  0  0
    5.3410    4.1970   16.0220 C   0  0  0  0  0  0  0  0  0  0  0  0
    4.4850    4.3720   15.3580 H   0  0  0  0  0  0  0  0  0  0  0  0
    5.7130    3.1890   15.8070 H   0  0  0  0  0  0  0  0  0  0  0  0
    6.1290    4.9060   15.7420 H   0  0  0  0  0  0  0  0  0  0  0  0
    6.2190    4.5030   18.3590 C   0  0  0  0  0  0  0  0  0  0  0  0
    6.1920    3.8310   19.2250 H   0  0  0  0  0  0  0  0  0  0  0  0
    6.3580    5.5220   18.7370 H   0  0  0  0  0  0  0  0  0  0  0  0
    7.1130    4.2570   17.7730 H   0  0  0  0  0  0  0  0  0  0  0  0
    4.2380    3.0600   17.9430 C   0  0  0  0  0  0  0  0  0  0  0  0
    4.9510    2.2370   18.0630 H   0  0  0  0  0  0  0  0  0  0  0  0
    3.7360    3.1930   18.9090 H   0  0  0  0  0  0  0  0  0  0  0  0
    3.4750    2.7520   17.2200 H   0  0  0  0  0  0  0  0  0  0  0  0
   -3.7650   11.1370   16.3050 C   0  0  0  0  0  0  0  0  0  0  0  0
   -3.3500   11.4240   15.0380 F   0  0  0  0  0  0  0  0  0  0  0  0
   -4.4720    9.9770   16.2030 F   0  0  0  0  0  0  0  0  0  0  0  0
   -4.6680   12.1050   16.6260 F   0  0  0  0  0  0  0  0  0  0  0  0
   -1.4160   12.8000   20.5010 C   0  0  2  0  0  0  0  0  0  0  0  0
   -2.2430   12.5780   21.1890 H   0  0  0  0  0  0  0  0  0  0  0  0
   -1.6000   14.2530   20.0480 C   0  0  0  0  0  0  0  0  0  0  0  0
   -2.1780   14.3000   19.1190 H   0  0  0  0  0  0  0  0  0  0  0  0
   -0.6420   14.7500   19.8710 H   0  0  0  0  0  0  0  0  0  0  0  0
   -2.1420   14.8360   20.8010 H   0  0  0  0  0  0  0  0  0  0  0  0
   -0.0870   12.5810   21.2540 C   0  0  0  0  0  0  0  0  0  0  0  0
    0.1020   13.4080   21.9500 H   0  0  0  0  0  0  0  0  0  0  0  0
    0.7530   12.5890   20.5460 H   0  0  0  0  0  0  0  0  0  0  0  0
   -0.0720   11.2970   22.0130 C   0  0  0  0  0  0  0  0  0  0  0  0
    0.8420   10.3530   21.9320 N   0  0  0  0  0  0  0  0  0  0  0  0
    0.4940    9.3430   22.7970 N   0  0  0  0  0  0  0  0  0  0  0  0
   -0.6260    9.6880   23.3810 C   0  0  0  0  0  0  0  0  0  0  0  0
   -1.0200   10.9060   22.9220 N   0  0  0  0  0  0  0  0  0  0  0  0
   -1.1650    9.1070   24.1160 H   0  0  0  0  0  0  0  0  0  0  0  0
   -2.1930   11.6260   23.3320 C   0  0  0  0  0  0  0  0  0  0  0  0
   -1.9410   12.2220   24.2130 H   0  0  0  0  0  0  0  0  0  0  0  0
   -2.5240   12.2830   22.5250 H   0  0  0  0  0  0  0  0  0  0  0  0
   -2.9850   10.9140   23.5690 H   0  0  0  0  0  0  0  0  0  0  0  0
  1 40  1  0  0  0  0
  2  1  1  0  0  0  0
  2  7  1  0  0  0  0
  3  2  2  0  0  0  0
  4  5  2  0  0  0  0
  4  3  1  0  0  0  0
  5  6  1  0  0  0  0
  6  9  1  0  0  0  0
  6  1  2  0  0  0  0
  8  4  1  0  0  0  0
 10  3  1  0  0  0  0
 11 10  1  0  0  0  0
 12 11  2  0  0  0  0
 13 10  1  0  0  0  0
 14 11  1  0  0  0  0
 14 15  1  0  0  0  0
 15 20  1  0  0  0  0
 16 15  2  0  0  0  0
 16 21  1  0  0  0  0
 17 16  1  0  0  0  0
 18 19  1  0  0  0  0
 18 17  2  0  0  0  0
 19 14  2  0  0  0  0
 22 18  1  0  0  0  0
 23 17  1  0  0  0  0
 23 32  1  0  0  0  0
 23 28  1  0  0  0  0
 24 23  1  0  0  0  0
 25 24  1  0  0  0  0
 26 24  1  0  0  0  0
 27 24  1  0  0  0  0
 28 30  1  0  0  0  0
 28 29  1  0  0  0  0
 31 28  1  0  0  0  0
 32 33  1  0  0  0  0
 32 34  1  0  0  0  0
 35 32  1  0  0  0  0
 36 39  1  0  0  0  0
 36  5  1  0  0  0  0
 37 36  1  0  0  0  0
 38 36  1  0  0  0  0
 40 41  1  1  0  0  0
 40 46  1  0  0  0  0
 42 40  1  0  0  0  0
 42 45  1  0  0  0  0
 43 42  1  0  0  0  0
 44 42  1  0  0  0  0
 46 47  1  0  0  0  0
 46 49  1  0  0  0  0
 48 46  1  0  0  0  0
 49 53  1  0  0  0  0
 50 49  2  0  0  0  0
 50 51  1  0  0  0  0
 51 52  2  0  0  0  0
 52 54  1  0  0  0  0
 53 55  1  0  0  0  0
 53 52  1  0  0  0  0
 55 58  1  0  0  0  0
 55 56  1  0  0  0  0
 57 55  1  0  0  0  0
M  END
>  <MODEL>
25

>  <REMARK>
 VINA RESULT:    -6.966      4.158      9.585
 INTER + INTRA:         -10.337
 INTER:                 -10.245
 INTRA:                  -0.092
 UNBOUND:                 0.498
  Name = 
  12 active torsions:
  status: ('A' for Active; 'I' for Inactive)
    1  A    between atoms: C_1  and  C_2
    2  A    between atoms: C_2  and  C_3
    3  A    between atoms: C_2  and  C_10
    4  A    between atoms: C_3  and  C_4
    5  A    between atoms: N_8  and  C_9
    6  A    between atoms: C_12  and  N_13
    7  A    between atoms: C_14  and  C_16
    8  A    between atoms: C_19  and  C_20
    9  A    between atoms: C_20  and  C_21
   10  A    between atoms: C_20  and  C_22
   11  A    between atoms: C_20  and  C_23
   12  A    between atoms: C_27  and  C_28
                            x       y       z     vdW  Elec       q    Type
                         _______ _______ _______ _____ _____    ______ ____

>  <TORSDO>
F 12

$$$$
=
 OpenBabel07192307433D

 58 60  0  0  1  0  0  0  0  0999 V2000
   -0.1260   11.1830   19.5160 C   0  0  0  0  0  0  0  0  0  0  0  0
    0.7290   10.2340   18.9330 C   0  0  0  0  0  0  0  0  0  0  0  0
    1.1910    9.1270   19.6540 C   0  0  0  0  0  0  0  0  0  0  0  0
    0.7920    8.9660   20.9810 C   0  0  0  0  0  0  0  0  0  0  0  0
   -0.0670    9.8970   21.5900 C   0  0  0  0  0  0  0  0  0  0  0  0
   -0.5140   11.0040   20.8510 C   0  0  0  0  0  0  0  0  0  0  0  0
    1.0410   10.3660   17.8980 H   0  0  0  0  0  0  0  0  0  0  0  0
    1.1340    8.1200   21.5710 H   0  0  0  0  0  0  0  0  0  0  0  0
   -1.1750   11.7270   21.3300 H   0  0  0  0  0  0  0  0  0  0  0  0
    2.0370    8.2320   18.9790 N   0  0  0  0  0  0  0  0  0  0  0  0
    2.3300    6.9190   19.2960 C   0  0  0  0  0  0  0  0  0  0  0  0
    1.9140    6.2770   20.2530 O   0  0  0  0  0  0  0  0  0  0  0  0
    2.5140    8.5630   18.1440 H   0  0  0  0  0  0  0  0  0  0  0  0
    3.2590    6.2800   18.3050 C   0  0  0  0  0  0  0  0  0  0  0  0
    3.2350    4.9110   18.1060 C   0  0  0  0  0  0  0  0  0  0  0  0
    4.1050    4.3660   17.1610 C   0  0  0  0  0  0  0  0  0  0  0  0
    4.9790    5.1870   16.4370 C   0  0  0  0  0  0  0  0  0  0  0  0
    4.9160    6.5550   16.7280 C   0  0  0  0  0  0  0  0  0  0  0  0
    4.0890    7.1260   17.6340 N   0  0  0  0  0  0  0  0  0  0  0  0
    2.5560    4.2770   18.6670 H   0  0  0  0  0  0  0  0  0  0  0  0
    4.0740    3.2900   17.0100 H   0  0  0  0  0  0  0  0  0  0  0  0
    5.5580    7.2680   16.2120 H   0  0  0  0  0  0  0  0  0  0  0  0
    5.9450    4.6570   15.3680 C   0  0  0  0  0  0  0  0  0  0  0  0
    7.3920    5.0190   15.7650 C   0  0  0  0  0  0  0  0  0  0  0  0
    7.6600    6.0230   15.4130 H   0  0  0  0  0  0  0  0  0  0  0  0
    8.1230    4.3230   15.3390 H   0  0  0  0  0  0  0  0  0  0  0  0
    7.5190    5.0050   16.8550 H   0  0  0  0  0  0  0  0  0  0  0  0
    5.8210    3.1220   15.2550 C   0  0  0  0  0  0  0  0  0  0  0  0
    6.4520    2.6180   15.9970 H   0  0  0  0  0  0  0  0  0  0  0  0
    6.1150    2.7530   14.2660 H   0  0  0  0  0  0  0  0  0  0  0  0
    4.7860    2.7970   15.4200 H   0  0  0  0  0  0  0  0  0  0  0  0
    5.6930    5.2390   13.9590 C   0  0  0  0  0  0  0  0  0  0  0  0
    4.7820    5.8480   13.9300 H   0  0  0  0  0  0  0  0  0  0  0  0
    6.5210    5.8880   13.6510 H   0  0  0  0  0  0  0  0  0  0  0  0
    5.6010    4.4470   13.2070 H   0  0  0  0  0  0  0  0  0  0  0  0
   -0.4720    9.7130   23.0320 C   0  0  0  0  0  0  0  0  0  0  0  0
    0.5920    9.5870   23.8750 F   0  0  0  0  0  0  0  0  0  0  0  0
   -1.2010   10.7560   23.5190 F   0  0  0  0  0  0  0  0  0  0  0  0
   -1.2310    8.5990   23.2230 F   0  0  0  0  0  0  0  0  0  0  0  0
   -0.6180   12.3660   18.6920 C   0  0  2  0  0  0  0  0  0  0  0  0
    0.2620   12.9140   18.3280 H   0  0  0  0  0  0  0  0  0  0  0  0
   -1.4170   13.3460   19.5600 C   0  0  0  0  0  0  0  0  0  0  0  0
   -0.9830   13.4200   20.5630 H   0  0  0  0  0  0  0  0  0  0  0  0
   -2.4600   13.0360   19.6700 H   0  0  0  0  0  0  0  0  0  0  0  0
   -1.4130   14.3510   19.1250 H   0  0  0  0  0  0  0  0  0  0  0  0
   -1.4200   11.8700   17.4710 C   0  0  0  0  0  0  0  0  0  0  0  0
   -1.0050   10.9270   17.0940 H   0  0  0  0  0  0  0  0  0  0  0  0
   -1.3290   12.5880   16.6440 H   0  0  0  0  0  0  0  0  0  0  0  0
   -2.8640   11.6710   17.7860 C   0  0  0  0  0  0  0  0  0  0  0  0
   -3.4510   11.9050   18.9410 N   0  0  0  0  0  0  0  0  0  0  0  0
   -4.7860   11.6030   18.8140 N   0  0  0  0  0  0  0  0  0  0  0  0
   -4.9840   11.1850   17.5900 C   0  0  0  0  0  0  0  0  0  0  0  0
   -3.8080   11.2100   16.9060 N   0  0  0  0  0  0  0  0  0  0  0  0
   -5.9280   10.8660   17.1710 H   0  0  0  0  0  0  0  0  0  0  0  0
   -3.6190   10.8350   15.5320 C   0  0  0  0  0  0  0  0  0  0  0  0
   -3.3890    9.7670   15.4950 H   0  0  0  0  0  0  0  0  0  0  0  0
   -4.5310   11.0360   14.9660 H   0  0  0  0  0  0  0  0  0  0  0  0
   -2.7970   11.4170   15.1130 H   0  0  0  0  0  0  0  0  0  0  0  0
  1  6  1  0  0  0  0
  2  1  2  0  0  0  0
  2  3  1  0  0  0  0
  3  4  2  0  0  0  0
  4  8  1  0  0  0  0
  4  5  1  0  0  0  0
  5 36  1  0  0  0  0
  6  9  1  0  0  0  0
  6  5  2  0  0  0  0
  7  2  1  0  0  0  0
 10 11  1  0  0  0  0
 10  3  1  0  0  0  0
 11 12  2  0  0  0  0
 13 10  1  0  0  0  0
 14 11  1  0  0  0  0
 15 14  1  0  0  0  0
 15 20  1  0  0  0  0
 16 15  2  0  0  0  0
 17 18  2  0  0  0  0
 17 16  1  0  0  0  0
 18 19  1  0  0  0  0
 19 14  2  0  0  0  0
 21 16  1  0  0  0  0
 22 18  1  0  0  0  0
 23 24  1  0  0  0  0
 23 17  1  0  0  0  0
 24 27  1  0  0  0  0
 25 24  1  0  0  0  0
 26 24  1  0  0  0  0
 28 23  1  0  0  0  0
 28 31  1  0  0  0  0
 28 29  1  0  0  0  0
 30 28  1  0  0  0  0
 32 23  1  0  0  0  0
 33 32  1  0  0  0  0
 34 32  1  0  0  0  0
 35 32  1  0  0  0  0
 36 39  1  0  0  0  0
 36 38  1  0  0  0  0
 36 37  1  0  0  0  0
 40 41  1  6  0  0  0
 40  1  1  0  0  0  0
 40 42  1  0  0  0  0
 42 44  1  0  0  0  0
 42 43  1  0  0  0  0
 45 42  1  0  0  0  0
 46 49  1  0  0  0  0
 46 40  1  0  0  0  0
 47 46  1  0  0  0  0
 48 46  1  0  0  0  0
 49 50  2  0  0  0  0
 51 50  1  0  0  0  0
 52 51  2  0  0  0  0
 53 52  1  0  0  0  0
 53 49  1  0  0  0  0
 54 52  1  0  0  0  0
 55 53  1  0  0  0  0
 56 55  1  0  0  0  0
 57 55  1  0  0  0  0
 58 55  1  0  0  0  0
M  END
>  <MODEL>
26

>  <REMARK>
 VINA RESULT:    -6.939      3.842      9.530
 INTER + INTRA:         -10.295
 INTER:                 -10.505
 INTRA:                   0.210
 UNBOUND:                 0.498
  Name = 
  12 active torsions:
  status: ('A' for Active; 'I' for Inactive)
    1  A    between atoms: C_1  and  C_2
    2  A    between atoms: C_2  and  C_3
    3  A    between atoms: C_2  and  C_10
    4  A    between atoms: C_3  and  C_4
    5  A    between atoms: N_8  and  C_9
    6  A    between atoms: C_12  and  N_13
    7  A    between atoms: C_14  and  C_16
    8  A    between atoms: C_19  and  C_20
    9  A    between atoms: C_20  and  C_21
   10  A    between atoms: C_20  and  C_22
   11  A    between atoms: C_20  and  C_23
   12  A    between atoms: C_27  and  C_28
                            x       y       z     vdW  Elec       q    Type
                         _______ _______ _______ _____ _____    ______ ____

>  <TORSDO>
F 12

$$$$
=
 OpenBabel07192307433D

 58 60  0  0  1  0  0  0  0  0999 V2000
   -0.2210   12.0240   18.8910 C   0  0  0  0  0  0  0  0  0  0  0  0
    0.4200   10.7760   18.9480 C   0  0  0  0  0  0  0  0  0  0  0  0
   -0.0860    9.6640   18.2640 C   0  0  0  0  0  0  0  0  0  0  0  0
   -1.2520    9.8030   17.5110 C   0  0  0  0  0  0  0  0  0  0  0  0
   -1.9120   11.0420   17.4310 C   0  0  0  0  0  0  0  0  0  0  0  0
   -1.3910   12.1430   18.1300 C   0  0  0  0  0  0  0  0  0  0  0  0
    1.3270   10.6710   19.5410 H   0  0  0  0  0  0  0  0  0  0  0  0
   -1.6740    8.9600   16.9700 H   0  0  0  0  0  0  0  0  0  0  0  0
   -1.9100   13.1000   18.0710 H   0  0  0  0  0  0  0  0  0  0  0  0
    0.6300    8.4620   18.3790 N   0  0  0  0  0  0  0  0  0  0  0  0
    1.9680    8.2290   18.1220 C   0  0  0  0  0  0  0  0  0  0  0  0
    2.7970    9.0370   17.7210 O   0  0  0  0  0  0  0  0  0  0  0  0
    0.1270    7.6330   18.6880 H   0  0  0  0  0  0  0  0  0  0  0  0
    2.3690    6.8090   18.3970 C   0  0  0  0  0  0  0  0  0  0  0  0
    3.4170    6.5320   19.2580 C   0  0  0  0  0  0  0  0  0  0  0  0
    3.7410    5.1960   19.4950 C   0  0  0  0  0  0  0  0  0  0  0  0
    3.0220    4.1660   18.8750 C   0  0  0  0  0  0  0  0  0  0  0  0
    1.9880    4.5670   18.0220 C   0  0  0  0  0  0  0  0  0  0  0  0
    1.6390    5.8490   17.7630 N   0  0  0  0  0  0  0  0  0  0  0  0
    3.9710    7.3330   19.7380 H   0  0  0  0  0  0  0  0  0  0  0  0
    4.5630    4.9910   20.1770 H   0  0  0  0  0  0  0  0  0  0  0  0
    1.3760    3.8340   17.4990 H   0  0  0  0  0  0  0  0  0  0  0  0
    3.3110    2.6760   19.1100 C   0  0  0  0  0  0  0  0  0  0  0  0
    4.5450    2.5360   20.0290 C   0  0  0  0  0  0  0  0  0  0  0  0
    5.2660    3.3420   19.8490 H   0  0  0  0  0  0  0  0  0  0  0  0
    5.0730    1.5900   19.8680 H   0  0  0  0  0  0  0  0  0  0  0  0
    4.2570    2.5780   21.0870 H   0  0  0  0  0  0  0  0  0  0  0  0
    2.0990    2.0000   19.7860 C   0  0  0  0  0  0  0  0  0  0  0  0
    1.4690    2.7360   20.2980 H   0  0  0  0  0  0  0  0  0  0  0  0
    2.4000    1.2510   20.5260 H   0  0  0  0  0  0  0  0  0  0  0  0
    1.4740    1.4830   19.0460 H   0  0  0  0  0  0  0  0  0  0  0  0
    3.6090    1.8890   17.8140 C   0  0  0  0  0  0  0  0  0  0  0  0
    4.1810    0.9770   18.0170 H   0  0  0  0  0  0  0  0  0  0  0  0
    2.6790    1.5810   17.3220 H   0  0  0  0  0  0  0  0  0  0  0  0
    4.1720    2.4960   17.0960 H   0  0  0  0  0  0  0  0  0  0  0  0
   -3.1820   11.1660   16.6250 C   0  0  0  0  0  0  0  0  0  0  0  0
   -4.0440   12.0960   17.1250 F   0  0  0  0  0  0  0  0  0  0  0  0
   -2.9600   11.5300   15.3320 F   0  0  0  0  0  0  0  0  0  0  0  0
   -3.8840   10.0000   16.5750 F   0  0  0  0  0  0  0  0  0  0  0  0
    0.3710   13.2120   19.6380 C   0  0  2  0  0  0  0  0  0  0  0  0
   -0.3440   14.0430   19.5730 H   0  0  0  0  0  0  0  0  0  0  0  0
    1.6640   13.6930   18.9690 C   0  0  0  0  0  0  0  0  0  0  0  0
    1.7550   13.2810   17.9590 H   0  0  0  0  0  0  0  0  0  0  0  0
    2.5520   13.3940   19.5330 H   0  0  0  0  0  0  0  0  0  0  0  0
    1.6800   14.7850   18.8810 H   0  0  0  0  0  0  0  0  0  0  0  0
    0.5730   12.8620   21.1280 C   0  0  0  0  0  0  0  0  0  0  0  0
    1.2240   13.6010   21.6120 H   0  0  0  0  0  0  0  0  0  0  0  0
    1.0940   11.8990   21.2210 H   0  0  0  0  0  0  0  0  0  0  0  0
   -0.7170   12.7920   21.8720 C   0  0  0  0  0  0  0  0  0  0  0  0
   -1.6200   13.7470   21.9620 N   0  0  0  0  0  0  0  0  0  0  0  0
   -2.6630   13.2820   22.7270 N   0  0  0  0  0  0  0  0  0  0  0  0
   -2.3720   12.0590   23.0930 C   0  0  0  0  0  0  0  0  0  0  0  0
   -1.1620   11.7080   22.5820 N   0  0  0  0  0  0  0  0  0  0  0  0
   -2.9880   11.4150   23.7060 H   0  0  0  0  0  0  0  0  0  0  0  0
   -0.5060   10.4410   22.7520 C   0  0  0  0  0  0  0  0  0  0  0  0
   -1.2460    9.6490   22.6120 H   0  0  0  0  0  0  0  0  0  0  0  0
    0.2920   10.3360   22.0140 H   0  0  0  0  0  0  0  0  0  0  0  0
   -0.0800   10.3920   23.7560 H   0  0  0  0  0  0  0  0  0  0  0  0
  1  2  1  0  0  0  0
  1 40  1  0  0  0  0
  2  7  1  0  0  0  0
  3 10  1  0  0  0  0
  3  2  2  0  0  0  0
  4  3  1  0  0  0  0
  5  4  2  0  0  0  0
  5  6  1  0  0  0  0
  6  1  2  0  0  0  0
  8  4  1  0  0  0  0
  9  6  1  0  0  0  0
 10 13  1  0  0  0  0
 11 10  1  0  0  0  0
 11 14  1  0  0  0  0
 12 11  2  0  0  0  0
 14 15  1  0  0  0  0
 15 16  2  0  0  0  0
 15 20  1  0  0  0  0
 16 21  1  0  0  0  0
 17 23  1  0  0  0  0
 17 16  1  0  0  0  0
 18 17  2  0  0  0  0
 19 18  1  0  0  0  0
 19 14  2  0  0  0  0
 22 18  1  0  0  0  0
 23 28  1  0  0  0  0
 23 24  1  0  0  0  0
 24 27  1  0  0  0  0
 25 24  1  0  0  0  0
 26 24  1  0  0  0  0
 28 29  1  0  0  0  0
 28 30  1  0  0  0  0
 31 28  1  0  0  0  0
 32 33  1  0  0  0  0
 32 23  1  0  0  0  0
 34 32  1  0  0  0  0
 35 32  1  0  0  0  0
 36 37  1  0  0  0  0
 36  5  1  0  0  0  0
 38 36  1  0  0  0  0
 39 36  1  0  0  0  0
 40 41  1  6  0  0  0
 40 46  1  0  0  0  0
 42 44  1  0  0  0  0
 42 40  1  0  0  0  0
 43 42  1  0  0  0  0
 45 42  1  0  0  0  0
 46 48  1  0  0  0  0
 46 47  1  0  0  0  0
 46 49  1  0  0  0  0
 49 50  2  0  0  0  0
 49 53  1  0  0  0  0
 50 51  1  0  0  0  0
 51 52  2  0  0  0  0
 52 54  1  0  0  0  0
 53 55  1  0  0  0  0
 53 52  1  0  0  0  0
 55 58  1  0  0  0  0
 56 55  1  0  0  0  0
 57 55  1  0  0  0  0
M  END
>  <MODEL>
27

>  <REMARK>
 VINA RESULT:    -6.891      4.359      9.700
 INTER + INTRA:         -10.221
 INTER:                  -9.024
 INTRA:                  -1.197
 UNBOUND:                 0.498
  Name = 
  12 active torsions:
  status: ('A' for Active; 'I' for Inactive)
    1  A    between atoms: C_1  and  C_2
    2  A    between atoms: C_2  and  C_3
    3  A    between atoms: C_2  and  C_10
    4  A    between atoms: C_3  and  C_4
    5  A    between atoms: N_8  and  C_9
    6  A    between atoms: C_12  and  N_13
    7  A    between atoms: C_14  and  C_16
    8  A    between atoms: C_19  and  C_20
    9  A    between atoms: C_20  and  C_21
   10  A    between atoms: C_20  and  C_22
   11  A    between atoms: C_20  and  C_23
   12  A    between atoms: C_27  and  C_28
                            x       y       z     vdW  Elec       q    Type
                         _______ _______ _______ _____ _____    ______ ____

>  <TORSDO>
F 12

$$$$
=
 OpenBabel07192307433D

 58 60  0  0  1  0  0  0  0  0999 V2000
    2.1790    4.7460   20.4990 C   0  0  0  0  0  0  0  0  0  0  0  0
    1.5980    6.0240   20.4930 C   0  0  0  0  0  0  0  0  0  0  0  0
    2.2610    7.1250   19.9380 C   0  0  0  0  0  0  0  0  0  0  0  0
    3.5260    6.9440   19.3790 C   0  0  0  0  0  0  0  0  0  0  0  0
    4.1310    5.6760   19.3660 C   0  0  0  0  0  0  0  0  0  0  0  0
    3.4520    4.5860   19.9330 C   0  0  0  0  0  0  0  0  0  0  0  0
    0.6120    6.1620   20.9340 H   0  0  0  0  0  0  0  0  0  0  0  0
    4.0700    7.7780   18.9420 H   0  0  0  0  0  0  0  0  0  0  0  0
    3.9270    3.6050   19.9270 H   0  0  0  0  0  0  0  0  0  0  0  0
    1.5930    8.3590   19.9750 N   0  0  0  0  0  0  0  0  0  0  0  0
    1.2840    9.2040   18.9260 C   0  0  0  0  0  0  0  0  0  0  0  0
    1.5530    9.0420   17.7410 O   0  0  0  0  0  0  0  0  0  0  0  0
    1.2840    8.7090   20.8790 H   0  0  0  0  0  0  0  0  0  0  0  0
    0.5300   10.4230   19.3690 C   0  0  0  0  0  0  0  0  0  0  0  0
   -0.4860   10.9410   18.5850 C   0  0  0  0  0  0  0  0  0  0  0  0
   -1.1700   12.0650   19.0480 C   0  0  0  0  0  0  0  0  0  0  0  0
   -0.8320   12.6520   20.2750 C   0  0  0  0  0  0  0  0  0  0  0  0
    0.2140   12.0430   20.9780 C   0  0  0  0  0  0  0  0  0  0  0  0
    0.9040   10.9540   20.5670 N   0  0  0  0  0  0  0  0  0  0  0  0
   -0.7470   10.4840   17.6360 H   0  0  0  0  0  0  0  0  0  0  0  0
   -1.9690   12.4610   18.4260 H   0  0  0  0  0  0  0  0  0  0  0  0
    0.5430   12.4310   21.9410 H   0  0  0  0  0  0  0  0  0  0  0  0
   -1.5580   13.8750   20.8540 C   0  0  0  0  0  0  0  0  0  0  0  0
   -1.1600   14.0480   22.3360 C   0  0  0  0  0  0  0  0  0  0  0  0
   -0.1240   14.3940   22.4300 H   0  0  0  0  0  0  0  0  0  0  0  0
   -1.2380   13.1090   22.8960 H   0  0  0  0  0  0  0  0  0  0  0  0
   -1.8030   14.7840   22.8350 H   0  0  0  0  0  0  0  0  0  0  0  0
   -1.1640   15.1460   20.0730 C   0  0  0  0  0  0  0  0  0  0  0  0
   -1.5290   15.1070   19.0400 H   0  0  0  0  0  0  0  0  0  0  0  0
   -0.0790   15.2910   20.0340 H   0  0  0  0  0  0  0  0  0  0  0  0
   -1.5870   16.0440   20.5420 H   0  0  0  0  0  0  0  0  0  0  0  0
   -3.0990   13.7650   20.7990 C   0  0  0  0  0  0  0  0  0  0  0  0
   -3.5830   14.6410   21.2460 H   0  0  0  0  0  0  0  0  0  0  0  0
   -3.4490   13.7000   19.7620 H   0  0  0  0  0  0  0  0  0  0  0  0
   -3.4570   12.8710   21.3210 H   0  0  0  0  0  0  0  0  0  0  0  0
    5.5080    5.5060   18.7720 C   0  0  0  0  0  0  0  0  0  0  0  0
    5.8380    6.4950   17.8930 F   0  0  0  0  0  0  0  0  0  0  0  0
    6.4970    5.5060   19.7090 F   0  0  0  0  0  0  0  0  0  0  0  0
    5.6390    4.3390   18.0830 F   0  0  0  0  0  0  0  0  0  0  0  0
    1.4180    3.5720   21.1000 C   0  0  2  0  0  0  0  0  0  0  0  0
    0.5890    3.9760   21.6970 H   0  0  0  0  0  0  0  0  0  0  0  0
    2.3060    2.7760   22.0640 C   0  0  0  0  0  0  0  0  0  0  0  0
    2.3830    1.7300   21.7480 H   0  0  0  0  0  0  0  0  0  0  0  0
    1.9150    2.7890   23.0840 H   0  0  0  0  0  0  0  0  0  0  0  0
    3.3220    3.1860   22.0920 H   0  0  0  0  0  0  0  0  0  0  0  0
    0.8240    2.6900   19.9810 C   0  0  0  0  0  0  0  0  0  0  0  0
   -0.0670    3.1630   19.5500 H   0  0  0  0  0  0  0  0  0  0  0  0
    0.4800    1.7330   20.3980 H   0  0  0  0  0  0  0  0  0  0  0  0
    1.8050    2.4220   18.8910 C   0  0  0  0  0  0  0  0  0  0  0  0
    2.7460    1.5010   18.8970 N   0  0  0  0  0  0  0  0  0  0  0  0
    3.4270    1.5740   17.7050 N   0  0  0  0  0  0  0  0  0  0  0  0
    2.8940    2.5420   17.0020 C   0  0  0  0  0  0  0  0  0  0  0  0
    1.8730    3.1030   17.7040 N   0  0  0  0  0  0  0  0  0  0  0  0
    3.2040    2.8570   16.0160 H   0  0  0  0  0  0  0  0  0  0  0  0
    1.0360    4.1840   17.2630 C   0  0  0  0  0  0  0  0  0  0  0  0
    1.2260    5.0490   17.9050 H   0  0  0  0  0  0  0  0  0  0  0  0
    1.2720    4.4340   16.2270 H   0  0  0  0  0  0  0  0  0  0  0  0
   -0.0090    3.8790   17.3340 H   0  0  0  0  0  0  0  0  0  0  0  0
  1 40  1  0  0  0  0
  2  1  1  0  0  0  0
  2  7  1  0  0  0  0
  3 10  1  0  0  0  0
  3  2  2  0  0  0  0
  4  3  1  0  0  0  0
  5  4  2  0  0  0  0
  5  6  1  0  0  0  0
  6  1  2  0  0  0  0
  8  4  1  0  0  0  0
  9  6  1  0  0  0  0
 10 13  1  0  0  0  0
 11 14  1  0  0  0  0
 11 10  1  0  0  0  0
 12 11  2  0  0  0  0
 14 19  1  0  0  0  0
 15 16  1  0  0  0  0
 15 14  2  0  0  0  0
 16 17  2  0  0  0  0
 17 23  1  0  0  0  0
 17 18  1  0  0  0  0
 18 22  1  0  0  0  0
 19 18  2  0  0  0  0
 20 15  1  0  0  0  0
 21 16  1  0  0  0  0
 23 24  1  0  0  0  0
 24 25  1  0  0  0  0
 24 27  1  0  0  0  0
 24 26  1  0  0  0  0
 28 31  1  0  0  0  0
 28 23  1  0  0  0  0
 29 28  1  0  0  0  0
 30 28  1  0  0  0  0
 32 23  1  0  0  0  0
 32 33  1  0  0  0  0
 32 35  1  0  0  0  0
 34 32  1  0  0  0  0
 36  5  1  0  0  0  0
 36 38  1  0  0  0  0
 37 36  1  0  0  0  0
 39 36  1  0  0  0  0
 40 41  1  1  0  0  0
 40 42  1  0  0  0  0
 42 45  1  0  0  0  0
 42 44  1  0  0  0  0
 43 42  1  0  0  0  0
 46 48  1  0  0  0  0
 46 40  1  0  0  0  0
 47 46  1  0  0  0  0
 49 50  2  0  0  0  0
 49 46  1  0  0  0  0
 51 50  1  0  0  0  0
 52 53  1  0  0  0  0
 52 51  2  0  0  0  0
 53 49  1  0  0  0  0
 54 52  1  0  0  0  0
 55 58  1  0  0  0  0
 55 53  1  0  0  0  0
 55 56  1  0  0  0  0
 57 55  1  0  0  0  0
M  END
>  <MODEL>
28

>  <REMARK>
 VINA RESULT:    -6.790      2.707      4.178
 INTER + INTRA:         -10.064
 INTER:                  -9.931
 INTRA:                  -0.133
 UNBOUND:                 0.498
  Name = 
  12 active torsions:
  status: ('A' for Active; 'I' for Inactive)
    1  A    between atoms: C_1  and  C_2
    2  A    between atoms: C_2  and  C_3
    3  A    between atoms: C_2  and  C_10
    4  A    between atoms: C_3  and  C_4
    5  A    between atoms: N_8  and  C_9
    6  A    between atoms: C_12  and  N_13
    7  A    between atoms: C_14  and  C_16
    8  A    between atoms: C_19  and  C_20
    9  A    between atoms: C_20  and  C_21
   10  A    between atoms: C_20  and  C_22
   11  A    between atoms: C_20  and  C_23
   12  A    between atoms: C_27  and  C_28
                            x       y       z     vdW  Elec       q    Type
                         _______ _______ _______ _____ _____    ______ ____

>  <TORSDO>
F 12

$$$$
=
 OpenBabel07192307433D

 58 60  0  0  1  0  0  0  0  0999 V2000
   -0.1710   10.9140   20.4430 C   0  0  0  0  0  0  0  0  0  0  0  0
    0.8050   10.0020   20.0080 C   0  0  0  0  0  0  0  0  0  0  0  0
    0.7100    9.3720   18.7610 C   0  0  0  0  0  0  0  0  0  0  0  0
   -0.3770    9.6580   17.9360 C   0  0  0  0  0  0  0  0  0  0  0  0
   -1.3660   10.5700   18.3420 C   0  0  0  0  0  0  0  0  0  0  0  0
   -1.2560   11.1870   19.5980 C   0  0  0  0  0  0  0  0  0  0  0  0
    1.6500    9.7780   20.6570 H   0  0  0  0  0  0  0  0  0  0  0  0
   -0.4820    9.1850   16.9630 H   0  0  0  0  0  0  0  0  0  0  0  0
   -2.0290   11.8890   19.9130 H   0  0  0  0  0  0  0  0  0  0  0  0
    1.7400    8.4810   18.4160 N   0  0  0  0  0  0  0  0  0  0  0  0
    2.2050    7.3870   19.1200 C   0  0  0  0  0  0  0  0  0  0  0  0
    1.8120    6.9860   20.2100 O   0  0  0  0  0  0  0  0  0  0  0  0
    2.2300    8.6350   17.5380 H   0  0  0  0  0  0  0  0  0  0  0  0
    3.3030    6.6610   18.4000 C   0  0  0  0  0  0  0  0  0  0  0  0
    3.6180    5.3560   18.7370 C   0  0  0  0  0  0  0  0  0  0  0  0
    4.6350    4.7180   18.0270 C   0  0  0  0  0  0  0  0  0  0  0  0
    5.3180    5.3850   17.0020 C   0  0  0  0  0  0  0  0  0  0  0  0
    4.9160    6.7030   16.7540 C   0  0  0  0  0  0  0  0  0  0  0  0
    3.9360    7.3600   17.4170 N   0  0  0  0  0  0  0  0  0  0  0  0
    3.0860    4.8410   19.5310 H   0  0  0  0  0  0  0  0  0  0  0  0
    4.8700    3.6910   18.2970 H   0  0  0  0  0  0  0  0  0  0  0  0
    5.3900    7.2970   15.9740 H   0  0  0  0  0  0  0  0  0  0  0  0
    6.4300    4.7350   16.1660 C   0  0  0  0  0  0  0  0  0  0  0  0
    6.8430    5.6980   15.0320 C   0  0  0  0  0  0  0  0  0  0  0  0
    6.0290    5.8300   14.3090 H   0  0  0  0  0  0  0  0  0  0  0  0
    7.7110    5.3290   14.4750 H   0  0  0  0  0  0  0  0  0  0  0  0
    7.1000    6.6880   15.4270 H   0  0  0  0  0  0  0  0  0  0  0  0
    7.6590    4.4420   17.0530 C   0  0  0  0  0  0  0  0  0  0  0  0
    7.7840    3.3650   17.2150 H   0  0  0  0  0  0  0  0  0  0  0  0
    7.5850    4.9170   18.0370 H   0  0  0  0  0  0  0  0  0  0  0  0
    8.5790    4.8180   16.5870 H   0  0  0  0  0  0  0  0  0  0  0  0
    6.0130    3.3990   15.5100 C   0  0  0  0  0  0  0  0  0  0  0  0
    5.9610    3.4830   14.4180 H   0  0  0  0  0  0  0  0  0  0  0  0
    6.7390    2.6090   15.7360 H   0  0  0  0  0  0  0  0  0  0  0  0
    5.0370    3.0590   15.8750 H   0  0  0  0  0  0  0  0  0  0  0  0
   -2.5430   10.8520   17.4410 C   0  0  0  0  0  0  0  0  0  0  0  0
   -2.2230   11.6310   16.3680 F   0  0  0  0  0  0  0  0  0  0  0  0
   -3.0980    9.7230   16.9190 F   0  0  0  0  0  0  0  0  0  0  0  0
   -3.5490   11.5060   18.0860 F   0  0  0  0  0  0  0  0  0  0  0  0
   -0.0230   11.5890   21.8000 C   0  0  2  0  0  0  0  0  0  0  0  0
    0.8110   11.1080   22.3280 H   0  0  0  0  0  0  0  0  0  0  0  0
   -1.2730   11.3700   22.6610 C   0  0  0  0  0  0  0  0  0  0  0  0
   -0.9980   11.1740   23.7030 H   0  0  0  0  0  0  0  0  0  0  0  0
   -1.8680   10.5230   22.3090 H   0  0  0  0  0  0  0  0  0  0  0  0
   -1.9180   12.2550   22.6530 H   0  0  0  0  0  0  0  0  0  0  0  0
    0.3140   13.0840   21.6200 C   0  0  0  0  0  0  0  0  0  0  0  0
    0.9440   13.2330   20.7340 H   0  0  0  0  0  0  0  0  0  0  0  0
    0.9090   13.4420   22.4720 H   0  0  0  0  0  0  0  0  0  0  0  0
   -0.9090   13.9280   21.4910 C   0  0  0  0  0  0  0  0  0  0  0  0
   -1.8220   14.1260   22.4180 N   0  0  0  0  0  0  0  0  0  0  0  0
   -2.7780   14.9720   21.9070 N   0  0  0  0  0  0  0  0  0  0  0  0
   -2.4320   15.2660   20.6790 C   0  0  0  0  0  0  0  0  0  0  0  0
   -1.2660   14.6350   20.3730 N   0  0  0  0  0  0  0  0  0  0  0  0
   -2.9760   15.9090   20.0010 H   0  0  0  0  0  0  0  0  0  0  0  0
   -0.5610   14.7180   19.1240 C   0  0  0  0  0  0  0  0  0  0  0  0
   -0.8000   15.6770   18.6570 H   0  0  0  0  0  0  0  0  0  0  0  0
    0.5140   14.6510   19.3020 H   0  0  0  0  0  0  0  0  0  0  0  0
   -0.8740   13.8940   18.4810 H   0  0  0  0  0  0  0  0  0  0  0  0
  1 40  1  0  0  0  0
  2  1  1  0  0  0  0
  2  7  1  0  0  0  0
  3  2  2  0  0  0  0
  4  5  2  0  0  0  0
  4  3  1  0  0  0  0
  5  6  1  0  0  0  0
  6  9  1  0  0  0  0
  6  1  2  0  0  0  0
  8  4  1  0  0  0  0
 10  3  1  0  0  0  0
 10 11  1  0  0  0  0
 11 12  2  0  0  0  0
 13 10  1  0  0  0  0
 14 15  1  0  0  0  0
 14 11  1  0  0  0  0
 15 20  1  0  0  0  0
 16 21  1  0  0  0  0
 16 15  2  0  0  0  0
 17 16  1  0  0  0  0
 18 17  2  0  0  0  0
 18 19  1  0  0  0  0
 19 14  2  0  0  0  0
 22 18  1  0  0  0  0
 23 17  1  0  0  0  0
 23 28  1  0  0  0  0
 24 27  1  0  0  0  0
 24 23  1  0  0  0  0
 25 24  1  0  0  0  0
 26 24  1  0  0  0  0
 28 29  1  0  0  0  0
 28 30  1  0  0  0  0
 31 28  1  0  0  0  0
 32 34  1  0  0  0  0
 32 35  1  0  0  0  0
 32 23  1  0  0  0  0
 33 32  1  0  0  0  0
 36 39  1  0  0  0  0
 36  5  1  0  0  0  0
 37 36  1  0  0  0  0
 38 36  1  0  0  0  0
 40 41  1  1  0  0  0
 40 42  1  0  0  0  0
 42 43  1  0  0  0  0
 44 42  1  0  0  0  0
 45 42  1  0  0  0  0
 46 40  1  0  0  0  0
 46 48  1  0  0  0  0
 47 46  1  0  0  0  0
 49 46  1  0  0  0  0
 49 50  2  0  0  0  0
 51 50  1  0  0  0  0
 52 51  2  0  0  0  0
 53 52  1  0  0  0  0
 53 49  1  0  0  0  0
 54 52  1  0  0  0  0
 55 57  1  0  0  0  0
 55 53  1  0  0  0  0
 56 55  1  0  0  0  0
 58 55  1  0  0  0  0
M  END
>  <MODEL>
29

>  <REMARK>
 VINA RESULT:    -6.673      4.085      9.961
 INTER + INTRA:          -9.881
 INTER:                  -9.593
 INTRA:                  -0.288
 UNBOUND:                 0.498
  Name = 
  12 active torsions:
  status: ('A' for Active; 'I' for Inactive)
    1  A    between atoms: C_1  and  C_2
    2  A    between atoms: C_2  and  C_3
    3  A    between atoms: C_2  and  C_10
    4  A    between atoms: C_3  and  C_4
    5  A    between atoms: N_8  and  C_9
    6  A    between atoms: C_12  and  N_13
    7  A    between atoms: C_14  and  C_16
    8  A    between atoms: C_19  and  C_20
    9  A    between atoms: C_20  and  C_21
   10  A    between atoms: C_20  and  C_22
   11  A    between atoms: C_20  and  C_23
   12  A    between atoms: C_27  and  C_28
                            x       y       z     vdW  Elec       q    Type
                         _______ _______ _______ _____ _____    ______ ____

>  <TORSDO>
F 12

$$$$
=
 OpenBabel07192307433D

 58 60  0  0  1  0  0  0  0  0999 V2000
    4.3420    4.0920   19.3210 C   0  0  0  0  0  0  0  0  0  0  0  0
    3.5640    5.2020   19.6880 C   0  0  0  0  0  0  0  0  0  0  0  0
    3.4210    6.3060   18.8380 C   0  0  0  0  0  0  0  0  0  0  0  0
    4.0680    6.3000   17.6030 C   0  0  0  0  0  0  0  0  0  0  0  0
    4.8490    5.2010   17.2060 C   0  0  0  0  0  0  0  0  0  0  0  0
    4.9840    4.1060   18.0750 C   0  0  0  0  0  0  0  0  0  0  0  0
    3.0640    5.2040   20.6550 H   0  0  0  0  0  0  0  0  0  0  0  0
    3.9810    7.1420   16.9200 H   0  0  0  0  0  0  0  0  0  0  0  0
    5.5970    3.2590   17.7670 H   0  0  0  0  0  0  0  0  0  0  0  0
    2.6170    7.3630   19.2940 N   0  0  0  0  0  0  0  0  0  0  0  0
    2.0900    8.4170   18.5720 C   0  0  0  0  0  0  0  0  0  0  0  0
    2.2410    8.6460   17.3770 O   0  0  0  0  0  0  0  0  0  0  0  0
    2.3730    7.3870   20.2810 H   0  0  0  0  0  0  0  0  0  0  0  0
    1.2490    9.3300   19.4150 C   0  0  0  0  0  0  0  0  0  0  0  0
    0.9560    8.9990   20.7270 C   0  0  0  0  0  0  0  0  0  0  0  0
    0.1850    9.8880   21.4760 C   0  0  0  0  0  0  0  0  0  0  0  0
   -0.2790   11.0830   20.9100 C   0  0  0  0  0  0  0  0  0  0  0  0
    0.0770   11.3080   19.5760 C   0  0  0  0  0  0  0  0  0  0  0  0
    0.8220   10.4750   18.8120 N   0  0  0  0  0  0  0  0  0  0  0  0
    1.3170    8.0730   21.1630 H   0  0  0  0  0  0  0  0  0  0  0  0
   -0.0350    9.6190   22.5060 H   0  0  0  0  0  0  0  0  0  0  0  0
   -0.2380   12.2120   19.0560 H   0  0  0  0  0  0  0  0  0  0  0  0
   -1.1110   12.1160   21.6850 C   0  0  0  0  0  0  0  0  0  0  0  0
   -1.6110   11.4820   23.0010 C   0  0  0  0  0  0  0  0  0  0  0  0
   -2.0520   12.2370   23.6630 H   0  0  0  0  0  0  0  0  0  0  0  0
   -0.8020   10.9980   23.5590 H   0  0  0  0  0  0  0  0  0  0  0  0
   -2.3780   10.7220   22.8080 H   0  0  0  0  0  0  0  0  0  0  0  0
   -0.2490   13.3530   22.0160 C   0  0  0  0  0  0  0  0  0  0  0  0
   -0.8510   14.1440   22.4780 H   0  0  0  0  0  0  0  0  0  0  0  0
    0.2270   13.7780   21.1260 H   0  0  0  0  0  0  0  0  0  0  0  0
    0.5570   13.0950   22.7150 H   0  0  0  0  0  0  0  0  0  0  0  0
   -2.3520   12.6180   20.9130 C   0  0  0  0  0  0  0  0  0  0  0  0
   -2.5080   13.6930   21.0530 H   0  0  0  0  0  0  0  0  0  0  0  0
   -2.2370   12.4490   19.8360 H   0  0  0  0  0  0  0  0  0  0  0  0
   -3.2610   12.0940   21.2290 H   0  0  0  0  0  0  0  0  0  0  0  0
    5.5550    5.2230   15.8730 C   0  0  0  0  0  0  0  0  0  0  0  0
    6.9140    5.2090   15.9850 F   0  0  0  0  0  0  0  0  0  0  0  0
    5.2420    4.1560   15.0860 F   0  0  0  0  0  0  0  0  0  0  0  0
    5.2550    6.3330   15.1430 F   0  0  0  0  0  0  0  0  0  0  0  0
    4.4590    2.9040   20.2670 C   0  0  2  0  0  0  0  0  0  0  0  0
    5.2160    3.1480   21.0240 H   0  0  0  0  0  0  0  0  0  0  0  0
    4.9630    1.6600   19.5270 C   0  0  0  0  0  0  0  0  0  0  0  0
    4.1240    1.0470   19.1800 H   0  0  0  0  0  0  0  0  0  0  0  0
    5.5920    1.0330   20.1640 H   0  0  0  0  0  0  0  0  0  0  0  0
    5.5530    1.9370   18.6470 H   0  0  0  0  0  0  0  0  0  0  0  0
    3.1160    2.6590   20.9870 C   0  0  0  0  0  0  0  0  0  0  0  0
    2.9000    3.4750   21.6880 H   0  0  0  0  0  0  0  0  0  0  0  0
    3.1770    1.7490   21.5990 H   0  0  0  0  0  0  0  0  0  0  0  0
    1.9780    2.5280   20.0320 C   0  0  0  0  0  0  0  0  0  0  0  0
    1.8050    1.5650   19.1510 N   0  0  0  0  0  0  0  0  0  0  0  0
    0.6320    1.8060   18.4750 N   0  0  0  0  0  0  0  0  0  0  0  0
    0.1200    2.9130   18.9520 C   0  0  0  0  0  0  0  0  0  0  0  0
    0.9280    3.4020   19.9300 N   0  0  0  0  0  0  0  0  0  0  0  0
   -0.8020    3.3770   18.6290 H   0  0  0  0  0  0  0  0  0  0  0  0
    0.6990    4.5930   20.7000 C   0  0  0  0  0  0  0  0  0  0  0  0
    1.1460    5.4370   20.1690 H   0  0  0  0  0  0  0  0  0  0  0  0
   -0.3750    4.7560   20.8170 H   0  0  0  0  0  0  0  0  0  0  0  0
    1.1570    4.4760   21.6840 H   0  0  0  0  0  0  0  0  0  0  0  0
  1  2  1  0  0  0  0
  1 40  1  0  0  0  0
  2  7  1  0  0  0  0
  3 10  1  0  0  0  0
  3  2  2  0  0  0  0
  4  3  1  0  0  0  0
  5  4  2  0  0  0  0
  5  6  1  0  0  0  0
  6  1  2  0  0  0  0
  8  4  1  0  0  0  0
  9  6  1  0  0  0  0
 10 13  1  0  0  0  0
 11 10  1  0  0  0  0
 11 14  1  0  0  0  0
 12 11  2  0  0  0  0
 14 15  1  0  0  0  0
 15 20  1  0  0  0  0
 15 16  2  0  0  0  0
 16 21  1  0  0  0  0
 17 16  1  0  0  0  0
 17 23  1  0  0  0  0
 18 17  2  0  0  0  0
 19 14  2  0  0  0  0
 19 18  1  0  0  0  0
 22 18  1  0  0  0  0
 23 28  1  0  0  0  0
 23 24  1  0  0  0  0
 24 26  1  0  0  0  0
 24 25  1  0  0  0  0
 27 24  1  0  0  0  0
 28 29  1  0  0  0  0
 28 31  1  0  0  0  0
 30 28  1  0  0  0  0
 32 33  1  0  0  0  0
 32 35  1  0  0  0  0
 32 23  1  0  0  0  0
 34 32  1  0  0  0  0
 36 37  1  0  0  0  0
 36  5  1  0  0  0  0
 38 36  1  0  0  0  0
 39 36  1  0  0  0  0
 40 46  1  0  0  0  0
 40 41  1  1  0  0  0
 42 44  1  0  0  0  0
 42 40  1  0  0  0  0
 43 42  1  0  0  0  0
 45 42  1  0  0  0  0
 46 48  1  0  0  0  0
 46 47  1  0  0  0  0
 49 46  1  0  0  0  0
 50 49  2  0  0  0  0
 51 52  2  0  0  0  0
 51 50  1  0  0  0  0
 52 53  1  0  0  0  0
 53 49  1  0  0  0  0
 53 55  1  0  0  0  0
 54 52  1  0  0  0  0
 55 57  1  0  0  0  0
 55 58  1  0  0  0  0
 56 55  1  0  0  0  0
M  END
>  <MODEL>
30

>  <REMARK>
 VINA RESULT:    -6.625      2.767      4.156
 INTER + INTRA:          -9.806
 INTER:                  -9.840
 INTRA:                   0.034
 UNBOUND:                 0.498
  Name = 
  12 active torsions:
  status: ('A' for Active; 'I' for Inactive)
    1  A    between atoms: C_1  and  C_2
    2  A    between atoms: C_2  and  C_3
    3  A    between atoms: C_2  and  C_10
    4  A    between atoms: C_3  and  C_4
    5  A    between atoms: N_8  and  C_9
    6  A    between atoms: C_12  and  N_13
    7  A    between atoms: C_14  and  C_16
    8  A    between atoms: C_19  and  C_20
    9  A    between atoms: C_20  and  C_21
   10  A    between atoms: C_20  and  C_22
   11  A    between atoms: C_20  and  C_23
   12  A    between atoms: C_27  and  C_28
                            x       y       z     vdW  Elec       q    Type
                         _______ _______ _______ _____ _____    ______ ____

>  <TORSDO>
F 12

$$$$
=
 OpenBabel07192307433D

 58 60  0  0  1  0  0  0  0  0999 V2000
    3.6980    4.9180   17.5570 C   0  0  0  0  0  0  0  0  0  0  0  0
    3.0370    6.1280   17.8240 C   0  0  0  0  0  0  0  0  0  0  0  0
    3.7210    7.3510   17.8100 C   0  0  0  0  0  0  0  0  0  0  0  0
    5.0860    7.3620   17.5260 C   0  0  0  0  0  0  0  0  0  0  0  0
    5.7720    6.1670   17.2500 C   0  0  0  0  0  0  0  0  0  0  0  0
    5.0700    4.9520   17.2740 C   0  0  0  0  0  0  0  0  0  0  0  0
    1.9720    6.1140   18.0490 H   0  0  0  0  0  0  0  0  0  0  0  0
    5.6470    8.2930   17.5100 H   0  0  0  0  0  0  0  0  0  0  0  0
    5.6080    4.0260   17.0670 H   0  0  0  0  0  0  0  0  0  0  0  0
    2.9700    8.5050   18.0830 N   0  0  0  0  0  0  0  0  0  0  0  0
    1.6220    8.7260   17.8730 C   0  0  0  0  0  0  0  0  0  0  0  0
    0.8110    7.9480   17.3850 O   0  0  0  0  0  0  0  0  0  0  0  0
    3.4520    9.3050   18.4860 H   0  0  0  0  0  0  0  0  0  0  0  0
    1.1830   10.0870   18.3280 C   0  0  0  0  0  0  0  0  0  0  0  0
   -0.1260   10.3040   18.7240 C   0  0  0  0  0  0  0  0  0  0  0  0
   -0.4820   11.5820   19.1550 C   0  0  0  0  0  0  0  0  0  0  0  0
    0.4630   12.6150   19.1840 C   0  0  0  0  0  0  0  0  0  0  0  0
    1.7530   12.2780   18.7560 C   0  0  0  0  0  0  0  0  0  0  0  0
    2.1420   11.0540   18.3300 N   0  0  0  0  0  0  0  0  0  0  0  0
   -0.8560    9.5010   18.7020 H   0  0  0  0  0  0  0  0  0  0  0  0
   -1.5120   11.7390   19.4680 H   0  0  0  0  0  0  0  0  0  0  0  0
    2.5510   13.0190   18.7460 H   0  0  0  0  0  0  0  0  0  0  0  0
    0.1440   14.0370   19.6690 C   0  0  0  0  0  0  0  0  0  0  0  0
   -1.1790   14.0180   20.4640 C   0  0  0  0  0  0  0  0  0  0  0  0
   -1.7260   13.0810   20.3020 H   0  0  0  0  0  0  0  0  0  0  0  0
   -1.8480   14.8350   20.1720 H   0  0  0  0  0  0  0  0  0  0  0  0
   -0.9950   14.1130   21.5420 H   0  0  0  0  0  0  0  0  0  0  0  0
    1.2760   14.5530   20.5830 C   0  0  0  0  0  0  0  0  0  0  0  0
    1.1780   15.6300   20.7650 H   0  0  0  0  0  0  0  0  0  0  0  0
    2.2690   14.3800   20.1540 H   0  0  0  0  0  0  0  0  0  0  0  0
    1.2570   14.0470   21.5570 H   0  0  0  0  0  0  0  0  0  0  0  0
   -0.0200   15.0610   18.5240 C   0  0  0  0  0  0  0  0  0  0  0  0
    0.5040   14.7420   17.6160 H   0  0  0  0  0  0  0  0  0  0  0  0
   -1.0760   15.1830   18.2570 H   0  0  0  0  0  0  0  0  0  0  0  0
    0.3600   16.0490   18.8100 H   0  0  0  0  0  0  0  0  0  0  0  0
    7.2530    6.2000   16.9630 C   0  0  0  0  0  0  0  0  0  0  0  0
    7.5730    5.6890   15.7400 F   0  0  0  0  0  0  0  0  0  0  0  0
    7.7720    7.4600   16.9800 F   0  0  0  0  0  0  0  0  0  0  0  0
    7.9760    5.4810   17.8650 F   0  0  0  0  0  0  0  0  0  0  0  0
    2.9150    3.6120   17.5670 C   0  0  2  0  0  0  0  0  0  0  0  0
    3.5080    2.8660   18.1130 H   0  0  0  0  0  0  0  0  0  0  0  0
    2.7320    3.0700   16.1440 C   0  0  0  0  0  0  0  0  0  0  0  0
    1.9280    3.6030   15.6250 H   0  0  0  0  0  0  0  0  0  0  0  0
    2.4820    2.0050   16.1410 H   0  0  0  0  0  0  0  0  0  0  0  0
    3.6450    3.1990   15.5530 H   0  0  0  0  0  0  0  0  0  0  0  0
    1.5720    3.7980   18.3040 C   0  0  0  0  0  0  0  0  0  0  0  0
    0.7770    3.2280   17.8060 H   0  0  0  0  0  0  0  0  0  0  0  0
    1.2590    4.8500   18.2570 H   0  0  0  0  0  0  0  0  0  0  0  0
    1.6470    3.3750   19.7320 C   0  0  0  0  0  0  0  0  0  0  0  0
    1.6770    2.1370   20.1790 N   0  0  0  0  0  0  0  0  0  0  0  0
    1.7570    2.1770   21.5510 N   0  0  0  0  0  0  0  0  0  0  0  0
    1.7670    3.4360   21.9110 C   0  0  0  0  0  0  0  0  0  0  0  0
    1.7000    4.2250   20.8050 N   0  0  0  0  0  0  0  0  0  0  0  0
    1.8210    3.8070   22.9250 H   0  0  0  0  0  0  0  0  0  0  0  0
    1.7000    5.6620   20.7890 C   0  0  0  0  0  0  0  0  0  0  0  0
    0.7640    6.0100   21.2320 H   0  0  0  0  0  0  0  0  0  0  0  0
    2.5460    6.0370   21.3690 H   0  0  0  0  0  0  0  0  0  0  0  0
    1.7850    6.0070   19.7570 H   0  0  0  0  0  0  0  0  0  0  0  0
  1 40  1  0  0  0  0
  1  2  1  0  0  0  0
  2  7  1  0  0  0  0
  3  2  2  0  0  0  0
  3 10  1  0  0  0  0
  4  3  1  0  0  0  0
  5  6  1  0  0  0  0
  5  4  2  0  0  0  0
  6  1  2  0  0  0  0
  8  4  1  0  0  0  0
  9  6  1  0  0  0  0
 10 13  1  0  0  0  0
 11 10  1  0  0  0  0
 11 14  1  0  0  0  0
 12 11  2  0  0  0  0
 14 19  2  0  0  0  0
 14 15  1  0  0  0  0
 15 16  2  0  0  0  0
 16 17  1  0  0  0  0
 16 21  1  0  0  0  0
 17 23  1  0  0  0  0
 18 17  2  0  0  0  0
 19 18  1  0  0  0  0
 20 15  1  0  0  0  0
 22 18  1  0  0  0  0
 23 24  1  0  0  0  0
 23 28  1  0  0  0  0
 24 27  1  0  0  0  0
 25 24  1  0  0  0  0
 26 24  1  0  0  0  0
 28 29  1  0  0  0  0
 28 31  1  0  0  0  0
 30 28  1  0  0  0  0
 32 35  1  0  0  0  0
 32 23  1  0  0  0  0
 33 32  1  0  0  0  0
 34 32  1  0  0  0  0
 36 38  1  0  0  0  0
 36  5  1  0  0  0  0
 36 39  1  0  0  0  0
 37 36  1  0  0  0  0
 40 41  1  1  0  0  0
 40 46  1  0  0  0  0
 42 40  1  0  0  0  0
 43 42  1  0  0  0  0
 44 42  1  0  0  0  0
 45 42  1  0  0  0  0
 46 49  1  0  0  0  0
 47 46  1  0  0  0  0
 48 46  1  0  0  0  0
 49 50  2  0  0  0  0
 49 53  1  0  0  0  0
 50 51  1  0  0  0  0
 51 52  2  0  0  0  0
 52 54  1  0  0  0  0
 53 52  1  0  0  0  0
 55 53  1  0  0  0  0
 55 56  1  0  0  0  0
 55 57  1  0  0  0  0
 58 55  1  0  0  0  0
M  END
>  <MODEL>
31

>  <REMARK>
 VINA RESULT:    -6.569      3.396      4.957
 INTER + INTRA:          -9.719
 INTER:                  -9.007
 INTRA:                  -0.712
 UNBOUND:                 0.498
  Name = 
  12 active torsions:
  status: ('A' for Active; 'I' for Inactive)
    1  A    between atoms: C_1  and  C_2
    2  A    between atoms: C_2  and  C_3
    3  A    between atoms: C_2  and  C_10
    4  A    between atoms: C_3  and  C_4
    5  A    between atoms: N_8  and  C_9
    6  A    between atoms: C_12  and  N_13
    7  A    between atoms: C_14  and  C_16
    8  A    between atoms: C_19  and  C_20
    9  A    between atoms: C_20  and  C_21
   10  A    between atoms: C_20  and  C_22
   11  A    between atoms: C_20  and  C_23
   12  A    between atoms: C_27  and  C_28
                            x       y       z     vdW  Elec       q    Type
                         _______ _______ _______ _____ _____    ______ ____

>  <TORSDO>
F 12

$$$$
=
 OpenBabel07192307433D

 58 60  0  0  1  0  0  0  0  0999 V2000
    1.8320    5.1530   20.4950 C   0  0  0  0  0  0  0  0  0  0  0  0
    1.1720    6.3160   20.9240 C   0  0  0  0  0  0  0  0  0  0  0  0
    1.4530    7.5650   20.3580 C   0  0  0  0  0  0  0  0  0  0  0  0
    2.4090    7.6520   19.3460 C   0  0  0  0  0  0  0  0  0  0  0  0
    3.0810    6.5050   18.8920 C   0  0  0  0  0  0  0  0  0  0  0  0
    2.7900    5.2630   19.4770 C   0  0  0  0  0  0  0  0  0  0  0  0
    0.4290    6.2430   21.7170 H   0  0  0  0  0  0  0  0  0  0  0  0
    2.6520    8.6070   18.8860 H   0  0  0  0  0  0  0  0  0  0  0  0
    3.3190    4.3760   19.1270 H   0  0  0  0  0  0  0  0  0  0  0  0
    0.7350    8.6660   20.8510 N   0  0  0  0  0  0  0  0  0  0  0  0
    0.5940    9.9230   20.2930 C   0  0  0  0  0  0  0  0  0  0  0  0
    1.0910   10.3300   19.2500 O   0  0  0  0  0  0  0  0  0  0  0  0
    0.2440    8.5600   21.7360 H   0  0  0  0  0  0  0  0  0  0  0  0
   -0.2850   10.8220   21.1120 C   0  0  0  0  0  0  0  0  0  0  0  0
   -0.5780   10.5060   22.4270 C   0  0  0  0  0  0  0  0  0  0  0  0
   -1.3850   11.3820   23.1530 C   0  0  0  0  0  0  0  0  0  0  0  0
   -1.8840   12.5500   22.5610 C   0  0  0  0  0  0  0  0  0  0  0  0
   -1.5240   12.7620   21.2250 C   0  0  0  0  0  0  0  0  0  0  0  0
   -0.7450   11.9400   20.4840 N   0  0  0  0  0  0  0  0  0  0  0  0
   -0.1890    9.6010   22.8840 H   0  0  0  0  0  0  0  0  0  0  0  0
   -1.6050   11.1250   24.1860 H   0  0  0  0  0  0  0  0  0  0  0  0
   -1.8660   13.6440   20.6860 H   0  0  0  0  0  0  0  0  0  0  0  0
   -2.7570   13.5680   23.3090 C   0  0  0  0  0  0  0  0  0  0  0  0
   -3.5080   14.4440   22.2830 C   0  0  0  0  0  0  0  0  0  0  0  0
   -3.4820   13.9940   21.2830 H   0  0  0  0  0  0  0  0  0  0  0  0
   -3.0700   15.4450   22.1970 H   0  0  0  0  0  0  0  0  0  0  0  0
   -4.5610   14.5690   22.5640 H   0  0  0  0  0  0  0  0  0  0  0  0
   -3.7860   12.8360   24.1970 C   0  0  0  0  0  0  0  0  0  0  0  0
   -3.2910   12.2890   25.0080 H   0  0  0  0  0  0  0  0  0  0  0  0
   -4.3860   12.1150   23.6310 H   0  0  0  0  0  0  0  0  0  0  0  0
   -4.4880   13.5450   24.6520 H   0  0  0  0  0  0  0  0  0  0  0  0
   -1.9550   14.5170   24.2280 C   0  0  0  0  0  0  0  0  0  0  0  0
   -1.7440   14.0570   25.2000 H   0  0  0  0  0  0  0  0  0  0  0  0
   -0.9890   14.7730   23.7780 H   0  0  0  0  0  0  0  0  0  0  0  0
   -2.4920   15.4560   24.4020 H   0  0  0  0  0  0  0  0  0  0  0  0
    4.1240    6.6250   17.8090 C   0  0  0  0  0  0  0  0  0  0  0  0
    4.0360    7.7900   17.1060 F   0  0  0  0  0  0  0  0  0  0  0  0
    5.3990    6.5840   18.2880 F   0  0  0  0  0  0  0  0  0  0  0  0
    4.0340    5.6280   16.8850 F   0  0  0  0  0  0  0  0  0  0  0  0
    1.4870    3.8110   21.1270 C   0  0  2  0  0  0  0  0  0  0  0  0
    0.7300    3.9870   21.9030 H   0  0  0  0  0  0  0  0  0  0  0  0
    2.7060    3.2060   21.8330 C   0  0  0  0  0  0  0  0  0  0  0  0
    3.6360    3.5980   21.4070 H   0  0  0  0  0  0  0  0  0  0  0  0
    2.7310    2.1170   21.7440 H   0  0  0  0  0  0  0  0  0  0  0  0
    2.7060    3.4520   22.9010 H   0  0  0  0  0  0  0  0  0  0  0  0
    0.8860    2.8600   20.0700 C   0  0  0  0  0  0  0  0  0  0  0  0
    0.0420    3.3380   19.5580 H   0  0  0  0  0  0  0  0  0  0  0  0
    0.4700    1.9680   20.5590 H   0  0  0  0  0  0  0  0  0  0  0  0
    1.8920    2.4350   19.0540 C   0  0  0  0  0  0  0  0  0  0  0  0
    2.8390    1.5370   19.2220 N   0  0  0  0  0  0  0  0  0  0  0  0
    3.5440    1.4310   18.0460 N   0  0  0  0  0  0  0  0  0  0  0  0
    3.0170    2.2710   17.1910 C   0  0  0  0  0  0  0  0  0  0  0  0
    1.9780    2.9230   17.7770 N   0  0  0  0  0  0  0  0  0  0  0  0
    3.3450    2.4310   16.1730 H   0  0  0  0  0  0  0  0  0  0  0  0
    1.1420    3.9140   17.1570 C   0  0  0  0  0  0  0  0  0  0  0  0
    1.3120    4.8700   17.6580 H   0  0  0  0  0  0  0  0  0  0  0  0
    1.3970    4.0010   16.0980 H   0  0  0  0  0  0  0  0  0  0  0  0
    0.0980    3.6120   17.2550 H   0  0  0  0  0  0  0  0  0  0  0  0
  1  2  1  0  0  0  0
  1 40  1  0  0  0  0
  2  7  1  0  0  0  0
  3 10  1  0  0  0  0
  3  2  2  0  0  0  0
  4  3  1  0  0  0  0
  5  4  2  0  0  0  0
  5  6  1  0  0  0  0
  6  1  2  0  0  0  0
  8  4  1  0  0  0  0
  9  6  1  0  0  0  0
 10 13  1  0  0  0  0
 11 10  1  0  0  0  0
 11 14  1  0  0  0  0
 12 11  2  0  0  0  0
 14 15  1  0  0  0  0
 15 20  1  0  0  0  0
 15 16  2  0  0  0  0
 16 21  1  0  0  0  0
 17 16  1  0  0  0  0
 17 23  1  0  0  0  0
 18 17  2  0  0  0  0
 19 14  2  0  0  0  0
 19 18  1  0  0  0  0
 22 18  1  0  0  0  0
 23 28  1  0  0  0  0
 23 32  1  0  0  0  0
 24 27  1  0  0  0  0
 24 23  1  0  0  0  0
 25 24  1  0  0  0  0
 26 24  1  0  0  0  0
 28 31  1  0  0  0  0
 28 29  1  0  0  0  0
 30 28  1  0  0  0  0
 32 35  1  0  0  0  0
 32 33  1  0  0  0  0
 34 32  1  0  0  0  0
 36 38  1  0  0  0  0
 36  5  1  0  0  0  0
 37 36  1  0  0  0  0
 39 36  1  0  0  0  0
 40 42  1  0  0  0  0
 40 41  1  1  0  0  0
 42 45  1  0  0  0  0
 43 42  1  0  0  0  0
 44 42  1  0  0  0  0
 46 48  1  0  0  0  0
 46 40  1  0  0  0  0
 47 46  1  0  0  0  0
 49 50  2  0  0  0  0
 49 46  1  0  0  0  0
 51 50  1  0  0  0  0
 52 53  1  0  0  0  0
 52 51  2  0  0  0  0
 53 49  1  0  0  0  0
 54 52  1  0  0  0  0
 55 58  1  0  0  0  0
 55 56  1  0  0  0  0
 55 53  1  0  0  0  0
 57 55  1  0  0  0  0
M  END
>  <MODEL>
32

>  <REMARK>
 VINA RESULT:    -6.545      2.957      4.364
 INTER + INTRA:          -9.682
 INTER:                 -10.180
 INTRA:                   0.498
 UNBOUND:                 0.498
  Name = 
  12 active torsions:
  status: ('A' for Active; 'I' for Inactive)
    1  A    between atoms: C_1  and  C_2
    2  A    between atoms: C_2  and  C_3
    3  A    between atoms: C_2  and  C_10
    4  A    between atoms: C_3  and  C_4
    5  A    between atoms: N_8  and  C_9
    6  A    between atoms: C_12  and  N_13
    7  A    between atoms: C_14  and  C_16
    8  A    between atoms: C_19  and  C_20
    9  A    between atoms: C_20  and  C_21
   10  A    between atoms: C_20  and  C_22
   11  A    between atoms: C_20  and  C_23
   12  A    between atoms: C_27  and  C_28
                            x       y       z     vdW  Elec       q    Type
                         _______ _______ _______ _____ _____    ______ ____

>  <TORSDO>
F 12

$$$$
=
 OpenBabel07192307433D

 58 60  0  0  1  0  0  0  0  0999 V2000
   -0.6490   12.3800   19.4490 C   0  0  0  0  0  0  0  0  0  0  0  0
   -0.1910   11.0520   19.4550 C   0  0  0  0  0  0  0  0  0  0  0  0
    1.1500   10.7410   19.1980 C   0  0  0  0  0  0  0  0  0  0  0  0
    2.0480   11.7750   18.9310 C   0  0  0  0  0  0  0  0  0  0  0  0
    1.6190   13.1140   18.9240 C   0  0  0  0  0  0  0  0  0  0  0  0
    0.2700   13.4040   19.1780 C   0  0  0  0  0  0  0  0  0  0  0  0
   -0.8950   10.2480   19.6600 H   0  0  0  0  0  0  0  0  0  0  0  0
    3.0950   11.5690   18.7250 H   0  0  0  0  0  0  0  0  0  0  0  0
   -0.0600   14.4430   19.1650 H   0  0  0  0  0  0  0  0  0  0  0  0
    1.5100    9.3850   19.2330 N   0  0  0  0  0  0  0  0  0  0  0  0
    1.5660    8.5360   20.3220 C   0  0  0  0  0  0  0  0  0  0  0  0
    1.3250    8.8140   21.4910 O   0  0  0  0  0  0  0  0  0  0  0  0
    1.7720    8.9370   18.3580 H   0  0  0  0  0  0  0  0  0  0  0  0
    1.9670    7.1400   19.9460 C   0  0  0  0  0  0  0  0  0  0  0  0
    1.5950    6.0680   20.7390 C   0  0  0  0  0  0  0  0  0  0  0  0
    1.9760    4.7870   20.3380 C   0  0  0  0  0  0  0  0  0  0  0  0
    2.7160    4.5960   19.1640 C   0  0  0  0  0  0  0  0  0  0  0  0
    3.0370    5.7550   18.4460 C   0  0  0  0  0  0  0  0  0  0  0  0
    2.6890    7.0150   18.7980 N   0  0  0  0  0  0  0  0  0  0  0  0
    1.0210    6.2180   21.6480 H   0  0  0  0  0  0  0  0  0  0  0  0
    1.6750    3.9520   20.9660 H   0  0  0  0  0  0  0  0  0  0  0  0
    3.6080    5.7010   17.5210 H   0  0  0  0  0  0  0  0  0  0  0  0
    3.1470    3.2140   18.6530 C   0  0  0  0  0  0  0  0  0  0  0  0
    4.1170    2.5750   19.6710 C   0  0  0  0  0  0  0  0  0  0  0  0
    4.9420    3.2560   19.9130 H   0  0  0  0  0  0  0  0  0  0  0  0
    4.5640    1.6500   19.2910 H   0  0  0  0  0  0  0  0  0  0  0  0
    3.6020    2.3310   20.6090 H   0  0  0  0  0  0  0  0  0  0  0  0
    1.9140    2.3000   18.4880 C   0  0  0  0  0  0  0  0  0  0  0  0
    1.4160    2.1290   19.4500 H   0  0  0  0  0  0  0  0  0  0  0  0
    2.1750    1.3200   18.0730 H   0  0  0  0  0  0  0  0  0  0  0  0
    1.1800    2.7480   17.8060 H   0  0  0  0  0  0  0  0  0  0  0  0
    3.8710    3.2540   17.2880 C   0  0  0  0  0  0  0  0  0  0  0  0
    3.2930    3.8070   16.5390 H   0  0  0  0  0  0  0  0  0  0  0  0
    4.8430    3.7540   17.3760 H   0  0  0  0  0  0  0  0  0  0  0  0
    4.0570    2.2450   16.9030 H   0  0  0  0  0  0  0  0  0  0  0  0
    2.6030   14.2150   18.6150 C   0  0  0  0  0  0  0  0  0  0  0  0
    2.0430   15.2610   17.9420 F   0  0  0  0  0  0  0  0  0  0  0  0
    3.1650   14.7580   19.7310 F   0  0  0  0  0  0  0  0  0  0  0  0
    3.6380   13.7880   17.8390 F   0  0  0  0  0  0  0  0  0  0  0  0
   -2.1120   12.6760   19.7490 C   0  0  2  0  0  0  0  0  0  0  0  0
   -2.4460   13.4630   19.0590 H   0  0  0  0  0  0  0  0  0  0  0  0
   -2.2800   13.2350   21.1670 C   0  0  0  0  0  0  0  0  0  0  0  0
   -3.3060   13.0910   21.5220 H   0  0  0  0  0  0  0  0  0  0  0  0
   -2.0580   14.3050   21.2130 H   0  0  0  0  0  0  0  0  0  0  0  0
   -1.6140   12.7270   21.8720 H   0  0  0  0  0  0  0  0  0  0  0  0
   -2.9740   11.4190   19.5040 C   0  0  0  0  0  0  0  0  0  0  0  0
   -3.7040   11.2900   20.3130 H   0  0  0  0  0  0  0  0  0  0  0  0
   -2.3430   10.5200   19.5260 H   0  0  0  0  0  0  0  0  0  0  0  0
   -3.6990   11.4750   18.2020 C   0  0  0  0  0  0  0  0  0  0  0  0
   -4.8150   12.1280   17.9580 N   0  0  0  0  0  0  0  0  0  0  0  0
   -5.1470   11.9330   16.6380 N   0  0  0  0  0  0  0  0  0  0  0  0
   -4.2320   11.1600   16.1090 C   0  0  0  0  0  0  0  0  0  0  0  0
   -3.3030   10.8470   17.0510 N   0  0  0  0  0  0  0  0  0  0  0  0
   -4.2050   10.8170   15.0840 H   0  0  0  0  0  0  0  0  0  0  0  0
   -2.1370   10.0300   16.8520 C   0  0  0  0  0  0  0  0  0  0  0  0
   -1.2830   10.6870   16.6720 H   0  0  0  0  0  0  0  0  0  0  0  0
   -1.9560    9.4230   17.7420 H   0  0  0  0  0  0  0  0  0  0  0  0
   -2.3020    9.3760   15.9940 H   0  0  0  0  0  0  0  0  0  0  0  0
  1  2  1  0  0  0  0
  1 40  1  0  0  0  0
  2  7  1  0  0  0  0
  3 10  1  0  0  0  0
  3  2  2  0  0  0  0
  4  3  1  0  0  0  0
  5  4  2  0  0  0  0
  5  6  1  0  0  0  0
  6  1  2  0  0  0  0
  8  4  1  0  0  0  0
  9  6  1  0  0  0  0
 10 11  1  0  0  0  0
 11 12  2  0  0  0  0
 13 10  1  0  0  0  0
 14 11  1  0  0  0  0
 14 15  1  0  0  0  0
 15 20  1  0  0  0  0
 16 15  2  0  0  0  0
 16 21  1  0  0  0  0
 17 16  1  0  0  0  0
 18 19  1  0  0  0  0
 18 17  2  0  0  0  0
 19 14  2  0  0  0  0
 22 18  1  0  0  0  0
 23 17  1  0  0  0  0
 23 24  1  0  0  0  0
 24 25  1  0  0  0  0
 24 27  1  0  0  0  0
 26 24  1  0  0  0  0
 28 23  1  0  0  0  0
 28 29  1  0  0  0  0
 30 28  1  0  0  0  0
 31 28  1  0  0  0  0
 32 34  1  0  0  0  0
 32 23  1  0  0  0  0
 33 32  1  0  0  0  0
 35 32  1  0  0  0  0
 36  5  1  0  0  0  0
 36 38  1  0  0  0  0
 37 36  1  0  0  0  0
 39 36  1  0  0  0  0
 40 41  1  6  0  0  0
 40 42  1  0  0  0  0
 42 44  1  0  0  0  0
 42 43  1  0  0  0  0
 42 45  1  0  0  0  0
 46 48  1  0  0  0  0
 46 40  1  0  0  0  0
 46 47  1  0  0  0  0
 49 46  1  0  0  0  0
 50 49  2  0  0  0  0
 51 50  1  0  0  0  0
 52 51  2  0  0  0  0
 52 53  1  0  0  0  0
 53 49  1  0  0  0  0
 54 52  1  0  0  0  0
 55 53  1  0  0  0  0
 55 57  1  0  0  0  0
 56 55  1  0  0  0  0
 58 55  1  0  0  0  0
M  END
>  <MODEL>
33

>  <REMARK>
 VINA RESULT:    -6.453      4.801      9.835
 INTER + INTRA:          -9.540
 INTER:                  -8.378
 INTRA:                  -1.161
 UNBOUND:                 0.498
  Name = 
  12 active torsions:
  status: ('A' for Active; 'I' for Inactive)
    1  A    between atoms: C_1  and  C_2
    2  A    between atoms: C_2  and  C_3
    3  A    between atoms: C_2  and  C_10
    4  A    between atoms: C_3  and  C_4
    5  A    between atoms: N_8  and  C_9
    6  A    between atoms: C_12  and  N_13
    7  A    between atoms: C_14  and  C_16
    8  A    between atoms: C_19  and  C_20
    9  A    between atoms: C_20  and  C_21
   10  A    between atoms: C_20  and  C_22
   11  A    between atoms: C_20  and  C_23
   12  A    between atoms: C_27  and  C_28
                            x       y       z     vdW  Elec       q    Type
                         _______ _______ _______ _____ _____    ______ ____

>  <TORSDO>
F 12

$$$$
