=
 OpenBabel07192307433D

 62 67  0  0  0  0  0  0  0  0999 V2000
    2.2480    8.2780   17.7230 O   0  0  0  0  0  0  0  0  0  0  0  0
    2.0100    8.0620   18.9060 C   0  0  0  0  0  0  0  0  0  0  0  0
    1.3640    8.9130   19.7830 N   0  0  0  0  0  0  0  0  0  0  0  0
    1.1000    8.5310   20.6840 H   0  0  0  0  0  0  0  0  0  0  0  0
    0.9170   10.2260   19.5320 C   0  0  0  0  0  0  0  0  0  0  0  0
    1.6430   11.1780   18.8140 C   0  0  0  0  0  0  0  0  0  0  0  0
    1.1290   12.4630   18.6180 C   0  0  0  0  0  0  0  0  0  0  0  0
   -0.1260   12.8020   19.1260 C   0  0  0  0  0  0  0  0  0  0  0  0
   -0.8720   11.8560   19.8320 C   0  0  0  0  0  0  0  0  0  0  0  0
   -0.3350   10.5810   20.0520 C   0  0  0  0  0  0  0  0  0  0  0  0
    2.6300   10.9570   18.4100 H   0  0  0  0  0  0  0  0  0  0  0  0
    1.7150   13.2010   18.0770 H   0  0  0  0  0  0  0  0  0  0  0  0
   -0.5090   13.8070   18.9750 H   0  0  0  0  0  0  0  0  0  0  0  0
   -0.9150    9.8640   20.6290 H   0  0  0  0  0  0  0  0  0  0  0  0
   -2.1960   12.1680   20.3540 C   0  0  0  0  0  0  0  0  0  0  0  0
   -3.2810   12.3490   19.6280 N   0  0  0  0  0  0  0  0  0  0  0  0
   -4.3120   12.6940   20.4640 N   0  0  0  0  0  0  0  0  0  0  0  0
   -3.8440   12.7400   21.6880 C   0  0  0  0  0  0  0  0  0  0  0  0
   -2.5120   12.4170   21.6690 N   0  0  0  0  0  0  0  0  0  0  0  0
   -1.6290   12.4520   22.8090 C   0  0  0  0  0  0  0  0  0  0  0  0
   -1.5240   13.8380   23.4520 C   0  0  0  0  0  0  0  0  0  0  0  0
   -2.7360   14.2240   24.3010 C   0  0  0  0  0  0  0  0  0  0  0  0
   -4.0400   14.4200   23.5250 C   0  0  0  0  0  0  0  0  0  0  0  0
   -4.5930   13.1360   22.9080 C   0  0  0  0  0  0  0  0  0  0  0  0
   -1.9890   11.7050   23.5290 H   0  0  0  0  0  0  0  0  0  0  0  0
   -0.6280   12.1390   22.4890 H   0  0  0  0  0  0  0  0  0  0  0  0
   -0.6440   13.8440   24.1130 H   0  0  0  0  0  0  0  0  0  0  0  0
   -1.3490   14.6070   22.6840 H   0  0  0  0  0  0  0  0  0  0  0  0
   -2.8840   13.4870   25.1000 H   0  0  0  0  0  0  0  0  0  0  0  0
   -2.5050   15.1700   24.8060 H   0  0  0  0  0  0  0  0  0  0  0  0
   -3.9020   15.1900   22.7560 H   0  0  0  0  0  0  0  0  0  0  0  0
   -4.7870   14.8070   24.2300 H   0  0  0  0  0  0  0  0  0  0  0  0
   -5.6400   13.3110   22.6230 H   0  0  0  0  0  0  0  0  0  0  0  0
   -4.5950   12.3140   23.6370 H   0  0  0  0  0  0  0  0  0  0  0  0
    2.3560    6.7240   19.4770 C   0  0  0  0  0  0  0  0  0  0  0  0
    1.4390    5.9790   20.2300 C   0  0  0  0  0  0  0  0  0  0  0  0
    1.7800    4.6970   20.6710 C   0  0  0  0  0  0  0  0  0  0  0  0
    3.0370    4.1650   20.3820 C   0  0  0  0  0  0  0  0  0  0  0  0
    3.9880    4.9180   19.6750 C   0  0  0  0  0  0  0  0  0  0  0  0
    3.6330    6.2020   19.2250 C   0  0  0  0  0  0  0  0  0  0  0  0
    0.4630    6.3810   20.4880 H   0  0  0  0  0  0  0  0  0  0  0  0
    1.0630    4.1060   21.2390 H   0  0  0  0  0  0  0  0  0  0  0  0
    3.2620    3.1530   20.7100 H   0  0  0  0  0  0  0  0  0  0  0  0
    4.3480    6.7990   18.6580 H   0  0  0  0  0  0  0  0  0  0  0  0
    5.3500    4.3520   19.3380 C   0  0  0  0  0  0  0  0  0  0  0  0
    6.1100    4.9280   19.8770 H   0  0  0  0  0  0  0  0  0  0  0  0
    5.4180    3.3100   19.6760 H   0  0  0  0  0  0  0  0  0  0  0  0
    5.6440    4.3770   17.9200 N   0  0  0  0  0  0  0  0  0  0  0  0
    6.7440    4.9780   17.3750 C   0  0  0  0  0  0  0  0  0  0  0  0
    7.6360    5.5900   17.9250 O   0  0  0  0  0  0  0  0  0  0  0  0
    6.6660    4.7640   15.9300 C   0  0  0  0  0  0  0  0  0  0  0  0
    7.5180    5.1670   14.9190 C   0  0  0  0  0  0  0  0  0  0  0  0
    7.1750    4.8030   13.6140 C   0  0  0  0  0  0  0  0  0  0  0  0
    6.0030    4.0630   13.3530 C   0  0  0  0  0  0  0  0  0  0  0  0
    5.1550    3.6700   14.3970 C   0  0  0  0  0  0  0  0  0  0  0  0
    5.5180    4.0370   15.6780 C   0  0  0  0  0  0  0  0  0  0  0  0
    4.8670    3.7800   16.9630 C   0  0  0  0  0  0  0  0  0  0  0  0
    3.8450    3.1350   17.0890 O   0  0  0  0  0  0  0  0  0  0  0  0
    8.4160    5.7370   15.1380 H   0  0  0  0  0  0  0  0  0  0  0  0
    7.8200    5.0960   12.7860 H   0  0  0  0  0  0  0  0  0  0  0  0
    5.7550    3.7950   12.3300 H   0  0  0  0  0  0  0  0  0  0  0  0
    4.2490    3.1030   14.2130 H   0  0  0  0  0  0  0  0  0  0  0  0
  1  2  2  0  0  0  0
  2 35  1  0  0  0  0
  2  3  1  0  0  0  0
  3  4  1  0  0  0  0
  5  3  1  0  0  0  0
  5 10  1  0  0  0  0
  6  5  2  0  0  0  0
  7  6  1  0  0  0  0
  7  8  2  0  0  0  0
  8  9  1  0  0  0  0
  9 10  2  0  0  0  0
  9 15  1  0  0  0  0
 10 14  1  0  0  0  0
 11  6  1  0  0  0  0
 12  7  1  0  0  0  0
 13  8  1  0  0  0  0
 15 19  1  0  0  0  0
 16 15  2  0  0  0  0
 16 17  1  0  0  0  0
 17 18  2  0  0  0  0
 18 24  1  0  0  0  0
 19 18  1  0  0  0  0
 19 20  1  0  0  0  0
 20 21  1  0  0  0  0
 20 25  1  0  0  0  0
 21 27  1  0  0  0  0
 21 22  1  0  0  0  0
 22 30  1  0  0  0  0
 22 29  1  0  0  0  0
 23 32  1  0  0  0  0
 23 22  1  0  0  0  0
 24 23  1  0  0  0  0
 24 34  1  0  0  0  0
 26 20  1  0  0  0  0
 28 21  1  0  0  0  0
 31 23  1  0  0  0  0
 33 24  1  0  0  0  0
 35 36  1  0  0  0  0
 36 41  1  0  0  0  0
 36 37  2  0  0  0  0
 37 42  1  0  0  0  0
 38 37  1  0  0  0  0
 38 43  1  0  0  0  0
 39 38  2  0  0  0  0
 40 35  2  0  0  0  0
 40 39  1  0  0  0  0
 44 40  1  0  0  0  0
 45 39  1  0  0  0  0
 45 47  1  0  0  0  0
 45 46  1  0  0  0  0
 48 45  1  0  0  0  0
 49 48  1  0  0  0  0
 49 50  2  0  0  0  0
 51 49  1  0  0  0  0
 52 59  1  0  0  0  0
 52 51  2  0  0  0  0
 53 52  1  0  0  0  0
 54 53  2  0  0  0  0
 54 55  1  0  0  0  0
 55 56  2  0  0  0  0
 56 51  1  0  0  0  0
 56 57  1  0  0  0  0
 57 58  2  0  0  0  0
 57 48  1  0  0  0  0
 60 53  1  0  0  0  0
 61 54  1  0  0  0  0
 62 55  1  0  0  0  0
M  END
>  <MODEL>
1

>  <REMARK>
 VINA RESULT:    -9.627      0.000      0.000
 INTER + INTRA:         -12.870
 INTER:                 -12.021
 INTRA:                  -0.848
 UNBOUND:                -0.429
  Name = 
  5 active torsions:
  status: ('A' for Active; 'I' for Inactive)
    1  A    between atoms: C_2  and  C_20
    2  A    between atoms: N_3  and  C_4
    3  A    between atoms: C_8  and  C_9
    4  A    between atoms: C_24  and  C_25
    5  A    between atoms: C_25  and  N_26
                            x       y       z     vdW  Elec       q    Type
                         _______ _______ _______ _____ _____    ______ ____

>  <TORSDO>
F 5

$$$$
=
 OpenBabel07192307433D

 62 67  0  0  0  0  0  0  0  0999 V2000
    1.9800    8.1330   19.5700 O   0  0  0  0  0  0  0  0  0  0  0  0
    1.3770    7.7950   20.5820 C   0  0  0  0  0  0  0  0  0  0  0  0
    1.3720    6.5350   21.1530 N   0  0  0  0  0  0  0  0  0  0  0  0
    0.9560    6.4490   22.0730 H   0  0  0  0  0  0  0  0  0  0  0  0
    1.9870    5.3670   20.6590 C   0  0  0  0  0  0  0  0  0  0  0  0
    1.4180    4.0930   20.7240 C   0  0  0  0  0  0  0  0  0  0  0  0
    2.1030    2.9850   20.2180 C   0  0  0  0  0  0  0  0  0  0  0  0
    3.3570    3.1440   19.6260 C   0  0  0  0  0  0  0  0  0  0  0  0
    3.9310    4.4130   19.5390 C   0  0  0  0  0  0  0  0  0  0  0  0
    3.2540    5.5140   20.0790 C   0  0  0  0  0  0  0  0  0  0  0  0
    0.4470    3.9250   21.1870 H   0  0  0  0  0  0  0  0  0  0  0  0
    1.6580    1.9960   20.2950 H   0  0  0  0  0  0  0  0  0  0  0  0
    3.8810    2.2720   19.2460 H   0  0  0  0  0  0  0  0  0  0  0  0
    3.7270    6.4920   20.0300 H   0  0  0  0  0  0  0  0  0  0  0  0
    5.2270    4.6180   18.9050 C   0  0  0  0  0  0  0  0  0  0  0  0
    6.2250    5.3140   19.4130 N   0  0  0  0  0  0  0  0  0  0  0  0
    7.2480    5.3400   18.4990 N   0  0  0  0  0  0  0  0  0  0  0  0
    6.8590    4.6780   17.4360 C   0  0  0  0  0  0  0  0  0  0  0  0
    5.5900    4.2050   17.6450 N   0  0  0  0  0  0  0  0  0  0  0  0
    4.7860    3.5120   16.6660 C   0  0  0  0  0  0  0  0  0  0  0  0
    4.5240    4.3370   15.4030 C   0  0  0  0  0  0  0  0  0  0  0  0
    5.7200    4.4190   14.4540 C   0  0  0  0  0  0  0  0  0  0  0  0
    6.9280    5.1870   14.9930 C   0  0  0  0  0  0  0  0  0  0  0  0
    7.6200    4.5060   16.1730 C   0  0  0  0  0  0  0  0  0  0  0  0
    5.2970    2.5690   16.4280 H   0  0  0  0  0  0  0  0  0  0  0  0
    3.8230    3.2530   17.1210 H   0  0  0  0  0  0  0  0  0  0  0  0
    3.6980    3.8640   14.8510 H   0  0  0  0  0  0  0  0  0  0  0  0
    4.1900    5.3510   15.6680 H   0  0  0  0  0  0  0  0  0  0  0  0
    6.0250    3.4110   14.1470 H   0  0  0  0  0  0  0  0  0  0  0  0
    5.3880    4.9230   13.5380 H   0  0  0  0  0  0  0  0  0  0  0  0
    6.6310    6.2100   15.2570 H   0  0  0  0  0  0  0  0  0  0  0  0
    7.6560    5.2710   14.1750 H   0  0  0  0  0  0  0  0  0  0  0  0
    8.6100    4.9650   16.3070 H   0  0  0  0  0  0  0  0  0  0  0  0
    7.7890    3.4390   15.9730 H   0  0  0  0  0  0  0  0  0  0  0  0
    0.6300    8.8330   21.3560 C   0  0  0  0  0  0  0  0  0  0  0  0
    0.3670    8.6920   22.7240 C   0  0  0  0  0  0  0  0  0  0  0  0
   -0.2610    9.7270   23.4230 C   0  0  0  0  0  0  0  0  0  0  0  0
   -0.6450   10.8910   22.7580 C   0  0  0  0  0  0  0  0  0  0  0  0
   -0.4390   11.0290   21.3760 C   0  0  0  0  0  0  0  0  0  0  0  0
    0.2030    9.9870   20.6830 C   0  0  0  0  0  0  0  0  0  0  0  0
    0.6350    7.7840   23.2600 H   0  0  0  0  0  0  0  0  0  0  0  0
   -0.4480    9.6310   24.4910 H   0  0  0  0  0  0  0  0  0  0  0  0
   -1.1030   11.6930   23.3330 H   0  0  0  0  0  0  0  0  0  0  0  0
    0.3910   10.0770   19.6130 H   0  0  0  0  0  0  0  0  0  0  0  0
   -0.8340   12.2900   20.6400 C   0  0  0  0  0  0  0  0  0  0  0  0
   -1.2980   12.9790   21.3550 H   0  0  0  0  0  0  0  0  0  0  0  0
    0.0570   12.7830   20.2330 H   0  0  0  0  0  0  0  0  0  0  0  0
   -1.7480   12.0490   19.5420 N   0  0  0  0  0  0  0  0  0  0  0  0
   -1.3630   11.6110   18.3060 C   0  0  0  0  0  0  0  0  0  0  0  0
   -0.2480   11.3640   17.8920 O   0  0  0  0  0  0  0  0  0  0  0  0
   -2.5800   11.4890   17.5060 C   0  0  0  0  0  0  0  0  0  0  0  0
   -2.7520   11.0920   16.1940 C   0  0  0  0  0  0  0  0  0  0  0  0
   -4.0600   11.0720   15.6990 C   0  0  0  0  0  0  0  0  0  0  0  0
   -5.1470   11.4510   16.5140 C   0  0  0  0  0  0  0  0  0  0  0  0
   -4.9440   11.8520   17.8410 C   0  0  0  0  0  0  0  0  0  0  0  0
   -3.6440   11.8580   18.3080 C   0  0  0  0  0  0  0  0  0  0  0  0
   -3.1050   12.2090   19.6230 C   0  0  0  0  0  0  0  0  0  0  0  0
   -3.7890   12.5480   20.5680 O   0  0  0  0  0  0  0  0  0  0  0  0
   -1.9040   10.8050   15.5800 H   0  0  0  0  0  0  0  0  0  0  0  0
   -4.2420   10.7620   14.6710 H   0  0  0  0  0  0  0  0  0  0  0  0
   -6.1540   11.4320   16.1070 H   0  0  0  0  0  0  0  0  0  0  0  0
   -5.7690   12.1480   18.4800 H   0  0  0  0  0  0  0  0  0  0  0  0
  1  2  2  0  0  0  0
  2  3  1  0  0  0  0
  2 35  1  0  0  0  0
  3  4  1  0  0  0  0
  5  6  1  0  0  0  0
  5  3  1  0  0  0  0
  6 11  1  0  0  0  0
  7 12  1  0  0  0  0
  7  6  2  0  0  0  0
  8  7  1  0  0  0  0
  9  8  2  0  0  0  0
  9 10  1  0  0  0  0
 10  5  2  0  0  0  0
 13  8  1  0  0  0  0
 14 10  1  0  0  0  0
 15 16  2  0  0  0  0
 15  9  1  0  0  0  0
 17 16  1  0  0  0  0
 18 19  1  0  0  0  0
 18 17  2  0  0  0  0
 19 15  1  0  0  0  0
 20 26  1  0  0  0  0
 20 19  1  0  0  0  0
 21 28  1  0  0  0  0
 21 20  1  0  0  0  0
 22 23  1  0  0  0  0
 22 21  1  0  0  0  0
 23 31  1  0  0  0  0
 23 24  1  0  0  0  0
 24 33  1  0  0  0  0
 24 18  1  0  0  0  0
 25 20  1  0  0  0  0
 27 21  1  0  0  0  0
 29 22  1  0  0  0  0
 30 22  1  0  0  0  0
 32 23  1  0  0  0  0
 34 24  1  0  0  0  0
 35 36  1  0  0  0  0
 36 41  1  0  0  0  0
 36 37  2  0  0  0  0
 37 42  1  0  0  0  0
 38 43  1  0  0  0  0
 38 37  1  0  0  0  0
 39 38  2  0  0  0  0
 40 35  2  0  0  0  0
 40 39  1  0  0  0  0
 44 40  1  0  0  0  0
 45 46  1  0  0  0  0
 45 39  1  0  0  0  0
 47 45  1  0  0  0  0
 48 57  1  0  0  0  0
 48 45  1  0  0  0  0
 49 48  1  0  0  0  0
 50 49  2  0  0  0  0
 51 49  1  0  0  0  0
 51 56  1  0  0  0  0
 52 51  2  0  0  0  0
 53 52  1  0  0  0  0
 53 54  2  0  0  0  0
 54 55  1  0  0  0  0
 55 56  2  0  0  0  0
 55 62  1  0  0  0  0
 56 57  1  0  0  0  0
 57 58  2  0  0  0  0
 59 52  1  0  0  0  0
 60 53  1  0  0  0  0
 61 54  1  0  0  0  0
M  END
>  <MODEL>
2

>  <REMARK>
 VINA RESULT:    -9.607      2.583     10.747
 INTER + INTRA:         -12.844
 INTER:                 -12.537
 INTRA:                  -0.307
 UNBOUND:                -0.429
  Name = 
  5 active torsions:
  status: ('A' for Active; 'I' for Inactive)
    1  A    between atoms: C_2  and  C_20
    2  A    between atoms: N_3  and  C_4
    3  A    between atoms: C_8  and  C_9
    4  A    between atoms: C_24  and  C_25
    5  A    between atoms: C_25  and  N_26
                            x       y       z     vdW  Elec       q    Type
                         _______ _______ _______ _____ _____    ______ ____

>  <TORSDO>
F 5

$$$$
=
 OpenBabel07192307433D

 62 67  0  0  0  0  0  0  0  0999 V2000
    1.9880    8.1230   19.6060 O   0  0  0  0  0  0  0  0  0  0  0  0
    1.3650    7.7780   20.6040 C   0  0  0  0  0  0  0  0  0  0  0  0
    1.3290    6.5080   21.1510 N   0  0  0  0  0  0  0  0  0  0  0  0
    0.8990    6.4130   22.0640 H   0  0  0  0  0  0  0  0  0  0  0  0
    1.9270    5.3380   20.6410 C   0  0  0  0  0  0  0  0  0  0  0  0
    1.3330    4.0740   20.6770 C   0  0  0  0  0  0  0  0  0  0  0  0
    2.0010    2.9620   20.1570 C   0  0  0  0  0  0  0  0  0  0  0  0
    3.2640    3.1070   19.5810 C   0  0  0  0  0  0  0  0  0  0  0  0
    3.8640    4.3670   19.5240 C   0  0  0  0  0  0  0  0  0  0  0  0
    3.2020    5.4700   20.0770 C   0  0  0  0  0  0  0  0  0  0  0  0
    0.3530    3.9160   21.1250 H   0  0  0  0  0  0  0  0  0  0  0  0
    1.5360    1.9800   20.2110 H   0  0  0  0  0  0  0  0  0  0  0  0
    3.7760    2.2330   19.1900 H   0  0  0  0  0  0  0  0  0  0  0  0
    3.6950    6.4400   20.0520 H   0  0  0  0  0  0  0  0  0  0  0  0
    5.1700    4.5580   18.9080 C   0  0  0  0  0  0  0  0  0  0  0  0
    6.1750    5.2270   19.4390 N   0  0  0  0  0  0  0  0  0  0  0  0
    7.2090    5.2490   18.5360 N   0  0  0  0  0  0  0  0  0  0  0  0
    6.8190    4.6130   17.4580 C   0  0  0  0  0  0  0  0  0  0  0  0
    5.5390    4.1600   17.6440 N   0  0  0  0  0  0  0  0  0  0  0  0
    4.7340    3.4990   16.6460 C   0  0  0  0  0  0  0  0  0  0  0  0
    4.5010    4.3500   15.3940 C   0  0  0  0  0  0  0  0  0  0  0  0
    5.7090    4.4260   14.4590 C   0  0  0  0  0  0  0  0  0  0  0  0
    6.9250    5.1620   15.0240 C   0  0  0  0  0  0  0  0  0  0  0  0
    7.5910    4.4480   16.2000 C   0  0  0  0  0  0  0  0  0  0  0  0
    5.2300    2.5510   16.3970 H   0  0  0  0  0  0  0  0  0  0  0  0
    3.7610    3.2510   17.0860 H   0  0  0  0  0  0  0  0  0  0  0  0
    3.6730    3.9030   14.8250 H   0  0  0  0  0  0  0  0  0  0  0  0
    4.1830    5.3660   15.6720 H   0  0  0  0  0  0  0  0  0  0  0  0
    5.9990    3.4180   14.1380 H   0  0  0  0  0  0  0  0  0  0  0  0
    5.3970    4.9520   13.5490 H   0  0  0  0  0  0  0  0  0  0  0  0
    6.6440    6.1850   15.3030 H   0  0  0  0  0  0  0  0  0  0  0  0
    7.6640    5.2460   14.2160 H   0  0  0  0  0  0  0  0  0  0  0  0
    8.5880    4.8850   16.3520 H   0  0  0  0  0  0  0  0  0  0  0  0
    7.7430    3.3810   15.9830 H   0  0  0  0  0  0  0  0  0  0  0  0
    0.6300    8.8150   21.3890 C   0  0  0  0  0  0  0  0  0  0  0  0
    0.3970    8.6800   22.7630 C   0  0  0  0  0  0  0  0  0  0  0  0
   -0.2210    9.7150   23.4710 C   0  0  0  0  0  0  0  0  0  0  0  0
   -0.6260   10.8740   22.8090 C   0  0  0  0  0  0  0  0  0  0  0  0
   -0.4510   11.0060   21.4220 C   0  0  0  0  0  0  0  0  0  0  0  0
    0.1820    9.9650   20.7200 C   0  0  0  0  0  0  0  0  0  0  0  0
    0.6820    7.7760   23.2970 H   0  0  0  0  0  0  0  0  0  0  0  0
   -0.3850    9.6230   24.5430 H   0  0  0  0  0  0  0  0  0  0  0  0
   -1.0750   11.6760   23.3900 H   0  0  0  0  0  0  0  0  0  0  0  0
    0.3470   10.0510   19.6460 H   0  0  0  0  0  0  0  0  0  0  0  0
   -0.8680   12.2620   20.6890 C   0  0  0  0  0  0  0  0  0  0  0  0
   -1.3520   12.9370   21.4040 H   0  0  0  0  0  0  0  0  0  0  0  0
    0.0150   12.7750   20.2900 H   0  0  0  0  0  0  0  0  0  0  0  0
   -1.7690   12.0060   19.5840 N   0  0  0  0  0  0  0  0  0  0  0  0
   -3.1240   12.1720   19.6440 C   0  0  0  0  0  0  0  0  0  0  0  0
   -3.8130   12.5270   20.5790 O   0  0  0  0  0  0  0  0  0  0  0  0
   -3.6490   11.8190   18.3260 C   0  0  0  0  0  0  0  0  0  0  0  0
   -4.9470   11.8090   17.8540 C   0  0  0  0  0  0  0  0  0  0  0  0
   -5.1400   11.4220   16.5240 C   0  0  0  0  0  0  0  0  0  0  0  0
   -4.0460   11.0540   15.7130 C   0  0  0  0  0  0  0  0  0  0  0  0
   -2.7390   11.0710   16.2170 C   0  0  0  0  0  0  0  0  0  0  0  0
   -2.5760   11.4610   17.5320 C   0  0  0  0  0  0  0  0  0  0  0  0
   -1.3640   11.5930   18.3430 C   0  0  0  0  0  0  0  0  0  0  0  0
   -0.2420   11.3810   17.9270 O   0  0  0  0  0  0  0  0  0  0  0  0
   -5.7780   12.0940   18.4930 H   0  0  0  0  0  0  0  0  0  0  0  0
   -6.1470   11.4030   16.1090 H   0  0  0  0  0  0  0  0  0  0  0  0
   -4.2200   10.7530   14.6830 H   0  0  0  0  0  0  0  0  0  0  0  0
   -1.8890   10.7890   15.6080 H   0  0  0  0  0  0  0  0  0  0  0  0
  1  2  2  0  0  0  0
  2  3  1  0  0  0  0
  2 35  1  0  0  0  0
  3  4  1  0  0  0  0
  5  6  1  0  0  0  0
  5  3  1  0  0  0  0
  6 11  1  0  0  0  0
  7 12  1  0  0  0  0
  7  6  2  0  0  0  0
  8  7  1  0  0  0  0
  9  8  2  0  0  0  0
  9 10  1  0  0  0  0
 10  5  2  0  0  0  0
 13  8  1  0  0  0  0
 14 10  1  0  0  0  0
 15 16  2  0  0  0  0
 15  9  1  0  0  0  0
 17 16  1  0  0  0  0
 18 19  1  0  0  0  0
 18 17  2  0  0  0  0
 19 15  1  0  0  0  0
 20 26  1  0  0  0  0
 20 19  1  0  0  0  0
 21 28  1  0  0  0  0
 21 20  1  0  0  0  0
 22 23  1  0  0  0  0
 22 21  1  0  0  0  0
 23 31  1  0  0  0  0
 23 24  1  0  0  0  0
 24 33  1  0  0  0  0
 24 18  1  0  0  0  0
 25 20  1  0  0  0  0
 27 21  1  0  0  0  0
 29 22  1  0  0  0  0
 30 22  1  0  0  0  0
 32 23  1  0  0  0  0
 34 24  1  0  0  0  0
 35 36  1  0  0  0  0
 36 41  1  0  0  0  0
 36 37  2  0  0  0  0
 37 42  1  0  0  0  0
 38 43  1  0  0  0  0
 38 37  1  0  0  0  0
 39 38  2  0  0  0  0
 40 35  2  0  0  0  0
 40 39  1  0  0  0  0
 44 40  1  0  0  0  0
 45 46  1  0  0  0  0
 45 39  1  0  0  0  0
 47 45  1  0  0  0  0
 48 49  1  0  0  0  0
 48 45  1  0  0  0  0
 49 50  2  0  0  0  0
 51 49  1  0  0  0  0
 52 51  1  0  0  0  0
 52 59  1  0  0  0  0
 53 52  2  0  0  0  0
 54 55  2  0  0  0  0
 54 53  1  0  0  0  0
 55 56  1  0  0  0  0
 56 51  2  0  0  0  0
 56 57  1  0  0  0  0
 57 48  1  0  0  0  0
 58 57  2  0  0  0  0
 60 53  1  0  0  0  0
 61 54  1  0  0  0  0
 62 55  1  0  0  0  0
M  END
>  <MODEL>
3

>  <REMARK>
 VINA RESULT:    -9.590      2.590     10.782
 INTER + INTRA:         -12.821
 INTER:                 -12.507
 INTRA:                  -0.314
 UNBOUND:                -0.429
  Name = 
  5 active torsions:
  status: ('A' for Active; 'I' for Inactive)
    1  A    between atoms: C_2  and  C_20
    2  A    between atoms: N_3  and  C_4
    3  A    between atoms: C_8  and  C_9
    4  A    between atoms: C_24  and  C_25
    5  A    between atoms: C_25  and  N_26
                            x       y       z     vdW  Elec       q    Type
                         _______ _______ _______ _____ _____    ______ ____

>  <TORSDO>
F 5

$$$$
=
 OpenBabel07192307433D

 62 67  0  0  0  0  0  0  0  0999 V2000
    2.2930    8.3370   17.7170 O   0  0  0  0  0  0  0  0  0  0  0  0
    2.0080    8.0940   18.8840 C   0  0  0  0  0  0  0  0  0  0  0  0
    1.3090    8.9180   19.7480 N   0  0  0  0  0  0  0  0  0  0  0  0
    1.0140    8.5160   20.6300 H   0  0  0  0  0  0  0  0  0  0  0  0
    0.8500   10.2280   19.5000 C   0  0  0  0  0  0  0  0  0  0  0  0
    1.5580   11.1820   18.7650 C   0  0  0  0  0  0  0  0  0  0  0  0
    1.0330   12.4630   18.5750 C   0  0  0  0  0  0  0  0  0  0  0  0
   -0.2140   12.7970   19.1050 C   0  0  0  0  0  0  0  0  0  0  0  0
   -0.9410   11.8490   19.8290 C   0  0  0  0  0  0  0  0  0  0  0  0
   -0.3930   10.5780   20.0430 C   0  0  0  0  0  0  0  0  0  0  0  0
    2.5380   10.9650   18.3440 H   0  0  0  0  0  0  0  0  0  0  0  0
    1.6050   13.2020   18.0200 H   0  0  0  0  0  0  0  0  0  0  0  0
   -0.6050   13.7990   18.9590 H   0  0  0  0  0  0  0  0  0  0  0  0
   -0.9580    9.8600   20.6340 H   0  0  0  0  0  0  0  0  0  0  0  0
   -2.2570   12.1560   20.3750 C   0  0  0  0  0  0  0  0  0  0  0  0
   -3.3570   12.3210   19.6690 N   0  0  0  0  0  0  0  0  0  0  0  0
   -4.3750   12.6660   20.5230 N   0  0  0  0  0  0  0  0  0  0  0  0
   -3.8820   12.7290   21.7370 C   0  0  0  0  0  0  0  0  0  0  0  0
   -2.5480   12.4160   21.6930 N   0  0  0  0  0  0  0  0  0  0  0  0
   -1.6420   12.4700   22.8150 C   0  0  0  0  0  0  0  0  0  0  0  0
   -1.5360   13.8630   23.4410 C   0  0  0  0  0  0  0  0  0  0  0  0
   -2.7330   14.2480   24.3110 C   0  0  0  0  0  0  0  0  0  0  0  0
   -4.0540   14.4250   23.5600 C   0  0  0  0  0  0  0  0  0  0  0  0
   -4.6090   13.1300   22.9680 C   0  0  0  0  0  0  0  0  0  0  0  0
   -1.9810   11.7270   23.5500 H   0  0  0  0  0  0  0  0  0  0  0  0
   -0.6460   12.1610   22.4770 H   0  0  0  0  0  0  0  0  0  0  0  0
   -0.6430   13.8820   24.0840 H   0  0  0  0  0  0  0  0  0  0  0  0
   -1.3820   14.6250   22.6630 H   0  0  0  0  0  0  0  0  0  0  0  0
   -2.8580   13.5180   25.1200 H   0  0  0  0  0  0  0  0  0  0  0  0
   -2.4990   15.2010   24.8020 H   0  0  0  0  0  0  0  0  0  0  0  0
   -3.9380   15.1880   22.7800 H   0  0  0  0  0  0  0  0  0  0  0  0
   -4.7900   14.8140   24.2770 H   0  0  0  0  0  0  0  0  0  0  0  0
   -5.6630   13.2940   22.7030 H   0  0  0  0  0  0  0  0  0  0  0  0
   -4.5900   12.3160   23.7050 H   0  0  0  0  0  0  0  0  0  0  0  0
    2.3520    6.7530   19.4460 C   0  0  0  0  0  0  0  0  0  0  0  0
    1.4310    5.9980   20.1820 C   0  0  0  0  0  0  0  0  0  0  0  0
    1.7710    4.7120   20.6150 C   0  0  0  0  0  0  0  0  0  0  0  0
    3.0330    4.1880   20.3340 C   0  0  0  0  0  0  0  0  0  0  0  0
    3.9890    4.9510   19.6450 C   0  0  0  0  0  0  0  0  0  0  0  0
    3.6340    6.2370   19.2030 C   0  0  0  0  0  0  0  0  0  0  0  0
    0.4500    6.3930   20.4340 H   0  0  0  0  0  0  0  0  0  0  0  0
    1.0510    4.1130   21.1690 H   0  0  0  0  0  0  0  0  0  0  0  0
    3.2590    3.1730   20.6550 H   0  0  0  0  0  0  0  0  0  0  0  0
    4.3530    6.8430   18.6500 H   0  0  0  0  0  0  0  0  0  0  0  0
    5.3560    4.3930   19.3170 C   0  0  0  0  0  0  0  0  0  0  0  0
    6.1110    4.9890   19.8410 H   0  0  0  0  0  0  0  0  0  0  0  0
    5.4370    3.3590   19.6770 H   0  0  0  0  0  0  0  0  0  0  0  0
    5.6470    4.3900   17.8980 N   0  0  0  0  0  0  0  0  0  0  0  0
    4.8590    3.7900   16.9550 C   0  0  0  0  0  0  0  0  0  0  0  0
    3.8300    3.1620   17.1000 O   0  0  0  0  0  0  0  0  0  0  0  0
    5.4980    4.0290   15.6610 C   0  0  0  0  0  0  0  0  0  0  0  0
    5.1200    3.6380   14.3910 C   0  0  0  0  0  0  0  0  0  0  0  0
    5.9460    4.0260   13.3320 C   0  0  0  0  0  0  0  0  0  0  0  0
    7.1160    4.7790   13.5650 C   0  0  0  0  0  0  0  0  0  0  0  0
    7.4770    5.1600   14.8640 C   0  0  0  0  0  0  0  0  0  0  0  0
    6.6430    4.7690   15.8920 C   0  0  0  0  0  0  0  0  0  0  0  0
    6.7300    5.0090   17.3340 C   0  0  0  0  0  0  0  0  0  0  0  0
    7.6100    5.6590   17.8610 O   0  0  0  0  0  0  0  0  0  0  0  0
    4.2170    3.0570   14.2300 H   0  0  0  0  0  0  0  0  0  0  0  0
    5.6840    3.7430   12.3130 H   0  0  0  0  0  0  0  0  0  0  0  0
    7.7440    5.0660   12.7270 H   0  0  0  0  0  0  0  0  0  0  0  0
    8.3750    5.7370   15.0600 H   0  0  0  0  0  0  0  0  0  0  0  0
  1  2  2  0  0  0  0
  2 35  1  0  0  0  0
  2  3  1  0  0  0  0
  3  4  1  0  0  0  0
  5  3  1  0  0  0  0
  5 10  1  0  0  0  0
  6  5  2  0  0  0  0
  7  6  1  0  0  0  0
  7  8  2  0  0  0  0
  8  9  1  0  0  0  0
  9 10  2  0  0  0  0
  9 15  1  0  0  0  0
 10 14  1  0  0  0  0
 11  6  1  0  0  0  0
 12  7  1  0  0  0  0
 13  8  1  0  0  0  0
 15 19  1  0  0  0  0
 16 15  2  0  0  0  0
 16 17  1  0  0  0  0
 17 18  2  0  0  0  0
 18 24  1  0  0  0  0
 19 18  1  0  0  0  0
 19 20  1  0  0  0  0
 20 21  1  0  0  0  0
 20 25  1  0  0  0  0
 21 27  1  0  0  0  0
 21 22  1  0  0  0  0
 22 30  1  0  0  0  0
 22 29  1  0  0  0  0
 23 32  1  0  0  0  0
 23 22  1  0  0  0  0
 24 23  1  0  0  0  0
 24 34  1  0  0  0  0
 26 20  1  0  0  0  0
 28 21  1  0  0  0  0
 31 23  1  0  0  0  0
 33 24  1  0  0  0  0
 35 36  1  0  0  0  0
 36 41  1  0  0  0  0
 36 37  2  0  0  0  0
 37 42  1  0  0  0  0
 38 37  1  0  0  0  0
 38 43  1  0  0  0  0
 39 38  2  0  0  0  0
 40 35  2  0  0  0  0
 40 39  1  0  0  0  0
 44 40  1  0  0  0  0
 45 39  1  0  0  0  0
 45 47  1  0  0  0  0
 45 46  1  0  0  0  0
 48 45  1  0  0  0  0
 49 50  2  0  0  0  0
 49 48  1  0  0  0  0
 51 56  1  0  0  0  0
 51 49  1  0  0  0  0
 52 51  2  0  0  0  0
 53 54  2  0  0  0  0
 53 52  1  0  0  0  0
 54 55  1  0  0  0  0
 55 62  1  0  0  0  0
 55 56  2  0  0  0  0
 56 57  1  0  0  0  0
 57 58  2  0  0  0  0
 57 48  1  0  0  0  0
 59 52  1  0  0  0  0
 60 53  1  0  0  0  0
 61 54  1  0  0  0  0
M  END
>  <MODEL>
4

>  <REMARK>
 VINA RESULT:    -9.580      0.062      1.439
 INTER + INTRA:         -12.809
 INTER:                 -12.023
 INTRA:                  -0.786
 UNBOUND:                -0.429
  Name = 
  5 active torsions:
  status: ('A' for Active; 'I' for Inactive)
    1  A    between atoms: C_2  and  C_20
    2  A    between atoms: N_3  and  C_4
    3  A    between atoms: C_8  and  C_9
    4  A    between atoms: C_24  and  C_25
    5  A    between atoms: C_25  and  N_26
                            x       y       z     vdW  Elec       q    Type
                         _______ _______ _______ _____ _____    ______ ____

>  <TORSDO>
F 5

$$$$
=
 OpenBabel07192307433D

 62 67  0  0  0  0  0  0  0  0999 V2000
    1.8170    8.4050   19.3070 O   0  0  0  0  0  0  0  0  0  0  0  0
    1.2660    8.1450   20.3710 C   0  0  0  0  0  0  0  0  0  0  0  0
    1.2850    6.9300   21.0300 N   0  0  0  0  0  0  0  0  0  0  0  0
    0.9180    6.9140   21.9750 H   0  0  0  0  0  0  0  0  0  0  0  0
    1.8670    5.7240   20.5900 C   0  0  0  0  0  0  0  0  0  0  0  0
    1.2400    4.4780   20.6630 C   0  0  0  0  0  0  0  0  0  0  0  0
    1.8940    3.3280   20.2110 C   0  0  0  0  0  0  0  0  0  0  0  0
    3.1750    3.4170   19.6650 C   0  0  0  0  0  0  0  0  0  0  0  0
    3.8080    4.6580   19.5700 C   0  0  0  0  0  0  0  0  0  0  0  0
    3.1600    5.8000   20.0560 C   0  0  0  0  0  0  0  0  0  0  0  0
    0.2460    4.3640   21.0910 H   0  0  0  0  0  0  0  0  0  0  0  0
    1.4030    2.3610   20.2950 H   0  0  0  0  0  0  0  0  0  0  0  0
    3.6750    2.5140   19.3280 H   0  0  0  0  0  0  0  0  0  0  0  0
    3.6780    6.7560   20.0020 H   0  0  0  0  0  0  0  0  0  0  0  0
    5.1350    4.7910   18.9830 C   0  0  0  0  0  0  0  0  0  0  0  0
    6.1380    5.4670   19.5070 N   0  0  0  0  0  0  0  0  0  0  0  0
    7.1970    5.4200   18.6350 N   0  0  0  0  0  0  0  0  0  0  0  0
    6.8250    4.7340   17.5810 C   0  0  0  0  0  0  0  0  0  0  0  0
    5.5310    4.3170   17.7540 N   0  0  0  0  0  0  0  0  0  0  0  0
    4.7410    3.6190   16.7690 C   0  0  0  0  0  0  0  0  0  0  0  0
    4.5610    4.4050   15.4680 C   0  0  0  0  0  0  0  0  0  0  0  0
    5.7960    4.4070   14.5660 C   0  0  0  0  0  0  0  0  0  0  0  0
    7.0110    5.1490   15.1260 C   0  0  0  0  0  0  0  0  0  0  0  0
    7.6290    4.4860   16.3570 C   0  0  0  0  0  0  0  0  0  0  0  0
    5.2230    2.6490   16.5860 H   0  0  0  0  0  0  0  0  0  0  0  0
    3.7510    3.4140   17.1930 H   0  0  0  0  0  0  0  0  0  0  0  0
    3.7400    3.9440   14.9000 H   0  0  0  0  0  0  0  0  0  0  0  0
    4.2570    5.4410   15.6820 H   0  0  0  0  0  0  0  0  0  0  0  0
    6.0740    3.3770   14.3080 H   0  0  0  0  0  0  0  0  0  0  0  0
    5.5210    4.8890   13.6200 H   0  0  0  0  0  0  0  0  0  0  0  0
    6.7440    6.1910   15.3420 H   0  0  0  0  0  0  0  0  0  0  0  0
    7.7740    5.1750   14.3360 H   0  0  0  0  0  0  0  0  0  0  0  0
    8.6300    4.9120   16.5150 H   0  0  0  0  0  0  0  0  0  0  0  0
    7.7640    3.4070   16.2020 H   0  0  0  0  0  0  0  0  0  0  0  0
    0.5670    9.2430   21.1070 C   0  0  0  0  0  0  0  0  0  0  0  0
    0.0620    9.0630   22.4000 C   0  0  0  0  0  0  0  0  0  0  0  0
   -0.5100   10.1440   23.0810 C   0  0  0  0  0  0  0  0  0  0  0  0
   -0.5950   11.3930   22.4670 C   0  0  0  0  0  0  0  0  0  0  0  0
   -0.1440   11.5790   21.1510 C   0  0  0  0  0  0  0  0  0  0  0  0
    0.4390   10.4910   20.4780 C   0  0  0  0  0  0  0  0  0  0  0  0
    0.0960    8.0940   22.8900 H   0  0  0  0  0  0  0  0  0  0  0  0
   -0.8840   10.0150   24.0940 H   0  0  0  0  0  0  0  0  0  0  0  0
   -1.0150   12.2230   23.0320 H   0  0  0  0  0  0  0  0  0  0  0  0
    0.8150   10.6130   19.4620 H   0  0  0  0  0  0  0  0  0  0  0  0
   -0.2140   12.9310   20.4750 C   0  0  0  0  0  0  0  0  0  0  0  0
   -0.8590   12.8460   19.5930 H   0  0  0  0  0  0  0  0  0  0  0  0
   -0.6680   13.6660   21.1520 H   0  0  0  0  0  0  0  0  0  0  0  0
    1.0830   13.4380   20.0770 N   0  0  0  0  0  0  0  0  0  0  0  0
    1.9260   14.1230   20.9060 C   0  0  0  0  0  0  0  0  0  0  0  0
    1.7690   14.4440   22.0660 O   0  0  0  0  0  0  0  0  0  0  0  0
    3.1190   14.4410   20.1220 C   0  0  0  0  0  0  0  0  0  0  0  0
    4.2680   15.1220   20.4770 C   0  0  0  0  0  0  0  0  0  0  0  0
    5.2530   15.2670   19.4950 C   0  0  0  0  0  0  0  0  0  0  0  0
    5.0650   14.7420   18.1990 C   0  0  0  0  0  0  0  0  0  0  0  0
    3.8890   14.0580   17.8650 C   0  0  0  0  0  0  0  0  0  0  0  0
    2.9340   13.9240   18.8540 C   0  0  0  0  0  0  0  0  0  0  0  0
    1.6240   13.2690   18.8310 C   0  0  0  0  0  0  0  0  0  0  0  0
    1.1740   12.6850   17.8650 O   0  0  0  0  0  0  0  0  0  0  0  0
    4.3950   15.5210   21.4790 H   0  0  0  0  0  0  0  0  0  0  0  0
    6.1760   15.7930   19.7330 H   0  0  0  0  0  0  0  0  0  0  0  0
    5.8420   14.8700   17.4520 H   0  0  0  0  0  0  0  0  0  0  0  0
    3.7280   13.6500   16.8730 H   0  0  0  0  0  0  0  0  0  0  0  0
  1  2  2  0  0  0  0
  2  3  1  0  0  0  0
  2 35  1  0  0  0  0
  3  4  1  0  0  0  0
  5  6  1  0  0  0  0
  5  3  1  0  0  0  0
  6 11  1  0  0  0  0
  7 12  1  0  0  0  0
  7  6  2  0  0  0  0
  8  7  1  0  0  0  0
  9  8  2  0  0  0  0
  9 10  1  0  0  0  0
 10  5  2  0  0  0  0
 13  8  1  0  0  0  0
 14 10  1  0  0  0  0
 15 16  2  0  0  0  0
 15  9  1  0  0  0  0
 17 16  1  0  0  0  0
 18 19  1  0  0  0  0
 18 17  2  0  0  0  0
 19 15  1  0  0  0  0
 20 26  1  0  0  0  0
 20 19  1  0  0  0  0
 21 28  1  0  0  0  0
 21 20  1  0  0  0  0
 22 23  1  0  0  0  0
 22 21  1  0  0  0  0
 23 31  1  0  0  0  0
 23 24  1  0  0  0  0
 24 33  1  0  0  0  0
 24 18  1  0  0  0  0
 25 20  1  0  0  0  0
 27 21  1  0  0  0  0
 29 22  1  0  0  0  0
 30 22  1  0  0  0  0
 32 23  1  0  0  0  0
 34 24  1  0  0  0  0
 35 36  1  0  0  0  0
 36 41  1  0  0  0  0
 36 37  2  0  0  0  0
 37 42  1  0  0  0  0
 38 43  1  0  0  0  0
 38 37  1  0  0  0  0
 39 38  2  0  0  0  0
 40 35  2  0  0  0  0
 40 39  1  0  0  0  0
 44 40  1  0  0  0  0
 45 39  1  0  0  0  0
 45 47  1  0  0  0  0
 46 45  1  0  0  0  0
 48 45  1  0  0  0  0
 48 49  1  0  0  0  0
 49 50  2  0  0  0  0
 51 52  1  0  0  0  0
 51 49  1  0  0  0  0
 52 59  1  0  0  0  0
 53 60  1  0  0  0  0
 53 52  2  0  0  0  0
 54 53  1  0  0  0  0
 55 54  2  0  0  0  0
 55 56  1  0  0  0  0
 56 51  2  0  0  0  0
 57 56  1  0  0  0  0
 57 48  1  0  0  0  0
 58 57  2  0  0  0  0
 61 54  1  0  0  0  0
 62 55  1  0  0  0  0
M  END
>  <MODEL>
5

>  <REMARK>
 VINA RESULT:    -9.458      2.686     10.386
 INTER + INTRA:         -12.652
 INTER:                 -11.911
 INTRA:                  -0.741
 UNBOUND:                -0.429
  Name = 
  5 active torsions:
  status: ('A' for Active; 'I' for Inactive)
    1  A    between atoms: C_2  and  C_20
    2  A    between atoms: N_3  and  C_4
    3  A    between atoms: C_8  and  C_9
    4  A    between atoms: C_24  and  C_25
    5  A    between atoms: C_25  and  N_26
                            x       y       z     vdW  Elec       q    Type
                         _______ _______ _______ _____ _____    ______ ____

>  <TORSDO>
F 5

$$$$
=
 OpenBabel07192307433D

 62 67  0  0  0  0  0  0  0  0999 V2000
    1.8130    8.4170   19.3110 O   0  0  0  0  0  0  0  0  0  0  0  0
    1.2520    8.1610   20.3700 C   0  0  0  0  0  0  0  0  0  0  0  0
    1.2680    6.9500   21.0380 N   0  0  0  0  0  0  0  0  0  0  0  0
    0.8900    6.9390   21.9780 H   0  0  0  0  0  0  0  0  0  0  0  0
    1.8590    5.7440   20.6110 C   0  0  0  0  0  0  0  0  0  0  0  0
    1.2450    4.4930   20.7060 C   0  0  0  0  0  0  0  0  0  0  0  0
    1.9080    3.3430   20.2670 C   0  0  0  0  0  0  0  0  0  0  0  0
    3.1860    3.4370   19.7130 C   0  0  0  0  0  0  0  0  0  0  0  0
    3.8060    4.6830   19.5970 C   0  0  0  0  0  0  0  0  0  0  0  0
    3.1490    5.8250   20.0700 C   0  0  0  0  0  0  0  0  0  0  0  0
    0.2540    4.3760   21.1400 H   0  0  0  0  0  0  0  0  0  0  0  0
    1.4270    2.3730   20.3670 H   0  0  0  0  0  0  0  0  0  0  0  0
    3.6930    2.5340   19.3860 H   0  0  0  0  0  0  0  0  0  0  0  0
    3.6570    6.7850   20.0000 H   0  0  0  0  0  0  0  0  0  0  0  0
    5.1290    4.8200   19.0020 C   0  0  0  0  0  0  0  0  0  0  0  0
    6.1320    5.5020   19.5170 N   0  0  0  0  0  0  0  0  0  0  0  0
    7.1860    5.4580   18.6390 N   0  0  0  0  0  0  0  0  0  0  0  0
    6.8100    4.7680   17.5890 C   0  0  0  0  0  0  0  0  0  0  0  0
    5.5190    4.3450   17.7720 N   0  0  0  0  0  0  0  0  0  0  0  0
    4.7260    3.6400   16.7930 C   0  0  0  0  0  0  0  0  0  0  0  0
    4.5350    4.4230   15.4910 C   0  0  0  0  0  0  0  0  0  0  0  0
    5.7640    4.4280   14.5810 C   0  0  0  0  0  0  0  0  0  0  0  0
    6.9790    5.1770   15.1320 C   0  0  0  0  0  0  0  0  0  0  0  0
    7.6070    4.5200   16.3610 C   0  0  0  0  0  0  0  0  0  0  0  0
    5.2110    2.6730   16.6100 H   0  0  0  0  0  0  0  0  0  0  0  0
    3.7400    3.4320   17.2240 H   0  0  0  0  0  0  0  0  0  0  0  0
    3.7120    3.9570   14.9290 H   0  0  0  0  0  0  0  0  0  0  0  0
    4.2270    5.4580   15.7040 H   0  0  0  0  0  0  0  0  0  0  0  0
    6.0440    3.3990   14.3240 H   0  0  0  0  0  0  0  0  0  0  0  0
    5.4800    4.9060   13.6360 H   0  0  0  0  0  0  0  0  0  0  0  0
    6.7080    6.2180   15.3470 H   0  0  0  0  0  0  0  0  0  0  0  0
    7.7360    5.2040   14.3370 H   0  0  0  0  0  0  0  0  0  0  0  0
    8.6070    4.9510   16.5120 H   0  0  0  0  0  0  0  0  0  0  0  0
    7.7460    3.4410   16.2080 H   0  0  0  0  0  0  0  0  0  0  0  0
    0.5400    9.2610   21.0910 C   0  0  0  0  0  0  0  0  0  0  0  0
    0.0050    9.0820   22.3730 C   0  0  0  0  0  0  0  0  0  0  0  0
   -0.5780   10.1640   23.0410 C   0  0  0  0  0  0  0  0  0  0  0  0
   -0.6450   11.4140   22.4270 C   0  0  0  0  0  0  0  0  0  0  0  0
   -0.1630   11.6000   21.1220 C   0  0  0  0  0  0  0  0  0  0  0  0
    0.4320   10.5100   20.4620 C   0  0  0  0  0  0  0  0  0  0  0  0
    0.0240    8.1120   22.8620 H   0  0  0  0  0  0  0  0  0  0  0  0
   -0.9770   10.0350   24.0460 H   0  0  0  0  0  0  0  0  0  0  0  0
   -1.0750   12.2450   22.9830 H   0  0  0  0  0  0  0  0  0  0  0  0
    0.8310   10.6320   19.4540 H   0  0  0  0  0  0  0  0  0  0  0  0
   -0.2120   12.9520   20.4470 C   0  0  0  0  0  0  0  0  0  0  0  0
   -0.8520   12.8760   19.5600 H   0  0  0  0  0  0  0  0  0  0  0  0
   -0.6630   13.6930   21.1200 H   0  0  0  0  0  0  0  0  0  0  0  0
    1.0930   13.4450   20.0580 N   0  0  0  0  0  0  0  0  0  0  0  0
    1.6240   13.3040   18.8060 C   0  0  0  0  0  0  0  0  0  0  0  0
    1.1530   12.7590   17.8290 O   0  0  0  0  0  0  0  0  0  0  0  0
    2.9390   13.9440   18.8340 C   0  0  0  0  0  0  0  0  0  0  0  0
    3.8880   14.0810   17.8390 C   0  0  0  0  0  0  0  0  0  0  0  0
    5.0660   14.7570   18.1710 C   0  0  0  0  0  0  0  0  0  0  0  0
    5.2660   15.2670   19.4700 C   0  0  0  0  0  0  0  0  0  0  0  0
    4.2880   15.1120   20.4610 C   0  0  0  0  0  0  0  0  0  0  0  0
    3.1310   14.4450   20.1070 C   0  0  0  0  0  0  0  0  0  0  0  0
    1.9350   14.1310   20.8910 C   0  0  0  0  0  0  0  0  0  0  0  0
    1.7760   14.4630   22.0490 O   0  0  0  0  0  0  0  0  0  0  0  0
    3.7180   13.6810   16.8440 H   0  0  0  0  0  0  0  0  0  0  0  0
    5.8410   14.8910   17.4160 H   0  0  0  0  0  0  0  0  0  0  0  0
    6.1910   15.7860   19.7060 H   0  0  0  0  0  0  0  0  0  0  0  0
    4.4280   15.4960   21.4660 H   0  0  0  0  0  0  0  0  0  0  0  0
  1  2  2  0  0  0  0
  2  3  1  0  0  0  0
  2 35  1  0  0  0  0
  3  4  1  0  0  0  0
  5  6  1  0  0  0  0
  5  3  1  0  0  0  0
  6 11  1  0  0  0  0
  7 12  1  0  0  0  0
  7  6  2  0  0  0  0
  8  7  1  0  0  0  0
  9  8  2  0  0  0  0
  9 10  1  0  0  0  0
 10  5  2  0  0  0  0
 13  8  1  0  0  0  0
 14 10  1  0  0  0  0
 15 16  2  0  0  0  0
 15  9  1  0  0  0  0
 17 16  1  0  0  0  0
 18 19  1  0  0  0  0
 18 17  2  0  0  0  0
 19 15  1  0  0  0  0
 20 26  1  0  0  0  0
 20 19  1  0  0  0  0
 21 28  1  0  0  0  0
 21 20  1  0  0  0  0
 22 23  1  0  0  0  0
 22 21  1  0  0  0  0
 23 31  1  0  0  0  0
 23 24  1  0  0  0  0
 24 33  1  0  0  0  0
 24 18  1  0  0  0  0
 25 20  1  0  0  0  0
 27 21  1  0  0  0  0
 29 22  1  0  0  0  0
 30 22  1  0  0  0  0
 32 23  1  0  0  0  0
 34 24  1  0  0  0  0
 35 36  1  0  0  0  0
 36 41  1  0  0  0  0
 36 37  2  0  0  0  0
 37 42  1  0  0  0  0
 38 43  1  0  0  0  0
 38 37  1  0  0  0  0
 39 38  2  0  0  0  0
 40 35  2  0  0  0  0
 40 39  1  0  0  0  0
 44 40  1  0  0  0  0
 45 47  1  0  0  0  0
 45 39  1  0  0  0  0
 46 45  1  0  0  0  0
 48 45  1  0  0  0  0
 48 57  1  0  0  0  0
 49 51  1  0  0  0  0
 49 48  1  0  0  0  0
 50 49  2  0  0  0  0
 51 56  1  0  0  0  0
 52 53  1  0  0  0  0
 52 51  2  0  0  0  0
 53 54  2  0  0  0  0
 54 61  1  0  0  0  0
 54 55  1  0  0  0  0
 55 62  1  0  0  0  0
 56 55  2  0  0  0  0
 56 57  1  0  0  0  0
 57 58  2  0  0  0  0
 59 52  1  0  0  0  0
 60 53  1  0  0  0  0
M  END
>  <MODEL>
6

>  <REMARK>
 VINA RESULT:    -9.448      2.682     10.424
 INTER + INTRA:         -12.638
 INTER:                 -11.880
 INTRA:                  -0.758
 UNBOUND:                -0.429
  Name = 
  5 active torsions:
  status: ('A' for Active; 'I' for Inactive)
    1  A    between atoms: C_2  and  C_20
    2  A    between atoms: N_3  and  C_4
    3  A    between atoms: C_8  and  C_9
    4  A    between atoms: C_24  and  C_25
    5  A    between atoms: C_25  and  N_26
                            x       y       z     vdW  Elec       q    Type
                         _______ _______ _______ _____ _____    ______ ____

>  <TORSDO>
F 5

$$$$
=
 OpenBabel07192307433D

 62 67  0  0  0  0  0  0  0  0999 V2000
    2.4730    8.5010   18.0110 O   0  0  0  0  0  0  0  0  0  0  0  0
    1.6150    8.5370   18.8850 C   0  0  0  0  0  0  0  0  0  0  0  0
    1.4200    7.6000   19.8840 N   0  0  0  0  0  0  0  0  0  0  0  0
    0.7740    7.8470   20.6250 H   0  0  0  0  0  0  0  0  0  0  0  0
    2.1040    6.3810   20.0610 C   0  0  0  0  0  0  0  0  0  0  0  0
    1.6020    5.2980   20.7870 C   0  0  0  0  0  0  0  0  0  0  0  0
    2.3530    4.1270   20.9220 C   0  0  0  0  0  0  0  0  0  0  0  0
    3.6060    4.0220   20.3170 C   0  0  0  0  0  0  0  0  0  0  0  0
    4.1150    5.0900   19.5760 C   0  0  0  0  0  0  0  0  0  0  0  0
    3.3710    6.2720   19.4730 C   0  0  0  0  0  0  0  0  0  0  0  0
    0.6340    5.3420   21.2810 H   0  0  0  0  0  0  0  0  0  0  0  0
    1.9590    3.3000   21.5080 H   0  0  0  0  0  0  0  0  0  0  0  0
    4.1830    3.1100   20.4400 H   0  0  0  0  0  0  0  0  0  0  0  0
    3.7930    7.1070   18.9170 H   0  0  0  0  0  0  0  0  0  0  0  0
    5.4090    5.0060   18.9120 C   0  0  0  0  0  0  0  0  0  0  0  0
    6.5320    5.5310   19.3570 N   0  0  0  0  0  0  0  0  0  0  0  0
    7.5170    5.3040   18.4290 N   0  0  0  0  0  0  0  0  0  0  0  0
    6.9830    4.6630   17.4180 C   0  0  0  0  0  0  0  0  0  0  0  0
    5.6530    4.4520   17.6760 N   0  0  0  0  0  0  0  0  0  0  0  0
    4.7080    3.8630   16.7580 C   0  0  0  0  0  0  0  0  0  0  0  0
    4.5720    4.6420   15.4470 C   0  0  0  0  0  0  0  0  0  0  0  0
    5.7360    4.4360   14.4770 C   0  0  0  0  0  0  0  0  0  0  0  0
    7.0810    4.9940   14.9460 C   0  0  0  0  0  0  0  0  0  0  0  0
    7.6640    4.2700   16.1590 C   0  0  0  0  0  0  0  0  0  0  0  0
    5.0260    2.8280   16.5770 H   0  0  0  0  0  0  0  0  0  0  0  0
    3.7260    3.8210   17.2430 H   0  0  0  0  0  0  0  0  0  0  0  0
    3.6570    4.3000   14.9390 H   0  0  0  0  0  0  0  0  0  0  0  0
    4.4420    5.7160   15.6470 H   0  0  0  0  0  0  0  0  0  0  0  0
    5.8380    3.3710   14.2340 H   0  0  0  0  0  0  0  0  0  0  0  0
    5.4810    4.9350   13.5340 H   0  0  0  0  0  0  0  0  0  0  0  0
    6.9890    6.0690   15.1450 H   0  0  0  0  0  0  0  0  0  0  0  0
    7.7900    4.8860   14.1130 H   0  0  0  0  0  0  0  0  0  0  0  0
    8.7260    4.5400   16.2470 H   0  0  0  0  0  0  0  0  0  0  0  0
    7.6240    3.1800   16.0280 H   0  0  0  0  0  0  0  0  0  0  0  0
    0.7260    9.7350   18.9730 C   0  0  0  0  0  0  0  0  0  0  0  0
   -0.2470   10.0100   18.0040 C   0  0  0  0  0  0  0  0  0  0  0  0
   -1.1110   11.0970   18.1730 C   0  0  0  0  0  0  0  0  0  0  0  0
   -0.9940   11.9190   19.2930 C   0  0  0  0  0  0  0  0  0  0  0  0
    0.0110   11.6930   20.2470 C   0  0  0  0  0  0  0  0  0  0  0  0
    0.8680   10.5920   20.0750 C   0  0  0  0  0  0  0  0  0  0  0  0
   -0.3420    9.3970   17.1110 H   0  0  0  0  0  0  0  0  0  0  0  0
   -1.8830   11.3010   17.4330 H   0  0  0  0  0  0  0  0  0  0  0  0
   -1.7000   12.7380   19.4140 H   0  0  0  0  0  0  0  0  0  0  0  0
    1.6440   10.3830   20.8120 H   0  0  0  0  0  0  0  0  0  0  0  0
    0.1430   12.5650   21.4760 C   0  0  0  0  0  0  0  0  0  0  0  0
    0.8250   12.0750   22.1790 H   0  0  0  0  0  0  0  0  0  0  0  0
    0.5810   13.5330   21.2040 H   0  0  0  0  0  0  0  0  0  0  0  0
   -1.1220   12.8210   22.1330 N   0  0  0  0  0  0  0  0  0  0  0  0
   -1.8680   13.9520   21.9470 C   0  0  0  0  0  0  0  0  0  0  0  0
   -1.6350   14.9200   21.2530 O   0  0  0  0  0  0  0  0  0  0  0  0
   -3.0620   13.8080   22.7780 C   0  0  0  0  0  0  0  0  0  0  0  0
   -4.1330   14.6620   22.9610 C   0  0  0  0  0  0  0  0  0  0  0  0
   -5.1440   14.2410   23.8310 C   0  0  0  0  0  0  0  0  0  0  0  0
   -5.0580   12.9980   24.4920 C   0  0  0  0  0  0  0  0  0  0  0  0
   -3.9590   12.1520   24.2910 C   0  0  0  0  0  0  0  0  0  0  0  0
   -2.9770   12.5890   23.4230 C   0  0  0  0  0  0  0  0  0  0  0  0
   -1.7300   11.9500   22.9970 C   0  0  0  0  0  0  0  0  0  0  0  0
   -1.3730   10.8480   23.3620 O   0  0  0  0  0  0  0  0  0  0  0  0
   -4.1830   15.6160   22.4450 H   0  0  0  0  0  0  0  0  0  0  0  0
   -6.0090   14.8820   24.0020 H   0  0  0  0  0  0  0  0  0  0  0  0
   -5.8530   12.6940   25.1660 H   0  0  0  0  0  0  0  0  0  0  0  0
   -3.8770   11.1950   24.7930 H   0  0  0  0  0  0  0  0  0  0  0  0
  1  2  2  0  0  0  0
  2 35  1  0  0  0  0
  2  3  1  0  0  0  0
  3  5  1  0  0  0  0
  3  4  1  0  0  0  0
  5  6  1  0  0  0  0
  6  7  2  0  0  0  0
  6 11  1  0  0  0  0
  7 12  1  0  0  0  0
  8 13  1  0  0  0  0
  8  7  1  0  0  0  0
  9  8  2  0  0  0  0
 10  9  1  0  0  0  0
 10  5  2  0  0  0  0
 14 10  1  0  0  0  0
 15 16  2  0  0  0  0
 15  9  1  0  0  0  0
 17 16  1  0  0  0  0
 18 19  1  0  0  0  0
 18 17  2  0  0  0  0
 19 15  1  0  0  0  0
 20 26  1  0  0  0  0
 20 19  1  0  0  0  0
 21 28  1  0  0  0  0
 21 20  1  0  0  0  0
 22 23  1  0  0  0  0
 22 21  1  0  0  0  0
 23 31  1  0  0  0  0
 23 24  1  0  0  0  0
 24 33  1  0  0  0  0
 24 18  1  0  0  0  0
 25 20  1  0  0  0  0
 27 21  1  0  0  0  0
 29 22  1  0  0  0  0
 30 22  1  0  0  0  0
 32 23  1  0  0  0  0
 34 24  1  0  0  0  0
 35 40  1  0  0  0  0
 36 37  1  0  0  0  0
 36 35  2  0  0  0  0
 37 38  2  0  0  0  0
 38 43  1  0  0  0  0
 38 39  1  0  0  0  0
 39 45  1  0  0  0  0
 40 39  2  0  0  0  0
 40 44  1  0  0  0  0
 41 36  1  0  0  0  0
 42 37  1  0  0  0  0
 45 48  1  0  0  0  0
 45 46  1  0  0  0  0
 47 45  1  0  0  0  0
 48 57  1  0  0  0  0
 49 48  1  0  0  0  0
 49 51  1  0  0  0  0
 50 49  2  0  0  0  0
 51 52  2  0  0  0  0
 51 56  1  0  0  0  0
 52 53  1  0  0  0  0
 53 60  1  0  0  0  0
 53 54  2  0  0  0  0
 54 61  1  0  0  0  0
 55 54  1  0  0  0  0
 55 62  1  0  0  0  0
 56 55  2  0  0  0  0
 57 58  2  0  0  0  0
 57 56  1  0  0  0  0
 59 52  1  0  0  0  0
M  END
>  <MODEL>
7

>  <REMARK>
 VINA RESULT:    -9.148      2.154     11.693
 INTER + INTRA:         -12.251
 INTER:                 -11.532
 INTRA:                  -0.719
 UNBOUND:                -0.429
  Name = 
  5 active torsions:
  status: ('A' for Active; 'I' for Inactive)
    1  A    between atoms: C_2  and  C_20
    2  A    between atoms: N_3  and  C_4
    3  A    between atoms: C_8  and  C_9
    4  A    between atoms: C_24  and  C_25
    5  A    between atoms: C_25  and  N_26
                            x       y       z     vdW  Elec       q    Type
                         _______ _______ _______ _____ _____    ______ ____

>  <TORSDO>
F 5

$$$$
=
 OpenBabel07192307433D

 62 67  0  0  0  0  0  0  0  0999 V2000
    2.1530    8.0800   19.9560 O   0  0  0  0  0  0  0  0  0  0  0  0
    1.4590    7.3080   20.6070 C   0  0  0  0  0  0  0  0  0  0  0  0
    0.4110    7.6490   21.4420 N   0  0  0  0  0  0  0  0  0  0  0  0
   -0.1670    6.8910   21.7860 H   0  0  0  0  0  0  0  0  0  0  0  0
   -0.0290    8.9440   21.7800 C   0  0  0  0  0  0  0  0  0  0  0  0
   -0.5620    9.2920   23.0240 C   0  0  0  0  0  0  0  0  0  0  0  0
   -0.9830   10.6010   23.2730 C   0  0  0  0  0  0  0  0  0  0  0  0
   -0.8600   11.5790   22.2850 C   0  0  0  0  0  0  0  0  0  0  0  0
   -0.3150   11.2510   21.0420 C   0  0  0  0  0  0  0  0  0  0  0  0
    0.0740    9.9290   20.7890 C   0  0  0  0  0  0  0  0  0  0  0  0
   -0.6830    8.5580   23.8180 H   0  0  0  0  0  0  0  0  0  0  0  0
   -1.4160   10.8530   24.2380 H   0  0  0  0  0  0  0  0  0  0  0  0
   -1.2020   12.5900   22.4890 H   0  0  0  0  0  0  0  0  0  0  0  0
    0.4700    9.6820   19.8060 H   0  0  0  0  0  0  0  0  0  0  0  0
   -0.1490   12.2520   19.9970 C   0  0  0  0  0  0  0  0  0  0  0  0
   -0.6830   12.1950   18.7930 N   0  0  0  0  0  0  0  0  0  0  0  0
   -0.2460   13.2770   18.0710 N   0  0  0  0  0  0  0  0  0  0  0  0
    0.5650   13.9720   18.8320 C   0  0  0  0  0  0  0  0  0  0  0  0
    0.6580   13.3630   20.0570 N   0  0  0  0  0  0  0  0  0  0  0  0
    1.5290   13.7780   21.1300 C   0  0  0  0  0  0  0  0  0  0  0  0
    3.0120   13.7620   20.7480 C   0  0  0  0  0  0  0  0  0  0  0  0
    3.4400   14.9350   19.8650 C   0  0  0  0  0  0  0  0  0  0  0  0
    2.8320   14.9500   18.4610 C   0  0  0  0  0  0  0  0  0  0  0  0
    1.3230   15.1880   18.4410 C   0  0  0  0  0  0  0  0  0  0  0  0
    1.2100   14.7790   21.4470 H   0  0  0  0  0  0  0  0  0  0  0  0
    1.3810   13.1050   21.9830 H   0  0  0  0  0  0  0  0  0  0  0  0
    3.6050   13.8130   21.6730 H   0  0  0  0  0  0  0  0  0  0  0  0
    3.2730   12.8130   20.2560 H   0  0  0  0  0  0  0  0  0  0  0  0
    3.2280   15.8830   20.3740 H   0  0  0  0  0  0  0  0  0  0  0  0
    4.5300   14.8920   19.7540 H   0  0  0  0  0  0  0  0  0  0  0  0
    3.0830   14.0190   17.9380 H   0  0  0  0  0  0  0  0  0  0  0  0
    3.3120   15.7650   17.9040 H   0  0  0  0  0  0  0  0  0  0  0  0
    1.0280   15.4580   17.4180 H   0  0  0  0  0  0  0  0  0  0  0  0
    1.0450   16.0330   19.0860 H   0  0  0  0  0  0  0  0  0  0  0  0
    1.6750    5.8370   20.4470 C   0  0  0  0  0  0  0  0  0  0  0  0
    0.6090    4.9280   20.4330 C   0  0  0  0  0  0  0  0  0  0  0  0
    0.8540    3.5720   20.1960 C   0  0  0  0  0  0  0  0  0  0  0  0
    2.1570    3.1180   19.9940 C   0  0  0  0  0  0  0  0  0  0  0  0
    3.2430    4.0060   20.0580 C   0  0  0  0  0  0  0  0  0  0  0  0
    2.9870    5.3690   20.2850 C   0  0  0  0  0  0  0  0  0  0  0  0
   -0.4120    5.2540   20.6110 H   0  0  0  0  0  0  0  0  0  0  0  0
    0.0270    2.8650   20.1630 H   0  0  0  0  0  0  0  0  0  0  0  0
    2.3140    2.0630   19.7800 H   0  0  0  0  0  0  0  0  0  0  0  0
    3.8120    6.0810   20.3220 H   0  0  0  0  0  0  0  0  0  0  0  0
    4.6620    3.5340   19.8250 C   0  0  0  0  0  0  0  0  0  0  0  0
    5.3120    4.0040   20.5720 H   0  0  0  0  0  0  0  0  0  0  0  0
    4.7250    2.4480   19.9640 H   0  0  0  0  0  0  0  0  0  0  0  0
    5.1540    3.8400   18.4980 N   0  0  0  0  0  0  0  0  0  0  0  0
    4.6480    3.3000   17.3490 C   0  0  0  0  0  0  0  0  0  0  0  0
    3.7510    2.4940   17.2100 O   0  0  0  0  0  0  0  0  0  0  0  0
    5.4130    3.8740   16.2430 C   0  0  0  0  0  0  0  0  0  0  0  0
    5.3110    3.6650   14.8810 C   0  0  0  0  0  0  0  0  0  0  0  0
    6.1930    4.3730   14.0590 C   0  0  0  0  0  0  0  0  0  0  0  0
    7.1460    5.2540   14.6100 C   0  0  0  0  0  0  0  0  0  0  0  0
    7.2300    5.4470   15.9950 C   0  0  0  0  0  0  0  0  0  0  0  0
    6.3440    4.7400   16.7850 C   0  0  0  0  0  0  0  0  0  0  0  0
    6.1680    4.7230   18.2390 C   0  0  0  0  0  0  0  0  0  0  0  0
    6.8160    5.4030   19.0090 O   0  0  0  0  0  0  0  0  0  0  0  0
    4.5720    2.9810   14.4730 H   0  0  0  0  0  0  0  0  0  0  0  0
    6.1460    4.2400   12.9780 H   0  0  0  0  0  0  0  0  0  0  0  0
    7.8240    5.7900   13.9520 H   0  0  0  0  0  0  0  0  0  0  0  0
    7.9580    6.1190   16.4350 H   0  0  0  0  0  0  0  0  0  0  0  0
  1  2  2  0  0  0  0
  2  3  1  0  0  0  0
  3  5  1  0  0  0  0
  3  4  1  0  0  0  0
  5  6  1  0  0  0  0
  6  7  2  0  0  0  0
  6 11  1  0  0  0  0
  7 12  1  0  0  0  0
  8 13  1  0  0  0  0
  8  7  1  0  0  0  0
  9  8  2  0  0  0  0
 10  9  1  0  0  0  0
 10  5  2  0  0  0  0
 14 10  1  0  0  0  0
 15 19  1  0  0  0  0
 15  9  1  0  0  0  0
 16 15  2  0  0  0  0
 17 16  1  0  0  0  0
 17 18  2  0  0  0  0
 18 19  1  0  0  0  0
 19 20  1  0  0  0  0
 20 25  1  0  0  0  0
 20 26  1  0  0  0  0
 21 20  1  0  0  0  0
 21 27  1  0  0  0  0
 22 29  1  0  0  0  0
 22 21  1  0  0  0  0
 23 22  1  0  0  0  0
 24 23  1  0  0  0  0
 24 18  1  0  0  0  0
 24 34  1  0  0  0  0
 28 21  1  0  0  0  0
 30 22  1  0  0  0  0
 31 23  1  0  0  0  0
 32 23  1  0  0  0  0
 33 24  1  0  0  0  0
 35  2  1  0  0  0  0
 36 35  1  0  0  0  0
 36 41  1  0  0  0  0
 37 36  2  0  0  0  0
 38 39  2  0  0  0  0
 38 37  1  0  0  0  0
 39 40  1  0  0  0  0
 40 44  1  0  0  0  0
 40 35  2  0  0  0  0
 42 37  1  0  0  0  0
 43 38  1  0  0  0  0
 45 47  1  0  0  0  0
 45 39  1  0  0  0  0
 45 46  1  0  0  0  0
 48 45  1  0  0  0  0
 49 48  1  0  0  0  0
 50 49  2  0  0  0  0
 51 56  1  0  0  0  0
 51 49  1  0  0  0  0
 52 51  2  0  0  0  0
 53 54  2  0  0  0  0
 53 52  1  0  0  0  0
 54 55  1  0  0  0  0
 55 62  1  0  0  0  0
 55 56  2  0  0  0  0
 56 57  1  0  0  0  0
 57 48  1  0  0  0  0
 57 58  2  0  0  0  0
 59 52  1  0  0  0  0
 60 53  1  0  0  0  0
 61 54  1  0  0  0  0
M  END
>  <MODEL>
8

>  <REMARK>
 VINA RESULT:    -9.145      2.042      3.673
 INTER + INTRA:         -12.246
 INTER:                 -11.691
 INTRA:                  -0.555
 UNBOUND:                -0.429
  Name = 
  5 active torsions:
  status: ('A' for Active; 'I' for Inactive)
    1  A    between atoms: C_2  and  C_20
    2  A    between atoms: N_3  and  C_4
    3  A    between atoms: C_8  and  C_9
    4  A    between atoms: C_24  and  C_25
    5  A    between atoms: C_25  and  N_26
                            x       y       z     vdW  Elec       q    Type
                         _______ _______ _______ _____ _____    ______ ____

>  <TORSDO>
F 5

$$$$
=
 OpenBabel07192307433D

 62 67  0  0  0  0  0  0  0  0999 V2000
    1.9880    8.1120   19.5920 O   0  0  0  0  0  0  0  0  0  0  0  0
    1.5090    7.3410   20.4150 C   0  0  0  0  0  0  0  0  0  0  0  0
    0.6100    7.6610   21.4150 N   0  0  0  0  0  0  0  0  0  0  0  0
    0.1840    6.8890   21.9150 H   0  0  0  0  0  0  0  0  0  0  0  0
    0.1190    8.9400   21.7500 C   0  0  0  0  0  0  0  0  0  0  0  0
   -0.4620    9.2600   22.9790 C   0  0  0  0  0  0  0  0  0  0  0  0
   -0.9320   10.5530   23.2250 C   0  0  0  0  0  0  0  0  0  0  0  0
   -0.8110   11.5420   22.2480 C   0  0  0  0  0  0  0  0  0  0  0  0
   -0.2190   11.2410   21.0200 C   0  0  0  0  0  0  0  0  0  0  0  0
    0.2200    9.9350   20.7690 C   0  0  0  0  0  0  0  0  0  0  0  0
   -0.5830    8.5160   23.7640 H   0  0  0  0  0  0  0  0  0  0  0  0
   -1.4020   10.7830   24.1780 H   0  0  0  0  0  0  0  0  0  0  0  0
   -1.1910   12.5400   22.4490 H   0  0  0  0  0  0  0  0  0  0  0  0
    0.6520    9.7080   19.7970 H   0  0  0  0  0  0  0  0  0  0  0  0
   -0.0540   12.2560   19.9870 C   0  0  0  0  0  0  0  0  0  0  0  0
   -0.5900   12.2150   18.7830 N   0  0  0  0  0  0  0  0  0  0  0  0
   -0.1530   13.3060   18.0750 N   0  0  0  0  0  0  0  0  0  0  0  0
    0.6600   13.9900   18.8430 C   0  0  0  0  0  0  0  0  0  0  0  0
    0.7540   13.3660   20.0600 N   0  0  0  0  0  0  0  0  0  0  0  0
    1.6280   13.7650   21.1370 C   0  0  0  0  0  0  0  0  0  0  0  0
    3.1100   13.7530   20.7510 C   0  0  0  0  0  0  0  0  0  0  0  0
    3.5370   14.9370   19.8820 C   0  0  0  0  0  0  0  0  0  0  0  0
    2.9270   14.9700   18.4800 C   0  0  0  0  0  0  0  0  0  0  0  0
    1.4180   15.2100   18.4660 C   0  0  0  0  0  0  0  0  0  0  0  0
    1.3100   14.7630   21.4670 H   0  0  0  0  0  0  0  0  0  0  0  0
    1.4810   13.0820   21.9810 H   0  0  0  0  0  0  0  0  0  0  0  0
    3.7050   13.7910   21.6750 H   0  0  0  0  0  0  0  0  0  0  0  0
    3.3690   12.8100   20.2460 H   0  0  0  0  0  0  0  0  0  0  0  0
    3.3270   15.8790   20.4040 H   0  0  0  0  0  0  0  0  0  0  0  0
    4.6280   14.8940   19.7690 H   0  0  0  0  0  0  0  0  0  0  0  0
    3.1760   14.0460   17.9440 H   0  0  0  0  0  0  0  0  0  0  0  0
    3.4060   15.7920   17.9330 H   0  0  0  0  0  0  0  0  0  0  0  0
    1.1210   15.4940   17.4470 H   0  0  0  0  0  0  0  0  0  0  0  0
    1.1420   16.0470   19.1220 H   0  0  0  0  0  0  0  0  0  0  0  0
    1.8320    5.8850   20.3100 C   0  0  0  0  0  0  0  0  0  0  0  0
    0.8420    4.8980   20.3950 C   0  0  0  0  0  0  0  0  0  0  0  0
    1.1810    3.5540   20.2070 C   0  0  0  0  0  0  0  0  0  0  0  0
    2.5040    3.1920   19.9560 C   0  0  0  0  0  0  0  0  0  0  0  0
    3.5190    4.1620   19.9220 C   0  0  0  0  0  0  0  0  0  0  0  0
    3.1680    5.5120   20.1000 C   0  0  0  0  0  0  0  0  0  0  0  0
   -0.1920    5.1530   20.6130 H   0  0  0  0  0  0  0  0  0  0  0  0
    0.4120    2.7850   20.2500 H   0  0  0  0  0  0  0  0  0  0  0  0
    2.7330    2.1430   19.7820 H   0  0  0  0  0  0  0  0  0  0  0  0
    3.9340    6.2860   20.0600 H   0  0  0  0  0  0  0  0  0  0  0  0
    4.9570    3.7900   19.6350 C   0  0  0  0  0  0  0  0  0  0  0  0
    5.6060    4.3790   20.2920 H   0  0  0  0  0  0  0  0  0  0  0  0
    5.1230    2.7300   19.8630 H   0  0  0  0  0  0  0  0  0  0  0  0
    5.3390    4.0110   18.2550 N   0  0  0  0  0  0  0  0  0  0  0  0
    6.4910    4.6380   17.8700 C   0  0  0  0  0  0  0  0  0  0  0  0
    7.3670    5.1240   18.5560 O   0  0  0  0  0  0  0  0  0  0  0  0
    6.4970    4.6430   16.4080 C   0  0  0  0  0  0  0  0  0  0  0  0
    7.4240    5.1530   15.5190 C   0  0  0  0  0  0  0  0  0  0  0  0
    7.1520    5.0000   14.1560 C   0  0  0  0  0  0  0  0  0  0  0  0
    5.9740    4.3580   13.7210 C   0  0  0  0  0  0  0  0  0  0  0  0
    5.0490    3.8520   14.6440 C   0  0  0  0  0  0  0  0  0  0  0  0
    5.3440    4.0110   15.9840 C   0  0  0  0  0  0  0  0  0  0  0  0
    4.6040    3.5950   17.1780 C   0  0  0  0  0  0  0  0  0  0  0  0
    3.5560    2.9830   17.1470 O   0  0  0  0  0  0  0  0  0  0  0  0
    8.3250    5.6460   15.8710 H   0  0  0  0  0  0  0  0  0  0  0  0
    7.8570    5.3850   13.4190 H   0  0  0  0  0  0  0  0  0  0  0  0
    5.7810    4.2540   12.6570 H   0  0  0  0  0  0  0  0  0  0  0  0
    4.1380    3.3570   14.3260 H   0  0  0  0  0  0  0  0  0  0  0  0
  1  2  2  0  0  0  0
  2  3  1  0  0  0  0
  3  5  1  0  0  0  0
  3  4  1  0  0  0  0
  5  6  1  0  0  0  0
  6  7  2  0  0  0  0
  6 11  1  0  0  0  0
  7 12  1  0  0  0  0
  8 13  1  0  0  0  0
  8  7  1  0  0  0  0
  9  8  2  0  0  0  0
 10  9  1  0  0  0  0
 10  5  2  0  0  0  0
 14 10  1  0  0  0  0
 15 19  1  0  0  0  0
 15  9  1  0  0  0  0
 16 15  2  0  0  0  0
 17 16  1  0  0  0  0
 17 18  2  0  0  0  0
 18 19  1  0  0  0  0
 19 20  1  0  0  0  0
 20 25  1  0  0  0  0
 20 26  1  0  0  0  0
 21 20  1  0  0  0  0
 21 27  1  0  0  0  0
 22 29  1  0  0  0  0
 22 21  1  0  0  0  0
 23 22  1  0  0  0  0
 24 23  1  0  0  0  0
 24 18  1  0  0  0  0
 24 34  1  0  0  0  0
 28 21  1  0  0  0  0
 30 22  1  0  0  0  0
 31 23  1  0  0  0  0
 32 23  1  0  0  0  0
 33 24  1  0  0  0  0
 35 36  1  0  0  0  0
 35  2  1  0  0  0  0
 36 41  1  0  0  0  0
 37 42  1  0  0  0  0
 37 36  2  0  0  0  0
 38 37  1  0  0  0  0
 39 38  2  0  0  0  0
 39 40  1  0  0  0  0
 40 35  2  0  0  0  0
 43 38  1  0  0  0  0
 44 40  1  0  0  0  0
 45 47  1  0  0  0  0
 45 39  1  0  0  0  0
 45 46  1  0  0  0  0
 48 45  1  0  0  0  0
 49 48  1  0  0  0  0
 49 50  2  0  0  0  0
 51 49  1  0  0  0  0
 52 59  1  0  0  0  0
 52 51  2  0  0  0  0
 53 52  1  0  0  0  0
 54 53  2  0  0  0  0
 54 55  1  0  0  0  0
 55 56  2  0  0  0  0
 56 51  1  0  0  0  0
 56 57  1  0  0  0  0
 57 48  1  0  0  0  0
 58 57  2  0  0  0  0
 60 53  1  0  0  0  0
 61 54  1  0  0  0  0
 62 55  1  0  0  0  0
M  END
>  <MODEL>
9

>  <REMARK>
 VINA RESULT:    -9.056      2.002      3.365
 INTER + INTRA:         -12.131
 INTER:                 -12.162
 INTRA:                   0.031
 UNBOUND:                -0.429
  Name = 
  5 active torsions:
  status: ('A' for Active; 'I' for Inactive)
    1  A    between atoms: C_2  and  C_20
    2  A    between atoms: N_3  and  C_4
    3  A    between atoms: C_8  and  C_9
    4  A    between atoms: C_24  and  C_25
    5  A    between atoms: C_25  and  N_26
                            x       y       z     vdW  Elec       q    Type
                         _______ _______ _______ _____ _____    ______ ____

>  <TORSDO>
F 5

$$$$
=
 OpenBabel07192307433D

 62 67  0  0  0  0  0  0  0  0999 V2000
    1.4970    7.7640   21.4740 O   0  0  0  0  0  0  0  0  0  0  0  0
    1.6110    7.2300   20.3770 C   0  0  0  0  0  0  0  0  0  0  0  0
    1.6930    7.8720   19.1550 N   0  0  0  0  0  0  0  0  0  0  0  0
    1.9440    7.3050   18.3540 H   0  0  0  0  0  0  0  0  0  0  0  0
    1.5870    9.2550   18.9050 C   0  0  0  0  0  0  0  0  0  0  0  0
    2.4850    9.9820   18.1200 C   0  0  0  0  0  0  0  0  0  0  0  0
    2.3100   11.3550   17.9310 C   0  0  0  0  0  0  0  0  0  0  0  0
    1.2240   12.0120   18.5120 C   0  0  0  0  0  0  0  0  0  0  0  0
    0.3090   11.2960   19.2860 C   0  0  0  0  0  0  0  0  0  0  0  0
    0.5100    9.9260   19.4990 C   0  0  0  0  0  0  0  0  0  0  0  0
    3.3490    9.5090   17.6570 H   0  0  0  0  0  0  0  0  0  0  0  0
    3.0290   11.9130   17.3350 H   0  0  0  0  0  0  0  0  0  0  0  0
    1.1070   13.0820   18.3650 H   0  0  0  0  0  0  0  0  0  0  0  0
   -0.1950    9.3880   20.1280 H   0  0  0  0  0  0  0  0  0  0  0  0
   -0.8490   11.9450   19.8880 C   0  0  0  0  0  0  0  0  0  0  0  0
   -0.9440   12.3250   21.1460 N   0  0  0  0  0  0  0  0  0  0  0  0
   -2.2030   12.8300   21.3550 N   0  0  0  0  0  0  0  0  0  0  0  0
   -2.8700   12.7350   20.2300 C   0  0  0  0  0  0  0  0  0  0  0  0
   -2.0570   12.1820   19.2750 N   0  0  0  0  0  0  0  0  0  0  0  0
   -2.4630   11.8300   17.9350 C   0  0  0  0  0  0  0  0  0  0  0  0
   -3.6010   10.8060   17.8970 C   0  0  0  0  0  0  0  0  0  0  0  0
   -4.9760   11.3900   18.2270 C   0  0  0  0  0  0  0  0  0  0  0  0
   -5.1470   11.8810   19.6650 C   0  0  0  0  0  0  0  0  0  0  0  0
   -4.2920   13.1000   20.0100 C   0  0  0  0  0  0  0  0  0  0  0  0
   -2.7440   12.7580   17.4210 H   0  0  0  0  0  0  0  0  0  0  0  0
   -1.6000   11.4130   17.4040 H   0  0  0  0  0  0  0  0  0  0  0  0
   -3.6550   10.3920   16.8790 H   0  0  0  0  0  0  0  0  0  0  0  0
   -3.3850    9.9630   18.5710 H   0  0  0  0  0  0  0  0  0  0  0  0
   -5.2180   12.1970   17.5250 H   0  0  0  0  0  0  0  0  0  0  0  0
   -5.7240   10.6070   18.0520 H   0  0  0  0  0  0  0  0  0  0  0  0
   -4.9470   11.0600   20.3650 H   0  0  0  0  0  0  0  0  0  0  0  0
   -6.2010   12.1580   19.7950 H   0  0  0  0  0  0  0  0  0  0  0  0
   -4.6770   13.5430   20.9390 H   0  0  0  0  0  0  0  0  0  0  0  0
   -4.3710   13.8740   19.2340 H   0  0  0  0  0  0  0  0  0  0  0  0
    1.7670    5.7440   20.3120 C   0  0  0  0  0  0  0  0  0  0  0  0
    0.6730    4.8780   20.4190 C   0  0  0  0  0  0  0  0  0  0  0  0
    0.8580    3.5000   20.2670 C   0  0  0  0  0  0  0  0  0  0  0  0
    2.1320    2.9840   20.0300 C   0  0  0  0  0  0  0  0  0  0  0  0
    3.2490    3.8330   19.9740 C   0  0  0  0  0  0  0  0  0  0  0  0
    3.0530    5.2170   20.1160 C   0  0  0  0  0  0  0  0  0  0  0  0
   -0.3260    5.2530   20.6270 H   0  0  0  0  0  0  0  0  0  0  0  0
    0.0070    2.8240   20.3280 H   0  0  0  0  0  0  0  0  0  0  0  0
    2.2410    1.9120   19.8840 H   0  0  0  0  0  0  0  0  0  0  0  0
    3.9020    5.8990   20.0580 H   0  0  0  0  0  0  0  0  0  0  0  0
    4.6360    3.2930   19.7020 C   0  0  0  0  0  0  0  0  0  0  0  0
    5.3150    3.6700   20.4750 H   0  0  0  0  0  0  0  0  0  0  0  0
    4.6330    2.1980   19.7650 H   0  0  0  0  0  0  0  0  0  0  0  0
    5.1450    3.6590   18.3960 N   0  0  0  0  0  0  0  0  0  0  0  0
    4.6300    3.2000   17.2160 C   0  0  0  0  0  0  0  0  0  0  0  0
    3.7110    2.4290   17.0270 O   0  0  0  0  0  0  0  0  0  0  0  0
    5.4170    3.8140   16.1470 C   0  0  0  0  0  0  0  0  0  0  0  0
    5.3170    3.6850   14.7750 C   0  0  0  0  0  0  0  0  0  0  0  0
    6.2240    4.4120   13.9980 C   0  0  0  0  0  0  0  0  0  0  0  0
    7.1980    5.2330   14.6030 C   0  0  0  0  0  0  0  0  0  0  0  0
    7.2790    5.3450   15.9970 C   0  0  0  0  0  0  0  0  0  0  0  0
    6.3690    4.6200   16.7420 C   0  0  0  0  0  0  0  0  0  0  0  0
    6.1850    4.5260   18.1910 C   0  0  0  0  0  0  0  0  0  0  0  0
    6.8480    5.1430   19.0010 O   0  0  0  0  0  0  0  0  0  0  0  0
    4.5620    3.0460   14.3270 H   0  0  0  0  0  0  0  0  0  0  0  0
    6.1790    4.3430   12.9120 H   0  0  0  0  0  0  0  0  0  0  0  0
    7.8950    5.7860   13.9790 H   0  0  0  0  0  0  0  0  0  0  0  0
    8.0240    5.9690   16.4770 H   0  0  0  0  0  0  0  0  0  0  0  0
  2  1  2  0  0  0  0
  3  2  1  0  0  0  0
  4  3  1  0  0  0  0
  5  3  1  0  0  0  0
  5 10  1  0  0  0  0
  6  5  2  0  0  0  0
  7  6  1  0  0  0  0
  7  8  2  0  0  0  0
  8  9  1  0  0  0  0
  9 10  2  0  0  0  0
  9 15  1  0  0  0  0
 10 14  1  0  0  0  0
 11  6  1  0  0  0  0
 12  7  1  0  0  0  0
 13  8  1  0  0  0  0
 15 16  2  0  0  0  0
 16 17  1  0  0  0  0
 18 17  2  0  0  0  0
 19 15  1  0  0  0  0
 19 18  1  0  0  0  0
 20 19  1  0  0  0  0
 21 20  1  0  0  0  0
 21 22  1  0  0  0  0
 21 28  1  0  0  0  0
 22 23  1  0  0  0  0
 23 32  1  0  0  0  0
 23 24  1  0  0  0  0
 23 31  1  0  0  0  0
 24 18  1  0  0  0  0
 24 33  1  0  0  0  0
 25 20  1  0  0  0  0
 26 20  1  0  0  0  0
 27 21  1  0  0  0  0
 29 22  1  0  0  0  0
 30 22  1  0  0  0  0
 34 24  1  0  0  0  0
 35  2  1  0  0  0  0
 35 36  1  0  0  0  0
 36 41  1  0  0  0  0
 37 42  1  0  0  0  0
 37 36  2  0  0  0  0
 38 37  1  0  0  0  0
 39 38  2  0  0  0  0
 39 40  1  0  0  0  0
 40 35  2  0  0  0  0
 43 38  1  0  0  0  0
 44 40  1  0  0  0  0
 45 47  1  0  0  0  0
 45 39  1  0  0  0  0
 45 46  1  0  0  0  0
 48 45  1  0  0  0  0
 49 48  1  0  0  0  0
 50 49  2  0  0  0  0
 51 56  1  0  0  0  0
 51 49  1  0  0  0  0
 52 51  2  0  0  0  0
 53 54  2  0  0  0  0
 53 52  1  0  0  0  0
 54 55  1  0  0  0  0
 55 62  1  0  0  0  0
 55 56  2  0  0  0  0
 56 57  1  0  0  0  0
 57 48  1  0  0  0  0
 57 58  2  0  0  0  0
 59 52  1  0  0  0  0
 60 53  1  0  0  0  0
 61 54  1  0  0  0  0
M  END
>  <MODEL>
10

>  <REMARK>
 VINA RESULT:    -9.007      1.749      2.869
 INTER + INTRA:         -12.068
 INTER:                 -10.936
 INTRA:                  -1.131
 UNBOUND:                -0.429
  Name = 
  5 active torsions:
  status: ('A' for Active; 'I' for Inactive)
    1  A    between atoms: C_2  and  C_20
    2  A    between atoms: N_3  and  C_4
    3  A    between atoms: C_8  and  C_9
    4  A    between atoms: C_24  and  C_25
    5  A    between atoms: C_25  and  N_26
                            x       y       z     vdW  Elec       q    Type
                         _______ _______ _______ _____ _____    ______ ____

>  <TORSDO>
F 5

$$$$
=
 OpenBabel07192307433D

 62 67  0  0  0  0  0  0  0  0999 V2000
    1.4860    7.7770   21.4970 O   0  0  0  0  0  0  0  0  0  0  0  0
    1.6050    7.2440   20.4000 C   0  0  0  0  0  0  0  0  0  0  0  0
    1.6860    7.8860   19.1780 N   0  0  0  0  0  0  0  0  0  0  0  0
    1.9410    7.3200   18.3770 H   0  0  0  0  0  0  0  0  0  0  0  0
    1.5720    9.2690   18.9280 C   0  0  0  0  0  0  0  0  0  0  0  0
    2.4500    9.9950   18.1200 C   0  0  0  0  0  0  0  0  0  0  0  0
    2.2690   11.3680   17.9330 C   0  0  0  0  0  0  0  0  0  0  0  0
    1.1960   12.0240   18.5380 C   0  0  0  0  0  0  0  0  0  0  0  0
    0.3010   11.3090   19.3340 C   0  0  0  0  0  0  0  0  0  0  0  0
    0.5080    9.9400   19.5450 C   0  0  0  0  0  0  0  0  0  0  0  0
    3.3040    9.5220   17.6380 H   0  0  0  0  0  0  0  0  0  0  0  0
    2.9740   11.9250   17.3190 H   0  0  0  0  0  0  0  0  0  0  0  0
    1.0750   13.0940   18.3910 H   0  0  0  0  0  0  0  0  0  0  0  0
   -0.1810    9.4020   20.1920 H   0  0  0  0  0  0  0  0  0  0  0  0
   -0.8430   11.9580   19.9610 C   0  0  0  0  0  0  0  0  0  0  0  0
   -0.9140   12.3320   21.2230 N   0  0  0  0  0  0  0  0  0  0  0  0
   -2.1670   12.8390   21.4580 N   0  0  0  0  0  0  0  0  0  0  0  0
   -2.8550   12.7520   20.3450 C   0  0  0  0  0  0  0  0  0  0  0  0
   -2.0620   12.2010   19.3730 N   0  0  0  0  0  0  0  0  0  0  0  0
   -2.4950   11.8570   18.0390 C   0  0  0  0  0  0  0  0  0  0  0  0
   -3.6360   10.8360   18.0180 C   0  0  0  0  0  0  0  0  0  0  0  0
   -5.0030   11.4220   18.3770 C   0  0  0  0  0  0  0  0  0  0  0  0
   -5.1450   11.9060   19.8210 C   0  0  0  0  0  0  0  0  0  0  0  0
   -4.2810   13.1210   20.1550 C   0  0  0  0  0  0  0  0  0  0  0  0
   -2.7840   12.7880   17.5350 H   0  0  0  0  0  0  0  0  0  0  0  0
   -1.6440   11.4400   17.4900 H   0  0  0  0  0  0  0  0  0  0  0  0
   -3.7110   10.4280   16.9990 H   0  0  0  0  0  0  0  0  0  0  0  0
   -3.4100    9.9890   18.6830 H   0  0  0  0  0  0  0  0  0  0  0  0
   -5.2560   12.2330   17.6840 H   0  0  0  0  0  0  0  0  0  0  0  0
   -5.7570   10.6420   18.2130 H   0  0  0  0  0  0  0  0  0  0  0  0
   -4.9350   11.0810   20.5120 H   0  0  0  0  0  0  0  0  0  0  0  0
   -6.1960   12.1850   19.9720 H   0  0  0  0  0  0  0  0  0  0  0  0
   -4.6470   13.5600   21.0940 H   0  0  0  0  0  0  0  0  0  0  0  0
   -4.3730   13.8990   19.3840 H   0  0  0  0  0  0  0  0  0  0  0  0
    1.7700    5.7590   20.3360 C   0  0  0  0  0  0  0  0  0  0  0  0
    0.6820    4.8860   20.4570 C   0  0  0  0  0  0  0  0  0  0  0  0
    0.8740    3.5090   20.3060 C   0  0  0  0  0  0  0  0  0  0  0  0
    2.1490    3.0010   20.0540 C   0  0  0  0  0  0  0  0  0  0  0  0
    3.2600    3.8560   19.9830 C   0  0  0  0  0  0  0  0  0  0  0  0
    3.0560    5.2400   20.1250 C   0  0  0  0  0  0  0  0  0  0  0  0
   -0.3160    5.2550   20.6770 H   0  0  0  0  0  0  0  0  0  0  0  0
    0.0280    2.8270   20.3780 H   0  0  0  0  0  0  0  0  0  0  0  0
    2.2630    1.9290   19.9090 H   0  0  0  0  0  0  0  0  0  0  0  0
    3.9000    5.9270   20.0560 H   0  0  0  0  0  0  0  0  0  0  0  0
    4.6470    3.3260   19.6950 C   0  0  0  0  0  0  0  0  0  0  0  0
    5.3310    3.7030   20.4640 H   0  0  0  0  0  0  0  0  0  0  0  0
    4.6500    2.2300   19.7540 H   0  0  0  0  0  0  0  0  0  0  0  0
    5.1410    3.7000   18.3860 N   0  0  0  0  0  0  0  0  0  0  0  0
    6.1830    4.5600   18.1760 C   0  0  0  0  0  0  0  0  0  0  0  0
    6.8560    5.1630   18.9870 O   0  0  0  0  0  0  0  0  0  0  0  0
    6.3640    4.6550   16.7280 C   0  0  0  0  0  0  0  0  0  0  0  0
    7.2700    5.3870   15.9860 C   0  0  0  0  0  0  0  0  0  0  0  0
    7.1990    5.2680   14.5940 C   0  0  0  0  0  0  0  0  0  0  0  0
    6.2340    4.4370   13.9880 C   0  0  0  0  0  0  0  0  0  0  0  0
    5.3250    3.7070   14.7640 C   0  0  0  0  0  0  0  0  0  0  0  0
    5.4180    3.8380   16.1360 C   0  0  0  0  0  0  0  0  0  0  0  0
    4.6390    3.2160   17.2080 C   0  0  0  0  0  0  0  0  0  0  0  0
    3.7450    2.4150   17.0200 O   0  0  0  0  0  0  0  0  0  0  0  0
    8.0060    6.0230   16.4690 H   0  0  0  0  0  0  0  0  0  0  0  0
    7.8970    5.8250   13.9700 H   0  0  0  0  0  0  0  0  0  0  0  0
    6.1960    4.3630   12.9050 H   0  0  0  0  0  0  0  0  0  0  0  0
    4.5750    3.0660   14.3130 H   0  0  0  0  0  0  0  0  0  0  0  0
  2  1  2  0  0  0  0
  3  2  1  0  0  0  0
  4  3  1  0  0  0  0
  5  3  1  0  0  0  0
  5 10  1  0  0  0  0
  6  5  2  0  0  0  0
  7  6  1  0  0  0  0
  7  8  2  0  0  0  0
  8  9  1  0  0  0  0
  9 10  2  0  0  0  0
  9 15  1  0  0  0  0
 10 14  1  0  0  0  0
 11  6  1  0  0  0  0
 12  7  1  0  0  0  0
 13  8  1  0  0  0  0
 15 16  2  0  0  0  0
 16 17  1  0  0  0  0
 18 17  2  0  0  0  0
 19 15  1  0  0  0  0
 19 18  1  0  0  0  0
 20 19  1  0  0  0  0
 21 20  1  0  0  0  0
 21 22  1  0  0  0  0
 21 28  1  0  0  0  0
 22 23  1  0  0  0  0
 23 32  1  0  0  0  0
 23 24  1  0  0  0  0
 23 31  1  0  0  0  0
 24 18  1  0  0  0  0
 24 33  1  0  0  0  0
 25 20  1  0  0  0  0
 26 20  1  0  0  0  0
 27 21  1  0  0  0  0
 29 22  1  0  0  0  0
 30 22  1  0  0  0  0
 34 24  1  0  0  0  0
 35  2  1  0  0  0  0
 35 36  1  0  0  0  0
 36 41  1  0  0  0  0
 37 42  1  0  0  0  0
 37 36  2  0  0  0  0
 38 37  1  0  0  0  0
 39 38  2  0  0  0  0
 39 40  1  0  0  0  0
 40 35  2  0  0  0  0
 43 38  1  0  0  0  0
 44 40  1  0  0  0  0
 45 47  1  0  0  0  0
 45 39  1  0  0  0  0
 45 46  1  0  0  0  0
 48 45  1  0  0  0  0
 49 48  1  0  0  0  0
 49 50  2  0  0  0  0
 51 49  1  0  0  0  0
 52 59  1  0  0  0  0
 52 51  2  0  0  0  0
 53 52  1  0  0  0  0
 54 53  2  0  0  0  0
 54 55  1  0  0  0  0
 55 56  2  0  0  0  0
 56 51  1  0  0  0  0
 56 57  1  0  0  0  0
 57 48  1  0  0  0  0
 58 57  2  0  0  0  0
 60 53  1  0  0  0  0
 61 54  1  0  0  0  0
 62 55  1  0  0  0  0
M  END
>  <MODEL>
11

>  <REMARK>
 VINA RESULT:    -9.006      1.715      2.460
 INTER + INTRA:         -12.067
 INTER:                 -10.917
 INTRA:                  -1.149
 UNBOUND:                -0.429
  Name = 
  5 active torsions:
  status: ('A' for Active; 'I' for Inactive)
    1  A    between atoms: C_2  and  C_20
    2  A    between atoms: N_3  and  C_4
    3  A    between atoms: C_8  and  C_9
    4  A    between atoms: C_24  and  C_25
    5  A    between atoms: C_25  and  N_26
                            x       y       z     vdW  Elec       q    Type
                         _______ _______ _______ _____ _____    ______ ____

>  <TORSDO>
F 5

$$$$
=
 OpenBabel07192307433D

 62 67  0  0  0  0  0  0  0  0999 V2000
    2.3520    8.2580   18.5270 O   0  0  0  0  0  0  0  0  0  0  0  0
    1.9590    7.8190   19.6020 C   0  0  0  0  0  0  0  0  0  0  0  0
    1.2330    8.5090   20.5550 N   0  0  0  0  0  0  0  0  0  0  0  0
    0.8450    7.9670   21.3190 H   0  0  0  0  0  0  0  0  0  0  0  0
    0.8620    9.8690   20.5330 C   0  0  0  0  0  0  0  0  0  0  0  0
    1.6880   10.9140   20.9510 C   0  0  0  0  0  0  0  0  0  0  0  0
    1.2370   12.2360   20.9050 C   0  0  0  0  0  0  0  0  0  0  0  0
   -0.0400   12.5260   20.4220 C   0  0  0  0  0  0  0  0  0  0  0  0
   -0.8720   11.4930   19.9850 C   0  0  0  0  0  0  0  0  0  0  0  0
   -0.4240   10.1680   20.0660 C   0  0  0  0  0  0  0  0  0  0  0  0
    2.6870   10.7300   21.3430 H   0  0  0  0  0  0  0  0  0  0  0  0
    1.8830   13.0380   21.2550 H   0  0  0  0  0  0  0  0  0  0  0  0
   -0.3810   13.5570   20.4010 H   0  0  0  0  0  0  0  0  0  0  0  0
   -1.0950    9.3720   19.7490 H   0  0  0  0  0  0  0  0  0  0  0  0
   -2.2010   11.7620   19.4520 C   0  0  0  0  0  0  0  0  0  0  0  0
   -3.2710   12.0360   20.1710 N   0  0  0  0  0  0  0  0  0  0  0  0
   -4.3450   12.1590   19.3250 N   0  0  0  0  0  0  0  0  0  0  0  0
   -3.9250   11.9400   18.1030 C   0  0  0  0  0  0  0  0  0  0  0  0
   -2.5780   11.6840   18.1320 N   0  0  0  0  0  0  0  0  0  0  0  0
   -1.7760   11.3030   16.9950 C   0  0  0  0  0  0  0  0  0  0  0  0
   -2.2460   10.0060   16.3300 C   0  0  0  0  0  0  0  0  0  0  0  0
   -3.5010   10.1660   15.4700 C   0  0  0  0  0  0  0  0  0  0  0  0
   -4.7770   10.5150   16.2380 C   0  0  0  0  0  0  0  0  0  0  0  0
   -4.7570   11.9050   16.8730 C   0  0  0  0  0  0  0  0  0  0  0  0
   -1.7880   12.1410   16.2860 H   0  0  0  0  0  0  0  0  0  0  0  0
   -0.7390   11.1710   17.3240 H   0  0  0  0  0  0  0  0  0  0  0  0
   -1.4410    9.6460   15.6730 H   0  0  0  0  0  0  0  0  0  0  0  0
   -2.4120    9.2230   17.0860 H   0  0  0  0  0  0  0  0  0  0  0  0
   -3.3230   10.9090   14.6830 H   0  0  0  0  0  0  0  0  0  0  0  0
   -3.6760    9.2160   14.9510 H   0  0  0  0  0  0  0  0  0  0  0  0
   -4.9770    9.7470   16.9950 H   0  0  0  0  0  0  0  0  0  0  0  0
   -5.6100   10.4810   15.5230 H   0  0  0  0  0  0  0  0  0  0  0  0
   -5.7860   12.1740   17.1510 H   0  0  0  0  0  0  0  0  0  0  0  0
   -4.4120   12.6650   16.1580 H   0  0  0  0  0  0  0  0  0  0  0  0
    2.1870    6.3760   19.9170 C   0  0  0  0  0  0  0  0  0  0  0  0
    1.1750    5.5610   20.4380 C   0  0  0  0  0  0  0  0  0  0  0  0
    1.4120    4.1970   20.6380 C   0  0  0  0  0  0  0  0  0  0  0  0
    2.6600    3.6500   20.3390 C   0  0  0  0  0  0  0  0  0  0  0  0
    3.7040    4.4620   19.8670 C   0  0  0  0  0  0  0  0  0  0  0  0
    3.4540    5.8290   19.6580 C   0  0  0  0  0  0  0  0  0  0  0  0
    0.2020    5.9680   20.7010 H   0  0  0  0  0  0  0  0  0  0  0  0
    0.6210    3.5550   21.0220 H   0  0  0  0  0  0  0  0  0  0  0  0
    2.8060    2.5810   20.4730 H   0  0  0  0  0  0  0  0  0  0  0  0
    4.2420    6.4770   19.2750 H   0  0  0  0  0  0  0  0  0  0  0  0
    5.0580    3.8830   19.5220 C   0  0  0  0  0  0  0  0  0  0  0  0
    5.8140    4.3680   20.1500 H   0  0  0  0  0  0  0  0  0  0  0  0
    5.0770    2.8090   19.7460 H   0  0  0  0  0  0  0  0  0  0  0  0
    5.4120    4.0500   18.1270 N   0  0  0  0  0  0  0  0  0  0  0  0
    6.5610    4.6500   17.6940 C   0  0  0  0  0  0  0  0  0  0  0  0
    7.4580    5.1510   18.3420 O   0  0  0  0  0  0  0  0  0  0  0  0
    6.5350    4.6020   16.2330 C   0  0  0  0  0  0  0  0  0  0  0  0
    7.4460    5.0700   15.3050 C   0  0  0  0  0  0  0  0  0  0  0  0
    7.1420    4.8710   13.9550 C   0  0  0  0  0  0  0  0  0  0  0  0
    5.9480    4.2260   13.5700 C   0  0  0  0  0  0  0  0  0  0  0  0
    5.0390    3.7630   14.5310 C   0  0  0  0  0  0  0  0  0  0  0  0
    5.3650    3.9670   15.8580 C   0  0  0  0  0  0  0  0  0  0  0  0
    4.6490    3.6030   17.0820 C   0  0  0  0  0  0  0  0  0  0  0  0
    3.5940    3.0010   17.0970 O   0  0  0  0  0  0  0  0  0  0  0  0
    8.3600    5.5660   15.6190 H   0  0  0  0  0  0  0  0  0  0  0  0
    7.8340    5.2210   13.1900 H   0  0  0  0  0  0  0  0  0  0  0  0
    5.7310    4.0860   12.5150 H   0  0  0  0  0  0  0  0  0  0  0  0
    4.1160    3.2670   14.2520 H   0  0  0  0  0  0  0  0  0  0  0  0
  1  2  2  0  0  0  0
  2 35  1  0  0  0  0
  2  3  1  0  0  0  0
  3  4  1  0  0  0  0
  5  3  1  0  0  0  0
  5  6  1  0  0  0  0
  6 11  1  0  0  0  0
  7  6  2  0  0  0  0
  7 12  1  0  0  0  0
  8  7  1  0  0  0  0
  9 10  1  0  0  0  0
  9  8  2  0  0  0  0
 10  5  2  0  0  0  0
 13  8  1  0  0  0  0
 14 10  1  0  0  0  0
 15  9  1  0  0  0  0
 15 16  2  0  0  0  0
 17 16  1  0  0  0  0
 18 19  1  0  0  0  0
 18 17  2  0  0  0  0
 19 15  1  0  0  0  0
 20 26  1  0  0  0  0
 20 19  1  0  0  0  0
 21 20  1  0  0  0  0
 21 28  1  0  0  0  0
 22 23  1  0  0  0  0
 22 21  1  0  0  0  0
 23 24  1  0  0  0  0
 23 31  1  0  0  0  0
 24 33  1  0  0  0  0
 24 18  1  0  0  0  0
 25 20  1  0  0  0  0
 27 21  1  0  0  0  0
 29 22  1  0  0  0  0
 30 22  1  0  0  0  0
 32 23  1  0  0  0  0
 34 24  1  0  0  0  0
 35 36  1  0  0  0  0
 36 37  2  0  0  0  0
 36 41  1  0  0  0  0
 37 42  1  0  0  0  0
 38 43  1  0  0  0  0
 38 37  1  0  0  0  0
 39 38  2  0  0  0  0
 40 39  1  0  0  0  0
 40 35  2  0  0  0  0
 44 40  1  0  0  0  0
 45 47  1  0  0  0  0
 45 39  1  0  0  0  0
 45 46  1  0  0  0  0
 48 45  1  0  0  0  0
 49 48  1  0  0  0  0
 49 50  2  0  0  0  0
 51 49  1  0  0  0  0
 52 59  1  0  0  0  0
 52 51  2  0  0  0  0
 53 52  1  0  0  0  0
 54 53  2  0  0  0  0
 54 55  1  0  0  0  0
 55 56  2  0  0  0  0
 56 51  1  0  0  0  0
 56 57  1  0  0  0  0
 57 58  2  0  0  0  0
 57 48  1  0  0  0  0
 60 53  1  0  0  0  0
 61 54  1  0  0  0  0
 62 55  1  0  0  0  0
M  END
>  <MODEL>
12

>  <REMARK>
 VINA RESULT:    -8.926      1.888      3.083
 INTER + INTRA:         -11.963
 INTER:                 -10.869
 INTRA:                  -1.094
 UNBOUND:                -0.429
  Name = 
  5 active torsions:
  status: ('A' for Active; 'I' for Inactive)
    1  A    between atoms: C_2  and  C_20
    2  A    between atoms: N_3  and  C_4
    3  A    between atoms: C_8  and  C_9
    4  A    between atoms: C_24  and  C_25
    5  A    between atoms: C_25  and  N_26
                            x       y       z     vdW  Elec       q    Type
                         _______ _______ _______ _____ _____    ______ ____

>  <TORSDO>
F 5

$$$$
=
 OpenBabel07192307433D

 62 67  0  0  0  0  0  0  0  0999 V2000
    1.2950    8.9340   21.7650 O   0  0  0  0  0  0  0  0  0  0  0  0
    1.1950    9.0290   20.5480 C   0  0  0  0  0  0  0  0  0  0  0  0
    1.5230    8.0600   19.6180 N   0  0  0  0  0  0  0  0  0  0  0  0
    1.2370    8.2260   18.6600 H   0  0  0  0  0  0  0  0  0  0  0  0
    2.1070    6.8000   19.8620 C   0  0  0  0  0  0  0  0  0  0  0  0
    1.5040    5.7870   20.6100 C   0  0  0  0  0  0  0  0  0  0  0  0
    2.1590    4.5690   20.8120 C   0  0  0  0  0  0  0  0  0  0  0  0
    3.4190    4.3480   20.2520 C   0  0  0  0  0  0  0  0  0  0  0  0
    4.0280    5.3450   19.4890 C   0  0  0  0  0  0  0  0  0  0  0  0
    3.3790    6.5750   19.3190 C   0  0  0  0  0  0  0  0  0  0  0  0
    0.5270    5.9230   21.0710 H   0  0  0  0  0  0  0  0  0  0  0  0
    1.6870    3.7970   21.4150 H   0  0  0  0  0  0  0  0  0  0  0  0
    3.9200    3.4010   20.4270 H   0  0  0  0  0  0  0  0  0  0  0  0
    3.8790    7.3530   18.7460 H   0  0  0  0  0  0  0  0  0  0  0  0
    5.3310    5.1390   18.8710 C   0  0  0  0  0  0  0  0  0  0  0  0
    6.4820    5.5640   19.3520 N   0  0  0  0  0  0  0  0  0  0  0  0
    7.4730    5.2420   18.4600 N   0  0  0  0  0  0  0  0  0  0  0  0
    6.9170    4.6420   17.4350 C   0  0  0  0  0  0  0  0  0  0  0  0
    5.5660    4.5550   17.6480 N   0  0  0  0  0  0  0  0  0  0  0  0
    4.6040    4.0450   16.7010 C   0  0  0  0  0  0  0  0  0  0  0  0
    4.5830    4.8210   15.3810 C   0  0  0  0  0  0  0  0  0  0  0  0
    5.7560    4.5020   14.4530 C   0  0  0  0  0  0  0  0  0  0  0  0
    7.1300    4.9410   14.9650 C   0  0  0  0  0  0  0  0  0  0  0  0
    7.6030    4.1780   16.2020 C   0  0  0  0  0  0  0  0  0  0  0  0
    4.8320    2.9840   16.5370 H   0  0  0  0  0  0  0  0  0  0  0  0
    3.6060    4.0960   17.1520 H   0  0  0  0  0  0  0  0  0  0  0  0
    3.6590    4.5590   14.8440 H   0  0  0  0  0  0  0  0  0  0  0  0
    4.5430    5.9040   15.5700 H   0  0  0  0  0  0  0  0  0  0  0  0
    5.7690    3.4300   14.2200 H   0  0  0  0  0  0  0  0  0  0  0  0
    5.5790    5.0140   13.4990 H   0  0  0  0  0  0  0  0  0  0  0  0
    7.1280    6.0220   15.1550 H   0  0  0  0  0  0  0  0  0  0  0  0
    7.8530    4.7630   14.1590 H   0  0  0  0  0  0  0  0  0  0  0  0
    8.6810    4.3530   16.3260 H   0  0  0  0  0  0  0  0  0  0  0  0
    7.4690    3.0950   16.0760 H   0  0  0  0  0  0  0  0  0  0  0  0
    0.5830   10.2650   19.9700 C   0  0  0  0  0  0  0  0  0  0  0  0
   -0.4710   10.2090   19.0490 C   0  0  0  0  0  0  0  0  0  0  0  0
   -1.0670   11.3920   18.6000 C   0  0  0  0  0  0  0  0  0  0  0  0
   -0.6020   12.6270   19.0520 C   0  0  0  0  0  0  0  0  0  0  0  0
    0.4890   12.7050   19.9320 C   0  0  0  0  0  0  0  0  0  0  0  0
    1.0740   11.5110   20.3870 C   0  0  0  0  0  0  0  0  0  0  0  0
   -0.8350    9.2600   18.6640 H   0  0  0  0  0  0  0  0  0  0  0  0
   -1.9000   11.3540   17.9010 H   0  0  0  0  0  0  0  0  0  0  0  0
   -1.1060   13.5290   18.7110 H   0  0  0  0  0  0  0  0  0  0  0  0
    1.9110   11.5430   21.0860 H   0  0  0  0  0  0  0  0  0  0  0  0
    0.9960   14.0350   20.4450 C   0  0  0  0  0  0  0  0  0  0  0  0
    0.3470   14.8280   20.0580 H   0  0  0  0  0  0  0  0  0  0  0  0
    0.9390   14.0620   21.5400 H   0  0  0  0  0  0  0  0  0  0  0  0
    2.3670   14.3080   20.0660 N   0  0  0  0  0  0  0  0  0  0  0  0
    2.8140   14.3400   18.7750 C   0  0  0  0  0  0  0  0  0  0  0  0
    2.2020   14.1440   17.7450 O   0  0  0  0  0  0  0  0  0  0  0  0
    4.2400   14.6570   18.8330 C   0  0  0  0  0  0  0  0  0  0  0  0
    5.1660   14.8050   17.8180 C   0  0  0  0  0  0  0  0  0  0  0  0
    6.4770   15.1180   18.1900 C   0  0  0  0  0  0  0  0  0  0  0  0
    6.8270   15.2670   19.5480 C   0  0  0  0  0  0  0  0  0  0  0  0
    5.8690   15.1090   20.5580 C   0  0  0  0  0  0  0  0  0  0  0  0
    4.5810   14.8050   20.1640 C   0  0  0  0  0  0  0  0  0  0  0  0
    3.3680   14.5890   20.9560 C   0  0  0  0  0  0  0  0  0  0  0  0
    3.3240   14.6790   22.1670 O   0  0  0  0  0  0  0  0  0  0  0  0
    4.8790   14.6850   16.7770 H   0  0  0  0  0  0  0  0  0  0  0  0
    7.2390   15.2470   17.4210 H   0  0  0  0  0  0  0  0  0  0  0  0
    7.8530   15.5060   19.8140 H   0  0  0  0  0  0  0  0  0  0  0  0
    6.1230   15.2180   21.6070 H   0  0  0  0  0  0  0  0  0  0  0  0
  2  1  2  0  0  0  0
  3  5  1  0  0  0  0
  3  2  1  0  0  0  0
  4  3  1  0  0  0  0
  5  6  1  0  0  0  0
  6  7  2  0  0  0  0
  6 11  1  0  0  0  0
  7 12  1  0  0  0  0
  8 13  1  0  0  0  0
  8  7  1  0  0  0  0
  9  8  2  0  0  0  0
 10  9  1  0  0  0  0
 10  5  2  0  0  0  0
 14 10  1  0  0  0  0
 15 16  2  0  0  0  0
 15  9  1  0  0  0  0
 17 16  1  0  0  0  0
 18 19  1  0  0  0  0
 18 17  2  0  0  0  0
 19 15  1  0  0  0  0
 20 26  1  0  0  0  0
 20 19  1  0  0  0  0
 21 28  1  0  0  0  0
 21 20  1  0  0  0  0
 22 23  1  0  0  0  0
 22 21  1  0  0  0  0
 23 31  1  0  0  0  0
 23 24  1  0  0  0  0
 24 33  1  0  0  0  0
 24 18  1  0  0  0  0
 25 20  1  0  0  0  0
 27 21  1  0  0  0  0
 29 22  1  0  0  0  0
 30 22  1  0  0  0  0
 32 23  1  0  0  0  0
 34 24  1  0  0  0  0
 35 40  1  0  0  0  0
 35  2  1  0  0  0  0
 36 35  2  0  0  0  0
 37 36  1  0  0  0  0
 37 38  2  0  0  0  0
 38 39  1  0  0  0  0
 39 40  2  0  0  0  0
 39 45  1  0  0  0  0
 40 44  1  0  0  0  0
 41 36  1  0  0  0  0
 42 37  1  0  0  0  0
 43 38  1  0  0  0  0
 45 47  1  0  0  0  0
 46 45  1  0  0  0  0
 48 45  1  0  0  0  0
 48 57  1  0  0  0  0
 49 51  1  0  0  0  0
 49 48  1  0  0  0  0
 50 49  2  0  0  0  0
 51 56  1  0  0  0  0
 52 53  1  0  0  0  0
 52 51  2  0  0  0  0
 53 54  2  0  0  0  0
 54 61  1  0  0  0  0
 54 55  1  0  0  0  0
 55 62  1  0  0  0  0
 56 55  2  0  0  0  0
 56 57  1  0  0  0  0
 57 58  2  0  0  0  0
 59 52  1  0  0  0  0
 60 53  1  0  0  0  0
M  END
>  <MODEL>
13

>  <REMARK>
 VINA RESULT:    -8.835      3.390     10.533
 INTER + INTRA:         -11.846
 INTER:                 -10.798
 INTRA:                  -1.048
 UNBOUND:                -0.429
  Name = 
  5 active torsions:
  status: ('A' for Active; 'I' for Inactive)
    1  A    between atoms: C_2  and  C_20
    2  A    between atoms: N_3  and  C_4
    3  A    between atoms: C_8  and  C_9
    4  A    between atoms: C_24  and  C_25
    5  A    between atoms: C_25  and  N_26
                            x       y       z     vdW  Elec       q    Type
                         _______ _______ _______ _____ _____    ______ ____

>  <TORSDO>
F 5

$$$$
=
 OpenBabel07192307433D

 62 67  0  0  0  0  0  0  0  0999 V2000
    8.7260    7.5820   19.0000 O   0  0  0  0  0  0  0  0  0  0  0  0
    8.1800    8.3910   18.2600 C   0  0  0  0  0  0  0  0  0  0  0  0
    7.1790    8.1230   17.3440 N   0  0  0  0  0  0  0  0  0  0  0  0
    6.7190    8.9200   16.9200 H   0  0  0  0  0  0  0  0  0  0  0  0
    6.6340    6.8660   17.0140 C   0  0  0  0  0  0  0  0  0  0  0  0
    7.2900    5.9040   16.2440 C   0  0  0  0  0  0  0  0  0  0  0  0
    6.6720    4.6850   15.9550 C   0  0  0  0  0  0  0  0  0  0  0  0
    5.3950    4.4100   16.4480 C   0  0  0  0  0  0  0  0  0  0  0  0
    4.7320    5.3560   17.2330 C   0  0  0  0  0  0  0  0  0  0  0  0
    5.3460    6.5880   17.4900 C   0  0  0  0  0  0  0  0  0  0  0  0
    8.2820    6.0830   15.8330 H   0  0  0  0  0  0  0  0  0  0  0  0
    7.1860    3.9540   15.3350 H   0  0  0  0  0  0  0  0  0  0  0  0
    4.9220    3.4630   16.2060 H   0  0  0  0  0  0  0  0  0  0  0  0
    4.8040    7.3270   18.0780 H   0  0  0  0  0  0  0  0  0  0  0  0
    3.4100    5.0920   17.7840 C   0  0  0  0  0  0  0  0  0  0  0  0
    2.3880    5.9240   17.7510 N   0  0  0  0  0  0  0  0  0  0  0  0
    1.3400    5.3550   18.4290 N   0  0  0  0  0  0  0  0  0  0  0  0
    1.7370    4.1920   18.8870 C   0  0  0  0  0  0  0  0  0  0  0  0
    3.0370    3.9830   18.5060 N   0  0  0  0  0  0  0  0  0  0  0  0
    3.8510    2.8590   18.9010 C   0  0  0  0  0  0  0  0  0  0  0  0
    4.0300    2.7440   20.4180 C   0  0  0  0  0  0  0  0  0  0  0  0
    2.8060    2.1920   21.1500 C   0  0  0  0  0  0  0  0  0  0  0  0
    1.5710    3.0950   21.1240 C   0  0  0  0  0  0  0  0  0  0  0  0
    0.9520    3.2600   19.7360 C   0  0  0  0  0  0  0  0  0  0  0  0
    3.3900    1.9540   18.4840 H   0  0  0  0  0  0  0  0  0  0  0  0
    4.8400    2.9610   18.4400 H   0  0  0  0  0  0  0  0  0  0  0  0
    4.8670    2.0560   20.6130 H   0  0  0  0  0  0  0  0  0  0  0  0
    4.3130    3.7170   20.8480 H   0  0  0  0  0  0  0  0  0  0  0  0
    2.5520    1.2000   20.7580 H   0  0  0  0  0  0  0  0  0  0  0  0
    3.0830    2.0390   22.2000 H   0  0  0  0  0  0  0  0  0  0  0  0
    1.8160    4.0730   21.5560 H   0  0  0  0  0  0  0  0  0  0  0  0
    0.8170    2.6380   21.7790 H   0  0  0  0  0  0  0  0  0  0  0  0
   -0.0580    3.6760   19.8540 H   0  0  0  0  0  0  0  0  0  0  0  0
    0.8400    2.2900   19.2330 H   0  0  0  0  0  0  0  0  0  0  0  0
    8.5380    9.8380   18.3850 C   0  0  0  0  0  0  0  0  0  0  0  0
    8.3470   10.7430   17.3350 C   0  0  0  0  0  0  0  0  0  0  0  0
    8.6180   12.1020   17.5280 C   0  0  0  0  0  0  0  0  0  0  0  0
    9.0980   12.5540   18.7570 C   0  0  0  0  0  0  0  0  0  0  0  0
    9.3480   11.6530   19.8040 C   0  0  0  0  0  0  0  0  0  0  0  0
    9.0620   10.2910   19.6060 C   0  0  0  0  0  0  0  0  0  0  0  0
    7.9970   10.4110   16.3610 H   0  0  0  0  0  0  0  0  0  0  0  0
    8.4500   12.8130   16.7210 H   0  0  0  0  0  0  0  0  0  0  0  0
    9.2700   13.6200   18.8880 H   0  0  0  0  0  0  0  0  0  0  0  0
    9.2300    9.5740   20.4100 H   0  0  0  0  0  0  0  0  0  0  0  0
    9.8530   12.1280   21.1490 C   0  0  0  0  0  0  0  0  0  0  0  0
   10.3060   11.2770   21.6710 H   0  0  0  0  0  0  0  0  0  0  0  0
   10.6320   12.8880   21.0110 H   0  0  0  0  0  0  0  0  0  0  0  0
    8.8150   12.7040   21.9780 N   0  0  0  0  0  0  0  0  0  0  0  0
    8.1790   12.0350   22.9870 C   0  0  0  0  0  0  0  0  0  0  0  0
    8.3290   10.8900   23.3630 O   0  0  0  0  0  0  0  0  0  0  0  0
    7.2200   12.9710   23.5720 C   0  0  0  0  0  0  0  0  0  0  0  0
    6.3260   12.8020   24.6120 C   0  0  0  0  0  0  0  0  0  0  0  0
    5.5290   13.8990   24.9530 C   0  0  0  0  0  0  0  0  0  0  0  0
    5.6380   15.1180   24.2510 C   0  0  0  0  0  0  0  0  0  0  0  0
    6.5520   15.2620   23.1980 C   0  0  0  0  0  0  0  0  0  0  0  0
    7.3310   14.1650   22.8850 C   0  0  0  0  0  0  0  0  0  0  0  0
    8.3670   13.9930   21.8650 C   0  0  0  0  0  0  0  0  0  0  0  0
    8.7280   14.8720   21.1090 O   0  0  0  0  0  0  0  0  0  0  0  0
    6.2540   11.8560   25.1410 H   0  0  0  0  0  0  0  0  0  0  0  0
    4.8130   13.8120   25.7690 H   0  0  0  0  0  0  0  0  0  0  0  0
    5.0060   15.9560   24.5310 H   0  0  0  0  0  0  0  0  0  0  0  0
    6.6460   16.1910   22.6480 H   0  0  0  0  0  0  0  0  0  0  0  0
  2 35  1  0  0  0  0
  2  1  2  0  0  0  0
  3  2  1  0  0  0  0
  4  3  1  0  0  0  0
  5  3  1  0  0  0  0
  5 10  1  0  0  0  0
  6  5  2  0  0  0  0
  7  6  1  0  0  0  0
  7  8  2  0  0  0  0
  8  9  1  0  0  0  0
  9 10  2  0  0  0  0
  9 15  1  0  0  0  0
 10 14  1  0  0  0  0
 11  6  1  0  0  0  0
 12  7  1  0  0  0  0
 13  8  1  0  0  0  0
 15 19  1  0  0  0  0
 16 15  2  0  0  0  0
 16 17  1  0  0  0  0
 17 18  2  0  0  0  0
 18 24  1  0  0  0  0
 19 18  1  0  0  0  0
 19 20  1  0  0  0  0
 20 21  1  0  0  0  0
 21 27  1  0  0  0  0
 21 28  1  0  0  0  0
 21 22  1  0  0  0  0
 22 30  1  0  0  0  0
 23 22  1  0  0  0  0
 23 31  1  0  0  0  0
 23 32  1  0  0  0  0
 24 33  1  0  0  0  0
 24 23  1  0  0  0  0
 25 20  1  0  0  0  0
 26 20  1  0  0  0  0
 29 22  1  0  0  0  0
 34 24  1  0  0  0  0
 35 40  1  0  0  0  0
 36 37  1  0  0  0  0
 36 35  2  0  0  0  0
 37 38  2  0  0  0  0
 38 43  1  0  0  0  0
 38 39  1  0  0  0  0
 39 45  1  0  0  0  0
 40 39  2  0  0  0  0
 40 44  1  0  0  0  0
 41 36  1  0  0  0  0
 42 37  1  0  0  0  0
 45 46  1  0  0  0  0
 45 48  1  0  0  0  0
 47 45  1  0  0  0  0
 48 49  1  0  0  0  0
 49 50  2  0  0  0  0
 49 51  1  0  0  0  0
 51 52  1  0  0  0  0
 52 53  2  0  0  0  0
 52 59  1  0  0  0  0
 53 60  1  0  0  0  0
 54 61  1  0  0  0  0
 54 53  1  0  0  0  0
 55 54  2  0  0  0  0
 56 55  1  0  0  0  0
 56 51  2  0  0  0  0
 57 48  1  0  0  0  0
 57 56  1  0  0  0  0
 58 57  2  0  0  0  0
 62 55  1  0  0  0  0
M  END
>  <MODEL>
14

>  <REMARK>
 VINA RESULT:    -8.787      5.895     10.483
 INTER + INTRA:         -11.784
 INTER:                 -10.886
 INTRA:                  -0.898
 UNBOUND:                -0.429
  Name = 
  5 active torsions:
  status: ('A' for Active; 'I' for Inactive)
    1  A    between atoms: C_2  and  C_20
    2  A    between atoms: N_3  and  C_4
    3  A    between atoms: C_8  and  C_9
    4  A    between atoms: C_24  and  C_25
    5  A    between atoms: C_25  and  N_26
                            x       y       z     vdW  Elec       q    Type
                         _______ _______ _______ _____ _____    ______ ____

>  <TORSDO>
F 5

$$$$
=
 OpenBabel07192307433D

 62 67  0  0  0  0  0  0  0  0999 V2000
    1.5390    8.9280   21.8720 O   0  0  0  0  0  0  0  0  0  0  0  0
    1.2190    8.9360   20.6890 C   0  0  0  0  0  0  0  0  0  0  0  0
    1.3660    7.8950   19.7900 N   0  0  0  0  0  0  0  0  0  0  0  0
    0.9100    7.9960   18.8910 H   0  0  0  0  0  0  0  0  0  0  0  0
    1.9800    6.6470   20.0180 C   0  0  0  0  0  0  0  0  0  0  0  0
    1.3930    5.6030   20.7360 C   0  0  0  0  0  0  0  0  0  0  0  0
    2.0780    4.3990   20.9230 C   0  0  0  0  0  0  0  0  0  0  0  0
    3.3510    4.2220   20.3780 C   0  0  0  0  0  0  0  0  0  0  0  0
    3.9440    5.2510   19.6440 C   0  0  0  0  0  0  0  0  0  0  0  0
    3.2650    6.4660   19.4900 C   0  0  0  0  0  0  0  0  0  0  0  0
    0.4070    5.7030   21.1840 H   0  0  0  0  0  0  0  0  0  0  0  0
    1.6180    3.6020   21.5030 H   0  0  0  0  0  0  0  0  0  0  0  0
    3.8750    3.2850   20.5400 H   0  0  0  0  0  0  0  0  0  0  0  0
    3.7530    7.2690   18.9410 H   0  0  0  0  0  0  0  0  0  0  0  0
    5.2610    5.0920   19.0410 C   0  0  0  0  0  0  0  0  0  0  0  0
    6.3960    5.5120   19.5630 N   0  0  0  0  0  0  0  0  0  0  0  0
    7.4080    5.2450   18.6760 N   0  0  0  0  0  0  0  0  0  0  0  0
    6.8800    4.6840   17.6140 C   0  0  0  0  0  0  0  0  0  0  0  0
    5.5270    4.5670   17.7980 N   0  0  0  0  0  0  0  0  0  0  0  0
    4.5900    4.0870   16.8120 C   0  0  0  0  0  0  0  0  0  0  0  0
    4.5810    4.9210   15.5280 C   0  0  0  0  0  0  0  0  0  0  0  0
    5.7750    4.6620   14.6080 C   0  0  0  0  0  0  0  0  0  0  0  0
    7.1320    5.0970   15.1650 C   0  0  0  0  0  0  0  0  0  0  0  0
    7.5950    4.2860   16.3750 C   0  0  0  0  0  0  0  0  0  0  0  0
    4.8370    3.0380   16.6040 H   0  0  0  0  0  0  0  0  0  0  0  0
    3.5830    4.1030   17.2460 H   0  0  0  0  0  0  0  0  0  0  0  0
    3.6710    4.6700   14.9630 H   0  0  0  0  0  0  0  0  0  0  0  0
    4.5210    5.9940   15.7650 H   0  0  0  0  0  0  0  0  0  0  0  0
    5.8090    3.6020   14.3280 H   0  0  0  0  0  0  0  0  0  0  0  0
    5.6070    5.2140   13.6750 H   0  0  0  0  0  0  0  0  0  0  0  0
    7.1100    6.1680   15.4030 H   0  0  0  0  0  0  0  0  0  0  0  0
    7.8730    4.9660   14.3650 H   0  0  0  0  0  0  0  0  0  0  0  0
    8.6680    4.4710   16.5260 H   0  0  0  0  0  0  0  0  0  0  0  0
    7.4800    3.2080   16.1980 H   0  0  0  0  0  0  0  0  0  0  0  0
    0.5160   10.1360   20.1420 C   0  0  0  0  0  0  0  0  0  0  0  0
   -0.5960   10.0240   19.2980 C   0  0  0  0  0  0  0  0  0  0  0  0
   -1.2720   11.1750   18.8790 C   0  0  0  0  0  0  0  0  0  0  0  0
   -0.8290   12.4350   19.2820 C   0  0  0  0  0  0  0  0  0  0  0  0
    0.3160   12.5700   20.0840 C   0  0  0  0  0  0  0  0  0  0  0  0
    0.9820   11.4080   20.5100 C   0  0  0  0  0  0  0  0  0  0  0  0
   -0.9450    9.0550   18.9500 H   0  0  0  0  0  0  0  0  0  0  0  0
   -2.1490   11.0920   18.2400 H   0  0  0  0  0  0  0  0  0  0  0  0
   -1.3930   13.3100   18.9680 H   0  0  0  0  0  0  0  0  0  0  0  0
    1.8620   11.4850   21.1480 H   0  0  0  0  0  0  0  0  0  0  0  0
    0.8000   13.9270   20.5450 C   0  0  0  0  0  0  0  0  0  0  0  0
    0.1200   14.6910   20.1540 H   0  0  0  0  0  0  0  0  0  0  0  0
    0.7730   13.9840   21.6400 H   0  0  0  0  0  0  0  0  0  0  0  0
    2.1530   14.2250   20.1200 N   0  0  0  0  0  0  0  0  0  0  0  0
    3.1590   14.5960   20.9680 C   0  0  0  0  0  0  0  0  0  0  0  0
    3.1280   14.7600   22.1710 O   0  0  0  0  0  0  0  0  0  0  0  0
    4.3510   14.7890   20.1450 C   0  0  0  0  0  0  0  0  0  0  0  0
    5.6320   15.1690   20.5000 C   0  0  0  0  0  0  0  0  0  0  0  0
    6.5770   15.2650   19.4740 C   0  0  0  0  0  0  0  0  0  0  0  0
    6.2220   14.9910   18.1370 C   0  0  0  0  0  0  0  0  0  0  0  0
    4.9160   14.6110   17.8030 C   0  0  0  0  0  0  0  0  0  0  0  0
    4.0020   14.5180   18.8360 C   0  0  0  0  0  0  0  0  0  0  0  0
    2.5870   14.1440   18.8240 C   0  0  0  0  0  0  0  0  0  0  0  0
    1.9800   13.8150   17.8250 O   0  0  0  0  0  0  0  0  0  0  0  0
    5.8870   15.3770   21.5350 H   0  0  0  0  0  0  0  0  0  0  0  0
    7.5990   15.5580   19.7100 H   0  0  0  0  0  0  0  0  0  0  0  0
    6.9720   15.0770   17.3550 H   0  0  0  0  0  0  0  0  0  0  0  0
    4.6270   14.3990   16.7800 H   0  0  0  0  0  0  0  0  0  0  0  0
  2  1  2  0  0  0  0
  3  5  1  0  0  0  0
  3  2  1  0  0  0  0
  4  3  1  0  0  0  0
  5  6  1  0  0  0  0
  6  7  2  0  0  0  0
  6 11  1  0  0  0  0
  7 12  1  0  0  0  0
  8 13  1  0  0  0  0
  8  7  1  0  0  0  0
  9  8  2  0  0  0  0
 10  9  1  0  0  0  0
 10  5  2  0  0  0  0
 14 10  1  0  0  0  0
 15 16  2  0  0  0  0
 15  9  1  0  0  0  0
 17 16  1  0  0  0  0
 18 19  1  0  0  0  0
 18 17  2  0  0  0  0
 19 15  1  0  0  0  0
 20 26  1  0  0  0  0
 20 19  1  0  0  0  0
 21 28  1  0  0  0  0
 21 20  1  0  0  0  0
 22 23  1  0  0  0  0
 22 21  1  0  0  0  0
 23 31  1  0  0  0  0
 23 24  1  0  0  0  0
 24 33  1  0  0  0  0
 24 18  1  0  0  0  0
 25 20  1  0  0  0  0
 27 21  1  0  0  0  0
 29 22  1  0  0  0  0
 30 22  1  0  0  0  0
 32 23  1  0  0  0  0
 34 24  1  0  0  0  0
 35 40  1  0  0  0  0
 35  2  1  0  0  0  0
 36 35  2  0  0  0  0
 37 38  2  0  0  0  0
 37 36  1  0  0  0  0
 38 39  1  0  0  0  0
 39 40  2  0  0  0  0
 39 45  1  0  0  0  0
 40 44  1  0  0  0  0
 41 36  1  0  0  0  0
 42 37  1  0  0  0  0
 43 38  1  0  0  0  0
 45 47  1  0  0  0  0
 46 45  1  0  0  0  0
 48 45  1  0  0  0  0
 48 49  1  0  0  0  0
 49 50  2  0  0  0  0
 51 52  1  0  0  0  0
 51 49  1  0  0  0  0
 52 59  1  0  0  0  0
 53 60  1  0  0  0  0
 53 52  2  0  0  0  0
 54 53  1  0  0  0  0
 55 54  2  0  0  0  0
 55 56  1  0  0  0  0
 56 51  2  0  0  0  0
 57 56  1  0  0  0  0
 57 48  1  0  0  0  0
 58 57  2  0  0  0  0
 61 54  1  0  0  0  0
 62 55  1  0  0  0  0
M  END
>  <MODEL>
15

>  <REMARK>
 VINA RESULT:    -8.744      3.301     10.434
 INTER + INTRA:         -11.729
 INTER:                 -10.681
 INTRA:                  -1.048
 UNBOUND:                -0.429
  Name = 
  5 active torsions:
  status: ('A' for Active; 'I' for Inactive)
    1  A    between atoms: C_2  and  C_20
    2  A    between atoms: N_3  and  C_4
    3  A    between atoms: C_8  and  C_9
    4  A    between atoms: C_24  and  C_25
    5  A    between atoms: C_25  and  N_26
                            x       y       z     vdW  Elec       q    Type
                         _______ _______ _______ _____ _____    ______ ____

>  <TORSDO>
F 5

$$$$
=
 OpenBabel07192307433D

 62 67  0  0  0  0  0  0  0  0999 V2000
    2.2670    7.9120   19.7570 O   0  0  0  0  0  0  0  0  0  0  0  0
    1.5330    7.6030   20.6880 C   0  0  0  0  0  0  0  0  0  0  0  0
    1.3900    6.3420   21.2390 N   0  0  0  0  0  0  0  0  0  0  0  0
    0.8670    6.2750   22.1040 H   0  0  0  0  0  0  0  0  0  0  0  0
    1.9890    5.1430   20.8020 C   0  0  0  0  0  0  0  0  0  0  0  0
    1.9750    3.9490   21.5270 C   0  0  0  0  0  0  0  0  0  0  0  0
    2.6040    2.8070   21.0240 C   0  0  0  0  0  0  0  0  0  0  0  0
    3.2380    2.8440   19.7810 C   0  0  0  0  0  0  0  0  0  0  0  0
    3.2470    4.0260   19.0370 C   0  0  0  0  0  0  0  0  0  0  0  0
    2.6440    5.1750   19.5640 C   0  0  0  0  0  0  0  0  0  0  0  0
    1.5000    3.8810   22.5040 H   0  0  0  0  0  0  0  0  0  0  0  0
    2.6040    1.8910   21.6090 H   0  0  0  0  0  0  0  0  0  0  0  0
    3.7310    1.9520   19.4070 H   0  0  0  0  0  0  0  0  0  0  0  0
    2.6840    6.0960   18.9860 H   0  0  0  0  0  0  0  0  0  0  0  0
    3.8780    4.0930   17.7260 C   0  0  0  0  0  0  0  0  0  0  0  0
    3.8070    3.1630   16.7940 N   0  0  0  0  0  0  0  0  0  0  0  0
    4.5840    3.5500   15.7320 N   0  0  0  0  0  0  0  0  0  0  0  0
    5.1380    4.7000   16.0320 C   0  0  0  0  0  0  0  0  0  0  0  0
    4.7230    5.0830   17.2810 N   0  0  0  0  0  0  0  0  0  0  0  0
    5.1930    6.2450   17.9960 C   0  0  0  0  0  0  0  0  0  0  0  0
    6.7040    6.2340   18.2440 C   0  0  0  0  0  0  0  0  0  0  0  0
    7.5400    6.5800   17.0100 C   0  0  0  0  0  0  0  0  0  0  0  0
    7.4780    5.5570   15.8740 C   0  0  0  0  0  0  0  0  0  0  0  0
    6.1080    5.4590   15.2020 C   0  0  0  0  0  0  0  0  0  0  0  0
    4.8890    7.1310   17.4230 H   0  0  0  0  0  0  0  0  0  0  0  0
    4.6810    6.2930   18.9640 H   0  0  0  0  0  0  0  0  0  0  0  0
    6.9300    6.9860   19.0150 H   0  0  0  0  0  0  0  0  0  0  0  0
    7.0230    5.2610   18.6470 H   0  0  0  0  0  0  0  0  0  0  0  0
    7.2610    7.5720   16.6350 H   0  0  0  0  0  0  0  0  0  0  0  0
    8.5870    6.6620   17.3260 H   0  0  0  0  0  0  0  0  0  0  0  0
    7.7990    4.5740   16.2410 H   0  0  0  0  0  0  0  0  0  0  0  0
    8.2070    5.8660   15.1140 H   0  0  0  0  0  0  0  0  0  0  0  0
    6.2280    4.9280   14.2470 H   0  0  0  0  0  0  0  0  0  0  0  0
    5.7100    6.4550   14.9650 H   0  0  0  0  0  0  0  0  0  0  0  0
    0.7640    8.6780   21.3870 C   0  0  0  0  0  0  0  0  0  0  0  0
    0.4050    8.5760   22.7360 C   0  0  0  0  0  0  0  0  0  0  0  0
   -0.2410    9.6440   23.3680 C   0  0  0  0  0  0  0  0  0  0  0  0
   -0.5470   10.8010   22.6520 C   0  0  0  0  0  0  0  0  0  0  0  0
   -0.2440   10.9000   21.2850 C   0  0  0  0  0  0  0  0  0  0  0  0
    0.4150    9.8270   20.6610 C   0  0  0  0  0  0  0  0  0  0  0  0
    0.6110    7.6750   23.3090 H   0  0  0  0  0  0  0  0  0  0  0  0
   -0.5030    9.5780   24.4220 H   0  0  0  0  0  0  0  0  0  0  0  0
   -1.0200   11.6280   23.1770 H   0  0  0  0  0  0  0  0  0  0  0  0
    0.6780    9.8870   19.6040 H   0  0  0  0  0  0  0  0  0  0  0  0
   -0.5540   12.1540   20.4970 C   0  0  0  0  0  0  0  0  0  0  0  0
   -0.9090   12.9230   21.1920 H   0  0  0  0  0  0  0  0  0  0  0  0
    0.3580   12.5320   20.0180 H   0  0  0  0  0  0  0  0  0  0  0  0
   -1.5440   11.9470   19.4610 N   0  0  0  0  0  0  0  0  0  0  0  0
   -1.2660   11.4350   18.2250 C   0  0  0  0  0  0  0  0  0  0  0  0
   -0.1990   11.0850   17.7610 O   0  0  0  0  0  0  0  0  0  0  0  0
   -2.5330   11.3810   17.4970 C   0  0  0  0  0  0  0  0  0  0  0  0
   -2.8100   10.9520   16.2130 C   0  0  0  0  0  0  0  0  0  0  0  0
   -4.1410   11.0190   15.7910 C   0  0  0  0  0  0  0  0  0  0  0  0
   -5.1470   11.5140   16.6480 C   0  0  0  0  0  0  0  0  0  0  0  0
   -4.8380   11.9450   17.9440 C   0  0  0  0  0  0  0  0  0  0  0  0
   -3.5170   11.8640   18.3390 C   0  0  0  0  0  0  0  0  0  0  0  0
   -2.8780   12.2180   19.6080 C   0  0  0  0  0  0  0  0  0  0  0  0
   -3.4780   12.6450   20.5740 O   0  0  0  0  0  0  0  0  0  0  0  0
   -2.0230   10.5760   15.5670 H   0  0  0  0  0  0  0  0  0  0  0  0
   -4.4050   10.6880   14.7870 H   0  0  0  0  0  0  0  0  0  0  0  0
   -6.1740   11.5600   16.2970 H   0  0  0  0  0  0  0  0  0  0  0  0
   -5.5990   12.3300   18.6140 H   0  0  0  0  0  0  0  0  0  0  0  0
  1  2  2  0  0  0  0
  2  3  1  0  0  0  0
  2 35  1  0  0  0  0
  3  4  1  0  0  0  0
  5  3  1  0  0  0  0
  5  6  1  0  0  0  0
  6 11  1  0  0  0  0
  7  6  2  0  0  0  0
  7 12  1  0  0  0  0
  8  7  1  0  0  0  0
  9 10  1  0  0  0  0
  9  8  2  0  0  0  0
 10  5  2  0  0  0  0
 13  8  1  0  0  0  0
 14 10  1  0  0  0  0
 15  9  1  0  0  0  0
 16 15  2  0  0  0  0
 17 18  2  0  0  0  0
 17 16  1  0  0  0  0
 18 19  1  0  0  0  0
 19 15  1  0  0  0  0
 19 20  1  0  0  0  0
 20 21  1  0  0  0  0
 20 26  1  0  0  0  0
 21 28  1  0  0  0  0
 21 27  1  0  0  0  0
 22 30  1  0  0  0  0
 22 21  1  0  0  0  0
 23 31  1  0  0  0  0
 23 22  1  0  0  0  0
 24 23  1  0  0  0  0
 24 18  1  0  0  0  0
 25 20  1  0  0  0  0
 29 22  1  0  0  0  0
 32 23  1  0  0  0  0
 33 24  1  0  0  0  0
 34 24  1  0  0  0  0
 35 36  1  0  0  0  0
 36 41  1  0  0  0  0
 36 37  2  0  0  0  0
 37 42  1  0  0  0  0
 38 43  1  0  0  0  0
 38 37  1  0  0  0  0
 39 38  2  0  0  0  0
 40 39  1  0  0  0  0
 40 35  2  0  0  0  0
 44 40  1  0  0  0  0
 45 46  1  0  0  0  0
 45 39  1  0  0  0  0
 47 45  1  0  0  0  0
 48 57  1  0  0  0  0
 48 45  1  0  0  0  0
 49 48  1  0  0  0  0
 50 49  2  0  0  0  0
 51 49  1  0  0  0  0
 51 56  1  0  0  0  0
 52 51  2  0  0  0  0
 53 52  1  0  0  0  0
 53 54  2  0  0  0  0
 54 55  1  0  0  0  0
 55 56  2  0  0  0  0
 55 62  1  0  0  0  0
 56 57  1  0  0  0  0
 57 58  2  0  0  0  0
 59 52  1  0  0  0  0
 60 53  1  0  0  0  0
 61 54  1  0  0  0  0
M  END
>  <MODEL>
16

>  <REMARK>
 VINA RESULT:    -8.692      2.674     10.430
 INTER + INTRA:         -11.661
 INTER:                 -11.493
 INTRA:                  -0.168
 UNBOUND:                -0.429
  Name = 
  5 active torsions:
  status: ('A' for Active; 'I' for Inactive)
    1  A    between atoms: C_2  and  C_20
    2  A    between atoms: N_3  and  C_4
    3  A    between atoms: C_8  and  C_9
    4  A    between atoms: C_24  and  C_25
    5  A    between atoms: C_25  and  N_26
                            x       y       z     vdW  Elec       q    Type
                         _______ _______ _______ _____ _____    ______ ____

>  <TORSDO>
F 5

$$$$
=
 OpenBabel07192307433D

 62 67  0  0  0  0  0  0  0  0999 V2000
    2.1450    8.6310   17.4160 O   0  0  0  0  0  0  0  0  0  0  0  0
    1.6210    8.9470   18.4780 C   0  0  0  0  0  0  0  0  0  0  0  0
    1.6310    8.2130   19.6500 N   0  0  0  0  0  0  0  0  0  0  0  0
    1.2920    8.6760   20.4850 H   0  0  0  0  0  0  0  0  0  0  0  0
    2.1700    6.9260   19.8510 C   0  0  0  0  0  0  0  0  0  0  0  0
    1.5160    5.8990   20.5340 C   0  0  0  0  0  0  0  0  0  0  0  0
    2.1280    4.6530   20.6970 C   0  0  0  0  0  0  0  0  0  0  0  0
    3.3960    4.4190   20.1630 C   0  0  0  0  0  0  0  0  0  0  0  0
    4.0570    5.4300   19.4640 C   0  0  0  0  0  0  0  0  0  0  0  0
    3.4500    6.6860   19.3340 C   0  0  0  0  0  0  0  0  0  0  0  0
    0.5300    6.0440   20.9740 H   0  0  0  0  0  0  0  0  0  0  0  0
    1.6160    3.8700   21.2500 H   0  0  0  0  0  0  0  0  0  0  0  0
    3.8640    3.4490   20.3060 H   0  0  0  0  0  0  0  0  0  0  0  0
    3.9900    7.4740   18.8120 H   0  0  0  0  0  0  0  0  0  0  0  0
    5.3700    5.2120   18.8720 C   0  0  0  0  0  0  0  0  0  0  0  0
    6.5120    5.6460   19.3660 N   0  0  0  0  0  0  0  0  0  0  0  0
    7.5190    5.3070   18.4970 N   0  0  0  0  0  0  0  0  0  0  0  0
    6.9810    4.6880   17.4740 C   0  0  0  0  0  0  0  0  0  0  0  0
    5.6270    4.6050   17.6650 N   0  0  0  0  0  0  0  0  0  0  0  0
    4.6810    4.0770   16.7110 C   0  0  0  0  0  0  0  0  0  0  0  0
    4.6840    4.8280   15.3770 C   0  0  0  0  0  0  0  0  0  0  0  0
    5.8730    4.4910   14.4760 C   0  0  0  0  0  0  0  0  0  0  0  0
    7.2370    4.9400   15.0040 C   0  0  0  0  0  0  0  0  0  0  0  0
    7.6880    4.2000   16.2630 C   0  0  0  0  0  0  0  0  0  0  0  0
    4.9110    3.0130   16.5710 H   0  0  0  0  0  0  0  0  0  0  0  0
    3.6750    4.1370   17.1440 H   0  0  0  0  0  0  0  0  0  0  0  0
    3.7690    4.5560   14.8290 H   0  0  0  0  0  0  0  0  0  0  0  0
    4.6410    5.9150   15.5450 H   0  0  0  0  0  0  0  0  0  0  0  0
    5.8900    3.4150   14.2640 H   0  0  0  0  0  0  0  0  0  0  0  0
    5.7130    4.9850   13.5090 H   0  0  0  0  0  0  0  0  0  0  0  0
    7.2320    6.0240   15.1730 H   0  0  0  0  0  0  0  0  0  0  0  0
    7.9750    4.7460   14.2130 H   0  0  0  0  0  0  0  0  0  0  0  0
    8.7640    4.3770   16.4020 H   0  0  0  0  0  0  0  0  0  0  0  0
    7.5560    3.1150   16.1560 H   0  0  0  0  0  0  0  0  0  0  0  0
    0.9710   10.2880   18.5890 C   0  0  0  0  0  0  0  0  0  0  0  0
    1.7010   11.4780   18.4790 C   0  0  0  0  0  0  0  0  0  0  0  0
    1.0360   12.7090   18.5050 C   0  0  0  0  0  0  0  0  0  0  0  0
   -0.3490   12.7550   18.6610 C   0  0  0  0  0  0  0  0  0  0  0  0
   -1.0920   11.5750   18.8270 C   0  0  0  0  0  0  0  0  0  0  0  0
   -0.4170   10.3420   18.7880 C   0  0  0  0  0  0  0  0  0  0  0  0
    2.7840   11.4690   18.3800 H   0  0  0  0  0  0  0  0  0  0  0  0
    1.5970   13.6350   18.3980 H   0  0  0  0  0  0  0  0  0  0  0  0
   -0.8430   13.7240   18.6450 H   0  0  0  0  0  0  0  0  0  0  0  0
   -0.9730    9.4110   18.8970 H   0  0  0  0  0  0  0  0  0  0  0  0
   -2.5960   11.6050   18.9810 C   0  0  0  0  0  0  0  0  0  0  0  0
   -3.0230   12.1450   18.1290 H   0  0  0  0  0  0  0  0  0  0  0  0
   -2.9960   10.5830   18.9640 H   0  0  0  0  0  0  0  0  0  0  0  0
   -3.0320   12.2290   20.2130 N   0  0  0  0  0  0  0  0  0  0  0  0
   -2.3620   12.1330   21.4010 C   0  0  0  0  0  0  0  0  0  0  0  0
   -1.3400   11.5310   21.6600 O   0  0  0  0  0  0  0  0  0  0  0  0
   -3.1250   12.9100   22.3770 C   0  0  0  0  0  0  0  0  0  0  0  0
   -2.8910   13.1360   23.7200 C   0  0  0  0  0  0  0  0  0  0  0  0
   -3.8120   13.9380   24.4020 C   0  0  0  0  0  0  0  0  0  0  0  0
   -4.9310   14.4790   23.7370 C   0  0  0  0  0  0  0  0  0  0  0  0
   -5.1470   14.2320   22.3750 C   0  0  0  0  0  0  0  0  0  0  0  0
   -4.2200   13.4410   21.7230 C   0  0  0  0  0  0  0  0  0  0  0  0
   -4.1520   13.0100   20.3250 C   0  0  0  0  0  0  0  0  0  0  0  0
   -4.9550   13.3350   19.4740 O   0  0  0  0  0  0  0  0  0  0  0  0
   -2.0250   12.7100   24.2170 H   0  0  0  0  0  0  0  0  0  0  0  0
   -3.6640   14.1450   25.4620 H   0  0  0  0  0  0  0  0  0  0  0  0
   -5.6360   15.0960   24.2880 H   0  0  0  0  0  0  0  0  0  0  0  0
   -6.0040   14.6380   21.8490 H   0  0  0  0  0  0  0  0  0  0  0  0
  1  2  2  0  0  0  0
  2 35  1  0  0  0  0
  2  3  1  0  0  0  0
  3  5  1  0  0  0  0
  3  4  1  0  0  0  0
  5  6  1  0  0  0  0
  6  7  2  0  0  0  0
  6 11  1  0  0  0  0
  7 12  1  0  0  0  0
  8 13  1  0  0  0  0
  8  7  1  0  0  0  0
  9  8  2  0  0  0  0
 10  9  1  0  0  0  0
 10  5  2  0  0  0  0
 14 10  1  0  0  0  0
 15 16  2  0  0  0  0
 15  9  1  0  0  0  0
 17 16  1  0  0  0  0
 18 19  1  0  0  0  0
 18 17  2  0  0  0  0
 19 15  1  0  0  0  0
 20 26  1  0  0  0  0
 20 19  1  0  0  0  0
 21 28  1  0  0  0  0
 21 20  1  0  0  0  0
 22 23  1  0  0  0  0
 22 21  1  0  0  0  0
 23 31  1  0  0  0  0
 23 24  1  0  0  0  0
 24 33  1  0  0  0  0
 24 18  1  0  0  0  0
 25 20  1  0  0  0  0
 27 21  1  0  0  0  0
 29 22  1  0  0  0  0
 30 22  1  0  0  0  0
 32 23  1  0  0  0  0
 34 24  1  0  0  0  0
 35 40  1  0  0  0  0
 36 37  1  0  0  0  0
 36 35  2  0  0  0  0
 37 38  2  0  0  0  0
 38 39  1  0  0  0  0
 39 45  1  0  0  0  0
 40 39  2  0  0  0  0
 40 44  1  0  0  0  0
 41 36  1  0  0  0  0
 42 37  1  0  0  0  0
 43 38  1  0  0  0  0
 45 48  1  0  0  0  0
 46 45  1  0  0  0  0
 47 45  1  0  0  0  0
 48 57  1  0  0  0  0
 48 49  1  0  0  0  0
 49 50  2  0  0  0  0
 49 51  1  0  0  0  0
 51 52  1  0  0  0  0
 52 59  1  0  0  0  0
 52 53  2  0  0  0  0
 53 60  1  0  0  0  0
 54 61  1  0  0  0  0
 54 53  1  0  0  0  0
 55 54  2  0  0  0  0
 56 55  1  0  0  0  0
 56 51  2  0  0  0  0
 57 56  1  0  0  0  0
 58 57  2  0  0  0  0
 62 55  1  0  0  0  0
M  END
>  <MODEL>
17

>  <REMARK>
 VINA RESULT:    -8.520      2.044     11.704
 INTER + INTRA:         -11.439
 INTER:                 -11.176
 INTRA:                  -0.263
 UNBOUND:                -0.429
  Name = 
  5 active torsions:
  status: ('A' for Active; 'I' for Inactive)
    1  A    between atoms: C_2  and  C_20
    2  A    between atoms: N_3  and  C_4
    3  A    between atoms: C_8  and  C_9
    4  A    between atoms: C_24  and  C_25
    5  A    between atoms: C_25  and  N_26
                            x       y       z     vdW  Elec       q    Type
                         _______ _______ _______ _____ _____    ______ ____

>  <TORSDO>
F 5

$$$$
=
 OpenBabel07192307433D

 62 67  0  0  0  0  0  0  0  0999 V2000
    0.5220    9.2100   22.3410 O   0  0  0  0  0  0  0  0  0  0  0  0
    0.2930   10.1300   21.5640 C   0  0  0  0  0  0  0  0  0  0  0  0
    0.6210   10.1720   20.2210 N   0  0  0  0  0  0  0  0  0  0  0  0
    0.2260   10.9300   19.6750 H   0  0  0  0  0  0  0  0  0  0  0  0
    1.3480    9.2150   19.4860 C   0  0  0  0  0  0  0  0  0  0  0  0
    2.0390    9.4930   18.3040 C   0  0  0  0  0  0  0  0  0  0  0  0
    2.7280    8.4800   17.6310 C   0  0  0  0  0  0  0  0  0  0  0  0
    2.7470    7.1820   18.1440 C   0  0  0  0  0  0  0  0  0  0  0  0
    2.0750    6.8920   19.3330 C   0  0  0  0  0  0  0  0  0  0  0  0
    1.3580    7.9060   19.9830 C   0  0  0  0  0  0  0  0  0  0  0  0
    2.0410   10.4890   17.8650 H   0  0  0  0  0  0  0  0  0  0  0  0
    3.2420    8.7050   16.7000 H   0  0  0  0  0  0  0  0  0  0  0  0
    3.2770    6.4030   17.6050 H   0  0  0  0  0  0  0  0  0  0  0  0
    0.8150    7.6580   20.8930 H   0  0  0  0  0  0  0  0  0  0  0  0
    2.0940    5.5550   19.9100 C   0  0  0  0  0  0  0  0  0  0  0  0
    2.3190    5.2720   21.1770 N   0  0  0  0  0  0  0  0  0  0  0  0
    2.3270    3.9080   21.3250 N   0  0  0  0  0  0  0  0  0  0  0  0
    2.1280    3.3710   20.1450 C   0  0  0  0  0  0  0  0  0  0  0  0
    1.9760    4.3710   19.2200 N   0  0  0  0  0  0  0  0  0  0  0  0
    1.8350    4.1760   17.7970 C   0  0  0  0  0  0  0  0  0  0  0  0
    3.0250    3.4500   17.1640 C   0  0  0  0  0  0  0  0  0  0  0  0
    3.0480    1.9440   17.4300 C   0  0  0  0  0  0  0  0  0  0  0  0
    3.2740    1.5440   18.8890 C   0  0  0  0  0  0  0  0  0  0  0  0
    2.1240    1.9220   19.8210 C   0  0  0  0  0  0  0  0  0  0  0  0
    0.8980    3.6280   17.6300 H   0  0  0  0  0  0  0  0  0  0  0  0
    1.7270    5.1560   17.3170 H   0  0  0  0  0  0  0  0  0  0  0  0
    2.9710    3.5910   16.0740 H   0  0  0  0  0  0  0  0  0  0  0  0
    3.9730    3.9000   17.4960 H   0  0  0  0  0  0  0  0  0  0  0  0
    2.1260    1.4830   17.0540 H   0  0  0  0  0  0  0  0  0  0  0  0
    3.8630    1.5110   16.8370 H   0  0  0  0  0  0  0  0  0  0  0  0
    4.2190    1.9690   19.2490 H   0  0  0  0  0  0  0  0  0  0  0  0
    3.3880    0.4520   18.9160 H   0  0  0  0  0  0  0  0  0  0  0  0
    2.2400    1.3630   20.7600 H   0  0  0  0  0  0  0  0  0  0  0  0
    1.1540    1.6290   19.3950 H   0  0  0  0  0  0  0  0  0  0  0  0
   -0.4930   11.3050   22.0510 C   0  0  0  0  0  0  0  0  0  0  0  0
   -1.4550   11.1860   23.0620 C   0  0  0  0  0  0  0  0  0  0  0  0
   -2.1050   12.3280   23.5420 C   0  0  0  0  0  0  0  0  0  0  0  0
   -1.8130   13.5810   23.0030 C   0  0  0  0  0  0  0  0  0  0  0  0
   -0.8920   13.7120   21.9520 C   0  0  0  0  0  0  0  0  0  0  0  0
   -0.2350   12.5610   21.4830 C   0  0  0  0  0  0  0  0  0  0  0  0
   -1.7170   10.2180   23.4810 H   0  0  0  0  0  0  0  0  0  0  0  0
   -2.8370   12.2440   24.3430 H   0  0  0  0  0  0  0  0  0  0  0  0
   -2.3100   14.4550   23.4180 H   0  0  0  0  0  0  0  0  0  0  0  0
    0.4980   12.6390   20.6790 H   0  0  0  0  0  0  0  0  0  0  0  0
   -0.5510   15.0650   21.3660 C   0  0  0  0  0  0  0  0  0  0  0  0
   -1.3490   15.3560   20.6740 H   0  0  0  0  0  0  0  0  0  0  0  0
   -0.5070   15.8190   22.1620 H   0  0  0  0  0  0  0  0  0  0  0  0
    0.7190   15.0820   20.6700 N   0  0  0  0  0  0  0  0  0  0  0  0
    1.9330   15.1720   21.2910 C   0  0  0  0  0  0  0  0  0  0  0  0
    2.1850   15.2670   22.4750 O   0  0  0  0  0  0  0  0  0  0  0  0
    2.9470   15.1460   20.2380 C   0  0  0  0  0  0  0  0  0  0  0  0
    4.3250   15.2120   20.3200 C   0  0  0  0  0  0  0  0  0  0  0  0
    5.0390   15.1590   19.1190 C   0  0  0  0  0  0  0  0  0  0  0  0
    4.3680   15.0500   17.8830 C   0  0  0  0  0  0  0  0  0  0  0  0
    2.9700   14.9870   17.8280 C   0  0  0  0  0  0  0  0  0  0  0  0
    2.2880   15.0360   19.0280 C   0  0  0  0  0  0  0  0  0  0  0  0
    0.8520   14.9850   19.3110 C   0  0  0  0  0  0  0  0  0  0  0  0
   -0.0030   14.8580   18.4580 O   0  0  0  0  0  0  0  0  0  0  0  0
    4.8250   15.2980   21.2800 H   0  0  0  0  0  0  0  0  0  0  0  0
    6.1270   15.2050   19.1380 H   0  0  0  0  0  0  0  0  0  0  0  0
    4.9440   15.0150   16.9630 H   0  0  0  0  0  0  0  0  0  0  0  0
    2.4390   14.9060   16.8860 H   0  0  0  0  0  0  0  0  0  0  0  0
  2 35  1  0  0  0  0
  2  1  2  0  0  0  0
  3  2  1  0  0  0  0
  4  3  1  0  0  0  0
  5 10  1  0  0  0  0
  5  3  1  0  0  0  0
  6  5  2  0  0  0  0
  7  8  2  0  0  0  0
  7  6  1  0  0  0  0
  8  9  1  0  0  0  0
  9 15  1  0  0  0  0
  9 10  2  0  0  0  0
 10 14  1  0  0  0  0
 11  6  1  0  0  0  0
 12  7  1  0  0  0  0
 13  8  1  0  0  0  0
 15 16  2  0  0  0  0
 16 17  1  0  0  0  0
 18 17  2  0  0  0  0
 19 15  1  0  0  0  0
 19 18  1  0  0  0  0
 20 19  1  0  0  0  0
 21 22  1  0  0  0  0
 21 28  1  0  0  0  0
 21 20  1  0  0  0  0
 22 23  1  0  0  0  0
 23 32  1  0  0  0  0
 23 31  1  0  0  0  0
 23 24  1  0  0  0  0
 24 18  1  0  0  0  0
 24 33  1  0  0  0  0
 25 20  1  0  0  0  0
 26 20  1  0  0  0  0
 27 21  1  0  0  0  0
 29 22  1  0  0  0  0
 30 22  1  0  0  0  0
 34 24  1  0  0  0  0
 35 36  1  0  0  0  0
 36 41  1  0  0  0  0
 36 37  2  0  0  0  0
 37 42  1  0  0  0  0
 38 43  1  0  0  0  0
 38 37  1  0  0  0  0
 39 38  2  0  0  0  0
 40 39  1  0  0  0  0
 40 35  2  0  0  0  0
 44 40  1  0  0  0  0
 45 39  1  0  0  0  0
 45 47  1  0  0  0  0
 46 45  1  0  0  0  0
 48 49  1  0  0  0  0
 48 45  1  0  0  0  0
 49 50  2  0  0  0  0
 51 52  1  0  0  0  0
 51 49  1  0  0  0  0
 52 59  1  0  0  0  0
 53 60  1  0  0  0  0
 53 52  2  0  0  0  0
 54 53  1  0  0  0  0
 55 54  2  0  0  0  0
 55 56  1  0  0  0  0
 56 57  1  0  0  0  0
 56 51  2  0  0  0  0
 57 48  1  0  0  0  0
 58 57  2  0  0  0  0
 61 54  1  0  0  0  0
 62 55  1  0  0  0  0
M  END
>  <MODEL>
18

>  <REMARK>
 VINA RESULT:    -8.401      3.625     10.067
 INTER + INTRA:         -11.286
 INTER:                 -10.852
 INTRA:                  -0.434
 UNBOUND:                -0.429
  Name = 
  5 active torsions:
  status: ('A' for Active; 'I' for Inactive)
    1  A    between atoms: C_2  and  C_20
    2  A    between atoms: N_3  and  C_4
    3  A    between atoms: C_8  and  C_9
    4  A    between atoms: C_24  and  C_25
    5  A    between atoms: C_25  and  N_26
                            x       y       z     vdW  Elec       q    Type
                         _______ _______ _______ _____ _____    ______ ____

>  <TORSDO>
F 5

$$$$
=
 OpenBabel07192307433D

 62 67  0  0  0  0  0  0  0  0999 V2000
    0.8580   10.2740   21.4800 O   0  0  0  0  0  0  0  0  0  0  0  0
    0.9650   10.3680   20.2630 C   0  0  0  0  0  0  0  0  0  0  0  0
    1.2620    9.3430   19.3830 N   0  0  0  0  0  0  0  0  0  0  0  0
    1.1600    9.5420   18.3940 H   0  0  0  0  0  0  0  0  0  0  0  0
    1.5790    8.0060   19.6990 C   0  0  0  0  0  0  0  0  0  0  0  0
    1.2690    7.3930   20.9150 C   0  0  0  0  0  0  0  0  0  0  0  0
    1.6290    6.0630   21.1490 C   0  0  0  0  0  0  0  0  0  0  0  0
    2.2890    5.3290   20.1620 C   0  0  0  0  0  0  0  0  0  0  0  0
    2.5920    5.9240   18.9360 C   0  0  0  0  0  0  0  0  0  0  0  0
    2.2570    7.2670   18.7210 C   0  0  0  0  0  0  0  0  0  0  0  0
    0.7640    7.9330   21.7130 H   0  0  0  0  0  0  0  0  0  0  0  0
    1.4020    5.6050   22.1090 H   0  0  0  0  0  0  0  0  0  0  0  0
    2.5720    4.3000   20.3630 H   0  0  0  0  0  0  0  0  0  0  0  0
    2.5250    7.7250   17.7710 H   0  0  0  0  0  0  0  0  0  0  0  0
    3.2570    5.1800   17.8750 C   0  0  0  0  0  0  0  0  0  0  0  0
    2.9760    3.9430   17.5170 N   0  0  0  0  0  0  0  0  0  0  0  0
    3.8570    3.5630   16.5360 N   0  0  0  0  0  0  0  0  0  0  0  0
    4.6790    4.5610   16.3190 C   0  0  0  0  0  0  0  0  0  0  0  0
    4.3410    5.6040   17.1420 N   0  0  0  0  0  0  0  0  0  0  0  0
    5.0720    6.8420   17.2630 C   0  0  0  0  0  0  0  0  0  0  0  0
    6.5220    6.6480   17.7160 C   0  0  0  0  0  0  0  0  0  0  0  0
    7.4540    6.1330   16.6180 C   0  0  0  0  0  0  0  0  0  0  0  0
    7.1640    4.7120   16.1300 C   0  0  0  0  0  0  0  0  0  0  0  0
    5.8360    4.5700   15.3880 C   0  0  0  0  0  0  0  0  0  0  0  0
    5.0220    7.3510   16.2920 H   0  0  0  0  0  0  0  0  0  0  0  0
    4.5610    7.4820   17.9920 H   0  0  0  0  0  0  0  0  0  0  0  0
    6.9110    7.6220   18.0470 H   0  0  0  0  0  0  0  0  0  0  0  0
    6.5680    5.9750   18.5860 H   0  0  0  0  0  0  0  0  0  0  0  0
    7.4500    6.8280   15.7680 H   0  0  0  0  0  0  0  0  0  0  0  0
    8.4770    6.1470   17.0120 H   0  0  0  0  0  0  0  0  0  0  0  0
    7.2120    4.0130   16.9740 H   0  0  0  0  0  0  0  0  0  0  0  0
    7.9710    4.4310   15.4400 H   0  0  0  0  0  0  0  0  0  0  0  0
    5.8430    3.6150   14.8450 H   0  0  0  0  0  0  0  0  0  0  0  0
    5.7140    5.3620   14.6360 H   0  0  0  0  0  0  0  0  0  0  0  0
    0.6680   11.6810   19.6130 C   0  0  0  0  0  0  0  0  0  0  0  0
   -0.3590   11.8270   18.6720 C   0  0  0  0  0  0  0  0  0  0  0  0
   -0.6530   13.0930   18.1540 C   0  0  0  0  0  0  0  0  0  0  0  0
    0.0850   14.2050   18.5560 C   0  0  0  0  0  0  0  0  0  0  0  0
    1.1540   14.0690   19.4570 C   0  0  0  0  0  0  0  0  0  0  0  0
    1.4350   12.7960   19.9810 C   0  0  0  0  0  0  0  0  0  0  0  0
   -0.9330   10.9720   18.3250 H   0  0  0  0  0  0  0  0  0  0  0  0
   -1.4650   13.2150   17.4380 H   0  0  0  0  0  0  0  0  0  0  0  0
   -0.1870   15.1810   18.1610 H   0  0  0  0  0  0  0  0  0  0  0  0
    2.2480   12.6670   20.6970 H   0  0  0  0  0  0  0  0  0  0  0  0
    1.9550   15.2670   19.9160 C   0  0  0  0  0  0  0  0  0  0  0  0
    1.5850   16.1550   19.3930 H   0  0  0  0  0  0  0  0  0  0  0  0
    1.8080   15.4280   20.9920 H   0  0  0  0  0  0  0  0  0  0  0  0
    3.3770   15.1270   19.6810 N   0  0  0  0  0  0  0  0  0  0  0  0
    3.9530   15.1190   18.4410 C   0  0  0  0  0  0  0  0  0  0  0  0
    3.4270   15.2050   17.3500 O   0  0  0  0  0  0  0  0  0  0  0  0
    5.3920   14.9700   18.6470 C   0  0  0  0  0  0  0  0  0  0  0  0
    6.4250   14.9010   17.7320 C   0  0  0  0  0  0  0  0  0  0  0  0
    7.7200   14.7590   18.2400 C   0  0  0  0  0  0  0  0  0  0  0  0
    7.9470   14.6840   19.6300 C   0  0  0  0  0  0  0  0  0  0  0  0
    6.8820   14.7540   20.5370 C   0  0  0  0  0  0  0  0  0  0  0  0
    5.6130   14.9000   20.0100 C   0  0  0  0  0  0  0  0  0  0  0  0
    4.3130   15.0110   20.6740 C   0  0  0  0  0  0  0  0  0  0  0  0
    4.1650   15.0160   21.8800 O   0  0  0  0  0  0  0  0  0  0  0  0
    6.2320   14.9590   16.6650 H   0  0  0  0  0  0  0  0  0  0  0  0
    8.5650   14.7030   17.5540 H   0  0  0  0  0  0  0  0  0  0  0  0
    8.9620   14.5700   20.0020 H   0  0  0  0  0  0  0  0  0  0  0  0
    7.0390   14.6960   21.6080 H   0  0  0  0  0  0  0  0  0  0  0  0
  2  1  2  0  0  0  0
  3  5  1  0  0  0  0
  3  2  1  0  0  0  0
  4  3  1  0  0  0  0
  5  6  1  0  0  0  0
  6  7  2  0  0  0  0
  6 11  1  0  0  0  0
  7 12  1  0  0  0  0
  8 13  1  0  0  0  0
  8  7  1  0  0  0  0
  9  8  2  0  0  0  0
 10  9  1  0  0  0  0
 10  5  2  0  0  0  0
 14 10  1  0  0  0  0
 15  9  1  0  0  0  0
 16 15  2  0  0  0  0
 17 16  1  0  0  0  0
 18 17  2  0  0  0  0
 18 19  1  0  0  0  0
 19 20  1  0  0  0  0
 19 15  1  0  0  0  0
 20 21  1  0  0  0  0
 20 26  1  0  0  0  0
 21 27  1  0  0  0  0
 21 28  1  0  0  0  0
 22 30  1  0  0  0  0
 22 21  1  0  0  0  0
 23 22  1  0  0  0  0
 23 31  1  0  0  0  0
 24 23  1  0  0  0  0
 24 18  1  0  0  0  0
 25 20  1  0  0  0  0
 29 22  1  0  0  0  0
 32 23  1  0  0  0  0
 33 24  1  0  0  0  0
 34 24  1  0  0  0  0
 35 40  1  0  0  0  0
 35  2  1  0  0  0  0
 36 35  2  0  0  0  0
 37 38  2  0  0  0  0
 37 36  1  0  0  0  0
 38 39  1  0  0  0  0
 39 45  1  0  0  0  0
 39 40  2  0  0  0  0
 40 44  1  0  0  0  0
 41 36  1  0  0  0  0
 42 37  1  0  0  0  0
 43 38  1  0  0  0  0
 45 47  1  0  0  0  0
 46 45  1  0  0  0  0
 48 45  1  0  0  0  0
 48 57  1  0  0  0  0
 49 51  1  0  0  0  0
 49 48  1  0  0  0  0
 50 49  2  0  0  0  0
 51 56  1  0  0  0  0
 52 53  1  0  0  0  0
 52 51  2  0  0  0  0
 53 54  2  0  0  0  0
 54 61  1  0  0  0  0
 54 55  1  0  0  0  0
 55 62  1  0  0  0  0
 56 55  2  0  0  0  0
 56 57  1  0  0  0  0
 57 58  2  0  0  0  0
 59 52  1  0  0  0  0
 60 53  1  0  0  0  0
M  END
>  <MODEL>
19

>  <REMARK>
 VINA RESULT:    -8.361      3.723     10.207
 INTER + INTRA:         -11.233
 INTER:                 -10.680
 INTRA:                  -0.553
 UNBOUND:                -0.429
  Name = 
  5 active torsions:
  status: ('A' for Active; 'I' for Inactive)
    1  A    between atoms: C_2  and  C_20
    2  A    between atoms: N_3  and  C_4
    3  A    between atoms: C_8  and  C_9
    4  A    between atoms: C_24  and  C_25
    5  A    between atoms: C_25  and  N_26
                            x       y       z     vdW  Elec       q    Type
                         _______ _______ _______ _____ _____    ______ ____

>  <TORSDO>
F 5

$$$$
=
 OpenBabel07192307433D

 62 67  0  0  0  0  0  0  0  0999 V2000
    8.4430    7.1320   18.9660 O   0  0  0  0  0  0  0  0  0  0  0  0
    8.0450    7.8960   18.0960 C   0  0  0  0  0  0  0  0  0  0  0  0
    7.2450    7.5680   17.0160 N   0  0  0  0  0  0  0  0  0  0  0  0
    6.8690    8.3360   16.4720 H   0  0  0  0  0  0  0  0  0  0  0  0
    6.7870    6.2870   16.6470 C   0  0  0  0  0  0  0  0  0  0  0  0
    7.1350    5.6420   15.4580 C   0  0  0  0  0  0  0  0  0  0  0  0
    6.6270    4.3730   15.1650 C   0  0  0  0  0  0  0  0  0  0  0  0
    5.7790    3.7310   16.0680 C   0  0  0  0  0  0  0  0  0  0  0  0
    5.4340    4.3560   17.2680 C   0  0  0  0  0  0  0  0  0  0  0  0
    5.9210    5.6410   17.5390 C   0  0  0  0  0  0  0  0  0  0  0  0
    7.7860    6.1120   14.7240 H   0  0  0  0  0  0  0  0  0  0  0  0
    6.8890    3.8920   14.2260 H   0  0  0  0  0  0  0  0  0  0  0  0
    5.3830    2.7500   15.8220 H   0  0  0  0  0  0  0  0  0  0  0  0
    5.6200    6.1280   18.4640 H   0  0  0  0  0  0  0  0  0  0  0  0
    4.5700    3.7040   18.2430 C   0  0  0  0  0  0  0  0  0  0  0  0
    4.2240    2.4320   18.2280 N   0  0  0  0  0  0  0  0  0  0  0  0
    3.3500    2.2060   19.2610 N   0  0  0  0  0  0  0  0  0  0  0  0
    3.1550    3.3440   19.8840 C   0  0  0  0  0  0  0  0  0  0  0  0
    3.9030    4.3180   19.2770 N   0  0  0  0  0  0  0  0  0  0  0  0
    3.8800    5.7210   19.6170 C   0  0  0  0  0  0  0  0  0  0  0  0
    2.4960    6.3580   19.4630 C   0  0  0  0  0  0  0  0  0  0  0  0
    1.5210    6.0070   20.5870 C   0  0  0  0  0  0  0  0  0  0  0  0
    1.1000    4.5380   20.6490 C   0  0  0  0  0  0  0  0  0  0  0  0
    2.2330    3.5830   21.0230 C   0  0  0  0  0  0  0  0  0  0  0  0
    4.2520    5.8180   20.6450 H   0  0  0  0  0  0  0  0  0  0  0  0
    4.5840    6.2520   18.9650 H   0  0  0  0  0  0  0  0  0  0  0  0
    2.6210    7.4520   19.4660 H   0  0  0  0  0  0  0  0  0  0  0  0
    2.0540    6.0920   18.4910 H   0  0  0  0  0  0  0  0  0  0  0  0
    1.9350    6.3180   21.5540 H   0  0  0  0  0  0  0  0  0  0  0  0
    0.6130    6.6070   20.4440 H   0  0  0  0  0  0  0  0  0  0  0  0
    0.6440    4.2410   19.6950 H   0  0  0  0  0  0  0  0  0  0  0  0
    0.3170    4.4520   21.4140 H   0  0  0  0  0  0  0  0  0  0  0  0
    1.7920    2.6190   21.3130 H   0  0  0  0  0  0  0  0  0  0  0  0
    2.7910    3.9520   21.8940 H   0  0  0  0  0  0  0  0  0  0  0  0
    8.3570    9.3530   18.2190 C   0  0  0  0  0  0  0  0  0  0  0  0
    8.0260   10.2700   17.2140 C   0  0  0  0  0  0  0  0  0  0  0  0
    8.2620   11.6350   17.4110 C   0  0  0  0  0  0  0  0  0  0  0  0
    8.8450   12.0830   18.5960 C   0  0  0  0  0  0  0  0  0  0  0  0
    9.2340   11.1730   19.5920 C   0  0  0  0  0  0  0  0  0  0  0  0
    8.9830    9.8040   19.3910 C   0  0  0  0  0  0  0  0  0  0  0  0
    7.5930    9.9440   16.2720 H   0  0  0  0  0  0  0  0  0  0  0  0
    7.9870   12.3540   16.6410 H   0  0  0  0  0  0  0  0  0  0  0  0
    8.9880   13.1520   18.7350 H   0  0  0  0  0  0  0  0  0  0  0  0
    9.2580    9.0790   20.1570 H   0  0  0  0  0  0  0  0  0  0  0  0
    9.8530   11.6410   20.8900 C   0  0  0  0  0  0  0  0  0  0  0  0
   10.2200   10.7660   21.4370 H   0  0  0  0  0  0  0  0  0  0  0  0
   10.7130   12.2920   20.6840 H   0  0  0  0  0  0  0  0  0  0  0  0
    8.9310   12.3800   21.7290 N   0  0  0  0  0  0  0  0  0  0  0  0
    8.5760   13.6830   21.5160 C   0  0  0  0  0  0  0  0  0  0  0  0
    8.9460   14.4480   20.6490 O   0  0  0  0  0  0  0  0  0  0  0  0
    7.6280   14.0370   22.5710 C   0  0  0  0  0  0  0  0  0  0  0  0
    6.9700   15.2260   22.8200 C   0  0  0  0  0  0  0  0  0  0  0  0
    6.1080   15.2600   23.9210 C   0  0  0  0  0  0  0  0  0  0  0  0
    5.9330   14.1240   24.7380 C   0  0  0  0  0  0  0  0  0  0  0  0
    6.6150   12.9300   24.4640 C   0  0  0  0  0  0  0  0  0  0  0  0
    7.4560   12.9210   23.3680 C   0  0  0  0  0  0  0  0  0  0  0  0
    8.2890   11.8510   22.8170 C   0  0  0  0  0  0  0  0  0  0  0  0
    8.3400   10.7270   23.2720 O   0  0  0  0  0  0  0  0  0  0  0  0
    7.1180   16.0920   22.1820 H   0  0  0  0  0  0  0  0  0  0  0  0
    5.5660   16.1770   24.1520 H   0  0  0  0  0  0  0  0  0  0  0  0
    5.2610   14.1750   25.5900 H   0  0  0  0  0  0  0  0  0  0  0  0
    6.4930   12.0490   25.0830 H   0  0  0  0  0  0  0  0  0  0  0  0
  2 35  1  0  0  0  0
  2  1  2  0  0  0  0
  3  2  1  0  0  0  0
  4  3  1  0  0  0  0
  5  3  1  0  0  0  0
  5 10  1  0  0  0  0
  6  5  2  0  0  0  0
  7  6  1  0  0  0  0
  7  8  2  0  0  0  0
  8  9  1  0  0  0  0
  9 10  2  0  0  0  0
  9 15  1  0  0  0  0
 10 14  1  0  0  0  0
 11  6  1  0  0  0  0
 12  7  1  0  0  0  0
 13  8  1  0  0  0  0
 15 19  1  0  0  0  0
 16 15  2  0  0  0  0
 16 17  1  0  0  0  0
 17 18  2  0  0  0  0
 18 24  1  0  0  0  0
 19 20  1  0  0  0  0
 19 18  1  0  0  0  0
 20 25  1  0  0  0  0
 21 27  1  0  0  0  0
 21 20  1  0  0  0  0
 21 22  1  0  0  0  0
 22 23  1  0  0  0  0
 22 29  1  0  0  0  0
 23 24  1  0  0  0  0
 23 32  1  0  0  0  0
 24 33  1  0  0  0  0
 24 34  1  0  0  0  0
 26 20  1  0  0  0  0
 28 21  1  0  0  0  0
 30 22  1  0  0  0  0
 31 23  1  0  0  0  0
 35 40  1  0  0  0  0
 36 37  1  0  0  0  0
 36 35  2  0  0  0  0
 37 38  2  0  0  0  0
 38 43  1  0  0  0  0
 38 39  1  0  0  0  0
 39 45  1  0  0  0  0
 40 39  2  0  0  0  0
 40 44  1  0  0  0  0
 41 36  1  0  0  0  0
 42 37  1  0  0  0  0
 45 46  1  0  0  0  0
 45 48  1  0  0  0  0
 47 45  1  0  0  0  0
 48 57  1  0  0  0  0
 49 48  1  0  0  0  0
 49 51  1  0  0  0  0
 50 49  2  0  0  0  0
 51 52  2  0  0  0  0
 51 56  1  0  0  0  0
 52 53  1  0  0  0  0
 53 60  1  0  0  0  0
 53 54  2  0  0  0  0
 54 61  1  0  0  0  0
 55 54  1  0  0  0  0
 55 62  1  0  0  0  0
 56 55  2  0  0  0  0
 57 58  2  0  0  0  0
 57 56  1  0  0  0  0
 59 52  1  0  0  0  0
M  END
>  <MODEL>
20

>  <REMARK>
 VINA RESULT:    -8.341      5.729     10.374
 INTER + INTRA:         -11.207
 INTER:                 -11.030
 INTRA:                  -0.177
 UNBOUND:                -0.429
  Name = 
  5 active torsions:
  status: ('A' for Active; 'I' for Inactive)
    1  A    between atoms: C_2  and  C_20
    2  A    between atoms: N_3  and  C_4
    3  A    between atoms: C_8  and  C_9
    4  A    between atoms: C_24  and  C_25
    5  A    between atoms: C_25  and  N_26
                            x       y       z     vdW  Elec       q    Type
                         _______ _______ _______ _____ _____    ______ ____

>  <TORSDO>
F 5

$$$$
=
 OpenBabel07192307433D

 62 67  0  0  0  0  0  0  0  0999 V2000
    7.2140    9.9880   17.0220 O   0  0  0  0  0  0  0  0  0  0  0  0
    7.8860    9.4250   17.8780 C   0  0  0  0  0  0  0  0  0  0  0  0
    8.7470   10.0290   18.7760 N   0  0  0  0  0  0  0  0  0  0  0  0
    9.1100    9.4510   19.5250 H   0  0  0  0  0  0  0  0  0  0  0  0
    9.0940   11.3930   18.8470 C   0  0  0  0  0  0  0  0  0  0  0  0
    9.5190   12.1530   17.7540 C   0  0  0  0  0  0  0  0  0  0  0  0
    9.8530   13.5000   17.9150 C   0  0  0  0  0  0  0  0  0  0  0  0
    9.7470   14.1060   19.1680 C   0  0  0  0  0  0  0  0  0  0  0  0
    9.3080   13.3640   20.2670 C   0  0  0  0  0  0  0  0  0  0  0  0
    9.0080   12.0060   20.1040 C   0  0  0  0  0  0  0  0  0  0  0  0
    9.6240   11.7160   16.7630 H   0  0  0  0  0  0  0  0  0  0  0  0
   10.2040   14.0740   17.0600 H   0  0  0  0  0  0  0  0  0  0  0  0
   10.0200   15.1510   19.2800 H   0  0  0  0  0  0  0  0  0  0  0  0
    8.6950   11.4330   20.9750 H   0  0  0  0  0  0  0  0  0  0  0  0
    9.1640   13.9700   21.5830 C   0  0  0  0  0  0  0  0  0  0  0  0
    9.8530   15.0010   22.0300 N   0  0  0  0  0  0  0  0  0  0  0  0
    9.4880   15.2380   23.3320 N   0  0  0  0  0  0  0  0  0  0  0  0
    8.5970   14.3380   23.6730 C   0  0  0  0  0  0  0  0  0  0  0  0
    8.3600   13.5160   22.6030 N   0  0  0  0  0  0  0  0  0  0  0  0
    7.5130   12.3480   22.6200 C   0  0  0  0  0  0  0  0  0  0  0  0
    7.9580   11.2910   23.6340 C   0  0  0  0  0  0  0  0  0  0  0  0
    7.6170   11.6350   25.0840 C   0  0  0  0  0  0  0  0  0  0  0  0
    8.3590   12.8430   25.6590 C   0  0  0  0  0  0  0  0  0  0  0  0
    7.9740   14.1730   25.0110 C   0  0  0  0  0  0  0  0  0  0  0  0
    6.4880   12.6870   22.8210 H   0  0  0  0  0  0  0  0  0  0  0  0
    7.5150   11.8970   21.6210 H   0  0  0  0  0  0  0  0  0  0  0  0
    7.4480   10.3470   23.3910 H   0  0  0  0  0  0  0  0  0  0  0  0
    9.0380   11.0990   23.5420 H   0  0  0  0  0  0  0  0  0  0  0  0
    6.5340   11.7770   25.1900 H   0  0  0  0  0  0  0  0  0  0  0  0
    7.8670   10.7660   25.7040 H   0  0  0  0  0  0  0  0  0  0  0  0
    9.4420   12.6810   25.5920 H   0  0  0  0  0  0  0  0  0  0  0  0
    8.1120   12.9020   26.7270 H   0  0  0  0  0  0  0  0  0  0  0  0
    8.3300   14.9890   25.6560 H   0  0  0  0  0  0  0  0  0  0  0  0
    6.8830   14.2790   24.9390 H   0  0  0  0  0  0  0  0  0  0  0  0
    7.7250    7.9510   18.0650 C   0  0  0  0  0  0  0  0  0  0  0  0
    8.4910    7.2320   18.9910 C   0  0  0  0  0  0  0  0  0  0  0  0
    8.2460    5.8690   19.1900 C   0  0  0  0  0  0  0  0  0  0  0  0
    7.2550    5.2200   18.4550 C   0  0  0  0  0  0  0  0  0  0  0  0
    6.5130    5.9110   17.4840 C   0  0  0  0  0  0  0  0  0  0  0  0
    6.7580    7.2830   17.2980 C   0  0  0  0  0  0  0  0  0  0  0  0
    9.2860    7.7110   19.5580 H   0  0  0  0  0  0  0  0  0  0  0  0
    8.8250    5.3110   19.9240 H   0  0  0  0  0  0  0  0  0  0  0  0
    7.0640    4.1680   18.6540 H   0  0  0  0  0  0  0  0  0  0  0  0
    6.1830    7.8470   16.5630 H   0  0  0  0  0  0  0  0  0  0  0  0
    5.4230    5.2270   16.6890 C   0  0  0  0  0  0  0  0  0  0  0  0
    5.0210    5.9420   15.9620 H   0  0  0  0  0  0  0  0  0  0  0  0
    5.8400    4.3800   16.1290 H   0  0  0  0  0  0  0  0  0  0  0  0
    4.3450    4.7230   17.5140 N   0  0  0  0  0  0  0  0  0  0  0  0
    4.0380    3.3980   17.6510 C   0  0  0  0  0  0  0  0  0  0  0  0
    4.5590    2.4320   17.1310 O   0  0  0  0  0  0  0  0  0  0  0  0
    2.9040    3.3220   18.5710 C   0  0  0  0  0  0  0  0  0  0  0  0
    2.2060    2.2270   19.0420 C   0  0  0  0  0  0  0  0  0  0  0  0
    1.1550    2.4740   19.9300 C   0  0  0  0  0  0  0  0  0  0  0  0
    0.8270    3.7910   20.3130 C   0  0  0  0  0  0  0  0  0  0  0  0
    1.5490    4.8850   19.8190 C   0  0  0  0  0  0  0  0  0  0  0  0
    2.5870    4.6140   18.9470 C   0  0  0  0  0  0  0  0  0  0  0  0
    3.5240    5.5140   18.2730 C   0  0  0  0  0  0  0  0  0  0  0  0
    3.5300    6.7200   18.4180 O   0  0  0  0  0  0  0  0  0  0  0  0
    2.4710    1.2200   18.7350 H   0  0  0  0  0  0  0  0  0  0  0  0
    0.5790    1.6390   20.3280 H   0  0  0  0  0  0  0  0  0  0  0  0
    0.0030    3.9590   21.0010 H   0  0  0  0  0  0  0  0  0  0  0  0
    1.3080    5.9030   20.1020 H   0  0  0  0  0  0  0  0  0  0  0  0
  1  2  2  0  0  0  0
  2 35  1  0  0  0  0
  2  3  1  0  0  0  0
  3  5  1  0  0  0  0
  3  4  1  0  0  0  0
  5 10  1  0  0  0  0
  6  7  1  0  0  0  0
  6  5  2  0  0  0  0
  7  8  2  0  0  0  0
  8 13  1  0  0  0  0
  8  9  1  0  0  0  0
  9 15  1  0  0  0  0
 10  9  2  0  0  0  0
 10 14  1  0  0  0  0
 11  6  1  0  0  0  0
 12  7  1  0  0  0  0
 15 16  2  0  0  0  0
 15 19  1  0  0  0  0
 16 17  1  0  0  0  0
 17 18  2  0  0  0  0
 18 24  1  0  0  0  0
 19 20  1  0  0  0  0
 19 18  1  0  0  0  0
 20 25  1  0  0  0  0
 20 21  1  0  0  0  0
 21 22  1  0  0  0  0
 22 29  1  0  0  0  0
 22 23  1  0  0  0  0
 22 30  1  0  0  0  0
 23 32  1  0  0  0  0
 24 33  1  0  0  0  0
 24 23  1  0  0  0  0
 26 20  1  0  0  0  0
 27 21  1  0  0  0  0
 28 21  1  0  0  0  0
 31 23  1  0  0  0  0
 34 24  1  0  0  0  0
 35 36  1  0  0  0  0
 36 37  2  0  0  0  0
 36 41  1  0  0  0  0
 37 42  1  0  0  0  0
 38 43  1  0  0  0  0
 38 37  1  0  0  0  0
 39 38  2  0  0  0  0
 40 39  1  0  0  0  0
 40 35  2  0  0  0  0
 44 40  1  0  0  0  0
 45 39  1  0  0  0  0
 45 48  1  0  0  0  0
 46 45  1  0  0  0  0
 47 45  1  0  0  0  0
 48 49  1  0  0  0  0
 48 57  1  0  0  0  0
 49 51  1  0  0  0  0
 50 49  2  0  0  0  0
 51 56  2  0  0  0  0
 51 52  1  0  0  0  0
 52 53  2  0  0  0  0
 53 54  1  0  0  0  0
 53 60  1  0  0  0  0
 54 61  1  0  0  0  0
 55 62  1  0  0  0  0
 55 54  2  0  0  0  0
 56 55  1  0  0  0  0
 57 58  2  0  0  0  0
 57 56  1  0  0  0  0
 59 52  1  0  0  0  0
M  END
>  <MODEL>
21

>  <REMARK>
 VINA RESULT:    -8.321      6.328      8.367
 INTER + INTRA:         -11.182
 INTER:                 -10.720
 INTRA:                  -0.463
 UNBOUND:                -0.429
  Name = 
  5 active torsions:
  status: ('A' for Active; 'I' for Inactive)
    1  A    between atoms: C_2  and  C_20
    2  A    between atoms: N_3  and  C_4
    3  A    between atoms: C_8  and  C_9
    4  A    between atoms: C_24  and  C_25
    5  A    between atoms: C_25  and  N_26
                            x       y       z     vdW  Elec       q    Type
                         _______ _______ _______ _____ _____    ______ ____

>  <TORSDO>
F 5

$$$$
=
 OpenBabel07192307433D

 62 67  0  0  0  0  0  0  0  0999 V2000
    2.2270    7.8270   19.4520 O   0  0  0  0  0  0  0  0  0  0  0  0
    1.5520    7.6150   20.4530 C   0  0  0  0  0  0  0  0  0  0  0  0
    1.4520    6.4180   21.1380 N   0  0  0  0  0  0  0  0  0  0  0  0
    0.9810    6.4400   22.0350 H   0  0  0  0  0  0  0  0  0  0  0  0
    2.0330    5.1820   20.7930 C   0  0  0  0  0  0  0  0  0  0  0  0
    1.9740    4.0370   21.5910 C   0  0  0  0  0  0  0  0  0  0  0  0
    2.5880    2.8520   21.1770 C   0  0  0  0  0  0  0  0  0  0  0  0
    3.2530    2.7960   19.9510 C   0  0  0  0  0  0  0  0  0  0  0  0
    3.3070    3.9280   19.1340 C   0  0  0  0  0  0  0  0  0  0  0  0
    2.7180    5.1210   19.5720 C   0  0  0  0  0  0  0  0  0  0  0  0
    1.4740    4.0410   22.5580 H   0  0  0  0  0  0  0  0  0  0  0  0
    2.5540    1.9750   21.8180 H   0  0  0  0  0  0  0  0  0  0  0  0
    3.7340    1.8720   19.6470 H   0  0  0  0  0  0  0  0  0  0  0  0
    2.7930    6.0020   18.9390 H   0  0  0  0  0  0  0  0  0  0  0  0
    3.9710    3.8980   17.8380 C   0  0  0  0  0  0  0  0  0  0  0  0
    3.9780    2.8760   17.0060 N   0  0  0  0  0  0  0  0  0  0  0  0
    4.7620    3.1970   15.9270 N   0  0  0  0  0  0  0  0  0  0  0  0
    5.2430    4.4020   16.1200 C   0  0  0  0  0  0  0  0  0  0  0  0
    4.7720    4.8850   17.3130 N   0  0  0  0  0  0  0  0  0  0  0  0
    5.1550    6.1390   17.9150 C   0  0  0  0  0  0  0  0  0  0  0  0
    6.6570    6.2420   18.1970 C   0  0  0  0  0  0  0  0  0  0  0  0
    7.5070    6.5080   16.9530 C   0  0  0  0  0  0  0  0  0  0  0  0
    7.5350    5.3740   15.9280 C   0  0  0  0  0  0  0  0  0  0  0  0
    6.1930    5.1280   15.2390 C   0  0  0  0  0  0  0  0  0  0  0  0
    4.8190    6.9430   17.2470 H   0  0  0  0  0  0  0  0  0  0  0  0
    4.6140    6.2550   18.8610 H   0  0  0  0  0  0  0  0  0  0  0  0
    6.8190    7.0800   18.8910 H   0  0  0  0  0  0  0  0  0  0  0  0
    7.0170    5.3350   18.7050 H   0  0  0  0  0  0  0  0  0  0  0  0
    7.1840    7.4400   16.4720 H   0  0  0  0  0  0  0  0  0  0  0  0
    8.5380    6.6830   17.2830 H   0  0  0  0  0  0  0  0  0  0  0  0
    7.9000    4.4540   16.4010 H   0  0  0  0  0  0  0  0  0  0  0  0
    8.2670    5.6460   15.1570 H   0  0  0  0  0  0  0  0  0  0  0  0
    6.3690    4.5110   14.3460 H   0  0  0  0  0  0  0  0  0  0  0  0
    5.7460    6.0690   14.8900 H   0  0  0  0  0  0  0  0  0  0  0  0
    0.8170    8.7560   21.0800 C   0  0  0  0  0  0  0  0  0  0  0  0
    0.3270    8.6910   22.3910 C   0  0  0  0  0  0  0  0  0  0  0  0
   -0.2800    9.8140   22.9630 C   0  0  0  0  0  0  0  0  0  0  0  0
   -0.4180   10.9900   22.2270 C   0  0  0  0  0  0  0  0  0  0  0  0
    0.0180   11.0560   20.8940 C   0  0  0  0  0  0  0  0  0  0  0  0
    0.6370    9.9270   20.3300 C   0  0  0  0  0  0  0  0  0  0  0  0
    0.4010    7.7790   22.9760 H   0  0  0  0  0  0  0  0  0  0  0  0
   -0.6430    9.7750   23.9890 H   0  0  0  0  0  0  0  0  0  0  0  0
   -0.8650   11.8570   22.7080 H   0  0  0  0  0  0  0  0  0  0  0  0
    1.0010    9.9590   19.3020 H   0  0  0  0  0  0  0  0  0  0  0  0
   -0.1080   12.3290   20.0850 C   0  0  0  0  0  0  0  0  0  0  0  0
   -0.5950   12.0890   19.1330 H   0  0  0  0  0  0  0  0  0  0  0  0
   -0.7440   13.0490   20.6140 H   0  0  0  0  0  0  0  0  0  0  0  0
    1.1650   12.9690   19.8260 N   0  0  0  0  0  0  0  0  0  0  0  0
    1.7970   13.8040   20.7050 C   0  0  0  0  0  0  0  0  0  0  0  0
    1.4400   14.1720   21.8050 O   0  0  0  0  0  0  0  0  0  0  0  0
    3.0440   14.2200   20.0660 C   0  0  0  0  0  0  0  0  0  0  0  0
    4.0450   15.0590   20.5180 C   0  0  0  0  0  0  0  0  0  0  0  0
    5.1360   15.2660   19.6690 C   0  0  0  0  0  0  0  0  0  0  0  0
    5.1970   14.6440   18.4050 C   0  0  0  0  0  0  0  0  0  0  0  0
    4.1680   13.7990   17.9690 C   0  0  0  0  0  0  0  0  0  0  0  0
    3.1030   13.6070   18.8280 C   0  0  0  0  0  0  0  0  0  0  0  0
    1.8950   12.7930   18.6810 C   0  0  0  0  0  0  0  0  0  0  0  0
    1.6570   12.1010   17.7110 O   0  0  0  0  0  0  0  0  0  0  0  0
    3.9810   15.5310   21.4940 H   0  0  0  0  0  0  0  0  0  0  0  0
    5.9500   15.9180   19.9870 H   0  0  0  0  0  0  0  0  0  0  0  0
    6.0530   14.8230   17.7600 H   0  0  0  0  0  0  0  0  0  0  0  0
    4.1980   13.3160   16.9990 H   0  0  0  0  0  0  0  0  0  0  0  0
  1  2  2  0  0  0  0
  2 35  1  0  0  0  0
  2  3  1  0  0  0  0
  3  4  1  0  0  0  0
  5  3  1  0  0  0  0
  5  6  1  0  0  0  0
  6 11  1  0  0  0  0
  7  6  2  0  0  0  0
  7 12  1  0  0  0  0
  8  7  1  0  0  0  0
  9 10  1  0  0  0  0
  9  8  2  0  0  0  0
 10  5  2  0  0  0  0
 13  8  1  0  0  0  0
 14 10  1  0  0  0  0
 15  9  1  0  0  0  0
 16 15  2  0  0  0  0
 17 18  2  0  0  0  0
 17 16  1  0  0  0  0
 18 19  1  0  0  0  0
 19 15  1  0  0  0  0
 19 20  1  0  0  0  0
 20 21  1  0  0  0  0
 20 26  1  0  0  0  0
 21 28  1  0  0  0  0
 21 27  1  0  0  0  0
 22 30  1  0  0  0  0
 22 21  1  0  0  0  0
 23 31  1  0  0  0  0
 23 22  1  0  0  0  0
 24 23  1  0  0  0  0
 24 18  1  0  0  0  0
 25 20  1  0  0  0  0
 29 22  1  0  0  0  0
 32 23  1  0  0  0  0
 33 24  1  0  0  0  0
 34 24  1  0  0  0  0
 35 36  1  0  0  0  0
 36 37  2  0  0  0  0
 36 41  1  0  0  0  0
 37 42  1  0  0  0  0
 38 43  1  0  0  0  0
 38 37  1  0  0  0  0
 39 38  2  0  0  0  0
 40 39  1  0  0  0  0
 40 35  2  0  0  0  0
 44 40  1  0  0  0  0
 45 47  1  0  0  0  0
 45 39  1  0  0  0  0
 46 45  1  0  0  0  0
 48 45  1  0  0  0  0
 48 49  1  0  0  0  0
 49 50  2  0  0  0  0
 51 52  1  0  0  0  0
 51 49  1  0  0  0  0
 52 59  1  0  0  0  0
 53 60  1  0  0  0  0
 53 52  2  0  0  0  0
 54 53  1  0  0  0  0
 55 54  2  0  0  0  0
 55 56  1  0  0  0  0
 56 51  2  0  0  0  0
 57 56  1  0  0  0  0
 57 48  1  0  0  0  0
 58 57  2  0  0  0  0
 61 54  1  0  0  0  0
 62 55  1  0  0  0  0
M  END
>  <MODEL>
22

>  <REMARK>
 VINA RESULT:    -8.189      2.812     10.104
 INTER + INTRA:         -11.012
 INTER:                 -10.610
 INTRA:                  -0.401
 UNBOUND:                -0.429
  Name = 
  5 active torsions:
  status: ('A' for Active; 'I' for Inactive)
    1  A    between atoms: C_2  and  C_20
    2  A    between atoms: N_3  and  C_4
    3  A    between atoms: C_8  and  C_9
    4  A    between atoms: C_24  and  C_25
    5  A    between atoms: C_25  and  N_26
                            x       y       z     vdW  Elec       q    Type
                         _______ _______ _______ _____ _____    ______ ____

>  <TORSDO>
F 5

$$$$
=
 OpenBabel07192307433D

 62 67  0  0  0  0  0  0  0  0999 V2000
    1.9710    5.4500   21.1480 O   0  0  0  0  0  0  0  0  0  0  0  0
    2.1600    5.9300   20.0360 C   0  0  0  0  0  0  0  0  0  0  0  0
    1.8750    7.2240   19.6400 N   0  0  0  0  0  0  0  0  0  0  0  0
    2.2330    7.5190   18.7390 H   0  0  0  0  0  0  0  0  0  0  0  0
    1.2410    8.2310   20.3950 C   0  0  0  0  0  0  0  0  0  0  0  0
    0.8960    8.1020   21.7430 C   0  0  0  0  0  0  0  0  0  0  0  0
    0.2590    9.1500   22.4140 C   0  0  0  0  0  0  0  0  0  0  0  0
   -0.0230   10.3430   21.7480 C   0  0  0  0  0  0  0  0  0  0  0  0
    0.3300   10.4930   20.4060 C   0  0  0  0  0  0  0  0  0  0  0  0
    0.9370    9.4270   19.7310 C   0  0  0  0  0  0  0  0  0  0  0  0
    1.0900    7.1850   22.2960 H   0  0  0  0  0  0  0  0  0  0  0  0
   -0.0230    9.0270   23.4570 H   0  0  0  0  0  0  0  0  0  0  0  0
   -0.5280   11.1440   22.2800 H   0  0  0  0  0  0  0  0  0  0  0  0
    1.1800    9.5480   18.6770 H   0  0  0  0  0  0  0  0  0  0  0  0
    0.0720   11.7330   19.6870 C   0  0  0  0  0  0  0  0  0  0  0  0
   -0.7600   11.8710   18.6730 N   0  0  0  0  0  0  0  0  0  0  0  0
   -0.6800   13.1620   18.2160 N   0  0  0  0  0  0  0  0  0  0  0  0
    0.2120   13.7950   18.9400 C   0  0  0  0  0  0  0  0  0  0  0  0
    0.7140   12.9340   19.8810 N   0  0  0  0  0  0  0  0  0  0  0  0
    1.7860   13.2350   20.8000 C   0  0  0  0  0  0  0  0  0  0  0  0
    3.0960   13.6100   20.1010 C   0  0  0  0  0  0  0  0  0  0  0  0
    3.1100   15.0260   19.5230 C   0  0  0  0  0  0  0  0  0  0  0  0
    2.1440   15.2650   18.3610 C   0  0  0  0  0  0  0  0  0  0  0  0
    0.6700   15.1950   18.7560 C   0  0  0  0  0  0  0  0  0  0  0  0
    1.4390   14.0430   21.4570 H   0  0  0  0  0  0  0  0  0  0  0  0
    1.9650   12.3570   21.4310 H   0  0  0  0  0  0  0  0  0  0  0  0
    3.9080   13.5480   20.8400 H   0  0  0  0  0  0  0  0  0  0  0  0
    3.3320   12.8840   19.3080 H   0  0  0  0  0  0  0  0  0  0  0  0
    2.9250   15.7570   20.3190 H   0  0  0  0  0  0  0  0  0  0  0  0
    4.1250   15.2300   19.1580 H   0  0  0  0  0  0  0  0  0  0  0  0
    2.3600   14.5620   17.5470 H   0  0  0  0  0  0  0  0  0  0  0  0
    2.3440   16.2720   17.9700 H   0  0  0  0  0  0  0  0  0  0  0  0
    0.0730   15.6460   17.9510 H   0  0  0  0  0  0  0  0  0  0  0  0
    0.4730   15.7830   19.6640 H   0  0  0  0  0  0  0  0  0  0  0  0
    2.8460    5.0980   19.0000 C   0  0  0  0  0  0  0  0  0  0  0  0
    2.1300    4.3470   18.0590 C   0  0  0  0  0  0  0  0  0  0  0  0
    2.8140    3.6520   17.0570 C   0  0  0  0  0  0  0  0  0  0  0  0
    4.2070    3.6880   17.0030 C   0  0  0  0  0  0  0  0  0  0  0  0
    4.9440    4.3910   17.9700 C   0  0  0  0  0  0  0  0  0  0  0  0
    4.2480    5.0960   18.9670 C   0  0  0  0  0  0  0  0  0  0  0  0
    1.0450    4.2840   18.0950 H   0  0  0  0  0  0  0  0  0  0  0  0
    2.2610    3.0840   16.3110 H   0  0  0  0  0  0  0  0  0  0  0  0
    4.7110    3.1640   16.1940 H   0  0  0  0  0  0  0  0  0  0  0  0
    4.7970    5.6650   19.7180 H   0  0  0  0  0  0  0  0  0  0  0  0
    6.4550    4.4550   17.9180 C   0  0  0  0  0  0  0  0  0  0  0  0
    6.8570    3.8450   18.7340 H   0  0  0  0  0  0  0  0  0  0  0  0
    6.8170    4.0300   16.9730 H   0  0  0  0  0  0  0  0  0  0  0  0
    6.9740    5.8030   18.0240 N   0  0  0  0  0  0  0  0  0  0  0  0
    7.9120    6.1940   18.9380 C   0  0  0  0  0  0  0  0  0  0  0  0
    8.4570    5.5430   19.8050 O   0  0  0  0  0  0  0  0  0  0  0  0
    8.1620    7.6150   18.7000 C   0  0  0  0  0  0  0  0  0  0  0  0
    9.0130    8.4940   19.3430 C   0  0  0  0  0  0  0  0  0  0  0  0
    9.0380    9.8130   18.8800 C   0  0  0  0  0  0  0  0  0  0  0  0
    8.2190   10.2170   17.8050 C   0  0  0  0  0  0  0  0  0  0  0  0
    7.3630    9.3060   17.1710 C   0  0  0  0  0  0  0  0  0  0  0  0
    7.3610    8.0080   17.6450 C   0  0  0  0  0  0  0  0  0  0  0  0
    6.6030    6.8350   17.2040 C   0  0  0  0  0  0  0  0  0  0  0  0
    5.8270    6.8400   16.2700 O   0  0  0  0  0  0  0  0  0  0  0  0
    9.6350    8.1660   20.1700 H   0  0  0  0  0  0  0  0  0  0  0  0
    9.6970   10.5380   19.3560 H   0  0  0  0  0  0  0  0  0  0  0  0
    8.2520   11.2480   17.4640 H   0  0  0  0  0  0  0  0  0  0  0  0
    6.7260    9.6020   16.3460 H   0  0  0  0  0  0  0  0  0  0  0  0
  2  1  2  0  0  0  0
  3  2  1  0  0  0  0
  3  5  1  0  0  0  0
  4  3  1  0  0  0  0
  5  6  1  0  0  0  0
  6 11  1  0  0  0  0
  6  7  2  0  0  0  0
  7 12  1  0  0  0  0
  8 13  1  0  0  0  0
  8  7  1  0  0  0  0
  9  8  2  0  0  0  0
 10  5  2  0  0  0  0
 10  9  1  0  0  0  0
 14 10  1  0  0  0  0
 15 19  1  0  0  0  0
 15  9  1  0  0  0  0
 16 15  2  0  0  0  0
 17 16  1  0  0  0  0
 17 18  2  0  0  0  0
 18 19  1  0  0  0  0
 19 20  1  0  0  0  0
 20 26  1  0  0  0  0
 20 25  1  0  0  0  0
 21 20  1  0  0  0  0
 21 27  1  0  0  0  0
 22 21  1  0  0  0  0
 22 29  1  0  0  0  0
 23 24  1  0  0  0  0
 23 22  1  0  0  0  0
 24 18  1  0  0  0  0
 24 34  1  0  0  0  0
 28 21  1  0  0  0  0
 30 22  1  0  0  0  0
 31 23  1  0  0  0  0
 32 23  1  0  0  0  0
 33 24  1  0  0  0  0
 35  2  1  0  0  0  0
 36 41  1  0  0  0  0
 36 35  2  0  0  0  0
 37 36  1  0  0  0  0
 38 37  2  0  0  0  0
 38 39  1  0  0  0  0
 39 40  2  0  0  0  0
 40 35  1  0  0  0  0
 40 44  1  0  0  0  0
 42 37  1  0  0  0  0
 43 38  1  0  0  0  0
 45 39  1  0  0  0  0
 45 48  1  0  0  0  0
 45 46  1  0  0  0  0
 47 45  1  0  0  0  0
 48 49  1  0  0  0  0
 49 50  2  0  0  0  0
 51 49  1  0  0  0  0
 51 52  1  0  0  0  0
 52 59  1  0  0  0  0
 53 52  2  0  0  0  0
 53 60  1  0  0  0  0
 54 53  1  0  0  0  0
 55 56  1  0  0  0  0
 55 54  2  0  0  0  0
 56 51  2  0  0  0  0
 57 56  1  0  0  0  0
 57 48  1  0  0  0  0
 58 57  2  0  0  0  0
 61 54  1  0  0  0  0
 62 55  1  0  0  0  0
M  END
>  <MODEL>
23

>  <REMARK>
 VINA RESULT:    -8.106      2.903      4.410
 INTER + INTRA:         -10.904
 INTER:                 -10.252
 INTRA:                  -0.652
 UNBOUND:                -0.429
  Name = 
  5 active torsions:
  status: ('A' for Active; 'I' for Inactive)
    1  A    between atoms: C_2  and  C_20
    2  A    between atoms: N_3  and  C_4
    3  A    between atoms: C_8  and  C_9
    4  A    between atoms: C_24  and  C_25
    5  A    between atoms: C_25  and  N_26
                            x       y       z     vdW  Elec       q    Type
                         _______ _______ _______ _____ _____    ______ ____

>  <TORSDO>
F 5

$$$$
=
 OpenBabel07192307433D

 62 67  0  0  0  0  0  0  0  0999 V2000
    2.0930    5.2690   21.2220 O   0  0  0  0  0  0  0  0  0  0  0  0
    2.2380    5.7230   20.0930 C   0  0  0  0  0  0  0  0  0  0  0  0
    2.0110    7.0290   19.6980 N   0  0  0  0  0  0  0  0  0  0  0  0
    2.3270    7.2900   18.7700 H   0  0  0  0  0  0  0  0  0  0  0  0
    1.4970    8.0840   20.4780 C   0  0  0  0  0  0  0  0  0  0  0  0
    1.4100    8.0590   21.8720 C   0  0  0  0  0  0  0  0  0  0  0  0
    0.8760    9.1470   22.5680 C   0  0  0  0  0  0  0  0  0  0  0  0
    0.4390   10.2770   21.8770 C   0  0  0  0  0  0  0  0  0  0  0  0
    0.5330   10.3240   20.4840 C   0  0  0  0  0  0  0  0  0  0  0  0
    1.0390    9.2160   19.7920 C   0  0  0  0  0  0  0  0  0  0  0  0
    1.7320    7.1930   22.4480 H   0  0  0  0  0  0  0  0  0  0  0  0
    0.7940    9.1050   23.6520 H   0  0  0  0  0  0  0  0  0  0  0  0
    0.0160   11.1110   22.4300 H   0  0  0  0  0  0  0  0  0  0  0  0
    1.0790    9.2550   18.7050 H   0  0  0  0  0  0  0  0  0  0  0  0
    0.1090   11.4970   19.7330 C   0  0  0  0  0  0  0  0  0  0  0  0
   -0.7170   11.4900   18.7060 N   0  0  0  0  0  0  0  0  0  0  0  0
   -0.8200   12.7690   18.2200 N   0  0  0  0  0  0  0  0  0  0  0  0
   -0.0420   13.5410   18.9400 C   0  0  0  0  0  0  0  0  0  0  0  0
    0.5660   12.7830   19.9070 N   0  0  0  0  0  0  0  0  0  0  0  0
    1.5660   13.2570   20.8330 C   0  0  0  0  0  0  0  0  0  0  0  0
    2.8190   13.8050   20.1420 C   0  0  0  0  0  0  0  0  0  0  0  0
    2.6360   15.1950   19.5320 C   0  0  0  0  0  0  0  0  0  0  0  0
    1.6640   15.2650   18.3520 C   0  0  0  0  0  0  0  0  0  0  0  0
    0.2100   14.9890   18.7300 C   0  0  0  0  0  0  0  0  0  0  0  0
    1.0950   14.0200   21.4670 H   0  0  0  0  0  0  0  0  0  0  0  0
    1.8620   12.4290   21.4870 H   0  0  0  0  0  0  0  0  0  0  0  0
    3.6190   13.8780   20.8940 H   0  0  0  0  0  0  0  0  0  0  0  0
    3.1720   13.1040   19.3710 H   0  0  0  0  0  0  0  0  0  0  0  0
    2.3330   15.9080   20.3080 H   0  0  0  0  0  0  0  0  0  0  0  0
    3.6160   15.5370   19.1760 H   0  0  0  0  0  0  0  0  0  0  0  0
    1.9940   14.5840   17.5580 H   0  0  0  0  0  0  0  0  0  0  0  0
    1.7210   16.2820   17.9400 H   0  0  0  0  0  0  0  0  0  0  0  0
   -0.4330   15.3300   17.9060 H   0  0  0  0  0  0  0  0  0  0  0  0
   -0.0860   15.5600   19.6200 H   0  0  0  0  0  0  0  0  0  0  0  0
    2.7970    4.8380   19.0260 C   0  0  0  0  0  0  0  0  0  0  0  0
    1.9790    4.0110   18.2450 C   0  0  0  0  0  0  0  0  0  0  0  0
    2.5380    3.2630   17.2030 C   0  0  0  0  0  0  0  0  0  0  0  0
    3.9080    3.3230   16.9520 C   0  0  0  0  0  0  0  0  0  0  0  0
    4.7520    4.1040   17.7590 C   0  0  0  0  0  0  0  0  0  0  0  0
    4.1810    4.8610   18.7970 C   0  0  0  0  0  0  0  0  0  0  0  0
    0.9130    3.9290   18.4370 H   0  0  0  0  0  0  0  0  0  0  0  0
    1.9030    2.6360   16.5800 H   0  0  0  0  0  0  0  0  0  0  0  0
    4.3090    2.7560   16.1150 H   0  0  0  0  0  0  0  0  0  0  0  0
    4.8120    5.4900   19.4250 H   0  0  0  0  0  0  0  0  0  0  0  0
    6.2380    4.1940   17.4910 C   0  0  0  0  0  0  0  0  0  0  0  0
    6.7540    3.4870   18.1500 H   0  0  0  0  0  0  0  0  0  0  0  0
    6.4520    3.9020   16.4550 H   0  0  0  0  0  0  0  0  0  0  0  0
    6.7760    5.5230   17.6960 N   0  0  0  0  0  0  0  0  0  0  0  0
    6.3970    6.6230   16.9780 C   0  0  0  0  0  0  0  0  0  0  0  0
    5.5980    6.7080   16.0680 O   0  0  0  0  0  0  0  0  0  0  0  0
    7.1640    7.7510   17.5020 C   0  0  0  0  0  0  0  0  0  0  0  0
    7.1670    9.0820   17.1300 C   0  0  0  0  0  0  0  0  0  0  0  0
    8.0200    9.9390   17.8320 C   0  0  0  0  0  0  0  0  0  0  0  0
    8.8420    9.4520   18.8690 C   0  0  0  0  0  0  0  0  0  0  0  0
    8.8220    8.0970   19.2250 C   0  0  0  0  0  0  0  0  0  0  0  0
    7.9680    7.2720   18.5200 C   0  0  0  0  0  0  0  0  0  0  0  0
    7.7070    5.8370   18.6490 C   0  0  0  0  0  0  0  0  0  0  0  0
    8.2350    5.1230   19.4780 O   0  0  0  0  0  0  0  0  0  0  0  0
    6.5280    9.4400   16.3280 H   0  0  0  0  0  0  0  0  0  0  0  0
    8.0510   10.9970   17.5740 H   0  0  0  0  0  0  0  0  0  0  0  0
    9.5000   10.1360   19.3970 H   0  0  0  0  0  0  0  0  0  0  0  0
    9.4500    7.7060   20.0180 H   0  0  0  0  0  0  0  0  0  0  0  0
  2  1  2  0  0  0  0
  3  2  1  0  0  0  0
  3  5  1  0  0  0  0
  4  3  1  0  0  0  0
  5  6  1  0  0  0  0
  6 11  1  0  0  0  0
  6  7  2  0  0  0  0
  7 12  1  0  0  0  0
  8 13  1  0  0  0  0
  8  7  1  0  0  0  0
  9  8  2  0  0  0  0
 10  5  2  0  0  0  0
 10  9  1  0  0  0  0
 14 10  1  0  0  0  0
 15 19  1  0  0  0  0
 15  9  1  0  0  0  0
 16 15  2  0  0  0  0
 17 16  1  0  0  0  0
 17 18  2  0  0  0  0
 18 19  1  0  0  0  0
 19 20  1  0  0  0  0
 20 25  1  0  0  0  0
 20 26  1  0  0  0  0
 21 20  1  0  0  0  0
 21 27  1  0  0  0  0
 22 21  1  0  0  0  0
 22 29  1  0  0  0  0
 23 24  1  0  0  0  0
 23 22  1  0  0  0  0
 24 18  1  0  0  0  0
 24 34  1  0  0  0  0
 28 21  1  0  0  0  0
 30 22  1  0  0  0  0
 31 23  1  0  0  0  0
 32 23  1  0  0  0  0
 33 24  1  0  0  0  0
 35  2  1  0  0  0  0
 36 41  1  0  0  0  0
 36 35  2  0  0  0  0
 37 36  1  0  0  0  0
 38 37  2  0  0  0  0
 38 39  1  0  0  0  0
 39 40  2  0  0  0  0
 40 35  1  0  0  0  0
 40 44  1  0  0  0  0
 42 37  1  0  0  0  0
 43 38  1  0  0  0  0
 45 48  1  0  0  0  0
 45 39  1  0  0  0  0
 45 46  1  0  0  0  0
 47 45  1  0  0  0  0
 48 57  1  0  0  0  0
 49 51  1  0  0  0  0
 49 48  1  0  0  0  0
 50 49  2  0  0  0  0
 51 56  1  0  0  0  0
 52 51  2  0  0  0  0
 52 53  1  0  0  0  0
 53 54  2  0  0  0  0
 54 55  1  0  0  0  0
 54 61  1  0  0  0  0
 55 62  1  0  0  0  0
 56 57  1  0  0  0  0
 56 55  2  0  0  0  0
 57 58  2  0  0  0  0
 59 52  1  0  0  0  0
 60 53  1  0  0  0  0
M  END
>  <MODEL>
24

>  <REMARK>
 VINA RESULT:    -8.077      2.935      4.380
 INTER + INTRA:         -10.866
 INTER:                 -10.250
 INTRA:                  -0.616
 UNBOUND:                -0.429
  Name = 
  5 active torsions:
  status: ('A' for Active; 'I' for Inactive)
    1  A    between atoms: C_2  and  C_20
    2  A    between atoms: N_3  and  C_4
    3  A    between atoms: C_8  and  C_9
    4  A    between atoms: C_24  and  C_25
    5  A    between atoms: C_25  and  N_26
                            x       y       z     vdW  Elec       q    Type
                         _______ _______ _______ _____ _____    ______ ____

>  <TORSDO>
F 5

$$$$
=
 OpenBabel07192307433D

 62 67  0  0  0  0  0  0  0  0999 V2000
    1.2330    6.4730   21.1290 O   0  0  0  0  0  0  0  0  0  0  0  0
    2.0080    6.3810   20.1850 C   0  0  0  0  0  0  0  0  0  0  0  0
    2.3170    7.3760   19.2750 N   0  0  0  0  0  0  0  0  0  0  0  0
    3.0920    7.2000   18.6470 H   0  0  0  0  0  0  0  0  0  0  0  0
    1.7560    8.6660   19.1920 C   0  0  0  0  0  0  0  0  0  0  0  0
    1.9080    9.5200   18.0970 C   0  0  0  0  0  0  0  0  0  0  0  0
    1.3250   10.7890   18.1020 C   0  0  0  0  0  0  0  0  0  0  0  0
    0.5680   11.2110   19.1960 C   0  0  0  0  0  0  0  0  0  0  0  0
    0.3930   10.3630   20.2910 C   0  0  0  0  0  0  0  0  0  0  0  0
    1.0090    9.1050   20.2930 C   0  0  0  0  0  0  0  0  0  0  0  0
    2.4980    9.2330   17.2290 H   0  0  0  0  0  0  0  0  0  0  0  0
    1.4700   11.4520   17.2520 H   0  0  0  0  0  0  0  0  0  0  0  0
    0.1290   12.2050   19.1900 H   0  0  0  0  0  0  0  0  0  0  0  0
    0.8880    8.4670   21.1660 H   0  0  0  0  0  0  0  0  0  0  0  0
   -0.4110   10.7620   21.4390 C   0  0  0  0  0  0  0  0  0  0  0  0
   -0.4920   10.1070   22.5800 N   0  0  0  0  0  0  0  0  0  0  0  0
   -1.3970   10.7480   23.3880 N   0  0  0  0  0  0  0  0  0  0  0  0
   -1.8750   11.7750   22.7260 C   0  0  0  0  0  0  0  0  0  0  0  0
   -1.2830   11.8240   21.4910 N   0  0  0  0  0  0  0  0  0  0  0  0
   -1.6190   12.7560   20.4410 C   0  0  0  0  0  0  0  0  0  0  0  0
   -3.0820   12.6650   19.9970 C   0  0  0  0  0  0  0  0  0  0  0  0
   -4.0700   13.3100   20.9710 C   0  0  0  0  0  0  0  0  0  0  0  0
   -4.1910   12.6180   22.3300 C   0  0  0  0  0  0  0  0  0  0  0  0
   -2.9300   12.7130   23.1880 C   0  0  0  0  0  0  0  0  0  0  0  0
   -1.3740   13.7630   20.8020 H   0  0  0  0  0  0  0  0  0  0  0  0
   -0.9780   12.5560   19.5750 H   0  0  0  0  0  0  0  0  0  0  0  0
   -3.1800   13.1880   19.0340 H   0  0  0  0  0  0  0  0  0  0  0  0
   -3.3670   11.6170   19.8190 H   0  0  0  0  0  0  0  0  0  0  0  0
   -3.8190   14.3690   21.1110 H   0  0  0  0  0  0  0  0  0  0  0  0
   -5.0610   13.2970   20.5020 H   0  0  0  0  0  0  0  0  0  0  0  0
   -4.4850   11.5710   22.1890 H   0  0  0  0  0  0  0  0  0  0  0  0
   -5.0100   13.1060   22.8750 H   0  0  0  0  0  0  0  0  0  0  0  0
   -3.1930   12.4470   24.2210 H   0  0  0  0  0  0  0  0  0  0  0  0
   -2.5420   13.7400   23.2130 H   0  0  0  0  0  0  0  0  0  0  0  0
    2.7850    5.1160   20.0110 C   0  0  0  0  0  0  0  0  0  0  0  0
    2.3520    3.8990   20.5530 C   0  0  0  0  0  0  0  0  0  0  0  0
    3.0680    2.7260   20.2920 C   0  0  0  0  0  0  0  0  0  0  0  0
    4.2240    2.7680   19.5120 C   0  0  0  0  0  0  0  0  0  0  0  0
    4.7040    3.9870   19.0060 C   0  0  0  0  0  0  0  0  0  0  0  0
    3.9710    5.1590   19.2630 C   0  0  0  0  0  0  0  0  0  0  0  0
    1.4680    3.8450   21.1830 H   0  0  0  0  0  0  0  0  0  0  0  0
    2.7240    1.7750   20.6930 H   0  0  0  0  0  0  0  0  0  0  0  0
    4.7420    1.8360   19.3000 H   0  0  0  0  0  0  0  0  0  0  0  0
    4.3130    6.1150   18.8660 H   0  0  0  0  0  0  0  0  0  0  0  0
    5.9460    4.0490   18.1450 C   0  0  0  0  0  0  0  0  0  0  0  0
    6.6600    3.3030   18.5100 H   0  0  0  0  0  0  0  0  0  0  0  0
    5.6970    3.7940   17.1070 H   0  0  0  0  0  0  0  0  0  0  0  0
    6.5730    5.3540   18.1410 N   0  0  0  0  0  0  0  0  0  0  0  0
    6.2590    6.3540   17.2640 C   0  0  0  0  0  0  0  0  0  0  0  0
    5.4550    6.3530   16.3550 O   0  0  0  0  0  0  0  0  0  0  0  0
    7.1060    7.4950   17.6070 C   0  0  0  0  0  0  0  0  0  0  0  0
    7.1920    8.7500   17.0350 C   0  0  0  0  0  0  0  0  0  0  0  0
    8.1100    9.6450   17.5930 C   0  0  0  0  0  0  0  0  0  0  0  0
    8.9120    9.2670   18.6900 C   0  0  0  0  0  0  0  0  0  0  0  0
    8.8070    7.9870   19.2500 C   0  0  0  0  0  0  0  0  0  0  0  0
    7.8900    7.1240   18.6830 C   0  0  0  0  0  0  0  0  0  0  0  0
    7.5370    5.7460   19.0320 C   0  0  0  0  0  0  0  0  0  0  0  0
    8.0270    5.1340   19.9590 O   0  0  0  0  0  0  0  0  0  0  0  0
    6.5680    9.0230   16.1890 H   0  0  0  0  0  0  0  0  0  0  0  0
    8.2080   10.6460   17.1750 H   0  0  0  0  0  0  0  0  0  0  0  0
    9.6210    9.9780   19.1050 H   0  0  0  0  0  0  0  0  0  0  0  0
    9.4180    7.6810   20.0910 H   0  0  0  0  0  0  0  0  0  0  0  0
  2  1  2  0  0  0  0
  3  2  1  0  0  0  0
  4  3  1  0  0  0  0
  5  3  1  0  0  0  0
  5 10  1  0  0  0  0
  6  7  1  0  0  0  0
  6  5  2  0  0  0  0
  7  8  2  0  0  0  0
  8  9  1  0  0  0  0
  9 10  2  0  0  0  0
  9 15  1  0  0  0  0
 10 14  1  0  0  0  0
 11  6  1  0  0  0  0
 12  7  1  0  0  0  0
 13  8  1  0  0  0  0
 15 19  1  0  0  0  0
 15 16  2  0  0  0  0
 16 17  1  0  0  0  0
 18 24  1  0  0  0  0
 18 17  2  0  0  0  0
 19 18  1  0  0  0  0
 20 25  1  0  0  0  0
 20 19  1  0  0  0  0
 21 20  1  0  0  0  0
 21 22  1  0  0  0  0
 22 29  1  0  0  0  0
 22 23  1  0  0  0  0
 23 32  1  0  0  0  0
 23 24  1  0  0  0  0
 24 34  1  0  0  0  0
 24 33  1  0  0  0  0
 26 20  1  0  0  0  0
 27 21  1  0  0  0  0
 28 21  1  0  0  0  0
 30 22  1  0  0  0  0
 31 23  1  0  0  0  0
 35  2  1  0  0  0  0
 35 36  1  0  0  0  0
 36 41  1  0  0  0  0
 37 36  2  0  0  0  0
 37 42  1  0  0  0  0
 38 37  1  0  0  0  0
 39 40  1  0  0  0  0
 39 38  2  0  0  0  0
 40 35  2  0  0  0  0
 43 38  1  0  0  0  0
 44 40  1  0  0  0  0
 45 46  1  0  0  0  0
 45 39  1  0  0  0  0
 47 45  1  0  0  0  0
 48 45  1  0  0  0  0
 48 57  1  0  0  0  0
 49 51  1  0  0  0  0
 49 48  1  0  0  0  0
 50 49  2  0  0  0  0
 51 56  1  0  0  0  0
 52 53  1  0  0  0  0
 52 51  2  0  0  0  0
 53 54  2  0  0  0  0
 54 61  1  0  0  0  0
 54 55  1  0  0  0  0
 55 62  1  0  0  0  0
 56 57  1  0  0  0  0
 56 55  2  0  0  0  0
 57 58  2  0  0  0  0
 59 52  1  0  0  0  0
 60 53  1  0  0  0  0
M  END
>  <MODEL>
25

>  <REMARK>
 VINA RESULT:    -7.878      2.200      3.431
 INTER + INTRA:         -10.609
 INTER:                 -10.497
 INTRA:                  -0.112
 UNBOUND:                -0.429
  Name = 
  5 active torsions:
  status: ('A' for Active; 'I' for Inactive)
    1  A    between atoms: C_2  and  C_20
    2  A    between atoms: N_3  and  C_4
    3  A    between atoms: C_8  and  C_9
    4  A    between atoms: C_24  and  C_25
    5  A    between atoms: C_25  and  N_26
                            x       y       z     vdW  Elec       q    Type
                         _______ _______ _______ _____ _____    ______ ____

>  <TORSDO>
F 5

$$$$
=
 OpenBabel07192307433D

 62 67  0  0  0  0  0  0  0  0999 V2000
    1.9810    7.9760   19.8160 O   0  0  0  0  0  0  0  0  0  0  0  0
    1.8260    8.6660   18.8150 C   0  0  0  0  0  0  0  0  0  0  0  0
    2.4200    8.4700   17.5820 N   0  0  0  0  0  0  0  0  0  0  0  0
    2.0720    9.0270   16.8100 H   0  0  0  0  0  0  0  0  0  0  0  0
    3.3790    7.4960   17.2370 C   0  0  0  0  0  0  0  0  0  0  0  0
    4.4810    7.7370   16.4140 C   0  0  0  0  0  0  0  0  0  0  0  0
    5.3800    6.7100   16.1150 C   0  0  0  0  0  0  0  0  0  0  0  0
    5.1930    5.4340   16.6500 C   0  0  0  0  0  0  0  0  0  0  0  0
    4.1040    5.1810   17.4870 C   0  0  0  0  0  0  0  0  0  0  0  0
    3.1900    6.2080   17.7550 C   0  0  0  0  0  0  0  0  0  0  0  0
    4.6580    8.7150   15.9700 H   0  0  0  0  0  0  0  0  0  0  0  0
    6.2220    6.9060   15.4550 H   0  0  0  0  0  0  0  0  0  0  0  0
    5.8930    4.6430   16.4000 H   0  0  0  0  0  0  0  0  0  0  0  0
    2.3300    5.9880   18.3850 H   0  0  0  0  0  0  0  0  0  0  0  0
    3.8920    3.8690   18.0820 C   0  0  0  0  0  0  0  0  0  0  0  0
    3.8720    2.7260   17.4250 N   0  0  0  0  0  0  0  0  0  0  0  0
    3.5770    1.7200   18.3100 N   0  0  0  0  0  0  0  0  0  0  0  0
    3.4000    2.2590   19.4930 C   0  0  0  0  0  0  0  0  0  0  0  0
    3.5880    3.6130   19.3980 N   0  0  0  0  0  0  0  0  0  0  0  0
    3.3860    4.5600   20.4690 C   0  0  0  0  0  0  0  0  0  0  0  0
    1.9560    4.5590   21.0160 C   0  0  0  0  0  0  0  0  0  0  0  0
    1.6370    3.3710   21.9250 C   0  0  0  0  0  0  0  0  0  0  0  0
    1.6270    2.0060   21.2330 C   0  0  0  0  0  0  0  0  0  0  0  0
    3.0000    1.5530   20.7370 C   0  0  0  0  0  0  0  0  0  0  0  0
    4.1150    4.3280   21.2570 H   0  0  0  0  0  0  0  0  0  0  0  0
    3.6180    5.5650   20.0980 H   0  0  0  0  0  0  0  0  0  0  0  0
    1.8170    5.4740   21.6110 H   0  0  0  0  0  0  0  0  0  0  0  0
    1.2270    4.6030   20.1930 H   0  0  0  0  0  0  0  0  0  0  0  0
    2.3300    3.3530   22.7750 H   0  0  0  0  0  0  0  0  0  0  0  0
    0.6410    3.5330   22.3530 H   0  0  0  0  0  0  0  0  0  0  0  0
    0.9020    2.0120   20.4100 H   0  0  0  0  0  0  0  0  0  0  0  0
    1.2710    1.2700   21.9650 H   0  0  0  0  0  0  0  0  0  0  0  0
    2.9510    0.4770   20.5170 H   0  0  0  0  0  0  0  0  0  0  0  0
    3.7670    1.6840   21.5120 H   0  0  0  0  0  0  0  0  0  0  0  0
    0.8400    9.7880   18.8600 C   0  0  0  0  0  0  0  0  0  0  0  0
   -0.2000    9.9010   17.9280 C   0  0  0  0  0  0  0  0  0  0  0  0
   -1.1470   10.9210   18.0610 C   0  0  0  0  0  0  0  0  0  0  0  0
   -1.0490   11.8380   19.1070 C   0  0  0  0  0  0  0  0  0  0  0  0
    0.0170   11.7750   20.0190 C   0  0  0  0  0  0  0  0  0  0  0  0
    0.9580   10.7400   19.8850 C   0  0  0  0  0  0  0  0  0  0  0  0
   -0.2840    9.2120   17.0910 H   0  0  0  0  0  0  0  0  0  0  0  0
   -1.9690   10.9990   17.3520 H   0  0  0  0  0  0  0  0  0  0  0  0
   -1.8180   12.6010   19.2040 H   0  0  0  0  0  0  0  0  0  0  0  0
    1.7850   10.6570   20.5910 H   0  0  0  0  0  0  0  0  0  0  0  0
    0.1310   12.7520   21.1680 C   0  0  0  0  0  0  0  0  0  0  0  0
    0.8890   12.3810   21.8670 H   0  0  0  0  0  0  0  0  0  0  0  0
    0.4660   13.7290   20.7990 H   0  0  0  0  0  0  0  0  0  0  0  0
   -1.1180   12.9500   21.8750 N   0  0  0  0  0  0  0  0  0  0  0  0
   -1.9480   14.0190   21.6810 C   0  0  0  0  0  0  0  0  0  0  0  0
   -1.8140   14.9700   20.9380 O   0  0  0  0  0  0  0  0  0  0  0  0
   -3.0900   13.8310   22.5740 C   0  0  0  0  0  0  0  0  0  0  0  0
   -4.2080   14.6170   22.7740 C   0  0  0  0  0  0  0  0  0  0  0  0
   -5.1470   14.1670   23.7080 C   0  0  0  0  0  0  0  0  0  0  0  0
   -4.9440   12.9620   24.4130 C   0  0  0  0  0  0  0  0  0  0  0  0
   -3.8000   12.1840   24.1920 C   0  0  0  0  0  0  0  0  0  0  0  0
   -2.8910   12.6480   23.2620 C   0  0  0  0  0  0  0  0  0  0  0  0
   -1.6240   12.0780   22.8010 C   0  0  0  0  0  0  0  0  0  0  0  0
   -1.1750   11.0190   23.1920 O   0  0  0  0  0  0  0  0  0  0  0  0
   -4.3470   15.5430   22.2240 H   0  0  0  0  0  0  0  0  0  0  0  0
   -6.0450   14.7540   23.8950 H   0  0  0  0  0  0  0  0  0  0  0  0
   -5.6850   12.6330   25.1360 H   0  0  0  0  0  0  0  0  0  0  0  0
   -3.6290   11.2570   24.7280 H   0  0  0  0  0  0  0  0  0  0  0  0
  2 35  1  0  0  0  0
  2  1  2  0  0  0  0
  3  2  1  0  0  0  0
  4  3  1  0  0  0  0
  5  3  1  0  0  0  0
  5 10  1  0  0  0  0
  6  5  2  0  0  0  0
  7  6  1  0  0  0  0
  7  8  2  0  0  0  0
  8  9  1  0  0  0  0
  9 10  2  0  0  0  0
  9 15  1  0  0  0  0
 10 14  1  0  0  0  0
 11  6  1  0  0  0  0
 12  7  1  0  0  0  0
 13  8  1  0  0  0  0
 15 19  1  0  0  0  0
 16 15  2  0  0  0  0
 16 17  1  0  0  0  0
 17 18  2  0  0  0  0
 18 24  1  0  0  0  0
 19 18  1  0  0  0  0
 19 20  1  0  0  0  0
 20 21  1  0  0  0  0
 20 25  1  0  0  0  0
 21 27  1  0  0  0  0
 21 22  1  0  0  0  0
 22 30  1  0  0  0  0
 22 29  1  0  0  0  0
 23 22  1  0  0  0  0
 23 32  1  0  0  0  0
 24 23  1  0  0  0  0
 24 34  1  0  0  0  0
 26 20  1  0  0  0  0
 28 21  1  0  0  0  0
 31 23  1  0  0  0  0
 33 24  1  0  0  0  0
 35 40  1  0  0  0  0
 36 37  1  0  0  0  0
 36 35  2  0  0  0  0
 37 38  2  0  0  0  0
 38 43  1  0  0  0  0
 38 39  1  0  0  0  0
 39 45  1  0  0  0  0
 40 39  2  0  0  0  0
 40 44  1  0  0  0  0
 41 36  1  0  0  0  0
 42 37  1  0  0  0  0
 45 46  1  0  0  0  0
 45 48  1  0  0  0  0
 47 45  1  0  0  0  0
 48 57  1  0  0  0  0
 49 48  1  0  0  0  0
 49 51  1  0  0  0  0
 50 49  2  0  0  0  0
 51 52  2  0  0  0  0
 51 56  1  0  0  0  0
 52 53  1  0  0  0  0
 53 60  1  0  0  0  0
 53 54  2  0  0  0  0
 54 61  1  0  0  0  0
 55 54  1  0  0  0  0
 55 62  1  0  0  0  0
 56 55  2  0  0  0  0
 57 58  2  0  0  0  0
 57 56  1  0  0  0  0
 59 52  1  0  0  0  0
M  END
>  <MODEL>
26

>  <REMARK>
 VINA RESULT:    -7.774      2.559     11.058
 INTER + INTRA:         -10.475
 INTER:                  -9.817
 INTRA:                  -0.658
 UNBOUND:                -0.429
  Name = 
  5 active torsions:
  status: ('A' for Active; 'I' for Inactive)
    1  A    between atoms: C_2  and  C_20
    2  A    between atoms: N_3  and  C_4
    3  A    between atoms: C_8  and  C_9
    4  A    between atoms: C_24  and  C_25
    5  A    between atoms: C_25  and  N_26
                            x       y       z     vdW  Elec       q    Type
                         _______ _______ _______ _____ _____    ______ ____

>  <TORSDO>
F 5

$$$$
=
 OpenBabel07192307433D

 62 67  0  0  0  0  0  0  0  0999 V2000
    1.2200    7.9900   21.6430 O   0  0  0  0  0  0  0  0  0  0  0  0
    1.2130    7.6920   20.4550 C   0  0  0  0  0  0  0  0  0  0  0  0
    1.0430    8.5600   19.3920 N   0  0  0  0  0  0  0  0  0  0  0  0
    1.2180    8.1910   18.4640 H   0  0  0  0  0  0  0  0  0  0  0  0
    0.7670    9.9410   19.4480 C   0  0  0  0  0  0  0  0  0  0  0  0
    1.6930   10.9390   19.1380 C   0  0  0  0  0  0  0  0  0  0  0  0
    1.3390   12.2880   19.2300 C   0  0  0  0  0  0  0  0  0  0  0  0
    0.0480   12.6510   19.6170 C   0  0  0  0  0  0  0  0  0  0  0  0
   -0.8940   11.6640   19.9150 C   0  0  0  0  0  0  0  0  0  0  0  0
   -0.5210   10.3160   19.8530 C   0  0  0  0  0  0  0  0  0  0  0  0
    2.7130   10.6990   18.8410 H   0  0  0  0  0  0  0  0  0  0  0  0
    2.0770   13.0550   19.0070 H   0  0  0  0  0  0  0  0  0  0  0  0
   -0.2090   13.7030   19.6940 H   0  0  0  0  0  0  0  0  0  0  0  0
   -1.2570    9.5590   20.1160 H   0  0  0  0  0  0  0  0  0  0  0  0
   -2.2560   12.0070   20.2990 C   0  0  0  0  0  0  0  0  0  0  0  0
   -3.2510   12.2350   19.4650 N   0  0  0  0  0  0  0  0  0  0  0  0
   -4.3570   12.5950   20.1930 N   0  0  0  0  0  0  0  0  0  0  0  0
   -4.0220   12.6040   21.4610 C   0  0  0  0  0  0  0  0  0  0  0  0
   -2.7060   12.2400   21.5770 N   0  0  0  0  0  0  0  0  0  0  0  0
   -1.9500   12.2270   22.8070 C   0  0  0  0  0  0  0  0  0  0  0  0
   -1.8760   13.5960   23.4870 C   0  0  0  0  0  0  0  0  0  0  0  0
   -3.1610   14.0030   24.2100 C   0  0  0  0  0  0  0  0  0  0  0  0
   -4.3670   14.2540   23.3030 C   0  0  0  0  0  0  0  0  0  0  0  0
   -4.8870   12.9990   22.6020 C   0  0  0  0  0  0  0  0  0  0  0  0
   -2.4060   11.4770   23.4670 H   0  0  0  0  0  0  0  0  0  0  0  0
   -0.9300   11.8890   22.5890 H   0  0  0  0  0  0  0  0  0  0  0  0
   -1.0730   13.5630   24.2380 H   0  0  0  0  0  0  0  0  0  0  0  0
   -1.5970   14.3740   22.7600 H   0  0  0  0  0  0  0  0  0  0  0  0
   -3.4150   13.2560   24.9720 H   0  0  0  0  0  0  0  0  0  0  0  0
   -2.9590   14.9320   24.7580 H   0  0  0  0  0  0  0  0  0  0  0  0
   -4.1260   15.0340   22.5700 H   0  0  0  0  0  0  0  0  0  0  0  0
   -5.1750   14.6500   23.9330 H   0  0  0  0  0  0  0  0  0  0  0  0
   -5.8920   13.2110   22.2100 H   0  0  0  0  0  0  0  0  0  0  0  0
   -4.9910   12.1640   23.3080 H   0  0  0  0  0  0  0  0  0  0  0  0
    1.4980    6.2770   20.0650 C   0  0  0  0  0  0  0  0  0  0  0  0
    0.7590    5.2030   20.5760 C   0  0  0  0  0  0  0  0  0  0  0  0
    1.0070    3.9060   20.1180 C   0  0  0  0  0  0  0  0  0  0  0  0
    2.0020    3.6750   19.1670 C   0  0  0  0  0  0  0  0  0  0  0  0
    2.7900    4.7320   18.6830 C   0  0  0  0  0  0  0  0  0  0  0  0
    2.5260    6.0350   19.1410 C   0  0  0  0  0  0  0  0  0  0  0  0
   -0.0050    5.3550   21.3350 H   0  0  0  0  0  0  0  0  0  0  0  0
    0.4210    3.0700   20.4970 H   0  0  0  0  0  0  0  0  0  0  0  0
    2.1510    2.6610   18.8050 H   0  0  0  0  0  0  0  0  0  0  0  0
    3.1110    6.8750   18.7670 H   0  0  0  0  0  0  0  0  0  0  0  0
    3.8620    4.5040   17.6410 C   0  0  0  0  0  0  0  0  0  0  0  0
    4.2230    3.4740   17.7330 H   0  0  0  0  0  0  0  0  0  0  0  0
    3.4390    4.6200   16.6350 H   0  0  0  0  0  0  0  0  0  0  0  0
    4.9780    5.4180   17.7600 N   0  0  0  0  0  0  0  0  0  0  0  0
    5.1110    6.5660   17.0290 C   0  0  0  0  0  0  0  0  0  0  0  0
    4.3800    7.0200   16.1730 O   0  0  0  0  0  0  0  0  0  0  0  0
    6.3590    7.1950   17.4590 C   0  0  0  0  0  0  0  0  0  0  0  0
    6.9620    8.3650   17.0400 C   0  0  0  0  0  0  0  0  0  0  0  0
    8.1700    8.7150   17.6500 C   0  0  0  0  0  0  0  0  0  0  0  0
    8.7410    7.8950   18.6460 C   0  0  0  0  0  0  0  0  0  0  0  0
    8.1100    6.7120   19.0520 C   0  0  0  0  0  0  0  0  0  0  0  0
    6.9150    6.3920   18.4370 C   0  0  0  0  0  0  0  0  0  0  0  0
    6.0180    5.2520   18.6350 C   0  0  0  0  0  0  0  0  0  0  0  0
    6.2070    4.3740   19.4530 O   0  0  0  0  0  0  0  0  0  0  0  0
    6.5090    8.9840   16.2700 H   0  0  0  0  0  0  0  0  0  0  0  0
    8.6790    9.6310   17.3520 H   0  0  0  0  0  0  0  0  0  0  0  0
    9.6830    8.1850   19.1030 H   0  0  0  0  0  0  0  0  0  0  0  0
    8.5370    6.0700   19.8140 H   0  0  0  0  0  0  0  0  0  0  0  0
  2  1  2  0  0  0  0
  3  5  1  0  0  0  0
  3  2  1  0  0  0  0
  4  3  1  0  0  0  0
  5 10  1  0  0  0  0
  6  7  1  0  0  0  0
  6  5  2  0  0  0  0
  7  8  2  0  0  0  0
  8 13  1  0  0  0  0
  8  9  1  0  0  0  0
  9 15  1  0  0  0  0
 10  9  2  0  0  0  0
 10 14  1  0  0  0  0
 11  6  1  0  0  0  0
 12  7  1  0  0  0  0
 15 19  1  0  0  0  0
 16 17  1  0  0  0  0
 16 15  2  0  0  0  0
 17 18  2  0  0  0  0
 18 19  1  0  0  0  0
 18 24  1  0  0  0  0
 19 20  1  0  0  0  0
 20 25  1  0  0  0  0
 20 21  1  0  0  0  0
 21 22  1  0  0  0  0
 21 27  1  0  0  0  0
 22 30  1  0  0  0  0
 22 29  1  0  0  0  0
 23 32  1  0  0  0  0
 23 22  1  0  0  0  0
 24 23  1  0  0  0  0
 24 34  1  0  0  0  0
 26 20  1  0  0  0  0
 28 21  1  0  0  0  0
 31 23  1  0  0  0  0
 33 24  1  0  0  0  0
 35  2  1  0  0  0  0
 35 36  1  0  0  0  0
 36 41  1  0  0  0  0
 37 42  1  0  0  0  0
 37 36  2  0  0  0  0
 38 37  1  0  0  0  0
 39 40  1  0  0  0  0
 39 38  2  0  0  0  0
 40 35  2  0  0  0  0
 43 38  1  0  0  0  0
 44 40  1  0  0  0  0
 45 46  1  0  0  0  0
 45 48  1  0  0  0  0
 45 39  1  0  0  0  0
 47 45  1  0  0  0  0
 48 57  1  0  0  0  0
 49 51  1  0  0  0  0
 49 48  1  0  0  0  0
 50 49  2  0  0  0  0
 51 56  1  0  0  0  0
 52 51  2  0  0  0  0
 52 53  1  0  0  0  0
 53 54  2  0  0  0  0
 54 55  1  0  0  0  0
 54 61  1  0  0  0  0
 55 62  1  0  0  0  0
 56 57  1  0  0  0  0
 56 55  2  0  0  0  0
 57 58  2  0  0  0  0
 59 52  1  0  0  0  0
 60 53  1  0  0  0  0
M  END
>  <MODEL>
27

>  <REMARK>
 VINA RESULT:    -7.742      1.855      2.550
 INTER + INTRA:         -10.434
 INTER:                  -9.118
 INTRA:                  -1.316
 UNBOUND:                -0.429
  Name = 
  5 active torsions:
  status: ('A' for Active; 'I' for Inactive)
    1  A    between atoms: C_2  and  C_20
    2  A    between atoms: N_3  and  C_4
    3  A    between atoms: C_8  and  C_9
    4  A    between atoms: C_24  and  C_25
    5  A    between atoms: C_25  and  N_26
                            x       y       z     vdW  Elec       q    Type
                         _______ _______ _______ _____ _____    ______ ____

>  <TORSDO>
F 5

$$$$
=
 OpenBabel07192307433D

 62 67  0  0  0  0  0  0  0  0999 V2000
    2.0760    7.5660   19.5080 O   0  0  0  0  0  0  0  0  0  0  0  0
    1.6190    6.8740   20.4100 C   0  0  0  0  0  0  0  0  0  0  0  0
    0.7340    7.2820   21.3920 N   0  0  0  0  0  0  0  0  0  0  0  0
    0.3250    6.5590   21.9720 H   0  0  0  0  0  0  0  0  0  0  0  0
    0.2360    8.5830   21.6090 C   0  0  0  0  0  0  0  0  0  0  0  0
    0.0780    9.1620   22.8700 C   0  0  0  0  0  0  0  0  0  0  0  0
   -0.4330   10.4560   22.9970 C   0  0  0  0  0  0  0  0  0  0  0  0
   -0.7760   11.1900   21.8600 C   0  0  0  0  0  0  0  0  0  0  0  0
   -0.6100   10.6310   20.5920 C   0  0  0  0  0  0  0  0  0  0  0  0
   -0.1280    9.3210   20.4750 C   0  0  0  0  0  0  0  0  0  0  0  0
    0.3250    8.6200   23.7810 H   0  0  0  0  0  0  0  0  0  0  0  0
   -0.5720   10.8860   23.9860 H   0  0  0  0  0  0  0  0  0  0  0  0
   -1.1830   12.1910   21.9740 H   0  0  0  0  0  0  0  0  0  0  0  0
   -0.0310    8.8880   19.4820 H   0  0  0  0  0  0  0  0  0  0  0  0
   -0.9340   11.3780   19.3840 C   0  0  0  0  0  0  0  0  0  0  0  0
   -0.7280   12.6670   19.2030 N   0  0  0  0  0  0  0  0  0  0  0  0
   -1.2250   13.0200   17.9740 N   0  0  0  0  0  0  0  0  0  0  0  0
   -1.7490   11.9500   17.4260 C   0  0  0  0  0  0  0  0  0  0  0  0
   -1.5900   10.8890   18.2780 N   0  0  0  0  0  0  0  0  0  0  0  0
   -2.1210    9.5630   18.0680 C   0  0  0  0  0  0  0  0  0  0  0  0
   -3.6460    9.5350   17.9390 C   0  0  0  0  0  0  0  0  0  0  0  0
   -4.1670   10.0250   16.5870 C   0  0  0  0  0  0  0  0  0  0  0  0
   -3.9310   11.5080   16.2970 C   0  0  0  0  0  0  0  0  0  0  0  0
   -2.4590   11.8800   16.1240 C   0  0  0  0  0  0  0  0  0  0  0  0
   -1.6370    9.1530   17.1710 H   0  0  0  0  0  0  0  0  0  0  0  0
   -1.8290    8.9300   18.9130 H   0  0  0  0  0  0  0  0  0  0  0  0
   -3.9810    8.4940   18.0630 H   0  0  0  0  0  0  0  0  0  0  0  0
   -4.1130   10.1160   18.7490 H   0  0  0  0  0  0  0  0  0  0  0  0
   -3.7430    9.4150   15.7790 H   0  0  0  0  0  0  0  0  0  0  0  0
   -5.2490    9.8490   16.5600 H   0  0  0  0  0  0  0  0  0  0  0  0
   -4.3940   12.1180   17.0830 H   0  0  0  0  0  0  0  0  0  0  0  0
   -4.4550   11.7470   15.3620 H   0  0  0  0  0  0  0  0  0  0  0  0
   -2.4060   12.8720   15.6530 H   0  0  0  0  0  0  0  0  0  0  0  0
   -1.9490   11.1800   15.4480 H   0  0  0  0  0  0  0  0  0  0  0  0
    1.9550    5.4170   20.4420 C   0  0  0  0  0  0  0  0  0  0  0  0
    0.9970    4.4410   20.7410 C   0  0  0  0  0  0  0  0  0  0  0  0
    1.3390    3.0860   20.6760 C   0  0  0  0  0  0  0  0  0  0  0  0
    2.6360    2.7050   20.3340 C   0  0  0  0  0  0  0  0  0  0  0  0
    3.6240    3.6700   20.0840 C   0  0  0  0  0  0  0  0  0  0  0  0
    3.2700    5.0300   20.1400 C   0  0  0  0  0  0  0  0  0  0  0  0
   -0.0140    4.7140   21.0330 H   0  0  0  0  0  0  0  0  0  0  0  0
    0.5910    2.3240   20.8870 H   0  0  0  0  0  0  0  0  0  0  0  0
    2.8640    1.6440   20.2590 H   0  0  0  0  0  0  0  0  0  0  0  0
    4.0150    5.7980   19.9320 H   0  0  0  0  0  0  0  0  0  0  0  0
    5.0320    3.2760   19.6960 C   0  0  0  0  0  0  0  0  0  0  0  0
    5.7320    3.7480   20.3940 H   0  0  0  0  0  0  0  0  0  0  0  0
    5.1560    2.1890   19.7840 H   0  0  0  0  0  0  0  0  0  0  0  0
    5.3780    3.6520   18.3400 N   0  0  0  0  0  0  0  0  0  0  0  0
    6.4620    4.4150   18.0090 C   0  0  0  0  0  0  0  0  0  0  0  0
    7.2960    4.9190   18.7330 O   0  0  0  0  0  0  0  0  0  0  0  0
    6.4510    4.5490   16.5530 C   0  0  0  0  0  0  0  0  0  0  0  0
    7.3170    5.2200   15.7100 C   0  0  0  0  0  0  0  0  0  0  0  0
    7.0450    5.1630   14.3390 C   0  0  0  0  0  0  0  0  0  0  0  0
    5.9270    4.4530   13.8530 C   0  0  0  0  0  0  0  0  0  0  0  0
    5.0640    3.7830   14.7300 C   0  0  0  0  0  0  0  0  0  0  0  0
    5.3570    3.8510   16.0780 C   0  0  0  0  0  0  0  0  0  0  0  0
    4.6730    3.2650   17.2320 C   0  0  0  0  0  0  0  0  0  0  0  0
    3.6860    2.5620   17.1510 O   0  0  0  0  0  0  0  0  0  0  0  0
    8.1720    5.7630   16.1020 H   0  0  0  0  0  0  0  0  0  0  0  0
    7.7030    5.6750   13.6380 H   0  0  0  0  0  0  0  0  0  0  0  0
    5.7340    4.4260   12.7840 H   0  0  0  0  0  0  0  0  0  0  0  0
    4.2000    3.2350   14.3720 H   0  0  0  0  0  0  0  0  0  0  0  0
  1  2  2  0  0  0  0
  2 35  1  0  0  0  0
  2  3  1  0  0  0  0
  3  5  1  0  0  0  0
  3  4  1  0  0  0  0
  5  6  1  0  0  0  0
  6  7  2  0  0  0  0
  6 11  1  0  0  0  0
  7 12  1  0  0  0  0
  8 13  1  0  0  0  0
  8  7  1  0  0  0  0
  9  8  2  0  0  0  0
 10  9  1  0  0  0  0
 10  5  2  0  0  0  0
 14 10  1  0  0  0  0
 15  9  1  0  0  0  0
 16 15  2  0  0  0  0
 17 16  1  0  0  0  0
 18 17  2  0  0  0  0
 18 19  1  0  0  0  0
 19 15  1  0  0  0  0
 20 19  1  0  0  0  0
 20 26  1  0  0  0  0
 21 27  1  0  0  0  0
 21 20  1  0  0  0  0
 21 28  1  0  0  0  0
 22 21  1  0  0  0  0
 23 22  1  0  0  0  0
 23 31  1  0  0  0  0
 24 23  1  0  0  0  0
 24 18  1  0  0  0  0
 25 20  1  0  0  0  0
 29 22  1  0  0  0  0
 30 22  1  0  0  0  0
 32 23  1  0  0  0  0
 33 24  1  0  0  0  0
 34 24  1  0  0  0  0
 35 36  1  0  0  0  0
 36 41  1  0  0  0  0
 37 36  2  0  0  0  0
 37 42  1  0  0  0  0
 38 37  1  0  0  0  0
 39 40  1  0  0  0  0
 39 38  2  0  0  0  0
 40 35  2  0  0  0  0
 43 38  1  0  0  0  0
 44 40  1  0  0  0  0
 45 47  1  0  0  0  0
 45 39  1  0  0  0  0
 45 46  1  0  0  0  0
 48 45  1  0  0  0  0
 49 48  1  0  0  0  0
 49 50  2  0  0  0  0
 51 49  1  0  0  0  0
 52 59  1  0  0  0  0
 52 51  2  0  0  0  0
 53 52  1  0  0  0  0
 54 53  2  0  0  0  0
 54 55  1  0  0  0  0
 55 56  2  0  0  0  0
 56 51  1  0  0  0  0
 56 57  1  0  0  0  0
 57 48  1  0  0  0  0
 58 57  2  0  0  0  0
 60 53  1  0  0  0  0
 61 54  1  0  0  0  0
 62 55  1  0  0  0  0
M  END
>  <MODEL>
28

>  <REMARK>
 VINA RESULT:    -7.739      2.128      3.473
 INTER + INTRA:         -10.429
 INTER:                 -10.052
 INTRA:                  -0.377
 UNBOUND:                -0.429
  Name = 
  5 active torsions:
  status: ('A' for Active; 'I' for Inactive)
    1  A    between atoms: C_2  and  C_20
    2  A    between atoms: N_3  and  C_4
    3  A    between atoms: C_8  and  C_9
    4  A    between atoms: C_24  and  C_25
    5  A    between atoms: C_25  and  N_26
                            x       y       z     vdW  Elec       q    Type
                         _______ _______ _______ _____ _____    ______ ____

>  <TORSDO>
F 5

$$$$
=
 OpenBabel07192307433D

 62 67  0  0  0  0  0  0  0  0999 V2000
    1.7330    7.4380   20.2310 O   0  0  0  0  0  0  0  0  0  0  0  0
    1.9660    7.3050   19.0350 C   0  0  0  0  0  0  0  0  0  0  0  0
    1.8970    8.2920   18.0690 N   0  0  0  0  0  0  0  0  0  0  0  0
    2.2710    8.0670   17.1550 H   0  0  0  0  0  0  0  0  0  0  0  0
    1.4730    9.6260   18.2360 C   0  0  0  0  0  0  0  0  0  0  0  0
    2.3380   10.7160   18.3480 C   0  0  0  0  0  0  0  0  0  0  0  0
    1.8330   12.0080   18.5210 C   0  0  0  0  0  0  0  0  0  0  0  0
    0.4540   12.2220   18.5660 C   0  0  0  0  0  0  0  0  0  0  0  0
   -0.4240   11.1440   18.4400 C   0  0  0  0  0  0  0  0  0  0  0  0
    0.0910    9.8490   18.3000 C   0  0  0  0  0  0  0  0  0  0  0  0
    3.4190   10.5910   18.3270 H   0  0  0  0  0  0  0  0  0  0  0  0
    2.5180   12.8450   18.6290 H   0  0  0  0  0  0  0  0  0  0  0  0
    0.0760   13.2300   18.7120 H   0  0  0  0  0  0  0  0  0  0  0  0
   -0.6050    9.0160   18.2320 H   0  0  0  0  0  0  0  0  0  0  0  0
   -1.8680   11.3350   18.4580 C   0  0  0  0  0  0  0  0  0  0  0  0
   -2.6750   11.1680   17.4290 N   0  0  0  0  0  0  0  0  0  0  0  0
   -3.9470   11.5080   17.8130 N   0  0  0  0  0  0  0  0  0  0  0  0
   -3.9030   11.8990   19.0640 C   0  0  0  0  0  0  0  0  0  0  0  0
   -2.6120   11.8080   19.5140 N   0  0  0  0  0  0  0  0  0  0  0  0
   -2.1480   12.2390   20.8110 C   0  0  0  0  0  0  0  0  0  0  0  0
   -2.3840   13.7290   21.0730 C   0  0  0  0  0  0  0  0  0  0  0  0
   -3.8340   14.0810   21.4070 C   0  0  0  0  0  0  0  0  0  0  0  0
   -4.8320   13.8810   20.2650 C   0  0  0  0  0  0  0  0  0  0  0  0
   -5.0370   12.4180   19.8700 C   0  0  0  0  0  0  0  0  0  0  0  0
   -2.6490   11.6170   21.5650 H   0  0  0  0  0  0  0  0  0  0  0  0
   -1.0730   12.0370   20.8860 H   0  0  0  0  0  0  0  0  0  0  0  0
   -1.7670   14.0270   21.9350 H   0  0  0  0  0  0  0  0  0  0  0  0
   -2.0430   14.3310   20.2170 H   0  0  0  0  0  0  0  0  0  0  0  0
   -4.1620   13.5220   22.2920 H   0  0  0  0  0  0  0  0  0  0  0  0
   -3.8660   15.1400   21.6930 H   0  0  0  0  0  0  0  0  0  0  0  0
   -4.5270   14.4760   19.3950 H   0  0  0  0  0  0  0  0  0  0  0  0
   -5.7990   14.2810   20.5990 H   0  0  0  0  0  0  0  0  0  0  0  0
   -5.9490   12.3480   19.2600 H   0  0  0  0  0  0  0  0  0  0  0  0
   -5.1970   11.7870   20.7540 H   0  0  0  0  0  0  0  0  0  0  0  0
    2.4620    5.9840   18.5410 C   0  0  0  0  0  0  0  0  0  0  0  0
    1.5960    4.9120   18.2920 C   0  0  0  0  0  0  0  0  0  0  0  0
    2.0970    3.7230   17.7510 C   0  0  0  0  0  0  0  0  0  0  0  0
    3.4580    3.5950   17.4780 C   0  0  0  0  0  0  0  0  0  0  0  0
    4.3500    4.6390   17.7720 C   0  0  0  0  0  0  0  0  0  0  0  0
    3.8370    5.8340   18.3050 C   0  0  0  0  0  0  0  0  0  0  0  0
    0.5350    4.9800   18.5190 H   0  0  0  0  0  0  0  0  0  0  0  0
    1.4240    2.8950   17.5360 H   0  0  0  0  0  0  0  0  0  0  0  0
    3.8140    2.6710   17.0270 H   0  0  0  0  0  0  0  0  0  0  0  0
    4.5070    6.6660   18.5250 H   0  0  0  0  0  0  0  0  0  0  0  0
    5.8270    4.5230   17.4670 C   0  0  0  0  0  0  0  0  0  0  0  0
    6.2510    3.7290   18.0920 H   0  0  0  0  0  0  0  0  0  0  0  0
    5.9740    4.2370   16.4180 H   0  0  0  0  0  0  0  0  0  0  0  0
    6.5560    5.7550   17.6950 N   0  0  0  0  0  0  0  0  0  0  0  0
    6.4370    6.8720   16.9170 C   0  0  0  0  0  0  0  0  0  0  0  0
    5.7560    7.0490   15.9270 O   0  0  0  0  0  0  0  0  0  0  0  0
    7.3250    7.8810   17.4910 C   0  0  0  0  0  0  0  0  0  0  0  0
    7.5850    9.1770   17.0910 C   0  0  0  0  0  0  0  0  0  0  0  0
    8.4950    9.9120   17.8570 C   0  0  0  0  0  0  0  0  0  0  0  0
    9.1200    9.3390   18.9840 C   0  0  0  0  0  0  0  0  0  0  0  0
    8.8410    8.0210   19.3670 C   0  0  0  0  0  0  0  0  0  0  0  0
    7.9340    7.3180   18.5970 C   0  0  0  0  0  0  0  0  0  0  0  0
    7.4280    5.9510   18.7320 C   0  0  0  0  0  0  0  0  0  0  0  0
    7.7460    5.1940   19.6280 O   0  0  0  0  0  0  0  0  0  0  0  0
    7.0960    9.6020   16.2190 H   0  0  0  0  0  0  0  0  0  0  0  0
    8.7270   10.9400   17.5780 H   0  0  0  0  0  0  0  0  0  0  0  0
    9.8270    9.9270   19.5620 H   0  0  0  0  0  0  0  0  0  0  0  0
    9.3140    7.5650   20.2300 H   0  0  0  0  0  0  0  0  0  0  0  0
  2  1  2  0  0  0  0
  3  5  1  0  0  0  0
  3  2  1  0  0  0  0
  4  3  1  0  0  0  0
  5 10  2  0  0  0  0
  5  6  1  0  0  0  0
  6  7  2  0  0  0  0
  7  8  1  0  0  0  0
  7 12  1  0  0  0  0
  8 13  1  0  0  0  0
  9 15  1  0  0  0  0
  9  8  2  0  0  0  0
 10  9  1  0  0  0  0
 11  6  1  0  0  0  0
 14 10  1  0  0  0  0
 15 19  1  0  0  0  0
 16 17  1  0  0  0  0
 16 15  2  0  0  0  0
 17 18  2  0  0  0  0
 18 19  1  0  0  0  0
 18 24  1  0  0  0  0
 19 20  1  0  0  0  0
 20 26  1  0  0  0  0
 20 21  1  0  0  0  0
 20 25  1  0  0  0  0
 21 22  1  0  0  0  0
 21 27  1  0  0  0  0
 22 30  1  0  0  0  0
 22 29  1  0  0  0  0
 23 32  1  0  0  0  0
 23 22  1  0  0  0  0
 24 23  1  0  0  0  0
 24 34  1  0  0  0  0
 28 21  1  0  0  0  0
 31 23  1  0  0  0  0
 33 24  1  0  0  0  0
 35  2  1  0  0  0  0
 36 41  1  0  0  0  0
 36 35  2  0  0  0  0
 37 36  1  0  0  0  0
 38 37  2  0  0  0  0
 38 39  1  0  0  0  0
 39 40  2  0  0  0  0
 40 44  1  0  0  0  0
 40 35  1  0  0  0  0
 42 37  1  0  0  0  0
 43 38  1  0  0  0  0
 45 48  1  0  0  0  0
 45 39  1  0  0  0  0
 45 46  1  0  0  0  0
 47 45  1  0  0  0  0
 48 57  1  0  0  0  0
 49 51  1  0  0  0  0
 49 48  1  0  0  0  0
 50 49  2  0  0  0  0
 51 56  1  0  0  0  0
 52 51  2  0  0  0  0
 52 53  1  0  0  0  0
 53 54  2  0  0  0  0
 54 55  1  0  0  0  0
 54 61  1  0  0  0  0
 55 62  1  0  0  0  0
 56 57  1  0  0  0  0
 56 55  2  0  0  0  0
 57 58  2  0  0  0  0
 59 52  1  0  0  0  0
 60 53  1  0  0  0  0
M  END
>  <MODEL>
29

>  <REMARK>
 VINA RESULT:    -7.582      2.359      3.360
 INTER + INTRA:         -10.226
 INTER:                  -9.389
 INTRA:                  -0.837
 UNBOUND:                -0.429
  Name = 
  5 active torsions:
  status: ('A' for Active; 'I' for Inactive)
    1  A    between atoms: C_2  and  C_20
    2  A    between atoms: N_3  and  C_4
    3  A    between atoms: C_8  and  C_9
    4  A    between atoms: C_24  and  C_25
    5  A    between atoms: C_25  and  N_26
                            x       y       z     vdW  Elec       q    Type
                         _______ _______ _______ _____ _____    ______ ____

>  <TORSDO>
F 5

$$$$
=
 OpenBabel07192307433D

 62 67  0  0  0  0  0  0  0  0999 V2000
    0.7220    4.9920   20.7650 O   0  0  0  0  0  0  0  0  0  0  0  0
    1.6090    5.3260   19.9890 C   0  0  0  0  0  0  0  0  0  0  0  0
    2.0920    6.6070   19.7940 N   0  0  0  0  0  0  0  0  0  0  0  0
    2.9330    6.7020   19.2360 H   0  0  0  0  0  0  0  0  0  0  0  0
    1.6190    7.8000   20.3790 C   0  0  0  0  0  0  0  0  0  0  0  0
    1.7250    8.1020   21.7380 C   0  0  0  0  0  0  0  0  0  0  0  0
    1.2200    9.3060   22.2380 C   0  0  0  0  0  0  0  0  0  0  0  0
    0.6190   10.2260   21.3780 C   0  0  0  0  0  0  0  0  0  0  0  0
    0.5190    9.9450   20.0140 C   0  0  0  0  0  0  0  0  0  0  0  0
    0.9980    8.7220   19.5270 C   0  0  0  0  0  0  0  0  0  0  0  0
    2.1790    7.4080   22.4430 H   0  0  0  0  0  0  0  0  0  0  0  0
    1.2900    9.5180   23.3020 H   0  0  0  0  0  0  0  0  0  0  0  0
    0.2210   11.1520   21.7820 H   0  0  0  0  0  0  0  0  0  0  0  0
    0.8870    8.5040   18.4660 H   0  0  0  0  0  0  0  0  0  0  0  0
   -0.0810   10.8930   19.0850 C   0  0  0  0  0  0  0  0  0  0  0  0
    0.1310   12.1940   19.0770 N   0  0  0  0  0  0  0  0  0  0  0  0
   -0.6590   12.7590   18.1080 N   0  0  0  0  0  0  0  0  0  0  0  0
   -1.3600   11.8020   17.5480 C   0  0  0  0  0  0  0  0  0  0  0  0
   -1.0300   10.6070   18.1320 N   0  0  0  0  0  0  0  0  0  0  0  0
   -1.6590    9.3390   17.8500 C   0  0  0  0  0  0  0  0  0  0  0  0
   -3.1630    9.3330   18.1370 C   0  0  0  0  0  0  0  0  0  0  0  0
   -4.0020   10.0540   17.0800 C   0  0  0  0  0  0  0  0  0  0  0  0
   -3.7830   11.5650   16.9950 C   0  0  0  0  0  0  0  0  0  0  0  0
   -2.3940   11.9630   16.4950 C   0  0  0  0  0  0  0  0  0  0  0  0
   -1.4520    9.0940   16.8000 H   0  0  0  0  0  0  0  0  0  0  0  0
   -1.1830    8.5660   18.4640 H   0  0  0  0  0  0  0  0  0  0  0  0
   -3.5010    8.2860   18.1670 H   0  0  0  0  0  0  0  0  0  0  0  0
   -3.3690    9.7610   19.1290 H   0  0  0  0  0  0  0  0  0  0  0  0
   -3.8390    9.5960   16.0960 H   0  0  0  0  0  0  0  0  0  0  0  0
   -5.0590    9.8840   17.3170 H   0  0  0  0  0  0  0  0  0  0  0  0
   -3.9900   12.0260   17.9680 H   0  0  0  0  0  0  0  0  0  0  0  0
   -4.5250   11.9650   16.2910 H   0  0  0  0  0  0  0  0  0  0  0  0
   -2.4210   13.0230   16.2030 H   0  0  0  0  0  0  0  0  0  0  0  0
   -2.1170   11.3940   15.5970 H   0  0  0  0  0  0  0  0  0  0  0  0
    2.3300    4.2650   19.2200 C   0  0  0  0  0  0  0  0  0  0  0  0
    2.0370    2.9050   19.3800 C   0  0  0  0  0  0  0  0  0  0  0  0
    2.6800    1.9560   18.5780 C   0  0  0  0  0  0  0  0  0  0  0  0
    3.6250    2.3580   17.6350 C   0  0  0  0  0  0  0  0  0  0  0  0
    3.9710    3.7120   17.4980 C   0  0  0  0  0  0  0  0  0  0  0  0
    3.3130    4.6600   18.3000 C   0  0  0  0  0  0  0  0  0  0  0  0
    1.3220    2.5650   20.1240 H   0  0  0  0  0  0  0  0  0  0  0  0
    2.4400    0.8990   18.6830 H   0  0  0  0  0  0  0  0  0  0  0  0
    4.0850    1.6010   17.0030 H   0  0  0  0  0  0  0  0  0  0  0  0
    3.5510    5.7200   18.2010 H   0  0  0  0  0  0  0  0  0  0  0  0
    4.9820    4.1680   16.4700 C   0  0  0  0  0  0  0  0  0  0  0  0
    5.6190    3.3160   16.2060 H   0  0  0  0  0  0  0  0  0  0  0  0
    4.4690    4.4960   15.5570 H   0  0  0  0  0  0  0  0  0  0  0  0
    5.8110    5.2630   16.9290 N   0  0  0  0  0  0  0  0  0  0  0  0
    5.7140    6.5460   16.4660 C   0  0  0  0  0  0  0  0  0  0  0  0
    4.9750    7.0010   15.6170 O   0  0  0  0  0  0  0  0  0  0  0  0
    6.7120    7.3310   17.1910 C   0  0  0  0  0  0  0  0  0  0  0  0
    7.0320    8.6720   17.1020 C   0  0  0  0  0  0  0  0  0  0  0  0
    8.0460    9.1430   17.9410 C   0  0  0  0  0  0  0  0  0  0  0  0
    8.7110    8.2730   18.8310 C   0  0  0  0  0  0  0  0  0  0  0  0
    8.3680    6.9160   18.8990 C   0  0  0  0  0  0  0  0  0  0  0  0
    7.3600    6.4770   18.0630 C   0  0  0  0  0  0  0  0  0  0  0  0
    6.7700    5.1470   17.9000 C   0  0  0  0  0  0  0  0  0  0  0  0
    7.0990    4.1740   18.5480 O   0  0  0  0  0  0  0  0  0  0  0  0
    6.5110    9.3270   16.4110 H   0  0  0  0  0  0  0  0  0  0  0  0
    8.3290   10.1950   17.9070 H   0  0  0  0  0  0  0  0  0  0  0  0
    9.4990    8.6600   19.4710 H   0  0  0  0  0  0  0  0  0  0  0  0
    8.8710    6.2340   19.5750 H   0  0  0  0  0  0  0  0  0  0  0  0
  2  1  2  0  0  0  0
  3  2  1  0  0  0  0
  3  5  1  0  0  0  0
  4  3  1  0  0  0  0
  5  6  1  0  0  0  0
  6  7  2  0  0  0  0
  6 11  1  0  0  0  0
  7 12  1  0  0  0  0
  8 13  1  0  0  0  0
  8  7  1  0  0  0  0
  9  8  2  0  0  0  0
 10  9  1  0  0  0  0
 10  5  2  0  0  0  0
 14 10  1  0  0  0  0
 15  9  1  0  0  0  0
 16 15  2  0  0  0  0
 17 16  1  0  0  0  0
 18 17  2  0  0  0  0
 18 19  1  0  0  0  0
 19 15  1  0  0  0  0
 20 19  1  0  0  0  0
 20 21  1  0  0  0  0
 20 26  1  0  0  0  0
 21 27  1  0  0  0  0
 21 28  1  0  0  0  0
 22 30  1  0  0  0  0
 22 21  1  0  0  0  0
 23 22  1  0  0  0  0
 23 31  1  0  0  0  0
 24 23  1  0  0  0  0
 24 18  1  0  0  0  0
 25 20  1  0  0  0  0
 29 22  1  0  0  0  0
 32 23  1  0  0  0  0
 33 24  1  0  0  0  0
 34 24  1  0  0  0  0
 35 36  1  0  0  0  0
 35  2  1  0  0  0  0
 36 41  1  0  0  0  0
 37 42  1  0  0  0  0
 37 36  2  0  0  0  0
 38 37  1  0  0  0  0
 39 38  2  0  0  0  0
 39 40  1  0  0  0  0
 40 35  2  0  0  0  0
 43 38  1  0  0  0  0
 44 40  1  0  0  0  0
 45 48  1  0  0  0  0
 45 39  1  0  0  0  0
 46 45  1  0  0  0  0
 47 45  1  0  0  0  0
 48 57  1  0  0  0  0
 49 48  1  0  0  0  0
 49 51  1  0  0  0  0
 50 49  2  0  0  0  0
 51 56  1  0  0  0  0
 52 51  2  0  0  0  0
 52 53  1  0  0  0  0
 53 54  2  0  0  0  0
 54 55  1  0  0  0  0
 54 61  1  0  0  0  0
 55 62  1  0  0  0  0
 56 55  2  0  0  0  0
 57 56  1  0  0  0  0
 57 58  2  0  0  0  0
 59 52  1  0  0  0  0
 60 53  1  0  0  0  0
M  END
>  <MODEL>
30

>  <REMARK>
 VINA RESULT:    -7.498      3.015      4.406
 INTER + INTRA:         -10.119
 INTER:                  -8.996
 INTRA:                  -1.123
 UNBOUND:                -0.429
  Name = 
  5 active torsions:
  status: ('A' for Active; 'I' for Inactive)
    1  A    between atoms: C_2  and  C_20
    2  A    between atoms: N_3  and  C_4
    3  A    between atoms: C_8  and  C_9
    4  A    between atoms: C_24  and  C_25
    5  A    between atoms: C_25  and  N_26
                            x       y       z     vdW  Elec       q    Type
                         _______ _______ _______ _____ _____    ______ ____

>  <TORSDO>
F 5

$$$$
=
 OpenBabel07192307433D

 62 67  0  0  0  0  0  0  0  0999 V2000
    1.6090    8.7980   19.9410 O   0  0  0  0  0  0  0  0  0  0  0  0
    1.4650    9.3370   18.8510 C   0  0  0  0  0  0  0  0  0  0  0  0
    2.0970    8.9880   17.6710 N   0  0  0  0  0  0  0  0  0  0  0  0
    1.7570    9.4230   16.8210 H   0  0  0  0  0  0  0  0  0  0  0  0
    3.0880    8.0030   17.4890 C   0  0  0  0  0  0  0  0  0  0  0  0
    4.4010    8.2730   17.0970 C   0  0  0  0  0  0  0  0  0  0  0  0
    5.3190    7.2330   16.9300 C   0  0  0  0  0  0  0  0  0  0  0  0
    4.9370    5.9120   17.1710 C   0  0  0  0  0  0  0  0  0  0  0  0
    3.6320    5.6270   17.5780 C   0  0  0  0  0  0  0  0  0  0  0  0
    2.7090    6.6720   17.7110 C   0  0  0  0  0  0  0  0  0  0  0  0
    4.7370    9.2880   16.8910 H   0  0  0  0  0  0  0  0  0  0  0  0
    6.3320    7.4560   16.6030 H   0  0  0  0  0  0  0  0  0  0  0  0
    5.6580    5.1140   17.0260 H   0  0  0  0  0  0  0  0  0  0  0  0
    1.6880    6.4320   18.0010 H   0  0  0  0  0  0  0  0  0  0  0  0
    3.2060    4.2630   17.8610 C   0  0  0  0  0  0  0  0  0  0  0  0
    2.7830    3.3930   16.9660 N   0  0  0  0  0  0  0  0  0  0  0  0
    2.4060    2.2460   17.6180 N   0  0  0  0  0  0  0  0  0  0  0  0
    2.5820    2.4330   18.9040 C   0  0  0  0  0  0  0  0  0  0  0  0
    3.0850    3.6920   19.1060 N   0  0  0  0  0  0  0  0  0  0  0  0
    3.3200    4.2990   20.3950 C   0  0  0  0  0  0  0  0  0  0  0  0
    2.0560    4.4100   21.2510 C   0  0  0  0  0  0  0  0  0  0  0  0
    1.6150    3.0900   21.8850 C   0  0  0  0  0  0  0  0  0  0  0  0
    1.1400    2.0210   20.8990 C   0  0  0  0  0  0  0  0  0  0  0  0
    2.2450    1.4800   19.9920 C   0  0  0  0  0  0  0  0  0  0  0  0
    4.0950    3.7080   20.9020 H   0  0  0  0  0  0  0  0  0  0  0  0
    3.7270    5.3050   20.2410 H   0  0  0  0  0  0  0  0  0  0  0  0
    2.2580    5.1160   22.0710 H   0  0  0  0  0  0  0  0  0  0  0  0
    1.2280    4.8350   20.6640 H   0  0  0  0  0  0  0  0  0  0  0  0
    2.4200    2.6880   22.5130 H   0  0  0  0  0  0  0  0  0  0  0  0
    0.7830    3.3060   22.5670 H   0  0  0  0  0  0  0  0  0  0  0  0
    0.3050    2.4090   20.3030 H   0  0  0  0  0  0  0  0  0  0  0  0
    0.7450    1.1830   21.4890 H   0  0  0  0  0  0  0  0  0  0  0  0
    1.8890    0.5480   19.5300 H   0  0  0  0  0  0  0  0  0  0  0  0
    3.1440    1.2260   20.5680 H   0  0  0  0  0  0  0  0  0  0  0  0
    0.4510   10.4270   18.7140 C   0  0  0  0  0  0  0  0  0  0  0  0
   -0.9190   10.1570   18.6100 C   0  0  0  0  0  0  0  0  0  0  0  0
   -1.8360   11.2130   18.5690 C   0  0  0  0  0  0  0  0  0  0  0  0
   -1.3890   12.5330   18.6120 C   0  0  0  0  0  0  0  0  0  0  0  0
   -0.0160   12.8240   18.6610 C   0  0  0  0  0  0  0  0  0  0  0  0
    0.8980   11.7570   18.7130 C   0  0  0  0  0  0  0  0  0  0  0  0
   -1.2910    9.1370   18.5510 H   0  0  0  0  0  0  0  0  0  0  0  0
   -2.9040   11.0080   18.5100 H   0  0  0  0  0  0  0  0  0  0  0  0
   -2.1260   13.3330   18.6110 H   0  0  0  0  0  0  0  0  0  0  0  0
    1.9680   11.9570   18.7710 H   0  0  0  0  0  0  0  0  0  0  0  0
    0.4860   14.2500   18.7240 C   0  0  0  0  0  0  0  0  0  0  0  0
    0.5350   14.6470   17.7040 H   0  0  0  0  0  0  0  0  0  0  0  0
   -0.2170   14.8720   19.2920 H   0  0  0  0  0  0  0  0  0  0  0  0
    1.7870   14.3700   19.3500 N   0  0  0  0  0  0  0  0  0  0  0  0
    2.9320   14.7010   18.6820 C   0  0  0  0  0  0  0  0  0  0  0  0
    3.0920   14.9320   17.5000 O   0  0  0  0  0  0  0  0  0  0  0  0
    4.0060   14.7240   19.6740 C   0  0  0  0  0  0  0  0  0  0  0  0
    5.3530   14.9950   19.5290 C   0  0  0  0  0  0  0  0  0  0  0  0
    6.1420   14.9420   20.6820 C   0  0  0  0  0  0  0  0  0  0  0  0
    5.5760   14.6160   21.9320 C   0  0  0  0  0  0  0  0  0  0  0  0
    4.2070   14.3430   22.0510 C   0  0  0  0  0  0  0  0  0  0  0  0
    3.4480   14.4070   20.8980 C   0  0  0  0  0  0  0  0  0  0  0  0
    2.0150   14.1900   20.6880 C   0  0  0  0  0  0  0  0  0  0  0  0
    1.2320   13.9240   21.5770 O   0  0  0  0  0  0  0  0  0  0  0  0
    5.7730   15.2430   18.5580 H   0  0  0  0  0  0  0  0  0  0  0  0
    7.2090   15.1520   20.6140 H   0  0  0  0  0  0  0  0  0  0  0  0
    6.2100   14.5770   22.8130 H   0  0  0  0  0  0  0  0  0  0  0  0
    3.7570   14.0890   23.0040 H   0  0  0  0  0  0  0  0  0  0  0  0
  2  1  2  0  0  0  0
  3  2  1  0  0  0  0
  4  3  1  0  0  0  0
  5  3  1  0  0  0  0
  5 10  1  0  0  0  0
  6  5  2  0  0  0  0
  7  6  1  0  0  0  0
  7  8  2  0  0  0  0
  8  9  1  0  0  0  0
  9 10  2  0  0  0  0
  9 15  1  0  0  0  0
 10 14  1  0  0  0  0
 11  6  1  0  0  0  0
 12  7  1  0  0  0  0
 13  8  1  0  0  0  0
 15 19  1  0  0  0  0
 16 17  1  0  0  0  0
 16 15  2  0  0  0  0
 17 18  2  0  0  0  0
 18 19  1  0  0  0  0
 18 24  1  0  0  0  0
 19 20  1  0  0  0  0
 20 25  1  0  0  0  0
 20 21  1  0  0  0  0
 21 22  1  0  0  0  0
 21 27  1  0  0  0  0
 22 29  1  0  0  0  0
 22 30  1  0  0  0  0
 23 32  1  0  0  0  0
 23 22  1  0  0  0  0
 24 34  1  0  0  0  0
 24 23  1  0  0  0  0
 26 20  1  0  0  0  0
 28 21  1  0  0  0  0
 31 23  1  0  0  0  0
 33 24  1  0  0  0  0
 35  2  1  0  0  0  0
 36 35  2  0  0  0  0
 37 36  1  0  0  0  0
 37 38  2  0  0  0  0
 38 39  1  0  0  0  0
 39 40  2  0  0  0  0
 39 45  1  0  0  0  0
 40 35  1  0  0  0  0
 40 44  1  0  0  0  0
 41 36  1  0  0  0  0
 42 37  1  0  0  0  0
 43 38  1  0  0  0  0
 45 47  1  0  0  0  0
 45 48  1  0  0  0  0
 46 45  1  0  0  0  0
 48 57  1  0  0  0  0
 49 48  1  0  0  0  0
 49 51  1  0  0  0  0
 50 49  2  0  0  0  0
 51 56  1  0  0  0  0
 52 51  2  0  0  0  0
 52 53  1  0  0  0  0
 53 54  2  0  0  0  0
 54 55  1  0  0  0  0
 54 61  1  0  0  0  0
 55 62  1  0  0  0  0
 56 55  2  0  0  0  0
 57 56  1  0  0  0  0
 57 58  2  0  0  0  0
 59 52  1  0  0  0  0
 60 53  1  0  0  0  0
M  END
>  <MODEL>
31

>  <REMARK>
 VINA RESULT:    -7.386      3.602      9.848
 INTER + INTRA:          -9.973
 INTER:                  -8.867
 INTRA:                  -1.106
 UNBOUND:                -0.429
  Name = 
  5 active torsions:
  status: ('A' for Active; 'I' for Inactive)
    1  A    between atoms: C_2  and  C_20
    2  A    between atoms: N_3  and  C_4
    3  A    between atoms: C_8  and  C_9
    4  A    between atoms: C_24  and  C_25
    5  A    between atoms: C_25  and  N_26
                            x       y       z     vdW  Elec       q    Type
                         _______ _______ _______ _____ _____    ______ ____

>  <TORSDO>
F 5

$$$$
=
 OpenBabel07192307433D

 62 67  0  0  0  0  0  0  0  0999 V2000
    2.2000    6.0770   21.5240 O   0  0  0  0  0  0  0  0  0  0  0  0
    1.7760    6.9010   20.7230 C   0  0  0  0  0  0  0  0  0  0  0  0
    1.7790    6.7860   19.3450 N   0  0  0  0  0  0  0  0  0  0  0  0
    1.2510    7.4770   18.8250 H   0  0  0  0  0  0  0  0  0  0  0  0
    2.3340    5.7460   18.5730 C   0  0  0  0  0  0  0  0  0  0  0  0
    1.7160    4.5120   18.3580 C   0  0  0  0  0  0  0  0  0  0  0  0
    2.3430    3.5300   17.5860 C   0  0  0  0  0  0  0  0  0  0  0  0
    3.5880    3.7810   17.0060 C   0  0  0  0  0  0  0  0  0  0  0  0
    4.2110    5.0150   17.1980 C   0  0  0  0  0  0  0  0  0  0  0  0
    3.5910    5.9810   18.0010 C   0  0  0  0  0  0  0  0  0  0  0  0
    0.7500    4.2730   18.8000 H   0  0  0  0  0  0  0  0  0  0  0  0
    1.8610    2.5660   17.4460 H   0  0  0  0  0  0  0  0  0  0  0  0
    4.0680    3.0050   16.4170 H   0  0  0  0  0  0  0  0  0  0  0  0
    4.1030    6.9280   18.1660 H   0  0  0  0  0  0  0  0  0  0  0  0
    5.4980    5.3190   16.5880 C   0  0  0  0  0  0  0  0  0  0  0  0
    6.2630    6.3500   16.8890 N   0  0  0  0  0  0  0  0  0  0  0  0
    7.3560    6.3390   16.0590 N   0  0  0  0  0  0  0  0  0  0  0  0
    7.2380    5.3160   15.2470 C   0  0  0  0  0  0  0  0  0  0  0  0
    6.0810    4.6430   15.5420 N   0  0  0  0  0  0  0  0  0  0  0  0
    5.5590    3.5190   14.8030 C   0  0  0  0  0  0  0  0  0  0  0  0
    5.2750    3.8390   13.3330 C   0  0  0  0  0  0  0  0  0  0  0  0
    6.5280    3.9110   12.4580 C   0  0  0  0  0  0  0  0  0  0  0  0
    7.4780    5.0670   12.7740 C   0  0  0  0  0  0  0  0  0  0  0  0
    8.1580    4.9550   14.1380 C   0  0  0  0  0  0  0  0  0  0  0  0
    6.2800    2.6960   14.9000 H   0  0  0  0  0  0  0  0  0  0  0  0
    4.6260    3.1900   15.2750 H   0  0  0  0  0  0  0  0  0  0  0  0
    4.6350    3.0420   12.9260 H   0  0  0  0  0  0  0  0  0  0  0  0
    4.7070    4.7780   13.2450 H   0  0  0  0  0  0  0  0  0  0  0  0
    7.0710    2.9580   12.5020 H   0  0  0  0  0  0  0  0  0  0  0  0
    6.2040    4.0230   11.4160 H   0  0  0  0  0  0  0  0  0  0  0  0
    6.9440    6.0220   12.6860 H   0  0  0  0  0  0  0  0  0  0  0  0
    8.2610    5.0690   12.0040 H   0  0  0  0  0  0  0  0  0  0  0  0
    9.0080    5.6530   14.1600 H   0  0  0  0  0  0  0  0  0  0  0  0
    8.5690    3.9490   14.2960 H   0  0  0  0  0  0  0  0  0  0  0  0
    1.1000    8.1290   21.2440 C   0  0  0  0  0  0  0  0  0  0  0  0
    0.7150    8.2520   22.5840 C   0  0  0  0  0  0  0  0  0  0  0  0
    0.1630    9.4520   23.0430 C   0  0  0  0  0  0  0  0  0  0  0  0
   -0.0250   10.5200   22.1660 C   0  0  0  0  0  0  0  0  0  0  0  0
    0.3050   10.3970   20.8060 C   0  0  0  0  0  0  0  0  0  0  0  0
    0.8700    9.1910   20.3560 C   0  0  0  0  0  0  0  0  0  0  0  0
    0.8290    7.4260   23.2820 H   0  0  0  0  0  0  0  0  0  0  0  0
   -0.1180    9.5600   24.0890 H   0  0  0  0  0  0  0  0  0  0  0  0
   -0.4260   11.4520   22.5570 H   0  0  0  0  0  0  0  0  0  0  0  0
    1.1510    9.0760   19.3080 H   0  0  0  0  0  0  0  0  0  0  0  0
    0.1240   11.5490   19.8430 C   0  0  0  0  0  0  0  0  0  0  0  0
   -0.0560   12.4620   20.4220 H   0  0  0  0  0  0  0  0  0  0  0  0
    1.0400   11.6980   19.2590 H   0  0  0  0  0  0  0  0  0  0  0  0
   -0.9670   11.3480   18.9110 N   0  0  0  0  0  0  0  0  0  0  0  0
   -2.1810   11.9690   19.0050 C   0  0  0  0  0  0  0  0  0  0  0  0
   -2.5800   12.7520   19.8430 O   0  0  0  0  0  0  0  0  0  0  0  0
   -2.9800   11.5020   17.8730 C   0  0  0  0  0  0  0  0  0  0  0  0
   -4.2750   11.8130   17.5030 C   0  0  0  0  0  0  0  0  0  0  0  0
   -4.7730   11.2010   16.3490 C   0  0  0  0  0  0  0  0  0  0  0  0
   -3.9790   10.3010   15.6080 C   0  0  0  0  0  0  0  0  0  0  0  0
   -2.6700   10.0010   16.0060 C   0  0  0  0  0  0  0  0  0  0  0  0
   -2.2000   10.6230   17.1470 C   0  0  0  0  0  0  0  0  0  0  0  0
   -0.8990   10.5340   17.8130 C   0  0  0  0  0  0  0  0  0  0  0  0
    0.0280    9.8630   17.4040 O   0  0  0  0  0  0  0  0  0  0  0  0
   -4.8720   12.5070   18.0870 H   0  0  0  0  0  0  0  0  0  0  0  0
   -5.7880   11.4200   16.0190 H   0  0  0  0  0  0  0  0  0  0  0  0
   -4.3890    9.8350   14.7160 H   0  0  0  0  0  0  0  0  0  0  0  0
   -2.0480    9.3100   15.4490 H   0  0  0  0  0  0  0  0  0  0  0  0
  2 35  1  0  0  0  0
  2  1  2  0  0  0  0
  3  2  1  0  0  0  0
  4  3  1  0  0  0  0
  5  3  1  0  0  0  0
  6  5  1  0  0  0  0
  6 11  1  0  0  0  0
  7  6  2  0  0  0  0
  8  9  2  0  0  0  0
  8  7  1  0  0  0  0
  9 10  1  0  0  0  0
 10 14  1  0  0  0  0
 10  5  2  0  0  0  0
 12  7  1  0  0  0  0
 13  8  1  0  0  0  0
 15 16  2  0  0  0  0
 15  9  1  0  0  0  0
 17 16  1  0  0  0  0
 18 19  1  0  0  0  0
 18 17  2  0  0  0  0
 19 15  1  0  0  0  0
 20 25  1  0  0  0  0
 20 26  1  0  0  0  0
 20 19  1  0  0  0  0
 21 20  1  0  0  0  0
 22 29  1  0  0  0  0
 22 23  1  0  0  0  0
 22 21  1  0  0  0  0
 23 24  1  0  0  0  0
 24 33  1  0  0  0  0
 24 34  1  0  0  0  0
 24 18  1  0  0  0  0
 27 21  1  0  0  0  0
 28 21  1  0  0  0  0
 30 22  1  0  0  0  0
 31 23  1  0  0  0  0
 32 23  1  0  0  0  0
 35 36  1  0  0  0  0
 36 37  2  0  0  0  0
 36 41  1  0  0  0  0
 37 42  1  0  0  0  0
 38 43  1  0  0  0  0
 38 37  1  0  0  0  0
 39 38  2  0  0  0  0
 40 39  1  0  0  0  0
 40 35  2  0  0  0  0
 44 40  1  0  0  0  0
 45 46  1  0  0  0  0
 45 39  1  0  0  0  0
 47 45  1  0  0  0  0
 48 49  1  0  0  0  0
 48 45  1  0  0  0  0
 49 50  2  0  0  0  0
 51 49  1  0  0  0  0
 52 51  1  0  0  0  0
 52 59  1  0  0  0  0
 53 52  2  0  0  0  0
 54 55  2  0  0  0  0
 54 53  1  0  0  0  0
 55 56  1  0  0  0  0
 56 57  1  0  0  0  0
 56 51  2  0  0  0  0
 57 48  1  0  0  0  0
 58 57  2  0  0  0  0
 60 53  1  0  0  0  0
 61 54  1  0  0  0  0
 62 55  1  0  0  0  0
M  END
>  <MODEL>
32

>  <REMARK>
 VINA RESULT:    -7.269      2.791     10.784
 INTER + INTRA:          -9.823
 INTER:                  -9.394
 INTRA:                  -0.429
 UNBOUND:                -0.429
  Name = 
  5 active torsions:
  status: ('A' for Active; 'I' for Inactive)
    1  A    between atoms: C_2  and  C_20
    2  A    between atoms: N_3  and  C_4
    3  A    between atoms: C_8  and  C_9
    4  A    between atoms: C_24  and  C_25
    5  A    between atoms: C_25  and  N_26
                            x       y       z     vdW  Elec       q    Type
                         _______ _______ _______ _____ _____    ______ ____

>  <TORSDO>
F 5

$$$$
