=
 OpenBabel07192307433D

 55 58  0  0  1  0  0  0  0  0999 V2000
    4.2530    3.6560   17.4200 C   0  0  0  0  0  0  0  0  0  0  0  0
    4.1600    2.2880   17.7590 C   0  0  0  0  0  0  0  0  0  0  0  0
    3.2660    1.8360   18.7360 C   0  0  0  0  0  0  0  0  0  0  0  0
    2.4790    2.7670   19.3910 C   0  0  0  0  0  0  0  0  0  0  0  0
    2.5590    4.1260   19.0750 C   0  0  0  0  0  0  0  0  0  0  0  0
    3.4280    4.5740   18.0890 C   0  0  0  0  0  0  0  0  0  0  0  0
    1.5780    4.9250   19.8950 C   0  0  1  0  0  0  0  0  0  0  0  0
    1.2710    3.9280   21.0290 C   0  0  0  0  0  0  0  0  0  0  0  0
    1.4330    2.5220   20.4330 C   0  0  0  0  0  0  0  0  0  0  0  0
    4.7840    1.5630   17.2400 H   0  0  0  0  0  0  0  0  0  0  0  0
    3.1960    0.7780   18.9690 H   0  0  0  0  0  0  0  0  0  0  0  0
    3.4630    5.6290   17.8310 H   0  0  0  0  0  0  0  0  0  0  0  0
    0.6790    5.1270   19.3010 H   0  0  0  0  0  0  0  0  0  0  0  0
    1.9920    4.0510   21.8520 H   0  0  0  0  0  0  0  0  0  0  0  0
    0.2760    4.0830   21.4580 H   0  0  0  0  0  0  0  0  0  0  0  0
    1.7590    1.8020   21.1900 H   0  0  0  0  0  0  0  0  0  0  0  0
    0.5050    2.1800   19.9640 H   0  0  0  0  0  0  0  0  0  0  0  0
    6.4730    4.6610   16.7220 C   0  0  0  0  0  0  0  0  0  0  0  0
    7.3480    5.0410   15.6900 C   0  0  0  0  0  0  0  0  0  0  0  0
    6.9660    4.9080   14.3610 C   0  0  0  0  0  0  0  0  0  0  0  0
    7.8100    5.2810   13.3910 F   0  0  0  0  0  0  0  0  0  0  0  0
    5.7240    4.3930   14.0240 C   0  0  0  0  0  0  0  0  0  0  0  0
    4.8510    3.9980   15.0370 C   0  0  0  0  0  0  0  0  0  0  0  0
    5.2070    4.1170   16.3970 C   0  0  0  0  0  0  0  0  0  0  0  0
    8.3320    5.4450   15.9120 H   0  0  0  0  0  0  0  0  0  0  0  0
    5.4460    4.2960   12.9810 H   0  0  0  0  0  0  0  0  0  0  0  0
    3.8820    3.5820   14.7650 H   0  0  0  0  0  0  0  0  0  0  0  0
    6.9310    4.8190   18.1480 C   0  0  0  0  0  0  0  0  0  0  0  0
    7.7110    5.5840   18.2150 H   0  0  0  0  0  0  0  0  0  0  0  0
    7.3090    3.8710   18.5450 H   0  0  0  0  0  0  0  0  0  0  0  0
    6.1030    5.1240   18.7980 H   0  0  0  0  0  0  0  0  0  0  0  0
    2.1560    6.1510   20.4090 N   0  0  0  0  0  0  0  0  0  0  0  0
    1.3310    7.1120   20.9420 C   0  0  0  0  0  0  0  0  0  0  0  0
    0.1500    6.9460   21.2070 O   0  0  0  0  0  0  0  0  0  0  0  0
    2.0050    8.3010   21.0870 N   0  0  0  0  0  0  0  0  0  0  0  0
    2.9030    6.5340   19.8500 H   0  0  0  0  0  0  0  0  0  0  0  0
    2.9520    8.1800   21.4100 H   0  0  0  0  0  0  0  0  0  0  0  0
    1.3030    9.4670   21.5920 C   0  0  0  0  0  0  0  0  0  0  0  0
    0.7280    9.1490   22.4680 H   0  0  0  0  0  0  0  0  0  0  0  0
    2.0720   10.1810   21.9050 H   0  0  0  0  0  0  0  0  0  0  0  0
    0.4030   10.1380   20.5710 C   0  0  0  0  0  0  0  0  0  0  0  0
    0.5800    9.9170   19.1900 C   0  0  0  0  0  0  0  0  0  0  0  0
   -0.2940   10.4740   18.2540 C   0  0  0  0  0  0  0  0  0  0  0  0
   -1.3480   11.2660   18.6830 C   0  0  0  0  0  0  0  0  0  0  0  0
   -2.1880   11.7910   17.7830 F   0  0  0  0  0  0  0  0  0  0  0  0
   -1.5310   11.5380   20.0310 C   0  0  0  0  0  0  0  0  0  0  0  0
   -0.6440   10.9990   20.9720 C   0  0  0  0  0  0  0  0  0  0  0  0
    1.3860    9.2820   18.8280 H   0  0  0  0  0  0  0  0  0  0  0  0
   -0.1670   10.2780   17.1930 H   0  0  0  0  0  0  0  0  0  0  0  0
   -2.3560   12.1720   20.3420 H   0  0  0  0  0  0  0  0  0  0  0  0
   -0.8690   11.3940   22.3820 C   0  0  0  0  0  0  0  0  0  0  0  0
   -0.6880   12.7160   22.6780 N   0  0  0  0  0  0  0  0  0  0  0  0
   -1.2840   10.6030   23.2180 O   0  0  0  0  0  0  0  0  0  0  0  0
   -1.0210   12.9960   23.5920 H   0  0  0  0  0  0  0  0  0  0  0  0
   -0.7110   13.4150   21.9500 H   0  0  0  0  0  0  0  0  0  0  0  0
  1  2  2  0  0  0  0
  1  6  1  0  0  0  0
  2  3  1  0  0  0  0
  3 11  1  0  0  0  0
  3  4  2  0  0  0  0
  4  9  1  0  0  0  0
  5  4  1  0  0  0  0
  5  7  1  0  0  0  0
  6  5  2  0  0  0  0
  7 13  1  6  0  0  0
  7 32  1  0  0  0  0
  7  8  1  0  0  0  0
  8 15  1  0  0  0  0
  8 14  1  0  0  0  0
  9  8  1  0  0  0  0
  9 16  1  0  0  0  0
 10  2  1  0  0  0  0
 12  6  1  0  0  0  0
 17  9  1  0  0  0  0
 18 28  1  0  0  0  0
 19 25  1  0  0  0  0
 19 18  2  0  0  0  0
 20 19  1  0  0  0  0
 21 20  1  0  0  0  0
 22 20  2  0  0  0  0
 22 23  1  0  0  0  0
 23 24  2  0  0  0  0
 24 18  1  0  0  0  0
 24  1  1  0  0  0  0
 26 22  1  0  0  0  0
 27 23  1  0  0  0  0
 28 29  1  0  0  0  0
 28 30  1  0  0  0  0
 28 31  1  0  0  0  0
 32 33  1  0  0  0  0
 33 35  1  0  0  0  0
 33 34  2  0  0  0  0
 35 37  1  0  0  0  0
 35 38  1  0  0  0  0
 36 32  1  0  0  0  0
 38 40  1  0  0  0  0
 38 39  1  0  0  0  0
 41 47  1  0  0  0  0
 41 38  1  0  0  0  0
 42 41  2  0  0  0  0
 43 44  2  0  0  0  0
 43 42  1  0  0  0  0
 44 46  1  0  0  0  0
 45 44  1  0  0  0  0
 46 50  1  0  0  0  0
 46 47  2  0  0  0  0
 47 51  1  0  0  0  0
 48 42  1  0  0  0  0
 49 43  1  0  0  0  0
 51 52  1  0  0  0  0
 51 53  2  0  0  0  0
 52 54  1  0  0  0  0
 55 52  1  0  0  0  0
M  END
>  <MODEL>
1

>  <REMARK>
 VINA RESULT:    -8.458      0.000      0.000
 INTER + INTRA:         -12.397
 INTER:                 -11.695
 INTRA:                  -0.701
 UNBOUND:                -1.219
  Name = 
  6 active torsions:
  status: ('A' for Active; 'I' for Inactive)
    1  A    between atoms: C_1  and  C_2
    2  A    between atoms: C_8  and  C_9
    3  A    between atoms: C_15  and  N_16
    4  A    between atoms: N_19  and  C_20
    5  A    between atoms: C_20  and  C_21
    6  A    between atoms: C_27  and  C_28
                            x       y       z     vdW  Elec       q    Type
                         _______ _______ _______ _____ _____    ______ ____

>  <TORSDO>
F 6

$$$$
=
 OpenBabel07192307433D

 55 58  0  0  1  0  0  0  0  0999 V2000
    2.0950   13.7260   18.8850 C   0  0  0  0  0  0  0  0  0  0  0  0
    1.0520   14.6730   18.7850 C   0  0  0  0  0  0  0  0  0  0  0  0
   -0.2860   14.2770   18.6740 C   0  0  0  0  0  0  0  0  0  0  0  0
   -0.5730   12.9240   18.6390 C   0  0  0  0  0  0  0  0  0  0  0  0
    0.4440   11.9710   18.7290 C   0  0  0  0  0  0  0  0  0  0  0  0
    1.7700   12.3600   18.8640 C   0  0  0  0  0  0  0  0  0  0  0  0
   -0.1250   10.5750   18.7070 C   0  0  1  0  0  0  0  0  0  0  0  0
   -1.5280   10.8470   18.1280 C   0  0  0  0  0  0  0  0  0  0  0  0
   -1.9150   12.2670   18.5640 C   0  0  0  0  0  0  0  0  0  0  0  0
    1.2860   15.7360   18.8120 H   0  0  0  0  0  0  0  0  0  0  0  0
   -1.0760   15.0210   18.6180 H   0  0  0  0  0  0  0  0  0  0  0  0
    2.5520   11.6120   18.9630 H   0  0  0  0  0  0  0  0  0  0  0  0
   -0.1950   10.1890   19.7300 H   0  0  0  0  0  0  0  0  0  0  0  0
   -1.5020   10.8060   17.0290 H   0  0  0  0  0  0  0  0  0  0  0  0
   -2.2610   10.1000   18.4530 H   0  0  0  0  0  0  0  0  0  0  0  0
   -2.5740   12.7430   17.8320 H   0  0  0  0  0  0  0  0  0  0  0  0
   -2.3900   12.2640   19.5500 H   0  0  0  0  0  0  0  0  0  0  0  0
    4.0950   14.5280   20.2200 C   0  0  0  0  0  0  0  0  0  0  0  0
    5.4530   14.8910   20.2480 C   0  0  0  0  0  0  0  0  0  0  0  0
    6.2000   14.9110   19.0770 C   0  0  0  0  0  0  0  0  0  0  0  0
    7.4900   15.2660   19.1220 F   0  0  0  0  0  0  0  0  0  0  0  0
    5.6270   14.5690   17.8620 C   0  0  0  0  0  0  0  0  0  0  0  0
    4.2860   14.1930   17.8190 C   0  0  0  0  0  0  0  0  0  0  0  0
    3.4990   14.1590   18.9900 C   0  0  0  0  0  0  0  0  0  0  0  0
    5.9390   15.1620   21.1810 H   0  0  0  0  0  0  0  0  0  0  0  0
    6.2280   14.5900   16.9580 H   0  0  0  0  0  0  0  0  0  0  0  0
    3.8470   13.9130   16.8630 H   0  0  0  0  0  0  0  0  0  0  0  0
    3.3260   14.5160   21.5150 C   0  0  0  0  0  0  0  0  0  0  0  0
    2.8510   13.5420   21.6670 H   0  0  0  0  0  0  0  0  0  0  0  0
    2.5660   15.3030   21.5250 H   0  0  0  0  0  0  0  0  0  0  0  0
    3.9870   14.7070   22.3680 H   0  0  0  0  0  0  0  0  0  0  0  0
    0.6350    9.6800   17.8580 N   0  0  0  0  0  0  0  0  0  0  0  0
    1.6020    8.8810   18.4180 C   0  0  0  0  0  0  0  0  0  0  0  0
    1.7530    8.7070   19.6170 O   0  0  0  0  0  0  0  0  0  0  0  0
    2.4100    8.3450   17.4440 N   0  0  0  0  0  0  0  0  0  0  0  0
    0.9060   10.0700   16.9690 H   0  0  0  0  0  0  0  0  0  0  0  0
    1.8990    8.0600   16.6220 H   0  0  0  0  0  0  0  0  0  0  0  0
    3.5300    7.5030   17.8230 C   0  0  0  0  0  0  0  0  0  0  0  0
    4.3770    7.7800   17.1870 H   0  0  0  0  0  0  0  0  0  0  0  0
    3.7650    7.7490   18.8640 H   0  0  0  0  0  0  0  0  0  0  0  0
    3.2470    6.0150   17.7280 C   0  0  0  0  0  0  0  0  0  0  0  0
    2.0130    5.4820   18.1520 C   0  0  0  0  0  0  0  0  0  0  0  0
    1.7220    4.1250   17.9960 C   0  0  0  0  0  0  0  0  0  0  0  0
    2.6620    3.2830   17.4220 C   0  0  0  0  0  0  0  0  0  0  0  0
    2.3760    1.9850   17.2660 F   0  0  0  0  0  0  0  0  0  0  0  0
    3.9020    3.7630   17.0280 C   0  0  0  0  0  0  0  0  0  0  0  0
    4.2050    5.1200   17.2040 C   0  0  0  0  0  0  0  0  0  0  0  0
    1.2490    6.1260   18.5850 H   0  0  0  0  0  0  0  0  0  0  0  0
    0.7590    3.7260   18.3010 H   0  0  0  0  0  0  0  0  0  0  0  0
    4.6280    3.0810   16.5930 H   0  0  0  0  0  0  0  0  0  0  0  0
    5.5750    5.5370   16.8200 C   0  0  0  0  0  0  0  0  0  0  0  0
    5.7460    5.9380   15.5250 N   0  0  0  0  0  0  0  0  0  0  0  0
    6.4830    5.6080   17.6350 O   0  0  0  0  0  0  0  0  0  0  0  0
    6.6330    6.3880   15.3320 H   0  0  0  0  0  0  0  0  0  0  0  0
    4.9560    6.2300   14.9660 H   0  0  0  0  0  0  0  0  0  0  0  0
  1 24  1  0  0  0  0
  2 10  1  0  0  0  0
  2  1  2  0  0  0  0
  3  2  1  0  0  0  0
  4  3  2  0  0  0  0
  4  5  1  0  0  0  0
  5  6  2  0  0  0  0
  6  1  1  0  0  0  0
  6 12  1  0  0  0  0
  7  5  1  0  0  0  0
  7 13  1  1  0  0  0
  8 15  1  0  0  0  0
  8  9  1  0  0  0  0
  8  7  1  0  0  0  0
  9  4  1  0  0  0  0
  9 17  1  0  0  0  0
 11  3  1  0  0  0  0
 14  8  1  0  0  0  0
 16  9  1  0  0  0  0
 18 19  1  0  0  0  0
 18 28  1  0  0  0  0
 19 25  1  0  0  0  0
 20 21  1  0  0  0  0
 20 19  2  0  0  0  0
 22 20  1  0  0  0  0
 23 22  2  0  0  0  0
 23 24  1  0  0  0  0
 24 18  2  0  0  0  0
 26 22  1  0  0  0  0
 27 23  1  0  0  0  0
 28 30  1  0  0  0  0
 28 29  1  0  0  0  0
 28 31  1  0  0  0  0
 32 33  1  0  0  0  0
 32  7  1  0  0  0  0
 33 34  2  0  0  0  0
 35 38  1  0  0  0  0
 35 33  1  0  0  0  0
 36 32  1  0  0  0  0
 37 35  1  0  0  0  0
 38 40  1  0  0  0  0
 39 38  1  0  0  0  0
 41 38  1  0  0  0  0
 41 42  1  0  0  0  0
 42 48  1  0  0  0  0
 43 42  2  0  0  0  0
 43 49  1  0  0  0  0
 44 43  1  0  0  0  0
 45 44  1  0  0  0  0
 46 47  1  0  0  0  0
 46 44  2  0  0  0  0
 47 41  2  0  0  0  0
 50 46  1  0  0  0  0
 51 47  1  0  0  0  0
 51 53  2  0  0  0  0
 52 51  1  0  0  0  0
 54 52  1  0  0  0  0
 55 52  1  0  0  0  0
M  END
>  <MODEL>
2

>  <REMARK>
 VINA RESULT:    -8.244      4.507      9.273
 INTER + INTRA:         -12.113
 INTER:                 -11.027
 INTRA:                  -1.086
 UNBOUND:                -1.219
  Name = 
  6 active torsions:
  status: ('A' for Active; 'I' for Inactive)
    1  A    between atoms: C_1  and  C_2
    2  A    between atoms: C_8  and  C_9
    3  A    between atoms: C_15  and  N_16
    4  A    between atoms: N_19  and  C_20
    5  A    between atoms: C_20  and  C_21
    6  A    between atoms: C_27  and  C_28
                            x       y       z     vdW  Elec       q    Type
                         _______ _______ _______ _____ _____    ______ ____

>  <TORSDO>
F 6

$$$$
=
 OpenBabel07192307433D

 55 58  0  0  1  0  0  0  0  0999 V2000
    3.4000    6.0830   18.2940 C   0  0  0  0  0  0  0  0  0  0  0  0
    2.8940    5.0860   17.4310 C   0  0  0  0  0  0  0  0  0  0  0  0
    3.7350    4.3670   16.5740 C   0  0  0  0  0  0  0  0  0  0  0  0
    5.0850    4.6680   16.5680 C   0  0  0  0  0  0  0  0  0  0  0  0
    5.6060    5.6540   17.4100 C   0  0  0  0  0  0  0  0  0  0  0  0
    4.7780    6.3530   18.2790 C   0  0  0  0  0  0  0  0  0  0  0  0
    7.1000    5.7660   17.2460 C   0  0  1  0  0  0  0  0  0  0  0  0
    7.2930    5.0580   15.8900 C   0  0  0  0  0  0  0  0  0  0  0  0
    6.1730    4.0150   15.7760 C   0  0  0  0  0  0  0  0  0  0  0  0
    1.8300    4.8570   17.4400 H   0  0  0  0  0  0  0  0  0  0  0  0
    3.3290    3.5910   15.9310 H   0  0  0  0  0  0  0  0  0  0  0  0
    5.1950    7.0990   18.9500 H   0  0  0  0  0  0  0  0  0  0  0  0
    7.6020    5.2120   18.0480 H   0  0  0  0  0  0  0  0  0  0  0  0
    7.1930    5.7790   15.0650 H   0  0  0  0  0  0  0  0  0  0  0  0
    8.2880    4.6100   15.7960 H   0  0  0  0  0  0  0  0  0  0  0  0
    5.8880    3.8480   14.7330 H   0  0  0  0  0  0  0  0  0  0  0  0
    6.4640    3.0680   16.2420 H   0  0  0  0  0  0  0  0  0  0  0  0
    1.9750    6.2970   20.3800 C   0  0  0  0  0  0  0  0  0  0  0  0
    1.1550    7.0940   21.1980 C   0  0  0  0  0  0  0  0  0  0  0  0
    0.8410    8.3940   20.8240 C   0  0  0  0  0  0  0  0  0  0  0  0
    0.0540    9.1360   21.6130 F   0  0  0  0  0  0  0  0  0  0  0  0
    1.3330    8.9350   19.6470 C   0  0  0  0  0  0  0  0  0  0  0  0
    2.1590    8.1630   18.8320 C   0  0  0  0  0  0  0  0  0  0  0  0
    2.5000    6.8390   19.1820 C   0  0  0  0  0  0  0  0  0  0  0  0
    0.7530    6.7080   22.1310 H   0  0  0  0  0  0  0  0  0  0  0  0
    1.0780    9.9530   19.3730 H   0  0  0  0  0  0  0  0  0  0  0  0
    2.5530    8.5990   17.9150 H   0  0  0  0  0  0  0  0  0  0  0  0
    2.2920    4.8940   20.8280 C   0  0  0  0  0  0  0  0  0  0  0  0
    1.5110    4.2030   20.4960 H   0  0  0  0  0  0  0  0  0  0  0  0
    2.3910    4.8450   21.9170 H   0  0  0  0  0  0  0  0  0  0  0  0
    3.2460    4.5520   20.4100 H   0  0  0  0  0  0  0  0  0  0  0  0
    7.5500    7.1420   17.1950 N   0  0  0  0  0  0  0  0  0  0  0  0
    8.2310    7.6670   18.2670 C   0  0  0  0  0  0  0  0  0  0  0  0
    8.6720    7.0130   19.2000 O   0  0  0  0  0  0  0  0  0  0  0  0
    8.3010    9.0360   18.1710 N   0  0  0  0  0  0  0  0  0  0  0  0
    6.8920    7.7880   16.7870 H   0  0  0  0  0  0  0  0  0  0  0  0
    8.4690    9.3570   17.2300 H   0  0  0  0  0  0  0  0  0  0  0  0
    8.9400    9.7980   19.2290 C   0  0  0  0  0  0  0  0  0  0  0  0
    8.2890    9.7490   20.1070 H   0  0  0  0  0  0  0  0  0  0  0  0
    9.8840    9.2900   19.4510 H   0  0  0  0  0  0  0  0  0  0  0  0
    9.2400   11.2390   18.8590 C   0  0  0  0  0  0  0  0  0  0  0  0
    9.6500   11.5850   17.5550 C   0  0  0  0  0  0  0  0  0  0  0  0
    9.8530   12.9180   17.1940 C   0  0  0  0  0  0  0  0  0  0  0  0
    9.6590   13.9210   18.1310 C   0  0  0  0  0  0  0  0  0  0  0  0
    9.8470   15.1990   17.7780 F   0  0  0  0  0  0  0  0  0  0  0  0
    9.2950   13.6180   19.4340 C   0  0  0  0  0  0  0  0  0  0  0  0
    9.1110   12.2790   19.8060 C   0  0  0  0  0  0  0  0  0  0  0  0
    9.7870   10.8180   16.7950 H   0  0  0  0  0  0  0  0  0  0  0  0
   10.1430   13.1790   16.1800 H   0  0  0  0  0  0  0  0  0  0  0  0
    9.1620   14.4200   20.1550 H   0  0  0  0  0  0  0  0  0  0  0  0
    8.7900   12.0370   21.2330 C   0  0  0  0  0  0  0  0  0  0  0  0
    9.8520   11.9640   22.0900 N   0  0  0  0  0  0  0  0  0  0  0  0
    7.6370   11.9970   21.6400 O   0  0  0  0  0  0  0  0  0  0  0  0
    9.6080   11.9830   23.0720 H   0  0  0  0  0  0  0  0  0  0  0  0
   10.7480   12.3540   21.8350 H   0  0  0  0  0  0  0  0  0  0  0  0
  1 24  1  0  0  0  0
  2 10  1  0  0  0  0
  2  1  2  0  0  0  0
  3  2  1  0  0  0  0
  4  3  2  0  0  0  0
  4  5  1  0  0  0  0
  5  6  2  0  0  0  0
  6  1  1  0  0  0  0
  6 12  1  0  0  0  0
  7  5  1  0  0  0  0
  7 13  1  1  0  0  0
  8  7  1  0  0  0  0
  9  8  1  0  0  0  0
  9 17  1  0  0  0  0
  9  4  1  0  0  0  0
 11  3  1  0  0  0  0
 14  8  1  0  0  0  0
 15  8  1  0  0  0  0
 16  9  1  0  0  0  0
 18 28  1  0  0  0  0
 18 19  1  0  0  0  0
 19 25  1  0  0  0  0
 20 19  2  0  0  0  0
 20 21  1  0  0  0  0
 22 20  1  0  0  0  0
 23 24  1  0  0  0  0
 23 22  2  0  0  0  0
 24 18  2  0  0  0  0
 26 22  1  0  0  0  0
 27 23  1  0  0  0  0
 28 30  1  0  0  0  0
 29 28  1  0  0  0  0
 31 28  1  0  0  0  0
 32  7  1  0  0  0  0
 32 33  1  0  0  0  0
 33 34  2  0  0  0  0
 35 33  1  0  0  0  0
 35 38  1  0  0  0  0
 36 32  1  0  0  0  0
 37 35  1  0  0  0  0
 38 40  1  0  0  0  0
 38 39  1  0  0  0  0
 41 38  1  0  0  0  0
 41 47  1  0  0  0  0
 42 41  2  0  0  0  0
 43 42  1  0  0  0  0
 43 44  2  0  0  0  0
 44 46  1  0  0  0  0
 45 44  1  0  0  0  0
 46 47  2  0  0  0  0
 46 50  1  0  0  0  0
 47 51  1  0  0  0  0
 48 42  1  0  0  0  0
 49 43  1  0  0  0  0
 51 53  2  0  0  0  0
 51 52  1  0  0  0  0
 52 54  1  0  0  0  0
 55 52  1  0  0  0  0
M  END
>  <MODEL>
3

>  <REMARK>
 VINA RESULT:    -7.972      5.629      8.063
 INTER + INTRA:         -11.755
 INTER:                 -10.612
 INTRA:                  -1.143
 UNBOUND:                -1.219
  Name = 
  6 active torsions:
  status: ('A' for Active; 'I' for Inactive)
    1  A    between atoms: C_1  and  C_2
    2  A    between atoms: C_8  and  C_9
    3  A    between atoms: C_15  and  N_16
    4  A    between atoms: N_19  and  C_20
    5  A    between atoms: C_20  and  C_21
    6  A    between atoms: C_27  and  C_28
                            x       y       z     vdW  Elec       q    Type
                         _______ _______ _______ _____ _____    ______ ____

>  <TORSDO>
F 6

$$$$
=
 OpenBabel07192307433D

 55 58  0  0  1  0  0  0  0  0999 V2000
    2.2980   13.7270   18.8890 C   0  0  0  0  0  0  0  0  0  0  0  0
    1.2670   14.6640   18.6610 C   0  0  0  0  0  0  0  0  0  0  0  0
   -0.0700   14.2670   18.5470 C   0  0  0  0  0  0  0  0  0  0  0  0
   -0.3670   12.9190   18.6400 C   0  0  0  0  0  0  0  0  0  0  0  0
    0.6390   11.9730   18.8590 C   0  0  0  0  0  0  0  0  0  0  0  0
    1.9630   12.3670   18.9960 C   0  0  0  0  0  0  0  0  0  0  0  0
    0.0580   10.5860   18.9590 C   0  0  1  0  0  0  0  0  0  0  0  0
   -1.3240   10.8050   18.3110 C   0  0  0  0  0  0  0  0  0  0  0  0
   -1.7120   12.2640   18.5890 C   0  0  0  0  0  0  0  0  0  0  0  0
    1.5100   15.7230   18.5880 H   0  0  0  0  0  0  0  0  0  0  0  0
   -0.8510   15.0050   18.3910 H   0  0  0  0  0  0  0  0  0  0  0  0
    2.7350   11.6290   19.1940 H   0  0  0  0  0  0  0  0  0  0  0  0
   -0.0480   10.3060   20.0140 H   0  0  0  0  0  0  0  0  0  0  0  0
   -1.2640   10.6540   17.2230 H   0  0  0  0  0  0  0  0  0  0  0  0
   -2.0730   10.0990   18.6860 H   0  0  0  0  0  0  0  0  0  0  0  0
   -2.3430   12.6680   17.7910 H   0  0  0  0  0  0  0  0  0  0  0  0
   -2.2180   12.3640   19.5550 H   0  0  0  0  0  0  0  0  0  0  0  0
    4.2940   14.5410   20.2230 C   0  0  0  0  0  0  0  0  0  0  0  0
    5.6520   14.9040   20.2530 C   0  0  0  0  0  0  0  0  0  0  0  0
    6.4030   14.9130   19.0840 C   0  0  0  0  0  0  0  0  0  0  0  0
    7.6930   15.2670   19.1300 F   0  0  0  0  0  0  0  0  0  0  0  0
    5.8350   14.5590   17.8700 C   0  0  0  0  0  0  0  0  0  0  0  0
    4.4930   14.1830   17.8260 C   0  0  0  0  0  0  0  0  0  0  0  0
    3.7020   14.1600   18.9950 C   0  0  0  0  0  0  0  0  0  0  0  0
    6.1360   15.1830   21.1850 H   0  0  0  0  0  0  0  0  0  0  0  0
    6.4380   14.5720   16.9690 H   0  0  0  0  0  0  0  0  0  0  0  0
    4.0570   13.8940   16.8720 H   0  0  0  0  0  0  0  0  0  0  0  0
    3.5210   14.5410   21.5160 C   0  0  0  0  0  0  0  0  0  0  0  0
    3.8030   13.6780   22.1280 H   0  0  0  0  0  0  0  0  0  0  0  0
    2.4430   14.5230   21.3260 H   0  0  0  0  0  0  0  0  0  0  0  0
    3.7230   15.4480   22.0970 H   0  0  0  0  0  0  0  0  0  0  0  0
    0.8360    9.6060   18.2290 N   0  0  0  0  0  0  0  0  0  0  0  0
    1.5210    8.6380   18.9240 C   0  0  0  0  0  0  0  0  0  0  0  0
    1.3780    8.4020   20.1140 O   0  0  0  0  0  0  0  0  0  0  0  0
    2.4290    8.0070   18.1070 N   0  0  0  0  0  0  0  0  0  0  0  0
    1.3530    9.9740   17.4460 H   0  0  0  0  0  0  0  0  0  0  0  0
    2.0720    7.8390   17.1790 H   0  0  0  0  0  0  0  0  0  0  0  0
    3.2940    6.9790   18.6540 C   0  0  0  0  0  0  0  0  0  0  0  0
    4.0220    7.4750   19.3040 H   0  0  0  0  0  0  0  0  0  0  0  0
    2.6560    6.3260   19.2600 H   0  0  0  0  0  0  0  0  0  0  0  0
    3.9940    6.1350   17.6050 C   0  0  0  0  0  0  0  0  0  0  0  0
    5.0020    6.6840   16.7860 C   0  0  0  0  0  0  0  0  0  0  0  0
    5.6990    5.8900   15.8720 C   0  0  0  0  0  0  0  0  0  0  0  0
    5.3920    4.5430   15.7580 C   0  0  0  0  0  0  0  0  0  0  0  0
    6.0680    3.7840   14.8870 F   0  0  0  0  0  0  0  0  0  0  0  0
    4.3800    3.9760   16.5180 C   0  0  0  0  0  0  0  0  0  0  0  0
    3.6640    4.7740   17.4210 C   0  0  0  0  0  0  0  0  0  0  0  0
    5.2770    7.7330   16.8720 H   0  0  0  0  0  0  0  0  0  0  0  0
    6.4930    6.3130   15.2640 H   0  0  0  0  0  0  0  0  0  0  0  0
    4.1480    2.9210   16.4020 H   0  0  0  0  0  0  0  0  0  0  0  0
    2.5550    4.1070   18.1430 C   0  0  0  0  0  0  0  0  0  0  0  0
    1.3640    4.0190   17.4780 N   0  0  0  0  0  0  0  0  0  0  0  0
    2.7160    3.5820   19.2350 O   0  0  0  0  0  0  0  0  0  0  0  0
    0.6820    3.4060   17.9060 H   0  0  0  0  0  0  0  0  0  0  0  0
    1.3270    4.1110   16.4720 H   0  0  0  0  0  0  0  0  0  0  0  0
  1 24  1  0  0  0  0
  1  6  1  0  0  0  0
  2  1  2  0  0  0  0
  3  4  2  0  0  0  0
  3  2  1  0  0  0  0
  4  5  1  0  0  0  0
  5  7  1  0  0  0  0
  5  6  2  0  0  0  0
  6 12  1  0  0  0  0
  7 13  1  1  0  0  0
  8  9  1  0  0  0  0
  8 15  1  0  0  0  0
  8  7  1  0  0  0  0
  9  4  1  0  0  0  0
  9 17  1  0  0  0  0
 10  2  1  0  0  0  0
 11  3  1  0  0  0  0
 14  8  1  0  0  0  0
 16  9  1  0  0  0  0
 18 19  1  0  0  0  0
 18 28  1  0  0  0  0
 19 25  1  0  0  0  0
 20 21  1  0  0  0  0
 20 19  2  0  0  0  0
 22 20  1  0  0  0  0
 23 22  2  0  0  0  0
 23 24  1  0  0  0  0
 24 18  2  0  0  0  0
 26 22  1  0  0  0  0
 27 23  1  0  0  0  0
 28 31  1  0  0  0  0
 28 29  1  0  0  0  0
 30 28  1  0  0  0  0
 32 33  1  0  0  0  0
 32  7  1  0  0  0  0
 33 34  2  0  0  0  0
 35 38  1  0  0  0  0
 35 33  1  0  0  0  0
 36 32  1  0  0  0  0
 37 35  1  0  0  0  0
 38 40  1  0  0  0  0
 38 39  1  0  0  0  0
 41 38  1  0  0  0  0
 42 48  1  0  0  0  0
 42 41  2  0  0  0  0
 43 42  1  0  0  0  0
 44 43  2  0  0  0  0
 44 46  1  0  0  0  0
 45 44  1  0  0  0  0
 46 47  2  0  0  0  0
 47 41  1  0  0  0  0
 47 51  1  0  0  0  0
 49 43  1  0  0  0  0
 50 46  1  0  0  0  0
 51 53  2  0  0  0  0
 52 54  1  0  0  0  0
 52 51  1  0  0  0  0
 55 52  1  0  0  0  0
M  END
>  <MODEL>
4

>  <REMARK>
 VINA RESULT:    -7.918      4.163      9.199
 INTER + INTRA:         -11.683
 INTER:                 -10.475
 INTRA:                  -1.208
 UNBOUND:                -1.219
  Name = 
  6 active torsions:
  status: ('A' for Active; 'I' for Inactive)
    1  A    between atoms: C_1  and  C_2
    2  A    between atoms: C_8  and  C_9
    3  A    between atoms: C_15  and  N_16
    4  A    between atoms: N_19  and  C_20
    5  A    between atoms: C_20  and  C_21
    6  A    between atoms: C_27  and  C_28
                            x       y       z     vdW  Elec       q    Type
                         _______ _______ _______ _____ _____    ______ ____

>  <TORSDO>
F 6

$$$$
=
 OpenBabel07192307433D

 55 58  0  0  1  0  0  0  0  0999 V2000
    4.7110    4.6410   17.4810 C   0  0  0  0  0  0  0  0  0  0  0  0
    4.9990    3.6440   18.4390 C   0  0  0  0  0  0  0  0  0  0  0  0
    4.2820    3.5540   19.6380 C   0  0  0  0  0  0  0  0  0  0  0  0
    3.2890    4.4850   19.8830 C   0  0  0  0  0  0  0  0  0  0  0  0
    2.9920    5.4840   18.9520 C   0  0  0  0  0  0  0  0  0  0  0  0
    3.6850    5.5600   17.7510 C   0  0  0  0  0  0  0  0  0  0  0  0
    1.8520    6.3440   19.4330 C   0  0  1  0  0  0  0  0  0  0  0  0
    1.8510    6.0060   20.9360 C   0  0  0  0  0  0  0  0  0  0  0  0
    2.3720    4.5680   21.0630 C   0  0  0  0  0  0  0  0  0  0  0  0
    5.7830    2.9160   18.2390 H   0  0  0  0  0  0  0  0  0  0  0  0
    4.5050    2.7680   20.3530 H   0  0  0  0  0  0  0  0  0  0  0  0
    3.4290    6.3220   17.0200 H   0  0  0  0  0  0  0  0  0  0  0  0
    0.9180    6.0170   18.9600 H   0  0  0  0  0  0  0  0  0  0  0  0
    2.5300    6.6800   21.4800 H   0  0  0  0  0  0  0  0  0  0  0  0
    0.8610    6.1300   21.3880 H   0  0  0  0  0  0  0  0  0  0  0  0
    2.8970    4.4150   22.0120 H   0  0  0  0  0  0  0  0  0  0  0  0
    1.5600    3.8410   20.9630 H   0  0  0  0  0  0  0  0  0  0  0  0
    6.6730    5.4860   16.1160 C   0  0  0  0  0  0  0  0  0  0  0  0
    7.3770    5.4890   14.8990 C   0  0  0  0  0  0  0  0  0  0  0  0
    6.8990    4.7740   13.8080 C   0  0  0  0  0  0  0  0  0  0  0  0
    7.5800    4.7930   12.6560 F   0  0  0  0  0  0  0  0  0  0  0  0
    5.7260    4.0410   13.8960 C   0  0  0  0  0  0  0  0  0  0  0  0
    5.0230    4.0160   15.1000 C   0  0  0  0  0  0  0  0  0  0  0  0
    5.4820    4.7280   16.2290 C   0  0  0  0  0  0  0  0  0  0  0  0
    8.3030    6.0480   14.7910 H   0  0  0  0  0  0  0  0  0  0  0  0
    5.3700    3.4880   13.0340 H   0  0  0  0  0  0  0  0  0  0  0  0
    4.1110    3.4270   15.1660 H   0  0  0  0  0  0  0  0  0  0  0  0
    7.2320    6.2720   17.2720 C   0  0  0  0  0  0  0  0  0  0  0  0
    6.9640    5.7970   18.2210 H   0  0  0  0  0  0  0  0  0  0  0  0
    6.8640    7.3030   17.2590 H   0  0  0  0  0  0  0  0  0  0  0  0
    8.3250    6.3290   17.2200 H   0  0  0  0  0  0  0  0  0  0  0  0
    2.0890    7.7560   19.2060 N   0  0  0  0  0  0  0  0  0  0  0  0
    1.1880    8.6760   19.6860 C   0  0  0  0  0  0  0  0  0  0  0  0
    0.2870    8.4230   20.4700 O   0  0  0  0  0  0  0  0  0  0  0  0
    1.4090    9.9090   19.1210 N   0  0  0  0  0  0  0  0  0  0  0  0
    2.4400    7.9840   18.2890 H   0  0  0  0  0  0  0  0  0  0  0  0
    2.3890   10.1290   19.0260 H   0  0  0  0  0  0  0  0  0  0  0  0
    0.5360   11.0190   19.4560 C   0  0  0  0  0  0  0  0  0  0  0  0
    0.4130   11.0220   20.5440 H   0  0  0  0  0  0  0  0  0  0  0  0
    1.0600   11.9300   19.1490 H   0  0  0  0  0  0  0  0  0  0  0  0
   -0.8120   10.9770   18.7610 C   0  0  0  0  0  0  0  0  0  0  0  0
   -1.0550   10.0810   17.7000 C   0  0  0  0  0  0  0  0  0  0  0  0
   -2.3180    9.9890   17.1090 C   0  0  0  0  0  0  0  0  0  0  0  0
   -3.3490   10.7960   17.5640 C   0  0  0  0  0  0  0  0  0  0  0  0
   -4.5600   10.6980   17.0010 F   0  0  0  0  0  0  0  0  0  0  0  0
   -3.1380   11.7170   18.5790 C   0  0  0  0  0  0  0  0  0  0  0  0
   -1.8680   11.8280   19.1590 C   0  0  0  0  0  0  0  0  0  0  0  0
   -0.2690    9.4210   17.3390 H   0  0  0  0  0  0  0  0  0  0  0  0
   -2.5050    9.2780   16.3100 H   0  0  0  0  0  0  0  0  0  0  0  0
   -3.9590   12.3480   18.9090 H   0  0  0  0  0  0  0  0  0  0  0  0
   -1.7100   12.8820   20.1880 C   0  0  0  0  0  0  0  0  0  0  0  0
   -1.4480   14.1430   19.7290 N   0  0  0  0  0  0  0  0  0  0  0  0
   -1.8940   12.6610   21.3760 O   0  0  0  0  0  0  0  0  0  0  0  0
   -1.5260   14.8740   20.4260 H   0  0  0  0  0  0  0  0  0  0  0  0
   -1.6590   14.3980   18.7750 H   0  0  0  0  0  0  0  0  0  0  0  0
  1  6  2  0  0  0  0
  1  2  1  0  0  0  0
  2  3  2  0  0  0  0
  3  4  1  0  0  0  0
  3 11  1  0  0  0  0
  4  9  1  0  0  0  0
  5  7  1  0  0  0  0
  5  4  2  0  0  0  0
  6  5  1  0  0  0  0
  7 13  1  6  0  0  0
  7  8  1  0  0  0  0
  8  9  1  0  0  0  0
  8 15  1  0  0  0  0
  8 14  1  0  0  0  0
  9 16  1  0  0  0  0
 10  2  1  0  0  0  0
 12  6  1  0  0  0  0
 17  9  1  0  0  0  0
 18 24  1  0  0  0  0
 18 28  1  0  0  0  0
 19 18  2  0  0  0  0
 20 22  2  0  0  0  0
 20 19  1  0  0  0  0
 21 20  1  0  0  0  0
 22 23  1  0  0  0  0
 23 27  1  0  0  0  0
 23 24  2  0  0  0  0
 24  1  1  0  0  0  0
 25 19  1  0  0  0  0
 26 22  1  0  0  0  0
 28 29  1  0  0  0  0
 30 28  1  0  0  0  0
 31 28  1  0  0  0  0
 32  7  1  0  0  0  0
 32 33  1  0  0  0  0
 33 34  2  0  0  0  0
 35 38  1  0  0  0  0
 35 33  1  0  0  0  0
 36 32  1  0  0  0  0
 37 35  1  0  0  0  0
 38 39  1  0  0  0  0
 40 38  1  0  0  0  0
 41 47  1  0  0  0  0
 41 38  1  0  0  0  0
 42 41  2  0  0  0  0
 43 44  2  0  0  0  0
 43 42  1  0  0  0  0
 44 46  1  0  0  0  0
 45 44  1  0  0  0  0
 46 50  1  0  0  0  0
 46 47  2  0  0  0  0
 47 51  1  0  0  0  0
 48 42  1  0  0  0  0
 49 43  1  0  0  0  0
 51 53  2  0  0  0  0
 52 51  1  0  0  0  0
 52 54  1  0  0  0  0
 55 52  1  0  0  0  0
M  END
>  <MODEL>
5

>  <REMARK>
 VINA RESULT:    -7.795      1.688      1.988
 INTER + INTRA:         -11.519
 INTER:                 -11.042
 INTRA:                  -0.478
 UNBOUND:                -1.219
  Name = 
  6 active torsions:
  status: ('A' for Active; 'I' for Inactive)
    1  A    between atoms: C_1  and  C_2
    2  A    between atoms: C_8  and  C_9
    3  A    between atoms: C_15  and  N_16
    4  A    between atoms: N_19  and  C_20
    5  A    between atoms: C_20  and  C_21
    6  A    between atoms: C_27  and  C_28
                            x       y       z     vdW  Elec       q    Type
                         _______ _______ _______ _____ _____    ______ ____

>  <TORSDO>
F 6

$$$$
=
 OpenBabel07192307433D

 55 58  0  0  1  0  0  0  0  0999 V2000
    4.4940    3.8730   17.8470 C   0  0  0  0  0  0  0  0  0  0  0  0
    4.6100    2.5880   18.4210 C   0  0  0  0  0  0  0  0  0  0  0  0
    3.8200    2.1990   19.5080 C   0  0  0  0  0  0  0  0  0  0  0  0
    2.9260    3.1140   20.0350 C   0  0  0  0  0  0  0  0  0  0  0  0
    2.7990    4.3930   19.4860 C   0  0  0  0  0  0  0  0  0  0  0  0
    3.5650    4.7740   18.3920 C   0  0  0  0  0  0  0  0  0  0  0  0
    1.7380    5.1840   20.2080 C   0  0  1  0  0  0  0  0  0  0  0  0
    1.6120    4.3710   21.5120 C   0  0  0  0  0  0  0  0  0  0  0  0
    1.9570    2.9180   21.1580 C   0  0  0  0  0  0  0  0  0  0  0  0
    5.3170    1.8740   18.0010 H   0  0  0  0  0  0  0  0  0  0  0  0
    3.9100    1.1990   19.9230 H   0  0  0  0  0  0  0  0  0  0  0  0
    3.4410    5.7610   17.9550 H   0  0  0  0  0  0  0  0  0  0  0  0
    0.8030    5.1520   19.6380 H   0  0  0  0  0  0  0  0  0  0  0  0
    2.3300    4.7350   22.2610 H   0  0  0  0  0  0  0  0  0  0  0  0
    0.6170    4.4620   21.9610 H   0  0  0  0  0  0  0  0  0  0  0  0
    2.4050    2.3950   22.0090 H   0  0  0  0  0  0  0  0  0  0  0  0
    1.0750    2.3740   20.8060 H   0  0  0  0  0  0  0  0  0  0  0  0
    6.6170    4.8620   16.8780 C   0  0  0  0  0  0  0  0  0  0  0  0
    7.3870    5.1780   15.7440 C   0  0  0  0  0  0  0  0  0  0  0  0
    6.8930    4.9350   14.4690 C   0  0  0  0  0  0  0  0  0  0  0  0
    7.6370    5.2470   13.4020 F   0  0  0  0  0  0  0  0  0  0  0  0
    5.6390    4.3720   14.2870 C   0  0  0  0  0  0  0  0  0  0  0  0
    4.8700    4.0400   15.4010 C   0  0  0  0  0  0  0  0  0  0  0  0
    5.3420    4.2710   16.7100 C   0  0  0  0  0  0  0  0  0  0  0  0
    8.3760    5.6160   15.8450 H   0  0  0  0  0  0  0  0  0  0  0  0
    5.2710    4.1890   13.2830 H   0  0  0  0  0  0  0  0  0  0  0  0
    3.8920    3.5860   15.2500 H   0  0  0  0  0  0  0  0  0  0  0  0
    7.1960    5.1390   18.2400 C   0  0  0  0  0  0  0  0  0  0  0  0
    8.1120    4.5590   18.3900 H   0  0  0  0  0  0  0  0  0  0  0  0
    6.4740    4.8990   19.0280 H   0  0  0  0  0  0  0  0  0  0  0  0
    7.4450    6.2000   18.3560 H   0  0  0  0  0  0  0  0  0  0  0  0
    2.1470    6.5480   20.4720 N   0  0  0  0  0  0  0  0  0  0  0  0
    1.2020    7.4770   20.8360 C   0  0  0  0  0  0  0  0  0  0  0  0
    0.0530    7.2110   21.1540 O   0  0  0  0  0  0  0  0  0  0  0  0
    1.7120    8.7490   20.7420 N   0  0  0  0  0  0  0  0  0  0  0  0
    2.8380    6.9130   19.8340 H   0  0  0  0  0  0  0  0  0  0  0  0
    2.6670    8.8150   21.0590 H   0  0  0  0  0  0  0  0  0  0  0  0
    0.8610    9.8870   21.0370 C   0  0  0  0  0  0  0  0  0  0  0  0
   -0.1730    9.5810   20.8460 H   0  0  0  0  0  0  0  0  0  0  0  0
    0.9830   10.0980   22.1050 H   0  0  0  0  0  0  0  0  0  0  0  0
    1.2070   11.1390   20.2520 C   0  0  0  0  0  0  0  0  0  0  0  0
    1.5130   12.3480   20.9100 C   0  0  0  0  0  0  0  0  0  0  0  0
    1.9050   13.4800   20.1920 C   0  0  0  0  0  0  0  0  0  0  0  0
    1.9860   13.4220   18.8090 C   0  0  0  0  0  0  0  0  0  0  0  0
    2.3710   14.5060   18.1260 F   0  0  0  0  0  0  0  0  0  0  0  0
    1.6550   12.2630   18.1240 C   0  0  0  0  0  0  0  0  0  0  0  0
    1.2400   11.1310   18.8400 C   0  0  0  0  0  0  0  0  0  0  0  0
    1.4790   12.4130   21.9960 H   0  0  0  0  0  0  0  0  0  0  0  0
    2.1660   14.3990   20.7070 H   0  0  0  0  0  0  0  0  0  0  0  0
    1.7130   12.2450   17.0390 H   0  0  0  0  0  0  0  0  0  0  0  0
    0.8390    9.9580   18.0290 C   0  0  0  0  0  0  0  0  0  0  0  0
   -0.4570    9.9340   17.5970 N   0  0  0  0  0  0  0  0  0  0  0  0
    1.6420    9.1020   17.6860 O   0  0  0  0  0  0  0  0  0  0  0  0
   -0.6600    9.2270   16.9000 H   0  0  0  0  0  0  0  0  0  0  0  0
   -1.0040   10.7820   17.5590 H   0  0  0  0  0  0  0  0  0  0  0  0
  1  6  2  0  0  0  0
  1  2  1  0  0  0  0
  2  3  2  0  0  0  0
  3 11  1  0  0  0  0
  3  4  1  0  0  0  0
  4  9  1  0  0  0  0
  5  4  2  0  0  0  0
  5  7  1  0  0  0  0
  6  5  1  0  0  0  0
  7 13  1  6  0  0  0
  7 32  1  0  0  0  0
  7  8  1  0  0  0  0
  8 15  1  0  0  0  0
  8 14  1  0  0  0  0
  9  8  1  0  0  0  0
  9 16  1  0  0  0  0
 10  2  1  0  0  0  0
 12  6  1  0  0  0  0
 17  9  1  0  0  0  0
 18 28  1  0  0  0  0
 19 25  1  0  0  0  0
 19 18  2  0  0  0  0
 20 19  1  0  0  0  0
 21 20  1  0  0  0  0
 22 20  2  0  0  0  0
 22 23  1  0  0  0  0
 23 24  2  0  0  0  0
 24 18  1  0  0  0  0
 24  1  1  0  0  0  0
 26 22  1  0  0  0  0
 27 23  1  0  0  0  0
 28 31  1  0  0  0  0
 28 29  1  0  0  0  0
 28 30  1  0  0  0  0
 32 33  1  0  0  0  0
 33 34  2  0  0  0  0
 35 33  1  0  0  0  0
 35 38  1  0  0  0  0
 35 37  1  0  0  0  0
 36 32  1  0  0  0  0
 38 40  1  0  0  0  0
 39 38  1  0  0  0  0
 41 42  1  0  0  0  0
 41 38  1  0  0  0  0
 42 48  1  0  0  0  0
 43 49  1  0  0  0  0
 43 42  2  0  0  0  0
 44 43  1  0  0  0  0
 45 44  1  0  0  0  0
 46 44  2  0  0  0  0
 46 47  1  0  0  0  0
 47 41  2  0  0  0  0
 50 46  1  0  0  0  0
 51 47  1  0  0  0  0
 52 51  1  0  0  0  0
 53 51  2  0  0  0  0
 54 52  1  0  0  0  0
 55 52  1  0  0  0  0
M  END
>  <MODEL>
6

>  <REMARK>
 VINA RESULT:    -7.747      1.947      2.510
 INTER + INTRA:         -11.457
 INTER:                 -10.336
 INTRA:                  -1.120
 UNBOUND:                -1.219
  Name = 
  6 active torsions:
  status: ('A' for Active; 'I' for Inactive)
    1  A    between atoms: C_1  and  C_2
    2  A    between atoms: C_8  and  C_9
    3  A    between atoms: C_15  and  N_16
    4  A    between atoms: N_19  and  C_20
    5  A    between atoms: C_20  and  C_21
    6  A    between atoms: C_27  and  C_28
                            x       y       z     vdW  Elec       q    Type
                         _______ _______ _______ _____ _____    ______ ____

>  <TORSDO>
F 6

$$$$
=
 OpenBabel07192307433D

 55 58  0  0  1  0  0  0  0  0999 V2000
    2.5690    7.0020   18.8850 C   0  0  0  0  0  0  0  0  0  0  0  0
    1.9680    5.8990   18.2380 C   0  0  0  0  0  0  0  0  0  0  0  0
    2.7250    4.9860   17.4970 C   0  0  0  0  0  0  0  0  0  0  0  0
    4.0880    5.1960   17.3860 C   0  0  0  0  0  0  0  0  0  0  0  0
    4.7020    6.2840   18.0120 C   0  0  0  0  0  0  0  0  0  0  0  0
    3.9570    7.1780   18.7690 C   0  0  0  0  0  0  0  0  0  0  0  0
    6.1910    6.2700   17.7740 C   0  0  1  0  0  0  0  0  0  0  0  0
    6.2790    5.3180   16.5650 C   0  0  0  0  0  0  0  0  0  0  0  0
    5.1000    4.3430   16.6860 C   0  0  0  0  0  0  0  0  0  0  0  0
    0.8940    5.7420   18.3300 H   0  0  0  0  0  0  0  0  0  0  0  0
    2.2480    4.1330   17.0230 H   0  0  0  0  0  0  0  0  0  0  0  0
    4.4460    8.0060   19.2750 H   0  0  0  0  0  0  0  0  0  0  0  0
    6.6990    5.8400   18.6440 H   0  0  0  0  0  0  0  0  0  0  0  0
    6.1790    5.8830   15.6260 H   0  0  0  0  0  0  0  0  0  0  0  0
    7.2430    4.7990   16.5170 H   0  0  0  0  0  0  0  0  0  0  0  0
    4.7560    4.0080   15.7020 H   0  0  0  0  0  0  0  0  0  0  0  0
    5.3600    3.4800   17.3060 H   0  0  0  0  0  0  0  0  0  0  0  0
    1.3320    9.2020   19.1200 C   0  0  0  0  0  0  0  0  0  0  0  0
    0.5230   10.0480   19.8990 C   0  0  0  0  0  0  0  0  0  0  0  0
    0.1600    9.6820   21.1890 C   0  0  0  0  0  0  0  0  0  0  0  0
   -0.6060   10.5030   21.9170 F   0  0  0  0  0  0  0  0  0  0  0  0
    0.5800    8.4780   21.7320 C   0  0  0  0  0  0  0  0  0  0  0  0
    1.3710    7.6220   20.9670 C   0  0  0  0  0  0  0  0  0  0  0  0
    1.7550    7.9610   19.6520 C   0  0  0  0  0  0  0  0  0  0  0  0
    0.1700   10.9990   19.5070 H   0  0  0  0  0  0  0  0  0  0  0  0
    0.2850    8.2100   22.7410 H   0  0  0  0  0  0  0  0  0  0  0  0
    1.6860    6.6720   21.3960 H   0  0  0  0  0  0  0  0  0  0  0  0
    1.6960    9.6380   17.7250 C   0  0  0  0  0  0  0  0  0  0  0  0
    1.3000    8.9320   16.9890 H   0  0  0  0  0  0  0  0  0  0  0  0
    2.7820    9.7200   17.6120 H   0  0  0  0  0  0  0  0  0  0  0  0
    1.2820   10.6280   17.5000 H   0  0  0  0  0  0  0  0  0  0  0  0
    6.7120    7.5830   17.4550 N   0  0  0  0  0  0  0  0  0  0  0  0
    7.9280    7.9670   17.9670 C   0  0  0  0  0  0  0  0  0  0  0  0
    8.7190    7.2180   18.5190 O   0  0  0  0  0  0  0  0  0  0  0  0
    8.1100    9.3210   17.8180 N   0  0  0  0  0  0  0  0  0  0  0  0
    6.0270    8.3230   17.4600 H   0  0  0  0  0  0  0  0  0  0  0  0
    7.7760    9.6690   16.9320 H   0  0  0  0  0  0  0  0  0  0  0  0
    9.3140    9.9450   18.3350 C   0  0  0  0  0  0  0  0  0  0  0  0
    9.9460    9.1490   18.7430 H   0  0  0  0  0  0  0  0  0  0  0  0
    9.8190   10.4030   17.4780 H   0  0  0  0  0  0  0  0  0  0  0  0
    9.0570   11.0180   19.3770 C   0  0  0  0  0  0  0  0  0  0  0  0
    9.0770   10.7130   20.7540 C   0  0  0  0  0  0  0  0  0  0  0  0
    8.9150   11.7130   21.7150 C   0  0  0  0  0  0  0  0  0  0  0  0
    8.7220   13.0270   21.3150 C   0  0  0  0  0  0  0  0  0  0  0  0
    8.5770   13.9830   22.2400 F   0  0  0  0  0  0  0  0  0  0  0  0
    8.6580   13.3590   19.9700 C   0  0  0  0  0  0  0  0  0  0  0  0
    8.7980   12.3550   19.0030 C   0  0  0  0  0  0  0  0  0  0  0  0
    9.2480    9.6940   21.0940 H   0  0  0  0  0  0  0  0  0  0  0  0
    8.9580   11.4750   22.7740 H   0  0  0  0  0  0  0  0  0  0  0  0
    8.4930   14.3930   19.6810 H   0  0  0  0  0  0  0  0  0  0  0  0
    8.6480   12.7840   17.5920 C   0  0  0  0  0  0  0  0  0  0  0  0
    9.7390   13.3740   17.0180 N   0  0  0  0  0  0  0  0  0  0  0  0
    7.6390   12.5430   16.9450 O   0  0  0  0  0  0  0  0  0  0  0  0
    9.6810   13.4910   16.0140 H   0  0  0  0  0  0  0  0  0  0  0  0
   10.6620   13.2440   17.4090 H   0  0  0  0  0  0  0  0  0  0  0  0
  1 24  1  0  0  0  0
  2 10  1  0  0  0  0
  2  1  2  0  0  0  0
  3  2  1  0  0  0  0
  4  3  2  0  0  0  0
  4  5  1  0  0  0  0
  5  6  2  0  0  0  0
  6  1  1  0  0  0  0
  6 12  1  0  0  0  0
  7  5  1  0  0  0  0
  7 13  1  1  0  0  0
  8  9  1  0  0  0  0
  8  7  1  0  0  0  0
  9 17  1  0  0  0  0
  9  4  1  0  0  0  0
 11  3  1  0  0  0  0
 14  8  1  0  0  0  0
 15  8  1  0  0  0  0
 16  9  1  0  0  0  0
 18 24  2  0  0  0  0
 18 19  1  0  0  0  0
 19 20  2  0  0  0  0
 20 22  1  0  0  0  0
 20 21  1  0  0  0  0
 22 26  1  0  0  0  0
 23 27  1  0  0  0  0
 23 22  2  0  0  0  0
 24 23  1  0  0  0  0
 25 19  1  0  0  0  0
 28 18  1  0  0  0  0
 29 28  1  0  0  0  0
 30 28  1  0  0  0  0
 31 28  1  0  0  0  0
 32 36  1  0  0  0  0
 32  7  1  0  0  0  0
 32 33  1  0  0  0  0
 33 34  2  0  0  0  0
 35 33  1  0  0  0  0
 35 38  1  0  0  0  0
 37 35  1  0  0  0  0
 38 39  1  0  0  0  0
 38 41  1  0  0  0  0
 40 38  1  0  0  0  0
 41 42  1  0  0  0  0
 42 48  1  0  0  0  0
 42 43  2  0  0  0  0
 43 49  1  0  0  0  0
 44 43  1  0  0  0  0
 44 45  1  0  0  0  0
 46 44  2  0  0  0  0
 47 41  2  0  0  0  0
 47 46  1  0  0  0  0
 50 46  1  0  0  0  0
 51 47  1  0  0  0  0
 52 55  1  0  0  0  0
 52 51  1  0  0  0  0
 53 51  2  0  0  0  0
 54 52  1  0  0  0  0
M  END
>  <MODEL>
7

>  <REMARK>
 VINA RESULT:    -7.686      5.675      8.357
 INTER + INTRA:         -11.376
 INTER:                 -10.077
 INTRA:                  -1.299
 UNBOUND:                -1.219
  Name = 
  6 active torsions:
  status: ('A' for Active; 'I' for Inactive)
    1  A    between atoms: C_1  and  C_2
    2  A    between atoms: C_8  and  C_9
    3  A    between atoms: C_15  and  N_16
    4  A    between atoms: N_19  and  C_20
    5  A    between atoms: C_20  and  C_21
    6  A    between atoms: C_27  and  C_28
                            x       y       z     vdW  Elec       q    Type
                         _______ _______ _______ _____ _____    ______ ____

>  <TORSDO>
F 6

$$$$
=
 OpenBabel07192307433D

 55 58  0  0  1  0  0  0  0  0999 V2000
    4.7310    4.0660   17.7220 C   0  0  0  0  0  0  0  0  0  0  0  0
    4.9460    2.8850   18.4660 C   0  0  0  0  0  0  0  0  0  0  0  0
    4.2160    2.6090   19.6270 C   0  0  0  0  0  0  0  0  0  0  0  0
    3.2830    3.5370   20.0550 C   0  0  0  0  0  0  0  0  0  0  0  0
    3.0590    4.7150   19.3380 C   0  0  0  0  0  0  0  0  0  0  0  0
    3.7640    4.9800   18.1720 C   0  0  0  0  0  0  0  0  0  0  0  0
    1.9720    5.5370   19.9830 C   0  0  1  0  0  0  0  0  0  0  0  0
    1.9380    4.9130   21.3920 C   0  0  0  0  0  0  0  0  0  0  0  0
    2.3640    3.4470   21.2330 C   0  0  0  0  0  0  0  0  0  0  0  0
    5.6840    2.1610   18.1230 H   0  0  0  0  0  0  0  0  0  0  0  0
    4.3820    1.6860   20.1740 H   0  0  0  0  0  0  0  0  0  0  0  0
    3.5640    5.8850   17.6050 H   0  0  0  0  0  0  0  0  0  0  0  0
    1.0230    5.3700   19.4610 H   0  0  0  0  0  0  0  0  0  0  0  0
    2.6550    5.4220   22.0540 H   0  0  0  0  0  0  0  0  0  0  0  0
    0.9540    5.0090   21.8640 H   0  0  0  0  0  0  0  0  0  0  0  0
    2.8700    3.0780   22.1310 H   0  0  0  0  0  0  0  0  0  0  0  0
    1.5080    2.8070   20.9960 H   0  0  0  0  0  0  0  0  0  0  0  0
    6.8030    4.9360   16.5480 C   0  0  0  0  0  0  0  0  0  0  0  0
    7.5100    5.1350   15.3490 C   0  0  0  0  0  0  0  0  0  0  0  0
    6.9430    4.7810   14.1320 C   0  0  0  0  0  0  0  0  0  0  0  0
    7.6280    4.9840   13.0000 F   0  0  0  0  0  0  0  0  0  0  0  0
    5.6770    4.2190   14.0720 C   0  0  0  0  0  0  0  0  0  0  0  0
    4.9690    4.0010   15.2540 C   0  0  0  0  0  0  0  0  0  0  0  0
    5.5160    4.3470   16.5080 C   0  0  0  0  0  0  0  0  0  0  0  0
    8.5060    5.5690   15.3540 H   0  0  0  0  0  0  0  0  0  0  0  0
    5.2520    3.9470   13.1120 H   0  0  0  0  0  0  0  0  0  0  0  0
    3.9810    3.5460   15.2010 H   0  0  0  0  0  0  0  0  0  0  0  0
    7.4590    5.3310   17.8450 C   0  0  0  0  0  0  0  0  0  0  0  0
    6.7040    5.6190   18.5820 H   0  0  0  0  0  0  0  0  0  0  0  0
    8.1600    6.1580   17.6920 H   0  0  0  0  0  0  0  0  0  0  0  0
    8.0400    4.5010   18.2630 H   0  0  0  0  0  0  0  0  0  0  0  0
    2.3020    6.9470   20.0360 N   0  0  0  0  0  0  0  0  0  0  0  0
    1.3830    7.8350   20.5410 C   0  0  0  0  0  0  0  0  0  0  0  0
    0.3680    7.5190   21.1420 O   0  0  0  0  0  0  0  0  0  0  0  0
    1.7370    9.1260   20.2300 N   0  0  0  0  0  0  0  0  0  0  0  0
    2.7910    7.2980   19.2270 H   0  0  0  0  0  0  0  0  0  0  0  0
    2.7290    9.2920   20.3060 H   0  0  0  0  0  0  0  0  0  0  0  0
    0.8740   10.2230   20.6300 C   0  0  0  0  0  0  0  0  0  0  0  0
    0.3620    9.9180   21.5490 H   0  0  0  0  0  0  0  0  0  0  0  0
    1.5310   11.0710   20.8480 H   0  0  0  0  0  0  0  0  0  0  0  0
   -0.1250   10.6430   19.5690 C   0  0  0  0  0  0  0  0  0  0  0  0
   -1.3120    9.9120   19.3590 C   0  0  0  0  0  0  0  0  0  0  0  0
   -2.2680   10.3400   18.4350 C   0  0  0  0  0  0  0  0  0  0  0  0
   -2.0470   11.4970   17.7030 C   0  0  0  0  0  0  0  0  0  0  0  0
   -2.9700   11.9080   16.8260 F   0  0  0  0  0  0  0  0  0  0  0  0
   -0.8740   12.2220   17.8540 C   0  0  0  0  0  0  0  0  0  0  0  0
    0.0970   11.7830   18.7650 C   0  0  0  0  0  0  0  0  0  0  0  0
   -1.5200    9.0130   19.9350 H   0  0  0  0  0  0  0  0  0  0  0  0
   -3.1920    9.7860   18.2970 H   0  0  0  0  0  0  0  0  0  0  0  0
   -0.7170   13.1180   17.2610 H   0  0  0  0  0  0  0  0  0  0  0  0
    1.3480   12.5750   18.8150 C   0  0  0  0  0  0  0  0  0  0  0  0
    2.2860   12.2900   17.8620 N   0  0  0  0  0  0  0  0  0  0  0  0
    1.5010   13.4960   19.6050 O   0  0  0  0  0  0  0  0  0  0  0  0
    3.0450   12.9570   17.7990 H   0  0  0  0  0  0  0  0  0  0  0  0
    2.0260   11.8120   17.0110 H   0  0  0  0  0  0  0  0  0  0  0  0
  1  6  2  0  0  0  0
  1  2  1  0  0  0  0
  2  3  2  0  0  0  0
  3  4  1  0  0  0  0
  3 11  1  0  0  0  0
  4  9  1  0  0  0  0
  5  7  1  0  0  0  0
  5  4  2  0  0  0  0
  6  5  1  0  0  0  0
  7 13  1  6  0  0  0
  7 32  1  0  0  0  0
  7  8  1  0  0  0  0
  8 15  1  0  0  0  0
  8 14  1  0  0  0  0
  9  8  1  0  0  0  0
  9 16  1  0  0  0  0
 10  2  1  0  0  0  0
 12  6  1  0  0  0  0
 17  9  1  0  0  0  0
 18 28  1  0  0  0  0
 19 25  1  0  0  0  0
 19 18  2  0  0  0  0
 20 19  1  0  0  0  0
 21 20  1  0  0  0  0
 22 20  2  0  0  0  0
 22 23  1  0  0  0  0
 23 24  2  0  0  0  0
 24 18  1  0  0  0  0
 24  1  1  0  0  0  0
 26 22  1  0  0  0  0
 27 23  1  0  0  0  0
 28 31  1  0  0  0  0
 28 29  1  0  0  0  0
 30 28  1  0  0  0  0
 32 33  1  0  0  0  0
 33 34  2  0  0  0  0
 35 37  1  0  0  0  0
 35 33  1  0  0  0  0
 35 38  1  0  0  0  0
 36 32  1  0  0  0  0
 38 40  1  0  0  0  0
 38 39  1  0  0  0  0
 41 38  1  0  0  0  0
 42 41  1  0  0  0  0
 42 48  1  0  0  0  0
 43 42  2  0  0  0  0
 44 46  2  0  0  0  0
 44 43  1  0  0  0  0
 45 44  1  0  0  0  0
 46 47  1  0  0  0  0
 47 51  1  0  0  0  0
 47 41  2  0  0  0  0
 49 43  1  0  0  0  0
 50 46  1  0  0  0  0
 51 53  2  0  0  0  0
 52 51  1  0  0  0  0
 54 52  1  0  0  0  0
 55 52  1  0  0  0  0
M  END
>  <MODEL>
8

>  <REMARK>
 VINA RESULT:    -7.680      1.685      1.954
 INTER + INTRA:         -11.368
 INTER:                 -10.483
 INTRA:                  -0.885
 UNBOUND:                -1.219
  Name = 
  6 active torsions:
  status: ('A' for Active; 'I' for Inactive)
    1  A    between atoms: C_1  and  C_2
    2  A    between atoms: C_8  and  C_9
    3  A    between atoms: C_15  and  N_16
    4  A    between atoms: N_19  and  C_20
    5  A    between atoms: C_20  and  C_21
    6  A    between atoms: C_27  and  C_28
                            x       y       z     vdW  Elec       q    Type
                         _______ _______ _______ _____ _____    ______ ____

>  <TORSDO>
F 6

$$$$
=
 OpenBabel07192307433D

 55 58  0  0  1  0  0  0  0  0999 V2000
    2.1570   13.7840   19.1680 C   0  0  0  0  0  0  0  0  0  0  0  0
    1.1270   14.7090   18.8920 C   0  0  0  0  0  0  0  0  0  0  0  0
   -0.2190   14.3250   18.8870 C   0  0  0  0  0  0  0  0  0  0  0  0
   -0.5270   12.9990   19.1370 C   0  0  0  0  0  0  0  0  0  0  0  0
    0.4780   12.0660   19.4060 C   0  0  0  0  0  0  0  0  0  0  0  0
    1.8120   12.4500   19.4350 C   0  0  0  0  0  0  0  0  0  0  0  0
   -0.1130   10.7070   19.6810 C   0  0  1  0  0  0  0  0  0  0  0  0
   -1.5230   10.8790   19.0830 C   0  0  0  0  0  0  0  0  0  0  0  0
   -1.8800   12.3660   19.2220 C   0  0  0  0  0  0  0  0  0  0  0  0
    1.3780   15.7500   18.6950 H   0  0  0  0  0  0  0  0  0  0  0  0
   -0.9980   15.0560   18.6920 H   0  0  0  0  0  0  0  0  0  0  0  0
    2.5840   11.7230   19.6730 H   0  0  0  0  0  0  0  0  0  0  0  0
   -0.1680   10.5410   20.7640 H   0  0  0  0  0  0  0  0  0  0  0  0
   -1.5200   10.6130   18.0150 H   0  0  0  0  0  0  0  0  0  0  0  0
   -2.2600   10.2290   19.5660 H   0  0  0  0  0  0  0  0  0  0  0  0
   -2.5460   12.6940   18.4180 H   0  0  0  0  0  0  0  0  0  0  0  0
   -2.3350   12.5760   20.1950 H   0  0  0  0  0  0  0  0  0  0  0  0
    4.2630   14.5790   20.3330 C   0  0  0  0  0  0  0  0  0  0  0  0
    5.6230   14.9280   20.2510 C   0  0  0  0  0  0  0  0  0  0  0  0
    6.2760   14.9260   19.0250 C   0  0  0  0  0  0  0  0  0  0  0  0
    7.5690   15.2670   18.9660 F   0  0  0  0  0  0  0  0  0  0  0  0
    5.6080   14.5770   17.8630 C   0  0  0  0  0  0  0  0  0  0  0  0
    4.2630   14.2150   17.9290 C   0  0  0  0  0  0  0  0  0  0  0  0
    3.5690   14.2030   19.1580 C   0  0  0  0  0  0  0  0  0  0  0  0
    6.1830   15.2040   21.1410 H   0  0  0  0  0  0  0  0  0  0  0  0
    6.1360   14.5810   16.9150 H   0  0  0  0  0  0  0  0  0  0  0  0
    3.7480   13.9280   17.0140 H   0  0  0  0  0  0  0  0  0  0  0  0
    3.5980   14.5900   21.6840 C   0  0  0  0  0  0  0  0  0  0  0  0
    3.3230   15.6120   21.9650 H   0  0  0  0  0  0  0  0  0  0  0  0
    4.2560   14.1620   22.4480 H   0  0  0  0  0  0  0  0  0  0  0  0
    2.6850   13.9840   21.6800 H   0  0  0  0  0  0  0  0  0  0  0  0
    0.6160    9.6420   19.0230 N   0  0  0  0  0  0  0  0  0  0  0  0
    1.2240    8.6720   19.7830 C   0  0  0  0  0  0  0  0  0  0  0  0
    1.0410    8.5100   20.9800 O   0  0  0  0  0  0  0  0  0  0  0  0
    2.1060    7.9430   19.0220 N   0  0  0  0  0  0  0  0  0  0  0  0
    1.1710    9.9340   18.2340 H   0  0  0  0  0  0  0  0  0  0  0  0
    1.7580    7.7470   18.0960 H   0  0  0  0  0  0  0  0  0  0  0  0
    2.8920    6.8930   19.6430 C   0  0  0  0  0  0  0  0  0  0  0  0
    3.9170    6.9870   19.2690 H   0  0  0  0  0  0  0  0  0  0  0  0
    2.8820    7.0920   20.7200 H   0  0  0  0  0  0  0  0  0  0  0  0
    2.3570    5.4940   19.4030 C   0  0  0  0  0  0  0  0  0  0  0  0
    1.3990    4.9240   20.2680 C   0  0  0  0  0  0  0  0  0  0  0  0
    0.8500    3.6670   20.0060 C   0  0  0  0  0  0  0  0  0  0  0  0
    1.2560    2.9600   18.8840 C   0  0  0  0  0  0  0  0  0  0  0  0
    0.7200    1.7590   18.6330 F   0  0  0  0  0  0  0  0  0  0  0  0
    2.2240    3.4700   18.0320 C   0  0  0  0  0  0  0  0  0  0  0  0
    2.7930    4.7220   18.3040 C   0  0  0  0  0  0  0  0  0  0  0  0
    1.0490    5.4670   21.1420 H   0  0  0  0  0  0  0  0  0  0  0  0
    0.0940    3.2460   20.6620 H   0  0  0  0  0  0  0  0  0  0  0  0
    2.5350    2.8920   17.1670 H   0  0  0  0  0  0  0  0  0  0  0  0
    3.8670    5.1620   17.3830 C   0  0  0  0  0  0  0  0  0  0  0  0
    4.6060    4.1740   16.7950 N   0  0  0  0  0  0  0  0  0  0  0  0
    4.0280    6.3390   17.0900 O   0  0  0  0  0  0  0  0  0  0  0  0
    5.2040    4.4830   16.0390 H   0  0  0  0  0  0  0  0  0  0  0  0
    4.2520    3.2290   16.7410 H   0  0  0  0  0  0  0  0  0  0  0  0
  1  6  1  0  0  0  0
  2  1  2  0  0  0  0
  3  2  1  0  0  0  0
  3  4  2  0  0  0  0
  4  9  1  0  0  0  0
  4  5  1  0  0  0  0
  5  6  2  0  0  0  0
  5  7  1  0  0  0  0
  6 12  1  0  0  0  0
  7 13  1  1  0  0  0
  8  9  1  0  0  0  0
  8 15  1  0  0  0  0
  8  7  1  0  0  0  0
  9 17  1  0  0  0  0
 10  2  1  0  0  0  0
 11  3  1  0  0  0  0
 14  8  1  0  0  0  0
 16  9  1  0  0  0  0
 18 28  1  0  0  0  0
 19 18  1  0  0  0  0
 19 25  1  0  0  0  0
 20 19  2  0  0  0  0
 21 20  1  0  0  0  0
 22 23  2  0  0  0  0
 22 20  1  0  0  0  0
 23 24  1  0  0  0  0
 24  1  1  0  0  0  0
 24 18  2  0  0  0  0
 26 22  1  0  0  0  0
 27 23  1  0  0  0  0
 28 29  1  0  0  0  0
 28 30  1  0  0  0  0
 31 28  1  0  0  0  0
 32  7  1  0  0  0  0
 32 33  1  0  0  0  0
 33 34  2  0  0  0  0
 35 38  1  0  0  0  0
 35 33  1  0  0  0  0
 36 32  1  0  0  0  0
 37 35  1  0  0  0  0
 38 40  1  0  0  0  0
 39 38  1  0  0  0  0
 41 38  1  0  0  0  0
 41 42  1  0  0  0  0
 42 48  1  0  0  0  0
 43 42  2  0  0  0  0
 43 49  1  0  0  0  0
 44 43  1  0  0  0  0
 45 44  1  0  0  0  0
 46 47  1  0  0  0  0
 46 44  2  0  0  0  0
 47 41  2  0  0  0  0
 50 46  1  0  0  0  0
 51 47  1  0  0  0  0
 52 51  1  0  0  0  0
 53 51  2  0  0  0  0
 54 52  1  0  0  0  0
 55 52  1  0  0  0  0
M  END
>  <MODEL>
9

>  <REMARK>
 VINA RESULT:    -7.657      4.445      9.063
 INTER + INTRA:         -11.337
 INTER:                 -10.348
 INTRA:                  -0.989
 UNBOUND:                -1.219
  Name = 
  6 active torsions:
  status: ('A' for Active; 'I' for Inactive)
    1  A    between atoms: C_1  and  C_2
    2  A    between atoms: C_8  and  C_9
    3  A    between atoms: C_15  and  N_16
    4  A    between atoms: N_19  and  C_20
    5  A    between atoms: C_20  and  C_21
    6  A    between atoms: C_27  and  C_28
                            x       y       z     vdW  Elec       q    Type
                         _______ _______ _______ _____ _____    ______ ____

>  <TORSDO>
F 6

$$$$
=
 OpenBabel07192307433D

 55 58  0  0  1  0  0  0  0  0999 V2000
    1.7240   13.4180   19.5150 C   0  0  0  0  0  0  0  0  0  0  0  0
    0.6700   14.3220   19.2590 C   0  0  0  0  0  0  0  0  0  0  0  0
   -0.5690   13.8830   18.7800 C   0  0  0  0  0  0  0  0  0  0  0  0
   -0.7400   12.5320   18.5340 C   0  0  0  0  0  0  0  0  0  0  0  0
    0.2920   11.6210   18.7740 C   0  0  0  0  0  0  0  0  0  0  0  0
    1.5150   12.0510   19.2730 C   0  0  0  0  0  0  0  0  0  0  0  0
   -0.1530   10.2140   18.4660 C   0  0  1  0  0  0  0  0  0  0  0  0
   -1.3900   10.4880   17.5900 C   0  0  0  0  0  0  0  0  0  0  0  0
   -1.9730   11.8280   18.0620 C   0  0  0  0  0  0  0  0  0  0  0  0
    0.8130   15.3840   19.4540 H   0  0  0  0  0  0  0  0  0  0  0  0
   -1.3740   14.5910   18.6080 H   0  0  0  0  0  0  0  0  0  0  0  0
    2.3020   11.3320   19.4830 H   0  0  0  0  0  0  0  0  0  0  0  0
   -0.4380    9.7060   19.3950 H   0  0  0  0  0  0  0  0  0  0  0  0
   -1.0980   10.5800   16.5330 H   0  0  0  0  0  0  0  0  0  0  0  0
   -2.1230    9.6760   17.6430 H   0  0  0  0  0  0  0  0  0  0  0  0
   -2.4700   12.3580   17.2430 H   0  0  0  0  0  0  0  0  0  0  0  0
   -2.6700   11.6870   18.8940 H   0  0  0  0  0  0  0  0  0  0  0  0
    3.9650   14.5540   19.1770 C   0  0  0  0  0  0  0  0  0  0  0  0
    5.1710   15.0210   19.7290 C   0  0  0  0  0  0  0  0  0  0  0  0
    5.4510   14.8210   21.0750 C   0  0  0  0  0  0  0  0  0  0  0  0
    6.6070   15.2670   21.5820 F   0  0  0  0  0  0  0  0  0  0  0  0
    4.5510   14.1660   21.9000 C   0  0  0  0  0  0  0  0  0  0  0  0
    3.3450   13.7090   21.3710 C   0  0  0  0  0  0  0  0  0  0  0  0
    3.0260   13.8980   20.0090 C   0  0  0  0  0  0  0  0  0  0  0  0
    5.9010   15.5420   19.1160 H   0  0  0  0  0  0  0  0  0  0  0  0
    4.7880   14.0210   22.9490 H   0  0  0  0  0  0  0  0  0  0  0  0
    2.6360   13.2080   22.0280 H   0  0  0  0  0  0  0  0  0  0  0  0
    3.7020   14.7970   17.7140 C   0  0  0  0  0  0  0  0  0  0  0  0
    4.3200   15.6230   17.3480 H   0  0  0  0  0  0  0  0  0  0  0  0
    2.6450   15.0220   17.5390 H   0  0  0  0  0  0  0  0  0  0  0  0
    3.9360   13.9090   17.1170 H   0  0  0  0  0  0  0  0  0  0  0  0
    0.8530    9.4610   17.7430 N   0  0  0  0  0  0  0  0  0  0  0  0
    1.6960    8.6250   18.4360 C   0  0  0  0  0  0  0  0  0  0  0  0
    1.5480    8.3010   19.6040 O   0  0  0  0  0  0  0  0  0  0  0  0
    2.7550    8.2460   17.6480 N   0  0  0  0  0  0  0  0  0  0  0  0
    1.3160    9.9720   17.0080 H   0  0  0  0  0  0  0  0  0  0  0  0
    2.4890    8.0560   16.6940 H   0  0  0  0  0  0  0  0  0  0  0  0
    3.7940    7.3970   18.2020 C   0  0  0  0  0  0  0  0  0  0  0  0
    4.6120    8.0490   18.5260 H   0  0  0  0  0  0  0  0  0  0  0  0
    3.3580    6.9030   19.0760 H   0  0  0  0  0  0  0  0  0  0  0  0
    4.2990    6.3330   17.2450 C   0  0  0  0  0  0  0  0  0  0  0  0
    5.1560    6.6640   16.1760 C   0  0  0  0  0  0  0  0  0  0  0  0
    5.6820    5.6760   15.3410 C   0  0  0  0  0  0  0  0  0  0  0  0
    5.3520    4.3470   15.5560 C   0  0  0  0  0  0  0  0  0  0  0  0
    5.8650    3.4030   14.7590 F   0  0  0  0  0  0  0  0  0  0  0  0
    4.4810    3.9860   16.5740 C   0  0  0  0  0  0  0  0  0  0  0  0
    3.9340    4.9770   17.4000 C   0  0  0  0  0  0  0  0  0  0  0  0
    5.4480    7.6980   15.9990 H   0  0  0  0  0  0  0  0  0  0  0  0
    6.3630    5.9360   14.5350 H   0  0  0  0  0  0  0  0  0  0  0  0
    4.2260    2.9390   16.7150 H   0  0  0  0  0  0  0  0  0  0  0  0
    2.9610    4.5140   18.4170 C   0  0  0  0  0  0  0  0  0  0  0  0
    3.4860    3.9620   19.5520 N   0  0  0  0  0  0  0  0  0  0  0  0
    1.7580    4.6960   18.2940 O   0  0  0  0  0  0  0  0  0  0  0  0
    2.8220    3.8220   20.3040 H   0  0  0  0  0  0  0  0  0  0  0  0
    4.4440    4.1410   19.8170 H   0  0  0  0  0  0  0  0  0  0  0  0
  1 24  1  0  0  0  0
  2 10  1  0  0  0  0
  2  1  2  0  0  0  0
  3  2  1  0  0  0  0
  4  5  1  0  0  0  0
  4  3  2  0  0  0  0
  5  6  2  0  0  0  0
  6 12  1  0  0  0  0
  6  1  1  0  0  0  0
  7  5  1  0  0  0  0
  7 13  1  1  0  0  0
  8 15  1  0  0  0  0
  8  9  1  0  0  0  0
  8  7  1  0  0  0  0
  9  4  1  0  0  0  0
  9 17  1  0  0  0  0
 11  3  1  0  0  0  0
 14  8  1  0  0  0  0
 16  9  1  0  0  0  0
 18 19  2  0  0  0  0
 18 24  1  0  0  0  0
 19 20  1  0  0  0  0
 20 21  1  0  0  0  0
 20 22  2  0  0  0  0
 22 26  1  0  0  0  0
 23 22  1  0  0  0  0
 23 27  1  0  0  0  0
 24 23  2  0  0  0  0
 25 19  1  0  0  0  0
 28 18  1  0  0  0  0
 29 28  1  0  0  0  0
 30 28  1  0  0  0  0
 31 28  1  0  0  0  0
 32 33  1  0  0  0  0
 32  7  1  0  0  0  0
 33 34  2  0  0  0  0
 35 38  1  0  0  0  0
 35 33  1  0  0  0  0
 36 32  1  0  0  0  0
 37 35  1  0  0  0  0
 38 39  1  0  0  0  0
 38 40  1  0  0  0  0
 41 47  1  0  0  0  0
 41 38  1  0  0  0  0
 42 41  2  0  0  0  0
 43 44  2  0  0  0  0
 43 42  1  0  0  0  0
 44 46  1  0  0  0  0
 45 44  1  0  0  0  0
 46 50  1  0  0  0  0
 46 47  2  0  0  0  0
 47 51  1  0  0  0  0
 48 42  1  0  0  0  0
 49 43  1  0  0  0  0
 51 52  1  0  0  0  0
 52 55  1  0  0  0  0
 52 54  1  0  0  0  0
 53 51  2  0  0  0  0
M  END
>  <MODEL>
10

>  <REMARK>
 VINA RESULT:    -7.569      3.876      9.365
 INTER + INTRA:         -11.221
 INTER:                 -10.057
 INTRA:                  -1.164
 UNBOUND:                -1.219
  Name = 
  6 active torsions:
  status: ('A' for Active; 'I' for Inactive)
    1  A    between atoms: C_1  and  C_2
    2  A    between atoms: C_8  and  C_9
    3  A    between atoms: C_15  and  N_16
    4  A    between atoms: N_19  and  C_20
    5  A    between atoms: C_20  and  C_21
    6  A    between atoms: C_27  and  C_28
                            x       y       z     vdW  Elec       q    Type
                         _______ _______ _______ _____ _____    ______ ____

>  <TORSDO>
F 6

$$$$
=
 OpenBabel07192307433D

 55 58  0  0  1  0  0  0  0  0999 V2000
    2.3460   14.2550   19.3800 C   0  0  0  0  0  0  0  0  0  0  0  0
    1.3740   15.2440   19.1150 C   0  0  0  0  0  0  0  0  0  0  0  0
    0.0060   14.9730   19.2270 C   0  0  0  0  0  0  0  0  0  0  0  0
   -0.3860   13.6950   19.5840 C   0  0  0  0  0  0  0  0  0  0  0  0
    0.5590   12.6990   19.8440 C   0  0  0  0  0  0  0  0  0  0  0  0
    1.9180   12.9720   19.7580 C   0  0  0  0  0  0  0  0  0  0  0  0
   -0.1150   11.4130   20.2490 C   0  0  1  0  0  0  0  0  0  0  0  0
   -1.5470   11.6660   19.7380 C   0  0  0  0  0  0  0  0  0  0  0  0
   -1.7740   13.1830   19.8030 C   0  0  0  0  0  0  0  0  0  0  0  0
    1.6910   16.2470   18.8330 H   0  0  0  0  0  0  0  0  0  0  0  0
   -0.7260   15.7530   19.0380 H   0  0  0  0  0  0  0  0  0  0  0  0
    2.6460   12.2000   19.9890 H   0  0  0  0  0  0  0  0  0  0  0  0
   -0.1030   11.3180   21.3410 H   0  0  0  0  0  0  0  0  0  0  0  0
   -1.6430   11.3360   18.6930 H   0  0  0  0  0  0  0  0  0  0  0  0
   -2.2950   11.1090   20.3120 H   0  0  0  0  0  0  0  0  0  0  0  0
   -2.4700   13.5160   19.0270 H   0  0  0  0  0  0  0  0  0  0  0  0
   -2.1390   13.4880   20.7890 H   0  0  0  0  0  0  0  0  0  0  0  0
    4.5850   14.9570   20.3410 C   0  0  0  0  0  0  0  0  0  0  0  0
    5.9580   15.1840   20.1440 C   0  0  0  0  0  0  0  0  0  0  0  0
    6.5210   15.0400   18.8820 C   0  0  0  0  0  0  0  0  0  0  0  0
    7.8290   15.2670   18.7130 F   0  0  0  0  0  0  0  0  0  0  0  0
    5.7470   14.6620   17.7960 C   0  0  0  0  0  0  0  0  0  0  0  0
    4.3860   14.4190   17.9780 C   0  0  0  0  0  0  0  0  0  0  0  0
    3.7830   14.5540   19.2460 C   0  0  0  0  0  0  0  0  0  0  0  0
    6.6000   15.4780   20.9710 H   0  0  0  0  0  0  0  0  0  0  0  0
    6.2060   14.5530   16.8190 H   0  0  0  0  0  0  0  0  0  0  0  0
    3.7870   14.1090   17.1230 H   0  0  0  0  0  0  0  0  0  0  0  0
    4.0200   15.1210   21.7270 C   0  0  0  0  0  0  0  0  0  0  0  0
    4.8060   15.4200   22.4260 H   0  0  0  0  0  0  0  0  0  0  0  0
    3.5520   14.1930   22.0710 H   0  0  0  0  0  0  0  0  0  0  0  0
    3.2400   15.8910   21.7470 H   0  0  0  0  0  0  0  0  0  0  0  0
    0.4780   10.2540   19.6140 N   0  0  0  0  0  0  0  0  0  0  0  0
    0.7300    9.1300   20.3640 C   0  0  0  0  0  0  0  0  0  0  0  0
    0.3150    8.9420   21.4970 O   0  0  0  0  0  0  0  0  0  0  0  0
    1.5580    8.2700   19.6830 N   0  0  0  0  0  0  0  0  0  0  0  0
    1.2100   10.4620   18.9520 H   0  0  0  0  0  0  0  0  0  0  0  0
    1.3420    8.2110   18.7000 H   0  0  0  0  0  0  0  0  0  0  0  0
    1.9890    7.0370   20.3170 C   0  0  0  0  0  0  0  0  0  0  0  0
    2.6780    7.3070   21.1240 H   0  0  0  0  0  0  0  0  0  0  0  0
    1.0920    6.5780   20.7460 H   0  0  0  0  0  0  0  0  0  0  0  0
    2.6340    6.0450   19.3660 C   0  0  0  0  0  0  0  0  0  0  0  0
    3.3450    6.4840   18.2310 C   0  0  0  0  0  0  0  0  0  0  0  0
    4.0030    5.5760   17.3970 C   0  0  0  0  0  0  0  0  0  0  0  0
    3.9500    4.2200   17.6810 C   0  0  0  0  0  0  0  0  0  0  0  0
    4.5880    3.3550   16.8850 F   0  0  0  0  0  0  0  0  0  0  0  0
    3.2270    3.7480   18.7670 C   0  0  0  0  0  0  0  0  0  0  0  0
    2.5490    4.6540   19.5930 C   0  0  0  0  0  0  0  0  0  0  0  0
    3.4200    7.5440   17.9980 H   0  0  0  0  0  0  0  0  0  0  0  0
    4.5710    5.9240   16.5390 H   0  0  0  0  0  0  0  0  0  0  0  0
    3.1900    2.6790   18.9620 H   0  0  0  0  0  0  0  0  0  0  0  0
    1.7460    4.0610   20.6880 C   0  0  0  0  0  0  0  0  0  0  0  0
    0.4920    3.6310   20.3570 N   0  0  0  0  0  0  0  0  0  0  0  0
    2.2080    3.8810   21.8060 O   0  0  0  0  0  0  0  0  0  0  0  0
    0.0340    3.0690   21.0650 H   0  0  0  0  0  0  0  0  0  0  0  0
    0.2500    3.4390   19.3950 H   0  0  0  0  0  0  0  0  0  0  0  0
  1  6  1  0  0  0  0
  2  3  1  0  0  0  0
  2  1  2  0  0  0  0
  3  4  2  0  0  0  0
  4  9  1  0  0  0  0
  4  5  1  0  0  0  0
  5  7  1  0  0  0  0
  6  5  2  0  0  0  0
  6 12  1  0  0  0  0
  7 13  1  1  0  0  0
  8  9  1  0  0  0  0
  8  7  1  0  0  0  0
  8 15  1  0  0  0  0
  9 17  1  0  0  0  0
 10  2  1  0  0  0  0
 11  3  1  0  0  0  0
 14  8  1  0  0  0  0
 16  9  1  0  0  0  0
 18 28  1  0  0  0  0
 19 18  1  0  0  0  0
 19 25  1  0  0  0  0
 20 19  2  0  0  0  0
 21 20  1  0  0  0  0
 22 23  2  0  0  0  0
 22 20  1  0  0  0  0
 23 24  1  0  0  0  0
 24  1  1  0  0  0  0
 24 18  2  0  0  0  0
 26 22  1  0  0  0  0
 27 23  1  0  0  0  0
 28 31  1  0  0  0  0
 28 30  1  0  0  0  0
 28 29  1  0  0  0  0
 32  7  1  0  0  0  0
 32 33  1  0  0  0  0
 33 34  2  0  0  0  0
 35 38  1  0  0  0  0
 35 33  1  0  0  0  0
 36 32  1  0  0  0  0
 37 35  1  0  0  0  0
 38 40  1  0  0  0  0
 38 39  1  0  0  0  0
 41 47  1  0  0  0  0
 41 38  1  0  0  0  0
 42 41  2  0  0  0  0
 43 44  2  0  0  0  0
 43 42  1  0  0  0  0
 44 46  1  0  0  0  0
 45 44  1  0  0  0  0
 46 50  1  0  0  0  0
 46 47  2  0  0  0  0
 47 51  1  0  0  0  0
 48 42  1  0  0  0  0
 49 43  1  0  0  0  0
 51 53  2  0  0  0  0
 52 51  1  0  0  0  0
 52 54  1  0  0  0  0
 55 52  1  0  0  0  0
M  END
>  <MODEL>
11

>  <REMARK>
 VINA RESULT:    -7.523      4.302      9.109
 INTER + INTRA:         -11.160
 INTER:                 -10.062
 INTRA:                  -1.099
 UNBOUND:                -1.219
  Name = 
  6 active torsions:
  status: ('A' for Active; 'I' for Inactive)
    1  A    between atoms: C_1  and  C_2
    2  A    between atoms: C_8  and  C_9
    3  A    between atoms: C_15  and  N_16
    4  A    between atoms: N_19  and  C_20
    5  A    between atoms: C_20  and  C_21
    6  A    between atoms: C_27  and  C_28
                            x       y       z     vdW  Elec       q    Type
                         _______ _______ _______ _____ _____    ______ ____

>  <TORSDO>
F 6

$$$$
=
 OpenBabel07192307433D

 55 58  0  0  1  0  0  0  0  0999 V2000
    4.9000    4.9030   18.7520 C   0  0  0  0  0  0  0  0  0  0  0  0
    5.1200    3.5110   18.6620 C   0  0  0  0  0  0  0  0  0  0  0  0
    4.1260    2.5900   19.0100 C   0  0  0  0  0  0  0  0  0  0  0  0
    2.9140    3.0710   19.4740 C   0  0  0  0  0  0  0  0  0  0  0  0
    2.6780    4.4440   19.5780 C   0  0  0  0  0  0  0  0  0  0  0  0
    3.6540    5.3610   19.2090 C   0  0  0  0  0  0  0  0  0  0  0  0
    1.2780    4.7110   20.0680 C   0  0  1  0  0  0  0  0  0  0  0  0
    0.9160    3.3380   20.6680 C   0  0  0  0  0  0  0  0  0  0  0  0
    1.7000    2.2890   19.8660 C   0  0  0  0  0  0  0  0  0  0  0  0
    6.0770    3.1400   18.2970 H   0  0  0  0  0  0  0  0  0  0  0  0
    4.3080    1.5230   18.9150 H   0  0  0  0  0  0  0  0  0  0  0  0
    3.4510    6.4270   19.2660 H   0  0  0  0  0  0  0  0  0  0  0  0
    0.6280    4.9470   19.2180 H   0  0  0  0  0  0  0  0  0  0  0  0
    1.2280    3.2870   21.7220 H   0  0  0  0  0  0  0  0  0  0  0  0
   -0.1630    3.1510   20.6510 H   0  0  0  0  0  0  0  0  0  0  0  0
    1.9440    1.4180   20.4810 H   0  0  0  0  0  0  0  0  0  0  0  0
    1.1470    1.9760   18.9750 H   0  0  0  0  0  0  0  0  0  0  0  0
    5.8450    6.7540   17.3010 C   0  0  0  0  0  0  0  0  0  0  0  0
    6.8830    7.6670   17.0430 C   0  0  0  0  0  0  0  0  0  0  0  0
    8.0230    7.6770   17.8360 C   0  0  0  0  0  0  0  0  0  0  0  0
    9.0030    8.5500   17.5720 F   0  0  0  0  0  0  0  0  0  0  0  0
    8.1600    6.7970   18.8980 C   0  0  0  0  0  0  0  0  0  0  0  0
    7.1340    5.8950   19.1750 C   0  0  0  0  0  0  0  0  0  0  0  0
    5.9610    5.8590   18.3920 C   0  0  0  0  0  0  0  0  0  0  0  0
    6.8110    8.3770   16.2230 H   0  0  0  0  0  0  0  0  0  0  0  0
    9.0580    6.8210   19.5060 H   0  0  0  0  0  0  0  0  0  0  0  0
    7.2430    5.2150   20.0190 H   0  0  0  0  0  0  0  0  0  0  0  0
    4.6250    6.7830   16.4180 C   0  0  0  0  0  0  0  0  0  0  0  0
    4.9180    6.7870   15.3640 H   0  0  0  0  0  0  0  0  0  0  0  0
    4.0080    7.6610   16.6330 H   0  0  0  0  0  0  0  0  0  0  0  0
    3.9920    5.9050   16.5900 H   0  0  0  0  0  0  0  0  0  0  0  0
    1.2330    5.7560   21.0710 N   0  0  0  0  0  0  0  0  0  0  0  0
    1.3430    7.0690   20.6800 C   0  0  0  0  0  0  0  0  0  0  0  0
    1.2790    7.4590   19.5250 O   0  0  0  0  0  0  0  0  0  0  0  0
    1.5870    7.8780   21.7640 N   0  0  0  0  0  0  0  0  0  0  0  0
    1.7370    5.5500   21.9200 H   0  0  0  0  0  0  0  0  0  0  0  0
    1.0580    7.6120   22.5810 H   0  0  0  0  0  0  0  0  0  0  0  0
    1.7850    9.3020   21.5680 C   0  0  0  0  0  0  0  0  0  0  0  0
    2.5490    9.6280   22.2810 H   0  0  0  0  0  0  0  0  0  0  0  0
    2.1670    9.4250   20.5490 H   0  0  0  0  0  0  0  0  0  0  0  0
    0.5210   10.1290   21.7150 C   0  0  0  0  0  0  0  0  0  0  0  0
   -0.2410   10.0860   22.9010 C   0  0  0  0  0  0  0  0  0  0  0  0
   -1.3610   10.9030   23.0670 C   0  0  0  0  0  0  0  0  0  0  0  0
   -1.7410   11.7640   22.0490 C   0  0  0  0  0  0  0  0  0  0  0  0
   -2.8110   12.5510   22.2160 F   0  0  0  0  0  0  0  0  0  0  0  0
   -1.0400   11.8050   20.8530 C   0  0  0  0  0  0  0  0  0  0  0  0
    0.0720   10.9720   20.6740 C   0  0  0  0  0  0  0  0  0  0  0  0
    0.0490    9.4350   23.7240 H   0  0  0  0  0  0  0  0  0  0  0  0
   -1.9280   10.8840   23.9940 H   0  0  0  0  0  0  0  0  0  0  0  0
   -1.3640   12.4790   20.0640 H   0  0  0  0  0  0  0  0  0  0  0  0
    0.7220   11.0280   19.3440 C   0  0  0  0  0  0  0  0  0  0  0  0
    0.2020   10.2120   18.3790 N   0  0  0  0  0  0  0  0  0  0  0  0
    1.6150   11.8250   19.0920 O   0  0  0  0  0  0  0  0  0  0  0  0
    0.5350   10.3960   17.4410 H   0  0  0  0  0  0  0  0  0  0  0  0
   -0.7340    9.8420   18.4670 H   0  0  0  0  0  0  0  0  0  0  0  0
  1  6  1  0  0  0  0
  2  1  2  0  0  0  0
  2  3  1  0  0  0  0
  3  4  2  0  0  0  0
  4  5  1  0  0  0  0
  4  9  1  0  0  0  0
  5  7  1  0  0  0  0
  6 12  1  0  0  0  0
  6  5  2  0  0  0  0
  7 13  1  6  0  0  0
  7  8  1  0  0  0  0
  7 32  1  0  0  0  0
  8 14  1  0  0  0  0
  9 16  1  0  0  0  0
  9  8  1  0  0  0  0
 10  2  1  0  0  0  0
 11  3  1  0  0  0  0
 15  8  1  0  0  0  0
 17  9  1  0  0  0  0
 18 24  1  0  0  0  0
 19 18  2  0  0  0  0
 19 20  1  0  0  0  0
 20 22  2  0  0  0  0
 21 20  1  0  0  0  0
 22 23  1  0  0  0  0
 22 26  1  0  0  0  0
 23 27  1  0  0  0  0
 24  1  1  0  0  0  0
 24 23  2  0  0  0  0
 25 19  1  0  0  0  0
 28 31  1  0  0  0  0
 28 30  1  0  0  0  0
 28 18  1  0  0  0  0
 29 28  1  0  0  0  0
 32 36  1  0  0  0  0
 33 32  1  0  0  0  0
 33 35  1  0  0  0  0
 34 33  2  0  0  0  0
 35 37  1  0  0  0  0
 38 41  1  0  0  0  0
 38 35  1  0  0  0  0
 38 39  1  0  0  0  0
 40 38  1  0  0  0  0
 41 42  1  0  0  0  0
 42 43  2  0  0  0  0
 42 48  1  0  0  0  0
 43 49  1  0  0  0  0
 44 45  1  0  0  0  0
 44 43  1  0  0  0  0
 46 44  2  0  0  0  0
 47 46  1  0  0  0  0
 47 41  2  0  0  0  0
 50 46  1  0  0  0  0
 51 47  1  0  0  0  0
 52 55  1  0  0  0  0
 52 51  1  0  0  0  0
 53 51  2  0  0  0  0
 54 52  1  0  0  0  0
M  END
>  <MODEL>
12

>  <REMARK>
 VINA RESULT:    -7.380      2.412      3.079
 INTER + INTRA:         -10.972
 INTER:                  -9.940
 INTRA:                  -1.032
 UNBOUND:                -1.219
  Name = 
  6 active torsions:
  status: ('A' for Active; 'I' for Inactive)
    1  A    between atoms: C_1  and  C_2
    2  A    between atoms: C_8  and  C_9
    3  A    between atoms: C_15  and  N_16
    4  A    between atoms: N_19  and  C_20
    5  A    between atoms: C_20  and  C_21
    6  A    between atoms: C_27  and  C_28
                            x       y       z     vdW  Elec       q    Type
                         _______ _______ _______ _____ _____    ______ ____

>  <TORSDO>
F 6

$$$$
=
 OpenBabel07192307433D

 55 58  0  0  1  0  0  0  0  0999 V2000
    4.5440    4.7520   17.3680 C   0  0  0  0  0  0  0  0  0  0  0  0
    4.5540    3.6440   18.2430 C   0  0  0  0  0  0  0  0  0  0  0  0
    3.7300    3.5980   19.3740 C   0  0  0  0  0  0  0  0  0  0  0  0
    2.9120    4.6820   19.6380 C   0  0  0  0  0  0  0  0  0  0  0  0
    2.8920    5.7920   18.7890 C   0  0  0  0  0  0  0  0  0  0  0  0
    3.6890    5.8290   17.6530 C   0  0  0  0  0  0  0  0  0  0  0  0
    1.8950    6.8160   19.2690 C   0  0  1  0  0  0  0  0  0  0  0  0
    1.6990    6.3630   20.7300 C   0  0  0  0  0  0  0  0  0  0  0  0
    1.9270    4.8450   20.7530 C   0  0  0  0  0  0  0  0  0  0  0  0
    5.2020    2.7950   18.0290 H   0  0  0  0  0  0  0  0  0  0  0  0
    3.7380    2.7280   20.0240 H   0  0  0  0  0  0  0  0  0  0  0  0
    3.6460    6.6840   16.9830 H   0  0  0  0  0  0  0  0  0  0  0  0
    0.9620    6.7170   18.7030 H   0  0  0  0  0  0  0  0  0  0  0  0
    2.4420    6.8450   21.3820 H   0  0  0  0  0  0  0  0  0  0  0  0
    0.7140    6.6400   21.1190 H   0  0  0  0  0  0  0  0  0  0  0  0
    2.3280    4.5170   21.7170 H   0  0  0  0  0  0  0  0  0  0  0  0
    1.0050    4.3020   20.5250 H   0  0  0  0  0  0  0  0  0  0  0  0
    6.6910    5.4240   16.1990 C   0  0  0  0  0  0  0  0  0  0  0  0
    7.4940    5.3830   15.0460 C   0  0  0  0  0  0  0  0  0  0  0  0
    7.0420    4.7460   13.8970 C   0  0  0  0  0  0  0  0  0  0  0  0
    7.8180    4.7220   12.8060 F   0  0  0  0  0  0  0  0  0  0  0  0
    5.7980    4.1350   13.8630 C   0  0  0  0  0  0  0  0  0  0  0  0
    4.9960    4.1550   15.0030 C   0  0  0  0  0  0  0  0  0  0  0  0
    5.4250    4.7890   16.1880 C   0  0  0  0  0  0  0  0  0  0  0  0
    8.4760    5.8460   15.0330 H   0  0  0  0  0  0  0  0  0  0  0  0
    5.4640    3.6420   12.9570 H   0  0  0  0  0  0  0  0  0  0  0  0
    4.0260    3.6600   14.9740 H   0  0  0  0  0  0  0  0  0  0  0  0
    7.2240    6.1210   17.4230 C   0  0  0  0  0  0  0  0  0  0  0  0
    7.5620    7.1300   17.1690 H   0  0  0  0  0  0  0  0  0  0  0  0
    8.0500    5.5550   17.8660 H   0  0  0  0  0  0  0  0  0  0  0  0
    6.4520    6.2070   18.1960 H   0  0  0  0  0  0  0  0  0  0  0  0
    2.4130    8.1670   19.1980 N   0  0  0  0  0  0  0  0  0  0  0  0
    1.5730    9.1920   18.8320 C   0  0  0  0  0  0  0  0  0  0  0  0
    0.3590    9.0990   18.7460 O   0  0  0  0  0  0  0  0  0  0  0  0
    2.2930   10.3210   18.5240 N   0  0  0  0  0  0  0  0  0  0  0  0
    3.3350    8.2470   18.7980 H   0  0  0  0  0  0  0  0  0  0  0  0
    3.0720   10.4730   19.1460 H   0  0  0  0  0  0  0  0  0  0  0  0
    1.6010   11.5110   18.0650 C   0  0  0  0  0  0  0  0  0  0  0  0
    2.2700   12.0320   17.3720 H   0  0  0  0  0  0  0  0  0  0  0  0
    0.7160   11.1650   17.5200 H   0  0  0  0  0  0  0  0  0  0  0  0
    1.1530   12.4360   19.1810 C   0  0  0  0  0  0  0  0  0  0  0  0
    2.0860   13.0110   20.0670 C   0  0  0  0  0  0  0  0  0  0  0  0
    1.6840   13.9210   21.0480 C   0  0  0  0  0  0  0  0  0  0  0  0
    0.3440   14.2600   21.1610 C   0  0  0  0  0  0  0  0  0  0  0  0
   -0.0360   15.1390   22.0960 F   0  0  0  0  0  0  0  0  0  0  0  0
   -0.6090   13.6850   20.3340 C   0  0  0  0  0  0  0  0  0  0  0  0
   -0.2110   12.7560   19.3630 C   0  0  0  0  0  0  0  0  0  0  0  0
    3.1460   12.7780   19.9850 H   0  0  0  0  0  0  0  0  0  0  0  0
    2.4120   14.3800   21.7100 H   0  0  0  0  0  0  0  0  0  0  0  0
   -1.6540   13.9570   20.4500 H   0  0  0  0  0  0  0  0  0  0  0  0
   -1.2980   12.1390   18.5670 C   0  0  0  0  0  0  0  0  0  0  0  0
   -1.3910   12.5300   17.2610 N   0  0  0  0  0  0  0  0  0  0  0  0
   -2.0170   11.2610   19.0230 O   0  0  0  0  0  0  0  0  0  0  0  0
   -2.0140   11.9700   16.6920 H   0  0  0  0  0  0  0  0  0  0  0  0
   -0.6030   12.9550   16.7930 H   0  0  0  0  0  0  0  0  0  0  0  0
  1  6  2  0  0  0  0
  1  2  1  0  0  0  0
  2  3  2  0  0  0  0
  3  4  1  0  0  0  0
  3 11  1  0  0  0  0
  4  9  1  0  0  0  0
  5  7  1  0  0  0  0
  5  4  2  0  0  0  0
  6  5  1  0  0  0  0
  7 13  1  6  0  0  0
  7  8  1  0  0  0  0
  8  9  1  0  0  0  0
  8 15  1  0  0  0  0
  8 14  1  0  0  0  0
  9 16  1  0  0  0  0
 10  2  1  0  0  0  0
 12  6  1  0  0  0  0
 17  9  1  0  0  0  0
 18 28  1  0  0  0  0
 19 18  2  0  0  0  0
 20 19  1  0  0  0  0
 21 20  1  0  0  0  0
 22 20  2  0  0  0  0
 22 23  1  0  0  0  0
 23 24  2  0  0  0  0
 24 18  1  0  0  0  0
 24  1  1  0  0  0  0
 25 19  1  0  0  0  0
 26 22  1  0  0  0  0
 27 23  1  0  0  0  0
 28 30  1  0  0  0  0
 28 31  1  0  0  0  0
 29 28  1  0  0  0  0
 32  7  1  0  0  0  0
 33 32  1  0  0  0  0
 34 33  2  0  0  0  0
 35 33  1  0  0  0  0
 35 37  1  0  0  0  0
 36 32  1  0  0  0  0
 38 35  1  0  0  0  0
 38 41  1  0  0  0  0
 39 38  1  0  0  0  0
 40 38  1  0  0  0  0
 41 47  2  0  0  0  0
 41 42  1  0  0  0  0
 42 43  2  0  0  0  0
 43 44  1  0  0  0  0
 43 49  1  0  0  0  0
 44 45  1  0  0  0  0
 46 50  1  0  0  0  0
 46 44  2  0  0  0  0
 47 46  1  0  0  0  0
 48 42  1  0  0  0  0
 51 53  2  0  0  0  0
 51 47  1  0  0  0  0
 52 51  1  0  0  0  0
 54 52  1  0  0  0  0
 55 52  1  0  0  0  0
M  END
>  <MODEL>
13

>  <REMARK>
 VINA RESULT:    -7.269      2.413      2.858
 INTER + INTRA:         -10.824
 INTER:                  -9.707
 INTRA:                  -1.118
 UNBOUND:                -1.219
  Name = 
  6 active torsions:
  status: ('A' for Active; 'I' for Inactive)
    1  A    between atoms: C_1  and  C_2
    2  A    between atoms: C_8  and  C_9
    3  A    between atoms: C_15  and  N_16
    4  A    between atoms: N_19  and  C_20
    5  A    between atoms: C_20  and  C_21
    6  A    between atoms: C_27  and  C_28
                            x       y       z     vdW  Elec       q    Type
                         _______ _______ _______ _____ _____    ______ ____

>  <TORSDO>
F 6

$$$$
=
 OpenBabel07192307433D

 55 58  0  0  1  0  0  0  0  0999 V2000
    3.6320    5.9830   18.6170 C   0  0  0  0  0  0  0  0  0  0  0  0
    3.3300    5.4510   17.3440 C   0  0  0  0  0  0  0  0  0  0  0  0
    4.3210    4.8880   16.5340 C   0  0  0  0  0  0  0  0  0  0  0  0
    5.6250    4.8800   16.9960 C   0  0  0  0  0  0  0  0  0  0  0  0
    5.9480    5.4070   18.2490 C   0  0  0  0  0  0  0  0  0  0  0  0
    4.9620    5.9450   19.0660 C   0  0  0  0  0  0  0  0  0  0  0  0
    7.4190    5.2450   18.5370 C   0  0  1  0  0  0  0  0  0  0  0  0
    7.9620    4.9920   17.1170 C   0  0  0  0  0  0  0  0  0  0  0  0
    6.8360    4.3040   16.3320 C   0  0  0  0  0  0  0  0  0  0  0  0
    2.3010    5.4620   16.9880 H   0  0  0  0  0  0  0  0  0  0  0  0
    4.0650    4.4660   15.5660 H   0  0  0  0  0  0  0  0  0  0  0  0
    5.2170    6.3260   20.0510 H   0  0  0  0  0  0  0  0  0  0  0  0
    7.5760    4.3690   19.1760 H   0  0  0  0  0  0  0  0  0  0  0  0
    8.2080    5.9450   16.6260 H   0  0  0  0  0  0  0  0  0  0  0  0
    8.8830    4.3980   17.1270 H   0  0  0  0  0  0  0  0  0  0  0  0
    6.8860    4.5490   15.2660 H   0  0  0  0  0  0  0  0  0  0  0  0
    6.8620    3.2180   16.4690 H   0  0  0  0  0  0  0  0  0  0  0  0
    1.8650    5.8470   20.4300 C   0  0  0  0  0  0  0  0  0  0  0  0
    0.9010    6.4980   21.2190 C   0  0  0  0  0  0  0  0  0  0  0  0
    0.6320    7.8480   21.0290 C   0  0  0  0  0  0  0  0  0  0  0  0
   -0.2930    8.4500   21.7850 F   0  0  0  0  0  0  0  0  0  0  0  0
    1.3090    8.5800   20.0660 C   0  0  0  0  0  0  0  0  0  0  0  0
    2.2780    7.9510   19.2850 C   0  0  0  0  0  0  0  0  0  0  0  0
    2.5780    6.5830   19.4540 C   0  0  0  0  0  0  0  0  0  0  0  0
    0.3520    5.9610   21.9870 H   0  0  0  0  0  0  0  0  0  0  0  0
    1.0850    9.6330   19.9330 H   0  0  0  0  0  0  0  0  0  0  0  0
    2.8150    8.5360   18.5400 H   0  0  0  0  0  0  0  0  0  0  0  0
    2.1260    4.3840   20.6760 C   0  0  0  0  0  0  0  0  0  0  0  0
    3.1190    4.2430   21.1150 H   0  0  0  0  0  0  0  0  0  0  0  0
    2.0490    3.8120   19.7450 H   0  0  0  0  0  0  0  0  0  0  0  0
    1.3880    3.9610   21.3660 H   0  0  0  0  0  0  0  0  0  0  0  0
    8.0010    6.4350   19.1230 N   0  0  0  0  0  0  0  0  0  0  0  0
    7.9840    7.6130   18.4150 C   0  0  0  0  0  0  0  0  0  0  0  0
    7.3380    7.8020   17.3960 O   0  0  0  0  0  0  0  0  0  0  0  0
    8.8350    8.5310   18.9820 N   0  0  0  0  0  0  0  0  0  0  0  0
    8.8650    6.2830   19.6200 H   0  0  0  0  0  0  0  0  0  0  0  0
    8.8110    8.5200   19.9900 H   0  0  0  0  0  0  0  0  0  0  0  0
    9.0050    9.8320   18.3610 C   0  0  0  0  0  0  0  0  0  0  0  0
    9.8690    9.7650   17.6930 H   0  0  0  0  0  0  0  0  0  0  0  0
    8.1030   10.0120   17.7670 H   0  0  0  0  0  0  0  0  0  0  0  0
    9.1720   10.9720   19.3490 C   0  0  0  0  0  0  0  0  0  0  0  0
    9.3920   10.7200   20.7180 C   0  0  0  0  0  0  0  0  0  0  0  0
    9.6210   11.7660   21.6150 C   0  0  0  0  0  0  0  0  0  0  0  0
    9.6240   13.0750   21.1580 C   0  0  0  0  0  0  0  0  0  0  0  0
    9.8530   14.0740   22.0190 F   0  0  0  0  0  0  0  0  0  0  0  0
    9.3720   13.3640   19.8250 C   0  0  0  0  0  0  0  0  0  0  0  0
    9.1210   12.3190   18.9260 C   0  0  0  0  0  0  0  0  0  0  0  0
    9.4160    9.7010   21.0980 H   0  0  0  0  0  0  0  0  0  0  0  0
    9.8160   11.5630   22.6640 H   0  0  0  0  0  0  0  0  0  0  0  0
    9.3670   14.3990   19.4920 H   0  0  0  0  0  0  0  0  0  0  0  0
    8.7940   12.7180   17.5370 C   0  0  0  0  0  0  0  0  0  0  0  0
    9.8510   13.0520   16.7370 N   0  0  0  0  0  0  0  0  0  0  0  0
    7.6540   12.6650   17.0980 O   0  0  0  0  0  0  0  0  0  0  0  0
    9.6290   13.1410   15.7540 H   0  0  0  0  0  0  0  0  0  0  0  0
   10.7870   12.7500   16.9670 H   0  0  0  0  0  0  0  0  0  0  0  0
  1  6  1  0  0  0  0
  1 24  1  0  0  0  0
  2  1  2  0  0  0  0
  3  4  2  0  0  0  0
  3  2  1  0  0  0  0
  4  5  1  0  0  0  0
  5  7  1  0  0  0  0
  5  6  2  0  0  0  0
  6 12  1  0  0  0  0
  7 32  1  0  0  0  0
  7 13  1  1  0  0  0
  8 15  1  0  0  0  0
  8  7  1  0  0  0  0
  9 17  1  0  0  0  0
  9  4  1  0  0  0  0
  9  8  1  0  0  0  0
 10  2  1  0  0  0  0
 11  3  1  0  0  0  0
 14  8  1  0  0  0  0
 16  9  1  0  0  0  0
 18 28  1  0  0  0  0
 18 19  1  0  0  0  0
 19 25  1  0  0  0  0
 20 19  2  0  0  0  0
 20 21  1  0  0  0  0
 22 20  1  0  0  0  0
 23 24  1  0  0  0  0
 23 22  2  0  0  0  0
 24 18  2  0  0  0  0
 26 22  1  0  0  0  0
 27 23  1  0  0  0  0
 28 29  1  0  0  0  0
 28 31  1  0  0  0  0
 30 28  1  0  0  0  0
 32 36  1  0  0  0  0
 33 35  1  0  0  0  0
 33 32  1  0  0  0  0
 34 33  2  0  0  0  0
 35 37  1  0  0  0  0
 38 35  1  0  0  0  0
 38 41  1  0  0  0  0
 39 38  1  0  0  0  0
 40 38  1  0  0  0  0
 41 42  1  0  0  0  0
 42 48  1  0  0  0  0
 42 43  2  0  0  0  0
 43 49  1  0  0  0  0
 44 43  1  0  0  0  0
 44 45  1  0  0  0  0
 46 44  2  0  0  0  0
 47 41  2  0  0  0  0
 47 46  1  0  0  0  0
 50 46  1  0  0  0  0
 51 47  1  0  0  0  0
 52 55  1  0  0  0  0
 52 51  1  0  0  0  0
 53 51  2  0  0  0  0
 54 52  1  0  0  0  0
M  END
>  <MODEL>
14

>  <REMARK>
 VINA RESULT:    -7.189      5.778      8.270
 INTER + INTRA:         -10.720
 INTER:                 -10.360
 INTRA:                  -0.360
 UNBOUND:                -1.219
  Name = 
  6 active torsions:
  status: ('A' for Active; 'I' for Inactive)
    1  A    between atoms: C_1  and  C_2
    2  A    between atoms: C_8  and  C_9
    3  A    between atoms: C_15  and  N_16
    4  A    between atoms: N_19  and  C_20
    5  A    between atoms: C_20  and  C_21
    6  A    between atoms: C_27  and  C_28
                            x       y       z     vdW  Elec       q    Type
                         _______ _______ _______ _____ _____    ______ ____

>  <TORSDO>
F 6

$$$$
=
 OpenBabel07192307433D

 55 58  0  0  1  0  0  0  0  0999 V2000
   -1.2080   12.5970   20.6410 C   0  0  0  0  0  0  0  0  0  0  0  0
   -0.6680   13.7890   20.1090 C   0  0  0  0  0  0  0  0  0  0  0  0
    0.3500   13.7650   19.1500 C   0  0  0  0  0  0  0  0  0  0  0  0
    0.8450   12.5380   18.7430 C   0  0  0  0  0  0  0  0  0  0  0  0
    0.3290   11.3470   19.2610 C   0  0  0  0  0  0  0  0  0  0  0  0
   -0.6990   11.3670   20.1950 C   0  0  0  0  0  0  0  0  0  0  0  0
    1.0030   10.1540   18.6340 C   0  0  1  0  0  0  0  0  0  0  0  0
    2.2690   10.8120   18.0510 C   0  0  0  0  0  0  0  0  0  0  0  0
    1.8940   12.2610   17.7130 C   0  0  0  0  0  0  0  0  0  0  0  0
   -1.0620   14.7500   20.4350 H   0  0  0  0  0  0  0  0  0  0  0  0
    0.7390   14.6920   18.7380 H   0  0  0  0  0  0  0  0  0  0  0  0
   -1.1120   10.4360   20.5720 H   0  0  0  0  0  0  0  0  0  0  0  0
    0.3710    9.7510   17.8340 H   0  0  0  0  0  0  0  0  0  0  0  0
    3.0760   10.8180   18.8000 H   0  0  0  0  0  0  0  0  0  0  0  0
    2.6540   10.2690   17.1810 H   0  0  0  0  0  0  0  0  0  0  0  0
    2.7570   12.9290   17.8050 H   0  0  0  0  0  0  0  0  0  0  0  0
    1.4670   12.3370   16.7080 H   0  0  0  0  0  0  0  0  0  0  0  0
   -3.6480   12.6800   21.3240 C   0  0  0  0  0  0  0  0  0  0  0  0
   -4.6090   12.6770   22.3500 C   0  0  0  0  0  0  0  0  0  0  0  0
   -4.2150   12.6600   23.6820 C   0  0  0  0  0  0  0  0  0  0  0  0
   -5.1430   12.6640   24.6460 F   0  0  0  0  0  0  0  0  0  0  0  0
   -2.8720   12.6380   24.0270 C   0  0  0  0  0  0  0  0  0  0  0  0
   -1.9080   12.6260   23.0210 C   0  0  0  0  0  0  0  0  0  0  0  0
   -2.2730   12.6400   21.6580 C   0  0  0  0  0  0  0  0  0  0  0  0
   -5.6710   12.6900   22.1210 H   0  0  0  0  0  0  0  0  0  0  0  0
   -2.5850   12.6240   25.0730 H   0  0  0  0  0  0  0  0  0  0  0  0
   -0.8550   12.5950   23.2990 H   0  0  0  0  0  0  0  0  0  0  0  0
   -4.1220   12.6940   19.8950 C   0  0  0  0  0  0  0  0  0  0  0  0
   -3.4160   13.2430   19.2640 H   0  0  0  0  0  0  0  0  0  0  0  0
   -5.1160   13.1470   19.8170 H   0  0  0  0  0  0  0  0  0  0  0  0
   -4.2100   11.6760   19.4970 H   0  0  0  0  0  0  0  0  0  0  0  0
    1.3360    9.1320   19.6060 N   0  0  0  0  0  0  0  0  0  0  0  0
    2.2650    8.1720   19.2830 C   0  0  0  0  0  0  0  0  0  0  0  0
    2.9950    8.2120   18.3050 O   0  0  0  0  0  0  0  0  0  0  0  0
    2.2220    7.1350   20.1830 N   0  0  0  0  0  0  0  0  0  0  0  0
    0.5500    8.7670   20.1220 H   0  0  0  0  0  0  0  0  0  0  0  0
    2.0910    7.4440   21.1340 H   0  0  0  0  0  0  0  0  0  0  0  0
    3.0930    5.9880   19.9990 C   0  0  0  0  0  0  0  0  0  0  0  0
    3.8450    6.2650   19.2530 H   0  0  0  0  0  0  0  0  0  0  0  0
    3.5860    5.8150   20.9620 H   0  0  0  0  0  0  0  0  0  0  0  0
    2.3680    4.7200   19.5900 C   0  0  0  0  0  0  0  0  0  0  0  0
    1.2490    4.2570   20.3120 C   0  0  0  0  0  0  0  0  0  0  0  0
    0.5350    3.1320   19.8930 C   0  0  0  0  0  0  0  0  0  0  0  0
    0.9350    2.4500   18.7540 C   0  0  0  0  0  0  0  0  0  0  0  0
    0.2440    1.3780   18.3510 F   0  0  0  0  0  0  0  0  0  0  0  0
    2.0550    2.8510   18.0400 C   0  0  0  0  0  0  0  0  0  0  0  0
    2.7860    3.9670   18.4700 C   0  0  0  0  0  0  0  0  0  0  0  0
    0.9010    4.7880   21.1970 H   0  0  0  0  0  0  0  0  0  0  0  0
   -0.3420    2.7980   20.4390 H   0  0  0  0  0  0  0  0  0  0  0  0
    2.3570    2.2930   17.1580 H   0  0  0  0  0  0  0  0  0  0  0  0
    4.0050    4.2870   17.6920 C   0  0  0  0  0  0  0  0  0  0  0  0
    5.0610    3.4320   17.8400 N   0  0  0  0  0  0  0  0  0  0  0  0
    4.0390    5.2090   16.8900 O   0  0  0  0  0  0  0  0  0  0  0  0
    5.8100    3.5600   17.1700 H   0  0  0  0  0  0  0  0  0  0  0  0
    4.9220    2.4970   18.1950 H   0  0  0  0  0  0  0  0  0  0  0  0
  1 24  1  0  0  0  0
  2 10  1  0  0  0  0
  2  1  2  0  0  0  0
  3  2  1  0  0  0  0
  4  3  2  0  0  0  0
  4  5  1  0  0  0  0
  5  6  2  0  0  0  0
  6 12  1  0  0  0  0
  6  1  1  0  0  0  0
  7 13  1  6  0  0  0
  7  5  1  0  0  0  0
  7 32  1  0  0  0  0
  8  7  1  0  0  0  0
  8 14  1  0  0  0  0
  9 16  1  0  0  0  0
  9  8  1  0  0  0  0
  9  4  1  0  0  0  0
 11  3  1  0  0  0  0
 15  8  1  0  0  0  0
 17  9  1  0  0  0  0
 18 24  2  0  0  0  0
 18 19  1  0  0  0  0
 19 20  2  0  0  0  0
 20 22  1  0  0  0  0
 20 21  1  0  0  0  0
 22 26  1  0  0  0  0
 23 27  1  0  0  0  0
 23 22  2  0  0  0  0
 24 23  1  0  0  0  0
 25 19  1  0  0  0  0
 28 18  1  0  0  0  0
 29 28  1  0  0  0  0
 30 28  1  0  0  0  0
 31 28  1  0  0  0  0
 32 36  1  0  0  0  0
 33 32  1  0  0  0  0
 33 35  1  0  0  0  0
 34 33  2  0  0  0  0
 35 37  1  0  0  0  0
 38 35  1  0  0  0  0
 38 40  1  0  0  0  0
 39 38  1  0  0  0  0
 41 38  1  0  0  0  0
 41 42  1  0  0  0  0
 42 48  1  0  0  0  0
 43 42  2  0  0  0  0
 43 49  1  0  0  0  0
 44 43  1  0  0  0  0
 45 44  1  0  0  0  0
 46 47  1  0  0  0  0
 46 44  2  0  0  0  0
 47 41  2  0  0  0  0
 50 46  1  0  0  0  0
 51 52  1  0  0  0  0
 51 47  1  0  0  0  0
 52 55  1  0  0  0  0
 53 51  2  0  0  0  0
 54 52  1  0  0  0  0
M  END
>  <MODEL>
15

>  <REMARK>
 VINA RESULT:    -7.158      3.391     10.518
 INTER + INTRA:         -10.678
 INTER:                 -10.210
 INTRA:                  -0.468
 UNBOUND:                -1.219
  Name = 
  6 active torsions:
  status: ('A' for Active; 'I' for Inactive)
    1  A    between atoms: C_1  and  C_2
    2  A    between atoms: C_8  and  C_9
    3  A    between atoms: C_15  and  N_16
    4  A    between atoms: N_19  and  C_20
    5  A    between atoms: C_20  and  C_21
    6  A    between atoms: C_27  and  C_28
                            x       y       z     vdW  Elec       q    Type
                         _______ _______ _______ _____ _____    ______ ____

>  <TORSDO>
F 6

$$$$
=
 OpenBabel07192307433D

 55 58  0  0  1  0  0  0  0  0999 V2000
   -0.8920   13.0130   20.8810 C   0  0  0  0  0  0  0  0  0  0  0  0
   -0.2540   14.2560   20.6780 C   0  0  0  0  0  0  0  0  0  0  0  0
    0.8030   14.3970   19.7720 C   0  0  0  0  0  0  0  0  0  0  0  0
    1.2350   13.2760   19.0840 C   0  0  0  0  0  0  0  0  0  0  0  0
    0.6220   12.0350   19.2740 C   0  0  0  0  0  0  0  0  0  0  0  0
   -0.4430   11.8980   20.1550 C   0  0  0  0  0  0  0  0  0  0  0  0
    1.2450   10.9880   18.3860 C   0  0  1  0  0  0  0  0  0  0  0  0
    2.5750   11.6760   18.0210 C   0  0  0  0  0  0  0  0  0  0  0  0
    2.3090   13.1870   18.0460 C   0  0  0  0  0  0  0  0  0  0  0  0
   -0.5990   15.1330   21.2240 H   0  0  0  0  0  0  0  0  0  0  0  0
    1.2670   15.3660   19.6150 H   0  0  0  0  0  0  0  0  0  0  0  0
   -0.9310   10.9350   20.2760 H   0  0  0  0  0  0  0  0  0  0  0  0
    0.6250   10.8430   17.4950 H   0  0  0  0  0  0  0  0  0  0  0  0
    3.3470   11.4380   18.7680 H   0  0  0  0  0  0  0  0  0  0  0  0
    2.9630   11.3390   17.0530 H   0  0  0  0  0  0  0  0  0  0  0  0
    3.2080   13.7460   18.3250 H   0  0  0  0  0  0  0  0  0  0  0  0
    1.9320   13.5400   17.0810 H   0  0  0  0  0  0  0  0  0  0  0  0
   -2.0070   11.8930   22.8630 C   0  0  0  0  0  0  0  0  0  0  0  0
   -3.0760   11.8540   23.7750 C   0  0  0  0  0  0  0  0  0  0  0  0
   -4.1250   12.7580   23.6680 C   0  0  0  0  0  0  0  0  0  0  0  0
   -5.1380   12.7020   24.5420 F   0  0  0  0  0  0  0  0  0  0  0  0
   -4.1380   13.7190   22.6700 C   0  0  0  0  0  0  0  0  0  0  0  0
   -3.0780   13.7810   21.7660 C   0  0  0  0  0  0  0  0  0  0  0  0
   -1.9950   12.8800   21.8470 C   0  0  0  0  0  0  0  0  0  0  0  0
   -3.1010   11.1190   24.5750 H   0  0  0  0  0  0  0  0  0  0  0  0
   -4.9660   14.4170   22.6040 H   0  0  0  0  0  0  0  0  0  0  0  0
   -3.0880   14.5470   20.9920 H   0  0  0  0  0  0  0  0  0  0  0  0
   -0.8900   10.8960   23.0210 C   0  0  0  0  0  0  0  0  0  0  0  0
    0.0720   11.4120   23.1060 H   0  0  0  0  0  0  0  0  0  0  0  0
   -0.8630   10.2020   22.1740 H   0  0  0  0  0  0  0  0  0  0  0  0
   -1.0270   10.2870   23.9210 H   0  0  0  0  0  0  0  0  0  0  0  0
    1.4690    9.7360   19.0800 N   0  0  0  0  0  0  0  0  0  0  0  0
    2.1260    8.7160   18.4340 C   0  0  0  0  0  0  0  0  0  0  0  0
    2.7230    8.8340   17.3760 O   0  0  0  0  0  0  0  0  0  0  0  0
    1.9730    7.5330   19.1170 N   0  0  0  0  0  0  0  0  0  0  0  0
    0.6930    9.4170   19.6390 H   0  0  0  0  0  0  0  0  0  0  0  0
    2.0280    7.6460   20.1180 H   0  0  0  0  0  0  0  0  0  0  0  0
    2.5510    6.3150   18.5810 C   0  0  0  0  0  0  0  0  0  0  0  0
    2.0420    6.1000   17.6360 H   0  0  0  0  0  0  0  0  0  0  0  0
    3.6050    6.5330   18.3810 H   0  0  0  0  0  0  0  0  0  0  0  0
    2.4710    5.1260   19.5200 C   0  0  0  0  0  0  0  0  0  0  0  0
    1.3380    4.9170   20.3330 C   0  0  0  0  0  0  0  0  0  0  0  0
    1.2300    3.7830   21.1410 C   0  0  0  0  0  0  0  0  0  0  0  0
    2.2560    2.8500   21.1560 C   0  0  0  0  0  0  0  0  0  0  0  0
    2.1450    1.7600   21.9250 F   0  0  0  0  0  0  0  0  0  0  0  0
    3.4030    3.0400   20.4000 C   0  0  0  0  0  0  0  0  0  0  0  0
    3.5230    4.1870   19.6040 C   0  0  0  0  0  0  0  0  0  0  0  0
    0.5100    5.6230   20.3230 H   0  0  0  0  0  0  0  0  0  0  0  0
    0.3430    3.6150   21.7440 H   0  0  0  0  0  0  0  0  0  0  0  0
    4.1990    2.3020   20.4380 H   0  0  0  0  0  0  0  0  0  0  0  0
    4.8080    4.3480   18.8820 C   0  0  0  0  0  0  0  0  0  0  0  0
    4.9420    3.6430   17.7190 N   0  0  0  0  0  0  0  0  0  0  0  0
    5.6660    5.1360   19.2540 O   0  0  0  0  0  0  0  0  0  0  0  0
    5.7400    3.9040   17.1530 H   0  0  0  0  0  0  0  0  0  0  0  0
    4.1290    3.2970   17.2290 H   0  0  0  0  0  0  0  0  0  0  0  0
  1 24  1  0  0  0  0
  2  1  1  0  0  0  0
  2 10  1  0  0  0  0
  3  2  2  0  0  0  0
  4  5  2  0  0  0  0
  4  3  1  0  0  0  0
  5  6  1  0  0  0  0
  6 12  1  0  0  0  0
  6  1  2  0  0  0  0
  7 13  1  6  0  0  0
  7 32  1  0  0  0  0
  7  5  1  0  0  0  0
  8  9  1  0  0  0  0
  8  7  1  0  0  0  0
  8 14  1  0  0  0  0
  9 16  1  0  0  0  0
  9  4  1  0  0  0  0
 11  3  1  0  0  0  0
 15  8  1  0  0  0  0
 17  9  1  0  0  0  0
 18 28  1  0  0  0  0
 18 19  1  0  0  0  0
 19 25  1  0  0  0  0
 20 19  2  0  0  0  0
 20 21  1  0  0  0  0
 22 20  1  0  0  0  0
 23 24  1  0  0  0  0
 23 22  2  0  0  0  0
 24 18  2  0  0  0  0
 26 22  1  0  0  0  0
 27 23  1  0  0  0  0
 28 29  1  0  0  0  0
 28 31  1  0  0  0  0
 30 28  1  0  0  0  0
 32 36  1  0  0  0  0
 33 32  1  0  0  0  0
 33 35  1  0  0  0  0
 34 33  2  0  0  0  0
 35 37  1  0  0  0  0
 38 35  1  0  0  0  0
 38 41  1  0  0  0  0
 39 38  1  0  0  0  0
 40 38  1  0  0  0  0
 41 47  2  0  0  0  0
 41 42  1  0  0  0  0
 42 43  2  0  0  0  0
 43 44  1  0  0  0  0
 43 49  1  0  0  0  0
 44 45  1  0  0  0  0
 46 50  1  0  0  0  0
 46 44  2  0  0  0  0
 47 46  1  0  0  0  0
 48 42  1  0  0  0  0
 51 53  2  0  0  0  0
 51 47  1  0  0  0  0
 52 51  1  0  0  0  0
 54 52  1  0  0  0  0
 55 52  1  0  0  0  0
M  END
>  <MODEL>
16

>  <REMARK>
 VINA RESULT:    -7.078      3.693     10.592
 INTER + INTRA:         -10.573
 INTER:                 -10.356
 INTRA:                  -0.217
 UNBOUND:                -1.219
  Name = 
  6 active torsions:
  status: ('A' for Active; 'I' for Inactive)
    1  A    between atoms: C_1  and  C_2
    2  A    between atoms: C_8  and  C_9
    3  A    between atoms: C_15  and  N_16
    4  A    between atoms: N_19  and  C_20
    5  A    between atoms: C_20  and  C_21
    6  A    between atoms: C_27  and  C_28
                            x       y       z     vdW  Elec       q    Type
                         _______ _______ _______ _____ _____    ______ ____

>  <TORSDO>
F 6

$$$$
=
 OpenBabel07192307433D

 55 58  0  0  1  0  0  0  0  0999 V2000
    1.0180   13.9450   20.7160 C   0  0  0  0  0  0  0  0  0  0  0  0
    0.0200   14.9070   20.9830 C   0  0  0  0  0  0  0  0  0  0  0  0
   -1.0970   14.6020   21.7680 C   0  0  0  0  0  0  0  0  0  0  0  0
   -1.2230   13.3170   22.2650 C   0  0  0  0  0  0  0  0  0  0  0  0
   -0.2500   12.3480   22.0080 C   0  0  0  0  0  0  0  0  0  0  0  0
    0.8720   12.6540   21.2490 C   0  0  0  0  0  0  0  0  0  0  0  0
   -0.5950   11.0480   22.6880 C   0  0  1  0  0  0  0  0  0  0  0  0
   -2.0960   11.2610   22.9700 C   0  0  0  0  0  0  0  0  0  0  0  0
   -2.2980   12.7710   23.1510 C   0  0  0  0  0  0  0  0  0  0  0  0
    0.1260   15.9160   20.5860 H   0  0  0  0  0  0  0  0  0  0  0  0
   -1.8440   15.3620   21.9780 H   0  0  0  0  0  0  0  0  0  0  0  0
    1.6370   11.9020   21.0780 H   0  0  0  0  0  0  0  0  0  0  0  0
   -0.0330   10.9610   23.6250 H   0  0  0  0  0  0  0  0  0  0  0  0
   -2.6980   10.9210   22.1140 H   0  0  0  0  0  0  0  0  0  0  0  0
   -2.4380   10.6900   23.8400 H   0  0  0  0  0  0  0  0  0  0  0  0
   -3.2990   13.0810   22.8330 H   0  0  0  0  0  0  0  0  0  0  0  0
   -2.1240   13.0740   24.1880 H   0  0  0  0  0  0  0  0  0  0  0  0
    3.4220   14.6950   20.4230 C   0  0  0  0  0  0  0  0  0  0  0  0
    4.5020   14.9570   19.5610 C   0  0  0  0  0  0  0  0  0  0  0  0
    4.3510   14.8330   18.1860 C   0  0  0  0  0  0  0  0  0  0  0  0
    5.3890   15.0920   17.3820 F   0  0  0  0  0  0  0  0  0  0  0  0
    3.1400   14.4430   17.6350 C   0  0  0  0  0  0  0  0  0  0  0  0
    2.0640   14.1650   18.4770 C   0  0  0  0  0  0  0  0  0  0  0  0
    2.1830   14.2790   19.8780 C   0  0  0  0  0  0  0  0  0  0  0  0
    5.4690   15.2610   19.9540 H   0  0  0  0  0  0  0  0  0  0  0  0
    3.0430   14.3500   16.5590 H   0  0  0  0  0  0  0  0  0  0  0  0
    1.1200   13.8460   18.0380 H   0  0  0  0  0  0  0  0  0  0  0  0
    3.6340   14.8390   21.9070 C   0  0  0  0  0  0  0  0  0  0  0  0
    4.3470   14.0890   22.2640 H   0  0  0  0  0  0  0  0  0  0  0  0
    2.6880   14.7360   22.4480 H   0  0  0  0  0  0  0  0  0  0  0  0
    4.0320   15.8290   22.1550 H   0  0  0  0  0  0  0  0  0  0  0  0
   -0.3740    9.8990   21.8330 N   0  0  0  0  0  0  0  0  0  0  0  0
    0.7750    9.1600   21.9830 C   0  0  0  0  0  0  0  0  0  0  0  0
    1.5540    9.2670   22.9180 O   0  0  0  0  0  0  0  0  0  0  0  0
    0.9550    8.3230   20.9080 N   0  0  0  0  0  0  0  0  0  0  0  0
   -0.6390   10.0320   20.8700 H   0  0  0  0  0  0  0  0  0  0  0  0
    0.0950    7.9040   20.5880 H   0  0  0  0  0  0  0  0  0  0  0  0
    2.1370    7.4830   20.8420 C   0  0  0  0  0  0  0  0  0  0  0  0
    2.9370    8.0800   20.3920 H   0  0  0  0  0  0  0  0  0  0  0  0
    2.4050    7.2420   21.8760 H   0  0  0  0  0  0  0  0  0  0  0  0
    1.9350    6.1880   20.0790 C   0  0  0  0  0  0  0  0  0  0  0  0
    1.3870    5.0510   20.7080 C   0  0  0  0  0  0  0  0  0  0  0  0
    1.1300    3.8830   19.9870 C   0  0  0  0  0  0  0  0  0  0  0  0
    1.4260    3.8310   18.6340 C   0  0  0  0  0  0  0  0  0  0  0  0
    1.1700    2.7120   17.9460 F   0  0  0  0  0  0  0  0  0  0  0  0
    2.0020    4.9150   17.9890 C   0  0  0  0  0  0  0  0  0  0  0  0
    2.2810    6.0820   18.7130 C   0  0  0  0  0  0  0  0  0  0  0  0
    1.1260    5.0740   21.7640 H   0  0  0  0  0  0  0  0  0  0  0  0
    0.6830    3.0200   20.4730 H   0  0  0  0  0  0  0  0  0  0  0  0
    2.2370    4.8460   16.9300 H   0  0  0  0  0  0  0  0  0  0  0  0
    2.9580    7.1670   17.9650 C   0  0  0  0  0  0  0  0  0  0  0  0
    4.1410    6.8410   17.3610 N   0  0  0  0  0  0  0  0  0  0  0  0
    2.4480    8.2680   17.8160 O   0  0  0  0  0  0  0  0  0  0  0  0
    4.4910    7.5330   16.7100 H   0  0  0  0  0  0  0  0  0  0  0  0
    4.3730    5.8770   17.1700 H   0  0  0  0  0  0  0  0  0  0  0  0
  1  2  2  0  0  0  0
  1  6  1  0  0  0  0
  2  3  1  0  0  0  0
  3 11  1  0  0  0  0
  3  4  2  0  0  0  0
  4  9  1  0  0  0  0
  5  4  1  0  0  0  0
  5  7  1  0  0  0  0
  6  5  2  0  0  0  0
  7  8  1  0  0  0  0
  7 13  1  1  0  0  0
  8  9  1  0  0  0  0
  8 15  1  0  0  0  0
  9 17  1  0  0  0  0
 10  2  1  0  0  0  0
 12  6  1  0  0  0  0
 14  8  1  0  0  0  0
 16  9  1  0  0  0  0
 18 28  1  0  0  0  0
 19 25  1  0  0  0  0
 19 18  2  0  0  0  0
 20 19  1  0  0  0  0
 21 20  1  0  0  0  0
 22 20  2  0  0  0  0
 22 23  1  0  0  0  0
 23 24  2  0  0  0  0
 24 18  1  0  0  0  0
 24  1  1  0  0  0  0
 26 22  1  0  0  0  0
 27 23  1  0  0  0  0
 28 31  1  0  0  0  0
 28 29  1  0  0  0  0
 28 30  1  0  0  0  0
 32 33  1  0  0  0  0
 32  7  1  0  0  0  0
 33 34  2  0  0  0  0
 35 33  1  0  0  0  0
 36 32  1  0  0  0  0
 37 35  1  0  0  0  0
 38 35  1  0  0  0  0
 38 40  1  0  0  0  0
 39 38  1  0  0  0  0
 41 42  1  0  0  0  0
 41 38  1  0  0  0  0
 42 48  1  0  0  0  0
 43 49  1  0  0  0  0
 43 42  2  0  0  0  0
 44 43  1  0  0  0  0
 45 44  1  0  0  0  0
 46 44  2  0  0  0  0
 46 47  1  0  0  0  0
 47 41  2  0  0  0  0
 50 46  1  0  0  0  0
 51 47  1  0  0  0  0
 52 51  1  0  0  0  0
 53 51  2  0  0  0  0
 54 52  1  0  0  0  0
 55 52  1  0  0  0  0
M  END
>  <MODEL>
17

>  <REMARK>
 VINA RESULT:    -7.006      3.850      9.024
 INTER + INTRA:         -10.478
 INTER:                  -9.302
 INTRA:                  -1.176
 UNBOUND:                -1.219
  Name = 
  6 active torsions:
  status: ('A' for Active; 'I' for Inactive)
    1  A    between atoms: C_1  and  C_2
    2  A    between atoms: C_8  and  C_9
    3  A    between atoms: C_15  and  N_16
    4  A    between atoms: N_19  and  C_20
    5  A    between atoms: C_20  and  C_21
    6  A    between atoms: C_27  and  C_28
                            x       y       z     vdW  Elec       q    Type
                         _______ _______ _______ _____ _____    ______ ____

>  <TORSDO>
F 6

$$$$
=
 OpenBabel07192307433D

 55 58  0  0  1  0  0  0  0  0999 V2000
   -2.7030   11.3170   18.6820 C   0  0  0  0  0  0  0  0  0  0  0  0
   -3.4910   12.3010   19.3180 C   0  0  0  0  0  0  0  0  0  0  0  0
   -3.2450   12.6940   20.6380 C   0  0  0  0  0  0  0  0  0  0  0  0
   -2.2180   12.0760   21.3300 C   0  0  0  0  0  0  0  0  0  0  0  0
   -1.4300   11.0940   20.7220 C   0  0  0  0  0  0  0  0  0  0  0  0
   -1.6570   10.7200   19.4040 C   0  0  0  0  0  0  0  0  0  0  0  0
   -0.3600   10.6060   21.6640 C   0  0  1  0  0  0  0  0  0  0  0  0
   -0.9260   11.0870   23.0150 C   0  0  0  0  0  0  0  0  0  0  0  0
   -1.7450   12.3510   22.7220 C   0  0  0  0  0  0  0  0  0  0  0  0
   -4.2980   12.7820   18.7680 H   0  0  0  0  0  0  0  0  0  0  0  0
   -3.8490   13.4670   21.1030 H   0  0  0  0  0  0  0  0  0  0  0  0
   -1.0210    9.9770   18.9300 H   0  0  0  0  0  0  0  0  0  0  0  0
    0.5880   11.1080   21.4390 H   0  0  0  0  0  0  0  0  0  0  0  0
   -1.5910   10.3230   23.4450 H   0  0  0  0  0  0  0  0  0  0  0  0
   -0.1370   11.2660   23.7530 H   0  0  0  0  0  0  0  0  0  0  0  0
   -2.5730   12.4630   23.4300 H   0  0  0  0  0  0  0  0  0  0  0  0
   -1.1150   13.2460   22.7380 H   0  0  0  0  0  0  0  0  0  0  0  0
   -4.1240   11.3470   16.5830 C   0  0  0  0  0  0  0  0  0  0  0  0
   -4.3020   10.9470   15.2470 C   0  0  0  0  0  0  0  0  0  0  0  0
   -3.3800   10.1060   14.6360 C   0  0  0  0  0  0  0  0  0  0  0  0
   -3.5690    9.7300   13.3660 F   0  0  0  0  0  0  0  0  0  0  0  0
   -2.2660    9.6520   15.3240 C   0  0  0  0  0  0  0  0  0  0  0  0
   -2.0670   10.0520   16.6450 C   0  0  0  0  0  0  0  0  0  0  0  0
   -2.9820   10.9070   17.2950 C   0  0  0  0  0  0  0  0  0  0  0  0
   -5.1600   11.2840   14.6720 H   0  0  0  0  0  0  0  0  0  0  0  0
   -1.5560    8.9970   14.8290 H   0  0  0  0  0  0  0  0  0  0  0  0
   -1.1830    9.7020   17.1750 H   0  0  0  0  0  0  0  0  0  0  0  0
   -5.1470   12.2630   17.2020 C   0  0  0  0  0  0  0  0  0  0  0  0
   -5.1610   13.2260   16.6820 H   0  0  0  0  0  0  0  0  0  0  0  0
   -4.9380   12.4210   18.2650 H   0  0  0  0  0  0  0  0  0  0  0  0
   -6.1520   11.8310   17.1410 H   0  0  0  0  0  0  0  0  0  0  0  0
   -0.2110    9.1650   21.6340 N   0  0  0  0  0  0  0  0  0  0  0  0
    1.0320    8.6210   21.4220 C   0  0  0  0  0  0  0  0  0  0  0  0
    2.0800    9.2480   21.4500 O   0  0  0  0  0  0  0  0  0  0  0  0
    0.9300    7.2830   21.1220 N   0  0  0  0  0  0  0  0  0  0  0  0
   -0.9480    8.6740   21.1520 H   0  0  0  0  0  0  0  0  0  0  0  0
    0.2330    6.8080   21.6740 H   0  0  0  0  0  0  0  0  0  0  0  0
    2.1280    6.5230   20.8140 C   0  0  0  0  0  0  0  0  0  0  0  0
    2.7800    7.1680   20.2150 H   0  0  0  0  0  0  0  0  0  0  0  0
    2.6140    6.3090   21.7720 H   0  0  0  0  0  0  0  0  0  0  0  0
    1.8620    5.2110   20.1010 C   0  0  0  0  0  0  0  0  0  0  0  0
    1.2460    4.1330   20.7680 C   0  0  0  0  0  0  0  0  0  0  0  0
    0.9330    2.9510   20.0920 C   0  0  0  0  0  0  0  0  0  0  0  0
    1.2390    2.8290   18.7450 C   0  0  0  0  0  0  0  0  0  0  0  0
    0.9290    1.6980   18.0990 F   0  0  0  0  0  0  0  0  0  0  0  0
    1.8800    3.8520   18.0640 C   0  0  0  0  0  0  0  0  0  0  0  0
    2.2160    5.0310   18.7450 C   0  0  0  0  0  0  0  0  0  0  0  0
    0.9760    4.2120   21.8190 H   0  0  0  0  0  0  0  0  0  0  0  0
    0.4340    2.1350   20.6060 H   0  0  0  0  0  0  0  0  0  0  0  0
    2.1220    3.7280   17.0120 H   0  0  0  0  0  0  0  0  0  0  0  0
    2.9590    6.0460   17.9620 C   0  0  0  0  0  0  0  0  0  0  0  0
    4.1430    5.6400   17.4110 N   0  0  0  0  0  0  0  0  0  0  0  0
    2.5010    7.1580   17.7420 O   0  0  0  0  0  0  0  0  0  0  0  0
    4.5400    6.2820   16.7370 H   0  0  0  0  0  0  0  0  0  0  0  0
    4.3390    4.6580   17.2780 H   0  0  0  0  0  0  0  0  0  0  0  0
  1  2  2  0  0  0  0
  1  6  1  0  0  0  0
  2  3  1  0  0  0  0
  3 11  1  0  0  0  0
  3  4  2  0  0  0  0
  4  9  1  0  0  0  0
  5  4  1  0  0  0  0
  5  7  1  0  0  0  0
  6  5  2  0  0  0  0
  7 13  1  6  0  0  0
  7  8  1  0  0  0  0
  8 14  1  0  0  0  0
  8 15  1  0  0  0  0
  9 17  1  0  0  0  0
  9  8  1  0  0  0  0
  9 16  1  0  0  0  0
 10  2  1  0  0  0  0
 12  6  1  0  0  0  0
 18 28  1  0  0  0  0
 18 24  1  0  0  0  0
 19 18  2  0  0  0  0
 20 19  1  0  0  0  0
 20 22  2  0  0  0  0
 21 20  1  0  0  0  0
 22 23  1  0  0  0  0
 23 27  1  0  0  0  0
 23 24  2  0  0  0  0
 24  1  1  0  0  0  0
 25 19  1  0  0  0  0
 26 22  1  0  0  0  0
 28 30  1  0  0  0  0
 29 28  1  0  0  0  0
 31 28  1  0  0  0  0
 32  7  1  0  0  0  0
 33 34  2  0  0  0  0
 33 32  1  0  0  0  0
 35 33  1  0  0  0  0
 35 37  1  0  0  0  0
 36 32  1  0  0  0  0
 38 35  1  0  0  0  0
 38 40  1  0  0  0  0
 39 38  1  0  0  0  0
 41 42  1  0  0  0  0
 41 38  1  0  0  0  0
 42 48  1  0  0  0  0
 43 49  1  0  0  0  0
 43 42  2  0  0  0  0
 44 43  1  0  0  0  0
 45 44  1  0  0  0  0
 46 44  2  0  0  0  0
 46 47  1  0  0  0  0
 47 41  2  0  0  0  0
 50 46  1  0  0  0  0
 51 47  1  0  0  0  0
 52 51  1  0  0  0  0
 53 51  2  0  0  0  0
 54 52  1  0  0  0  0
 55 52  1  0  0  0  0
M  END
>  <MODEL>
18

>  <REMARK>
 VINA RESULT:    -6.940      3.238      9.177
 INTER + INTRA:         -10.389
 INTER:                 -10.281
 INTRA:                  -0.109
 UNBOUND:                -1.219
  Name = 
  6 active torsions:
  status: ('A' for Active; 'I' for Inactive)
    1  A    between atoms: C_1  and  C_2
    2  A    between atoms: C_8  and  C_9
    3  A    between atoms: C_15  and  N_16
    4  A    between atoms: N_19  and  C_20
    5  A    between atoms: C_20  and  C_21
    6  A    between atoms: C_27  and  C_28
                            x       y       z     vdW  Elec       q    Type
                         _______ _______ _______ _____ _____    ______ ____

>  <TORSDO>
F 6

$$$$
=
 OpenBabel07192307433D

 55 58  0  0  1  0  0  0  0  0999 V2000
   -2.8100   11.5190   18.7940 C   0  0  0  0  0  0  0  0  0  0  0  0
   -3.7720   12.3190   19.4490 C   0  0  0  0  0  0  0  0  0  0  0  0
   -3.5950   12.7370   20.7730 C   0  0  0  0  0  0  0  0  0  0  0  0
   -2.4580   12.3280   21.4470 C   0  0  0  0  0  0  0  0  0  0  0  0
   -1.4970   11.5300   20.8200 C   0  0  0  0  0  0  0  0  0  0  0  0
   -1.6580   11.1350   19.4990 C   0  0  0  0  0  0  0  0  0  0  0  0
   -0.3410   11.2540   21.7470 C   0  0  1  0  0  0  0  0  0  0  0  0
   -0.9770   11.5970   23.1090 C   0  0  0  0  0  0  0  0  0  0  0  0
   -2.0350   12.6760   22.8400 C   0  0  0  0  0  0  0  0  0  0  0  0
   -4.6640   12.6360   18.9120 H   0  0  0  0  0  0  0  0  0  0  0  0
   -4.3360   13.3690   21.2530 H   0  0  0  0  0  0  0  0  0  0  0  0
   -0.8930   10.5380   19.0100 H   0  0  0  0  0  0  0  0  0  0  0  0
    0.4850   11.9380   21.5210 H   0  0  0  0  0  0  0  0  0  0  0  0
   -1.4720   10.7100   23.5330 H   0  0  0  0  0  0  0  0  0  0  0  0
   -0.2320   11.9210   23.8430 H   0  0  0  0  0  0  0  0  0  0  0  0
   -2.8610   12.6120   23.5560 H   0  0  0  0  0  0  0  0  0  0  0  0
   -1.5960   13.6780   22.8630 H   0  0  0  0  0  0  0  0  0  0  0  0
   -2.1360   10.1860   16.7450 C   0  0  0  0  0  0  0  0  0  0  0  0
   -2.4220    9.7780   15.4300 C   0  0  0  0  0  0  0  0  0  0  0  0
   -3.5450   10.2630   14.7720 C   0  0  0  0  0  0  0  0  0  0  0  0
   -3.7970    9.8680   13.5180 F   0  0  0  0  0  0  0  0  0  0  0  0
   -4.4080   11.1500   15.3950 C   0  0  0  0  0  0  0  0  0  0  0  0
   -4.1470   11.5530   16.7040 C   0  0  0  0  0  0  0  0  0  0  0  0
   -3.0170   11.0780   17.4030 C   0  0  0  0  0  0  0  0  0  0  0  0
   -1.7710    9.0810   14.9090 H   0  0  0  0  0  0  0  0  0  0  0  0
   -5.2800   11.5160   14.8650 H   0  0  0  0  0  0  0  0  0  0  0  0
   -4.8370   12.2390   17.1920 H   0  0  0  0  0  0  0  0  0  0  0  0
   -0.9100    9.6310   17.4210 C   0  0  0  0  0  0  0  0  0  0  0  0
   -1.1500    8.6960   17.9370 H   0  0  0  0  0  0  0  0  0  0  0  0
   -0.4980   10.3510   18.1350 H   0  0  0  0  0  0  0  0  0  0  0  0
   -0.1180    9.4220   16.6930 H   0  0  0  0  0  0  0  0  0  0  0  0
    0.0910    9.8720   21.6960 N   0  0  0  0  0  0  0  0  0  0  0  0
    1.0730    9.5060   20.8070 C   0  0  0  0  0  0  0  0  0  0  0  0
    1.7680   10.2880   20.1780 O   0  0  0  0  0  0  0  0  0  0  0  0
    1.1290    8.1390   20.6850 N   0  0  0  0  0  0  0  0  0  0  0  0
   -0.6510    9.1940   21.7700 H   0  0  0  0  0  0  0  0  0  0  0  0
    1.0070    7.6590   21.5640 H   0  0  0  0  0  0  0  0  0  0  0  0
    2.0710    7.5390   19.7570 C   0  0  0  0  0  0  0  0  0  0  0  0
    1.8200    7.9040   18.7550 H   0  0  0  0  0  0  0  0  0  0  0  0
    3.0620    7.9090   20.0380 H   0  0  0  0  0  0  0  0  0  0  0  0
    2.0910    6.0220   19.7890 C   0  0  0  0  0  0  0  0  0  0  0  0
    1.1510    5.2990   20.5510 C   0  0  0  0  0  0  0  0  0  0  0  0
    1.1210    3.9030   20.5220 C   0  0  0  0  0  0  0  0  0  0  0  0
    2.0340    3.2120   19.7400 C   0  0  0  0  0  0  0  0  0  0  0  0
    1.9960    1.8750   19.7080 F   0  0  0  0  0  0  0  0  0  0  0  0
    2.9990    3.8880   19.0070 C   0  0  0  0  0  0  0  0  0  0  0  0
    3.0450    5.2870   19.0510 C   0  0  0  0  0  0  0  0  0  0  0  0
    0.4100    5.8180   21.1560 H   0  0  0  0  0  0  0  0  0  0  0  0
    0.3770    3.3530   21.0910 H   0  0  0  0  0  0  0  0  0  0  0  0
    3.7120    3.3240   18.4120 H   0  0  0  0  0  0  0  0  0  0  0  0
    4.1480    5.9270   18.2940 C   0  0  0  0  0  0  0  0  0  0  0  0
    5.4090    5.7400   18.7870 N   0  0  0  0  0  0  0  0  0  0  0  0
    3.9550    6.5120   17.2380 O   0  0  0  0  0  0  0  0  0  0  0  0
    6.1550    6.0240   18.1640 H   0  0  0  0  0  0  0  0  0  0  0  0
    5.6090    4.9780   19.4190 H   0  0  0  0  0  0  0  0  0  0  0  0
  1  2  2  0  0  0  0
  1  6  1  0  0  0  0
  2  3  1  0  0  0  0
  3 11  1  0  0  0  0
  3  4  2  0  0  0  0
  4  9  1  0  0  0  0
  5  4  1  0  0  0  0
  5  7  1  0  0  0  0
  6  5  2  0  0  0  0
  7 13  1  6  0  0  0
  7  8  1  0  0  0  0
  8 14  1  0  0  0  0
  8 15  1  0  0  0  0
  9 17  1  0  0  0  0
  9  8  1  0  0  0  0
  9 16  1  0  0  0  0
 10  2  1  0  0  0  0
 12  6  1  0  0  0  0
 18 24  1  0  0  0  0
 18 28  1  0  0  0  0
 19 18  2  0  0  0  0
 20 22  2  0  0  0  0
 20 19  1  0  0  0  0
 21 20  1  0  0  0  0
 22 23  1  0  0  0  0
 23 27  1  0  0  0  0
 23 24  2  0  0  0  0
 24  1  1  0  0  0  0
 25 19  1  0  0  0  0
 26 22  1  0  0  0  0
 28 29  1  0  0  0  0
 28 30  1  0  0  0  0
 31 28  1  0  0  0  0
 32  7  1  0  0  0  0
 32 36  1  0  0  0  0
 33 32  1  0  0  0  0
 34 33  2  0  0  0  0
 35 33  1  0  0  0  0
 35 37  1  0  0  0  0
 38 41  1  0  0  0  0
 38 40  1  0  0  0  0
 38 35  1  0  0  0  0
 39 38  1  0  0  0  0
 41 42  1  0  0  0  0
 42 48  1  0  0  0  0
 43 42  2  0  0  0  0
 43 49  1  0  0  0  0
 44 43  1  0  0  0  0
 45 44  1  0  0  0  0
 46 47  1  0  0  0  0
 46 44  2  0  0  0  0
 47 41  2  0  0  0  0
 50 46  1  0  0  0  0
 51 52  1  0  0  0  0
 51 47  1  0  0  0  0
 52 55  1  0  0  0  0
 53 51  2  0  0  0  0
 54 52  1  0  0  0  0
M  END
>  <MODEL>
19

>  <REMARK>
 VINA RESULT:    -6.907      3.038      9.161
 INTER + INTRA:         -10.347
 INTER:                 -10.188
 INTRA:                  -0.159
 UNBOUND:                -1.219
  Name = 
  6 active torsions:
  status: ('A' for Active; 'I' for Inactive)
    1  A    between atoms: C_1  and  C_2
    2  A    between atoms: C_8  and  C_9
    3  A    between atoms: C_15  and  N_16
    4  A    between atoms: N_19  and  C_20
    5  A    between atoms: C_20  and  C_21
    6  A    between atoms: C_27  and  C_28
                            x       y       z     vdW  Elec       q    Type
                         _______ _______ _______ _____ _____    ______ ____

>  <TORSDO>
F 6

$$$$
=
 OpenBabel07192307433D

 55 58  0  0  1  0  0  0  0  0999 V2000
    4.5750    5.0690   17.2560 C   0  0  0  0  0  0  0  0  0  0  0  0
    4.6490    4.1080   18.2880 C   0  0  0  0  0  0  0  0  0  0  0  0
    3.8550    4.2060   19.4360 C   0  0  0  0  0  0  0  0  0  0  0  0
    3.0020    5.2890   19.5570 C   0  0  0  0  0  0  0  0  0  0  0  0
    2.9180    6.2550   18.5510 C   0  0  0  0  0  0  0  0  0  0  0  0
    3.6870    6.1470   17.4000 C   0  0  0  0  0  0  0  0  0  0  0  0
    1.8950    7.3050   18.9000 C   0  0  1  0  0  0  0  0  0  0  0  0
    1.7510    7.0730   20.4170 C   0  0  0  0  0  0  0  0  0  0  0  0
    2.0380    5.5860   20.6630 C   0  0  0  0  0  0  0  0  0  0  0  0
    5.3240    3.2600   18.1850 H   0  0  0  0  0  0  0  0  0  0  0  0
    3.9120    3.4460   20.2100 H   0  0  0  0  0  0  0  0  0  0  0  0
    3.5940    6.8870   16.6100 H   0  0  0  0  0  0  0  0  0  0  0  0
    0.9530    7.0890   18.3830 H   0  0  0  0  0  0  0  0  0  0  0  0
    2.4910    7.6740   20.9680 H   0  0  0  0  0  0  0  0  0  0  0  0
    0.7650    7.3720   20.7900 H   0  0  0  0  0  0  0  0  0  0  0  0
    2.4750    5.4220   21.6530 H   0  0  0  0  0  0  0  0  0  0  0  0
    1.1330    4.9820   20.5480 H   0  0  0  0  0  0  0  0  0  0  0  0
    6.7010    5.5660   15.9660 C   0  0  0  0  0  0  0  0  0  0  0  0
    7.4730    5.3800   14.8060 C   0  0  0  0  0  0  0  0  0  0  0  0
    6.9810    4.6260   13.7480 C   0  0  0  0  0  0  0  0  0  0  0  0
    7.7280    4.4650   12.6490 F   0  0  0  0  0  0  0  0  0  0  0  0
    5.7280    4.0370   13.8140 C   0  0  0  0  0  0  0  0  0  0  0  0
    4.9560    4.2000   14.9640 C   0  0  0  0  0  0  0  0  0  0  0  0
    5.4260    4.9570   16.0580 C   0  0  0  0  0  0  0  0  0  0  0  0
    8.4620    5.8220   14.7170 H   0  0  0  0  0  0  0  0  0  0  0  0
    5.3630    3.4520   12.9780 H   0  0  0  0  0  0  0  0  0  0  0  0
    3.9790    3.7230   15.0140 H   0  0  0  0  0  0  0  0  0  0  0  0
    7.2760    6.3870   17.0900 C   0  0  0  0  0  0  0  0  0  0  0  0
    6.5080    6.5950   17.8420 H   0  0  0  0  0  0  0  0  0  0  0  0
    7.6900    7.3280   16.7140 H   0  0  0  0  0  0  0  0  0  0  0  0
    8.0990    5.8580   17.5850 H   0  0  0  0  0  0  0  0  0  0  0  0
    2.3580    8.6470   18.6100 N   0  0  0  0  0  0  0  0  0  0  0  0
    1.4800    9.7000   18.7150 C   0  0  0  0  0  0  0  0  0  0  0  0
    0.3740    9.6340   19.2290 O   0  0  0  0  0  0  0  0  0  0  0  0
    1.9980   10.8230   18.1160 N   0  0  0  0  0  0  0  0  0  0  0  0
    2.9720    8.7200   17.8140 H   0  0  0  0  0  0  0  0  0  0  0  0
    2.9860   10.9390   18.2850 H   0  0  0  0  0  0  0  0  0  0  0  0
    1.2100   12.0410   18.0720 C   0  0  0  0  0  0  0  0  0  0  0  0
    1.4640   12.5620   17.1430 H   0  0  0  0  0  0  0  0  0  0  0  0
    0.1610   11.7310   18.0360 H   0  0  0  0  0  0  0  0  0  0  0  0
    1.4070   12.9490   19.2710 C   0  0  0  0  0  0  0  0  0  0  0  0
    0.5190   12.9100   20.3660 C   0  0  0  0  0  0  0  0  0  0  0  0
    0.7420   13.6910   21.5020 C   0  0  0  0  0  0  0  0  0  0  0  0
    1.8460   14.5270   21.5560 C   0  0  0  0  0  0  0  0  0  0  0  0
    2.0600   15.2670   22.6500 F   0  0  0  0  0  0  0  0  0  0  0  0
    2.7200   14.6220   20.4830 C   0  0  0  0  0  0  0  0  0  0  0  0
    2.4880   13.8560   19.3330 C   0  0  0  0  0  0  0  0  0  0  0  0
   -0.3430   12.2470   20.3570 H   0  0  0  0  0  0  0  0  0  0  0  0
    0.0680   13.6360   22.3520 H   0  0  0  0  0  0  0  0  0  0  0  0
    3.5720   15.2940   20.5430 H   0  0  0  0  0  0  0  0  0  0  0  0
    3.4300   14.0670   18.2080 C   0  0  0  0  0  0  0  0  0  0  0  0
    3.1370   15.0950   17.3570 N   0  0  0  0  0  0  0  0  0  0  0  0
    4.4620   13.4210   18.0960 O   0  0  0  0  0  0  0  0  0  0  0  0
    3.8790   15.3380   16.7120 H   0  0  0  0  0  0  0  0  0  0  0  0
    2.5190   15.8420   17.6430 H   0  0  0  0  0  0  0  0  0  0  0  0
  1  6  2  0  0  0  0
  1  2  1  0  0  0  0
  2  3  2  0  0  0  0
  3  4  1  0  0  0  0
  3 11  1  0  0  0  0
  4  9  1  0  0  0  0
  5  7  1  0  0  0  0
  5  4  2  0  0  0  0
  6  5  1  0  0  0  0
  7 13  1  6  0  0  0
  7  8  1  0  0  0  0
  8  9  1  0  0  0  0
  8 15  1  0  0  0  0
  8 14  1  0  0  0  0
  9 16  1  0  0  0  0
 10  2  1  0  0  0  0
 12  6  1  0  0  0  0
 17  9  1  0  0  0  0
 18 24  1  0  0  0  0
 18 28  1  0  0  0  0
 19 18  2  0  0  0  0
 20 22  2  0  0  0  0
 20 19  1  0  0  0  0
 21 20  1  0  0  0  0
 22 23  1  0  0  0  0
 23 27  1  0  0  0  0
 23 24  2  0  0  0  0
 24  1  1  0  0  0  0
 25 19  1  0  0  0  0
 26 22  1  0  0  0  0
 28 31  1  0  0  0  0
 28 29  1  0  0  0  0
 30 28  1  0  0  0  0
 32 33  1  0  0  0  0
 32  7  1  0  0  0  0
 33 34  2  0  0  0  0
 35 37  1  0  0  0  0
 35 33  1  0  0  0  0
 36 32  1  0  0  0  0
 38 35  1  0  0  0  0
 38 41  1  0  0  0  0
 39 38  1  0  0  0  0
 40 38  1  0  0  0  0
 41 47  2  0  0  0  0
 41 42  1  0  0  0  0
 42 43  2  0  0  0  0
 43 44  1  0  0  0  0
 43 49  1  0  0  0  0
 44 45  1  0  0  0  0
 46 50  1  0  0  0  0
 46 44  2  0  0  0  0
 47 46  1  0  0  0  0
 48 42  1  0  0  0  0
 51 47  1  0  0  0  0
 52 55  1  0  0  0  0
 52 51  1  0  0  0  0
 53 51  2  0  0  0  0
 54 52  1  0  0  0  0
M  END
>  <MODEL>
20

>  <REMARK>
 VINA RESULT:    -6.850      3.295      3.802
 INTER + INTRA:         -10.271
 INTER:                  -9.249
 INTRA:                  -1.022
 UNBOUND:                -1.219
  Name = 
  6 active torsions:
  status: ('A' for Active; 'I' for Inactive)
    1  A    between atoms: C_1  and  C_2
    2  A    between atoms: C_8  and  C_9
    3  A    between atoms: C_15  and  N_16
    4  A    between atoms: N_19  and  C_20
    5  A    between atoms: C_20  and  C_21
    6  A    between atoms: C_27  and  C_28
                            x       y       z     vdW  Elec       q    Type
                         _______ _______ _______ _____ _____    ______ ____

>  <TORSDO>
F 6

$$$$
=
 OpenBabel07192307433D

 55 58  0  0  1  0  0  0  0  0999 V2000
    3.0970   14.2070   18.8460 C   0  0  0  0  0  0  0  0  0  0  0  0
    2.1380   15.2370   18.7250 C   0  0  0  0  0  0  0  0  0  0  0  0
    0.7700   14.9540   18.6410 C   0  0  0  0  0  0  0  0  0  0  0  0
    0.3670   13.6310   18.6530 C   0  0  0  0  0  0  0  0  0  0  0  0
    1.3000   12.5960   18.7650 C   0  0  0  0  0  0  0  0  0  0  0  0
    2.6560   12.8740   18.8740 C   0  0  0  0  0  0  0  0  0  0  0  0
    0.6130   11.2550   18.7950 C   0  0  1  0  0  0  0  0  0  0  0  0
   -0.7690   11.6270   18.2220 C   0  0  0  0  0  0  0  0  0  0  0  0
   -1.0270   13.0890   18.6140 C   0  0  0  0  0  0  0  0  0  0  0  0
    2.4630   16.2760   18.7150 H   0  0  0  0  0  0  0  0  0  0  0  0
    0.0460   15.7610   18.5680 H   0  0  0  0  0  0  0  0  0  0  0  0
    3.3720   12.0650   18.9890 H   0  0  0  0  0  0  0  0  0  0  0  0
    0.5230   10.9090   19.8320 H   0  0  0  0  0  0  0  0  0  0  0  0
   -0.7610   11.5490   17.1250 H   0  0  0  0  0  0  0  0  0  0  0  0
   -1.5580   10.9570   18.5780 H   0  0  0  0  0  0  0  0  0  0  0  0
   -1.6520   13.5970   17.8730 H   0  0  0  0  0  0  0  0  0  0  0  0
   -1.4880   13.1590   19.6050 H   0  0  0  0  0  0  0  0  0  0  0  0
    5.1500   14.9990   20.1040 C   0  0  0  0  0  0  0  0  0  0  0  0
    6.5360   15.2370   20.1130 C   0  0  0  0  0  0  0  0  0  0  0  0
    7.2920   15.0290   18.9670 C   0  0  0  0  0  0  0  0  0  0  0  0
    8.6090   15.2670   18.9920 F   0  0  0  0  0  0  0  0  0  0  0  0
    6.7030   14.5770   17.7970 C   0  0  0  0  0  0  0  0  0  0  0  0
    5.3320   14.3230   17.7760 C   0  0  0  0  0  0  0  0  0  0  0  0
    4.5340   14.5210   18.9230 C   0  0  0  0  0  0  0  0  0  0  0  0
    7.0370   15.5880   21.0110 H   0  0  0  0  0  0  0  0  0  0  0  0
    7.3110   14.4190   16.9120 H   0  0  0  0  0  0  0  0  0  0  0  0
    4.8780   13.9540   16.8570 H   0  0  0  0  0  0  0  0  0  0  0  0
    4.3720   15.2350   21.3710 C   0  0  0  0  0  0  0  0  0  0  0  0
    4.9470   15.8580   22.0620 H   0  0  0  0  0  0  0  0  0  0  0  0
    4.1170   14.2860   21.8550 H   0  0  0  0  0  0  0  0  0  0  0  0
    3.4240   15.7460   21.1640 H   0  0  0  0  0  0  0  0  0  0  0  0
    1.2820   10.2710   17.9690 N   0  0  0  0  0  0  0  0  0  0  0  0
    1.3200    8.9600   18.3790 C   0  0  0  0  0  0  0  0  0  0  0  0
    0.6610    8.5000   19.2990 O   0  0  0  0  0  0  0  0  0  0  0  0
    2.2400    8.2500   17.6460 N   0  0  0  0  0  0  0  0  0  0  0  0
    2.1480   10.5840   17.5560 H   0  0  0  0  0  0  0  0  0  0  0  0
    2.2410    8.4980   16.6690 H   0  0  0  0  0  0  0  0  0  0  0  0
    2.4730    6.8500   17.9500 C   0  0  0  0  0  0  0  0  0  0  0  0
    1.9590    6.6290   18.8900 H   0  0  0  0  0  0  0  0  0  0  0  0
    2.0100    6.2760   17.1410 H   0  0  0  0  0  0  0  0  0  0  0  0
    3.9400    6.4710   18.0350 C   0  0  0  0  0  0  0  0  0  0  0  0
    4.9060    7.1230   17.2420 C   0  0  0  0  0  0  0  0  0  0  0  0
    6.2650    6.8280   17.3740 C   0  0  0  0  0  0  0  0  0  0  0  0
    6.6750    5.8730   18.2910 C   0  0  0  0  0  0  0  0  0  0  0  0
    7.9780    5.6000   18.4210 F   0  0  0  0  0  0  0  0  0  0  0  0
    5.7510    5.1820   19.0610 C   0  0  0  0  0  0  0  0  0  0  0  0
    4.3850    5.4600   18.9160 C   0  0  0  0  0  0  0  0  0  0  0  0
    4.6130    7.8920   16.5300 H   0  0  0  0  0  0  0  0  0  0  0  0
    7.0060    7.3540   16.7790 H   0  0  0  0  0  0  0  0  0  0  0  0
    6.0950    4.4280   19.7640 H   0  0  0  0  0  0  0  0  0  0  0  0
    3.4610    4.6310   19.7250 C   0  0  0  0  0  0  0  0  0  0  0  0
    2.9180    5.2280   20.8280 N   0  0  0  0  0  0  0  0  0  0  0  0
    3.1290    3.5060   19.3800 O   0  0  0  0  0  0  0  0  0  0  0  0
    2.1580    4.7150   21.2580 H   0  0  0  0  0  0  0  0  0  0  0  0
    2.8930    6.2350   20.9100 H   0  0  0  0  0  0  0  0  0  0  0  0
  1  6  1  0  0  0  0
  1 24  1  0  0  0  0
  2  1  2  0  0  0  0
  3  4  2  0  0  0  0
  3  2  1  0  0  0  0
  4  5  1  0  0  0  0
  5  7  1  0  0  0  0
  5  6  2  0  0  0  0
  6 12  1  0  0  0  0
  7 13  1  1  0  0  0
  8 15  1  0  0  0  0
  8  9  1  0  0  0  0
  8  7  1  0  0  0  0
  9  4  1  0  0  0  0
  9 17  1  0  0  0  0
 10  2  1  0  0  0  0
 11  3  1  0  0  0  0
 14  8  1  0  0  0  0
 16  9  1  0  0  0  0
 18 19  1  0  0  0  0
 18 28  1  0  0  0  0
 19 25  1  0  0  0  0
 20 21  1  0  0  0  0
 20 19  2  0  0  0  0
 22 20  1  0  0  0  0
 23 22  2  0  0  0  0
 23 24  1  0  0  0  0
 24 18  2  0  0  0  0
 26 22  1  0  0  0  0
 27 23  1  0  0  0  0
 28 30  1  0  0  0  0
 28 29  1  0  0  0  0
 31 28  1  0  0  0  0
 32 33  1  0  0  0  0
 32  7  1  0  0  0  0
 33 34  2  0  0  0  0
 35 38  1  0  0  0  0
 35 33  1  0  0  0  0
 36 32  1  0  0  0  0
 37 35  1  0  0  0  0
 38 41  1  0  0  0  0
 38 39  1  0  0  0  0
 40 38  1  0  0  0  0
 41 47  1  0  0  0  0
 42 43  1  0  0  0  0
 42 41  2  0  0  0  0
 43 44  2  0  0  0  0
 44 45  1  0  0  0  0
 44 46  1  0  0  0  0
 46 50  1  0  0  0  0
 47 46  2  0  0  0  0
 47 51  1  0  0  0  0
 48 42  1  0  0  0  0
 49 43  1  0  0  0  0
 51 52  1  0  0  0  0
 52 55  1  0  0  0  0
 52 54  1  0  0  0  0
 53 51  2  0  0  0  0
M  END
>  <MODEL>
21

>  <REMARK>
 VINA RESULT:    -6.820      4.735      9.274
 INTER + INTRA:         -10.232
 INTER:                  -9.250
 INTRA:                  -0.982
 UNBOUND:                -1.219
  Name = 
  6 active torsions:
  status: ('A' for Active; 'I' for Inactive)
    1  A    between atoms: C_1  and  C_2
    2  A    between atoms: C_8  and  C_9
    3  A    between atoms: C_15  and  N_16
    4  A    between atoms: N_19  and  C_20
    5  A    between atoms: C_20  and  C_21
    6  A    between atoms: C_27  and  C_28
                            x       y       z     vdW  Elec       q    Type
                         _______ _______ _______ _____ _____    ______ ____

>  <TORSDO>
F 6

$$$$
=
 OpenBabel07192307433D

 55 58  0  0  1  0  0  0  0  0999 V2000
   -2.5650   11.2540   18.5580 C   0  0  0  0  0  0  0  0  0  0  0  0
   -3.2280   12.2830   19.2620 C   0  0  0  0  0  0  0  0  0  0  0  0
   -2.8630   12.6280   20.5680 C   0  0  0  0  0  0  0  0  0  0  0  0
   -1.8440   11.9180   21.1770 C   0  0  0  0  0  0  0  0  0  0  0  0
   -1.1780   10.8920   20.5010 C   0  0  0  0  0  0  0  0  0  0  0  0
   -1.5220   10.5640   19.1960 C   0  0  0  0  0  0  0  0  0  0  0  0
   -0.0880   10.3030   21.3600 C   0  0  1  0  0  0  0  0  0  0  0  0
   -0.5220   10.7970   22.7540 C   0  0  0  0  0  0  0  0  0  0  0  0
   -1.2580   12.1270   22.5380 C   0  0  0  0  0  0  0  0  0  0  0  0
   -4.0310   12.8360   18.7760 H   0  0  0  0  0  0  0  0  0  0  0  0
   -3.3720   13.4350   21.0860 H   0  0  0  0  0  0  0  0  0  0  0  0
   -0.9800    9.7840   18.6680 H   0  0  0  0  0  0  0  0  0  0  0  0
    0.8780   10.7350   21.0770 H   0  0  0  0  0  0  0  0  0  0  0  0
   -1.2140   10.0780   23.2160 H   0  0  0  0  0  0  0  0  0  0  0  0
    0.3270   10.9000   23.4380 H   0  0  0  0  0  0  0  0  0  0  0  0
   -2.0240   12.2870   23.3030 H   0  0  0  0  0  0  0  0  0  0  0  0
   -0.5600   12.9700   22.5240 H   0  0  0  0  0  0  0  0  0  0  0  0
   -4.1770   11.3480   16.6030 C   0  0  0  0  0  0  0  0  0  0  0  0
   -4.4750   10.9990   15.2750 C   0  0  0  0  0  0  0  0  0  0  0  0
   -3.6050   10.1970   14.5460 C   0  0  0  0  0  0  0  0  0  0  0  0
   -3.9090    9.8700   13.2850 F   0  0  0  0  0  0  0  0  0  0  0  0
   -2.4270    9.7320   15.1080 C   0  0  0  0  0  0  0  0  0  0  0  0
   -2.1100   10.0810   16.4200 C   0  0  0  0  0  0  0  0  0  0  0  0
   -2.9690   10.8960   17.1870 C   0  0  0  0  0  0  0  0  0  0  0  0
   -5.3870   11.3470   14.7970 H   0  0  0  0  0  0  0  0  0  0  0  0
   -1.7600    9.1080   14.5230 H   0  0  0  0  0  0  0  0  0  0  0  0
   -1.1750    9.7240   16.8500 H   0  0  0  0  0  0  0  0  0  0  0  0
   -5.1470   12.2230   17.3530 C   0  0  0  0  0  0  0  0  0  0  0  0
   -5.6720   11.6420   18.1170 H   0  0  0  0  0  0  0  0  0  0  0  0
   -5.8730   12.6760   16.6690 H   0  0  0  0  0  0  0  0  0  0  0  0
   -4.6290   13.0500   17.8530 H   0  0  0  0  0  0  0  0  0  0  0  0
   -0.0550    8.8550   21.2970 N   0  0  0  0  0  0  0  0  0  0  0  0
    1.1390    8.2000   21.4800 C   0  0  0  0  0  0  0  0  0  0  0  0
    2.1630    8.7230   21.8920 O   0  0  0  0  0  0  0  0  0  0  0  0
    1.0360    6.8880   21.0860 N   0  0  0  0  0  0  0  0  0  0  0  0
   -0.6230    8.4510   20.5690 H   0  0  0  0  0  0  0  0  0  0  0  0
    0.1570    6.4670   21.3450 H   0  0  0  0  0  0  0  0  0  0  0  0
    2.2020    6.0250   21.1510 C   0  0  0  0  0  0  0  0  0  0  0  0
    3.0070    6.5990   21.6220 H   0  0  0  0  0  0  0  0  0  0  0  0
    1.9300    5.1860   21.8000 H   0  0  0  0  0  0  0  0  0  0  0  0
    2.6430    5.4770   19.8070 C   0  0  0  0  0  0  0  0  0  0  0  0
    3.2250    6.3170   18.8350 C   0  0  0  0  0  0  0  0  0  0  0  0
    3.7000    5.8000   17.6280 C   0  0  0  0  0  0  0  0  0  0  0  0
    3.5910    4.4420   17.3720 C   0  0  0  0  0  0  0  0  0  0  0  0
    4.0560    3.9490   16.2180 F   0  0  0  0  0  0  0  0  0  0  0  0
    2.9890    3.5900   18.2870 C   0  0  0  0  0  0  0  0  0  0  0  0
    2.4920    4.1090   19.4900 C   0  0  0  0  0  0  0  0  0  0  0  0
    3.3410    7.3830   19.0210 H   0  0  0  0  0  0  0  0  0  0  0  0
    4.1710    6.4490   16.8950 H   0  0  0  0  0  0  0  0  0  0  0  0
    2.9040    2.5310   18.0580 H   0  0  0  0  0  0  0  0  0  0  0  0
    1.8040    3.1450   20.3800 C   0  0  0  0  0  0  0  0  0  0  0  0
    0.4670    2.9630   20.1600 N   0  0  0  0  0  0  0  0  0  0  0  0
    2.4110    2.4780   21.2060 O   0  0  0  0  0  0  0  0  0  0  0  0
    0.0590    2.1760   20.6480 H   0  0  0  0  0  0  0  0  0  0  0  0
    0.0510    3.2160   19.2740 H   0  0  0  0  0  0  0  0  0  0  0  0
  1  6  2  0  0  0  0
  1  2  1  0  0  0  0
  2  3  2  0  0  0  0
  3 11  1  0  0  0  0
  3  4  1  0  0  0  0
  4  9  1  0  0  0  0
  5  4  2  0  0  0  0
  5  7  1  0  0  0  0
  6  5  1  0  0  0  0
  7 13  1  6  0  0  0
  7  8  1  0  0  0  0
  8 14  1  0  0  0  0
  8 15  1  0  0  0  0
  9  8  1  0  0  0  0
  9 16  1  0  0  0  0
 10  2  1  0  0  0  0
 12  6  1  0  0  0  0
 17  9  1  0  0  0  0
 18 24  1  0  0  0  0
 18 28  1  0  0  0  0
 19 18  2  0  0  0  0
 20 22  2  0  0  0  0
 20 19  1  0  0  0  0
 21 20  1  0  0  0  0
 22 23  1  0  0  0  0
 23 27  1  0  0  0  0
 23 24  2  0  0  0  0
 24  1  1  0  0  0  0
 25 19  1  0  0  0  0
 26 22  1  0  0  0  0
 28 31  1  0  0  0  0
 28 29  1  0  0  0  0
 30 28  1  0  0  0  0
 32  7  1  0  0  0  0
 32 33  1  0  0  0  0
 33 34  2  0  0  0  0
 35 38  1  0  0  0  0
 35 37  1  0  0  0  0
 35 33  1  0  0  0  0
 36 32  1  0  0  0  0
 38 39  1  0  0  0  0
 38 40  1  0  0  0  0
 41 38  1  0  0  0  0
 42 48  1  0  0  0  0
 42 41  2  0  0  0  0
 43 42  1  0  0  0  0
 44 43  2  0  0  0  0
 44 46  1  0  0  0  0
 45 44  1  0  0  0  0
 46 47  2  0  0  0  0
 47 41  1  0  0  0  0
 47 51  1  0  0  0  0
 49 43  1  0  0  0  0
 50 46  1  0  0  0  0
 51 53  2  0  0  0  0
 52 51  1  0  0  0  0
 52 54  1  0  0  0  0
 55 52  1  0  0  0  0
M  END
>  <MODEL>
22

>  <REMARK>
 VINA RESULT:    -6.800      2.687      9.153
 INTER + INTRA:         -10.205
 INTER:                  -9.951
 INTRA:                  -0.254
 UNBOUND:                -1.219
  Name = 
  6 active torsions:
  status: ('A' for Active; 'I' for Inactive)
    1  A    between atoms: C_1  and  C_2
    2  A    between atoms: C_8  and  C_9
    3  A    between atoms: C_15  and  N_16
    4  A    between atoms: N_19  and  C_20
    5  A    between atoms: C_20  and  C_21
    6  A    between atoms: C_27  and  C_28
                            x       y       z     vdW  Elec       q    Type
                         _______ _______ _______ _____ _____    ______ ____

>  <TORSDO>
F 6

$$$$
=
 OpenBabel07192307433D

 55 58  0  0  1  0  0  0  0  0999 V2000
    4.2410    3.5630   17.6230 C   0  0  0  0  0  0  0  0  0  0  0  0
    4.1770    2.1750   17.8770 C   0  0  0  0  0  0  0  0  0  0  0  0
    3.2780    1.6440   18.8090 C   0  0  0  0  0  0  0  0  0  0  0  0
    2.4580    2.5150   19.5050 C   0  0  0  0  0  0  0  0  0  0  0  0
    2.5100    3.8920   19.2730 C   0  0  0  0  0  0  0  0  0  0  0  0
    3.3840    4.4200   18.3310 C   0  0  0  0  0  0  0  0  0  0  0  0
    1.4970    4.6180   20.1220 C   0  0  1  0  0  0  0  0  0  0  0  0
    1.1960    3.5460   21.1880 C   0  0  0  0  0  0  0  0  0  0  0  0
    1.4020    2.1840   20.5120 C   0  0  0  0  0  0  0  0  0  0  0  0
    4.8260    1.4970   17.3270 H   0  0  0  0  0  0  0  0  0  0  0  0
    3.2290    0.5730   18.9770 H   0  0  0  0  0  0  0  0  0  0  0  0
    3.3980    5.4890   18.1370 H   0  0  0  0  0  0  0  0  0  0  0  0
    0.6040    4.8340   19.5260 H   0  0  0  0  0  0  0  0  0  0  0  0
    1.9000    3.6360   22.0300 H   0  0  0  0  0  0  0  0  0  0  0  0
    0.1900    3.6520   21.6090 H   0  0  0  0  0  0  0  0  0  0  0  0
    1.7320    1.4270   21.2300 H   0  0  0  0  0  0  0  0  0  0  0  0
    0.4900    1.8490   20.0070 H   0  0  0  0  0  0  0  0  0  0  0  0
    6.3740    4.7990   17.0320 C   0  0  0  0  0  0  0  0  0  0  0  0
    7.2650    5.2530   16.0430 C   0  0  0  0  0  0  0  0  0  0  0  0
    6.9860    5.0480   14.6980 C   0  0  0  0  0  0  0  0  0  0  0  0
    7.8420    5.4930   13.7710 F   0  0  0  0  0  0  0  0  0  0  0  0
    5.8330    4.3870   14.3030 C   0  0  0  0  0  0  0  0  0  0  0  0
    4.9470    3.9180   15.2710 C   0  0  0  0  0  0  0  0  0  0  0  0
    5.2010    4.1070   16.6470 C   0  0  0  0  0  0  0  0  0  0  0  0
    8.1810    5.7720   16.3130 H   0  0  0  0  0  0  0  0  0  0  0  0
    5.6340    4.2360   13.2470 H   0  0  0  0  0  0  0  0  0  0  0  0
    4.0510    3.3880   14.9540 H   0  0  0  0  0  0  0  0  0  0  0  0
    6.7200    5.0400   18.4780 C   0  0  0  0  0  0  0  0  0  0  0  0
    5.9070    5.5710   18.9810 H   0  0  0  0  0  0  0  0  0  0  0  0
    7.6480    5.6150   18.5670 H   0  0  0  0  0  0  0  0  0  0  0  0
    6.8850    4.0950   19.0080 H   0  0  0  0  0  0  0  0  0  0  0  0
    2.0370    5.8230   20.7190 N   0  0  0  0  0  0  0  0  0  0  0  0
    1.4870    7.0400   20.3930 C   0  0  0  0  0  0  0  0  0  0  0  0
    0.4380    7.1890   19.7850 O   0  0  0  0  0  0  0  0  0  0  0  0
    2.3060    8.0650   20.8000 N   0  0  0  0  0  0  0  0  0  0  0  0
    3.0420    5.8470   20.7890 H   0  0  0  0  0  0  0  0  0  0  0  0
    2.7260    7.8990   21.7020 H   0  0  0  0  0  0  0  0  0  0  0  0
    1.9350    9.4380   20.5120 C   0  0  0  0  0  0  0  0  0  0  0  0
    2.8220   10.0580   20.6760 H   0  0  0  0  0  0  0  0  0  0  0  0
    1.6630    9.4700   19.4520 H   0  0  0  0  0  0  0  0  0  0  0  0
    0.7620    9.9470   21.3290 C   0  0  0  0  0  0  0  0  0  0  0  0
    0.5080    9.4500   22.6240 C   0  0  0  0  0  0  0  0  0  0  0  0
   -0.5250    9.9710   23.4060 C   0  0  0  0  0  0  0  0  0  0  0  0
   -1.3230   10.9870   22.9020 C   0  0  0  0  0  0  0  0  0  0  0  0
   -2.3060   11.4890   23.6590 F   0  0  0  0  0  0  0  0  0  0  0  0
   -1.1290   11.4740   21.6180 C   0  0  0  0  0  0  0  0  0  0  0  0
   -0.1070   10.9390   20.8230 C   0  0  0  0  0  0  0  0  0  0  0  0
    1.1340    8.6690   23.0510 H   0  0  0  0  0  0  0  0  0  0  0  0
   -0.6970    9.6020   24.4130 H   0  0  0  0  0  0  0  0  0  0  0  0
   -1.7760   12.2620   21.2410 H   0  0  0  0  0  0  0  0  0  0  0  0
   -0.0120   11.4670   19.4420 C   0  0  0  0  0  0  0  0  0  0  0  0
   -0.6750   10.7630   18.4760 N   0  0  0  0  0  0  0  0  0  0  0  0
    0.5500   12.5240   19.1890 O   0  0  0  0  0  0  0  0  0  0  0  0
   -0.7510   11.2340   17.5830 H   0  0  0  0  0  0  0  0  0  0  0  0
   -1.4220   10.1280   18.7220 H   0  0  0  0  0  0  0  0  0  0  0  0
  1  2  2  0  0  0  0
  1  6  1  0  0  0  0
  2  3  1  0  0  0  0
  3 11  1  0  0  0  0
  3  4  2  0  0  0  0
  4  9  1  0  0  0  0
  5  4  1  0  0  0  0
  5  7  1  0  0  0  0
  6  5  2  0  0  0  0
  7 13  1  6  0  0  0
  7 32  1  0  0  0  0
  7  8  1  0  0  0  0
  8 15  1  0  0  0  0
  8 14  1  0  0  0  0
  9  8  1  0  0  0  0
  9 16  1  0  0  0  0
 10  2  1  0  0  0  0
 12  6  1  0  0  0  0
 17  9  1  0  0  0  0
 18 28  1  0  0  0  0
 19 25  1  0  0  0  0
 19 18  2  0  0  0  0
 20 19  1  0  0  0  0
 21 20  1  0  0  0  0
 22 20  2  0  0  0  0
 22 23  1  0  0  0  0
 23 24  2  0  0  0  0
 24 18  1  0  0  0  0
 24  1  1  0  0  0  0
 26 22  1  0  0  0  0
 27 23  1  0  0  0  0
 28 30  1  0  0  0  0
 28 29  1  0  0  0  0
 28 31  1  0  0  0  0
 32 36  1  0  0  0  0
 33 32  1  0  0  0  0
 33 35  1  0  0  0  0
 34 33  2  0  0  0  0
 35 37  1  0  0  0  0
 38 39  1  0  0  0  0
 38 35  1  0  0  0  0
 38 41  1  0  0  0  0
 40 38  1  0  0  0  0
 41 42  1  0  0  0  0
 42 48  1  0  0  0  0
 42 43  2  0  0  0  0
 43 49  1  0  0  0  0
 44 43  1  0  0  0  0
 44 45  1  0  0  0  0
 46 44  2  0  0  0  0
 47 41  2  0  0  0  0
 47 46  1  0  0  0  0
 50 46  1  0  0  0  0
 51 47  1  0  0  0  0
 52 55  1  0  0  0  0
 52 51  1  0  0  0  0
 53 51  2  0  0  0  0
 54 52  1  0  0  0  0
M  END
>  <MODEL>
23

>  <REMARK>
 VINA RESULT:    -6.788      1.740      2.205
 INTER + INTRA:         -10.190
 INTER:                  -9.268
 INTRA:                  -0.922
 UNBOUND:                -1.219
  Name = 
  6 active torsions:
  status: ('A' for Active; 'I' for Inactive)
    1  A    between atoms: C_1  and  C_2
    2  A    between atoms: C_8  and  C_9
    3  A    between atoms: C_15  and  N_16
    4  A    between atoms: N_19  and  C_20
    5  A    between atoms: C_20  and  C_21
    6  A    between atoms: C_27  and  C_28
                            x       y       z     vdW  Elec       q    Type
                         _______ _______ _______ _____ _____    ______ ____

>  <TORSDO>
F 6

$$$$
=
 OpenBabel07192307433D

 55 58  0  0  1  0  0  0  0  0999 V2000
   -1.0290   12.2930   20.5850 C   0  0  0  0  0  0  0  0  0  0  0  0
   -0.5190   13.4500   19.9560 C   0  0  0  0  0  0  0  0  0  0  0  0
    0.4870   13.3720   18.9870 C   0  0  0  0  0  0  0  0  0  0  0  0
    0.9990   12.1280   18.6670 C   0  0  0  0  0  0  0  0  0  0  0  0
    0.5140   10.9700   19.2810 C   0  0  0  0  0  0  0  0  0  0  0  0
   -0.5020   11.0420   20.2260 C   0  0  0  0  0  0  0  0  0  0  0  0
    1.2020    9.7450   18.7360 C   0  0  1  0  0  0  0  0  0  0  0  0
    2.4470   10.3800   18.0870 C   0  0  0  0  0  0  0  0  0  0  0  0
    2.0400   11.7920   17.6450 C   0  0  0  0  0  0  0  0  0  0  0  0
   -0.9270   14.4260   20.2150 H   0  0  0  0  0  0  0  0  0  0  0  0
    0.8520   14.2720   18.5000 H   0  0  0  0  0  0  0  0  0  0  0  0
   -0.8920   10.1350   20.6780 H   0  0  0  0  0  0  0  0  0  0  0  0
    0.5670    9.2710   17.9780 H   0  0  0  0  0  0  0  0  0  0  0  0
    3.2640   10.4580   18.8200 H   0  0  0  0  0  0  0  0  0  0  0  0
    2.8310    9.7800   17.2540 H   0  0  0  0  0  0  0  0  0  0  0  0
    2.8910   12.4810   17.6740 H   0  0  0  0  0  0  0  0  0  0  0  0
    1.5980   11.7840   16.6440 H   0  0  0  0  0  0  0  0  0  0  0  0
   -3.4520   12.5320   21.2900 C   0  0  0  0  0  0  0  0  0  0  0  0
   -4.4030   12.5800   22.3240 C   0  0  0  0  0  0  0  0  0  0  0  0
   -4.0010   12.5160   23.6520 C   0  0  0  0  0  0  0  0  0  0  0  0
   -4.9200   12.5700   24.6240 F   0  0  0  0  0  0  0  0  0  0  0  0
   -2.6610   12.3980   23.9850 C   0  0  0  0  0  0  0  0  0  0  0  0
   -1.7070   12.3340   22.9710 C   0  0  0  0  0  0  0  0  0  0  0  0
   -2.0810   12.3930   21.6110 C   0  0  0  0  0  0  0  0  0  0  0  0
   -5.4640   12.6680   22.1040 H   0  0  0  0  0  0  0  0  0  0  0  0
   -2.3670   12.3480   25.0280 H   0  0  0  0  0  0  0  0  0  0  0  0
   -0.6570   12.2270   23.2400 H   0  0  0  0  0  0  0  0  0  0  0  0
   -3.9350   12.5990   19.8650 C   0  0  0  0  0  0  0  0  0  0  0  0
   -3.1400   12.9700   19.2100 H   0  0  0  0  0  0  0  0  0  0  0  0
   -4.8150   13.2460   19.7800 H   0  0  0  0  0  0  0  0  0  0  0  0
   -4.2370   11.6100   19.5020 H   0  0  0  0  0  0  0  0  0  0  0  0
    1.5670    8.8060   19.7770 N   0  0  0  0  0  0  0  0  0  0  0  0
    1.8950    7.5160   19.4360 C   0  0  0  0  0  0  0  0  0  0  0  0
    2.1000    7.1280   18.2960 O   0  0  0  0  0  0  0  0  0  0  0  0
    1.9090    6.7100   20.5490 N   0  0  0  0  0  0  0  0  0  0  0  0
    1.0110    8.8660   20.6160 H   0  0  0  0  0  0  0  0  0  0  0  0
    2.3100    7.1600   21.3570 H   0  0  0  0  0  0  0  0  0  0  0  0
    2.1870    5.2920   20.4050 C   0  0  0  0  0  0  0  0  0  0  0  0
    2.4130    4.9000   21.4020 H   0  0  0  0  0  0  0  0  0  0  0  0
    1.2640    4.8310   20.0370 H   0  0  0  0  0  0  0  0  0  0  0  0
    3.3080    4.9760   19.4330 C   0  0  0  0  0  0  0  0  0  0  0  0
    4.5830    5.5590   19.5820 C   0  0  0  0  0  0  0  0  0  0  0  0
    5.6370    5.2120   18.7330 C   0  0  0  0  0  0  0  0  0  0  0  0
    5.4290    4.2860   17.7220 C   0  0  0  0  0  0  0  0  0  0  0  0
    6.4440    3.9500   16.9170 F   0  0  0  0  0  0  0  0  0  0  0  0
    4.1790    3.7210   17.5210 C   0  0  0  0  0  0  0  0  0  0  0  0
    3.1130    4.0840   18.3560 C   0  0  0  0  0  0  0  0  0  0  0  0
    4.7790    6.2720   20.3810 H   0  0  0  0  0  0  0  0  0  0  0  0
    6.6240    5.6450   18.8700 H   0  0  0  0  0  0  0  0  0  0  0  0
    4.0360    3.0080   16.7130 H   0  0  0  0  0  0  0  0  0  0  0  0
    1.7970    3.4860   18.0300 C   0  0  0  0  0  0  0  0  0  0  0  0
    0.9870    4.2150   17.2050 N   0  0  0  0  0  0  0  0  0  0  0  0
    1.4850    2.3630   18.4010 O   0  0  0  0  0  0  0  0  0  0  0  0
    0.1810    3.7160   16.8500 H   0  0  0  0  0  0  0  0  0  0  0  0
    1.3710    4.9410   16.6160 H   0  0  0  0  0  0  0  0  0  0  0  0
  1 24  1  0  0  0  0
  2 10  1  0  0  0  0
  2  1  2  0  0  0  0
  3  2  1  0  0  0  0
  4  3  2  0  0  0  0
  4  5  1  0  0  0  0
  5  6  2  0  0  0  0
  6  1  1  0  0  0  0
  6 12  1  0  0  0  0
  7 13  1  6  0  0  0
  7  5  1  0  0  0  0
  7 32  1  0  0  0  0
  8  7  1  0  0  0  0
  8 14  1  0  0  0  0
  9 16  1  0  0  0  0
  9  8  1  0  0  0  0
  9  4  1  0  0  0  0
 11  3  1  0  0  0  0
 15  8  1  0  0  0  0
 17  9  1  0  0  0  0
 18 24  2  0  0  0  0
 18 19  1  0  0  0  0
 19 20  2  0  0  0  0
 20 22  1  0  0  0  0
 20 21  1  0  0  0  0
 22 26  1  0  0  0  0
 23 27  1  0  0  0  0
 23 22  2  0  0  0  0
 24 23  1  0  0  0  0
 25 19  1  0  0  0  0
 28 18  1  0  0  0  0
 29 28  1  0  0  0  0
 30 28  1  0  0  0  0
 31 28  1  0  0  0  0
 32 36  1  0  0  0  0
 33 32  1  0  0  0  0
 33 35  1  0  0  0  0
 34 33  2  0  0  0  0
 35 37  1  0  0  0  0
 38 35  1  0  0  0  0
 38 39  1  0  0  0  0
 40 38  1  0  0  0  0
 41 42  1  0  0  0  0
 41 38  1  0  0  0  0
 42 48  1  0  0  0  0
 43 49  1  0  0  0  0
 43 42  2  0  0  0  0
 44 43  1  0  0  0  0
 45 44  1  0  0  0  0
 46 44  2  0  0  0  0
 46 47  1  0  0  0  0
 47 41  2  0  0  0  0
 50 46  1  0  0  0  0
 51 47  1  0  0  0  0
 51 53  2  0  0  0  0
 52 51  1  0  0  0  0
 54 52  1  0  0  0  0
 55 52  1  0  0  0  0
M  END
>  <MODEL>
24

>  <REMARK>
 VINA RESULT:    -6.720      2.823     10.334
 INTER + INTRA:         -10.100
 INTER:                  -9.851
 INTRA:                  -0.249
 UNBOUND:                -1.219
  Name = 
  6 active torsions:
  status: ('A' for Active; 'I' for Inactive)
    1  A    between atoms: C_1  and  C_2
    2  A    between atoms: C_8  and  C_9
    3  A    between atoms: C_15  and  N_16
    4  A    between atoms: N_19  and  C_20
    5  A    between atoms: C_20  and  C_21
    6  A    between atoms: C_27  and  C_28
                            x       y       z     vdW  Elec       q    Type
                         _______ _______ _______ _____ _____    ______ ____

>  <TORSDO>
F 6

$$$$
=
 OpenBabel07192307433D

 55 58  0  0  1  0  0  0  0  0999 V2000
   -2.1810   11.0030   18.2910 C   0  0  0  0  0  0  0  0  0  0  0  0
   -2.8500   11.8390   19.2130 C   0  0  0  0  0  0  0  0  0  0  0  0
   -2.2930   12.1430   20.4600 C   0  0  0  0  0  0  0  0  0  0  0  0
   -1.0700   11.5860   20.7900 C   0  0  0  0  0  0  0  0  0  0  0  0
   -0.3940   10.7520   19.8950 C   0  0  0  0  0  0  0  0  0  0  0  0
   -0.9340   10.4670   18.6480 C   0  0  0  0  0  0  0  0  0  0  0  0
    0.9260   10.3070   20.4700 C   0  0  1  0  0  0  0  0  0  0  0  0
    0.7050   10.6080   21.9650 C   0  0  0  0  0  0  0  0  0  0  0  0
   -0.2660   11.7940   22.0350 C   0  0  0  0  0  0  0  0  0  0  0  0
   -3.8120   12.2720   18.9460 H   0  0  0  0  0  0  0  0  0  0  0  0
   -2.8130   12.8040   21.1470 H   0  0  0  0  0  0  0  0  0  0  0  0
   -0.3880    9.8400   17.9470 H   0  0  0  0  0  0  0  0  0  0  0  0
    1.7330   10.9280   20.0640 H   0  0  0  0  0  0  0  0  0  0  0  0
    0.2460    9.7420   22.4660 H   0  0  0  0  0  0  0  0  0  0  0  0
    1.6450   10.8110   22.4900 H   0  0  0  0  0  0  0  0  0  0  0  0
   -0.8810   11.7550   22.9400 H   0  0  0  0  0  0  0  0  0  0  0  0
    0.2680   12.7490   21.9860 H   0  0  0  0  0  0  0  0  0  0  0  0
   -4.0880   11.1060   16.6230 C   0  0  0  0  0  0  0  0  0  0  0  0
   -4.5830   10.7970   15.3440 C   0  0  0  0  0  0  0  0  0  0  0  0
   -3.8130   10.0620   14.4520 C   0  0  0  0  0  0  0  0  0  0  0  0
   -4.3040    9.7720   13.2400 F   0  0  0  0  0  0  0  0  0  0  0  0
   -2.5440    9.6250   14.7970 C   0  0  0  0  0  0  0  0  0  0  0  0
   -2.0330    9.9360   16.0570 C   0  0  0  0  0  0  0  0  0  0  0  0
   -2.7870   10.6830   16.9870 C   0  0  0  0  0  0  0  0  0  0  0  0
   -5.5710   11.1250   15.0340 H   0  0  0  0  0  0  0  0  0  0  0  0
   -1.9580    9.0530   14.0860 H   0  0  0  0  0  0  0  0  0  0  0  0
   -1.0300    9.6010   16.3160 H   0  0  0  0  0  0  0  0  0  0  0  0
   -4.9560   11.9100   17.5560 C   0  0  0  0  0  0  0  0  0  0  0  0
   -4.3970   12.7610   17.9580 H   0  0  0  0  0  0  0  0  0  0  0  0
   -5.3250   11.2880   18.3790 H   0  0  0  0  0  0  0  0  0  0  0  0
   -5.8390   12.3000   17.0370 H   0  0  0  0  0  0  0  0  0  0  0  0
    1.1820    8.8990   20.2440 N   0  0  0  0  0  0  0  0  0  0  0  0
    1.8790    8.5120   19.1250 C   0  0  0  0  0  0  0  0  0  0  0  0
    2.4860    9.2720   18.3860 O   0  0  0  0  0  0  0  0  0  0  0  0
    1.7570    7.1590   18.9220 N   0  0  0  0  0  0  0  0  0  0  0  0
    0.4090    8.2880   20.4620 H   0  0  0  0  0  0  0  0  0  0  0  0
    1.7950    6.6270   19.7790 H   0  0  0  0  0  0  0  0  0  0  0  0
    2.3800    6.5470   17.7630 C   0  0  0  0  0  0  0  0  0  0  0  0
    1.7900    5.6620   17.5030 H   0  0  0  0  0  0  0  0  0  0  0  0
    2.3110    7.2780   16.9510 H   0  0  0  0  0  0  0  0  0  0  0  0
    3.8390    6.1820   17.9650 C   0  0  0  0  0  0  0  0  0  0  0  0
    4.8570    6.8250   17.2300 C   0  0  0  0  0  0  0  0  0  0  0  0
    6.2040    6.5440   17.4690 C   0  0  0  0  0  0  0  0  0  0  0  0
    6.5520    5.6130   18.4360 C   0  0  0  0  0  0  0  0  0  0  0  0
    7.8440    5.3540   18.6670 F   0  0  0  0  0  0  0  0  0  0  0  0
    5.5780    4.9320   19.1510 C   0  0  0  0  0  0  0  0  0  0  0  0
    4.2250    5.1960   18.9000 C   0  0  0  0  0  0  0  0  0  0  0  0
    4.6120    7.5750   16.4810 H   0  0  0  0  0  0  0  0  0  0  0  0
    6.9840    7.0620   16.9180 H   0  0  0  0  0  0  0  0  0  0  0  0
    5.8740    4.1980   19.8950 H   0  0  0  0  0  0  0  0  0  0  0  0
    3.2490    4.3770   19.6570 C   0  0  0  0  0  0  0  0  0  0  0  0
    3.0460    3.1030   19.2060 N   0  0  0  0  0  0  0  0  0  0  0  0
    2.7220    4.7810   20.6840 O   0  0  0  0  0  0  0  0  0  0  0  0
    2.5230    2.5070   19.8360 H   0  0  0  0  0  0  0  0  0  0  0  0
    3.7260    2.6520   18.6100 H   0  0  0  0  0  0  0  0  0  0  0  0
  1  6  2  0  0  0  0
  1  2  1  0  0  0  0
  2  3  2  0  0  0  0
  3  4  1  0  0  0  0
  3 11  1  0  0  0  0
  4  9  1  0  0  0  0
  5  7  1  0  0  0  0
  5  4  2  0  0  0  0
  6  5  1  0  0  0  0
  7 13  1  6  0  0  0
  7  8  1  0  0  0  0
  8  9  1  0  0  0  0
  8 14  1  0  0  0  0
  8 15  1  0  0  0  0
  9 16  1  0  0  0  0
 10  2  1  0  0  0  0
 12  6  1  0  0  0  0
 17  9  1  0  0  0  0
 18 24  1  0  0  0  0
 18 28  1  0  0  0  0
 19 18  2  0  0  0  0
 20 22  2  0  0  0  0
 20 19  1  0  0  0  0
 21 20  1  0  0  0  0
 22 23  1  0  0  0  0
 23 27  1  0  0  0  0
 23 24  2  0  0  0  0
 24  1  1  0  0  0  0
 25 19  1  0  0  0  0
 26 22  1  0  0  0  0
 28 29  1  0  0  0  0
 28 30  1  0  0  0  0
 31 28  1  0  0  0  0
 32 36  1  0  0  0  0
 32  7  1  0  0  0  0
 33 32  1  0  0  0  0
 34 33  2  0  0  0  0
 35 33  1  0  0  0  0
 35 37  1  0  0  0  0
 38 41  1  0  0  0  0
 38 35  1  0  0  0  0
 39 38  1  0  0  0  0
 40 38  1  0  0  0  0
 41 47  1  0  0  0  0
 42 43  1  0  0  0  0
 42 41  2  0  0  0  0
 43 44  2  0  0  0  0
 44 45  1  0  0  0  0
 44 46  1  0  0  0  0
 46 50  1  0  0  0  0
 47 46  2  0  0  0  0
 47 51  1  0  0  0  0
 48 42  1  0  0  0  0
 49 43  1  0  0  0  0
 51 53  2  0  0  0  0
 52 51  1  0  0  0  0
 52 54  1  0  0  0  0
 55 52  1  0  0  0  0
M  END
>  <MODEL>
25

>  <REMARK>
 VINA RESULT:    -6.555      2.822      9.173
 INTER + INTRA:          -9.882
 INTER:                  -9.631
 INTRA:                  -0.250
 UNBOUND:                -1.219
  Name = 
  6 active torsions:
  status: ('A' for Active; 'I' for Inactive)
    1  A    between atoms: C_1  and  C_2
    2  A    between atoms: C_8  and  C_9
    3  A    between atoms: C_15  and  N_16
    4  A    between atoms: N_19  and  C_20
    5  A    between atoms: C_20  and  C_21
    6  A    between atoms: C_27  and  C_28
                            x       y       z     vdW  Elec       q    Type
                         _______ _______ _______ _____ _____    ______ ____

>  <TORSDO>
F 6

$$$$
=
 OpenBabel07192307433D

 55 58  0  0  1  0  0  0  0  0999 V2000
   -0.8530   13.3480   21.0350 C   0  0  0  0  0  0  0  0  0  0  0  0
   -0.2610   14.6260   20.9370 C   0  0  0  0  0  0  0  0  0  0  0  0
    0.8050   14.8720   20.0650 C   0  0  0  0  0  0  0  0  0  0  0  0
    1.2930   13.8230   19.3070 C   0  0  0  0  0  0  0  0  0  0  0  0
    0.7260   12.5480   19.3930 C   0  0  0  0  0  0  0  0  0  0  0  0
   -0.3480   12.3070   20.2400 C   0  0  0  0  0  0  0  0  0  0  0  0
    1.4050   11.5930   18.4450 C   0  0  1  0  0  0  0  0  0  0  0  0
    2.7140   12.3560   18.1580 C   0  0  0  0  0  0  0  0  0  0  0  0
    2.3880   13.8500   18.2870 C   0  0  0  0  0  0  0  0  0  0  0  0
   -0.6500   15.4470   21.5380 H   0  0  0  0  0  0  0  0  0  0  0  0
    1.2340   15.8670   19.9890 H   0  0  0  0  0  0  0  0  0  0  0  0
   -0.8010   11.3200   20.2800 H   0  0  0  0  0  0  0  0  0  0  0  0
    0.8070   11.4910   17.5330 H   0  0  0  0  0  0  0  0  0  0  0  0
    3.4810   12.0930   18.9020 H   0  0  0  0  0  0  0  0  0  0  0  0
    3.1310   12.1060   17.1770 H   0  0  0  0  0  0  0  0  0  0  0  0
    3.2590   14.4210   18.6250 H   0  0  0  0  0  0  0  0  0  0  0  0
    2.0150   14.2590   17.3430 H   0  0  0  0  0  0  0  0  0  0  0  0
   -1.9690   12.0330   22.8930 C   0  0  0  0  0  0  0  0  0  0  0  0
   -3.0510   11.8860   23.7790 C   0  0  0  0  0  0  0  0  0  0  0  0
   -4.1220   12.7690   23.7310 C   0  0  0  0  0  0  0  0  0  0  0  0
   -5.1460   12.6100   24.5790 F   0  0  0  0  0  0  0  0  0  0  0  0
   -4.1460   13.8120   22.8190 C   0  0  0  0  0  0  0  0  0  0  0  0
   -3.0740   13.9790   21.9430 C   0  0  0  0  0  0  0  0  0  0  0  0
   -1.9680   13.1030   21.9660 C   0  0  0  0  0  0  0  0  0  0  0  0
   -3.0680   11.0840   24.5120 H   0  0  0  0  0  0  0  0  0  0  0  0
   -4.9920   14.4910   22.7980 H   0  0  0  0  0  0  0  0  0  0  0  0
   -3.0930   14.8090   21.2380 H   0  0  0  0  0  0  0  0  0  0  0  0
   -0.8270   11.0550   22.9850 C   0  0  0  0  0  0  0  0  0  0  0  0
   -1.0750   10.1280   22.4590 H   0  0  0  0  0  0  0  0  0  0  0  0
   -0.5840   10.8340   24.0300 H   0  0  0  0  0  0  0  0  0  0  0  0
    0.0830   11.4670   22.5330 H   0  0  0  0  0  0  0  0  0  0  0  0
    1.6650   10.3030   19.0510 N   0  0  0  0  0  0  0  0  0  0  0  0
    1.9430    9.2250   18.2450 C   0  0  0  0  0  0  0  0  0  0  0  0
    2.1880    9.2940   17.0510 O   0  0  0  0  0  0  0  0  0  0  0  0
    1.8550    8.0530   18.9580 N   0  0  0  0  0  0  0  0  0  0  0  0
    1.0680   10.0740   19.8300 H   0  0  0  0  0  0  0  0  0  0  0  0
    2.2360    8.1290   19.8890 H   0  0  0  0  0  0  0  0  0  0  0  0
    2.0670    6.7850   18.2840 C   0  0  0  0  0  0  0  0  0  0  0  0
    1.3860    6.0570   18.7360 H   0  0  0  0  0  0  0  0  0  0  0  0
    1.7850    6.9400   17.2370 H   0  0  0  0  0  0  0  0  0  0  0  0
    3.4990    6.2890   18.3330 C   0  0  0  0  0  0  0  0  0  0  0  0
    4.4920    6.8500   17.5040 C   0  0  0  0  0  0  0  0  0  0  0  0
    5.8260    6.4460   17.6030 C   0  0  0  0  0  0  0  0  0  0  0  0
    6.1820    5.4720   18.5220 C   0  0  0  0  0  0  0  0  0  0  0  0
    7.4630    5.0940   18.6190 F   0  0  0  0  0  0  0  0  0  0  0  0
    5.2280    4.8690   19.3270 C   0  0  0  0  0  0  0  0  0  0  0  0
    3.8860    5.2560   19.2160 C   0  0  0  0  0  0  0  0  0  0  0  0
    4.2420    7.6310   16.7900 H   0  0  0  0  0  0  0  0  0  0  0  0
    6.5890    6.9010   16.9790 H   0  0  0  0  0  0  0  0  0  0  0  0
    5.5290    4.0980   20.0320 H   0  0  0  0  0  0  0  0  0  0  0  0
    2.9210    4.5150   20.0630 C   0  0  0  0  0  0  0  0  0  0  0  0
    2.5300    5.1320   21.2190 N   0  0  0  0  0  0  0  0  0  0  0  0
    2.4300    3.4530   19.7090 O   0  0  0  0  0  0  0  0  0  0  0  0
    1.7420    4.6990   21.6850 H   0  0  0  0  0  0  0  0  0  0  0  0
    2.6350    6.1300   21.3320 H   0  0  0  0  0  0  0  0  0  0  0  0
  1 24  1  0  0  0  0
  2  1  1  0  0  0  0
  2 10  1  0  0  0  0
  3  2  2  0  0  0  0
  4  5  2  0  0  0  0
  4  3  1  0  0  0  0
  5  6  1  0  0  0  0
  6 12  1  0  0  0  0
  6  1  2  0  0  0  0
  7 13  1  6  0  0  0
  7 32  1  0  0  0  0
  7  5  1  0  0  0  0
  8  9  1  0  0  0  0
  8  7  1  0  0  0  0
  8 14  1  0  0  0  0
  9 16  1  0  0  0  0
  9  4  1  0  0  0  0
 11  3  1  0  0  0  0
 15  8  1  0  0  0  0
 17  9  1  0  0  0  0
 18 28  1  0  0  0  0
 18 19  1  0  0  0  0
 19 25  1  0  0  0  0
 20 19  2  0  0  0  0
 20 21  1  0  0  0  0
 22 20  1  0  0  0  0
 23 24  1  0  0  0  0
 23 22  2  0  0  0  0
 24 18  2  0  0  0  0
 26 22  1  0  0  0  0
 27 23  1  0  0  0  0
 28 30  1  0  0  0  0
 29 28  1  0  0  0  0
 31 28  1  0  0  0  0
 32 36  1  0  0  0  0
 33 35  1  0  0  0  0
 33 32  1  0  0  0  0
 34 33  2  0  0  0  0
 35 37  1  0  0  0  0
 38 41  1  0  0  0  0
 38 39  1  0  0  0  0
 38 35  1  0  0  0  0
 40 38  1  0  0  0  0
 41 47  1  0  0  0  0
 42 43  1  0  0  0  0
 42 41  2  0  0  0  0
 43 44  2  0  0  0  0
 44 45  1  0  0  0  0
 44 46  1  0  0  0  0
 46 50  1  0  0  0  0
 47 46  2  0  0  0  0
 47 51  1  0  0  0  0
 48 42  1  0  0  0  0
 49 43  1  0  0  0  0
 51 52  1  0  0  0  0
 52 55  1  0  0  0  0
 52 54  1  0  0  0  0
 53 51  2  0  0  0  0
M  END
>  <MODEL>
26

>  <REMARK>
 VINA RESULT:    -6.553      3.230     10.573
 INTER + INTRA:          -9.879
 INTER:                  -9.313
 INTRA:                  -0.566
 UNBOUND:                -1.219
  Name = 
  6 active torsions:
  status: ('A' for Active; 'I' for Inactive)
    1  A    between atoms: C_1  and  C_2
    2  A    between atoms: C_8  and  C_9
    3  A    between atoms: C_15  and  N_16
    4  A    between atoms: N_19  and  C_20
    5  A    between atoms: C_20  and  C_21
    6  A    between atoms: C_27  and  C_28
                            x       y       z     vdW  Elec       q    Type
                         _______ _______ _______ _____ _____    ______ ____

>  <TORSDO>
F 6

$$$$
=
 OpenBabel07192307433D

 55 58  0  0  1  0  0  0  0  0999 V2000
    1.5280   12.5130   20.5200 C   0  0  0  0  0  0  0  0  0  0  0  0
    0.4670   13.1640   21.1880 C   0  0  0  0  0  0  0  0  0  0  0  0
   -0.4390   12.4560   21.9850 C   0  0  0  0  0  0  0  0  0  0  0  0
   -0.2920   11.0840   22.0910 C   0  0  0  0  0  0  0  0  0  0  0  0
    0.7460   10.4190   21.4330 C   0  0  0  0  0  0  0  0  0  0  0  0
    1.6620   11.1230   20.6620 C   0  0  0  0  0  0  0  0  0  0  0  0
    0.7140    8.9430   21.7370 C   0  0  1  0  0  0  0  0  0  0  0  0
   -0.7270    8.7880   22.2610 C   0  0  0  0  0  0  0  0  0  0  0  0
   -1.1050   10.1290   22.9060 C   0  0  0  0  0  0  0  0  0  0  0  0
    0.3580   14.2440   21.0980 H   0  0  0  0  0  0  0  0  0  0  0  0
   -1.2360   12.9780   22.5060 H   0  0  0  0  0  0  0  0  0  0  0  0
    2.4830   10.6010   20.1770 H   0  0  0  0  0  0  0  0  0  0  0  0
    1.4410    8.7120   22.5240 H   0  0  0  0  0  0  0  0  0  0  0  0
   -1.4170    8.5870   21.4280 H   0  0  0  0  0  0  0  0  0  0  0  0
   -0.8250    7.9500   22.9590 H   0  0  0  0  0  0  0  0  0  0  0  0
   -2.1800   10.3210   22.8270 H   0  0  0  0  0  0  0  0  0  0  0  0
   -0.7940   10.1670   23.9550 H   0  0  0  0  0  0  0  0  0  0  0  0
    3.4650   14.1200   20.2140 C   0  0  0  0  0  0  0  0  0  0  0  0
    4.3520   14.7800   19.3460 C   0  0  0  0  0  0  0  0  0  0  0  0
    4.2370   14.6230   17.9710 C   0  0  0  0  0  0  0  0  0  0  0  0
    5.0870   15.2640   17.1600 F   0  0  0  0  0  0  0  0  0  0  0  0
    3.2550   13.8100   17.4260 C   0  0  0  0  0  0  0  0  0  0  0  0
    2.3770   13.1370   18.2740 C   0  0  0  0  0  0  0  0  0  0  0  0
    2.4670   13.2720   19.6760 C   0  0  0  0  0  0  0  0  0  0  0  0
    5.1380   15.4230   19.7340 H   0  0  0  0  0  0  0  0  0  0  0  0
    3.1830   13.6990   16.3500 H   0  0  0  0  0  0  0  0  0  0  0  0
    1.6170   12.4890   17.8400 H   0  0  0  0  0  0  0  0  0  0  0  0
    3.6300   14.3170   21.6980 C   0  0  0  0  0  0  0  0  0  0  0  0
    4.6060   13.9460   22.0250 H   0  0  0  0  0  0  0  0  0  0  0  0
    2.8360   13.8040   22.2510 H   0  0  0  0  0  0  0  0  0  0  0  0
    3.5640   15.3780   21.9660 H   0  0  0  0  0  0  0  0  0  0  0  0
    0.9410    8.1310   20.5580 N   0  0  0  0  0  0  0  0  0  0  0  0
    1.7200    7.0030   20.6570 C   0  0  0  0  0  0  0  0  0  0  0  0
    2.0900    6.5030   21.7080 O   0  0  0  0  0  0  0  0  0  0  0  0
    2.0700    6.5460   19.4090 N   0  0  0  0  0  0  0  0  0  0  0  0
    1.1000    8.6510   19.7100 H   0  0  0  0  0  0  0  0  0  0  0  0
    1.3180    6.6120   18.7410 H   0  0  0  0  0  0  0  0  0  0  0  0
    2.9350    5.3870   19.2860 C   0  0  0  0  0  0  0  0  0  0  0  0
    3.6140    5.3930   20.1450 H   0  0  0  0  0  0  0  0  0  0  0  0
    2.2850    4.5080   19.3450 H   0  0  0  0  0  0  0  0  0  0  0  0
    3.7120    5.3310   17.9840 C   0  0  0  0  0  0  0  0  0  0  0  0
    4.2430    6.5000   17.4030 C   0  0  0  0  0  0  0  0  0  0  0  0
    5.0220    6.4400   16.2450 C   0  0  0  0  0  0  0  0  0  0  0  0
    5.2720    5.2140   15.6480 C   0  0  0  0  0  0  0  0  0  0  0  0
    6.0260    5.1600   14.5440 F   0  0  0  0  0  0  0  0  0  0  0  0
    4.7340    4.0460   16.1680 C   0  0  0  0  0  0  0  0  0  0  0  0
    3.9340    4.1050   17.3170 C   0  0  0  0  0  0  0  0  0  0  0  0
    4.0790    7.4720   17.8640 H   0  0  0  0  0  0  0  0  0  0  0  0
    5.4490    7.3430   15.8180 H   0  0  0  0  0  0  0  0  0  0  0  0
    4.9330    3.0980   15.6750 H   0  0  0  0  0  0  0  0  0  0  0  0
    3.3440    2.8230   17.7670 C   0  0  0  0  0  0  0  0  0  0  0  0
    4.1770    1.9740   18.4400 N   0  0  0  0  0  0  0  0  0  0  0  0
    2.1550    2.5720   17.6260 O   0  0  0  0  0  0  0  0  0  0  0  0
    3.7150    1.1960   18.8940 H   0  0  0  0  0  0  0  0  0  0  0  0
    5.0230    2.3170   18.8730 H   0  0  0  0  0  0  0  0  0  0  0  0
  1  6  2  0  0  0  0
  1  2  1  0  0  0  0
  2  3  2  0  0  0  0
  3  4  1  0  0  0  0
  3 11  1  0  0  0  0
  4  9  1  0  0  0  0
  5  7  1  0  0  0  0
  5  4  2  0  0  0  0
  6  5  1  0  0  0  0
  7  8  1  0  0  0  0
  7 13  1  1  0  0  0
  8  9  1  0  0  0  0
  8 15  1  0  0  0  0
  9 17  1  0  0  0  0
 10  2  1  0  0  0  0
 12  6  1  0  0  0  0
 14  8  1  0  0  0  0
 16  9  1  0  0  0  0
 18 28  1  0  0  0  0
 19 25  1  0  0  0  0
 19 18  2  0  0  0  0
 20 19  1  0  0  0  0
 21 20  1  0  0  0  0
 22 20  2  0  0  0  0
 22 23  1  0  0  0  0
 23 24  2  0  0  0  0
 24 18  1  0  0  0  0
 24  1  1  0  0  0  0
 26 22  1  0  0  0  0
 27 23  1  0  0  0  0
 28 31  1  0  0  0  0
 28 29  1  0  0  0  0
 28 30  1  0  0  0  0
 32 33  1  0  0  0  0
 32  7  1  0  0  0  0
 33 34  2  0  0  0  0
 35 33  1  0  0  0  0
 36 32  1  0  0  0  0
 37 35  1  0  0  0  0
 38 40  1  0  0  0  0
 38 35  1  0  0  0  0
 38 39  1  0  0  0  0
 41 38  1  0  0  0  0
 42 48  1  0  0  0  0
 42 41  1  0  0  0  0
 43 42  2  0  0  0  0
 44 46  2  0  0  0  0
 44 43  1  0  0  0  0
 45 44  1  0  0  0  0
 46 47  1  0  0  0  0
 47 51  1  0  0  0  0
 47 41  2  0  0  0  0
 49 43  1  0  0  0  0
 50 46  1  0  0  0  0
 51 52  1  0  0  0  0
 52 55  1  0  0  0  0
 52 54  1  0  0  0  0
 53 51  2  0  0  0  0
M  END
>  <MODEL>
27

>  <REMARK>
 VINA RESULT:    -6.321      3.368      8.850
 INTER + INTRA:          -9.572
 INTER:                  -8.567
 INTRA:                  -1.005
 UNBOUND:                -1.219
  Name = 
  6 active torsions:
  status: ('A' for Active; 'I' for Inactive)
    1  A    between atoms: C_1  and  C_2
    2  A    between atoms: C_8  and  C_9
    3  A    between atoms: C_15  and  N_16
    4  A    between atoms: N_19  and  C_20
    5  A    between atoms: C_20  and  C_21
    6  A    between atoms: C_27  and  C_28
                            x       y       z     vdW  Elec       q    Type
                         _______ _______ _______ _____ _____    ______ ____

>  <TORSDO>
F 6

$$$$
=
 OpenBabel07192307433D

 55 58  0  0  1  0  0  0  0  0999 V2000
    1.0750   10.5560   19.0010 C   0  0  0  0  0  0  0  0  0  0  0  0
   -0.2250   10.8550   19.4660 C   0  0  0  0  0  0  0  0  0  0  0  0
   -0.7120   12.1660   19.4800 C   0  0  0  0  0  0  0  0  0  0  0  0
    0.1200   13.1840   19.0470 C   0  0  0  0  0  0  0  0  0  0  0  0
    1.4120   12.9110   18.5890 C   0  0  0  0  0  0  0  0  0  0  0  0
    1.8890   11.6080   18.5510 C   0  0  0  0  0  0  0  0  0  0  0  0
    2.0990   14.1750   18.1400 C   0  0  1  0  0  0  0  0  0  0  0  0
    1.2220   15.2390   18.8290 C   0  0  0  0  0  0  0  0  0  0  0  0
   -0.1890   14.6430   18.9350 C   0  0  0  0  0  0  0  0  0  0  0  0
   -0.8720   10.0480   19.8060 H   0  0  0  0  0  0  0  0  0  0  0  0
   -1.7220   12.3730   19.8230 H   0  0  0  0  0  0  0  0  0  0  0  0
    2.8850   11.4020   18.1670 H   0  0  0  0  0  0  0  0  0  0  0  0
    2.0330   14.2630   17.0500 H   0  0  0  0  0  0  0  0  0  0  0  0
    1.5980   15.4470   19.8420 H   0  0  0  0  0  0  0  0  0  0  0  0
    1.2290   16.1930   18.2900 H   0  0  0  0  0  0  0  0  0  0  0  0
   -0.7190   15.0270   19.8120 H   0  0  0  0  0  0  0  0  0  0  0  0
   -0.7720   14.8380   18.0290 H   0  0  0  0  0  0  0  0  0  0  0  0
    1.6100    8.3710   20.1710 C   0  0  0  0  0  0  0  0  0  0  0  0
    2.0650    7.0440   20.0860 C   0  0  0  0  0  0  0  0  0  0  0  0
    2.5020    6.5260   18.8740 C   0  0  0  0  0  0  0  0  0  0  0  0
    2.9370    5.2620   18.8140 F   0  0  0  0  0  0  0  0  0  0  0  0
    2.4920    7.3000   17.7240 C   0  0  0  0  0  0  0  0  0  0  0  0
    2.0310    8.6140   17.7880 C   0  0  0  0  0  0  0  0  0  0  0  0
    1.5770    9.1710   19.0030 C   0  0  0  0  0  0  0  0  0  0  0  0
    2.0850    6.4030   20.9640 H   0  0  0  0  0  0  0  0  0  0  0  0
    2.8360    6.8770   16.7860 H   0  0  0  0  0  0  0  0  0  0  0  0
    2.0130    9.2120   16.8780 H   0  0  0  0  0  0  0  0  0  0  0  0
    1.1420    8.8880   21.5050 C   0  0  0  0  0  0  0  0  0  0  0  0
    1.1310    8.0810   22.2440 H   0  0  0  0  0  0  0  0  0  0  0  0
    0.1430    9.3290   21.4250 H   0  0  0  0  0  0  0  0  0  0  0  0
    1.8050    9.6780   21.8780 H   0  0  0  0  0  0  0  0  0  0  0  0
    3.4740   14.2480   18.5920 N   0  0  0  0  0  0  0  0  0  0  0  0
    3.7350   14.5020   19.9170 C   0  0  0  0  0  0  0  0  0  0  0  0
    2.8990   14.4800   20.8070 O   0  0  0  0  0  0  0  0  0  0  0  0
    5.0560   14.8360   20.0940 N   0  0  0  0  0  0  0  0  0  0  0  0
    4.1010   14.7270   17.9640 H   0  0  0  0  0  0  0  0  0  0  0  0
    5.6810   14.2820   19.5290 H   0  0  0  0  0  0  0  0  0  0  0  0
    5.5360   15.1890   21.4180 C   0  0  0  0  0  0  0  0  0  0  0  0
    6.1500   16.0900   21.3130 H   0  0  0  0  0  0  0  0  0  0  0  0
    4.6490   15.4240   22.0160 H   0  0  0  0  0  0  0  0  0  0  0  0
    6.3110   14.0850   22.1110 C   0  0  0  0  0  0  0  0  0  0  0  0
    5.7820   13.4220   23.2380 C   0  0  0  0  0  0  0  0  0  0  0  0
    6.4610   12.3550   23.8300 C   0  0  0  0  0  0  0  0  0  0  0  0
    7.6790   11.9430   23.3120 C   0  0  0  0  0  0  0  0  0  0  0  0
    8.3210   10.9140   23.8780 F   0  0  0  0  0  0  0  0  0  0  0  0
    8.2490   12.5940   22.2290 C   0  0  0  0  0  0  0  0  0  0  0  0
    7.5820   13.6790   21.6450 C   0  0  0  0  0  0  0  0  0  0  0  0
    4.8180   13.7130   23.6500 H   0  0  0  0  0  0  0  0  0  0  0  0
    6.0350   11.8330   24.6820 H   0  0  0  0  0  0  0  0  0  0  0  0
    9.2110   12.2610   21.8490 H   0  0  0  0  0  0  0  0  0  0  0  0
    8.2910   14.3620   20.5380 C   0  0  0  0  0  0  0  0  0  0  0  0
    9.2990   15.2130   20.8970 N   0  0  0  0  0  0  0  0  0  0  0  0
    8.0550   14.1120   19.3640 O   0  0  0  0  0  0  0  0  0  0  0  0
    9.8850   15.5240   20.1320 H   0  0  0  0  0  0  0  0  0  0  0  0
    9.7330   15.1440   21.8060 H   0  0  0  0  0  0  0  0  0  0  0  0
  1 24  1  0  0  0  0
  1  2  1  0  0  0  0
  2  3  2  0  0  0  0
  2 10  1  0  0  0  0
  3 11  1  0  0  0  0
  4  3  1  0  0  0  0
  5  4  2  0  0  0  0
  6  5  1  0  0  0  0
  6  1  2  0  0  0  0
  7 13  1  6  0  0  0
  7  5  1  0  0  0  0
  7 32  1  0  0  0  0
  7  8  1  0  0  0  0
  8  9  1  0  0  0  0
  8 14  1  0  0  0  0
  9  4  1  0  0  0  0
  9 16  1  0  0  0  0
 12  6  1  0  0  0  0
 15  8  1  0  0  0  0
 17  9  1  0  0  0  0
 18 28  1  0  0  0  0
 19 18  1  0  0  0  0
 19 25  1  0  0  0  0
 20 19  2  0  0  0  0
 21 20  1  0  0  0  0
 22 23  2  0  0  0  0
 22 20  1  0  0  0  0
 23 24  1  0  0  0  0
 24 18  2  0  0  0  0
 26 22  1  0  0  0  0
 27 23  1  0  0  0  0
 28 31  1  0  0  0  0
 28 29  1  0  0  0  0
 30 28  1  0  0  0  0
 32 33  1  0  0  0  0
 33 35  1  0  0  0  0
 33 34  2  0  0  0  0
 35 38  1  0  0  0  0
 36 32  1  0  0  0  0
 37 35  1  0  0  0  0
 38 40  1  0  0  0  0
 38 41  1  0  0  0  0
 39 38  1  0  0  0  0
 41 42  1  0  0  0  0
 42 48  1  0  0  0  0
 42 43  2  0  0  0  0
 43 49  1  0  0  0  0
 44 43  1  0  0  0  0
 44 45  1  0  0  0  0
 46 44  2  0  0  0  0
 47 41  2  0  0  0  0
 47 46  1  0  0  0  0
 50 46  1  0  0  0  0
 51 52  1  0  0  0  0
 51 47  1  0  0  0  0
 52 55  1  0  0  0  0
 53 51  2  0  0  0  0
 54 52  1  0  0  0  0
M  END
>  <MODEL>
28

>  <REMARK>
 VINA RESULT:    -6.192      5.802      8.852
 INTER + INTRA:          -9.401
 INTER:                  -9.019
 INTRA:                  -0.383
 UNBOUND:                -1.219
  Name = 
  6 active torsions:
  status: ('A' for Active; 'I' for Inactive)
    1  A    between atoms: C_1  and  C_2
    2  A    between atoms: C_8  and  C_9
    3  A    between atoms: C_15  and  N_16
    4  A    between atoms: N_19  and  C_20
    5  A    between atoms: C_20  and  C_21
    6  A    between atoms: C_27  and  C_28
                            x       y       z     vdW  Elec       q    Type
                         _______ _______ _______ _____ _____    ______ ____

>  <TORSDO>
F 6

$$$$
=
 OpenBabel07192307433D

 55 58  0  0  1  0  0  0  0  0999 V2000
   -3.3280   13.0640   20.4940 C   0  0  0  0  0  0  0  0  0  0  0  0
   -4.5250   13.6500   20.0270 C   0  0  0  0  0  0  0  0  0  0  0  0
   -5.1460   13.2070   18.8540 C   0  0  0  0  0  0  0  0  0  0  0  0
   -4.5480   12.1870   18.1350 C   0  0  0  0  0  0  0  0  0  0  0  0
   -3.3590   11.5980   18.5750 C   0  0  0  0  0  0  0  0  0  0  0  0
   -2.7540   12.0200   19.7520 C   0  0  0  0  0  0  0  0  0  0  0  0
   -2.9330   10.4920   17.6450 C   0  0  1  0  0  0  0  0  0  0  0  0
   -3.7610   10.8350   16.3910 C   0  0  0  0  0  0  0  0  0  0  0  0
   -5.0390   11.5270   16.8860 C   0  0  0  0  0  0  0  0  0  0  0  0
   -4.9890   14.4520   20.5980 H   0  0  0  0  0  0  0  0  0  0  0  0
   -6.0780   13.6560   18.5220 H   0  0  0  0  0  0  0  0  0  0  0  0
   -1.8450   11.5370   20.1010 H   0  0  0  0  0  0  0  0  0  0  0  0
   -3.2370    9.5240   18.0590 H   0  0  0  0  0  0  0  0  0  0  0  0
   -3.2060   11.5320   15.7450 H   0  0  0  0  0  0  0  0  0  0  0  0
   -3.9780    9.9500   15.7840 H   0  0  0  0  0  0  0  0  0  0  0  0
   -5.4130   12.2470   16.1510 H   0  0  0  0  0  0  0  0  0  0  0  0
   -5.8190   10.7970   17.1250 H   0  0  0  0  0  0  0  0  0  0  0  0
   -1.5680   14.4260   21.7090 C   0  0  0  0  0  0  0  0  0  0  0  0
   -1.0290   14.8800   22.9260 C   0  0  0  0  0  0  0  0  0  0  0  0
   -1.5660   14.4550   24.1340 C   0  0  0  0  0  0  0  0  0  0  0  0
   -1.0350   14.8930   25.2830 F   0  0  0  0  0  0  0  0  0  0  0  0
   -2.6430   13.5840   24.1680 C   0  0  0  0  0  0  0  0  0  0  0  0
   -3.1980   13.1360   22.9700 C   0  0  0  0  0  0  0  0  0  0  0  0
   -2.6800   13.5500   21.7240 C   0  0  0  0  0  0  0  0  0  0  0  0
   -0.1870   15.5670   22.9420 H   0  0  0  0  0  0  0  0  0  0  0  0
   -3.0490   13.2640   25.1220 H   0  0  0  0  0  0  0  0  0  0  0  0
   -4.0530   12.4620   23.0040 H   0  0  0  0  0  0  0  0  0  0  0  0
   -0.9570   14.9180   20.4230 C   0  0  0  0  0  0  0  0  0  0  0  0
    0.1300   14.9960   20.5230 H   0  0  0  0  0  0  0  0  0  0  0  0
   -1.3730   15.8910   20.1400 H   0  0  0  0  0  0  0  0  0  0  0  0
   -1.1720   14.2320   19.5960 H   0  0  0  0  0  0  0  0  0  0  0  0
   -1.5110   10.5210   17.3660 N   0  0  0  0  0  0  0  0  0  0  0  0
   -0.6300   10.0520   18.3110 C   0  0  0  0  0  0  0  0  0  0  0  0
   -0.9480    9.4210   19.3070 O   0  0  0  0  0  0  0  0  0  0  0  0
    0.6540   10.4370   18.0080 N   0  0  0  0  0  0  0  0  0  0  0  0
   -1.1880   11.3540   16.9000 H   0  0  0  0  0  0  0  0  0  0  0  0
    0.8590   10.3840   17.0220 H   0  0  0  0  0  0  0  0  0  0  0  0
    1.7400   10.0860   18.9050 C   0  0  0  0  0  0  0  0  0  0  0  0
    2.6370   10.6050   18.5520 H   0  0  0  0  0  0  0  0  0  0  0  0
    1.4640   10.4730   19.8920 H   0  0  0  0  0  0  0  0  0  0  0  0
    1.9890    8.5940   19.0210 C   0  0  0  0  0  0  0  0  0  0  0  0
    2.4690    7.8500   17.9230 C   0  0  0  0  0  0  0  0  0  0  0  0
    2.7710    6.4920   18.0500 C   0  0  0  0  0  0  0  0  0  0  0  0
    2.5880    5.8590   19.2700 C   0  0  0  0  0  0  0  0  0  0  0  0
    2.8870    4.5600   19.3890 F   0  0  0  0  0  0  0  0  0  0  0  0
    2.0810    6.5480   20.3610 C   0  0  0  0  0  0  0  0  0  0  0  0
    1.7570    7.9050   20.2320 C   0  0  0  0  0  0  0  0  0  0  0  0
    2.6410    8.3290   16.9620 H   0  0  0  0  0  0  0  0  0  0  0  0
    3.1650    5.9320   17.2070 H   0  0  0  0  0  0  0  0  0  0  0  0
    1.9350    6.0270   21.3030 H   0  0  0  0  0  0  0  0  0  0  0  0
    1.1580    8.5480   21.4250 C   0  0  0  0  0  0  0  0  0  0  0  0
   -0.1370    8.2150   21.7080 N   0  0  0  0  0  0  0  0  0  0  0  0
    1.8090    9.2670   22.1700 O   0  0  0  0  0  0  0  0  0  0  0  0
   -0.4650    8.5160   22.6170 H   0  0  0  0  0  0  0  0  0  0  0  0
   -0.5460    7.3700   21.3320 H   0  0  0  0  0  0  0  0  0  0  0  0
  1 24  1  0  0  0  0
  2  1  1  0  0  0  0
  2 10  1  0  0  0  0
  3  2  2  0  0  0  0
  4  5  2  0  0  0  0
  4  3  1  0  0  0  0
  5  6  1  0  0  0  0
  6 12  1  0  0  0  0
  6  1  2  0  0  0  0
  7 13  1  1  0  0  0
  7  5  1  0  0  0  0
  8  9  1  0  0  0  0
  8  7  1  0  0  0  0
  9 17  1  0  0  0  0
  9  4  1  0  0  0  0
 11  3  1  0  0  0  0
 14  8  1  0  0  0  0
 15  8  1  0  0  0  0
 16  9  1  0  0  0  0
 18 24  2  0  0  0  0
 18 19  1  0  0  0  0
 19 25  1  0  0  0  0
 19 20  2  0  0  0  0
 20 22  1  0  0  0  0
 20 21  1  0  0  0  0
 22 26  1  0  0  0  0
 23 27  1  0  0  0  0
 23 22  2  0  0  0  0
 24 23  1  0  0  0  0
 28 29  1  0  0  0  0
 28 18  1  0  0  0  0
 30 28  1  0  0  0  0
 31 28  1  0  0  0  0
 32  7  1  0  0  0  0
 32 33  1  0  0  0  0
 33 34  2  0  0  0  0
 35 33  1  0  0  0  0
 35 38  1  0  0  0  0
 36 32  1  0  0  0  0
 37 35  1  0  0  0  0
 38 41  1  0  0  0  0
 38 40  1  0  0  0  0
 39 38  1  0  0  0  0
 41 47  1  0  0  0  0
 42 43  1  0  0  0  0
 42 41  2  0  0  0  0
 43 44  2  0  0  0  0
 44 45  1  0  0  0  0
 44 46  1  0  0  0  0
 46 50  1  0  0  0  0
 47 46  2  0  0  0  0
 47 51  1  0  0  0  0
 48 42  1  0  0  0  0
 49 43  1  0  0  0  0
 51 52  1  0  0  0  0
 51 53  2  0  0  0  0
 52 54  1  0  0  0  0
 55 52  1  0  0  0  0
M  END
>  <MODEL>
29

>  <REMARK>
 VINA RESULT:    -6.095      3.809     10.211
 INTER + INTRA:          -9.274
 INTER:                  -8.563
 INTRA:                  -0.711
 UNBOUND:                -1.219
  Name = 
  6 active torsions:
  status: ('A' for Active; 'I' for Inactive)
    1  A    between atoms: C_1  and  C_2
    2  A    between atoms: C_8  and  C_9
    3  A    between atoms: C_15  and  N_16
    4  A    between atoms: N_19  and  C_20
    5  A    between atoms: C_20  and  C_21
    6  A    between atoms: C_27  and  C_28
                            x       y       z     vdW  Elec       q    Type
                         _______ _______ _______ _____ _____    ______ ____

>  <TORSDO>
F 6

$$$$
=
 OpenBabel07192307433D

 55 58  0  0  1  0  0  0  0  0999 V2000
    3.5880    3.9390   18.3890 C   0  0  0  0  0  0  0  0  0  0  0  0
    4.3070    3.0640   17.5460 C   0  0  0  0  0  0  0  0  0  0  0  0
    5.0330    3.5390   16.4480 C   0  0  0  0  0  0  0  0  0  0  0  0
    5.0150    4.8970   16.1830 C   0  0  0  0  0  0  0  0  0  0  0  0
    4.3040    5.7800   17.0010 C   0  0  0  0  0  0  0  0  0  0  0  0
    3.6030    5.3140   18.1050 C   0  0  0  0  0  0  0  0  0  0  0  0
    4.4730    7.2020   16.5280 C   0  0  1  0  0  0  0  0  0  0  0  0
    4.9750    6.9680   15.0890 C   0  0  0  0  0  0  0  0  0  0  0  0
    5.7370    5.6360   15.1010 C   0  0  0  0  0  0  0  0  0  0  0  0
    4.3150    1.9970   17.7610 H   0  0  0  0  0  0  0  0  0  0  0  0
    5.5960    2.8520   15.8240 H   0  0  0  0  0  0  0  0  0  0  0  0
    3.0770    6.0110   18.7510 H   0  0  0  0  0  0  0  0  0  0  0  0
    5.2390    7.7020   17.1310 H   0  0  0  0  0  0  0  0  0  0  0  0
    4.1240    6.8850   14.3960 H   0  0  0  0  0  0  0  0  0  0  0  0
    5.5940    7.7970   14.7280 H   0  0  0  0  0  0  0  0  0  0  0  0
    5.6710    5.1300   14.1330 H   0  0  0  0  0  0  0  0  0  0  0  0
    6.7870    5.7810   15.3780 H   0  0  0  0  0  0  0  0  0  0  0  0
    3.3870    2.5720   20.5150 C   0  0  0  0  0  0  0  0  0  0  0  0
    2.6020    2.1510   21.6030 C   0  0  0  0  0  0  0  0  0  0  0  0
    1.2740    2.5450   21.7050 C   0  0  0  0  0  0  0  0  0  0  0  0
    0.5400    2.1300   22.7450 F   0  0  0  0  0  0  0  0  0  0  0  0
    0.6980    3.3630   20.7460 C   0  0  0  0  0  0  0  0  0  0  0  0
    1.4670    3.8000   19.6680 C   0  0  0  0  0  0  0  0  0  0  0  0
    2.8200    3.4220   19.5350 C   0  0  0  0  0  0  0  0  0  0  0  0
    3.0180    1.5130   22.3770 H   0  0  0  0  0  0  0  0  0  0  0  0
   -0.3410    3.6610   20.8440 H   0  0  0  0  0  0  0  0  0  0  0  0
    1.0110    4.4540   18.9260 H   0  0  0  0  0  0  0  0  0  0  0  0
    4.8230    2.1240   20.4480 C   0  0  0  0  0  0  0  0  0  0  0  0
    5.4500    2.7570   21.0840 H   0  0  0  0  0  0  0  0  0  0  0  0
    5.1940    2.1530   19.4180 H   0  0  0  0  0  0  0  0  0  0  0  0
    4.9310    1.0890   20.7900 H   0  0  0  0  0  0  0  0  0  0  0  0
    3.2270    7.9410   16.5420 N   0  0  0  0  0  0  0  0  0  0  0  0
    2.7660    8.4610   17.7270 C   0  0  0  0  0  0  0  0  0  0  0  0
    3.4180    8.5280   18.7580 O   0  0  0  0  0  0  0  0  0  0  0  0
    1.4530    8.8480   17.6080 N   0  0  0  0  0  0  0  0  0  0  0  0
    2.4960    7.5480   15.9690 H   0  0  0  0  0  0  0  0  0  0  0  0
    1.2510    9.2890   16.7230 H   0  0  0  0  0  0  0  0  0  0  0  0
    0.7540    9.3840   18.7620 C   0  0  0  0  0  0  0  0  0  0  0  0
    0.5600    8.5500   19.4430 H   0  0  0  0  0  0  0  0  0  0  0  0
    1.4420   10.0890   19.2410 H   0  0  0  0  0  0  0  0  0  0  0  0
   -0.5310   10.1160   18.4230 C   0  0  0  0  0  0  0  0  0  0  0  0
   -1.3300    9.7140   17.3320 C   0  0  0  0  0  0  0  0  0  0  0  0
   -2.5510   10.3380   17.0650 C   0  0  0  0  0  0  0  0  0  0  0  0
   -2.9840   11.3750   17.8760 C   0  0  0  0  0  0  0  0  0  0  0  0
   -4.1580   11.9650   17.6210 F   0  0  0  0  0  0  0  0  0  0  0  0
   -2.2070   11.8250   18.9340 C   0  0  0  0  0  0  0  0  0  0  0  0
   -0.9720   11.2150   19.1920 C   0  0  0  0  0  0  0  0  0  0  0  0
   -1.0230    8.8880   16.6940 H   0  0  0  0  0  0  0  0  0  0  0  0
   -3.1730   10.0050   16.2390 H   0  0  0  0  0  0  0  0  0  0  0  0
   -2.5620   12.6480   19.5470 H   0  0  0  0  0  0  0  0  0  0  0  0
   -0.1750   11.7990   20.2960 C   0  0  0  0  0  0  0  0  0  0  0  0
   -0.4090   11.2960   21.5450 N   0  0  0  0  0  0  0  0  0  0  0  0
    0.7080   12.6200   20.0940 O   0  0  0  0  0  0  0  0  0  0  0  0
    0.2650   11.5730   22.2490 H   0  0  0  0  0  0  0  0  0  0  0  0
   -0.8490   10.3940   21.6640 H   0  0  0  0  0  0  0  0  0  0  0  0
  1 24  1  0  0  0  0
  2 10  1  0  0  0  0
  2  1  2  0  0  0  0
  3  2  1  0  0  0  0
  4  3  2  0  0  0  0
  4  5  1  0  0  0  0
  5  6  2  0  0  0  0
  6  1  1  0  0  0  0
  6 12  1  0  0  0  0
  7 32  1  0  0  0  0
  7  5  1  0  0  0  0
  7 13  1  1  0  0  0
  8  9  1  0  0  0  0
  8  7  1  0  0  0  0
  9 17  1  0  0  0  0
  9  4  1  0  0  0  0
 11  3  1  0  0  0  0
 14  8  1  0  0  0  0
 15  8  1  0  0  0  0
 16  9  1  0  0  0  0
 18 19  1  0  0  0  0
 19 20  2  0  0  0  0
 19 25  1  0  0  0  0
 20 21  1  0  0  0  0
 22 26  1  0  0  0  0
 22 20  1  0  0  0  0
 23 22  2  0  0  0  0
 24 23  1  0  0  0  0
 24 18  2  0  0  0  0
 27 23  1  0  0  0  0
 28 18  1  0  0  0  0
 28 31  1  0  0  0  0
 28 29  1  0  0  0  0
 30 28  1  0  0  0  0
 32 33  1  0  0  0  0
 33 34  2  0  0  0  0
 35 33  1  0  0  0  0
 35 38  1  0  0  0  0
 36 32  1  0  0  0  0
 37 35  1  0  0  0  0
 38 40  1  0  0  0  0
 38 39  1  0  0  0  0
 41 38  1  0  0  0  0
 41 47  1  0  0  0  0
 42 41  2  0  0  0  0
 43 42  1  0  0  0  0
 43 44  2  0  0  0  0
 44 46  1  0  0  0  0
 45 44  1  0  0  0  0
 46 47  2  0  0  0  0
 46 50  1  0  0  0  0
 47 51  1  0  0  0  0
 48 42  1  0  0  0  0
 49 43  1  0  0  0  0
 51 52  1  0  0  0  0
 52 55  1  0  0  0  0
 52 54  1  0  0  0  0
 53 51  2  0  0  0  0
M  END
>  <MODEL>
30

>  <REMARK>
 VINA RESULT:    -6.025      2.979      4.969
 INTER + INTRA:          -9.180
 INTER:                  -8.715
 INTRA:                  -0.465
 UNBOUND:                -1.219
  Name = 
  6 active torsions:
  status: ('A' for Active; 'I' for Inactive)
    1  A    between atoms: C_1  and  C_2
    2  A    between atoms: C_8  and  C_9
    3  A    between atoms: C_15  and  N_16
    4  A    between atoms: N_19  and  C_20
    5  A    between atoms: C_20  and  C_21
    6  A    between atoms: C_27  and  C_28
                            x       y       z     vdW  Elec       q    Type
                         _______ _______ _______ _____ _____    ______ ____

>  <TORSDO>
F 6

$$$$
=
 OpenBabel07192307433D

 55 58  0  0  1  0  0  0  0  0999 V2000
    8.5100   12.6110   21.4540 C   0  0  0  0  0  0  0  0  0  0  0  0
    9.2850   13.6460   20.8860 C   0  0  0  0  0  0  0  0  0  0  0  0
    9.7650   13.5630   19.5740 C   0  0  0  0  0  0  0  0  0  0  0  0
    9.4850   12.4250   18.8400 C   0  0  0  0  0  0  0  0  0  0  0  0
    8.7250   11.3860   19.3850 C   0  0  0  0  0  0  0  0  0  0  0  0
    8.2270   11.4760   20.6780 C   0  0  0  0  0  0  0  0  0  0  0  0
    8.5270   10.2810   18.3790 C   0  0  1  0  0  0  0  0  0  0  0  0
    9.6470   10.6070   17.3700 C   0  0  0  0  0  0  0  0  0  0  0  0
    9.8530   12.1270   17.4200 C   0  0  0  0  0  0  0  0  0  0  0  0
    9.5020   14.5380   21.4710 H   0  0  0  0  0  0  0  0  0  0  0  0
   10.3420   14.3780   19.1480 H   0  0  0  0  0  0  0  0  0  0  0  0
    7.6140   10.6760   21.0840 H   0  0  0  0  0  0  0  0  0  0  0  0
    7.5410   10.3810   17.9110 H   0  0  0  0  0  0  0  0  0  0  0  0
   10.5830   10.1110   17.6650 H   0  0  0  0  0  0  0  0  0  0  0  0
    9.4090   10.2540   16.3610 H   0  0  0  0  0  0  0  0  0  0  0  0
   10.8890   12.3970   17.1920 H   0  0  0  0  0  0  0  0  0  0  0  0
    9.1710   12.6440   16.7370 H   0  0  0  0  0  0  0  0  0  0  0  0
    6.9710   13.5780   23.2220 C   0  0  0  0  0  0  0  0  0  0  0  0
    6.5310   13.5870   24.5570 C   0  0  0  0  0  0  0  0  0  0  0  0
    7.1370   12.7670   25.5020 C   0  0  0  0  0  0  0  0  0  0  0  0
    6.7080   12.7930   26.7700 F   0  0  0  0  0  0  0  0  0  0  0  0
    8.1770   11.9220   25.1490 C   0  0  0  0  0  0  0  0  0  0  0  0
    8.6160   11.8920   23.8260 C   0  0  0  0  0  0  0  0  0  0  0  0
    8.0220   12.7090   22.8410 C   0  0  0  0  0  0  0  0  0  0  0  0
    5.7160   14.2310   24.8720 H   0  0  0  0  0  0  0  0  0  0  0  0
    8.6360   11.2890   25.9010 H   0  0  0  0  0  0  0  0  0  0  0  0
    9.4250   11.2160   23.5540 H   0  0  0  0  0  0  0  0  0  0  0  0
    6.2830   14.4800   22.2320 C   0  0  0  0  0  0  0  0  0  0  0  0
    5.6670   15.2190   22.7540 H   0  0  0  0  0  0  0  0  0  0  0  0
    5.6590   13.9000   21.5430 H   0  0  0  0  0  0  0  0  0  0  0  0
    7.0110   15.0210   21.6170 H   0  0  0  0  0  0  0  0  0  0  0  0
    8.7040    8.9650   18.9600 N   0  0  0  0  0  0  0  0  0  0  0  0
    8.2840    7.8590   18.2610 C   0  0  0  0  0  0  0  0  0  0  0  0
    7.9460    7.8650   17.0870 O   0  0  0  0  0  0  0  0  0  0  0  0
    8.2470    6.7550   19.0790 N   0  0  0  0  0  0  0  0  0  0  0  0
    8.5090    8.9090   19.9470 H   0  0  0  0  0  0  0  0  0  0  0  0
    9.0270    6.7130   19.7170 H   0  0  0  0  0  0  0  0  0  0  0  0
    7.7850    5.4850   18.5500 C   0  0  0  0  0  0  0  0  0  0  0  0
    8.2440    5.3540   17.5640 H   0  0  0  0  0  0  0  0  0  0  0  0
    8.1610    4.7110   19.2280 H   0  0  0  0  0  0  0  0  0  0  0  0
    6.2750    5.3630   18.4630 C   0  0  0  0  0  0  0  0  0  0  0  0
    5.4670    5.5130   19.6090 C   0  0  0  0  0  0  0  0  0  0  0  0
    4.0740    5.4770   19.5180 C   0  0  0  0  0  0  0  0  0  0  0  0
    3.4710    5.2800   18.2850 C   0  0  0  0  0  0  0  0  0  0  0  0
    2.1360    5.2550   18.2010 F   0  0  0  0  0  0  0  0  0  0  0  0
    4.2330    5.0900   17.1420 C   0  0  0  0  0  0  0  0  0  0  0  0
    5.6310    5.1040   17.2330 C   0  0  0  0  0  0  0  0  0  0  0  0
    5.9150    5.6900   20.5850 H   0  0  0  0  0  0  0  0  0  0  0  0
    3.4570    5.6190   20.4010 H   0  0  0  0  0  0  0  0  0  0  0  0
    3.7380    4.9240   16.1890 H   0  0  0  0  0  0  0  0  0  0  0  0
    6.3690    4.8250   15.9790 C   0  0  0  0  0  0  0  0  0  0  0  0
    6.6160    5.8970   15.1680 N   0  0  0  0  0  0  0  0  0  0  0  0
    6.8150    3.7150   15.7220 O   0  0  0  0  0  0  0  0  0  0  0  0
    7.2720    5.7210   14.4170 H   0  0  0  0  0  0  0  0  0  0  0  0
    6.5830    6.8380   15.5340 H   0  0  0  0  0  0  0  0  0  0  0  0
  1 24  1  0  0  0  0
  2  1  1  0  0  0  0
  2 10  1  0  0  0  0
  3  2  2  0  0  0  0
  4  5  2  0  0  0  0
  4  3  1  0  0  0  0
  5  6  1  0  0  0  0
  6 12  1  0  0  0  0
  6  1  2  0  0  0  0
  7 13  1  6  0  0  0
  7 32  1  0  0  0  0
  7  5  1  0  0  0  0
  8  9  1  0  0  0  0
  8 14  1  0  0  0  0
  8  7  1  0  0  0  0
  9  4  1  0  0  0  0
 11  3  1  0  0  0  0
 15  8  1  0  0  0  0
 16  9  1  0  0  0  0
 17  9  1  0  0  0  0
 18 19  1  0  0  0  0
 19 25  1  0  0  0  0
 19 20  2  0  0  0  0
 20 21  1  0  0  0  0
 22 20  1  0  0  0  0
 22 26  1  0  0  0  0
 23 22  2  0  0  0  0
 24 18  2  0  0  0  0
 24 23  1  0  0  0  0
 27 23  1  0  0  0  0
 28 29  1  0  0  0  0
 28 18  1  0  0  0  0
 30 28  1  0  0  0  0
 31 28  1  0  0  0  0
 32 36  1  0  0  0  0
 33 32  1  0  0  0  0
 33 35  1  0  0  0  0
 34 33  2  0  0  0  0
 35 37  1  0  0  0  0
 38 35  1  0  0  0  0
 38 40  1  0  0  0  0
 39 38  1  0  0  0  0
 41 38  1  0  0  0  0
 41 42  1  0  0  0  0
 42 48  1  0  0  0  0
 43 42  2  0  0  0  0
 43 49  1  0  0  0  0
 44 43  1  0  0  0  0
 45 44  1  0  0  0  0
 46 47  1  0  0  0  0
 46 44  2  0  0  0  0
 47 41  2  0  0  0  0
 50 46  1  0  0  0  0
 51 47  1  0  0  0  0
 52 55  1  0  0  0  0
 52 51  1  0  0  0  0
 53 51  2  0  0  0  0
 54 52  1  0  0  0  0
M  END
>  <MODEL>
31

>  <REMARK>
 VINA RESULT:    -5.886      6.779     10.645
 INTER + INTRA:          -8.997
 INTER:                  -7.778
 INTRA:                  -1.219
 UNBOUND:                -1.219
  Name = 
  6 active torsions:
  status: ('A' for Active; 'I' for Inactive)
    1  A    between atoms: C_1  and  C_2
    2  A    between atoms: C_8  and  C_9
    3  A    between atoms: C_15  and  N_16
    4  A    between atoms: N_19  and  C_20
    5  A    between atoms: C_20  and  C_21
    6  A    between atoms: C_27  and  C_28
                            x       y       z     vdW  Elec       q    Type
                         _______ _______ _______ _____ _____    ______ ____

>  <TORSDO>
F 6

$$$$
=
 OpenBabel07192307433D

 55 58  0  0  1  0  0  0  0  0999 V2000
    6.6840   14.5510   21.6480 C   0  0  0  0  0  0  0  0  0  0  0  0
    7.5120   14.9840   20.5890 C   0  0  0  0  0  0  0  0  0  0  0  0
    6.9950   15.2360   19.3140 C   0  0  0  0  0  0  0  0  0  0  0  0
    5.6440   15.0300   19.0970 C   0  0  0  0  0  0  0  0  0  0  0  0
    4.8080   14.5960   20.1290 C   0  0  0  0  0  0  0  0  0  0  0  0
    5.3140   14.3680   21.4020 C   0  0  0  0  0  0  0  0  0  0  0  0
    3.3820   14.4840   19.6530 C   0  0  1  0  0  0  0  0  0  0  0  0
    3.5900   14.4570   18.1260 C   0  0  0  0  0  0  0  0  0  0  0  0
    4.8640   15.2670   17.8430 C   0  0  0  0  0  0  0  0  0  0  0  0
    8.5750   15.1420   20.7680 H   0  0  0  0  0  0  0  0  0  0  0  0
    7.6450   15.5880   18.5180 H   0  0  0  0  0  0  0  0  0  0  0  0
    4.6520   14.0570   22.2060 H   0  0  0  0  0  0  0  0  0  0  0  0
    2.8220   15.3770   19.9530 H   0  0  0  0  0  0  0  0  0  0  0  0
    3.7400   13.4240   17.7790 H   0  0  0  0  0  0  0  0  0  0  0  0
    2.7220   14.8470   17.5840 H   0  0  0  0  0  0  0  0  0  0  0  0
    5.3820   14.8970   16.9520 H   0  0  0  0  0  0  0  0  0  0  0  0
    4.6410   16.3320   17.7310 H   0  0  0  0  0  0  0  0  0  0  0  0
    7.9240   13.0750   23.2960 C   0  0  0  0  0  0  0  0  0  0  0  0
    8.4690   12.9040   24.5800 C   0  0  0  0  0  0  0  0  0  0  0  0
    8.3260   13.8950   25.5430 C   0  0  0  0  0  0  0  0  0  0  0  0
    8.8480   13.7110   26.7620 F   0  0  0  0  0  0  0  0  0  0  0  0
    7.6520   15.0720   25.2580 C   0  0  0  0  0  0  0  0  0  0  0  0
    7.1170   15.2630   23.9850 C   0  0  0  0  0  0  0  0  0  0  0  0
    7.2460   14.2780   22.9820 C   0  0  0  0  0  0  0  0  0  0  0  0
    9.0090   11.9970   24.8410 H   0  0  0  0  0  0  0  0  0  0  0  0
    7.5520   15.8340   26.0230 H   0  0  0  0  0  0  0  0  0  0  0  0
    6.6010   16.1960   23.7650 H   0  0  0  0  0  0  0  0  0  0  0  0
    8.1070   11.9760   22.2830 C   0  0  0  0  0  0  0  0  0  0  0  0
    8.9630   12.1920   21.6370 H   0  0  0  0  0  0  0  0  0  0  0  0
    7.2060   11.8510   21.6730 H   0  0  0  0  0  0  0  0  0  0  0  0
    8.2900   11.0130   22.7740 H   0  0  0  0  0  0  0  0  0  0  0  0
    2.7350   13.2760   20.1220 N   0  0  0  0  0  0  0  0  0  0  0  0
    1.3630   13.2180   20.1600 C   0  0  0  0  0  0  0  0  0  0  0  0
    0.6180   14.0360   19.6430 O   0  0  0  0  0  0  0  0  0  0  0  0
    0.9440   12.1420   20.9050 N   0  0  0  0  0  0  0  0  0  0  0  0
    3.1740   12.8430   20.9200 H   0  0  0  0  0  0  0  0  0  0  0  0
    1.5030   11.3170   20.7540 H   0  0  0  0  0  0  0  0  0  0  0  0
   -0.4750   11.9220   21.1140 C   0  0  0  0  0  0  0  0  0  0  0  0
   -0.5780   11.1950   21.9270 H   0  0  0  0  0  0  0  0  0  0  0  0
   -0.8950   12.8820   21.4330 H   0  0  0  0  0  0  0  0  0  0  0  0
   -1.2180   11.4550   19.8760 C   0  0  0  0  0  0  0  0  0  0  0  0
   -0.6690   10.4720   19.0270 C   0  0  0  0  0  0  0  0  0  0  0  0
   -1.3840    9.9870   17.9300 C   0  0  0  0  0  0  0  0  0  0  0  0
   -2.6500   10.4840   17.6610 C   0  0  0  0  0  0  0  0  0  0  0  0
   -3.3350   10.0100   16.6130 F   0  0  0  0  0  0  0  0  0  0  0  0
   -3.2070   11.4790   18.4500 C   0  0  0  0  0  0  0  0  0  0  0  0
   -2.4840   11.9830   19.5390 C   0  0  0  0  0  0  0  0  0  0  0  0
    0.3130   10.0500   19.2290 H   0  0  0  0  0  0  0  0  0  0  0  0
   -0.9660    9.2100   17.2950 H   0  0  0  0  0  0  0  0  0  0  0  0
   -4.1960   11.8620   18.2110 H   0  0  0  0  0  0  0  0  0  0  0  0
   -3.1210   13.0910   20.2880 C   0  0  0  0  0  0  0  0  0  0  0  0
   -2.5640   14.3290   20.1320 N   0  0  0  0  0  0  0  0  0  0  0  0
   -4.1450   12.9300   20.9380 O   0  0  0  0  0  0  0  0  0  0  0  0
   -3.1160   15.0940   20.4990 H   0  0  0  0  0  0  0  0  0  0  0  0
   -1.9740   14.5330   19.3370 H   0  0  0  0  0  0  0  0  0  0  0  0
  1 24  1  0  0  0  0
  2 10  1  0  0  0  0
  2  1  2  0  0  0  0
  3  2  1  0  0  0  0
  4  3  2  0  0  0  0
  4  5  1  0  0  0  0
  5  6  2  0  0  0  0
  6  1  1  0  0  0  0
  6 12  1  0  0  0  0
  7 13  1  1  0  0  0
  7 32  1  0  0  0  0
  7  5  1  0  0  0  0
  8  7  1  0  0  0  0
  9  8  1  0  0  0  0
  9  4  1  0  0  0  0
 11  3  1  0  0  0  0
 14  8  1  0  0  0  0
 15  8  1  0  0  0  0
 16  9  1  0  0  0  0
 17  9  1  0  0  0  0
 18 19  1  0  0  0  0
 19 25  1  0  0  0  0
 19 20  2  0  0  0  0
 20 21  1  0  0  0  0
 22 20  1  0  0  0  0
 22 26  1  0  0  0  0
 23 22  2  0  0  0  0
 24 18  2  0  0  0  0
 24 23  1  0  0  0  0
 27 23  1  0  0  0  0
 28 31  1  0  0  0  0
 28 18  1  0  0  0  0
 29 28  1  0  0  0  0
 30 28  1  0  0  0  0
 32 33  1  0  0  0  0
 32 36  1  0  0  0  0
 33 35  1  0  0  0  0
 34 33  2  0  0  0  0
 35 38  1  0  0  0  0
 37 35  1  0  0  0  0
 38 40  1  0  0  0  0
 38 39  1  0  0  0  0
 41 38  1  0  0  0  0
 42 48  1  0  0  0  0
 42 41  2  0  0  0  0
 43 42  1  0  0  0  0
 44 43  2  0  0  0  0
 44 46  1  0  0  0  0
 45 44  1  0  0  0  0
 46 47  2  0  0  0  0
 47 41  1  0  0  0  0
 47 51  1  0  0  0  0
 49 43  1  0  0  0  0
 50 46  1  0  0  0  0
 51 53  2  0  0  0  0
 52 51  1  0  0  0  0
 52 54  1  0  0  0  0
 55 52  1  0  0  0  0
M  END
>  <MODEL>
32

>  <REMARK>
 VINA RESULT:    -5.708      6.916      9.581
 INTER + INTRA:          -8.762
 INTER:                  -7.678
 INTRA:                  -1.084
 UNBOUND:                -1.219
  Name = 
  6 active torsions:
  status: ('A' for Active; 'I' for Inactive)
    1  A    between atoms: C_1  and  C_2
    2  A    between atoms: C_8  and  C_9
    3  A    between atoms: C_15  and  N_16
    4  A    between atoms: N_19  and  C_20
    5  A    between atoms: C_20  and  C_21
    6  A    between atoms: C_27  and  C_28
                            x       y       z     vdW  Elec       q    Type
                         _______ _______ _______ _____ _____    ______ ____

>  <TORSDO>
F 6

$$$$
