=
 OpenBabel07192307433D

 50 53  0  0  1  0  0  0  0  0999 V2000
   -0.5900   11.1640   20.9960 C   0  0  0  0  0  0  0  0  0  0  0  0
   -0.8530   10.9690   22.3600 C   0  0  0  0  0  0  0  0  0  0  0  0
   -0.3790    9.8380   23.0190 C   0  0  0  0  0  0  0  0  0  0  0  0
    0.3720    8.8840   22.3290 C   0  0  0  0  0  0  0  0  0  0  0  0
    0.6600    9.0480   20.9670 C   0  0  0  0  0  0  0  0  0  0  0  0
    0.1710   10.1930   20.3160 C   0  0  0  0  0  0  0  0  0  0  0  0
   -1.4310   11.7020   22.9210 H   0  0  0  0  0  0  0  0  0  0  0  0
   -0.5940    9.6970   24.0770 H   0  0  0  0  0  0  0  0  0  0  0  0
    0.7240    8.0120   22.8730 H   0  0  0  0  0  0  0  0  0  0  0  0
    0.3970   10.3430   19.2610 H   0  0  0  0  0  0  0  0  0  0  0  0
    1.4560    8.0520   20.2560 C   0  0  0  0  0  0  0  0  0  0  0  0
    2.1980    8.0430   19.0980 C   0  0  0  0  0  0  0  0  0  0  0  0
    2.7190    6.7250   18.9910 C   0  0  0  0  0  0  0  0  0  0  0  0
    2.3140    5.9890   20.0380 N   0  0  0  0  0  0  0  0  0  0  0  0
    1.5300    6.8130   20.8170 O   0  0  0  0  0  0  0  0  0  0  0  0
    2.3470    8.8720   18.4250 H   0  0  0  0  0  0  0  0  0  0  0  0
    3.5720    6.1630   17.9400 C   0  0  0  0  0  0  0  0  0  0  0  0
    4.3840    6.9890   17.1480 C   0  0  0  0  0  0  0  0  0  0  0  0
    5.1940    6.4420   16.1460 C   0  0  0  0  0  0  0  0  0  0  0  0
    5.2000    5.0620   15.9120 C   0  0  0  0  0  0  0  0  0  0  0  0
    4.4060    4.2280   16.7060 C   0  0  0  0  0  0  0  0  0  0  0  0
    3.5950    4.7790   17.7060 C   0  0  0  0  0  0  0  0  0  0  0  0
    4.3960    8.0660   17.2860 H   0  0  0  0  0  0  0  0  0  0  0  0
    5.8180    7.0990   15.5420 H   0  0  0  0  0  0  0  0  0  0  0  0
    4.4220    3.1500   16.5840 H   0  0  0  0  0  0  0  0  0  0  0  0
    2.9870    4.1100   18.3140 H   0  0  0  0  0  0  0  0  0  0  0  0
    6.0810    4.5300   14.8350 C   0  0  0  0  0  0  0  0  0  0  0  0
    7.2990    4.6410   14.9280 O   0  0  0  0  0  0  0  0  0  0  0  0
    5.4490    3.9610   13.7490 N   0  0  0  0  0  0  0  0  0  0  0  0
    4.4620    4.1310   13.6160 H   0  0  0  0  0  0  0  0  0  0  0  0
    6.2100    3.5260   12.6030 C   0  0  0  0  0  0  0  0  0  0  0  0
    5.6420    3.7600   11.6990 H   0  0  0  0  0  0  0  0  0  0  0  0
    7.1750    4.0360   12.5690 H   0  0  0  0  0  0  0  0  0  0  0  0
    6.3600    2.4480   12.6760 H   0  0  0  0  0  0  0  0  0  0  0  0
   -1.1110   12.4150   20.3010 C   0  0  2  0  0  0  0  0  0  0  0  0
   -0.6400   13.2830   20.7750 H   0  0  0  0  0  0  0  0  0  0  0  0
   -2.6280   12.5680   20.4460 C   0  0  0  0  0  0  0  0  0  0  0  0
   -2.8720   13.1380   21.3490 H   0  0  0  0  0  0  0  0  0  0  0  0
   -3.1430   11.6040   20.5200 H   0  0  0  0  0  0  0  0  0  0  0  0
   -3.0590   13.1080   19.5970 H   0  0  0  0  0  0  0  0  0  0  0  0
   -0.6270   12.3910   18.5310 S   0  0  0  0  0  0  0  0  0  0  0  0
    0.7480   13.4370   18.5350 C   0  0  0  0  0  0  0  0  0  0  0  0
    0.8020   14.6910   18.9250 N   0  0  0  0  0  0  0  0  0  0  0  0
    2.1040   15.1240   18.7580 N   0  0  0  0  0  0  0  0  0  0  0  0
    2.7980   14.1150   18.2750 C   0  0  0  0  0  0  0  0  0  0  0  0
    1.9900   13.0310   18.1180 N   0  0  0  0  0  0  0  0  0  0  0  0
    3.8490   14.1140   18.0300 H   0  0  0  0  0  0  0  0  0  0  0  0
    2.3910   11.7510   17.6200 N   0  0  0  0  0  0  0  0  0  0  0  0
    3.3190   11.8130   17.2020 H   0  0  0  0  0  0  0  0  0  0  0  0
    1.7800   11.4680   16.8540 H   0  0  0  0  0  0  0  0  0  0  0  0
  1  2  1  0  0  0  0
  2  7  1  0  0  0  0
  2  3  2  0  0  0  0
  3  8  1  0  0  0  0
  4  9  1  0  0  0  0
  4  3  1  0  0  0  0
  5  4  2  0  0  0  0
  6  5  1  0  0  0  0
  6  1  2  0  0  0  0
 10  6  1  0  0  0  0
 11 15  1  0  0  0  0
 11  5  1  0  0  0  0
 12 11  2  0  0  0  0
 13 12  1  0  0  0  0
 13 14  2  0  0  0  0
 14 15  1  0  0  0  0
 16 12  1  0  0  0  0
 17 13  1  0  0  0  0
 18 23  1  0  0  0  0
 18 17  2  0  0  0  0
 19 18  1  0  0  0  0
 20 19  2  0  0  0  0
 20 21  1  0  0  0  0
 21 22  2  0  0  0  0
 22 17  1  0  0  0  0
 22 26  1  0  0  0  0
 24 19  1  0  0  0  0
 25 21  1  0  0  0  0
 27 28  2  0  0  0  0
 27 20  1  0  0  0  0
 29 27  1  0  0  0  0
 30 29  1  0  0  0  0
 31 34  1  0  0  0  0
 31 29  1  0  0  0  0
 32 31  1  0  0  0  0
 33 31  1  0  0  0  0
 35 37  1  0  0  0  0
 35 36  1  1  0  0  0
 35  1  1  0  0  0  0
 37 39  1  0  0  0  0
 37 38  1  0  0  0  0
 40 37  1  0  0  0  0
 41 42  1  0  0  0  0
 41 35  1  0  0  0  0
 42 43  2  0  0  0  0
 44 43  1  0  0  0  0
 45 44  2  0  0  0  0
 46 45  1  0  0  0  0
 46 42  1  0  0  0  0
 47 45  1  0  0  0  0
 48 46  1  0  0  0  0
 49 48  1  0  0  0  0
 50 48  1  0  0  0  0
M  END
>  <MODEL>
1

>  <REMARK>
 VINA RESULT:    -8.671      0.000      0.000
 INTER + INTRA:         -12.961
 INTER:                 -11.964
 INTRA:                  -0.997
 UNBOUND:                -0.489
  Name = 
  9 active torsions:
  status: ('A' for Active; 'I' for Inactive)
    1  A    between atoms: C_1  and  C_2
    2  A    between atoms: C_2  and  C_3
    3  A    between atoms: C_2  and  S_24
    4  A    between atoms: C_7  and  C_9
    5  A    between atoms: C_11  and  C_14
    6  A    between atoms: C_17  and  C_20
    7  A    between atoms: N_22  and  C_23
    8  A    between atoms: S_24  and  C_25
    9  A    between atoms: N_29  and  N_30
                            x       y       z     vdW  Elec       q    Type
                         _______ _______ _______ _____ _____    ______ ____

>  <TORSDO>
F 9

$$$$
=
 OpenBabel07192307433D

 50 53  0  0  1  0  0  0  0  0999 V2000
    4.8020    4.4280   18.0270 C   0  0  0  0  0  0  0  0  0  0  0  0
    4.4900    3.2620   18.7420 C   0  0  0  0  0  0  0  0  0  0  0  0
    3.5110    3.2780   19.7320 C   0  0  0  0  0  0  0  0  0  0  0  0
    2.8210    4.4570   20.0200 C   0  0  0  0  0  0  0  0  0  0  0  0
    3.1000    5.6390   19.3220 C   0  0  0  0  0  0  0  0  0  0  0  0
    4.0930    5.6070   18.3290 C   0  0  0  0  0  0  0  0  0  0  0  0
    5.0110    2.3300   18.5310 H   0  0  0  0  0  0  0  0  0  0  0  0
    3.2830    2.3670   20.2830 H   0  0  0  0  0  0  0  0  0  0  0  0
    2.0650    4.4340   20.8000 H   0  0  0  0  0  0  0  0  0  0  0  0
    4.3140    6.5140   17.7670 H   0  0  0  0  0  0  0  0  0  0  0  0
    2.3650    6.8650   19.6220 C   0  0  0  0  0  0  0  0  0  0  0  0
    1.6330    7.3260   20.6900 C   0  0  0  0  0  0  0  0  0  0  0  0
    1.1860    8.6210   20.3130 C   0  0  0  0  0  0  0  0  0  0  0  0
    1.6390    8.9200   19.0850 N   0  0  0  0  0  0  0  0  0  0  0  0
    2.3650    7.8280   18.6590 O   0  0  0  0  0  0  0  0  0  0  0  0
    1.4480    6.8030   21.6150 H   0  0  0  0  0  0  0  0  0  0  0  0
    0.3590    9.5590   21.0770 C   0  0  0  0  0  0  0  0  0  0  0  0
   -0.1920   10.6990   20.4710 C   0  0  0  0  0  0  0  0  0  0  0  0
   -0.9800   11.5890   21.2100 C   0  0  0  0  0  0  0  0  0  0  0  0
   -1.2240   11.3610   22.5680 C   0  0  0  0  0  0  0  0  0  0  0  0
   -0.6930   10.2210   23.1790 C   0  0  0  0  0  0  0  0  0  0  0  0
    0.0970    9.3330   22.4380 C   0  0  0  0  0  0  0  0  0  0  0  0
   -0.0130   10.9220   19.4230 H   0  0  0  0  0  0  0  0  0  0  0  0
   -1.4000   12.4670   20.7220 H   0  0  0  0  0  0  0  0  0  0  0  0
   -0.9020    9.9880   24.2190 H   0  0  0  0  0  0  0  0  0  0  0  0
    0.4980    8.4500   22.9340 H   0  0  0  0  0  0  0  0  0  0  0  0
   -2.0710   12.3380   23.3100 C   0  0  0  0  0  0  0  0  0  0  0  0
   -1.6190   13.4370   23.6110 O   0  0  0  0  0  0  0  0  0  0  0  0
   -3.3390   11.9150   23.6540 N   0  0  0  0  0  0  0  0  0  0  0  0
   -3.5520   10.9290   23.6070 H   0  0  0  0  0  0  0  0  0  0  0  0
   -4.1890   12.7410   24.4750 C   0  0  0  0  0  0  0  0  0  0  0  0
   -4.8880   12.0960   25.0130 H   0  0  0  0  0  0  0  0  0  0  0  0
   -3.5920   13.3100   25.1930 H   0  0  0  0  0  0  0  0  0  0  0  0
   -4.7400   13.4240   23.8260 H   0  0  0  0  0  0  0  0  0  0  0  0
    5.8690    4.3820   16.9420 C   0  0  2  0  0  0  0  0  0  0  0  0
    5.8700    3.3730   16.5140 H   0  0  0  0  0  0  0  0  0  0  0  0
    7.2700    4.6570   17.4970 C   0  0  0  0  0  0  0  0  0  0  0  0
    7.3800    4.2200   18.4960 H   0  0  0  0  0  0  0  0  0  0  0  0
    7.4860    5.7270   17.5840 H   0  0  0  0  0  0  0  0  0  0  0  0
    8.0460    4.2140   16.8650 H   0  0  0  0  0  0  0  0  0  0  0  0
    5.4540    5.5720   15.6090 S   0  0  0  0  0  0  0  0  0  0  0  0
    5.8690    4.6670   14.1970 C   0  0  0  0  0  0  0  0  0  0  0  0
    5.1180    3.8110   13.5410 N   0  0  0  0  0  0  0  0  0  0  0  0
    5.8580    3.3370   12.4760 N   0  0  0  0  0  0  0  0  0  0  0  0
    7.0360    3.9230   12.5180 C   0  0  0  0  0  0  0  0  0  0  0  0
    7.0910    4.7710   13.5820 N   0  0  0  0  0  0  0  0  0  0  0  0
    7.8540    3.7780   11.8300 H   0  0  0  0  0  0  0  0  0  0  0  0
    8.2110    5.5840   13.9490 N   0  0  0  0  0  0  0  0  0  0  0  0
    8.0580    6.5460   13.6490 H   0  0  0  0  0  0  0  0  0  0  0  0
    9.0420    5.2820   13.4400 H   0  0  0  0  0  0  0  0  0  0  0  0
  1  6  2  0  0  0  0
  1  2  1  0  0  0  0
  2  3  2  0  0  0  0
  3  4  1  0  0  0  0
  3  8  1  0  0  0  0
  4  9  1  0  0  0  0
  5 11  1  0  0  0  0
  5  4  2  0  0  0  0
  6  5  1  0  0  0  0
  7  2  1  0  0  0  0
 10  6  1  0  0  0  0
 11 12  2  0  0  0  0
 12 16  1  0  0  0  0
 13 12  1  0  0  0  0
 13 17  1  0  0  0  0
 14 13  2  0  0  0  0
 15 14  1  0  0  0  0
 15 11  1  0  0  0  0
 17 22  1  0  0  0  0
 18 17  2  0  0  0  0
 18 19  1  0  0  0  0
 19 20  2  0  0  0  0
 20 21  1  0  0  0  0
 20 27  1  0  0  0  0
 21 25  1  0  0  0  0
 22 26  1  0  0  0  0
 22 21  2  0  0  0  0
 23 18  1  0  0  0  0
 24 19  1  0  0  0  0
 27 28  2  0  0  0  0
 27 29  1  0  0  0  0
 29 31  1  0  0  0  0
 30 29  1  0  0  0  0
 31 32  1  0  0  0  0
 31 33  1  0  0  0  0
 34 31  1  0  0  0  0
 35 36  1  6  0  0  0
 35 37  1  0  0  0  0
 35  1  1  0  0  0  0
 37 39  1  0  0  0  0
 37 38  1  0  0  0  0
 40 37  1  0  0  0  0
 41 35  1  0  0  0  0
 42 41  1  0  0  0  0
 43 42  2  0  0  0  0
 44 45  2  0  0  0  0
 44 43  1  0  0  0  0
 45 46  1  0  0  0  0
 46 48  1  0  0  0  0
 46 42  1  0  0  0  0
 47 45  1  0  0  0  0
 49 48  1  0  0  0  0
 50 48  1  0  0  0  0
M  END
>  <MODEL>
2

>  <REMARK>
 VINA RESULT:    -8.606      3.279     10.087
 INTER + INTRA:         -12.868
 INTER:                 -12.056
 INTRA:                  -0.812
 UNBOUND:                -0.489
  Name = 
  9 active torsions:
  status: ('A' for Active; 'I' for Inactive)
    1  A    between atoms: C_1  and  C_2
    2  A    between atoms: C_2  and  C_3
    3  A    between atoms: C_2  and  S_24
    4  A    between atoms: C_7  and  C_9
    5  A    between atoms: C_11  and  C_14
    6  A    between atoms: C_17  and  C_20
    7  A    between atoms: N_22  and  C_23
    8  A    between atoms: S_24  and  C_25
    9  A    between atoms: N_29  and  N_30
                            x       y       z     vdW  Elec       q    Type
                         _______ _______ _______ _____ _____    ______ ____

>  <TORSDO>
F 9

$$$$
=
 OpenBabel07192307433D

 50 53  0  0  1  0  0  0  0  0999 V2000
   -0.5370   11.0300   20.3300 C   0  0  0  0  0  0  0  0  0  0  0  0
   -0.7470   10.9160   21.7120 C   0  0  0  0  0  0  0  0  0  0  0  0
   -0.1810    9.8650   22.4310 C   0  0  0  0  0  0  0  0  0  0  0  0
    0.6110    8.9160   21.7820 C   0  0  0  0  0  0  0  0  0  0  0  0
    0.8490    9.0010   20.4040 C   0  0  0  0  0  0  0  0  0  0  0  0
    0.2680   10.0650   19.6930 C   0  0  0  0  0  0  0  0  0  0  0  0
   -1.3560   11.6470   22.2390 H   0  0  0  0  0  0  0  0  0  0  0  0
   -0.3570    9.7860   23.5010 H   0  0  0  0  0  0  0  0  0  0  0  0
    1.0350    8.1090   22.3730 H   0  0  0  0  0  0  0  0  0  0  0  0
    0.4540   10.1550   18.6230 H   0  0  0  0  0  0  0  0  0  0  0  0
    1.6890    8.0110   19.7370 C   0  0  0  0  0  0  0  0  0  0  0  0
    2.3700    7.9550   18.5430 C   0  0  0  0  0  0  0  0  0  0  0  0
    2.9920    6.6780   18.5210 C   0  0  0  0  0  0  0  0  0  0  0  0
    2.7050    6.0110   19.6490 N   0  0  0  0  0  0  0  0  0  0  0  0
    1.8950    6.8380   20.3980 O   0  0  0  0  0  0  0  0  0  0  0  0
    2.4140    8.7290   17.7930 H   0  0  0  0  0  0  0  0  0  0  0  0
    3.8350    6.0930   17.4750 C   0  0  0  0  0  0  0  0  0  0  0  0
    4.5460    6.9040   16.5780 C   0  0  0  0  0  0  0  0  0  0  0  0
    5.3470    6.3340   15.5820 C   0  0  0  0  0  0  0  0  0  0  0  0
    5.4450    4.9440   15.4580 C   0  0  0  0  0  0  0  0  0  0  0  0
    4.7530    4.1250   16.3560 C   0  0  0  0  0  0  0  0  0  0  0  0
    3.9500    4.6980   17.3500 C   0  0  0  0  0  0  0  0  0  0  0  0
    4.4840    7.9880   16.6280 H   0  0  0  0  0  0  0  0  0  0  0  0
    5.8920    6.9800   14.8950 H   0  0  0  0  0  0  0  0  0  0  0  0
    4.8440    3.0440   16.3200 H   0  0  0  0  0  0  0  0  0  0  0  0
    3.4230    4.0410   18.0410 H   0  0  0  0  0  0  0  0  0  0  0  0
    6.3120    4.3870   14.3830 C   0  0  0  0  0  0  0  0  0  0  0  0
    7.5230    4.5760   14.4120 O   0  0  0  0  0  0  0  0  0  0  0  0
    5.6730    3.7030   13.3690 N   0  0  0  0  0  0  0  0  0  0  0  0
    4.6720    3.8060   13.2690 H   0  0  0  0  0  0  0  0  0  0  0  0
    6.4110    3.2320   12.2230 C   0  0  0  0  0  0  0  0  0  0  0  0
    6.2130    3.9010   11.3820 H   0  0  0  0  0  0  0  0  0  0  0  0
    7.4820    3.2210   12.4370 H   0  0  0  0  0  0  0  0  0  0  0  0
    6.0690    2.2240   11.9810 H   0  0  0  0  0  0  0  0  0  0  0  0
   -1.1580   12.1930   19.5680 C   0  0  2  0  0  0  0  0  0  0  0  0
   -0.6780   12.2450   18.5840 H   0  0  0  0  0  0  0  0  0  0  0  0
   -0.9280   13.5340   20.2720 C   0  0  0  0  0  0  0  0  0  0  0  0
   -0.2560   14.1670   19.6810 H   0  0  0  0  0  0  0  0  0  0  0  0
   -0.4780   13.4180   21.2640 H   0  0  0  0  0  0  0  0  0  0  0  0
   -1.8650   14.0870   20.3960 H   0  0  0  0  0  0  0  0  0  0  0  0
   -2.9500   11.8890   19.3200 S   0  0  0  0  0  0  0  0  0  0  0  0
   -2.9740   11.2530   17.7140 C   0  0  0  0  0  0  0  0  0  0  0  0
   -2.0910   10.4590   17.1510 N   0  0  0  0  0  0  0  0  0  0  0  0
   -2.5210   10.2030   15.8640 N   0  0  0  0  0  0  0  0  0  0  0  0
   -3.6540   10.8480   15.6880 C   0  0  0  0  0  0  0  0  0  0  0  0
   -3.9820   11.5230   16.8240 N   0  0  0  0  0  0  0  0  0  0  0  0
   -4.2580   10.8610   14.7930 H   0  0  0  0  0  0  0  0  0  0  0  0
   -5.1470   12.3330   17.0110 N   0  0  0  0  0  0  0  0  0  0  0  0
   -4.9850   13.0130   17.7540 H   0  0  0  0  0  0  0  0  0  0  0  0
   -5.9200   11.7590   17.3490 H   0  0  0  0  0  0  0  0  0  0  0  0
  1  2  1  0  0  0  0
  2  7  1  0  0  0  0
  2  3  2  0  0  0  0
  3  8  1  0  0  0  0
  4  9  1  0  0  0  0
  4  3  1  0  0  0  0
  5  4  2  0  0  0  0
  6  1  2  0  0  0  0
  6  5  1  0  0  0  0
 10  6  1  0  0  0  0
 11 15  1  0  0  0  0
 11  5  1  0  0  0  0
 12 11  2  0  0  0  0
 13 12  1  0  0  0  0
 13 14  2  0  0  0  0
 14 15  1  0  0  0  0
 16 12  1  0  0  0  0
 17 13  1  0  0  0  0
 18 23  1  0  0  0  0
 18 17  2  0  0  0  0
 19 18  1  0  0  0  0
 20 19  2  0  0  0  0
 20 21  1  0  0  0  0
 21 22  2  0  0  0  0
 22 17  1  0  0  0  0
 22 26  1  0  0  0  0
 24 19  1  0  0  0  0
 25 21  1  0  0  0  0
 27 28  2  0  0  0  0
 27 20  1  0  0  0  0
 29 27  1  0  0  0  0
 30 29  1  0  0  0  0
 31 33  1  0  0  0  0
 31 29  1  0  0  0  0
 32 31  1  0  0  0  0
 34 31  1  0  0  0  0
 35 36  1  6  0  0  0
 35 37  1  0  0  0  0
 35  1  1  0  0  0  0
 37 40  1  0  0  0  0
 37 39  1  0  0  0  0
 38 37  1  0  0  0  0
 41 35  1  0  0  0  0
 42 41  1  0  0  0  0
 43 42  2  0  0  0  0
 44 43  1  0  0  0  0
 45 44  2  0  0  0  0
 45 46  1  0  0  0  0
 46 48  1  0  0  0  0
 46 42  1  0  0  0  0
 47 45  1  0  0  0  0
 48 50  1  0  0  0  0
 48 49  1  0  0  0  0
M  END
>  <MODEL>
3

>  <REMARK>
 VINA RESULT:    -8.466      2.480      3.036
 INTER + INTRA:         -12.667
 INTER:                 -11.831
 INTRA:                  -0.836
 UNBOUND:                -0.489
  Name = 
  9 active torsions:
  status: ('A' for Active; 'I' for Inactive)
    1  A    between atoms: C_1  and  C_2
    2  A    between atoms: C_2  and  C_3
    3  A    between atoms: C_2  and  S_24
    4  A    between atoms: C_7  and  C_9
    5  A    between atoms: C_11  and  C_14
    6  A    between atoms: C_17  and  C_20
    7  A    between atoms: N_22  and  C_23
    8  A    between atoms: S_24  and  C_25
    9  A    between atoms: N_29  and  N_30
                            x       y       z     vdW  Elec       q    Type
                         _______ _______ _______ _____ _____    ______ ____

>  <TORSDO>
F 9

$$$$
=
 OpenBabel07192307433D

 50 53  0  0  1  0  0  0  0  0999 V2000
   -0.7400   11.3580   21.0360 C   0  0  0  0  0  0  0  0  0  0  0  0
   -1.0480   11.1890   22.3940 C   0  0  0  0  0  0  0  0  0  0  0  0
   -0.6100   10.0610   23.0850 C   0  0  0  0  0  0  0  0  0  0  0  0
    0.1480    9.0870   22.4320 C   0  0  0  0  0  0  0  0  0  0  0  0
    0.4810    9.2250   21.0780 C   0  0  0  0  0  0  0  0  0  0  0  0
    0.0280   10.3670   20.3940 C   0  0  0  0  0  0  0  0  0  0  0  0
   -1.6330   11.9370   22.9250 H   0  0  0  0  0  0  0  0  0  0  0  0
   -0.8600    9.9400   24.1370 H   0  0  0  0  0  0  0  0  0  0  0  0
    0.4720    8.2190   23.0010 H   0  0  0  0  0  0  0  0  0  0  0  0
    0.2890   10.4970   19.3450 H   0  0  0  0  0  0  0  0  0  0  0  0
    1.2840    8.2080   20.4070 C   0  0  0  0  0  0  0  0  0  0  0  0
    2.0570    8.1690   19.2710 C   0  0  0  0  0  0  0  0  0  0  0  0
    2.5660    6.8440   19.2020 C   0  0  0  0  0  0  0  0  0  0  0  0
    2.1260    6.1320   20.2520 N   0  0  0  0  0  0  0  0  0  0  0  0
    1.3300    6.9790   20.9930 O   0  0  0  0  0  0  0  0  0  0  0  0
    2.2330    8.9840   18.5860 H   0  0  0  0  0  0  0  0  0  0  0  0
    3.4410    6.2540   18.1850 C   0  0  0  0  0  0  0  0  0  0  0  0
    4.2380    7.0600   17.3590 C   0  0  0  0  0  0  0  0  0  0  0  0
    5.0690    6.4850   16.3910 C   0  0  0  0  0  0  0  0  0  0  0  0
    5.1110    5.0970   16.2240 C   0  0  0  0  0  0  0  0  0  0  0  0
    4.3310    4.2820   17.0520 C   0  0  0  0  0  0  0  0  0  0  0  0
    3.5000    4.8600   18.0190 C   0  0  0  0  0  0  0  0  0  0  0  0
    4.2230    8.1430   17.4440 H   0  0  0  0  0  0  0  0  0  0  0  0
    5.6820    7.1270   15.7590 H   0  0  0  0  0  0  0  0  0  0  0  0
    4.3760    3.2000   16.9820 H   0  0  0  0  0  0  0  0  0  0  0  0
    2.9030    4.2070   18.6540 H   0  0  0  0  0  0  0  0  0  0  0  0
    6.0130    4.5350   15.1800 C   0  0  0  0  0  0  0  0  0  0  0  0
    7.2240    4.4980   15.3710 O   0  0  0  0  0  0  0  0  0  0  0  0
    5.4140    4.1130   14.0110 N   0  0  0  0  0  0  0  0  0  0  0  0
    4.4660    4.4040   13.8180 H   0  0  0  0  0  0  0  0  0  0  0  0
    6.2130    3.6660   12.8970 C   0  0  0  0  0  0  0  0  0  0  0  0
    6.5370    2.6400   13.0890 H   0  0  0  0  0  0  0  0  0  0  0  0
    5.6310    3.6970   11.9720 H   0  0  0  0  0  0  0  0  0  0  0  0
    7.0830    4.3190   12.8110 H   0  0  0  0  0  0  0  0  0  0  0  0
   -1.2220   12.6050   20.3050 C   0  0  2  0  0  0  0  0  0  0  0  0
   -0.6640   12.6790   19.3650 H   0  0  0  0  0  0  0  0  0  0  0  0
   -0.9590   13.8830   21.1080 C   0  0  0  0  0  0  0  0  0  0  0  0
    0.0130   13.8270   21.6100 H   0  0  0  0  0  0  0  0  0  0  0  0
   -1.7160   14.0580   21.8800 H   0  0  0  0  0  0  0  0  0  0  0  0
   -0.9370   14.7650   20.4600 H   0  0  0  0  0  0  0  0  0  0  0  0
   -3.0060   12.4430   19.9070 S   0  0  0  0  0  0  0  0  0  0  0  0
   -2.9550   11.4650   18.4840 C   0  0  0  0  0  0  0  0  0  0  0  0
   -3.7090   10.4280   18.1940 N   0  0  0  0  0  0  0  0  0  0  0  0
   -3.3200    9.9640   16.9530 N   0  0  0  0  0  0  0  0  0  0  0  0
   -2.3430   10.7370   16.5280 C   0  0  0  0  0  0  0  0  0  0  0  0
   -2.0770   11.6970   17.4560 N   0  0  0  0  0  0  0  0  0  0  0  0
   -1.8120   10.6500   15.5920 H   0  0  0  0  0  0  0  0  0  0  0  0
   -1.0810   12.7190   17.3430 N   0  0  0  0  0  0  0  0  0  0  0  0
   -0.6190   12.6590   16.4370 H   0  0  0  0  0  0  0  0  0  0  0  0
   -0.3390   12.5580   18.0250 H   0  0  0  0  0  0  0  0  0  0  0  0
  1  2  1  0  0  0  0
  2  7  1  0  0  0  0
  2  3  2  0  0  0  0
  3  8  1  0  0  0  0
  4  9  1  0  0  0  0
  4  3  1  0  0  0  0
  5  4  2  0  0  0  0
  6  1  2  0  0  0  0
  6  5  1  0  0  0  0
 10  6  1  0  0  0  0
 11 15  1  0  0  0  0
 11  5  1  0  0  0  0
 12 11  2  0  0  0  0
 13 12  1  0  0  0  0
 13 14  2  0  0  0  0
 14 15  1  0  0  0  0
 16 12  1  0  0  0  0
 17 13  1  0  0  0  0
 18 23  1  0  0  0  0
 18 17  2  0  0  0  0
 19 18  1  0  0  0  0
 20 19  2  0  0  0  0
 20 21  1  0  0  0  0
 21 22  2  0  0  0  0
 22 17  1  0  0  0  0
 22 26  1  0  0  0  0
 24 19  1  0  0  0  0
 25 21  1  0  0  0  0
 27 28  2  0  0  0  0
 27 20  1  0  0  0  0
 29 27  1  0  0  0  0
 30 29  1  0  0  0  0
 31 32  1  0  0  0  0
 31 29  1  0  0  0  0
 33 31  1  0  0  0  0
 34 31  1  0  0  0  0
 35 36  1  6  0  0  0
 35  1  1  0  0  0  0
 35 37  1  0  0  0  0
 37 38  1  0  0  0  0
 37 39  1  0  0  0  0
 40 37  1  0  0  0  0
 41 35  1  0  0  0  0
 42 41  1  0  0  0  0
 43 42  2  0  0  0  0
 44 43  1  0  0  0  0
 45 44  2  0  0  0  0
 45 46  1  0  0  0  0
 46 42  1  0  0  0  0
 47 45  1  0  0  0  0
 48 46  1  0  0  0  0
 48 50  1  0  0  0  0
 49 48  1  0  0  0  0
M  END
>  <MODEL>
4

>  <REMARK>
 VINA RESULT:    -8.456      2.162      2.603
 INTER + INTRA:         -12.652
 INTER:                 -12.060
 INTRA:                  -0.592
 UNBOUND:                -0.489
  Name = 
  9 active torsions:
  status: ('A' for Active; 'I' for Inactive)
    1  A    between atoms: C_1  and  C_2
    2  A    between atoms: C_2  and  C_3
    3  A    between atoms: C_2  and  S_24
    4  A    between atoms: C_7  and  C_9
    5  A    between atoms: C_11  and  C_14
    6  A    between atoms: C_17  and  C_20
    7  A    between atoms: N_22  and  C_23
    8  A    between atoms: S_24  and  C_25
    9  A    between atoms: N_29  and  N_30
                            x       y       z     vdW  Elec       q    Type
                         _______ _______ _______ _____ _____    ______ ____

>  <TORSDO>
F 9

$$$$
=
 OpenBabel07192307433D

 50 53  0  0  1  0  0  0  0  0999 V2000
    4.4500    4.9530   17.0860 C   0  0  0  0  0  0  0  0  0  0  0  0
    3.9450    3.7140   17.5080 C   0  0  0  0  0  0  0  0  0  0  0  0
    2.8680    3.6500   18.3890 C   0  0  0  0  0  0  0  0  0  0  0  0
    2.2730    4.8230   18.8590 C   0  0  0  0  0  0  0  0  0  0  0  0
    2.7460    6.0780   18.4540 C   0  0  0  0  0  0  0  0  0  0  0  0
    3.8350    6.1260   17.5680 C   0  0  0  0  0  0  0  0  0  0  0  0
    4.3890    2.7870   17.1510 H   0  0  0  0  0  0  0  0  0  0  0  0
    2.4890    2.6830   18.7120 H   0  0  0  0  0  0  0  0  0  0  0  0
    1.4360    4.7360   19.5470 H   0  0  0  0  0  0  0  0  0  0  0  0
    4.2070    7.0930   17.2320 H   0  0  0  0  0  0  0  0  0  0  0  0
    2.1100    7.2990   18.9410 C   0  0  0  0  0  0  0  0  0  0  0  0
    1.3430    7.6300   20.0330 C   0  0  0  0  0  0  0  0  0  0  0  0
    1.0530    9.0140   19.8880 C   0  0  0  0  0  0  0  0  0  0  0  0
    1.6280    9.4850   18.7700 N   0  0  0  0  0  0  0  0  0  0  0  0
    2.2780    8.4190   18.1850 O   0  0  0  0  0  0  0  0  0  0  0  0
    1.0350    6.9670   20.8270 H   0  0  0  0  0  0  0  0  0  0  0  0
    0.2610    9.8780   20.7680 C   0  0  0  0  0  0  0  0  0  0  0  0
   -0.3300   11.0550   20.2860 C   0  0  0  0  0  0  0  0  0  0  0  0
   -1.0840   11.8730   21.1360 C   0  0  0  0  0  0  0  0  0  0  0  0
   -1.2530   11.5340   22.4820 C   0  0  0  0  0  0  0  0  0  0  0  0
   -0.6800   10.3550   22.9700 C   0  0  0  0  0  0  0  0  0  0  0  0
    0.0750    9.5400   22.1180 C   0  0  0  0  0  0  0  0  0  0  0  0
   -0.2090   11.3640   19.2510 H   0  0  0  0  0  0  0  0  0  0  0  0
   -1.5360   12.7830   20.7430 H   0  0  0  0  0  0  0  0  0  0  0  0
   -0.8310   10.0370   23.9970 H   0  0  0  0  0  0  0  0  0  0  0  0
    0.5090    8.6240   22.5190 H   0  0  0  0  0  0  0  0  0  0  0  0
   -2.0650   12.4380   23.3440 C   0  0  0  0  0  0  0  0  0  0  0  0
   -1.5950   13.5020   23.7320 O   0  0  0  0  0  0  0  0  0  0  0  0
   -3.3230   11.9890   23.6930 N   0  0  0  0  0  0  0  0  0  0  0  0
   -3.5440   11.0120   23.5590 H   0  0  0  0  0  0  0  0  0  0  0  0
   -4.1370   12.7350   24.6200 C   0  0  0  0  0  0  0  0  0  0  0  0
   -5.1880   12.5830   24.3610 H   0  0  0  0  0  0  0  0  0  0  0  0
   -3.9610   12.3950   25.6430 H   0  0  0  0  0  0  0  0  0  0  0  0
   -3.8840   13.7930   24.5290 H   0  0  0  0  0  0  0  0  0  0  0  0
    5.6210    4.9960   16.1140 C   0  0  2  0  0  0  0  0  0  0  0  0
    5.6740    6.0080   15.6970 H   0  0  0  0  0  0  0  0  0  0  0  0
    5.4420    4.0180   14.9490 C   0  0  0  0  0  0  0  0  0  0  0  0
    5.9910    3.0890   15.1390 H   0  0  0  0  0  0  0  0  0  0  0  0
    5.8070    4.4230   13.9990 H   0  0  0  0  0  0  0  0  0  0  0  0
    4.3900    3.7480   14.8110 H   0  0  0  0  0  0  0  0  0  0  0  0
    7.1870    4.6590   17.0090 S   0  0  0  0  0  0  0  0  0  0  0  0
    7.6190    6.2400   17.5560 C   0  0  0  0  0  0  0  0  0  0  0  0
    7.5450    7.3690   16.8890 N   0  0  0  0  0  0  0  0  0  0  0  0
    7.9880    8.3770   17.7240 N   0  0  0  0  0  0  0  0  0  0  0  0
    8.3130    7.8250   18.8740 C   0  0  0  0  0  0  0  0  0  0  0  0
    8.0980    6.4820   18.8190 N   0  0  0  0  0  0  0  0  0  0  0  0
    8.6950    8.3310   19.7470 H   0  0  0  0  0  0  0  0  0  0  0  0
    8.3340    5.5510   19.8800 N   0  0  0  0  0  0  0  0  0  0  0  0
    7.7280    5.7620   20.6720 H   0  0  0  0  0  0  0  0  0  0  0  0
    9.2810    5.6660   20.2390 H   0  0  0  0  0  0  0  0  0  0  0  0
  1  2  2  0  0  0  0
  1  6  1  0  0  0  0
  2  3  1  0  0  0  0
  3  8  1  0  0  0  0
  3  4  2  0  0  0  0
  4  9  1  0  0  0  0
  5  4  1  0  0  0  0
  5 11  1  0  0  0  0
  6  5  2  0  0  0  0
  7  2  1  0  0  0  0
 10  6  1  0  0  0  0
 11 12  2  0  0  0  0
 12 16  1  0  0  0  0
 13 12  1  0  0  0  0
 13 17  1  0  0  0  0
 14 13  2  0  0  0  0
 15 14  1  0  0  0  0
 15 11  1  0  0  0  0
 17 22  1  0  0  0  0
 18 17  2  0  0  0  0
 18 19  1  0  0  0  0
 19 20  2  0  0  0  0
 20 21  1  0  0  0  0
 20 27  1  0  0  0  0
 21 25  1  0  0  0  0
 22 26  1  0  0  0  0
 22 21  2  0  0  0  0
 23 18  1  0  0  0  0
 24 19  1  0  0  0  0
 27 29  1  0  0  0  0
 27 28  2  0  0  0  0
 29 31  1  0  0  0  0
 30 29  1  0  0  0  0
 31 33  1  0  0  0  0
 32 31  1  0  0  0  0
 34 31  1  0  0  0  0
 35 36  1  6  0  0  0
 35 41  1  0  0  0  0
 35  1  1  0  0  0  0
 37 38  1  0  0  0  0
 37 35  1  0  0  0  0
 39 37  1  0  0  0  0
 40 37  1  0  0  0  0
 41 42  1  0  0  0  0
 42 46  1  0  0  0  0
 43 42  2  0  0  0  0
 43 44  1  0  0  0  0
 44 45  2  0  0  0  0
 45 47  1  0  0  0  0
 46 45  1  0  0  0  0
 46 48  1  0  0  0  0
 48 50  1  0  0  0  0
 48 49  1  0  0  0  0
M  END
>  <MODEL>
5

>  <REMARK>
 VINA RESULT:    -8.303      3.891      9.611
 INTER + INTRA:         -12.432
 INTER:                 -11.503
 INTRA:                  -0.929
 UNBOUND:                -0.489
  Name = 
  9 active torsions:
  status: ('A' for Active; 'I' for Inactive)
    1  A    between atoms: C_1  and  C_2
    2  A    between atoms: C_2  and  C_3
    3  A    between atoms: C_2  and  S_24
    4  A    between atoms: C_7  and  C_9
    5  A    between atoms: C_11  and  C_14
    6  A    between atoms: C_17  and  C_20
    7  A    between atoms: N_22  and  C_23
    8  A    between atoms: S_24  and  C_25
    9  A    between atoms: N_29  and  N_30
                            x       y       z     vdW  Elec       q    Type
                         _______ _______ _______ _____ _____    ______ ____

>  <TORSDO>
F 9

$$$$
=
 OpenBabel07192307433D

 50 53  0  0  1  0  0  0  0  0999 V2000
   -0.6420   10.7490   21.1740 C   0  0  0  0  0  0  0  0  0  0  0  0
   -0.6390   10.6590   22.5740 C   0  0  0  0  0  0  0  0  0  0  0  0
    0.0680    9.6470   23.2180 C   0  0  0  0  0  0  0  0  0  0  0  0
    0.7900    8.7100   22.4750 C   0  0  0  0  0  0  0  0  0  0  0  0
    0.8160    8.7720   21.0760 C   0  0  0  0  0  0  0  0  0  0  0  0
    0.0940    9.7980   20.4410 C   0  0  0  0  0  0  0  0  0  0  0  0
   -1.1900   11.3810   23.1740 H   0  0  0  0  0  0  0  0  0  0  0  0
    0.0580    9.5860   24.3040 H   0  0  0  0  0  0  0  0  0  0  0  0
    1.3280    7.9330   23.0090 H   0  0  0  0  0  0  0  0  0  0  0  0
    0.1140    9.8690   19.3540 H   0  0  0  0  0  0  0  0  0  0  0  0
    1.5830    7.7970   20.3070 C   0  0  0  0  0  0  0  0  0  0  0  0
    2.3430    7.8380   19.1620 C   0  0  0  0  0  0  0  0  0  0  0  0
    2.8130    6.5110   18.9700 C   0  0  0  0  0  0  0  0  0  0  0  0
    2.3630    5.7210   19.9570 N   0  0  0  0  0  0  0  0  0  0  0  0
    1.5990    6.5200   20.7810 O   0  0  0  0  0  0  0  0  0  0  0  0
    2.5350    8.7050   18.5490 H   0  0  0  0  0  0  0  0  0  0  0  0
    3.6600    5.9890   17.8930 C   0  0  0  0  0  0  0  0  0  0  0  0
    3.7780    4.6100   17.6690 C   0  0  0  0  0  0  0  0  0  0  0  0
    4.5910    4.1220   16.6390 C   0  0  0  0  0  0  0  0  0  0  0  0
    5.3060    5.0040   15.8210 C   0  0  0  0  0  0  0  0  0  0  0  0
    5.1840    6.3820   16.0260 C   0  0  0  0  0  0  0  0  0  0  0  0
    4.3720    6.8660   17.0590 C   0  0  0  0  0  0  0  0  0  0  0  0
    3.2530    3.8900   18.2910 H   0  0  0  0  0  0  0  0  0  0  0  0
    4.6700    3.0480   16.4790 H   0  0  0  0  0  0  0  0  0  0  0  0
    5.6870    7.0960   15.3810 H   0  0  0  0  0  0  0  0  0  0  0  0
    4.2890    7.9440   17.1980 H   0  0  0  0  0  0  0  0  0  0  0  0
    6.1560    4.4340   14.7380 C   0  0  0  0  0  0  0  0  0  0  0  0
    7.3760    4.4150   14.8620 O   0  0  0  0  0  0  0  0  0  0  0  0
    5.4970    3.9850   13.6120 N   0  0  0  0  0  0  0  0  0  0  0  0
    4.5370    4.2630   13.4670 H   0  0  0  0  0  0  0  0  0  0  0  0
    6.2390    3.5290   12.4620 C   0  0  0  0  0  0  0  0  0  0  0  0
    6.4500    2.4630   12.5840 H   0  0  0  0  0  0  0  0  0  0  0  0
    5.6600    3.6830   11.5480 H   0  0  0  0  0  0  0  0  0  0  0  0
    7.1750    4.0880   12.4090 H   0  0  0  0  0  0  0  0  0  0  0  0
   -1.4150   11.8720   20.4940 C   0  0  2  0  0  0  0  0  0  0  0  0
   -2.4560   11.5450   20.3860 H   0  0  0  0  0  0  0  0  0  0  0  0
   -0.8730   12.1810   19.0950 C   0  0  0  0  0  0  0  0  0  0  0  0
   -1.4720   11.6740   18.3310 H   0  0  0  0  0  0  0  0  0  0  0  0
    0.1650   11.8570   18.9640 H   0  0  0  0  0  0  0  0  0  0  0  0
   -0.9150   13.2530   18.8780 H   0  0  0  0  0  0  0  0  0  0  0  0
   -1.3890   13.3730   21.5480 S   0  0  0  0  0  0  0  0  0  0  0  0
   -3.0660   13.7860   21.6020 C   0  0  0  0  0  0  0  0  0  0  0  0
   -3.7120   14.6280   20.8270 N   0  0  0  0  0  0  0  0  0  0  0  0
   -5.0330   14.6350   21.2290 N   0  0  0  0  0  0  0  0  0  0  0  0
   -5.1470   13.7940   22.2340 C   0  0  0  0  0  0  0  0  0  0  0  0
   -3.9360   13.2330   22.5060 N   0  0  0  0  0  0  0  0  0  0  0  0
   -6.0470   13.5600   22.7810 H   0  0  0  0  0  0  0  0  0  0  0  0
   -3.6700   12.2700   23.5310 N   0  0  0  0  0  0  0  0  0  0  0  0
   -2.8640   12.5610   24.0830 H   0  0  0  0  0  0  0  0  0  0  0  0
   -3.3910   11.3830   23.1110 H   0  0  0  0  0  0  0  0  0  0  0  0
  1  2  1  0  0  0  0
  2  7  1  0  0  0  0
  2  3  2  0  0  0  0
  3  8  1  0  0  0  0
  4  9  1  0  0  0  0
  4  3  1  0  0  0  0
  5  4  2  0  0  0  0
  6  5  1  0  0  0  0
  6  1  2  0  0  0  0
 10  6  1  0  0  0  0
 11 15  1  0  0  0  0
 11  5  1  0  0  0  0
 12 11  2  0  0  0  0
 13 12  1  0  0  0  0
 13 14  2  0  0  0  0
 14 15  1  0  0  0  0
 16 12  1  0  0  0  0
 17 13  1  0  0  0  0
 18 17  1  0  0  0  0
 18 23  1  0  0  0  0
 19 18  2  0  0  0  0
 20 21  2  0  0  0  0
 20 19  1  0  0  0  0
 21 22  1  0  0  0  0
 22 26  1  0  0  0  0
 22 17  2  0  0  0  0
 24 19  1  0  0  0  0
 25 21  1  0  0  0  0
 27 28  2  0  0  0  0
 27 20  1  0  0  0  0
 29 27  1  0  0  0  0
 30 29  1  0  0  0  0
 31 32  1  0  0  0  0
 31 29  1  0  0  0  0
 33 31  1  0  0  0  0
 34 31  1  0  0  0  0
 35 36  1  6  0  0  0
 35  1  1  0  0  0  0
 35 41  1  0  0  0  0
 37 35  1  0  0  0  0
 38 37  1  0  0  0  0
 39 37  1  0  0  0  0
 40 37  1  0  0  0  0
 41 42  1  0  0  0  0
 42 46  1  0  0  0  0
 43 44  1  0  0  0  0
 43 42  2  0  0  0  0
 44 45  2  0  0  0  0
 45 46  1  0  0  0  0
 45 47  1  0  0  0  0
 46 48  1  0  0  0  0
 48 49  1  0  0  0  0
 50 48  1  0  0  0  0
M  END
>  <MODEL>
6

>  <REMARK>
 VINA RESULT:    -7.933      2.476      3.425
 INTER + INTRA:         -11.900
 INTER:                 -11.065
 INTRA:                  -0.836
 UNBOUND:                -0.489
  Name = 
  9 active torsions:
  status: ('A' for Active; 'I' for Inactive)
    1  A    between atoms: C_1  and  C_2
    2  A    between atoms: C_2  and  C_3
    3  A    between atoms: C_2  and  S_24
    4  A    between atoms: C_7  and  C_9
    5  A    between atoms: C_11  and  C_14
    6  A    between atoms: C_17  and  C_20
    7  A    between atoms: N_22  and  C_23
    8  A    between atoms: S_24  and  C_25
    9  A    between atoms: N_29  and  N_30
                            x       y       z     vdW  Elec       q    Type
                         _______ _______ _______ _____ _____    ______ ____

>  <TORSDO>
F 9

$$$$
=
 OpenBabel07192307433D

 50 53  0  0  1  0  0  0  0  0999 V2000
    4.1700    4.9920   17.5020 C   0  0  0  0  0  0  0  0  0  0  0  0
    4.7890    5.7880   16.5280 C   0  0  0  0  0  0  0  0  0  0  0  0
    4.5470    7.1590   16.4720 C   0  0  0  0  0  0  0  0  0  0  0  0
    3.6860    7.7590   17.3940 C   0  0  0  0  0  0  0  0  0  0  0  0
    3.0540    6.9970   18.3860 C   0  0  0  0  0  0  0  0  0  0  0  0
    3.3060    5.6150   18.4260 C   0  0  0  0  0  0  0  0  0  0  0  0
    5.4680    5.3440   15.8030 H   0  0  0  0  0  0  0  0  0  0  0  0
    5.0310    7.7640   15.7080 H   0  0  0  0  0  0  0  0  0  0  0  0
    3.5180    8.8300   17.3210 H   0  0  0  0  0  0  0  0  0  0  0  0
    2.8340    5.0090   19.1980 H   0  0  0  0  0  0  0  0  0  0  0  0
    2.1650    7.6340   19.3530 C   0  0  0  0  0  0  0  0  0  0  0  0
    1.4810    8.8250   19.4110 C   0  0  0  0  0  0  0  0  0  0  0  0
    0.7950    8.8090   20.6550 C   0  0  0  0  0  0  0  0  0  0  0  0
    1.0500    7.6610   21.3010 N   0  0  0  0  0  0  0  0  0  0  0  0
    1.9020    6.9380   20.4930 O   0  0  0  0  0  0  0  0  0  0  0  0
    1.4740    9.5990   18.6590 H   0  0  0  0  0  0  0  0  0  0  0  0
   -0.0770    9.8370   21.2290 C   0  0  0  0  0  0  0  0  0  0  0  0
   -0.3940    9.8370   22.5960 C   0  0  0  0  0  0  0  0  0  0  0  0
   -1.2290   10.8230   23.1340 C   0  0  0  0  0  0  0  0  0  0  0  0
   -1.7700   11.8200   22.3160 C   0  0  0  0  0  0  0  0  0  0  0  0
   -1.4490   11.8380   20.9540 C   0  0  0  0  0  0  0  0  0  0  0  0
   -0.6150   10.8500   20.4180 C   0  0  0  0  0  0  0  0  0  0  0  0
   -0.0090    9.0710   23.2640 H   0  0  0  0  0  0  0  0  0  0  0  0
   -1.4620   10.8070   24.1980 H   0  0  0  0  0  0  0  0  0  0  0  0
   -1.8120   12.6250   20.2990 H   0  0  0  0  0  0  0  0  0  0  0  0
   -0.3760   10.8850   19.3560 H   0  0  0  0  0  0  0  0  0  0  0  0
   -2.6510   12.8470   22.9380 C   0  0  0  0  0  0  0  0  0  0  0  0
   -2.2160   13.9690   23.1710 O   0  0  0  0  0  0  0  0  0  0  0  0
   -3.9330   12.4460   23.2560 N   0  0  0  0  0  0  0  0  0  0  0  0
   -4.1420   11.4580   23.2780 H   0  0  0  0  0  0  0  0  0  0  0  0
   -4.8210   13.3300   23.9700 C   0  0  0  0  0  0  0  0  0  0  0  0
   -5.4870   13.8110   23.2490 H   0  0  0  0  0  0  0  0  0  0  0  0
   -5.4150   12.7710   24.6970 H   0  0  0  0  0  0  0  0  0  0  0  0
   -4.2220   14.0860   24.4800 H   0  0  0  0  0  0  0  0  0  0  0  0
    4.4590    3.4980   17.5480 C   0  0  2  0  0  0  0  0  0  0  0  0
    5.0510    3.2980   18.4490 H   0  0  0  0  0  0  0  0  0  0  0  0
    5.2730    3.0290   16.3380 C   0  0  0  0  0  0  0  0  0  0  0  0
    5.4040    1.9410   16.3620 H   0  0  0  0  0  0  0  0  0  0  0  0
    6.2720    3.4770   16.3040 H   0  0  0  0  0  0  0  0  0  0  0  0
    4.7690    3.2730   15.3980 H   0  0  0  0  0  0  0  0  0  0  0  0
    2.8860    2.5620   17.6740 S   0  0  0  0  0  0  0  0  0  0  0  0
    2.6210    2.5590   19.3810 C   0  0  0  0  0  0  0  0  0  0  0  0
    3.5250    2.5660   20.3350 N   0  0  0  0  0  0  0  0  0  0  0  0
    2.8560    2.5680   21.5430 N   0  0  0  0  0  0  0  0  0  0  0  0
    1.5660    2.5660   21.2830 C   0  0  0  0  0  0  0  0  0  0  0  0
    1.3670    2.5620   19.9360 N   0  0  0  0  0  0  0  0  0  0  0  0
    0.7620    2.5680   22.0040 H   0  0  0  0  0  0  0  0  0  0  0  0
    0.0960    2.5610   19.2770 N   0  0  0  0  0  0  0  0  0  0  0  0
   -0.0150    1.7060   18.7320 H   0  0  0  0  0  0  0  0  0  0  0  0
    0.0600    3.3140   18.5900 H   0  0  0  0  0  0  0  0  0  0  0  0
  1 35  1  0  0  0  0
  1  6  1  0  0  0  0
  2  1  2  0  0  0  0
  3  2  1  0  0  0  0
  3  4  2  0  0  0  0
  4  5  1  0  0  0  0
  5  6  2  0  0  0  0
  5 11  1  0  0  0  0
  6 10  1  0  0  0  0
  7  2  1  0  0  0  0
  8  3  1  0  0  0  0
  9  4  1  0  0  0  0
 11 12  2  0  0  0  0
 11 15  1  0  0  0  0
 12 13  1  0  0  0  0
 13 17  1  0  0  0  0
 13 14  2  0  0  0  0
 15 14  1  0  0  0  0
 16 12  1  0  0  0  0
 17 18  1  0  0  0  0
 18 19  2  0  0  0  0
 18 23  1  0  0  0  0
 19 24  1  0  0  0  0
 20 27  1  0  0  0  0
 20 19  1  0  0  0  0
 21 20  2  0  0  0  0
 22 21  1  0  0  0  0
 22 17  2  0  0  0  0
 25 21  1  0  0  0  0
 26 22  1  0  0  0  0
 27 28  2  0  0  0  0
 27 29  1  0  0  0  0
 29 30  1  0  0  0  0
 29 31  1  0  0  0  0
 31 34  1  0  0  0  0
 31 33  1  0  0  0  0
 32 31  1  0  0  0  0
 35 41  1  0  0  0  0
 35 36  1  1  0  0  0
 37 38  1  0  0  0  0
 37 35  1  0  0  0  0
 39 37  1  0  0  0  0
 40 37  1  0  0  0  0
 41 42  1  0  0  0  0
 42 46  1  0  0  0  0
 42 43  2  0  0  0  0
 43 44  1  0  0  0  0
 45 44  2  0  0  0  0
 45 47  1  0  0  0  0
 46 45  1  0  0  0  0
 48 46  1  0  0  0  0
 49 48  1  0  0  0  0
 50 48  1  0  0  0  0
M  END
>  <MODEL>
7

>  <REMARK>
 VINA RESULT:    -7.775      4.020     10.180
 INTER + INTRA:         -11.674
 INTER:                 -10.944
 INTRA:                  -0.729
 UNBOUND:                -0.489
  Name = 
  9 active torsions:
  status: ('A' for Active; 'I' for Inactive)
    1  A    between atoms: C_1  and  C_2
    2  A    between atoms: C_2  and  C_3
    3  A    between atoms: C_2  and  S_24
    4  A    between atoms: C_7  and  C_9
    5  A    between atoms: C_11  and  C_14
    6  A    between atoms: C_17  and  C_20
    7  A    between atoms: N_22  and  C_23
    8  A    between atoms: S_24  and  C_25
    9  A    between atoms: N_29  and  N_30
                            x       y       z     vdW  Elec       q    Type
                         _______ _______ _______ _____ _____    ______ ____

>  <TORSDO>
F 9

$$$$
=
 OpenBabel07192307433D

 50 53  0  0  1  0  0  0  0  0999 V2000
    4.6340    5.0850   16.6600 C   0  0  0  0  0  0  0  0  0  0  0  0
    4.3710    3.8570   17.2870 C   0  0  0  0  0  0  0  0  0  0  0  0
    3.4800    3.7820   18.3550 C   0  0  0  0  0  0  0  0  0  0  0  0
    2.8300    4.9300   18.8100 C   0  0  0  0  0  0  0  0  0  0  0  0
    3.0610    6.1730   18.2050 C   0  0  0  0  0  0  0  0  0  0  0  0
    3.9660    6.2330   17.1320 C   0  0  0  0  0  0  0  0  0  0  0  0
    4.8620    2.9480   16.9450 H   0  0  0  0  0  0  0  0  0  0  0  0
    3.2900    2.8240   18.8340 H   0  0  0  0  0  0  0  0  0  0  0  0
    2.1420    4.8360   19.6460 H   0  0  0  0  0  0  0  0  0  0  0  0
    4.1480    7.1880   16.6410 H   0  0  0  0  0  0  0  0  0  0  0  0
    2.3680    7.3670   18.6800 C   0  0  0  0  0  0  0  0  0  0  0  0
    1.6530    7.6950   19.8080 C   0  0  0  0  0  0  0  0  0  0  0  0
    1.2490    9.0450   19.6220 C   0  0  0  0  0  0  0  0  0  0  0  0
    1.7090    9.5000   18.4460 N   0  0  0  0  0  0  0  0  0  0  0  0
    2.3980    8.4570   17.8650 O   0  0  0  0  0  0  0  0  0  0  0  0
    1.4520    7.0520   20.6510 H   0  0  0  0  0  0  0  0  0  0  0  0
    0.4540    9.8910   20.5160 C   0  0  0  0  0  0  0  0  0  0  0  0
    0.1670    9.4880   21.8290 C   0  0  0  0  0  0  0  0  0  0  0  0
   -0.5940   10.3040   22.6740 C   0  0  0  0  0  0  0  0  0  0  0  0
   -1.0890   11.5310   22.2210 C   0  0  0  0  0  0  0  0  0  0  0  0
   -0.7960   11.9500   20.9180 C   0  0  0  0  0  0  0  0  0  0  0  0
   -0.0360   11.1310   20.0740 C   0  0  0  0  0  0  0  0  0  0  0  0
    0.5180    8.5350   22.2160 H   0  0  0  0  0  0  0  0  0  0  0  0
   -0.8060    9.9750   23.6910 H   0  0  0  0  0  0  0  0  0  0  0  0
   -1.1230   12.9170   20.5490 H   0  0  0  0  0  0  0  0  0  0  0  0
    0.1820   11.4780   19.0650 H   0  0  0  0  0  0  0  0  0  0  0  0
   -1.8920   12.3630   23.1600 C   0  0  0  0  0  0  0  0  0  0  0  0
   -1.4130   13.3860   23.6370 O   0  0  0  0  0  0  0  0  0  0  0  0
   -3.1520   11.8950   23.4730 N   0  0  0  0  0  0  0  0  0  0  0  0
   -3.3820   10.9350   23.2560 H   0  0  0  0  0  0  0  0  0  0  0  0
   -3.9580   12.5640   24.4630 C   0  0  0  0  0  0  0  0  0  0  0  0
   -3.8170   12.0630   25.4250 H   0  0  0  0  0  0  0  0  0  0  0  0
   -3.6620   13.6130   24.5520 H   0  0  0  0  0  0  0  0  0  0  0  0
   -5.0050   12.4970   24.1620 H   0  0  0  0  0  0  0  0  0  0  0  0
    5.6050    5.1390   15.4890 C   0  0  2  0  0  0  0  0  0  0  0  0
    5.7640    6.1930   15.2330 H   0  0  0  0  0  0  0  0  0  0  0  0
    5.0520    4.4340   14.2460 C   0  0  0  0  0  0  0  0  0  0  0  0
    4.3370    3.6550   14.5340 H   0  0  0  0  0  0  0  0  0  0  0  0
    5.8350    3.9540   13.6510 H   0  0  0  0  0  0  0  0  0  0  0  0
    4.5210    5.1330   13.5920 H   0  0  0  0  0  0  0  0  0  0  0  0
    7.2170    4.4160   15.9820 S   0  0  0  0  0  0  0  0  0  0  0  0
    7.4680    5.1510   17.5250 C   0  0  0  0  0  0  0  0  0  0  0  0
    7.5440    4.5580   18.6950 N   0  0  0  0  0  0  0  0  0  0  0  0
    7.7580    5.5360   19.6460 N   0  0  0  0  0  0  0  0  0  0  0  0
    7.8090    6.6930   19.0200 C   0  0  0  0  0  0  0  0  0  0  0  0
    7.6330    6.5040   17.6840 N   0  0  0  0  0  0  0  0  0  0  0  0
    7.9650    7.6630   19.4680 H   0  0  0  0  0  0  0  0  0  0  0  0
    7.6290    7.5290   16.6850 N   0  0  0  0  0  0  0  0  0  0  0  0
    8.5140    8.0340   16.6980 H   0  0  0  0  0  0  0  0  0  0  0  0
    6.9240    8.2320   16.9100 H   0  0  0  0  0  0  0  0  0  0  0  0
  1  6  2  0  0  0  0
  1  2  1  0  0  0  0
  2  3  2  0  0  0  0
  3  4  1  0  0  0  0
  3  8  1  0  0  0  0
  4  9  1  0  0  0  0
  5 11  1  0  0  0  0
  5  4  2  0  0  0  0
  6  5  1  0  0  0  0
  7  2  1  0  0  0  0
 10  6  1  0  0  0  0
 11 12  2  0  0  0  0
 12 16  1  0  0  0  0
 13 12  1  0  0  0  0
 13 17  1  0  0  0  0
 14 13  2  0  0  0  0
 15 14  1  0  0  0  0
 15 11  1  0  0  0  0
 17 18  1  0  0  0  0
 18 23  1  0  0  0  0
 18 19  2  0  0  0  0
 19 24  1  0  0  0  0
 20 19  1  0  0  0  0
 20 27  1  0  0  0  0
 21 20  2  0  0  0  0
 22 17  2  0  0  0  0
 22 21  1  0  0  0  0
 25 21  1  0  0  0  0
 26 22  1  0  0  0  0
 27 29  1  0  0  0  0
 27 28  2  0  0  0  0
 29 31  1  0  0  0  0
 30 29  1  0  0  0  0
 31 33  1  0  0  0  0
 31 32  1  0  0  0  0
 34 31  1  0  0  0  0
 35 36  1  6  0  0  0
 35 41  1  0  0  0  0
 35  1  1  0  0  0  0
 37 38  1  0  0  0  0
 37 35  1  0  0  0  0
 39 37  1  0  0  0  0
 40 37  1  0  0  0  0
 41 42  1  0  0  0  0
 42 46  1  0  0  0  0
 42 43  2  0  0  0  0
 43 44  1  0  0  0  0
 45 47  1  0  0  0  0
 45 44  2  0  0  0  0
 46 45  1  0  0  0  0
 48 49  1  0  0  0  0
 48 50  1  0  0  0  0
 48 46  1  0  0  0  0
M  END
>  <MODEL>
8

>  <REMARK>
 VINA RESULT:    -7.660      3.752      9.718
 INTER + INTRA:         -11.507
 INTER:                 -10.728
 INTRA:                  -0.780
 UNBOUND:                -0.489
  Name = 
  9 active torsions:
  status: ('A' for Active; 'I' for Inactive)
    1  A    between atoms: C_1  and  C_2
    2  A    between atoms: C_2  and  C_3
    3  A    between atoms: C_2  and  S_24
    4  A    between atoms: C_7  and  C_9
    5  A    between atoms: C_11  and  C_14
    6  A    between atoms: C_17  and  C_20
    7  A    between atoms: N_22  and  C_23
    8  A    between atoms: S_24  and  C_25
    9  A    between atoms: N_29  and  N_30
                            x       y       z     vdW  Elec       q    Type
                         _______ _______ _______ _____ _____    ______ ____

>  <TORSDO>
F 9

$$$$
=
 OpenBabel07192307433D

 50 53  0  0  1  0  0  0  0  0999 V2000
    4.4770    5.6160   18.4430 C   0  0  0  0  0  0  0  0  0  0  0  0
    4.9810    5.8170   17.1500 C   0  0  0  0  0  0  0  0  0  0  0  0
    4.5010    6.8550   16.3550 C   0  0  0  0  0  0  0  0  0  0  0  0
    3.5140    7.7150   16.8410 C   0  0  0  0  0  0  0  0  0  0  0  0
    2.9910    7.5490   18.1300 C   0  0  0  0  0  0  0  0  0  0  0  0
    3.4830    6.4940   18.9180 C   0  0  0  0  0  0  0  0  0  0  0  0
    5.7550    5.1630   16.7520 H   0  0  0  0  0  0  0  0  0  0  0  0
    4.8970    6.9960   15.3510 H   0  0  0  0  0  0  0  0  0  0  0  0
    3.1610    8.5120   16.1930 H   0  0  0  0  0  0  0  0  0  0  0  0
    3.0980    6.3590   19.9280 H   0  0  0  0  0  0  0  0  0  0  0  0
    1.9680    8.4600   18.6350 C   0  0  0  0  0  0  0  0  0  0  0  0
    1.5230    8.8320   19.8820 C   0  0  0  0  0  0  0  0  0  0  0  0
    0.4850    9.7740   19.6490 C   0  0  0  0  0  0  0  0  0  0  0  0
    0.3260    9.9610   18.3300 N   0  0  0  0  0  0  0  0  0  0  0  0
    1.2440    9.1430   17.7050 O   0  0  0  0  0  0  0  0  0  0  0  0
    1.8960    8.4760   20.8290 H   0  0  0  0  0  0  0  0  0  0  0  0
   -0.3410   10.4830   20.6310 C   0  0  0  0  0  0  0  0  0  0  0  0
   -1.2060   11.5150   20.2390 C   0  0  0  0  0  0  0  0  0  0  0  0
   -1.9890   12.1870   21.1850 C   0  0  0  0  0  0  0  0  0  0  0  0
   -1.9140   11.8450   22.5390 C   0  0  0  0  0  0  0  0  0  0  0  0
   -1.0660   10.8080   22.9400 C   0  0  0  0  0  0  0  0  0  0  0  0
   -0.2830   10.1390   21.9920 C   0  0  0  0  0  0  0  0  0  0  0  0
   -1.2810   11.8230   19.2000 H   0  0  0  0  0  0  0  0  0  0  0  0
   -2.6560   12.9850   20.8610 H   0  0  0  0  0  0  0  0  0  0  0  0
   -1.0190   10.4850   23.9750 H   0  0  0  0  0  0  0  0  0  0  0  0
    0.3690    9.3320   22.3260 H   0  0  0  0  0  0  0  0  0  0  0  0
   -2.7700   12.5900   23.5060 C   0  0  0  0  0  0  0  0  0  0  0  0
   -2.4220   13.6940   23.9090 O   0  0  0  0  0  0  0  0  0  0  0  0
   -3.9180   11.9520   23.9290 N   0  0  0  0  0  0  0  0  0  0  0  0
   -4.0120   10.9590   23.7650 H   0  0  0  0  0  0  0  0  0  0  0  0
   -4.7470   12.5380   24.9530 C   0  0  0  0  0  0  0  0  0  0  0  0
   -5.4110   11.7650   25.3490 H   0  0  0  0  0  0  0  0  0  0  0  0
   -4.1310   12.9380   25.7620 H   0  0  0  0  0  0  0  0  0  0  0  0
   -5.3390   13.3380   24.5040 H   0  0  0  0  0  0  0  0  0  0  0  0
    5.0250    4.4800   19.2960 C   0  0  2  0  0  0  0  0  0  0  0  0
    4.7630    4.6880   20.3400 H   0  0  0  0  0  0  0  0  0  0  0  0
    6.5510    4.3750   19.2080 C   0  0  0  0  0  0  0  0  0  0  0  0
    7.0120    5.3580   19.3520 H   0  0  0  0  0  0  0  0  0  0  0  0
    6.8910    3.9940   18.2390 H   0  0  0  0  0  0  0  0  0  0  0  0
    6.9520    3.7130   19.9820 H   0  0  0  0  0  0  0  0  0  0  0  0
    4.2360    2.8970   18.8090 S   0  0  0  0  0  0  0  0  0  0  0  0
    2.7540    2.9620   19.6950 C   0  0  0  0  0  0  0  0  0  0  0  0
    2.5640    2.6810   20.9640 N   0  0  0  0  0  0  0  0  0  0  0  0
    1.2250    2.8800   21.2390 N   0  0  0  0  0  0  0  0  0  0  0  0
    0.6460    3.2800   20.1270 C   0  0  0  0  0  0  0  0  0  0  0  0
    1.5670    3.3480   19.1260 N   0  0  0  0  0  0  0  0  0  0  0  0
   -0.3960    3.5240   19.9930 H   0  0  0  0  0  0  0  0  0  0  0  0
    1.3100    3.7460   17.7760 N   0  0  0  0  0  0  0  0  0  0  0  0
    0.3640    3.4790   17.5060 H   0  0  0  0  0  0  0  0  0  0  0  0
    1.9170    3.2300   17.1390 H   0  0  0  0  0  0  0  0  0  0  0  0
  1  6  1  0  0  0  0
  1 35  1  0  0  0  0
  2  1  2  0  0  0  0
  3  4  2  0  0  0  0
  3  2  1  0  0  0  0
  4  5  1  0  0  0  0
  5 11  1  0  0  0  0
  5  6  2  0  0  0  0
  6 10  1  0  0  0  0
  7  2  1  0  0  0  0
  8  3  1  0  0  0  0
  9  4  1  0  0  0  0
 11 12  2  0  0  0  0
 12 16  1  0  0  0  0
 13 12  1  0  0  0  0
 13 17  1  0  0  0  0
 14 13  2  0  0  0  0
 15 14  1  0  0  0  0
 15 11  1  0  0  0  0
 17 22  1  0  0  0  0
 18 17  2  0  0  0  0
 18 19  1  0  0  0  0
 19 20  2  0  0  0  0
 20 21  1  0  0  0  0
 20 27  1  0  0  0  0
 21 25  1  0  0  0  0
 22 26  1  0  0  0  0
 22 21  2  0  0  0  0
 23 18  1  0  0  0  0
 24 19  1  0  0  0  0
 27 28  2  0  0  0  0
 27 29  1  0  0  0  0
 29 31  1  0  0  0  0
 30 29  1  0  0  0  0
 31 32  1  0  0  0  0
 31 33  1  0  0  0  0
 34 31  1  0  0  0  0
 35 36  1  1  0  0  0
 37 35  1  0  0  0  0
 37 38  1  0  0  0  0
 37 40  1  0  0  0  0
 39 37  1  0  0  0  0
 41 35  1  0  0  0  0
 41 42  1  0  0  0  0
 42 43  2  0  0  0  0
 43 44  1  0  0  0  0
 45 44  2  0  0  0  0
 46 42  1  0  0  0  0
 46 45  1  0  0  0  0
 47 45  1  0  0  0  0
 48 46  1  0  0  0  0
 49 48  1  0  0  0  0
 50 48  1  0  0  0  0
M  END
>  <MODEL>
9

>  <REMARK>
 VINA RESULT:    -7.654      3.656     10.097
 INTER + INTRA:         -11.499
 INTER:                 -10.442
 INTRA:                  -1.057
 UNBOUND:                -0.489
  Name = 
  9 active torsions:
  status: ('A' for Active; 'I' for Inactive)
    1  A    between atoms: C_1  and  C_2
    2  A    between atoms: C_2  and  C_3
    3  A    between atoms: C_2  and  S_24
    4  A    between atoms: C_7  and  C_9
    5  A    between atoms: C_11  and  C_14
    6  A    between atoms: C_17  and  C_20
    7  A    between atoms: N_22  and  C_23
    8  A    between atoms: S_24  and  C_25
    9  A    between atoms: N_29  and  N_30
                            x       y       z     vdW  Elec       q    Type
                         _______ _______ _______ _____ _____    ______ ____

>  <TORSDO>
F 9

$$$$
=
 OpenBabel07192307433D

 50 53  0  0  1  0  0  0  0  0999 V2000
   -1.0230   11.1600   22.1310 C   0  0  0  0  0  0  0  0  0  0  0  0
   -0.9290   10.4950   23.3630 C   0  0  0  0  0  0  0  0  0  0  0  0
   -0.1630    9.3390   23.4890 C   0  0  0  0  0  0  0  0  0  0  0  0
    0.5290    8.8300   22.3880 C   0  0  0  0  0  0  0  0  0  0  0  0
    0.4650    9.4700   21.1430 C   0  0  0  0  0  0  0  0  0  0  0  0
   -0.3150   10.6340   21.0320 C   0  0  0  0  0  0  0  0  0  0  0  0
   -1.4550   10.8760   24.2360 H   0  0  0  0  0  0  0  0  0  0  0  0
   -0.1040    8.8310   24.4490 H   0  0  0  0  0  0  0  0  0  0  0  0
    1.1150    7.9250   22.5210 H   0  0  0  0  0  0  0  0  0  0  0  0
   -0.3650   11.1520   20.0750 H   0  0  0  0  0  0  0  0  0  0  0  0
    1.2020    8.9390   20.0000 C   0  0  0  0  0  0  0  0  0  0  0  0
    1.9900    7.8350   19.7770 C   0  0  0  0  0  0  0  0  0  0  0  0
    2.3980    7.9280   18.4190 C   0  0  0  0  0  0  0  0  0  0  0  0
    1.8700    9.0270   17.8590 N   0  0  0  0  0  0  0  0  0  0  0  0
    1.1330    9.6520   18.8420 O   0  0  0  0  0  0  0  0  0  0  0  0
    2.2360    7.0660   20.4920 H   0  0  0  0  0  0  0  0  0  0  0  0
    3.2580    7.0160   17.6590 C   0  0  0  0  0  0  0  0  0  0  0  0
    4.2210    7.5050   16.7640 C   0  0  0  0  0  0  0  0  0  0  0  0
    5.0360    6.6250   16.0430 C   0  0  0  0  0  0  0  0  0  0  0  0
    4.8980    5.2420   16.1970 C   0  0  0  0  0  0  0  0  0  0  0  0
    3.9510    4.7430   17.0970 C   0  0  0  0  0  0  0  0  0  0  0  0
    3.1350    5.6250   17.8160 C   0  0  0  0  0  0  0  0  0  0  0  0
    4.3490    8.5720   16.6030 H   0  0  0  0  0  0  0  0  0  0  0  0
    5.7790    7.0240   15.3540 H   0  0  0  0  0  0  0  0  0  0  0  0
    3.8500    3.6770   17.2770 H   0  0  0  0  0  0  0  0  0  0  0  0
    2.4070    5.2150   18.5140 H   0  0  0  0  0  0  0  0  0  0  0  0
    5.7910    4.3480   15.4070 C   0  0  0  0  0  0  0  0  0  0  0  0
    6.7200    3.7680   15.9580 O   0  0  0  0  0  0  0  0  0  0  0  0
    5.5300    4.2560   14.0560 N   0  0  0  0  0  0  0  0  0  0  0  0
    4.9270    4.9450   13.6280 H   0  0  0  0  0  0  0  0  0  0  0  0
    6.4100    3.5120   13.1880 C   0  0  0  0  0  0  0  0  0  0  0  0
    6.6550    2.5620   13.6710 H   0  0  0  0  0  0  0  0  0  0  0  0
    5.9270    3.3190   12.2280 H   0  0  0  0  0  0  0  0  0  0  0  0
    7.3210    4.0950   13.0370 H   0  0  0  0  0  0  0  0  0  0  0  0
   -1.8580   12.4280   22.0220 C   0  0  2  0  0  0  0  0  0  0  0  0
   -1.2420   13.2670   22.3660 H   0  0  0  0  0  0  0  0  0  0  0  0
   -3.1100   12.3740   22.9040 C   0  0  0  0  0  0  0  0  0  0  0  0
   -2.8330   12.2250   23.9540 H   0  0  0  0  0  0  0  0  0  0  0  0
   -3.7850   11.5570   22.6270 H   0  0  0  0  0  0  0  0  0  0  0  0
   -3.6790   13.3070   22.8490 H   0  0  0  0  0  0  0  0  0  0  0  0
   -2.3120   12.7260   20.2690 S   0  0  0  0  0  0  0  0  0  0  0  0
   -0.9810   13.6850   19.7260 C   0  0  0  0  0  0  0  0  0  0  0  0
   -0.2990   14.5750   20.4120 N   0  0  0  0  0  0  0  0  0  0  0  0
    0.6760   15.0860   19.5780 N   0  0  0  0  0  0  0  0  0  0  0  0
    0.5560   14.4850   18.4130 C   0  0  0  0  0  0  0  0  0  0  0  0
   -0.4720   13.5940   18.4560 N   0  0  0  0  0  0  0  0  0  0  0  0
    1.1640   14.6510   17.5360 H   0  0  0  0  0  0  0  0  0  0  0  0
   -0.9000   12.7550   17.3790 N   0  0  0  0  0  0  0  0  0  0  0  0
   -1.5430   12.0430   17.7230 H   0  0  0  0  0  0  0  0  0  0  0  0
   -0.1060   12.2310   17.0090 H   0  0  0  0  0  0  0  0  0  0  0  0
  1  2  1  0  0  0  0
  2  3  2  0  0  0  0
  2  7  1  0  0  0  0
  3  8  1  0  0  0  0
  4  9  1  0  0  0  0
  4  3  1  0  0  0  0
  5  4  2  0  0  0  0
  6  5  1  0  0  0  0
  6  1  2  0  0  0  0
 10  6  1  0  0  0  0
 11  5  1  0  0  0  0
 12 11  2  0  0  0  0
 12 16  1  0  0  0  0
 13 12  1  0  0  0  0
 14 13  2  0  0  0  0
 14 15  1  0  0  0  0
 15 11  1  0  0  0  0
 17 22  1  0  0  0  0
 17 13  1  0  0  0  0
 18 17  2  0  0  0  0
 19 20  2  0  0  0  0
 19 18  1  0  0  0  0
 20 21  1  0  0  0  0
 21 25  1  0  0  0  0
 21 22  2  0  0  0  0
 22 26  1  0  0  0  0
 23 18  1  0  0  0  0
 24 19  1  0  0  0  0
 27 28  2  0  0  0  0
 27 20  1  0  0  0  0
 29 27  1  0  0  0  0
 30 29  1  0  0  0  0
 31 32  1  0  0  0  0
 31 29  1  0  0  0  0
 33 31  1  0  0  0  0
 34 31  1  0  0  0  0
 35  1  1  0  0  0  0
 35 36  1  1  0  0  0
 35 37  1  0  0  0  0
 37 38  1  0  0  0  0
 39 37  1  0  0  0  0
 40 37  1  0  0  0  0
 41 35  1  0  0  0  0
 42 41  1  0  0  0  0
 42 43  2  0  0  0  0
 44 43  1  0  0  0  0
 45 46  1  0  0  0  0
 45 44  2  0  0  0  0
 46 42  1  0  0  0  0
 47 45  1  0  0  0  0
 48 49  1  0  0  0  0
 48 46  1  0  0  0  0
 50 48  1  0  0  0  0
M  END
>  <MODEL>
10

>  <REMARK>
 VINA RESULT:    -7.625      1.548      1.736
 INTER + INTRA:         -11.458
 INTER:                 -10.628
 INTRA:                  -0.830
 UNBOUND:                -0.489
  Name = 
  9 active torsions:
  status: ('A' for Active; 'I' for Inactive)
    1  A    between atoms: C_1  and  C_2
    2  A    between atoms: C_2  and  C_3
    3  A    between atoms: C_2  and  S_24
    4  A    between atoms: C_7  and  C_9
    5  A    between atoms: C_11  and  C_14
    6  A    between atoms: C_17  and  C_20
    7  A    between atoms: N_22  and  C_23
    8  A    between atoms: S_24  and  C_25
    9  A    between atoms: N_29  and  N_30
                            x       y       z     vdW  Elec       q    Type
                         _______ _______ _______ _____ _____    ______ ____

>  <TORSDO>
F 9

$$$$
=
 OpenBabel07192307433D

 50 53  0  0  1  0  0  0  0  0999 V2000
    3.6350    5.0340   18.6810 C   0  0  0  0  0  0  0  0  0  0  0  0
    3.2530    3.9760   19.5180 C   0  0  0  0  0  0  0  0  0  0  0  0
    2.3640    4.1880   20.5690 C   0  0  0  0  0  0  0  0  0  0  0  0
    1.8350    5.4600   20.7970 C   0  0  0  0  0  0  0  0  0  0  0  0
    2.1890    6.5400   19.9780 C   0  0  0  0  0  0  0  0  0  0  0  0
    3.0900    6.3100   18.9240 C   0  0  0  0  0  0  0  0  0  0  0  0
    3.6470    2.9740   19.3560 H   0  0  0  0  0  0  0  0  0  0  0  0
    2.0800    3.3590   21.2140 H   0  0  0  0  0  0  0  0  0  0  0  0
    1.1460    5.5910   21.6270 H   0  0  0  0  0  0  0  0  0  0  0  0
    3.3650    7.1360   18.2690 H   0  0  0  0  0  0  0  0  0  0  0  0
    1.6220    7.8650   20.2160 C   0  0  0  0  0  0  0  0  0  0  0  0
    1.0480    8.5000   21.2910 C   0  0  0  0  0  0  0  0  0  0  0  0
    0.7110    9.8010   20.8280 C   0  0  0  0  0  0  0  0  0  0  0  0
    1.0760    9.9360   19.5440 N   0  0  0  0  0  0  0  0  0  0  0  0
    1.6370    8.7340   19.1670 O   0  0  0  0  0  0  0  0  0  0  0  0
    0.8940    8.0860   22.2750 H   0  0  0  0  0  0  0  0  0  0  0  0
    0.0650   10.8920   21.5620 C   0  0  0  0  0  0  0  0  0  0  0  0
   -0.8660   10.6300   22.5780 C   0  0  0  0  0  0  0  0  0  0  0  0
   -1.4780   11.6800   23.2730 C   0  0  0  0  0  0  0  0  0  0  0  0
   -1.1770   13.0100   22.9580 C   0  0  0  0  0  0  0  0  0  0  0  0
   -0.2390   13.2830   21.9570 C   0  0  0  0  0  0  0  0  0  0  0  0
    0.3700   12.2300   21.2630 C   0  0  0  0  0  0  0  0  0  0  0  0
   -1.1400    9.6130   22.8420 H   0  0  0  0  0  0  0  0  0  0  0  0
   -2.1980   11.4570   24.0590 H   0  0  0  0  0  0  0  0  0  0  0  0
    0.0530   14.3010   21.7200 H   0  0  0  0  0  0  0  0  0  0  0  0
    1.1000   12.4660   20.4900 H   0  0  0  0  0  0  0  0  0  0  0  0
   -1.8550   14.0910   23.7280 C   0  0  0  0  0  0  0  0  0  0  0  0
   -1.2010   14.8200   24.4660 O   0  0  0  0  0  0  0  0  0  0  0  0
   -3.2240   14.1830   23.5850 N   0  0  0  0  0  0  0  0  0  0  0  0
   -3.7230   13.4060   23.1750 H   0  0  0  0  0  0  0  0  0  0  0  0
   -3.9830   15.1170   24.3790 C   0  0  0  0  0  0  0  0  0  0  0  0
   -3.5130   15.2010   25.3620 H   0  0  0  0  0  0  0  0  0  0  0  0
   -4.0030   16.0990   23.9000 H   0  0  0  0  0  0  0  0  0  0  0  0
   -5.0000   14.7340   24.4870 H   0  0  0  0  0  0  0  0  0  0  0  0
    4.6010    4.7740   17.5330 C   0  0  2  0  0  0  0  0  0  0  0  0
    4.6850    5.6980   16.9490 H   0  0  0  0  0  0  0  0  0  0  0  0
    4.1010    3.6710   16.5950 C   0  0  0  0  0  0  0  0  0  0  0  0
    4.7810    3.5530   15.7440 H   0  0  0  0  0  0  0  0  0  0  0  0
    3.1060    3.8810   16.1900 H   0  0  0  0  0  0  0  0  0  0  0  0
    4.0530    2.7030   17.1050 H   0  0  0  0  0  0  0  0  0  0  0  0
    6.2610    4.3590   18.1960 S   0  0  0  0  0  0  0  0  0  0  0  0
    7.0500    5.8950   18.1370 C   0  0  0  0  0  0  0  0  0  0  0  0
    7.9210    6.3850   18.9910 N   0  0  0  0  0  0  0  0  0  0  0  0
    8.2880    7.6370   18.5400 N   0  0  0  0  0  0  0  0  0  0  0  0
    7.6290    7.8670   17.4240 C   0  0  0  0  0  0  0  0  0  0  0  0
    6.8370    6.8000   17.1280 N   0  0  0  0  0  0  0  0  0  0  0  0
    7.6850    8.7540   16.8120 H   0  0  0  0  0  0  0  0  0  0  0  0
    5.9770    6.6840   15.9900 N   0  0  0  0  0  0  0  0  0  0  0  0
    5.3920    5.8530   16.0760 H   0  0  0  0  0  0  0  0  0  0  0  0
    6.5320    6.5260   15.1490 H   0  0  0  0  0  0  0  0  0  0  0  0
  1  6  2  0  0  0  0
  1  2  1  0  0  0  0
  2  3  2  0  0  0  0
  3  4  1  0  0  0  0
  3  8  1  0  0  0  0
  4  9  1  0  0  0  0
  5 11  1  0  0  0  0
  5  4  2  0  0  0  0
  6  5  1  0  0  0  0
  7  2  1  0  0  0  0
 10  6  1  0  0  0  0
 11 12  2  0  0  0  0
 12 16  1  0  0  0  0
 13 12  1  0  0  0  0
 13 17  1  0  0  0  0
 14 13  2  0  0  0  0
 15 14  1  0  0  0  0
 15 11  1  0  0  0  0
 17 18  1  0  0  0  0
 18 23  1  0  0  0  0
 18 19  2  0  0  0  0
 19 24  1  0  0  0  0
 20 19  1  0  0  0  0
 20 27  1  0  0  0  0
 21 20  2  0  0  0  0
 22 17  2  0  0  0  0
 22 21  1  0  0  0  0
 25 21  1  0  0  0  0
 26 22  1  0  0  0  0
 27 28  2  0  0  0  0
 29 27  1  0  0  0  0
 29 31  1  0  0  0  0
 30 29  1  0  0  0  0
 31 34  1  0  0  0  0
 31 32  1  0  0  0  0
 33 31  1  0  0  0  0
 35 36  1  6  0  0  0
 35 41  1  0  0  0  0
 35  1  1  0  0  0  0
 37 40  1  0  0  0  0
 37 35  1  0  0  0  0
 38 37  1  0  0  0  0
 39 37  1  0  0  0  0
 42 41  1  0  0  0  0
 42 43  2  0  0  0  0
 44 43  1  0  0  0  0
 45 44  2  0  0  0  0
 46 45  1  0  0  0  0
 46 42  1  0  0  0  0
 47 45  1  0  0  0  0
 48 49  1  0  0  0  0
 48 46  1  0  0  0  0
 50 48  1  0  0  0  0
M  END
>  <MODEL>
11

>  <REMARK>
 VINA RESULT:    -7.601      3.870      9.772
 INTER + INTRA:         -11.422
 INTER:                 -11.106
 INTRA:                  -0.316
 UNBOUND:                -0.489
  Name = 
  9 active torsions:
  status: ('A' for Active; 'I' for Inactive)
    1  A    between atoms: C_1  and  C_2
    2  A    between atoms: C_2  and  C_3
    3  A    between atoms: C_2  and  S_24
    4  A    between atoms: C_7  and  C_9
    5  A    between atoms: C_11  and  C_14
    6  A    between atoms: C_17  and  C_20
    7  A    between atoms: N_22  and  C_23
    8  A    between atoms: S_24  and  C_25
    9  A    between atoms: N_29  and  N_30
                            x       y       z     vdW  Elec       q    Type
                         _______ _______ _______ _____ _____    ______ ____

>  <TORSDO>
F 9

$$$$
=
 OpenBabel07192307433D

 50 53  0  0  1  0  0  0  0  0999 V2000
    3.7970    4.7710   17.3390 C   0  0  0  0  0  0  0  0  0  0  0  0
    4.9920    5.1910   16.7360 C   0  0  0  0  0  0  0  0  0  0  0  0
    5.3000    6.5450   16.6390 C   0  0  0  0  0  0  0  0  0  0  0  0
    4.4230    7.5050   17.1490 C   0  0  0  0  0  0  0  0  0  0  0  0
    3.2240    7.1240   17.7640 C   0  0  0  0  0  0  0  0  0  0  0  0
    2.9250    5.7530   17.8510 C   0  0  0  0  0  0  0  0  0  0  0  0
    5.6940    4.4610   16.3360 H   0  0  0  0  0  0  0  0  0  0  0  0
    6.2290    6.8570   16.1640 H   0  0  0  0  0  0  0  0  0  0  0  0
    4.6940    8.5530   17.0540 H   0  0  0  0  0  0  0  0  0  0  0  0
    2.0030    5.4380   18.3380 H   0  0  0  0  0  0  0  0  0  0  0  0
    2.3180    8.1330   18.3060 C   0  0  0  0  0  0  0  0  0  0  0  0
    1.8070    8.4170   19.5500 C   0  0  0  0  0  0  0  0  0  0  0  0
    0.9730    9.5530   19.3680 C   0  0  0  0  0  0  0  0  0  0  0  0
    0.9950    9.9330   18.0810 N   0  0  0  0  0  0  0  0  0  0  0  0
    1.8260    9.0490   17.4260 O   0  0  0  0  0  0  0  0  0  0  0  0
    2.0090    7.8820   20.4650 H   0  0  0  0  0  0  0  0  0  0  0  0
    0.1750   10.2690   20.3670 C   0  0  0  0  0  0  0  0  0  0  0  0
   -0.5900   11.3910   20.0150 C   0  0  0  0  0  0  0  0  0  0  0  0
   -1.3480   12.0680   20.9770 C   0  0  0  0  0  0  0  0  0  0  0  0
   -1.3470   11.6420   22.3100 C   0  0  0  0  0  0  0  0  0  0  0  0
   -0.5990   10.5160   22.6700 C   0  0  0  0  0  0  0  0  0  0  0  0
    0.1600    9.8420   21.7050 C   0  0  0  0  0  0  0  0  0  0  0  0
   -0.6060   11.7640   18.9940 H   0  0  0  0  0  0  0  0  0  0  0  0
   -1.9370   12.9360   20.6840 H   0  0  0  0  0  0  0  0  0  0  0  0
   -0.6130   10.1300   23.6850 H   0  0  0  0  0  0  0  0  0  0  0  0
    0.7320    8.9660   22.0080 H   0  0  0  0  0  0  0  0  0  0  0  0
   -2.1710   12.3960   23.2960 C   0  0  0  0  0  0  0  0  0  0  0  0
   -1.7340   13.4230   23.8020 O   0  0  0  0  0  0  0  0  0  0  0  0
   -3.3990   11.8530   23.6140 N   0  0  0  0  0  0  0  0  0  0  0  0
   -3.5850   10.8910   23.3640 H   0  0  0  0  0  0  0  0  0  0  0  0
   -4.2170   12.4430   24.6440 C   0  0  0  0  0  0  0  0  0  0  0  0
   -4.2720   11.7480   25.4870 H   0  0  0  0  0  0  0  0  0  0  0  0
   -3.7860   13.3890   24.9800 H   0  0  0  0  0  0  0  0  0  0  0  0
   -5.2170   12.6120   24.2390 H   0  0  0  0  0  0  0  0  0  0  0  0
    3.4870    3.2840   17.4420 C   0  0  2  0  0  0  0  0  0  0  0  0
    3.9410    2.7860   16.5760 H   0  0  0  0  0  0  0  0  0  0  0  0
    1.9820    3.0030   17.4090 C   0  0  0  0  0  0  0  0  0  0  0  0
    1.4440    3.7200   18.0390 H   0  0  0  0  0  0  0  0  0  0  0  0
    1.7330    2.0000   17.7710 H   0  0  0  0  0  0  0  0  0  0  0  0
    1.5790    3.0980   16.3950 H   0  0  0  0  0  0  0  0  0  0  0  0
    4.2430    2.5940   18.9650 S   0  0  0  0  0  0  0  0  0  0  0  0
    2.9500    2.7590   20.0980 C   0  0  0  0  0  0  0  0  0  0  0  0
    2.0540    1.8570   20.4310 N   0  0  0  0  0  0  0  0  0  0  0  0
    1.2220    2.4260   21.3760 N   0  0  0  0  0  0  0  0  0  0  0  0
    1.6420    3.6550   21.5870 C   0  0  0  0  0  0  0  0  0  0  0  0
    2.7280    3.9120   20.8070 N   0  0  0  0  0  0  0  0  0  0  0  0
    1.2150    4.3750   22.2680 H   0  0  0  0  0  0  0  0  0  0  0  0
    3.4580    5.1420   20.7660 N   0  0  0  0  0  0  0  0  0  0  0  0
    3.3610    5.6370   21.6520 H   0  0  0  0  0  0  0  0  0  0  0  0
    3.0490    5.7670   20.0720 H   0  0  0  0  0  0  0  0  0  0  0  0
  1 35  1  0  0  0  0
  1  6  1  0  0  0  0
  2  1  2  0  0  0  0
  3  2  1  0  0  0  0
  3  4  2  0  0  0  0
  4  5  1  0  0  0  0
  5  6  2  0  0  0  0
  5 11  1  0  0  0  0
  6 10  1  0  0  0  0
  7  2  1  0  0  0  0
  8  3  1  0  0  0  0
  9  4  1  0  0  0  0
 11 12  2  0  0  0  0
 12 16  1  0  0  0  0
 13 12  1  0  0  0  0
 13 17  1  0  0  0  0
 14 13  2  0  0  0  0
 15 14  1  0  0  0  0
 15 11  1  0  0  0  0
 17 22  1  0  0  0  0
 18 17  2  0  0  0  0
 18 19  1  0  0  0  0
 19 20  2  0  0  0  0
 20 21  1  0  0  0  0
 20 27  1  0  0  0  0
 21 25  1  0  0  0  0
 22 26  1  0  0  0  0
 22 21  2  0  0  0  0
 23 18  1  0  0  0  0
 24 19  1  0  0  0  0
 27 29  1  0  0  0  0
 27 28  2  0  0  0  0
 29 31  1  0  0  0  0
 30 29  1  0  0  0  0
 31 33  1  0  0  0  0
 31 32  1  0  0  0  0
 34 31  1  0  0  0  0
 35 36  1  6  0  0  0
 35 41  1  0  0  0  0
 37 35  1  0  0  0  0
 37 39  1  0  0  0  0
 37 38  1  0  0  0  0
 40 37  1  0  0  0  0
 41 42  1  0  0  0  0
 42 43  2  0  0  0  0
 42 46  1  0  0  0  0
 43 44  1  0  0  0  0
 44 45  2  0  0  0  0
 45 47  1  0  0  0  0
 46 45  1  0  0  0  0
 48 46  1  0  0  0  0
 48 49  1  0  0  0  0
 50 48  1  0  0  0  0
M  END
>  <MODEL>
12

>  <REMARK>
 VINA RESULT:    -7.510      3.596      9.942
 INTER + INTRA:         -11.291
 INTER:                 -10.766
 INTRA:                  -0.525
 UNBOUND:                -0.489
  Name = 
  9 active torsions:
  status: ('A' for Active; 'I' for Inactive)
    1  A    between atoms: C_1  and  C_2
    2  A    between atoms: C_2  and  C_3
    3  A    between atoms: C_2  and  S_24
    4  A    between atoms: C_7  and  C_9
    5  A    between atoms: C_11  and  C_14
    6  A    between atoms: C_17  and  C_20
    7  A    between atoms: N_22  and  C_23
    8  A    between atoms: S_24  and  C_25
    9  A    between atoms: N_29  and  N_30
                            x       y       z     vdW  Elec       q    Type
                         _______ _______ _______ _____ _____    ______ ____

>  <TORSDO>
F 9

$$$$
=
 OpenBabel07192307433D

 50 53  0  0  1  0  0  0  0  0999 V2000
    4.6750    5.4880   17.4280 C   0  0  0  0  0  0  0  0  0  0  0  0
    4.5410    4.2850   18.1370 C   0  0  0  0  0  0  0  0  0  0  0  0
    3.6550    4.1880   19.2070 C   0  0  0  0  0  0  0  0  0  0  0  0
    2.8810    5.2880   19.5830 C   0  0  0  0  0  0  0  0  0  0  0  0
    2.9820    6.5030   18.8940 C   0  0  0  0  0  0  0  0  0  0  0  0
    3.8840    6.5870   17.8190 C   0  0  0  0  0  0  0  0  0  0  0  0
    5.1290    3.4130   17.8600 H   0  0  0  0  0  0  0  0  0  0  0  0
    3.5650    3.2500   19.7520 H   0  0  0  0  0  0  0  0  0  0  0  0
    2.2010    5.1770   20.4230 H   0  0  0  0  0  0  0  0  0  0  0  0
    3.9660    7.5200   17.2630 H   0  0  0  0  0  0  0  0  0  0  0  0
    2.1610    7.6450   19.2850 C   0  0  0  0  0  0  0  0  0  0  0  0
    1.4940    8.0200   20.4270 C   0  0  0  0  0  0  0  0  0  0  0  0
    0.8850    9.2670   20.1200 C   0  0  0  0  0  0  0  0  0  0  0  0
    1.1840    9.6210   18.8600 N   0  0  0  0  0  0  0  0  0  0  0  0
    1.9710    8.6130   18.3460 O   0  0  0  0  0  0  0  0  0  0  0  0
    1.4530    7.4730   21.3560 H   0  0  0  0  0  0  0  0  0  0  0  0
    0.0460   10.1090   20.9770 C   0  0  0  0  0  0  0  0  0  0  0  0
   -0.1620    9.7890   22.3270 C   0  0  0  0  0  0  0  0  0  0  0  0
   -0.9670   10.5990   23.1360 C   0  0  0  0  0  0  0  0  0  0  0  0
   -1.5850   11.7380   22.6090 C   0  0  0  0  0  0  0  0  0  0  0  0
   -1.3730   12.0750   21.2680 C   0  0  0  0  0  0  0  0  0  0  0  0
   -0.5690   11.2610   20.4600 C   0  0  0  0  0  0  0  0  0  0  0  0
    0.2850    8.9040   22.7710 H   0  0  0  0  0  0  0  0  0  0  0  0
   -1.1150   10.3350   24.1820 H   0  0  0  0  0  0  0  0  0  0  0  0
   -1.7970   12.9780   20.8390 H   0  0  0  0  0  0  0  0  0  0  0  0
   -0.4150   11.5450   19.4200 H   0  0  0  0  0  0  0  0  0  0  0  0
   -2.4300   12.5690   23.5120 C   0  0  0  0  0  0  0  0  0  0  0  0
   -3.5310   12.1630   23.8660 O   0  0  0  0  0  0  0  0  0  0  0  0
   -1.9180   13.7980   23.8750 N   0  0  0  0  0  0  0  0  0  0  0  0
   -1.1400   14.1740   23.3520 H   0  0  0  0  0  0  0  0  0  0  0  0
   -2.7110   14.7230   24.6470 C   0  0  0  0  0  0  0  0  0  0  0  0
   -2.7630   14.3610   25.6770 H   0  0  0  0  0  0  0  0  0  0  0  0
   -2.2600   15.7180   24.6330 H   0  0  0  0  0  0  0  0  0  0  0  0
   -3.7140   14.7620   24.2180 H   0  0  0  0  0  0  0  0  0  0  0  0
    5.6430    5.5670   16.2560 C   0  0  2  0  0  0  0  0  0  0  0  0
    6.6310    5.8280   16.6530 H   0  0  0  0  0  0  0  0  0  0  0  0
    5.2430    6.6470   15.2460 C   0  0  0  0  0  0  0  0  0  0  0  0
    5.4930    6.3310   14.2270 H   0  0  0  0  0  0  0  0  0  0  0  0
    5.7510    7.6000   15.4260 H   0  0  0  0  0  0  0  0  0  0  0  0
    4.1660    6.8370   15.2690 H   0  0  0  0  0  0  0  0  0  0  0  0
    5.7670    3.9280   15.4390 S   0  0  0  0  0  0  0  0  0  0  0  0
    6.6360    4.3250   14.0000 C   0  0  0  0  0  0  0  0  0  0  0  0
    7.5990    5.2090   13.8600 N   0  0  0  0  0  0  0  0  0  0  0  0
    8.0020    5.1820   12.5390 N   0  0  0  0  0  0  0  0  0  0  0  0
    7.2720    4.2780   11.9200 C   0  0  0  0  0  0  0  0  0  0  0  0
    6.3990    3.7100   12.7970 N   0  0  0  0  0  0  0  0  0  0  0  0
    7.3310    4.0040   10.8770 H   0  0  0  0  0  0  0  0  0  0  0  0
    5.4470    2.6870   12.4880 N   0  0  0  0  0  0  0  0  0  0  0  0
    4.6040    2.8120   13.0480 H   0  0  0  0  0  0  0  0  0  0  0  0
    5.8120    1.7760   12.7670 H   0  0  0  0  0  0  0  0  0  0  0  0
  1  6  2  0  0  0  0
  1  2  1  0  0  0  0
  2  3  2  0  0  0  0
  3  4  1  0  0  0  0
  3  8  1  0  0  0  0
  4  9  1  0  0  0  0
  5 11  1  0  0  0  0
  5  4  2  0  0  0  0
  6  5  1  0  0  0  0
  7  2  1  0  0  0  0
 10  6  1  0  0  0  0
 11 12  2  0  0  0  0
 12 16  1  0  0  0  0
 13 12  1  0  0  0  0
 13 17  1  0  0  0  0
 14 13  2  0  0  0  0
 15 14  1  0  0  0  0
 15 11  1  0  0  0  0
 17 18  1  0  0  0  0
 18 23  1  0  0  0  0
 18 19  2  0  0  0  0
 19 24  1  0  0  0  0
 20 19  1  0  0  0  0
 20 27  1  0  0  0  0
 21 20  2  0  0  0  0
 22 17  2  0  0  0  0
 22 21  1  0  0  0  0
 25 21  1  0  0  0  0
 26 22  1  0  0  0  0
 27 28  2  0  0  0  0
 27 29  1  0  0  0  0
 29 31  1  0  0  0  0
 30 29  1  0  0  0  0
 31 32  1  0  0  0  0
 33 31  1  0  0  0  0
 34 31  1  0  0  0  0
 35 36  1  1  0  0  0
 35  1  1  0  0  0  0
 37 40  1  0  0  0  0
 37 39  1  0  0  0  0
 37 35  1  0  0  0  0
 38 37  1  0  0  0  0
 41 35  1  0  0  0  0
 42 41  1  0  0  0  0
 43 42  2  0  0  0  0
 44 43  1  0  0  0  0
 45 44  2  0  0  0  0
 45 46  1  0  0  0  0
 46 42  1  0  0  0  0
 47 45  1  0  0  0  0
 48 50  1  0  0  0  0
 48 46  1  0  0  0  0
 48 49  1  0  0  0  0
M  END
>  <MODEL>
13

>  <REMARK>
 VINA RESULT:    -7.509      3.337     10.271
 INTER + INTRA:         -11.290
 INTER:                 -10.849
 INTRA:                  -0.441
 UNBOUND:                -0.489
  Name = 
  9 active torsions:
  status: ('A' for Active; 'I' for Inactive)
    1  A    between atoms: C_1  and  C_2
    2  A    between atoms: C_2  and  C_3
    3  A    between atoms: C_2  and  S_24
    4  A    between atoms: C_7  and  C_9
    5  A    between atoms: C_11  and  C_14
    6  A    between atoms: C_17  and  C_20
    7  A    between atoms: N_22  and  C_23
    8  A    between atoms: S_24  and  C_25
    9  A    between atoms: N_29  and  N_30
                            x       y       z     vdW  Elec       q    Type
                         _______ _______ _______ _____ _____    ______ ____

>  <TORSDO>
F 9

$$$$
=
 OpenBabel07192307433D

 50 53  0  0  1  0  0  0  0  0999 V2000
    3.1460    3.7100   19.7280 C   0  0  0  0  0  0  0  0  0  0  0  0
    2.0920    2.8060   19.9230 C   0  0  0  0  0  0  0  0  0  0  0  0
    0.8260    3.2600   20.2860 C   0  0  0  0  0  0  0  0  0  0  0  0
    0.5890    4.6270   20.4520 C   0  0  0  0  0  0  0  0  0  0  0  0
    1.6170    5.5600   20.2590 C   0  0  0  0  0  0  0  0  0  0  0  0
    2.8890    5.0850   19.8980 C   0  0  0  0  0  0  0  0  0  0  0  0
    2.2500    1.7370   19.7940 H   0  0  0  0  0  0  0  0  0  0  0  0
    0.0180    2.5480   20.4390 H   0  0  0  0  0  0  0  0  0  0  0  0
   -0.4090    4.9460   20.7370 H   0  0  0  0  0  0  0  0  0  0  0  0
    3.6960    5.7980   19.7300 H   0  0  0  0  0  0  0  0  0  0  0  0
    1.3580    6.9870   20.4240 C   0  0  0  0  0  0  0  0  0  0  0  0
    0.6390    7.7520   21.3120 C   0  0  0  0  0  0  0  0  0  0  0  0
    0.8170    9.0960   20.8860 C   0  0  0  0  0  0  0  0  0  0  0  0
    1.6110    9.1310   19.8050 N   0  0  0  0  0  0  0  0  0  0  0  0
    1.9410    7.8230   19.5190 O   0  0  0  0  0  0  0  0  0  0  0  0
    0.0670    7.3920   22.1520 H   0  0  0  0  0  0  0  0  0  0  0  0
    0.2620   10.3200   21.4720 C   0  0  0  0  0  0  0  0  0  0  0  0
    0.6250   11.5850   20.9860 C   0  0  0  0  0  0  0  0  0  0  0  0
    0.0900   12.7470   21.5540 C   0  0  0  0  0  0  0  0  0  0  0  0
   -0.8100   12.6660   22.6210 C   0  0  0  0  0  0  0  0  0  0  0  0
   -1.1910   11.4100   23.1040 C   0  0  0  0  0  0  0  0  0  0  0  0
   -0.6530   10.2490   22.5360 C   0  0  0  0  0  0  0  0  0  0  0  0
    1.3340   11.6920   20.1700 H   0  0  0  0  0  0  0  0  0  0  0  0
    0.3840   13.7200   21.1620 H   0  0  0  0  0  0  0  0  0  0  0  0
   -1.9240   11.3090   23.8990 H   0  0  0  0  0  0  0  0  0  0  0  0
   -0.9660    9.2810   22.9250 H   0  0  0  0  0  0  0  0  0  0  0  0
   -1.3530   13.9320   23.1890 C   0  0  0  0  0  0  0  0  0  0  0  0
   -0.8040   15.0000   22.9390 O   0  0  0  0  0  0  0  0  0  0  0  0
   -2.4510   13.8150   24.0150 N   0  0  0  0  0  0  0  0  0  0  0  0
   -2.6900   12.9040   24.3800 H   0  0  0  0  0  0  0  0  0  0  0  0
   -2.9750   14.9670   24.7070 C   0  0  0  0  0  0  0  0  0  0  0  0
   -4.0110   15.1210   24.3940 H   0  0  0  0  0  0  0  0  0  0  0  0
   -2.9400   14.8130   25.7880 H   0  0  0  0  0  0  0  0  0  0  0  0
   -2.3740   15.8370   24.4350 H   0  0  0  0  0  0  0  0  0  0  0  0
    4.5180    3.1890   19.3220 C   0  0  2  0  0  0  0  0  0  0  0  0
    4.4320    2.7640   18.3160 H   0  0  0  0  0  0  0  0  0  0  0  0
    5.0160    2.0830   20.2570 C   0  0  0  0  0  0  0  0  0  0  0  0
    5.1970    1.1590   19.6960 H   0  0  0  0  0  0  0  0  0  0  0  0
    4.2990    1.8470   21.0500 H   0  0  0  0  0  0  0  0  0  0  0  0
    5.9600    2.3590   20.7370 H   0  0  0  0  0  0  0  0  0  0  0  0
    5.7180    4.5760   19.2610 S   0  0  0  0  0  0  0  0  0  0  0  0
    5.9350    4.7690   17.5580 C   0  0  0  0  0  0  0  0  0  0  0  0
    5.0550    5.1910   16.6780 N   0  0  0  0  0  0  0  0  0  0  0  0
    5.6690    5.1910   15.4410 N   0  0  0  0  0  0  0  0  0  0  0  0
    6.9050    4.7720   15.6110 C   0  0  0  0  0  0  0  0  0  0  0  0
    7.1220    4.4940   16.9260 N   0  0  0  0  0  0  0  0  0  0  0  0
    7.6580    4.6550   14.8460 H   0  0  0  0  0  0  0  0  0  0  0  0
    8.3470    4.0180   17.4920 N   0  0  0  0  0  0  0  0  0  0  0  0
    8.8730    3.4910   16.7950 H   0  0  0  0  0  0  0  0  0  0  0  0
    8.1500    3.3460   18.2330 H   0  0  0  0  0  0  0  0  0  0  0  0
  1  6  2  0  0  0  0
  1  2  1  0  0  0  0
  2  3  2  0  0  0  0
  3  8  1  0  0  0  0
  3  4  1  0  0  0  0
  4  9  1  0  0  0  0
  5 11  1  0  0  0  0
  5  4  2  0  0  0  0
  6  5  1  0  0  0  0
  7  2  1  0  0  0  0
 10  6  1  0  0  0  0
 11 12  2  0  0  0  0
 12 16  1  0  0  0  0
 13 12  1  0  0  0  0
 13 17  1  0  0  0  0
 14 13  2  0  0  0  0
 15 14  1  0  0  0  0
 15 11  1  0  0  0  0
 17 22  1  0  0  0  0
 18 17  2  0  0  0  0
 18 19  1  0  0  0  0
 19 20  2  0  0  0  0
 20 21  1  0  0  0  0
 20 27  1  0  0  0  0
 21 25  1  0  0  0  0
 22 26  1  0  0  0  0
 22 21  2  0  0  0  0
 23 18  1  0  0  0  0
 24 19  1  0  0  0  0
 27 29  1  0  0  0  0
 28 27  2  0  0  0  0
 29 30  1  0  0  0  0
 29 31  1  0  0  0  0
 31 33  1  0  0  0  0
 32 31  1  0  0  0  0
 34 31  1  0  0  0  0
 35 36  1  6  0  0  0
 35  1  1  0  0  0  0
 35 37  1  0  0  0  0
 37 40  1  0  0  0  0
 37 39  1  0  0  0  0
 38 37  1  0  0  0  0
 41 35  1  0  0  0  0
 42 41  1  0  0  0  0
 43 42  2  0  0  0  0
 44 45  2  0  0  0  0
 44 43  1  0  0  0  0
 45 46  1  0  0  0  0
 46 48  1  0  0  0  0
 46 42  1  0  0  0  0
 47 45  1  0  0  0  0
 48 50  1  0  0  0  0
 49 48  1  0  0  0  0
M  END
>  <MODEL>
14

>  <REMARK>
 VINA RESULT:    -7.500      3.675      9.898
 INTER + INTRA:         -11.278
 INTER:                 -10.378
 INTRA:                  -0.899
 UNBOUND:                -0.489
  Name = 
  9 active torsions:
  status: ('A' for Active; 'I' for Inactive)
    1  A    between atoms: C_1  and  C_2
    2  A    between atoms: C_2  and  C_3
    3  A    between atoms: C_2  and  S_24
    4  A    between atoms: C_7  and  C_9
    5  A    between atoms: C_11  and  C_14
    6  A    between atoms: C_17  and  C_20
    7  A    between atoms: N_22  and  C_23
    8  A    between atoms: S_24  and  C_25
    9  A    between atoms: N_29  and  N_30
                            x       y       z     vdW  Elec       q    Type
                         _______ _______ _______ _____ _____    ______ ____

>  <TORSDO>
F 9

$$$$
=
 OpenBabel07192307433D

 50 53  0  0  1  0  0  0  0  0999 V2000
   -0.7930   12.2120   21.0950 C   0  0  0  0  0  0  0  0  0  0  0  0
   -1.9090   12.3870   20.2630 C   0  0  0  0  0  0  0  0  0  0  0  0
   -2.1020   11.5670   19.1540 C   0  0  0  0  0  0  0  0  0  0  0  0
   -1.1880   10.5530   18.8610 C   0  0  0  0  0  0  0  0  0  0  0  0
   -0.0660   10.3430   19.6730 C   0  0  0  0  0  0  0  0  0  0  0  0
    0.1170   11.1820   20.7860 C   0  0  0  0  0  0  0  0  0  0  0  0
   -2.6380   13.1670   20.4740 H   0  0  0  0  0  0  0  0  0  0  0  0
   -2.9690   11.7170   18.5140 H   0  0  0  0  0  0  0  0  0  0  0  0
   -1.3680    9.9330   17.9870 H   0  0  0  0  0  0  0  0  0  0  0  0
    0.9770   11.0240   21.4360 H   0  0  0  0  0  0  0  0  0  0  0  0
    0.8790    9.2730   19.3660 C   0  0  0  0  0  0  0  0  0  0  0  0
    1.5470    8.8550   18.2400 C   0  0  0  0  0  0  0  0  0  0  0  0
    2.3180    7.7350   18.6490 C   0  0  0  0  0  0  0  0  0  0  0  0
    2.1280    7.5030   19.9570 N   0  0  0  0  0  0  0  0  0  0  0  0
    1.2330    8.4560   20.3970 O   0  0  0  0  0  0  0  0  0  0  0  0
    1.4880    9.2970   17.2570 H   0  0  0  0  0  0  0  0  0  0  0  0
    3.2120    6.8990   17.8430 C   0  0  0  0  0  0  0  0  0  0  0  0
    3.1050    5.5000   17.8580 C   0  0  0  0  0  0  0  0  0  0  0  0
    3.9650    4.7110   17.0850 C   0  0  0  0  0  0  0  0  0  0  0  0
    4.9530    5.3050   16.2920 C   0  0  0  0  0  0  0  0  0  0  0  0
    5.0590    6.6990   16.2580 C   0  0  0  0  0  0  0  0  0  0  0  0
    4.1990    7.4850   17.0340 C   0  0  0  0  0  0  0  0  0  0  0  0
    2.3630    4.9980   18.4730 H   0  0  0  0  0  0  0  0  0  0  0  0
    3.8660    3.6270   17.1080 H   0  0  0  0  0  0  0  0  0  0  0  0
    5.7820    7.1950   15.6170 H   0  0  0  0  0  0  0  0  0  0  0  0
    4.2980    8.5690   16.9890 H   0  0  0  0  0  0  0  0  0  0  0  0
    5.8420    4.4210   15.4860 C   0  0  0  0  0  0  0  0  0  0  0  0
    6.8420    3.9280   15.9970 O   0  0  0  0  0  0  0  0  0  0  0  0
    5.4920    4.2360   14.1640 N   0  0  0  0  0  0  0  0  0  0  0  0
    4.8190    4.8640   13.7470 H   0  0  0  0  0  0  0  0  0  0  0  0
    6.3520    3.4970   13.2740 C   0  0  0  0  0  0  0  0  0  0  0  0
    5.7370    2.8210   12.6760 H   0  0  0  0  0  0  0  0  0  0  0  0
    6.8940    4.1780   12.6130 H   0  0  0  0  0  0  0  0  0  0  0  0
    7.0580    2.9200   13.8750 H   0  0  0  0  0  0  0  0  0  0  0  0
   -0.6100   13.1150   22.3080 C   0  0  2  0  0  0  0  0  0  0  0  0
    0.2910   12.7850   22.8380 H   0  0  0  0  0  0  0  0  0  0  0  0
   -1.7880   13.0210   23.2820 C   0  0  0  0  0  0  0  0  0  0  0  0
   -1.6320   13.6860   24.1380 H   0  0  0  0  0  0  0  0  0  0  0  0
   -1.9280   12.0090   23.6770 H   0  0  0  0  0  0  0  0  0  0  0  0
   -2.7260   13.3230   22.8060 H   0  0  0  0  0  0  0  0  0  0  0  0
   -0.3560   14.8480   21.7610 S   0  0  0  0  0  0  0  0  0  0  0  0
    0.9310   14.6660   20.6230 C   0  0  0  0  0  0  0  0  0  0  0  0
    2.1790   14.3340   20.8670 N   0  0  0  0  0  0  0  0  0  0  0  0
    2.8460   14.3030   19.6580 N   0  0  0  0  0  0  0  0  0  0  0  0
    1.9790   14.6130   18.7170 C   0  0  0  0  0  0  0  0  0  0  0  0
    0.7590   14.8500   19.2740 N   0  0  0  0  0  0  0  0  0  0  0  0
    2.1720   14.6800   17.6580 H   0  0  0  0  0  0  0  0  0  0  0  0
   -0.4310   15.2110   18.5650 N   0  0  0  0  0  0  0  0  0  0  0  0
   -0.2090   15.8790   17.8280 H   0  0  0  0  0  0  0  0  0  0  0  0
   -1.0680   15.7100   19.1860 H   0  0  0  0  0  0  0  0  0  0  0  0
  1 35  1  0  0  0  0
  2  7  1  0  0  0  0
  2  1  2  0  0  0  0
  3  2  1  0  0  0  0
  4  3  2  0  0  0  0
  4  5  1  0  0  0  0
  5  6  2  0  0  0  0
  6  1  1  0  0  0  0
  6 10  1  0  0  0  0
  8  3  1  0  0  0  0
  9  4  1  0  0  0  0
 11  5  1  0  0  0  0
 11 15  1  0  0  0  0
 12 13  1  0  0  0  0
 12 11  2  0  0  0  0
 13 14  2  0  0  0  0
 14 15  1  0  0  0  0
 16 12  1  0  0  0  0
 17 18  1  0  0  0  0
 17 13  1  0  0  0  0
 18 23  1  0  0  0  0
 19 24  1  0  0  0  0
 19 18  2  0  0  0  0
 20 19  1  0  0  0  0
 21 20  2  0  0  0  0
 21 22  1  0  0  0  0
 22 17  2  0  0  0  0
 25 21  1  0  0  0  0
 26 22  1  0  0  0  0
 27 28  2  0  0  0  0
 27 20  1  0  0  0  0
 29 27  1  0  0  0  0
 30 29  1  0  0  0  0
 31 34  1  0  0  0  0
 31 29  1  0  0  0  0
 32 31  1  0  0  0  0
 33 31  1  0  0  0  0
 35 36  1  1  0  0  0
 35 37  1  0  0  0  0
 37 39  1  0  0  0  0
 37 38  1  0  0  0  0
 40 37  1  0  0  0  0
 41 35  1  0  0  0  0
 42 43  2  0  0  0  0
 42 41  1  0  0  0  0
 44 43  1  0  0  0  0
 45 46  1  0  0  0  0
 45 44  2  0  0  0  0
 46 42  1  0  0  0  0
 47 45  1  0  0  0  0
 48 50  1  0  0  0  0
 48 46  1  0  0  0  0
 49 48  1  0  0  0  0
M  END
>  <MODEL>
15

>  <REMARK>
 VINA RESULT:    -7.416      1.594      2.336
 INTER + INTRA:         -11.156
 INTER:                 -10.112
 INTRA:                  -1.044
 UNBOUND:                -0.489
  Name = 
  9 active torsions:
  status: ('A' for Active; 'I' for Inactive)
    1  A    between atoms: C_1  and  C_2
    2  A    between atoms: C_2  and  C_3
    3  A    between atoms: C_2  and  S_24
    4  A    between atoms: C_7  and  C_9
    5  A    between atoms: C_11  and  C_14
    6  A    between atoms: C_17  and  C_20
    7  A    between atoms: N_22  and  C_23
    8  A    between atoms: S_24  and  C_25
    9  A    between atoms: N_29  and  N_30
                            x       y       z     vdW  Elec       q    Type
                         _______ _______ _______ _____ _____    ______ ____

>  <TORSDO>
F 9

$$$$
=
 OpenBabel07192307433D

 50 53  0  0  1  0  0  0  0  0999 V2000
    4.7590    4.6150   17.3150 C   0  0  0  0  0  0  0  0  0  0  0  0
    3.9440    3.5440   16.9210 C   0  0  0  0  0  0  0  0  0  0  0  0
    2.5830    3.5400   17.2210 C   0  0  0  0  0  0  0  0  0  0  0  0
    2.0130    4.6100   17.9140 C   0  0  0  0  0  0  0  0  0  0  0  0
    2.7940    5.7000   18.3170 C   0  0  0  0  0  0  0  0  0  0  0  0
    4.1660    5.6870   18.0100 C   0  0  0  0  0  0  0  0  0  0  0  0
    4.3650    2.7020   16.3750 H   0  0  0  0  0  0  0  0  0  0  0  0
    1.9640    2.7000   16.9140 H   0  0  0  0  0  0  0  0  0  0  0  0
    0.9490    4.5730   18.1330 H   0  0  0  0  0  0  0  0  0  0  0  0
    4.7860    6.5330   18.3040 H   0  0  0  0  0  0  0  0  0  0  0  0
    2.1870    6.8200   19.0310 C   0  0  0  0  0  0  0  0  0  0  0  0
    1.7210    8.0640   18.6760 C   0  0  0  0  0  0  0  0  0  0  0  0
    1.2520    8.6520   19.8820 C   0  0  0  0  0  0  0  0  0  0  0  0
    1.4210    7.7960   20.9020 N   0  0  0  0  0  0  0  0  0  0  0  0
    2.0040    6.6650   20.3710 O   0  0  0  0  0  0  0  0  0  0  0  0
    1.7160    8.4900   17.6840 H   0  0  0  0  0  0  0  0  0  0  0  0
    0.6590    9.9770   20.0810 C   0  0  0  0  0  0  0  0  0  0  0  0
    1.2920   10.9410   20.8810 C   0  0  0  0  0  0  0  0  0  0  0  0
    0.7170   12.2030   21.0650 C   0  0  0  0  0  0  0  0  0  0  0  0
   -0.5040   12.5230   20.4610 C   0  0  0  0  0  0  0  0  0  0  0  0
   -1.1360   11.5760   19.6490 C   0  0  0  0  0  0  0  0  0  0  0  0
   -0.5590   10.3130   19.4680 C   0  0  0  0  0  0  0  0  0  0  0  0
    2.2320   10.7280   21.3820 H   0  0  0  0  0  0  0  0  0  0  0  0
    1.2230   12.9380   21.6890 H   0  0  0  0  0  0  0  0  0  0  0  0
   -2.0590   11.8060   19.1260 H   0  0  0  0  0  0  0  0  0  0  0  0
   -1.0680    9.5920   18.8290 H   0  0  0  0  0  0  0  0  0  0  0  0
   -1.0730   13.8810   20.6870 C   0  0  0  0  0  0  0  0  0  0  0  0
   -0.3420   14.8020   21.0360 O   0  0  0  0  0  0  0  0  0  0  0  0
   -2.4360   14.0120   20.5210 N   0  0  0  0  0  0  0  0  0  0  0  0
   -3.0050   13.1780   20.4890 H   0  0  0  0  0  0  0  0  0  0  0  0
   -3.0970   15.2560   20.8330 C   0  0  0  0  0  0  0  0  0  0  0  0
   -4.0350   15.3020   20.2750 H   0  0  0  0  0  0  0  0  0  0  0  0
   -3.3060   15.3190   21.9030 H   0  0  0  0  0  0  0  0  0  0  0  0
   -2.4470   16.0790   20.5300 H   0  0  0  0  0  0  0  0  0  0  0  0
    6.2410    4.6010   16.9650 C   0  0  2  0  0  0  0  0  0  0  0  0
    6.4840    3.6050   16.5760 H   0  0  0  0  0  0  0  0  0  0  0  0
    7.1260    4.8530   18.1900 C   0  0  0  0  0  0  0  0  0  0  0  0
    6.5320    4.8030   19.1090 H   0  0  0  0  0  0  0  0  0  0  0  0
    7.6080    5.8370   18.1660 H   0  0  0  0  0  0  0  0  0  0  0  0
    7.9160    4.1000   18.2750 H   0  0  0  0  0  0  0  0  0  0  0  0
    6.5840    5.8340   15.6510 S   0  0  0  0  0  0  0  0  0  0  0  0
    6.5410    4.8480   14.2330 C   0  0  0  0  0  0  0  0  0  0  0  0
    5.6770    3.9040   13.9360 N   0  0  0  0  0  0  0  0  0  0  0  0
    6.0270    3.3910   12.7020 N   0  0  0  0  0  0  0  0  0  0  0  0
    7.0920    4.0430   12.2880 C   0  0  0  0  0  0  0  0  0  0  0  0
    7.4540    4.9710   13.2170 N   0  0  0  0  0  0  0  0  0  0  0  0
    7.6230    3.8910   11.3610 H   0  0  0  0  0  0  0  0  0  0  0  0
    8.5630    5.8710   13.1140 N   0  0  0  0  0  0  0  0  0  0  0  0
    8.3300    6.7640   13.5460 H   0  0  0  0  0  0  0  0  0  0  0  0
    8.7420    6.0940   12.1350 H   0  0  0  0  0  0  0  0  0  0  0  0
  1  6  1  0  0  0  0
  2  3  1  0  0  0  0
  2  1  2  0  0  0  0
  3  4  2  0  0  0  0
  4  9  1  0  0  0  0
  4  5  1  0  0  0  0
  5 11  1  0  0  0  0
  6 10  1  0  0  0  0
  6  5  2  0  0  0  0
  7  2  1  0  0  0  0
  8  3  1  0  0  0  0
 11 15  1  0  0  0  0
 12 11  2  0  0  0  0
 12 13  1  0  0  0  0
 13 17  1  0  0  0  0
 13 14  2  0  0  0  0
 15 14  1  0  0  0  0
 16 12  1  0  0  0  0
 17 18  1  0  0  0  0
 18 19  2  0  0  0  0
 18 23  1  0  0  0  0
 19 24  1  0  0  0  0
 20 27  1  0  0  0  0
 20 19  1  0  0  0  0
 21 20  2  0  0  0  0
 22 21  1  0  0  0  0
 22 17  2  0  0  0  0
 25 21  1  0  0  0  0
 26 22  1  0  0  0  0
 27 28  2  0  0  0  0
 29 27  1  0  0  0  0
 29 31  1  0  0  0  0
 30 29  1  0  0  0  0
 31 33  1  0  0  0  0
 32 31  1  0  0  0  0
 34 31  1  0  0  0  0
 35 36  1  6  0  0  0
 35  1  1  0  0  0  0
 35 37  1  0  0  0  0
 37 40  1  0  0  0  0
 37 38  1  0  0  0  0
 39 37  1  0  0  0  0
 41 35  1  0  0  0  0
 42 41  1  0  0  0  0
 43 42  2  0  0  0  0
 44 43  1  0  0  0  0
 45 44  2  0  0  0  0
 45 46  1  0  0  0  0
 46 42  1  0  0  0  0
 47 45  1  0  0  0  0
 48 46  1  0  0  0  0
 48 49  1  0  0  0  0
 50 48  1  0  0  0  0
M  END
>  <MODEL>
16

>  <REMARK>
 VINA RESULT:    -7.395      3.310      9.837
 INTER + INTRA:         -11.126
 INTER:                 -10.378
 INTRA:                  -0.749
 UNBOUND:                -0.489
  Name = 
  9 active torsions:
  status: ('A' for Active; 'I' for Inactive)
    1  A    between atoms: C_1  and  C_2
    2  A    between atoms: C_2  and  C_3
    3  A    between atoms: C_2  and  S_24
    4  A    between atoms: C_7  and  C_9
    5  A    between atoms: C_11  and  C_14
    6  A    between atoms: C_17  and  C_20
    7  A    between atoms: N_22  and  C_23
    8  A    between atoms: S_24  and  C_25
    9  A    between atoms: N_29  and  N_30
                            x       y       z     vdW  Elec       q    Type
                         _______ _______ _______ _____ _____    ______ ____

>  <TORSDO>
F 9

$$$$
=
 OpenBabel07192307433D

 50 53  0  0  1  0  0  0  0  0999 V2000
    5.3590    5.0520   18.8460 C   0  0  0  0  0  0  0  0  0  0  0  0
    4.7130    3.8210   19.0300 C   0  0  0  0  0  0  0  0  0  0  0  0
    3.3300    3.7620   19.1890 C   0  0  0  0  0  0  0  0  0  0  0  0
    2.5680    4.9310   19.1580 C   0  0  0  0  0  0  0  0  0  0  0  0
    3.1780    6.1790   18.9690 C   0  0  0  0  0  0  0  0  0  0  0  0
    4.5740    6.2220   18.8150 C   0  0  0  0  0  0  0  0  0  0  0  0
    5.2850    2.8950   19.0520 H   0  0  0  0  0  0  0  0  0  0  0  0
    2.8430    2.8000   19.3360 H   0  0  0  0  0  0  0  0  0  0  0  0
    1.4930    4.8490   19.2870 H   0  0  0  0  0  0  0  0  0  0  0  0
    5.0630    7.1820   18.6530 H   0  0  0  0  0  0  0  0  0  0  0  0
    2.3720    7.3960   18.9260 C   0  0  0  0  0  0  0  0  0  0  0  0
    1.5660    8.0640   19.8180 C   0  0  0  0  0  0  0  0  0  0  0  0
    1.0790    9.1980   19.1150 C   0  0  0  0  0  0  0  0  0  0  0  0
    1.5780    9.2100   17.8690 N   0  0  0  0  0  0  0  0  0  0  0  0
    2.3750    8.0910   17.7550 O   0  0  0  0  0  0  0  0  0  0  0  0
    1.3590    7.7750   20.8370 H   0  0  0  0  0  0  0  0  0  0  0  0
    0.1710   10.2460   19.5890 C   0  0  0  0  0  0  0  0  0  0  0  0
   -0.9680   10.6050   18.8540 C   0  0  0  0  0  0  0  0  0  0  0  0
   -1.8280   11.6080   19.3160 C   0  0  0  0  0  0  0  0  0  0  0  0
   -1.5600   12.2750   20.5160 C   0  0  0  0  0  0  0  0  0  0  0  0
   -0.4350   11.9160   21.2650 C   0  0  0  0  0  0  0  0  0  0  0  0
    0.4240   10.9130   20.7990 C   0  0  0  0  0  0  0  0  0  0  0  0
   -1.2040   10.1230   17.9090 H   0  0  0  0  0  0  0  0  0  0  0  0
   -2.7080   11.8720   18.7310 H   0  0  0  0  0  0  0  0  0  0  0  0
   -0.2240   12.3790   22.2240 H   0  0  0  0  0  0  0  0  0  0  0  0
    1.2930   10.6470   21.4000 H   0  0  0  0  0  0  0  0  0  0  0  0
   -2.5080   13.3340   20.9640 C   0  0  0  0  0  0  0  0  0  0  0  0
   -2.3070   14.5050   20.6620 O   0  0  0  0  0  0  0  0  0  0  0  0
   -3.5660   12.9210   21.7490 N   0  0  0  0  0  0  0  0  0  0  0  0
   -3.5300   12.0020   22.1690 H   0  0  0  0  0  0  0  0  0  0  0  0
   -4.4670   13.8840   22.3300 C   0  0  0  0  0  0  0  0  0  0  0  0
   -3.9520   14.8460   22.3990 H   0  0  0  0  0  0  0  0  0  0  0  0
   -5.3620   13.9930   21.7130 H   0  0  0  0  0  0  0  0  0  0  0  0
   -4.7430   13.5410   23.3290 H   0  0  0  0  0  0  0  0  0  0  0  0
    6.8700    5.0890   18.6650 C   0  0  2  0  0  0  0  0  0  0  0  0
    7.2090    4.0670   18.4610 H   0  0  0  0  0  0  0  0  0  0  0  0
    7.5920    5.5790   19.9240 C   0  0  0  0  0  0  0  0  0  0  0  0
    7.0900    6.4620   20.3350 H   0  0  0  0  0  0  0  0  0  0  0  0
    8.6340    5.8560   19.7320 H   0  0  0  0  0  0  0  0  0  0  0  0
    7.5920    4.8150   20.7080 H   0  0  0  0  0  0  0  0  0  0  0  0
    7.3000    6.1370   17.2220 S   0  0  0  0  0  0  0  0  0  0  0  0
    6.6610    5.2040   15.9150 C   0  0  0  0  0  0  0  0  0  0  0  0
    7.0290    4.0030   15.5300 N   0  0  0  0  0  0  0  0  0  0  0  0
    6.2410    3.6510   14.4530 N   0  0  0  0  0  0  0  0  0  0  0  0
    5.4160    4.6500   14.2200 C   0  0  0  0  0  0  0  0  0  0  0  0
    5.6410    5.6510   15.1150 N   0  0  0  0  0  0  0  0  0  0  0  0
    4.6650    4.7010   13.4470 H   0  0  0  0  0  0  0  0  0  0  0  0
    4.9370    6.8960   15.1750 N   0  0  0  0  0  0  0  0  0  0  0  0
    4.2320    6.9350   14.4390 H   0  0  0  0  0  0  0  0  0  0  0  0
    5.5720    7.6660   14.9670 H   0  0  0  0  0  0  0  0  0  0  0  0
  1  2  1  0  0  0  0
  2  7  1  0  0  0  0
  2  3  2  0  0  0  0
  3  8  1  0  0  0  0
  4  3  1  0  0  0  0
  4  9  1  0  0  0  0
  5  4  2  0  0  0  0
  6  1  2  0  0  0  0
  6  5  1  0  0  0  0
 10  6  1  0  0  0  0
 11  5  1  0  0  0  0
 11 12  2  0  0  0  0
 12 16  1  0  0  0  0
 13 17  1  0  0  0  0
 13 12  1  0  0  0  0
 14 13  2  0  0  0  0
 15 14  1  0  0  0  0
 15 11  1  0  0  0  0
 17 22  1  0  0  0  0
 18 19  1  0  0  0  0
 18 17  2  0  0  0  0
 19 20  2  0  0  0  0
 20 27  1  0  0  0  0
 20 21  1  0  0  0  0
 21 25  1  0  0  0  0
 22 21  2  0  0  0  0
 22 26  1  0  0  0  0
 23 18  1  0  0  0  0
 24 19  1  0  0  0  0
 27 29  1  0  0  0  0
 28 27  2  0  0  0  0
 29 30  1  0  0  0  0
 29 31  1  0  0  0  0
 31 32  1  0  0  0  0
 31 34  1  0  0  0  0
 33 31  1  0  0  0  0
 35 36  1  6  0  0  0
 35  1  1  0  0  0  0
 35 37  1  0  0  0  0
 37 38  1  0  0  0  0
 37 40  1  0  0  0  0
 39 37  1  0  0  0  0
 41 35  1  0  0  0  0
 42 41  1  0  0  0  0
 43 42  2  0  0  0  0
 44 43  1  0  0  0  0
 45 44  2  0  0  0  0
 45 46  1  0  0  0  0
 46 48  1  0  0  0  0
 46 42  1  0  0  0  0
 47 45  1  0  0  0  0
 49 48  1  0  0  0  0
 50 48  1  0  0  0  0
M  END
>  <MODEL>
17

>  <REMARK>
 VINA RESULT:    -7.189      3.387      9.662
 INTER + INTRA:         -10.831
 INTER:                  -9.810
 INTRA:                  -1.021
 UNBOUND:                -0.489
  Name = 
  9 active torsions:
  status: ('A' for Active; 'I' for Inactive)
    1  A    between atoms: C_1  and  C_2
    2  A    between atoms: C_2  and  C_3
    3  A    between atoms: C_2  and  S_24
    4  A    between atoms: C_7  and  C_9
    5  A    between atoms: C_11  and  C_14
    6  A    between atoms: C_17  and  C_20
    7  A    between atoms: N_22  and  C_23
    8  A    between atoms: S_24  and  C_25
    9  A    between atoms: N_29  and  N_30
                            x       y       z     vdW  Elec       q    Type
                         _______ _______ _______ _____ _____    ______ ____

>  <TORSDO>
F 9

$$$$
=
 OpenBabel07192307433D

 50 53  0  0  1  0  0  0  0  0999 V2000
   -1.5470   11.5440   21.7670 C   0  0  0  0  0  0  0  0  0  0  0  0
   -1.3990   11.0500   23.0720 C   0  0  0  0  0  0  0  0  0  0  0  0
   -0.5010   10.0190   23.3420 C   0  0  0  0  0  0  0  0  0  0  0  0
    0.2690    9.4690   22.3150 C   0  0  0  0  0  0  0  0  0  0  0  0
    0.1530    9.9420   21.0010 C   0  0  0  0  0  0  0  0  0  0  0  0
   -0.7600   10.9790   20.7440 C   0  0  0  0  0  0  0  0  0  0  0  0
   -1.9840   11.4660   23.8900 H   0  0  0  0  0  0  0  0  0  0  0  0
   -0.4000    9.6420   24.3580 H   0  0  0  0  0  0  0  0  0  0  0  0
    0.9570    8.6660   22.5600 H   0  0  0  0  0  0  0  0  0  0  0  0
   -0.8530   11.3680   19.7310 H   0  0  0  0  0  0  0  0  0  0  0  0
    0.9700    9.3700   19.9350 C   0  0  0  0  0  0  0  0  0  0  0  0
    1.6960    8.2130   19.7780 C   0  0  0  0  0  0  0  0  0  0  0  0
    2.2570    8.2910   18.4740 C   0  0  0  0  0  0  0  0  0  0  0  0
    1.8750    9.4330   17.8810 N   0  0  0  0  0  0  0  0  0  0  0  0
    1.0810   10.0990   18.7910 O   0  0  0  0  0  0  0  0  0  0  0  0
    1.8060    7.4200   20.5010 H   0  0  0  0  0  0  0  0  0  0  0  0
    3.1270    7.3260   17.7960 C   0  0  0  0  0  0  0  0  0  0  0  0
    4.1750    7.7540   16.9660 C   0  0  0  0  0  0  0  0  0  0  0  0
    4.9990    6.8240   16.3220 C   0  0  0  0  0  0  0  0  0  0  0  0
    4.7860    5.4520   16.4890 C   0  0  0  0  0  0  0  0  0  0  0  0
    3.7540    5.0130   17.3250 C   0  0  0  0  0  0  0  0  0  0  0  0
    2.9300    5.9460   17.9670 C   0  0  0  0  0  0  0  0  0  0  0  0
    4.3630    8.8100   16.7970 H   0  0  0  0  0  0  0  0  0  0  0  0
    5.8080    7.1760   15.6830 H   0  0  0  0  0  0  0  0  0  0  0  0
    3.5910    3.9570   17.5150 H   0  0  0  0  0  0  0  0  0  0  0  0
    2.1350    5.5820   18.6160 H   0  0  0  0  0  0  0  0  0  0  0  0
    5.6930    4.5030   15.7830 C   0  0  0  0  0  0  0  0  0  0  0  0
    6.5940    3.9430   16.3980 O   0  0  0  0  0  0  0  0  0  0  0  0
    5.4770    4.3370   14.4300 N   0  0  0  0  0  0  0  0  0  0  0  0
    4.9000    5.0090   13.9440 H   0  0  0  0  0  0  0  0  0  0  0  0
    6.3750    3.5350   13.6370 C   0  0  0  0  0  0  0  0  0  0  0  0
    5.7850    2.9450   12.9310 H   0  0  0  0  0  0  0  0  0  0  0  0
    7.0720    4.1720   13.0870 H   0  0  0  0  0  0  0  0  0  0  0  0
    6.9260    2.8690   14.3040 H   0  0  0  0  0  0  0  0  0  0  0  0
   -2.5280   12.6780   21.5000 C   0  0  2  0  0  0  0  0  0  0  0  0
   -3.3350   12.6040   22.2370 H   0  0  0  0  0  0  0  0  0  0  0  0
   -3.1560   12.5820   20.1060 C   0  0  0  0  0  0  0  0  0  0  0  0
   -2.6330   11.8340   19.5000 H   0  0  0  0  0  0  0  0  0  0  0  0
   -3.1150   13.5300   19.5600 H   0  0  0  0  0  0  0  0  0  0  0  0
   -4.2050   12.2770   20.1600 H   0  0  0  0  0  0  0  0  0  0  0  0
   -1.6880   14.2940   21.7240 S   0  0  0  0  0  0  0  0  0  0  0  0
   -2.1090   14.6780   23.3550 C   0  0  0  0  0  0  0  0  0  0  0  0
   -1.3180   14.7050   24.4040 N   0  0  0  0  0  0  0  0  0  0  0  0
   -2.0840   15.0710   25.4940 N   0  0  0  0  0  0  0  0  0  0  0  0
   -3.3150   15.2570   25.0700 C   0  0  0  0  0  0  0  0  0  0  0  0
   -3.3820   15.0230   23.7300 N   0  0  0  0  0  0  0  0  0  0  0  0
   -4.1660   15.5510   25.6660 H   0  0  0  0  0  0  0  0  0  0  0  0
   -4.5570   15.1280   22.9180 N   0  0  0  0  0  0  0  0  0  0  0  0
   -4.2970   15.3130   21.9500 H   0  0  0  0  0  0  0  0  0  0  0  0
   -5.1040   15.9420   23.2010 H   0  0  0  0  0  0  0  0  0  0  0  0
  1  2  1  0  0  0  0
  2  3  2  0  0  0  0
  2  7  1  0  0  0  0
  3  8  1  0  0  0  0
  4  9  1  0  0  0  0
  4  3  1  0  0  0  0
  5  4  2  0  0  0  0
  6  5  1  0  0  0  0
  6  1  2  0  0  0  0
 10  6  1  0  0  0  0
 11  5  1  0  0  0  0
 12 11  2  0  0  0  0
 12 16  1  0  0  0  0
 13 12  1  0  0  0  0
 14 13  2  0  0  0  0
 14 15  1  0  0  0  0
 15 11  1  0  0  0  0
 17 22  1  0  0  0  0
 17 13  1  0  0  0  0
 18 17  2  0  0  0  0
 19 20  2  0  0  0  0
 19 18  1  0  0  0  0
 20 21  1  0  0  0  0
 21 25  1  0  0  0  0
 21 22  2  0  0  0  0
 22 26  1  0  0  0  0
 23 18  1  0  0  0  0
 24 19  1  0  0  0  0
 27 28  2  0  0  0  0
 27 20  1  0  0  0  0
 29 27  1  0  0  0  0
 30 29  1  0  0  0  0
 31 34  1  0  0  0  0
 31 29  1  0  0  0  0
 32 31  1  0  0  0  0
 33 31  1  0  0  0  0
 35 41  1  0  0  0  0
 35  1  1  0  0  0  0
 35 36  1  1  0  0  0
 37 40  1  0  0  0  0
 37 35  1  0  0  0  0
 38 37  1  0  0  0  0
 39 37  1  0  0  0  0
 41 42  1  0  0  0  0
 42 46  1  0  0  0  0
 42 43  2  0  0  0  0
 43 44  1  0  0  0  0
 45 44  2  0  0  0  0
 45 47  1  0  0  0  0
 46 45  1  0  0  0  0
 48 50  1  0  0  0  0
 48 46  1  0  0  0  0
 49 48  1  0  0  0  0
M  END
>  <MODEL>
18

>  <REMARK>
 VINA RESULT:    -7.109      2.976      3.837
 INTER + INTRA:         -10.714
 INTER:                  -9.912
 INTRA:                  -0.802
 UNBOUND:                -0.489
  Name = 
  9 active torsions:
  status: ('A' for Active; 'I' for Inactive)
    1  A    between atoms: C_1  and  C_2
    2  A    between atoms: C_2  and  C_3
    3  A    between atoms: C_2  and  S_24
    4  A    between atoms: C_7  and  C_9
    5  A    between atoms: C_11  and  C_14
    6  A    between atoms: C_17  and  C_20
    7  A    between atoms: N_22  and  C_23
    8  A    between atoms: S_24  and  C_25
    9  A    between atoms: N_29  and  N_30
                            x       y       z     vdW  Elec       q    Type
                         _______ _______ _______ _____ _____    ______ ____

>  <TORSDO>
F 9

$$$$
=
 OpenBabel07192307433D

 50 53  0  0  1  0  0  0  0  0999 V2000
   -1.4010   12.1850   19.6910 C   0  0  0  0  0  0  0  0  0  0  0  0
   -0.6830   13.3880   19.6220 C   0  0  0  0  0  0  0  0  0  0  0  0
    0.6740   13.3870   19.3040 C   0  0  0  0  0  0  0  0  0  0  0  0
    1.3340   12.1840   19.0440 C   0  0  0  0  0  0  0  0  0  0  0  0
    0.6480   10.9640   19.0970 C   0  0  0  0  0  0  0  0  0  0  0  0
   -0.7190   10.9820   19.4230 C   0  0  0  0  0  0  0  0  0  0  0  0
   -1.1770   14.3380   19.8150 H   0  0  0  0  0  0  0  0  0  0  0  0
    1.2200   14.3270   19.2590 H   0  0  0  0  0  0  0  0  0  0  0  0
    2.3920   12.2200   18.8010 H   0  0  0  0  0  0  0  0  0  0  0  0
   -1.2720   10.0430   19.4550 H   0  0  0  0  0  0  0  0  0  0  0  0
    1.3430    9.7120   18.8120 C   0  0  0  0  0  0  0  0  0  0  0  0
    1.4310    8.4840   19.4240 C   0  0  0  0  0  0  0  0  0  0  0  0
    2.2920    7.7100   18.6000 C   0  0  0  0  0  0  0  0  0  0  0  0
    2.6890    8.4380   17.5450 N   0  0  0  0  0  0  0  0  0  0  0  0
    2.1030    9.6780   17.6820 O   0  0  0  0  0  0  0  0  0  0  0  0
    0.9400    8.1850   20.3370 H   0  0  0  0  0  0  0  0  0  0  0  0
    2.7350    6.3260   18.7900 C   0  0  0  0  0  0  0  0  0  0  0  0
    3.5210    5.6780   17.8250 C   0  0  0  0  0  0  0  0  0  0  0  0
    3.9380    4.3560   18.0160 C   0  0  0  0  0  0  0  0  0  0  0  0
    3.5700    3.6540   19.1690 C   0  0  0  0  0  0  0  0  0  0  0  0
    2.7980    4.2950   20.1440 C   0  0  0  0  0  0  0  0  0  0  0  0
    2.3810    5.6170   19.9500 C   0  0  0  0  0  0  0  0  0  0  0  0
    3.8150    6.1810   16.9080 H   0  0  0  0  0  0  0  0  0  0  0  0
    4.5490    3.8700   17.2560 H   0  0  0  0  0  0  0  0  0  0  0  0
    2.5350    3.7970   21.0730 H   0  0  0  0  0  0  0  0  0  0  0  0
    1.7840    6.0970   20.7240 H   0  0  0  0  0  0  0  0  0  0  0  0
    4.0410    2.2490   19.3250 C   0  0  0  0  0  0  0  0  0  0  0  0
    3.6220    1.3750   18.5740 O   0  0  0  0  0  0  0  0  0  0  0  0
    4.9180    2.0070   20.3620 N   0  0  0  0  0  0  0  0  0  0  0  0
    5.0180    2.7030   21.0870 H   0  0  0  0  0  0  0  0  0  0  0  0
    5.3360    0.6610   20.6680 C   0  0  0  0  0  0  0  0  0  0  0  0
    5.1210    0.0240   19.8060 H   0  0  0  0  0  0  0  0  0  0  0  0
    6.4070    0.6330   20.8830 H   0  0  0  0  0  0  0  0  0  0  0  0
    4.7730    0.3120   21.5350 H   0  0  0  0  0  0  0  0  0  0  0  0
   -2.8850   12.2140   20.0300 C   0  0  2  0  0  0  0  0  0  0  0  0
   -3.0790   11.4170   20.7580 H   0  0  0  0  0  0  0  0  0  0  0  0
   -3.7640   11.9520   18.8030 C   0  0  0  0  0  0  0  0  0  0  0  0
   -3.7640   12.8230   18.1380 H   0  0  0  0  0  0  0  0  0  0  0  0
   -4.8060   11.7440   19.0680 H   0  0  0  0  0  0  0  0  0  0  0  0
   -3.3950   11.1020   18.2210 H   0  0  0  0  0  0  0  0  0  0  0  0
   -3.3160   13.8190   20.8070 S   0  0  0  0  0  0  0  0  0  0  0  0
   -3.8570   13.3140   22.3680 C   0  0  0  0  0  0  0  0  0  0  0  0
   -5.0950   13.2210   22.7980 N   0  0  0  0  0  0  0  0  0  0  0  0
   -5.0510   12.7690   24.1030 N   0  0  0  0  0  0  0  0  0  0  0  0
   -3.7850   12.6000   24.4210 C   0  0  0  0  0  0  0  0  0  0  0  0
   -2.9950   12.9280   23.3620 N   0  0  0  0  0  0  0  0  0  0  0  0
   -3.3980   12.2550   25.3680 H   0  0  0  0  0  0  0  0  0  0  0  0
   -1.5650   12.8690   23.3330 N   0  0  0  0  0  0  0  0  0  0  0  0
   -1.1780   13.3400   24.1500 H   0  0  0  0  0  0  0  0  0  0  0  0
   -1.2110   13.3980   22.5360 H   0  0  0  0  0  0  0  0  0  0  0  0
  1 35  1  0  0  0  0
  2  1  1  0  0  0  0
  2  7  1  0  0  0  0
  3  2  2  0  0  0  0
  4  5  2  0  0  0  0
  4  3  1  0  0  0  0
  5  6  1  0  0  0  0
  6 10  1  0  0  0  0
  6  1  2  0  0  0  0
  8  3  1  0  0  0  0
  9  4  1  0  0  0  0
 11  5  1  0  0  0  0
 11 12  2  0  0  0  0
 12 16  1  0  0  0  0
 13 17  1  0  0  0  0
 13 12  1  0  0  0  0
 14 15  1  0  0  0  0
 14 13  2  0  0  0  0
 15 11  1  0  0  0  0
 17 22  1  0  0  0  0
 18 19  1  0  0  0  0
 18 17  2  0  0  0  0
 19 20  2  0  0  0  0
 20 27  1  0  0  0  0
 20 21  1  0  0  0  0
 21 25  1  0  0  0  0
 22 21  2  0  0  0  0
 22 26  1  0  0  0  0
 23 18  1  0  0  0  0
 24 19  1  0  0  0  0
 27 29  1  0  0  0  0
 28 27  2  0  0  0  0
 29 31  1  0  0  0  0
 29 30  1  0  0  0  0
 31 33  1  0  0  0  0
 31 34  1  0  0  0  0
 32 31  1  0  0  0  0
 35 36  1  1  0  0  0
 35 41  1  0  0  0  0
 37 39  1  0  0  0  0
 37 35  1  0  0  0  0
 38 37  1  0  0  0  0
 40 37  1  0  0  0  0
 41 42  1  0  0  0  0
 42 43  2  0  0  0  0
 42 46  1  0  0  0  0
 43 44  1  0  0  0  0
 44 45  2  0  0  0  0
 45 47  1  0  0  0  0
 46 45  1  0  0  0  0
 48 46  1  0  0  0  0
 48 49  1  0  0  0  0
 50 48  1  0  0  0  0
M  END
>  <MODEL>
19

>  <REMARK>
 VINA RESULT:    -6.944      3.549      4.947
 INTER + INTRA:         -10.478
 INTER:                  -9.607
 INTRA:                  -0.871
 UNBOUND:                -0.489
  Name = 
  9 active torsions:
  status: ('A' for Active; 'I' for Inactive)
    1  A    between atoms: C_1  and  C_2
    2  A    between atoms: C_2  and  C_3
    3  A    between atoms: C_2  and  S_24
    4  A    between atoms: C_7  and  C_9
    5  A    between atoms: C_11  and  C_14
    6  A    between atoms: C_17  and  C_20
    7  A    between atoms: N_22  and  C_23
    8  A    between atoms: S_24  and  C_25
    9  A    between atoms: N_29  and  N_30
                            x       y       z     vdW  Elec       q    Type
                         _______ _______ _______ _____ _____    ______ ____

>  <TORSDO>
F 9

$$$$
=
 OpenBabel07192307433D

 50 53  0  0  1  0  0  0  0  0999 V2000
   -1.7340   12.1920   19.9470 C   0  0  0  0  0  0  0  0  0  0  0  0
   -1.0340   13.4040   20.0400 C   0  0  0  0  0  0  0  0  0  0  0  0
    0.3510   13.4370   19.8920 C   0  0  0  0  0  0  0  0  0  0  0  0
    1.0600   12.2610   19.6410 C   0  0  0  0  0  0  0  0  0  0  0  0
    0.3940   11.0320   19.5340 C   0  0  0  0  0  0  0  0  0  0  0  0
   -1.0020   11.0150   19.6900 C   0  0  0  0  0  0  0  0  0  0  0  0
   -1.5650   14.3350   20.2300 H   0  0  0  0  0  0  0  0  0  0  0  0
    0.8820   14.3840   19.9720 H   0  0  0  0  0  0  0  0  0  0  0  0
    2.1390   12.3220   19.5330 H   0  0  0  0  0  0  0  0  0  0  0  0
   -1.5370   10.0710   19.5960 H   0  0  0  0  0  0  0  0  0  0  0  0
    1.1420    9.8090   19.2590 C   0  0  0  0  0  0  0  0  0  0  0  0
    1.8790    9.3340   18.2000 C   0  0  0  0  0  0  0  0  0  0  0  0
    2.3390    8.0510   18.6020 C   0  0  0  0  0  0  0  0  0  0  0  0
    1.9050    7.7800   19.8430 N   0  0  0  0  0  0  0  0  0  0  0  0
    1.1620    8.8690   20.2450 O   0  0  0  0  0  0  0  0  0  0  0  0
    2.0630    9.8420   17.2660 H   0  0  0  0  0  0  0  0  0  0  0  0
    3.1620    7.0990   17.8510 C   0  0  0  0  0  0  0  0  0  0  0  0
    4.1820    7.5420   16.9950 C   0  0  0  0  0  0  0  0  0  0  0  0
    4.9610    6.6240   16.2810 C   0  0  0  0  0  0  0  0  0  0  0  0
    4.7300    5.2500   16.4020 C   0  0  0  0  0  0  0  0  0  0  0  0
    3.7250    4.7970   17.2630 C   0  0  0  0  0  0  0  0  0  0  0  0
    2.9450    5.7170   17.9750 C   0  0  0  0  0  0  0  0  0  0  0  0
    4.3840    8.6010   16.8600 H   0  0  0  0  0  0  0  0  0  0  0  0
    5.7500    6.9870   15.6230 H   0  0  0  0  0  0  0  0  0  0  0  0
    3.5500    3.7360   17.4180 H   0  0  0  0  0  0  0  0  0  0  0  0
    2.1710    5.3420   18.6420 H   0  0  0  0  0  0  0  0  0  0  0  0
    5.5880    4.3150   15.6220 C   0  0  0  0  0  0  0  0  0  0  0  0
    6.3840    3.5850   16.2020 O   0  0  0  0  0  0  0  0  0  0  0  0
    5.4550    4.3580   14.2490 N   0  0  0  0  0  0  0  0  0  0  0  0
    4.9820    5.1470   13.8310 H   0  0  0  0  0  0  0  0  0  0  0  0
    6.3260    3.5790   13.4040 C   0  0  0  0  0  0  0  0  0  0  0  0
    5.9510    3.6290   12.3780 H   0  0  0  0  0  0  0  0  0  0  0  0
    7.3450    3.9720   13.4390 H   0  0  0  0  0  0  0  0  0  0  0  0
    6.3120    2.5440   13.7520 H   0  0  0  0  0  0  0  0  0  0  0  0
   -3.2480   12.1840   20.1020 C   0  0  2  0  0  0  0  0  0  0  0  0
   -3.5080   11.3940   20.8170 H   0  0  0  0  0  0  0  0  0  0  0  0
   -3.9630   11.8760   18.7830 C   0  0  0  0  0  0  0  0  0  0  0  0
   -3.7080   12.6230   18.0240 H   0  0  0  0  0  0  0  0  0  0  0  0
   -5.0540   11.8750   18.8850 H   0  0  0  0  0  0  0  0  0  0  0  0
   -3.6680   10.8990   18.3860 H   0  0  0  0  0  0  0  0  0  0  0  0
   -3.8130   13.7900   20.7870 S   0  0  0  0  0  0  0  0  0  0  0  0
   -4.0960   13.3790   22.4410 C   0  0  0  0  0  0  0  0  0  0  0  0
   -5.1450   12.7740   22.9510 N   0  0  0  0  0  0  0  0  0  0  0  0
   -4.9350   12.6490   24.3100 N   0  0  0  0  0  0  0  0  0  0  0  0
   -3.7610   13.1790   24.5810 C   0  0  0  0  0  0  0  0  0  0  0  0
   -3.1930   13.6520   23.4370 N   0  0  0  0  0  0  0  0  0  0  0  0
   -3.2910   13.2460   25.5500 H   0  0  0  0  0  0  0  0  0  0  0  0
   -1.9180   14.2920   23.3380 N   0  0  0  0  0  0  0  0  0  0  0  0
   -1.7350   14.5600   22.3710 H   0  0  0  0  0  0  0  0  0  0  0  0
   -1.1760   13.6310   23.5690 H   0  0  0  0  0  0  0  0  0  0  0  0
  1  2  1  0  0  0  0
  1 35  1  0  0  0  0
  2  7  1  0  0  0  0
  3  8  1  0  0  0  0
  3  2  2  0  0  0  0
  4  3  1  0  0  0  0
  5  4  2  0  0  0  0
  5  6  1  0  0  0  0
  6  1  2  0  0  0  0
  9  4  1  0  0  0  0
 10  6  1  0  0  0  0
 11  5  1  0  0  0  0
 11 15  1  0  0  0  0
 12 13  1  0  0  0  0
 12 11  2  0  0  0  0
 13 14  2  0  0  0  0
 14 15  1  0  0  0  0
 16 12  1  0  0  0  0
 17 22  1  0  0  0  0
 17 13  1  0  0  0  0
 18 17  2  0  0  0  0
 19 20  2  0  0  0  0
 19 18  1  0  0  0  0
 20 21  1  0  0  0  0
 21 25  1  0  0  0  0
 21 22  2  0  0  0  0
 22 26  1  0  0  0  0
 23 18  1  0  0  0  0
 24 19  1  0  0  0  0
 27 28  2  0  0  0  0
 27 20  1  0  0  0  0
 29 27  1  0  0  0  0
 30 29  1  0  0  0  0
 31 33  1  0  0  0  0
 31 34  1  0  0  0  0
 31 29  1  0  0  0  0
 32 31  1  0  0  0  0
 35 41  1  0  0  0  0
 35 36  1  1  0  0  0
 37 39  1  0  0  0  0
 37 35  1  0  0  0  0
 38 37  1  0  0  0  0
 40 37  1  0  0  0  0
 41 42  1  0  0  0  0
 42 43  2  0  0  0  0
 42 46  1  0  0  0  0
 43 44  1  0  0  0  0
 44 45  2  0  0  0  0
 45 47  1  0  0  0  0
 46 45  1  0  0  0  0
 48 46  1  0  0  0  0
 48 50  1  0  0  0  0
 49 48  1  0  0  0  0
M  END
>  <MODEL>
20

>  <REMARK>
 VINA RESULT:    -6.833      2.971      4.070
 INTER + INTRA:         -10.318
 INTER:                  -9.455
 INTRA:                  -0.863
 UNBOUND:                -0.489
  Name = 
  9 active torsions:
  status: ('A' for Active; 'I' for Inactive)
    1  A    between atoms: C_1  and  C_2
    2  A    between atoms: C_2  and  C_3
    3  A    between atoms: C_2  and  S_24
    4  A    between atoms: C_7  and  C_9
    5  A    between atoms: C_11  and  C_14
    6  A    between atoms: C_17  and  C_20
    7  A    between atoms: N_22  and  C_23
    8  A    between atoms: S_24  and  C_25
    9  A    between atoms: N_29  and  N_30
                            x       y       z     vdW  Elec       q    Type
                         _______ _______ _______ _____ _____    ______ ____

>  <TORSDO>
F 9

$$$$
=
 OpenBabel07192307433D

 50 53  0  0  1  0  0  0  0  0999 V2000
   -1.2940   12.9040   20.3290 C   0  0  0  0  0  0  0  0  0  0  0  0
   -0.5820   14.0800   20.0480 C   0  0  0  0  0  0  0  0  0  0  0  0
    0.6840   14.0220   19.4710 C   0  0  0  0  0  0  0  0  0  0  0  0
    1.2590   12.7890   19.1570 C   0  0  0  0  0  0  0  0  0  0  0  0
    0.5750   11.5930   19.4170 C   0  0  0  0  0  0  0  0  0  0  0  0
   -0.7000   11.6680   20.0030 C   0  0  0  0  0  0  0  0  0  0  0  0
   -1.0120   15.0530   20.2790 H   0  0  0  0  0  0  0  0  0  0  0  0
    1.2270   14.9420   19.2630 H   0  0  0  0  0  0  0  0  0  0  0  0
    2.2480   12.7810   18.7100 H   0  0  0  0  0  0  0  0  0  0  0  0
   -1.2510   10.7500   20.1990 H   0  0  0  0  0  0  0  0  0  0  0  0
    1.1790   10.3090   19.0740 C   0  0  0  0  0  0  0  0  0  0  0  0
    1.2550    9.0760   19.6780 C   0  0  0  0  0  0  0  0  0  0  0  0
    2.0010    8.2610   18.7850 C   0  0  0  0  0  0  0  0  0  0  0  0
    2.3430    8.9710   17.6980 N   0  0  0  0  0  0  0  0  0  0  0  0
    1.8350   10.2390   17.8830 O   0  0  0  0  0  0  0  0  0  0  0  0
    0.8290    8.8000   20.6310 H   0  0  0  0  0  0  0  0  0  0  0  0
    2.3870    6.8560   18.9380 C   0  0  0  0  0  0  0  0  0  0  0  0
    2.0620    6.1370   20.0980 C   0  0  0  0  0  0  0  0  0  0  0  0
    2.4370    4.7950   20.2340 C   0  0  0  0  0  0  0  0  0  0  0  0
    3.1500    4.1510   19.2180 C   0  0  0  0  0  0  0  0  0  0  0  0
    3.4670    4.8530   18.0500 C   0  0  0  0  0  0  0  0  0  0  0  0
    3.0920    6.1950   17.9180 C   0  0  0  0  0  0  0  0  0  0  0  0
    1.5250    6.6050   20.9180 H   0  0  0  0  0  0  0  0  0  0  0  0
    2.1750    4.2540   21.1420 H   0  0  0  0  0  0  0  0  0  0  0  0
    3.9770    4.3700   17.2220 H   0  0  0  0  0  0  0  0  0  0  0  0
    3.3470    6.7220   16.9990 H   0  0  0  0  0  0  0  0  0  0  0  0
    3.5240    2.7210   19.4110 C   0  0  0  0  0  0  0  0  0  0  0  0
    2.7630    1.8340   19.0420 O   0  0  0  0  0  0  0  0  0  0  0  0
    4.7250    2.4800   20.0460 N   0  0  0  0  0  0  0  0  0  0  0  0
    5.1710    3.2360   20.5460 H   0  0  0  0  0  0  0  0  0  0  0  0
    5.1170    1.1340   20.3860 C   0  0  0  0  0  0  0  0  0  0  0  0
    5.2440    1.0710   21.4690 H   0  0  0  0  0  0  0  0  0  0  0  0
    4.3530    0.4210   20.0660 H   0  0  0  0  0  0  0  0  0  0  0  0
    6.0630    0.9130   19.8890 H   0  0  0  0  0  0  0  0  0  0  0  0
   -2.6810   12.9940   20.9510 C   0  0  2  0  0  0  0  0  0  0  0  0
   -3.3720   12.4320   20.3130 H   0  0  0  0  0  0  0  0  0  0  0  0
   -3.1860   14.4380   21.0320 C   0  0  0  0  0  0  0  0  0  0  0  0
   -3.8770   14.6490   20.2080 H   0  0  0  0  0  0  0  0  0  0  0  0
   -2.3750   15.1720   20.9720 H   0  0  0  0  0  0  0  0  0  0  0  0
   -3.7290   14.6210   21.9640 H   0  0  0  0  0  0  0  0  0  0  0  0
   -2.6700   12.2160   22.6130 S   0  0  0  0  0  0  0  0  0  0  0  0
   -2.2970   13.5670   23.6240 C   0  0  0  0  0  0  0  0  0  0  0  0
   -1.1430   14.1810   23.7510 N   0  0  0  0  0  0  0  0  0  0  0  0
   -1.3140   15.2060   24.6610 N   0  0  0  0  0  0  0  0  0  0  0  0
   -2.5700   15.1830   25.0540 C   0  0  0  0  0  0  0  0  0  0  0  0
   -3.2300   14.1700   24.4290 N   0  0  0  0  0  0  0  0  0  0  0  0
   -3.0370   15.8510   25.7620 H   0  0  0  0  0  0  0  0  0  0  0  0
   -4.6110   13.8370   24.6020 N   0  0  0  0  0  0  0  0  0  0  0  0
   -4.8470   13.8260   25.5940 H   0  0  0  0  0  0  0  0  0  0  0  0
   -4.7820   12.8830   24.2840 H   0  0  0  0  0  0  0  0  0  0  0  0
  1 35  1  0  0  0  0
  2  7  1  0  0  0  0
  2  1  1  0  0  0  0
  3  2  2  0  0  0  0
  4  5  2  0  0  0  0
  4  3  1  0  0  0  0
  5  6  1  0  0  0  0
  6 10  1  0  0  0  0
  6  1  2  0  0  0  0
  8  3  1  0  0  0  0
  9  4  1  0  0  0  0
 11  5  1  0  0  0  0
 11 12  2  0  0  0  0
 12 16  1  0  0  0  0
 13 17  1  0  0  0  0
 13 12  1  0  0  0  0
 14 15  1  0  0  0  0
 14 13  2  0  0  0  0
 15 11  1  0  0  0  0
 17 18  1  0  0  0  0
 18 19  2  0  0  0  0
 18 23  1  0  0  0  0
 19 24  1  0  0  0  0
 20 27  1  0  0  0  0
 20 19  1  0  0  0  0
 21 20  2  0  0  0  0
 22 21  1  0  0  0  0
 22 17  2  0  0  0  0
 25 21  1  0  0  0  0
 26 22  1  0  0  0  0
 27 29  1  0  0  0  0
 28 27  2  0  0  0  0
 29 31  1  0  0  0  0
 29 30  1  0  0  0  0
 31 32  1  0  0  0  0
 33 31  1  0  0  0  0
 34 31  1  0  0  0  0
 35 36  1  6  0  0  0
 35 37  1  0  0  0  0
 35 41  1  0  0  0  0
 37 40  1  0  0  0  0
 38 37  1  0  0  0  0
 39 37  1  0  0  0  0
 41 42  1  0  0  0  0
 42 43  2  0  0  0  0
 42 46  1  0  0  0  0
 43 44  1  0  0  0  0
 44 45  2  0  0  0  0
 45 47  1  0  0  0  0
 46 48  1  0  0  0  0
 46 45  1  0  0  0  0
 48 49  1  0  0  0  0
 50 48  1  0  0  0  0
M  END
>  <MODEL>
21

>  <REMARK>
 VINA RESULT:    -6.693      3.502      5.068
 INTER + INTRA:         -10.116
 INTER:                  -9.316
 INTRA:                  -0.801
 UNBOUND:                -0.489
  Name = 
  9 active torsions:
  status: ('A' for Active; 'I' for Inactive)
    1  A    between atoms: C_1  and  C_2
    2  A    between atoms: C_2  and  C_3
    3  A    between atoms: C_2  and  S_24
    4  A    between atoms: C_7  and  C_9
    5  A    between atoms: C_11  and  C_14
    6  A    between atoms: C_17  and  C_20
    7  A    between atoms: N_22  and  C_23
    8  A    between atoms: S_24  and  C_25
    9  A    between atoms: N_29  and  N_30
                            x       y       z     vdW  Elec       q    Type
                         _______ _______ _______ _____ _____    ______ ____

>  <TORSDO>
F 9

$$$$
=
 OpenBabel07192307433D

 50 53  0  0  1  0  0  0  0  0999 V2000
   -2.5050   12.2350   20.6030 C   0  0  0  0  0  0  0  0  0  0  0  0
   -2.2290   12.9500   21.7780 C   0  0  0  0  0  0  0  0  0  0  0  0
   -1.1610   12.5870   22.5940 C   0  0  0  0  0  0  0  0  0  0  0  0
   -0.3450   11.5080   22.2470 C   0  0  0  0  0  0  0  0  0  0  0  0
   -0.5860   10.7750   21.0780 C   0  0  0  0  0  0  0  0  0  0  0  0
   -1.6700   11.1510   20.2670 C   0  0  0  0  0  0  0  0  0  0  0  0
   -2.8470   13.7980   22.0660 H   0  0  0  0  0  0  0  0  0  0  0  0
   -0.9610   13.1470   23.5060 H   0  0  0  0  0  0  0  0  0  0  0  0
    0.4780   11.2510   22.9080 H   0  0  0  0  0  0  0  0  0  0  0  0
   -1.8640   10.6010   19.3470 H   0  0  0  0  0  0  0  0  0  0  0  0
    0.2790    9.6560   20.7160 C   0  0  0  0  0  0  0  0  0  0  0  0
    1.0200    9.3140   19.6090 C   0  0  0  0  0  0  0  0  0  0  0  0
    1.6330    8.0730   19.9310 C   0  0  0  0  0  0  0  0  0  0  0  0
    1.2840    7.7000   21.1720 N   0  0  0  0  0  0  0  0  0  0  0  0
    0.4420    8.6810   21.6530 O   0  0  0  0  0  0  0  0  0  0  0  0
    1.1080    9.8810   18.6960 H   0  0  0  0  0  0  0  0  0  0  0  0
    2.5240    7.2540   19.1040 C   0  0  0  0  0  0  0  0  0  0  0  0
    2.8480    5.9390   19.4710 C   0  0  0  0  0  0  0  0  0  0  0  0
    3.7000    5.1660   18.6750 C   0  0  0  0  0  0  0  0  0  0  0  0
    4.2510    5.6960   17.5030 C   0  0  0  0  0  0  0  0  0  0  0  0
    3.9240    7.0000   17.1190 C   0  0  0  0  0  0  0  0  0  0  0  0
    3.0720    7.7720   17.9190 C   0  0  0  0  0  0  0  0  0  0  0  0
    2.4550    5.4960   20.3820 H   0  0  0  0  0  0  0  0  0  0  0  0
    3.9390    4.1470   18.9760 H   0  0  0  0  0  0  0  0  0  0  0  0
    4.2940    7.4260   16.1920 H   0  0  0  0  0  0  0  0  0  0  0  0
    2.8280    8.7840   17.5990 H   0  0  0  0  0  0  0  0  0  0  0  0
    5.1520    4.8310   16.6900 C   0  0  0  0  0  0  0  0  0  0  0  0
    4.9880    3.6160   16.6770 O   0  0  0  0  0  0  0  0  0  0  0  0
    6.1690    5.4700   16.0100 N   0  0  0  0  0  0  0  0  0  0  0  0
    6.4020    6.4190   16.2640 H   0  0  0  0  0  0  0  0  0  0  0  0
    7.1620    4.7090   15.2930 C   0  0  0  0  0  0  0  0  0  0  0  0
    7.1570    5.0260   14.2470 H   0  0  0  0  0  0  0  0  0  0  0  0
    8.1540    4.8780   15.7200 H   0  0  0  0  0  0  0  0  0  0  0  0
    6.9030    3.6510   15.3600 H   0  0  0  0  0  0  0  0  0  0  0  0
   -3.6730   12.6590   19.7220 C   0  0  2  0  0  0  0  0  0  0  0  0
   -3.2610   13.0840   18.7990 H   0  0  0  0  0  0  0  0  0  0  0  0
   -4.5390   13.7330   20.3860 C   0  0  0  0  0  0  0  0  0  0  0  0
   -4.7220   13.4820   21.4370 H   0  0  0  0  0  0  0  0  0  0  0  0
   -5.5160   13.8450   19.9040 H   0  0  0  0  0  0  0  0  0  0  0  0
   -4.0480   14.7110   20.3690 H   0  0  0  0  0  0  0  0  0  0  0  0
   -4.6830   11.1920   19.2790 S   0  0  0  0  0  0  0  0  0  0  0  0
   -4.0260   10.7730   17.7370 C   0  0  0  0  0  0  0  0  0  0  0  0
   -3.2190    9.7770   17.4520 N   0  0  0  0  0  0  0  0  0  0  0  0
   -2.9610    9.8240   16.0960 N   0  0  0  0  0  0  0  0  0  0  0  0
   -3.6250   10.8470   15.6010 C   0  0  0  0  0  0  0  0  0  0  0  0
   -4.3110   11.4760   16.5940 N   0  0  0  0  0  0  0  0  0  0  0  0
   -3.6440   11.1670   14.5700 H   0  0  0  0  0  0  0  0  0  0  0  0
   -5.1470   12.6270   16.4370 N   0  0  0  0  0  0  0  0  0  0  0  0
   -5.6930   12.7820   17.2840 H   0  0  0  0  0  0  0  0  0  0  0  0
   -5.8400   12.4580   15.7080 H   0  0  0  0  0  0  0  0  0  0  0  0
  1  2  1  0  0  0  0
  2  7  1  0  0  0  0
  2  3  2  0  0  0  0
  3  8  1  0  0  0  0
  4  3  1  0  0  0  0
  4  9  1  0  0  0  0
  5  4  2  0  0  0  0
  6  1  2  0  0  0  0
  6  5  1  0  0  0  0
 10  6  1  0  0  0  0
 11  5  1  0  0  0  0
 11 15  1  0  0  0  0
 12 13  1  0  0  0  0
 12 11  2  0  0  0  0
 13 14  2  0  0  0  0
 14 15  1  0  0  0  0
 16 12  1  0  0  0  0
 17 18  1  0  0  0  0
 17 13  1  0  0  0  0
 18 23  1  0  0  0  0
 19 24  1  0  0  0  0
 19 18  2  0  0  0  0
 20 19  1  0  0  0  0
 21 20  2  0  0  0  0
 21 22  1  0  0  0  0
 22 17  2  0  0  0  0
 25 21  1  0  0  0  0
 26 22  1  0  0  0  0
 27 20  1  0  0  0  0
 28 27  2  0  0  0  0
 29 30  1  0  0  0  0
 29 27  1  0  0  0  0
 31 34  1  0  0  0  0
 31 33  1  0  0  0  0
 31 29  1  0  0  0  0
 32 31  1  0  0  0  0
 35 36  1  6  0  0  0
 35 37  1  0  0  0  0
 35  1  1  0  0  0  0
 37 38  1  0  0  0  0
 39 37  1  0  0  0  0
 40 37  1  0  0  0  0
 41 35  1  0  0  0  0
 42 41  1  0  0  0  0
 43 42  2  0  0  0  0
 44 43  1  0  0  0  0
 45 44  2  0  0  0  0
 45 46  1  0  0  0  0
 46 42  1  0  0  0  0
 47 45  1  0  0  0  0
 48 46  1  0  0  0  0
 48 49  1  0  0  0  0
 50 48  1  0  0  0  0
M  END
>  <MODEL>
22

>  <REMARK>
 VINA RESULT:    -6.659      3.091      3.915
 INTER + INTRA:         -10.068
 INTER:                  -9.204
 INTRA:                  -0.864
 UNBOUND:                -0.489
  Name = 
  9 active torsions:
  status: ('A' for Active; 'I' for Inactive)
    1  A    between atoms: C_1  and  C_2
    2  A    between atoms: C_2  and  C_3
    3  A    between atoms: C_2  and  S_24
    4  A    between atoms: C_7  and  C_9
    5  A    between atoms: C_11  and  C_14
    6  A    between atoms: C_17  and  C_20
    7  A    between atoms: N_22  and  C_23
    8  A    between atoms: S_24  and  C_25
    9  A    between atoms: N_29  and  N_30
                            x       y       z     vdW  Elec       q    Type
                         _______ _______ _______ _____ _____    ______ ____

>  <TORSDO>
F 9

$$$$
=
 OpenBabel07192307433D

 50 53  0  0  1  0  0  0  0  0999 V2000
    4.5300    4.4660   17.4250 C   0  0  0  0  0  0  0  0  0  0  0  0
    5.8330    4.7910   17.0190 C   0  0  0  0  0  0  0  0  0  0  0  0
    6.1990    6.1170   16.8050 C   0  0  0  0  0  0  0  0  0  0  0  0
    5.2720    7.1430   17.0000 C   0  0  0  0  0  0  0  0  0  0  0  0
    3.9640    6.8580   17.4110 C   0  0  0  0  0  0  0  0  0  0  0  0
    3.6090    5.5140   17.6190 C   0  0  0  0  0  0  0  0  0  0  0  0
    6.5740    4.0090   16.8670 H   0  0  0  0  0  0  0  0  0  0  0  0
    7.2120    6.3550   16.4850 H   0  0  0  0  0  0  0  0  0  0  0  0
    5.5910    8.1670   16.8220 H   0  0  0  0  0  0  0  0  0  0  0  0
    2.6000    5.2750   17.9520 H   0  0  0  0  0  0  0  0  0  0  0  0
    3.0040    7.9380   17.6240 C   0  0  0  0  0  0  0  0  0  0  0  0
    1.6390    8.0140   17.7740 C   0  0  0  0  0  0  0  0  0  0  0  0
    1.3530    9.3950   17.9480 C   0  0  0  0  0  0  0  0  0  0  0  0
    2.4910   10.1040   17.9140 N   0  0  0  0  0  0  0  0  0  0  0  0
    3.5110    9.1990   17.7090 O   0  0  0  0  0  0  0  0  0  0  0  0
    0.9450    7.1880   17.7630 H   0  0  0  0  0  0  0  0  0  0  0  0
    0.0510   10.0390   18.1430 C   0  0  0  0  0  0  0  0  0  0  0  0
   -0.0660   11.2280   18.8780 C   0  0  0  0  0  0  0  0  0  0  0  0
   -1.3150   11.8350   19.0580 C   0  0  0  0  0  0  0  0  0  0  0  0
   -2.4690   11.2590   18.5150 C   0  0  0  0  0  0  0  0  0  0  0  0
   -2.3620   10.0820   17.7680 C   0  0  0  0  0  0  0  0  0  0  0  0
   -1.1120    9.4760   17.5910 C   0  0  0  0  0  0  0  0  0  0  0  0
    0.8020   11.6990   19.3300 H   0  0  0  0  0  0  0  0  0  0  0  0
   -1.3850   12.7580   19.6310 H   0  0  0  0  0  0  0  0  0  0  0  0
   -3.2290    9.6350   17.2920 H   0  0  0  0  0  0  0  0  0  0  0  0
   -1.0520    8.5610   17.0030 H   0  0  0  0  0  0  0  0  0  0  0  0
   -3.7730   11.9450   18.7340 C   0  0  0  0  0  0  0  0  0  0  0  0
   -4.5940   12.0050   17.8260 O   0  0  0  0  0  0  0  0  0  0  0  0
   -3.9650   12.5200   19.9740 N   0  0  0  0  0  0  0  0  0  0  0  0
   -3.1650   12.6590   20.5750 H   0  0  0  0  0  0  0  0  0  0  0  0
   -5.1430   13.3080   20.2420 C   0  0  0  0  0  0  0  0  0  0  0  0
   -5.2420   13.4300   21.3230 H   0  0  0  0  0  0  0  0  0  0  0  0
   -5.0600   14.2910   19.7710 H   0  0  0  0  0  0  0  0  0  0  0  0
   -6.0120   12.7780   19.8480 H   0  0  0  0  0  0  0  0  0  0  0  0
    4.1570    3.0090   17.6620 C   0  0  2  0  0  0  0  0  0  0  0  0
    4.8930    2.3850   17.1410 H   0  0  0  0  0  0  0  0  0  0  0  0
    2.7730    2.6670   17.1020 C   0  0  0  0  0  0  0  0  0  0  0  0
    2.0320    3.4020   17.4360 H   0  0  0  0  0  0  0  0  0  0  0  0
    2.4210    1.6810   17.4210 H   0  0  0  0  0  0  0  0  0  0  0  0
    2.7700    2.6820   16.0070 H   0  0  0  0  0  0  0  0  0  0  0  0
    4.2440    2.6270   19.4550 S   0  0  0  0  0  0  0  0  0  0  0  0
    2.6320    2.9850   19.9620 C   0  0  0  0  0  0  0  0  0  0  0  0
    1.5890    2.1850   19.9500 N   0  0  0  0  0  0  0  0  0  0  0  0
    0.5150    2.8930   20.4520 N   0  0  0  0  0  0  0  0  0  0  0  0
    0.9410    4.1000   20.7560 C   0  0  0  0  0  0  0  0  0  0  0  0
    2.2670    4.2070   20.4670 N   0  0  0  0  0  0  0  0  0  0  0  0
    0.3560    4.9060   21.1720 H   0  0  0  0  0  0  0  0  0  0  0  0
    3.0770    5.3710   20.6650 N   0  0  0  0  0  0  0  0  0  0  0  0
    2.5770    6.2020   20.3530 H   0  0  0  0  0  0  0  0  0  0  0  0
    3.9040    5.3250   20.0680 H   0  0  0  0  0  0  0  0  0  0  0  0
  1  6  1  0  0  0  0
  1 35  1  0  0  0  0
  2  1  2  0  0  0  0
  3  4  2  0  0  0  0
  3  2  1  0  0  0  0
  4  5  1  0  0  0  0
  5  6  2  0  0  0  0
  5 11  1  0  0  0  0
  6 10  1  0  0  0  0
  7  2  1  0  0  0  0
  8  3  1  0  0  0  0
  9  4  1  0  0  0  0
 11 15  1  0  0  0  0
 11 12  2  0  0  0  0
 12 13  1  0  0  0  0
 13 17  1  0  0  0  0
 14 13  2  0  0  0  0
 15 14  1  0  0  0  0
 16 12  1  0  0  0  0
 17 18  1  0  0  0  0
 18 19  2  0  0  0  0
 18 23  1  0  0  0  0
 19 24  1  0  0  0  0
 20 27  1  0  0  0  0
 20 19  1  0  0  0  0
 21 20  2  0  0  0  0
 22 21  1  0  0  0  0
 22 17  2  0  0  0  0
 25 21  1  0  0  0  0
 26 22  1  0  0  0  0
 27 29  1  0  0  0  0
 28 27  2  0  0  0  0
 29 31  1  0  0  0  0
 29 30  1  0  0  0  0
 31 32  1  0  0  0  0
 33 31  1  0  0  0  0
 34 31  1  0  0  0  0
 35 36  1  6  0  0  0
 35 41  1  0  0  0  0
 37 39  1  0  0  0  0
 37 38  1  0  0  0  0
 37 35  1  0  0  0  0
 40 37  1  0  0  0  0
 41 42  1  0  0  0  0
 42 46  1  0  0  0  0
 43 42  2  0  0  0  0
 43 44  1  0  0  0  0
 44 45  2  0  0  0  0
 45 47  1  0  0  0  0
 46 48  1  0  0  0  0
 46 45  1  0  0  0  0
 49 48  1  0  0  0  0
 50 48  1  0  0  0  0
M  END
>  <MODEL>
23

>  <REMARK>
 VINA RESULT:    -6.648      3.824      9.598
 INTER + INTRA:         -10.051
 INTER:                  -9.553
 INTRA:                  -0.499
 UNBOUND:                -0.489
  Name = 
  9 active torsions:
  status: ('A' for Active; 'I' for Inactive)
    1  A    between atoms: C_1  and  C_2
    2  A    between atoms: C_2  and  C_3
    3  A    between atoms: C_2  and  S_24
    4  A    between atoms: C_7  and  C_9
    5  A    between atoms: C_11  and  C_14
    6  A    between atoms: C_17  and  C_20
    7  A    between atoms: N_22  and  C_23
    8  A    between atoms: S_24  and  C_25
    9  A    between atoms: N_29  and  N_30
                            x       y       z     vdW  Elec       q    Type
                         _______ _______ _______ _____ _____    ______ ____

>  <TORSDO>
F 9

$$$$
=
 OpenBabel07192307433D

 50 53  0  0  1  0  0  0  0  0999 V2000
   -1.1430   13.8120   20.0570 C   0  0  0  0  0  0  0  0  0  0  0  0
   -0.3260   14.7260   19.3740 C   0  0  0  0  0  0  0  0  0  0  0  0
    0.8940   14.3230   18.8360 C   0  0  0  0  0  0  0  0  0  0  0  0
    1.3160   12.9980   18.9650 C   0  0  0  0  0  0  0  0  0  0  0  0
    0.5250   12.0560   19.6350 C   0  0  0  0  0  0  0  0  0  0  0  0
   -0.7020   12.4790   20.1750 C   0  0  0  0  0  0  0  0  0  0  0  0
   -0.6370   15.7620   19.2550 H   0  0  0  0  0  0  0  0  0  0  0  0
    1.5200   15.0430   18.3140 H   0  0  0  0  0  0  0  0  0  0  0  0
    2.2740   12.7180   18.5360 H   0  0  0  0  0  0  0  0  0  0  0  0
   -1.3370   11.7560   20.6870 H   0  0  0  0  0  0  0  0  0  0  0  0
    0.9680   10.6700   19.7550 C   0  0  0  0  0  0  0  0  0  0  0  0
    1.5300    9.7490   18.9030 C   0  0  0  0  0  0  0  0  0  0  0  0
    1.7130    8.5740   19.6800 C   0  0  0  0  0  0  0  0  0  0  0  0
    1.2900    8.7880   20.9360 N   0  0  0  0  0  0  0  0  0  0  0  0
    0.8270   10.0850   20.9770 O   0  0  0  0  0  0  0  0  0  0  0  0
    1.7780    9.9020   17.8640 H   0  0  0  0  0  0  0  0  0  0  0  0
    2.2680    7.2820   19.2660 C   0  0  0  0  0  0  0  0  0  0  0  0
    2.0700    6.1270   20.0380 C   0  0  0  0  0  0  0  0  0  0  0  0
    2.6050    4.8990   19.6330 C   0  0  0  0  0  0  0  0  0  0  0  0
    3.3550    4.8050   18.4560 C   0  0  0  0  0  0  0  0  0  0  0  0
    3.5460    5.9460   17.6710 C   0  0  0  0  0  0  0  0  0  0  0  0
    3.0110    7.1740   18.0790 C   0  0  0  0  0  0  0  0  0  0  0  0
    1.5090    6.1610   20.9670 H   0  0  0  0  0  0  0  0  0  0  0  0
    2.4400    4.0130   20.2450 H   0  0  0  0  0  0  0  0  0  0  0  0
    4.0810    5.8990   16.7270 H   0  0  0  0  0  0  0  0  0  0  0  0
    3.1700    8.0490   17.4500 H   0  0  0  0  0  0  0  0  0  0  0  0
    3.9020    3.4740   18.0680 C   0  0  0  0  0  0  0  0  0  0  0  0
    4.5720    3.3600   17.0490 O   0  0  0  0  0  0  0  0  0  0  0  0
    3.5760    2.4130   18.8880 N   0  0  0  0  0  0  0  0  0  0  0  0
    2.8220    2.5240   19.5520 H   0  0  0  0  0  0  0  0  0  0  0  0
    3.9560    1.0680   18.5330 C   0  0  0  0  0  0  0  0  0  0  0  0
    4.4740    1.0950   17.5710 H   0  0  0  0  0  0  0  0  0  0  0  0
    4.6190    0.6450   19.2910 H   0  0  0  0  0  0  0  0  0  0  0  0
    3.0520    0.4630   18.4490 H   0  0  0  0  0  0  0  0  0  0  0  0
   -2.4770   14.2750   20.6260 C   0  0  2  0  0  0  0  0  0  0  0  0
   -2.8940   15.0220   19.9400 H   0  0  0  0  0  0  0  0  0  0  0  0
   -2.3220   14.9350   22.0000 C   0  0  0  0  0  0  0  0  0  0  0  0
   -2.6030   14.2360   22.7950 H   0  0  0  0  0  0  0  0  0  0  0  0
   -2.9480   15.8260   22.1120 H   0  0  0  0  0  0  0  0  0  0  0  0
   -1.2850   15.2340   22.1850 H   0  0  0  0  0  0  0  0  0  0  0  0
   -3.6420   12.8600   20.7140 S   0  0  0  0  0  0  0  0  0  0  0  0
   -4.0890   12.8840   22.3830 C   0  0  0  0  0  0  0  0  0  0  0  0
   -5.1460   13.4480   22.9230 N   0  0  0  0  0  0  0  0  0  0  0  0
   -5.0980   13.2070   24.2820 N   0  0  0  0  0  0  0  0  0  0  0  0
   -4.0130   12.5010   24.5220 C   0  0  0  0  0  0  0  0  0  0  0  0
   -3.3450   12.2710   23.3580 N   0  0  0  0  0  0  0  0  0  0  0  0
   -3.6760   12.1430   25.4830 H   0  0  0  0  0  0  0  0  0  0  0  0
   -2.1240   11.5370   23.2240 N   0  0  0  0  0  0  0  0  0  0  0  0
   -1.8350   11.5140   22.2460 H   0  0  0  0  0  0  0  0  0  0  0  0
   -2.2760   10.5600   23.4730 H   0  0  0  0  0  0  0  0  0  0  0  0
  1  6  1  0  0  0  0
  1 35  1  0  0  0  0
  2  1  2  0  0  0  0
  3  4  2  0  0  0  0
  3  2  1  0  0  0  0
  4  5  1  0  0  0  0
  5 11  1  0  0  0  0
  5  6  2  0  0  0  0
  6 10  1  0  0  0  0
  7  2  1  0  0  0  0
  8  3  1  0  0  0  0
  9  4  1  0  0  0  0
 11 15  1  0  0  0  0
 12 13  1  0  0  0  0
 12 11  2  0  0  0  0
 13 14  2  0  0  0  0
 14 15  1  0  0  0  0
 16 12  1  0  0  0  0
 17 13  1  0  0  0  0
 17 18  1  0  0  0  0
 18 23  1  0  0  0  0
 19 18  2  0  0  0  0
 19 24  1  0  0  0  0
 20 19  1  0  0  0  0
 21 22  1  0  0  0  0
 21 20  2  0  0  0  0
 22 17  2  0  0  0  0
 25 21  1  0  0  0  0
 26 22  1  0  0  0  0
 27 20  1  0  0  0  0
 27 29  1  0  0  0  0
 28 27  2  0  0  0  0
 29 30  1  0  0  0  0
 31 29  1  0  0  0  0
 31 33  1  0  0  0  0
 32 31  1  0  0  0  0
 34 31  1  0  0  0  0
 35 36  1  6  0  0  0
 35 41  1  0  0  0  0
 35 37  1  0  0  0  0
 37 39  1  0  0  0  0
 37 40  1  0  0  0  0
 37 38  1  0  0  0  0
 41 42  1  0  0  0  0
 42 43  2  0  0  0  0
 42 46  1  0  0  0  0
 43 44  1  0  0  0  0
 44 45  2  0  0  0  0
 45 47  1  0  0  0  0
 46 45  1  0  0  0  0
 48 46  1  0  0  0  0
 48 50  1  0  0  0  0
 49 48  1  0  0  0  0
M  END
>  <MODEL>
24

>  <REMARK>
 VINA RESULT:    -6.607      3.346      4.914
 INTER + INTRA:          -9.992
 INTER:                  -9.322
 INTRA:                  -0.670
 UNBOUND:                -0.489
  Name = 
  9 active torsions:
  status: ('A' for Active; 'I' for Inactive)
    1  A    between atoms: C_1  and  C_2
    2  A    between atoms: C_2  and  C_3
    3  A    between atoms: C_2  and  S_24
    4  A    between atoms: C_7  and  C_9
    5  A    between atoms: C_11  and  C_14
    6  A    between atoms: C_17  and  C_20
    7  A    between atoms: N_22  and  C_23
    8  A    between atoms: S_24  and  C_25
    9  A    between atoms: N_29  and  N_30
                            x       y       z     vdW  Elec       q    Type
                         _______ _______ _______ _____ _____    ______ ____

>  <TORSDO>
F 9

$$$$
=
 OpenBabel07192307433D

 50 53  0  0  1  0  0  0  0  0999 V2000
    3.0440    5.7760   17.8210 C   0  0  0  0  0  0  0  0  0  0  0  0
    4.1470    6.2950   17.1260 C   0  0  0  0  0  0  0  0  0  0  0  0
    4.2890    7.6690   16.9470 C   0  0  0  0  0  0  0  0  0  0  0  0
    3.3360    8.5480   17.4640 C   0  0  0  0  0  0  0  0  0  0  0  0
    2.2250    8.0670   18.1690 C   0  0  0  0  0  0  0  0  0  0  0  0
    2.0940    6.6780   18.3380 C   0  0  0  0  0  0  0  0  0  0  0  0
    4.9050    5.6290   16.7190 H   0  0  0  0  0  0  0  0  0  0  0  0
    5.1470    8.0580   16.4020 H   0  0  0  0  0  0  0  0  0  0  0  0
    3.4770    9.6130   17.3040 H   0  0  0  0  0  0  0  0  0  0  0  0
    1.2430    6.2870   18.8960 H   0  0  0  0  0  0  0  0  0  0  0  0
    1.2390    8.9940   18.7170 C   0  0  0  0  0  0  0  0  0  0  0  0
    0.8710    9.3910   19.9810 C   0  0  0  0  0  0  0  0  0  0  0  0
   -0.1730   10.3360   19.7940 C   0  0  0  0  0  0  0  0  0  0  0  0
   -0.4080   10.5020   18.4830 N   0  0  0  0  0  0  0  0  0  0  0  0
    0.4660    9.6670   17.8200 O   0  0  0  0  0  0  0  0  0  0  0  0
    1.2970    9.0480   20.9110 H   0  0  0  0  0  0  0  0  0  0  0  0
   -0.9340   11.0690   20.8090 C   0  0  0  0  0  0  0  0  0  0  0  0
   -0.7690   10.7950   22.1760 C   0  0  0  0  0  0  0  0  0  0  0  0
   -1.5020   11.5000   23.1370 C   0  0  0  0  0  0  0  0  0  0  0  0
   -2.4190   12.4840   22.7510 C   0  0  0  0  0  0  0  0  0  0  0  0
   -2.5810   12.7750   21.3930 C   0  0  0  0  0  0  0  0  0  0  0  0
   -1.8470   12.0670   20.4330 C   0  0  0  0  0  0  0  0  0  0  0  0
   -0.0800   10.0280   22.5170 H   0  0  0  0  0  0  0  0  0  0  0  0
   -1.3600   11.2750   24.1930 H   0  0  0  0  0  0  0  0  0  0  0  0
   -3.2470   13.5650   21.0600 H   0  0  0  0  0  0  0  0  0  0  0  0
   -1.9870   12.3130   19.3810 H   0  0  0  0  0  0  0  0  0  0  0  0
   -3.1730   13.2070   23.8130 C   0  0  0  0  0  0  0  0  0  0  0  0
   -4.2330   12.7530   24.2300 O   0  0  0  0  0  0  0  0  0  0  0  0
   -2.6320   14.3990   24.2490 N   0  0  0  0  0  0  0  0  0  0  0  0
   -1.9100   14.8370   23.6940 H   0  0  0  0  0  0  0  0  0  0  0  0
   -3.3470   15.2300   25.1860 C   0  0  0  0  0  0  0  0  0  0  0  0
   -4.2720   15.5710   24.7140 H   0  0  0  0  0  0  0  0  0  0  0  0
   -3.5860   14.6660   26.0910 H   0  0  0  0  0  0  0  0  0  0  0  0
   -2.7210   16.0880   25.4360 H   0  0  0  0  0  0  0  0  0  0  0  0
    2.9170    4.2700   18.0120 C   0  0  2  0  0  0  0  0  0  0  0  0
    3.0100    3.7980   17.0270 H   0  0  0  0  0  0  0  0  0  0  0  0
    1.5560    3.8750   18.5950 C   0  0  0  0  0  0  0  0  0  0  0  0
    0.8100    4.6500   18.3870 H   0  0  0  0  0  0  0  0  0  0  0  0
    1.5880    3.7350   19.6810 H   0  0  0  0  0  0  0  0  0  0  0  0
    1.1870    2.9440   18.1530 H   0  0  0  0  0  0  0  0  0  0  0  0
    4.2810    3.6600   19.0760 S   0  0  0  0  0  0  0  0  0  0  0  0
    5.6650    4.0360   18.1120 C   0  0  0  0  0  0  0  0  0  0  0  0
    5.8690    3.7400   16.8480 N   0  0  0  0  0  0  0  0  0  0  0  0
    7.1050    4.2440   16.4960 N   0  0  0  0  0  0  0  0  0  0  0  0
    7.6110    4.8330   17.5580 C   0  0  0  0  0  0  0  0  0  0  0  0
    6.7420    4.7300   18.6010 N   0  0  0  0  0  0  0  0  0  0  0  0
    8.5660    5.3320   17.6270 H   0  0  0  0  0  0  0  0  0  0  0  0
    6.9470    5.2530   19.9180 N   0  0  0  0  0  0  0  0  0  0  0  0
    6.5340    6.1820   19.9940 H   0  0  0  0  0  0  0  0  0  0  0  0
    7.9430    5.3960   20.0850 H   0  0  0  0  0  0  0  0  0  0  0  0
  1 35  1  0  0  0  0
  1  6  1  0  0  0  0
  2  1  2  0  0  0  0
  3  2  1  0  0  0  0
  3  4  2  0  0  0  0
  4  5  1  0  0  0  0
  5  6  2  0  0  0  0
  5 11  1  0  0  0  0
  6 10  1  0  0  0  0
  7  2  1  0  0  0  0
  8  3  1  0  0  0  0
  9  4  1  0  0  0  0
 11 12  2  0  0  0  0
 12 16  1  0  0  0  0
 13 12  1  0  0  0  0
 13 17  1  0  0  0  0
 14 13  2  0  0  0  0
 15 14  1  0  0  0  0
 15 11  1  0  0  0  0
 17 18  1  0  0  0  0
 18 23  1  0  0  0  0
 18 19  2  0  0  0  0
 19 24  1  0  0  0  0
 20 19  1  0  0  0  0
 20 27  1  0  0  0  0
 21 20  2  0  0  0  0
 22 17  2  0  0  0  0
 22 21  1  0  0  0  0
 25 21  1  0  0  0  0
 26 22  1  0  0  0  0
 27 28  2  0  0  0  0
 27 29  1  0  0  0  0
 29 31  1  0  0  0  0
 30 29  1  0  0  0  0
 31 34  1  0  0  0  0
 31 33  1  0  0  0  0
 32 31  1  0  0  0  0
 35 36  1  6  0  0  0
 35 37  1  0  0  0  0
 35 41  1  0  0  0  0
 37 39  1  0  0  0  0
 38 37  1  0  0  0  0
 40 37  1  0  0  0  0
 42 46  1  0  0  0  0
 42 41  1  0  0  0  0
 43 42  2  0  0  0  0
 44 43  1  0  0  0  0
 44 45  2  0  0  0  0
 45 47  1  0  0  0  0
 45 46  1  0  0  0  0
 46 48  1  0  0  0  0
 48 49  1  0  0  0  0
 48 50  1  0  0  0  0
M  END
>  <MODEL>
25

>  <REMARK>
 VINA RESULT:    -6.567      3.658     10.211
 INTER + INTRA:          -9.936
 INTER:                 -10.076
 INTRA:                   0.140
 UNBOUND:                -0.489
  Name = 
  9 active torsions:
  status: ('A' for Active; 'I' for Inactive)
    1  A    between atoms: C_1  and  C_2
    2  A    between atoms: C_2  and  C_3
    3  A    between atoms: C_2  and  S_24
    4  A    between atoms: C_7  and  C_9
    5  A    between atoms: C_11  and  C_14
    6  A    between atoms: C_17  and  C_20
    7  A    between atoms: N_22  and  C_23
    8  A    between atoms: S_24  and  C_25
    9  A    between atoms: N_29  and  N_30
                            x       y       z     vdW  Elec       q    Type
                         _______ _______ _______ _____ _____    ______ ____

>  <TORSDO>
F 9

$$$$
=
 OpenBabel07192307433D

 50 53  0  0  1  0  0  0  0  0999 V2000
   -1.2230   14.0490   19.9710 C   0  0  0  0  0  0  0  0  0  0  0  0
   -0.4330   15.1630   19.6540 C   0  0  0  0  0  0  0  0  0  0  0  0
    0.8490   14.9990   19.1330 C   0  0  0  0  0  0  0  0  0  0  0  0
    1.3600   13.7190   18.9140 C   0  0  0  0  0  0  0  0  0  0  0  0
    0.5980   12.5820   19.2120 C   0  0  0  0  0  0  0  0  0  0  0  0
   -0.6920   12.7640   19.7400 C   0  0  0  0  0  0  0  0  0  0  0  0
   -0.8120   16.1710   19.8110 H   0  0  0  0  0  0  0  0  0  0  0  0
    1.4530   15.8730   18.8960 H   0  0  0  0  0  0  0  0  0  0  0  0
    2.3640   13.6270   18.5080 H   0  0  0  0  0  0  0  0  0  0  0  0
   -1.3040   11.8920   19.9650 H   0  0  0  0  0  0  0  0  0  0  0  0
    1.1360   11.2470   18.9680 C   0  0  0  0  0  0  0  0  0  0  0  0
    1.0360   10.0260   19.5940 C   0  0  0  0  0  0  0  0  0  0  0  0
    1.8240    9.1350   18.8160 C   0  0  0  0  0  0  0  0  0  0  0  0
    2.3560    9.7900   17.7730 N   0  0  0  0  0  0  0  0  0  0  0  0
    1.9310   11.0980   17.8730 O   0  0  0  0  0  0  0  0  0  0  0  0
    0.4730    9.8070   20.4870 H   0  0  0  0  0  0  0  0  0  0  0  0
    2.0740    7.7090   19.0370 C   0  0  0  0  0  0  0  0  0  0  0  0
    2.6490    6.9110   18.0360 C   0  0  0  0  0  0  0  0  0  0  0  0
    2.8830    5.5480   18.2580 C   0  0  0  0  0  0  0  0  0  0  0  0
    2.5390    4.9580   19.4780 C   0  0  0  0  0  0  0  0  0  0  0  0
    1.9790    5.7470   20.4890 C   0  0  0  0  0  0  0  0  0  0  0  0
    1.7440    7.1090   20.2630 C   0  0  0  0  0  0  0  0  0  0  0  0
    2.9150    7.3260   17.0680 H   0  0  0  0  0  0  0  0  0  0  0  0
    3.3310    4.9450   17.4690 H   0  0  0  0  0  0  0  0  0  0  0  0
    1.7450    5.3320   21.4640 H   0  0  0  0  0  0  0  0  0  0  0  0
    1.3110    7.7050   21.0660 H   0  0  0  0  0  0  0  0  0  0  0  0
    2.8100    3.5050   19.6640 C   0  0  0  0  0  0  0  0  0  0  0  0
    2.7590    3.0100   20.7850 O   0  0  0  0  0  0  0  0  0  0  0  0
    3.1490    2.7920   18.5320 N   0  0  0  0  0  0  0  0  0  0  0  0
    3.4220    3.3000   17.7020 H   0  0  0  0  0  0  0  0  0  0  0  0
    3.5460    1.4090   18.6270 C   0  0  0  0  0  0  0  0  0  0  0  0
    3.9090    1.0820   17.6490 H   0  0  0  0  0  0  0  0  0  0  0  0
    4.3400    1.2900   19.3690 H   0  0  0  0  0  0  0  0  0  0  0  0
    2.6750    0.8180   18.9150 H   0  0  0  0  0  0  0  0  0  0  0  0
   -2.6250   14.2550   20.5290 C   0  0  2  0  0  0  0  0  0  0  0  0
   -3.1870   14.8610   19.8100 H   0  0  0  0  0  0  0  0  0  0  0  0
   -2.6110   15.0050   21.8650 C   0  0  0  0  0  0  0  0  0  0  0  0
   -3.0900   14.4060   22.6470 H   0  0  0  0  0  0  0  0  0  0  0  0
   -3.1420   15.9620   21.8160 H   0  0  0  0  0  0  0  0  0  0  0  0
   -1.5890   15.2110   22.1980 H   0  0  0  0  0  0  0  0  0  0  0  0
   -3.4710   12.6360   20.7030 S   0  0  0  0  0  0  0  0  0  0  0  0
   -4.0080   12.7020   22.3440 C   0  0  0  0  0  0  0  0  0  0  0  0
   -5.1460   13.1780   22.7980 N   0  0  0  0  0  0  0  0  0  0  0  0
   -5.1470   13.0170   24.1700 N   0  0  0  0  0  0  0  0  0  0  0  0
   -4.0100   12.4440   24.5040 C   0  0  0  0  0  0  0  0  0  0  0  0
   -3.2590   12.2240   23.3890 N   0  0  0  0  0  0  0  0  0  0  0  0
   -3.6900   12.1750   25.4990 H   0  0  0  0  0  0  0  0  0  0  0  0
   -1.9630   11.6180   23.3570 N   0  0  0  0  0  0  0  0  0  0  0  0
   -2.0530   10.6030   23.3190 H   0  0  0  0  0  0  0  0  0  0  0  0
   -1.4710   11.8020   24.2320 H   0  0  0  0  0  0  0  0  0  0  0  0
  1 35  1  0  0  0  0
  2  7  1  0  0  0  0
  2  1  2  0  0  0  0
  3  2  1  0  0  0  0
  4  3  2  0  0  0  0
  4  5  1  0  0  0  0
  5  6  2  0  0  0  0
  6 10  1  0  0  0  0
  6  1  1  0  0  0  0
  8  3  1  0  0  0  0
  9  4  1  0  0  0  0
 11  5  1  0  0  0  0
 11 12  2  0  0  0  0
 12 16  1  0  0  0  0
 13 17  1  0  0  0  0
 13 12  1  0  0  0  0
 14 15  1  0  0  0  0
 14 13  2  0  0  0  0
 15 11  1  0  0  0  0
 17 22  1  0  0  0  0
 18 19  1  0  0  0  0
 18 17  2  0  0  0  0
 19 20  2  0  0  0  0
 20 27  1  0  0  0  0
 20 21  1  0  0  0  0
 21 25  1  0  0  0  0
 22 21  2  0  0  0  0
 22 26  1  0  0  0  0
 23 18  1  0  0  0  0
 24 19  1  0  0  0  0
 27 28  2  0  0  0  0
 29 31  1  0  0  0  0
 29 27  1  0  0  0  0
 30 29  1  0  0  0  0
 31 34  1  0  0  0  0
 31 33  1  0  0  0  0
 32 31  1  0  0  0  0
 35 36  1  6  0  0  0
 35 41  1  0  0  0  0
 35 37  1  0  0  0  0
 37 40  1  0  0  0  0
 37 38  1  0  0  0  0
 39 37  1  0  0  0  0
 41 42  1  0  0  0  0
 42 43  2  0  0  0  0
 42 46  1  0  0  0  0
 43 44  1  0  0  0  0
 44 45  2  0  0  0  0
 45 47  1  0  0  0  0
 46 45  1  0  0  0  0
 48 46  1  0  0  0  0
 48 50  1  0  0  0  0
 49 48  1  0  0  0  0
M  END
>  <MODEL>
26

>  <REMARK>
 VINA RESULT:    -6.504      3.442      5.339
 INTER + INTRA:          -9.844
 INTER:                  -9.163
 INTRA:                  -0.681
 UNBOUND:                -0.489
  Name = 
  9 active torsions:
  status: ('A' for Active; 'I' for Inactive)
    1  A    between atoms: C_1  and  C_2
    2  A    between atoms: C_2  and  C_3
    3  A    between atoms: C_2  and  S_24
    4  A    between atoms: C_7  and  C_9
    5  A    between atoms: C_11  and  C_14
    6  A    between atoms: C_17  and  C_20
    7  A    between atoms: N_22  and  C_23
    8  A    between atoms: S_24  and  C_25
    9  A    between atoms: N_29  and  N_30
                            x       y       z     vdW  Elec       q    Type
                         _______ _______ _______ _____ _____    ______ ____

>  <TORSDO>
F 9

$$$$
=
 OpenBabel07192307433D

 50 53  0  0  1  0  0  0  0  0999 V2000
   -1.5700   11.8730   20.7170 C   0  0  0  0  0  0  0  0  0  0  0  0
   -1.6790   12.0750   22.1010 C   0  0  0  0  0  0  0  0  0  0  0  0
   -1.0070   11.2440   22.9940 C   0  0  0  0  0  0  0  0  0  0  0  0
   -0.2080   10.2020   22.5200 C   0  0  0  0  0  0  0  0  0  0  0  0
   -0.0690    9.9740   21.1450 C   0  0  0  0  0  0  0  0  0  0  0  0
   -0.7570   10.8180   20.2570 C   0  0  0  0  0  0  0  0  0  0  0  0
   -2.2910   12.8850   22.4940 H   0  0  0  0  0  0  0  0  0  0  0  0
   -1.1050   11.4090   24.0650 H   0  0  0  0  0  0  0  0  0  0  0  0
    0.3000    9.5720   23.2450 H   0  0  0  0  0  0  0  0  0  0  0  0
   -0.6500   10.6640   19.1840 H   0  0  0  0  0  0  0  0  0  0  0  0
    0.7780    8.8890   20.6570 C   0  0  0  0  0  0  0  0  0  0  0  0
    1.0820    7.6200   21.0900 C   0  0  0  0  0  0  0  0  0  0  0  0
    1.9880    7.0970   20.1280 C   0  0  0  0  0  0  0  0  0  0  0  0
    2.2040    8.0060   19.1650 N   0  0  0  0  0  0  0  0  0  0  0  0
    1.4560    9.1150   19.4980 O   0  0  0  0  0  0  0  0  0  0  0  0
    0.7020    7.1350   21.9760 H   0  0  0  0  0  0  0  0  0  0  0  0
    2.6370    5.7840   20.1050 C   0  0  0  0  0  0  0  0  0  0  0  0
    2.0370    4.6680   20.7090 C   0  0  0  0  0  0  0  0  0  0  0  0
    2.6670    3.4180   20.6810 C   0  0  0  0  0  0  0  0  0  0  0  0
    3.9090    3.2630   20.0590 C   0  0  0  0  0  0  0  0  0  0  0  0
    4.5100    4.3640   19.4400 C   0  0  0  0  0  0  0  0  0  0  0  0
    3.8790    5.6140   19.4710 C   0  0  0  0  0  0  0  0  0  0  0  0
    1.0800    4.7500   21.2170 H   0  0  0  0  0  0  0  0  0  0  0  0
    2.1850    2.5640   21.1550 H   0  0  0  0  0  0  0  0  0  0  0  0
    5.4500    4.2690   18.9060 H   0  0  0  0  0  0  0  0  0  0  0  0
    4.3630    6.4570   18.9800 H   0  0  0  0  0  0  0  0  0  0  0  0
    4.5360    1.9110   20.0560 C   0  0  0  0  0  0  0  0  0  0  0  0
    4.3190    1.1360   19.1310 O   0  0  0  0  0  0  0  0  0  0  0  0
    5.3180    1.5930   21.1480 N   0  0  0  0  0  0  0  0  0  0  0  0
    5.2470    2.1640   21.9790 H   0  0  0  0  0  0  0  0  0  0  0  0
    5.8690    0.2690   21.2940 C   0  0  0  0  0  0  0  0  0  0  0  0
    5.0790   -0.4610   21.0970 H   0  0  0  0  0  0  0  0  0  0  0  0
    6.6900    0.1160   20.5900 H   0  0  0  0  0  0  0  0  0  0  0  0
    6.2290    0.1550   22.3180 H   0  0  0  0  0  0  0  0  0  0  0  0
   -2.3060   12.8020   19.7610 C   0  0  2  0  0  0  0  0  0  0  0  0
   -1.6590   12.9720   18.8930 H   0  0  0  0  0  0  0  0  0  0  0  0
   -2.6070   14.1640   20.3940 C   0  0  0  0  0  0  0  0  0  0  0  0
   -2.5430   14.9590   19.6430 H   0  0  0  0  0  0  0  0  0  0  0  0
   -1.9090   14.4180   21.1980 H   0  0  0  0  0  0  0  0  0  0  0  0
   -3.6190   14.1960   20.8120 H   0  0  0  0  0  0  0  0  0  0  0  0
   -3.8510   12.0000   19.1800 S   0  0  0  0  0  0  0  0  0  0  0  0
   -3.3140   11.2210   17.7340 C   0  0  0  0  0  0  0  0  0  0  0  0
   -2.7200   11.7710   16.6990 N   0  0  0  0  0  0  0  0  0  0  0  0
   -2.4670   10.7680   15.7830 N   0  0  0  0  0  0  0  0  0  0  0  0
   -2.9120    9.6410   16.2950 C   0  0  0  0  0  0  0  0  0  0  0  0
   -3.4530    9.8730   17.5230 N   0  0  0  0  0  0  0  0  0  0  0  0
   -2.8710    8.6630   15.8390 H   0  0  0  0  0  0  0  0  0  0  0  0
   -4.0360    8.8890   18.3830 N   0  0  0  0  0  0  0  0  0  0  0  0
   -3.3040    8.3690   18.8650 H   0  0  0  0  0  0  0  0  0  0  0  0
   -4.5290    8.1890   17.8270 H   0  0  0  0  0  0  0  0  0  0  0  0
  1  2  1  0  0  0  0
  2  7  1  0  0  0  0
  2  3  2  0  0  0  0
  3  8  1  0  0  0  0
  4  3  1  0  0  0  0
  4  9  1  0  0  0  0
  5  4  2  0  0  0  0
  6  1  2  0  0  0  0
  6  5  1  0  0  0  0
 10  6  1  0  0  0  0
 11 12  2  0  0  0  0
 11  5  1  0  0  0  0
 12 16  1  0  0  0  0
 13 12  1  0  0  0  0
 14 15  1  0  0  0  0
 14 13  2  0  0  0  0
 15 11  1  0  0  0  0
 17 13  1  0  0  0  0
 17 18  1  0  0  0  0
 18 23  1  0  0  0  0
 19 18  2  0  0  0  0
 19 24  1  0  0  0  0
 20 19  1  0  0  0  0
 21 22  1  0  0  0  0
 21 20  2  0  0  0  0
 22 17  2  0  0  0  0
 25 21  1  0  0  0  0
 26 22  1  0  0  0  0
 27 20  1  0  0  0  0
 27 29  1  0  0  0  0
 28 27  2  0  0  0  0
 29 31  1  0  0  0  0
 29 30  1  0  0  0  0
 31 34  1  0  0  0  0
 32 31  1  0  0  0  0
 33 31  1  0  0  0  0
 35 36  1  6  0  0  0
 35 37  1  0  0  0  0
 35  1  1  0  0  0  0
 37 40  1  0  0  0  0
 37 39  1  0  0  0  0
 38 37  1  0  0  0  0
 41 35  1  0  0  0  0
 42 41  1  0  0  0  0
 43 42  2  0  0  0  0
 44 45  2  0  0  0  0
 44 43  1  0  0  0  0
 45 46  1  0  0  0  0
 46 42  1  0  0  0  0
 46 48  1  0  0  0  0
 47 45  1  0  0  0  0
 48 49  1  0  0  0  0
 50 48  1  0  0  0  0
M  END
>  <MODEL>
27

>  <REMARK>
 VINA RESULT:    -6.369      3.638      4.512
 INTER + INTRA:          -9.650
 INTER:                  -8.731
 INTRA:                  -0.919
 UNBOUND:                -0.489
  Name = 
  9 active torsions:
  status: ('A' for Active; 'I' for Inactive)
    1  A    between atoms: C_1  and  C_2
    2  A    between atoms: C_2  and  C_3
    3  A    between atoms: C_2  and  S_24
    4  A    between atoms: C_7  and  C_9
    5  A    between atoms: C_11  and  C_14
    6  A    between atoms: C_17  and  C_20
    7  A    between atoms: N_22  and  C_23
    8  A    between atoms: S_24  and  C_25
    9  A    between atoms: N_29  and  N_30
                            x       y       z     vdW  Elec       q    Type
                         _______ _______ _______ _____ _____    ______ ____

>  <TORSDO>
F 9

$$$$
=
 OpenBabel07192307433D

 50 53  0  0  1  0  0  0  0  0999 V2000
   -2.0120   13.4420   20.3230 C   0  0  0  0  0  0  0  0  0  0  0  0
   -1.2940   14.5710   19.9020 C   0  0  0  0  0  0  0  0  0  0  0  0
    0.0070   14.4460   19.4210 C   0  0  0  0  0  0  0  0  0  0  0  0
    0.6110   13.1900   19.3470 C   0  0  0  0  0  0  0  0  0  0  0  0
   -0.0770   12.0380   19.7520 C   0  0  0  0  0  0  0  0  0  0  0  0
   -1.3870   12.1820   20.2390 C   0  0  0  0  0  0  0  0  0  0  0  0
   -1.7470   15.5600   19.9450 H   0  0  0  0  0  0  0  0  0  0  0  0
    0.5540   15.3310   19.1020 H   0  0  0  0  0  0  0  0  0  0  0  0
    1.6280   13.1280   18.9690 H   0  0  0  0  0  0  0  0  0  0  0  0
   -1.9420   11.2960   20.5450 H   0  0  0  0  0  0  0  0  0  0  0  0
    0.5590   10.7270   19.6600 C   0  0  0  0  0  0  0  0  0  0  0  0
    1.2850   10.0610   18.7010 C   0  0  0  0  0  0  0  0  0  0  0  0
    1.6030    8.8000   19.2730 C   0  0  0  0  0  0  0  0  0  0  0  0
    1.1000    8.7230   20.5160 N   0  0  0  0  0  0  0  0  0  0  0  0
    0.4510    9.9170   20.7490 O   0  0  0  0  0  0  0  0  0  0  0  0
    1.5510   10.4330   17.7240 H   0  0  0  0  0  0  0  0  0  0  0  0
    2.3570    7.6930   18.6800 C   0  0  0  0  0  0  0  0  0  0  0  0
    2.1790    6.3740   19.1250 C   0  0  0  0  0  0  0  0  0  0  0  0
    2.9060    5.3240   18.5520 C   0  0  0  0  0  0  0  0  0  0  0  0
    3.8290    5.5730   17.5300 C   0  0  0  0  0  0  0  0  0  0  0  0
    4.0040    6.8820   17.0680 C   0  0  0  0  0  0  0  0  0  0  0  0
    3.2770    7.9310   17.6450 C   0  0  0  0  0  0  0  0  0  0  0  0
    1.4850    6.1390   19.9270 H   0  0  0  0  0  0  0  0  0  0  0  0
    2.7530    4.3070   18.9100 H   0  0  0  0  0  0  0  0  0  0  0  0
    4.6750    7.1050   16.2450 H   0  0  0  0  0  0  0  0  0  0  0  0
    3.4270    8.9410   17.2670 H   0  0  0  0  0  0  0  0  0  0  0  0
    4.5750    4.4210   16.9520 C   0  0  0  0  0  0  0  0  0  0  0  0
    4.4830    3.3110   17.4650 O   0  0  0  0  0  0  0  0  0  0  0  0
    5.3780    4.6920   15.8630 N   0  0  0  0  0  0  0  0  0  0  0  0
    5.6080    5.6540   15.6560 H   0  0  0  0  0  0  0  0  0  0  0  0
    6.2310    3.6700   15.3090 C   0  0  0  0  0  0  0  0  0  0  0  0
    6.5000    3.9560   14.2890 H   0  0  0  0  0  0  0  0  0  0  0  0
    7.1380    3.5620   15.9080 H   0  0  0  0  0  0  0  0  0  0  0  0
    5.6790    2.7280   15.2950 H   0  0  0  0  0  0  0  0  0  0  0  0
   -3.4370   13.6050   20.8350 C   0  0  2  0  0  0  0  0  0  0  0  0
   -4.1160   13.2180   20.0660 H   0  0  0  0  0  0  0  0  0  0  0  0
   -3.7980   15.0720   21.0840 C   0  0  0  0  0  0  0  0  0  0  0  0
   -4.7890   15.1500   21.5460 H   0  0  0  0  0  0  0  0  0  0  0  0
   -3.8220   15.6620   20.1620 H   0  0  0  0  0  0  0  0  0  0  0  0
   -3.0860   15.5500   21.7650 H   0  0  0  0  0  0  0  0  0  0  0  0
   -3.6680   12.6110   22.3600 S   0  0  0  0  0  0  0  0  0  0  0  0
   -3.2940   13.7690   23.5870 C   0  0  0  0  0  0  0  0  0  0  0  0
   -4.1340   14.4690   24.3150 N   0  0  0  0  0  0  0  0  0  0  0  0
   -3.3890   15.2590   25.1680 N   0  0  0  0  0  0  0  0  0  0  0  0
   -2.1190   15.0100   24.9330 C   0  0  0  0  0  0  0  0  0  0  0  0
   -2.0070   14.0780   23.9460 N   0  0  0  0  0  0  0  0  0  0  0  0
   -1.2700   15.4570   25.4280 H   0  0  0  0  0  0  0  0  0  0  0  0
   -0.7820   13.5550   23.4230 N   0  0  0  0  0  0  0  0  0  0  0  0
   -0.3420   14.2410   22.8090 H   0  0  0  0  0  0  0  0  0  0  0  0
   -0.9740   12.7540   22.8210 H   0  0  0  0  0  0  0  0  0  0  0  0
  1 35  1  0  0  0  0
  2  7  1  0  0  0  0
  2  1  2  0  0  0  0
  3  2  1  0  0  0  0
  4  3  2  0  0  0  0
  4  5  1  0  0  0  0
  5  6  2  0  0  0  0
  6  1  1  0  0  0  0
  6 10  1  0  0  0  0
  8  3  1  0  0  0  0
  9  4  1  0  0  0  0
 11  5  1  0  0  0  0
 11 15  1  0  0  0  0
 12 13  1  0  0  0  0
 12 11  2  0  0  0  0
 13 14  2  0  0  0  0
 14 15  1  0  0  0  0
 16 12  1  0  0  0  0
 17 18  1  0  0  0  0
 17 13  1  0  0  0  0
 18 23  1  0  0  0  0
 19 24  1  0  0  0  0
 19 18  2  0  0  0  0
 20 19  1  0  0  0  0
 21 20  2  0  0  0  0
 21 22  1  0  0  0  0
 22 17  2  0  0  0  0
 25 21  1  0  0  0  0
 26 22  1  0  0  0  0
 27 28  2  0  0  0  0
 27 20  1  0  0  0  0
 29 27  1  0  0  0  0
 30 29  1  0  0  0  0
 31 29  1  0  0  0  0
 31 33  1  0  0  0  0
 32 31  1  0  0  0  0
 34 31  1  0  0  0  0
 35 36  1  6  0  0  0
 35 37  1  0  0  0  0
 35 41  1  0  0  0  0
 37 38  1  0  0  0  0
 37 40  1  0  0  0  0
 39 37  1  0  0  0  0
 41 42  1  0  0  0  0
 42 46  1  0  0  0  0
 42 43  2  0  0  0  0
 43 44  1  0  0  0  0
 45 44  2  0  0  0  0
 45 47  1  0  0  0  0
 46 45  1  0  0  0  0
 48 46  1  0  0  0  0
 49 48  1  0  0  0  0
 50 48  1  0  0  0  0
M  END
>  <MODEL>
28

>  <REMARK>
 VINA RESULT:    -6.359      3.173      4.477
 INTER + INTRA:          -9.636
 INTER:                  -8.808
 INTRA:                  -0.827
 UNBOUND:                -0.489
  Name = 
  9 active torsions:
  status: ('A' for Active; 'I' for Inactive)
    1  A    between atoms: C_1  and  C_2
    2  A    between atoms: C_2  and  C_3
    3  A    between atoms: C_2  and  S_24
    4  A    between atoms: C_7  and  C_9
    5  A    between atoms: C_11  and  C_14
    6  A    between atoms: C_17  and  C_20
    7  A    between atoms: N_22  and  C_23
    8  A    between atoms: S_24  and  C_25
    9  A    between atoms: N_29  and  N_30
                            x       y       z     vdW  Elec       q    Type
                         _______ _______ _______ _____ _____    ______ ____

>  <TORSDO>
F 9

$$$$
=
 OpenBabel07192307433D

 50 53  0  0  1  0  0  0  0  0999 V2000
    4.2550    4.6590   19.6250 C   0  0  0  0  0  0  0  0  0  0  0  0
    3.7360    3.6300   20.4250 C   0  0  0  0  0  0  0  0  0  0  0  0
    2.6070    3.8440   21.2120 C   0  0  0  0  0  0  0  0  0  0  0  0
    1.9720    5.0880   21.2080 C   0  0  0  0  0  0  0  0  0  0  0  0
    2.4580    6.1380   20.4160 C   0  0  0  0  0  0  0  0  0  0  0  0
    3.6000    5.9070   19.6310 C   0  0  0  0  0  0  0  0  0  0  0  0
    4.2110    2.6510   20.4400 H   0  0  0  0  0  0  0  0  0  0  0  0
    2.2180    3.0390   21.8310 H   0  0  0  0  0  0  0  0  0  0  0  0
    1.0950    5.2210   21.8350 H   0  0  0  0  0  0  0  0  0  0  0  0
    3.9830    6.7070   18.9990 H   0  0  0  0  0  0  0  0  0  0  0  0
    1.7810    7.4310   20.4090 C   0  0  0  0  0  0  0  0  0  0  0  0
    1.0680    8.1640   21.3280 C   0  0  0  0  0  0  0  0  0  0  0  0
    0.6850    9.3530   20.6510 C   0  0  0  0  0  0  0  0  0  0  0  0
    1.1560    9.3340   19.3940 N   0  0  0  0  0  0  0  0  0  0  0  0
    1.8300    8.1410   19.2470 O   0  0  0  0  0  0  0  0  0  0  0  0
    0.8550    7.8820   22.3470 H   0  0  0  0  0  0  0  0  0  0  0  0
   -0.1000   10.4810   21.1610 C   0  0  0  0  0  0  0  0  0  0  0  0
   -0.3800   11.5930   20.3520 C   0  0  0  0  0  0  0  0  0  0  0  0
   -1.1290   12.6650   20.8500 C   0  0  0  0  0  0  0  0  0  0  0  0
   -1.6040   12.6490   22.1660 C   0  0  0  0  0  0  0  0  0  0  0  0
   -1.3440   11.5400   22.9760 C   0  0  0  0  0  0  0  0  0  0  0  0
   -0.5920   10.4690   22.4760 C   0  0  0  0  0  0  0  0  0  0  0  0
   -0.0150   11.6530   19.3310 H   0  0  0  0  0  0  0  0  0  0  0  0
   -1.3370   13.5190   20.2070 H   0  0  0  0  0  0  0  0  0  0  0  0
   -1.7380   11.4730   23.9860 H   0  0  0  0  0  0  0  0  0  0  0  0
   -0.4040    9.6140   23.1240 H   0  0  0  0  0  0  0  0  0  0  0  0
   -2.3990   13.8150   22.6460 C   0  0  0  0  0  0  0  0  0  0  0  0
   -2.4830   14.8250   21.9580 O   0  0  0  0  0  0  0  0  0  0  0  0
   -2.9780   13.6920   23.8930 N   0  0  0  0  0  0  0  0  0  0  0  0
   -2.6610   12.9540   24.5060 H   0  0  0  0  0  0  0  0  0  0  0  0
   -3.6640   14.8080   24.4950 C   0  0  0  0  0  0  0  0  0  0  0  0
   -3.4240   15.7120   23.9300 H   0  0  0  0  0  0  0  0  0  0  0  0
   -4.7450   14.6460   24.4810 H   0  0  0  0  0  0  0  0  0  0  0  0
   -3.3170   14.9140   25.5250 H   0  0  0  0  0  0  0  0  0  0  0  0
    5.4850    4.3970   18.7660 C   0  0  2  0  0  0  0  0  0  0  0  0
    6.0730    3.6100   19.2530 H   0  0  0  0  0  0  0  0  0  0  0  0
    6.3760    5.6360   18.6380 C   0  0  0  0  0  0  0  0  0  0  0  0
    7.0920    5.5110   17.8180 H   0  0  0  0  0  0  0  0  0  0  0  0
    6.9540    5.8350   19.5470 H   0  0  0  0  0  0  0  0  0  0  0  0
    5.7870    6.5320   18.4180 H   0  0  0  0  0  0  0  0  0  0  0  0
    4.9720    3.7920   17.1110 S   0  0  0  0  0  0  0  0  0  0  0  0
    3.3810    3.2020   17.4370 C   0  0  0  0  0  0  0  0  0  0  0  0
    2.2430    3.8470   17.3100 N   0  0  0  0  0  0  0  0  0  0  0  0
    1.2310    2.9820   17.6750 N   0  0  0  0  0  0  0  0  0  0  0  0
    1.7880    1.8370   18.0090 C   0  0  0  0  0  0  0  0  0  0  0  0
    3.1400    1.9250   17.8760 N   0  0  0  0  0  0  0  0  0  0  0  0
    1.2800    0.9450   18.3430 H   0  0  0  0  0  0  0  0  0  0  0  0
    4.0790    0.8790   18.1450 N   0  0  0  0  0  0  0  0  0  0  0  0
    4.2700    0.3520   17.2940 H   0  0  0  0  0  0  0  0  0  0  0  0
    3.6690    0.1990   18.7860 H   0  0  0  0  0  0  0  0  0  0  0  0
  1  6  2  0  0  0  0
  1  2  1  0  0  0  0
  2  7  1  0  0  0  0
  2  3  2  0  0  0  0
  3  8  1  0  0  0  0
  4  3  1  0  0  0  0
  4  9  1  0  0  0  0
  5  4  2  0  0  0  0
  6  5  1  0  0  0  0
 10  6  1  0  0  0  0
 11  5  1  0  0  0  0
 11 12  2  0  0  0  0
 12 16  1  0  0  0  0
 13 17  1  0  0  0  0
 13 12  1  0  0  0  0
 14 13  2  0  0  0  0
 15 14  1  0  0  0  0
 15 11  1  0  0  0  0
 17 22  1  0  0  0  0
 18 19  1  0  0  0  0
 18 17  2  0  0  0  0
 19 20  2  0  0  0  0
 20 27  1  0  0  0  0
 20 21  1  0  0  0  0
 21 25  1  0  0  0  0
 22 21  2  0  0  0  0
 22 26  1  0  0  0  0
 23 18  1  0  0  0  0
 24 19  1  0  0  0  0
 27 29  1  0  0  0  0
 28 27  2  0  0  0  0
 29 31  1  0  0  0  0
 29 30  1  0  0  0  0
 31 34  1  0  0  0  0
 32 31  1  0  0  0  0
 33 31  1  0  0  0  0
 35 36  1  1  0  0  0
 35  1  1  0  0  0  0
 37 35  1  0  0  0  0
 37 39  1  0  0  0  0
 38 37  1  0  0  0  0
 40 37  1  0  0  0  0
 41 42  1  0  0  0  0
 41 35  1  0  0  0  0
 42 46  1  0  0  0  0
 43 42  2  0  0  0  0
 43 44  1  0  0  0  0
 44 45  2  0  0  0  0
 45 47  1  0  0  0  0
 46 45  1  0  0  0  0
 46 48  1  0  0  0  0
 48 50  1  0  0  0  0
 49 48  1  0  0  0  0
M  END
>  <MODEL>
29

>  <REMARK>
 VINA RESULT:    -6.268      3.774     10.111
 INTER + INTRA:          -9.505
 INTER:                  -9.480
 INTRA:                  -0.025
 UNBOUND:                -0.489
  Name = 
  9 active torsions:
  status: ('A' for Active; 'I' for Inactive)
    1  A    between atoms: C_1  and  C_2
    2  A    between atoms: C_2  and  C_3
    3  A    between atoms: C_2  and  S_24
    4  A    between atoms: C_7  and  C_9
    5  A    between atoms: C_11  and  C_14
    6  A    between atoms: C_17  and  C_20
    7  A    between atoms: N_22  and  C_23
    8  A    between atoms: S_24  and  C_25
    9  A    between atoms: N_29  and  N_30
                            x       y       z     vdW  Elec       q    Type
                         _______ _______ _______ _____ _____    ______ ____

>  <TORSDO>
F 9

$$$$
=
 OpenBabel07192307433D

 50 53  0  0  1  0  0  0  0  0999 V2000
   -1.1110   13.9780   19.9840 C   0  0  0  0  0  0  0  0  0  0  0  0
   -0.4030   15.0120   19.3520 C   0  0  0  0  0  0  0  0  0  0  0  0
    0.7620   14.7400   18.6390 C   0  0  0  0  0  0  0  0  0  0  0  0
    1.2360   13.4310   18.5370 C   0  0  0  0  0  0  0  0  0  0  0  0
    0.5520   12.3720   19.1490 C   0  0  0  0  0  0  0  0  0  0  0  0
   -0.6200   12.6630   19.8680 C   0  0  0  0  0  0  0  0  0  0  0  0
   -0.7560   16.0390   19.4130 H   0  0  0  0  0  0  0  0  0  0  0  0
    1.3040   15.5520   18.1580 H   0  0  0  0  0  0  0  0  0  0  0  0
    2.1490   13.2550   17.9750 H   0  0  0  0  0  0  0  0  0  0  0  0
   -1.1720   11.8500   20.3380 H   0  0  0  0  0  0  0  0  0  0  0  0
    1.0480   11.0040   19.0280 C   0  0  0  0  0  0  0  0  0  0  0  0
    1.9410   10.3600   18.2050 C   0  0  0  0  0  0  0  0  0  0  0  0
    1.9530    9.0080   18.6400 C   0  0  0  0  0  0  0  0  0  0  0  0
    1.1150    8.8560   19.6780 N   0  0  0  0  0  0  0  0  0  0  0  0
    0.5540   10.0940   19.9120 O   0  0  0  0  0  0  0  0  0  0  0  0
    2.5090   10.8040   17.4020 H   0  0  0  0  0  0  0  0  0  0  0  0
    2.7240    7.8830   18.1050 C   0  0  0  0  0  0  0  0  0  0  0  0
    2.3010    6.5590   18.2930 C   0  0  0  0  0  0  0  0  0  0  0  0
    3.0460    5.4920   17.7790 C   0  0  0  0  0  0  0  0  0  0  0  0
    4.2320    5.7280   17.0740 C   0  0  0  0  0  0  0  0  0  0  0  0
    4.6560    7.0450   16.8670 C   0  0  0  0  0  0  0  0  0  0  0  0
    3.9090    8.1100   17.3860 C   0  0  0  0  0  0  0  0  0  0  0  0
    1.3950    6.3310   18.8490 H   0  0  0  0  0  0  0  0  0  0  0  0
    2.7010    4.4710   17.9340 H   0  0  0  0  0  0  0  0  0  0  0  0
    5.5450    7.2670   16.2850 H   0  0  0  0  0  0  0  0  0  0  0  0
    4.2570    9.1270   17.2100 H   0  0  0  0  0  0  0  0  0  0  0  0
    4.9870    4.5580   16.5450 C   0  0  0  0  0  0  0  0  0  0  0  0
    5.3220    3.6520   17.3000 O   0  0  0  0  0  0  0  0  0  0  0  0
    5.3050    4.5870   15.2030 N   0  0  0  0  0  0  0  0  0  0  0  0
    5.2290    5.4630   14.7040 H   0  0  0  0  0  0  0  0  0  0  0  0
    6.1360    3.5610   14.6240 C   0  0  0  0  0  0  0  0  0  0  0  0
    5.7400    3.3070   13.6370 H   0  0  0  0  0  0  0  0  0  0  0  0
    7.1650    3.9140   14.5220 H   0  0  0  0  0  0  0  0  0  0  0  0
    6.1050    2.6830   15.2720 H   0  0  0  0  0  0  0  0  0  0  0  0
   -2.3880   14.2990   20.7490 C   0  0  2  0  0  0  0  0  0  0  0  0
   -2.8950   15.1200   20.2270 H   0  0  0  0  0  0  0  0  0  0  0  0
   -2.1020   14.7610   22.1820 C   0  0  0  0  0  0  0  0  0  0  0  0
   -1.0230   14.7850   22.3690 H   0  0  0  0  0  0  0  0  0  0  0  0
   -2.5490   14.1020   22.9330 H   0  0  0  0  0  0  0  0  0  0  0  0
   -2.4830   15.7710   22.3600 H   0  0  0  0  0  0  0  0  0  0  0  0
   -3.5000   12.8400   20.7470 S   0  0  0  0  0  0  0  0  0  0  0  0
   -4.0340   12.8100   22.3890 C   0  0  0  0  0  0  0  0  0  0  0  0
   -5.1300   13.3360   22.8880 N   0  0  0  0  0  0  0  0  0  0  0  0
   -5.1460   13.0600   24.2410 N   0  0  0  0  0  0  0  0  0  0  0  0
   -4.0600   12.3710   24.5200 C   0  0  0  0  0  0  0  0  0  0  0  0
   -3.3270   12.1870   23.3870 N   0  0  0  0  0  0  0  0  0  0  0  0
   -3.7640   11.9950   25.4870 H   0  0  0  0  0  0  0  0  0  0  0  0
   -2.0840   11.4840   23.2970 N   0  0  0  0  0  0  0  0  0  0  0  0
   -2.2490   10.4780   23.3130 H   0  0  0  0  0  0  0  0  0  0  0  0
   -1.5190   11.6670   24.1270 H   0  0  0  0  0  0  0  0  0  0  0  0
  1 35  1  0  0  0  0
  2  7  1  0  0  0  0
  2  1  2  0  0  0  0
  3  2  1  0  0  0  0
  4  3  2  0  0  0  0
  4  5  1  0  0  0  0
  5  6  2  0  0  0  0
  6  1  1  0  0  0  0
  6 10  1  0  0  0  0
  8  3  1  0  0  0  0
  9  4  1  0  0  0  0
 11  5  1  0  0  0  0
 11 15  1  0  0  0  0
 12 13  1  0  0  0  0
 12 11  2  0  0  0  0
 13 14  2  0  0  0  0
 14 15  1  0  0  0  0
 16 12  1  0  0  0  0
 17 18  1  0  0  0  0
 17 13  1  0  0  0  0
 18 23  1  0  0  0  0
 19 24  1  0  0  0  0
 19 18  2  0  0  0  0
 20 19  1  0  0  0  0
 21 20  2  0  0  0  0
 21 22  1  0  0  0  0
 22 17  2  0  0  0  0
 25 21  1  0  0  0  0
 26 22  1  0  0  0  0
 27 20  1  0  0  0  0
 27 28  2  0  0  0  0
 29 27  1  0  0  0  0
 30 29  1  0  0  0  0
 31 29  1  0  0  0  0
 31 34  1  0  0  0  0
 32 31  1  0  0  0  0
 33 31  1  0  0  0  0
 35 36  1  6  0  0  0
 35 37  1  0  0  0  0
 37 40  1  0  0  0  0
 37 38  1  0  0  0  0
 37 39  1  0  0  0  0
 41 35  1  0  0  0  0
 41 42  1  0  0  0  0
 42 43  2  0  0  0  0
 42 46  1  0  0  0  0
 43 44  1  0  0  0  0
 44 45  2  0  0  0  0
 45 47  1  0  0  0  0
 46 45  1  0  0  0  0
 48 49  1  0  0  0  0
 48 46  1  0  0  0  0
 48 50  1  0  0  0  0
M  END
>  <MODEL>
30

>  <REMARK>
 VINA RESULT:    -6.119      3.222      4.637
 INTER + INTRA:          -9.290
 INTER:                  -8.726
 INTRA:                  -0.565
 UNBOUND:                -0.489
  Name = 
  9 active torsions:
  status: ('A' for Active; 'I' for Inactive)
    1  A    between atoms: C_1  and  C_2
    2  A    between atoms: C_2  and  C_3
    3  A    between atoms: C_2  and  S_24
    4  A    between atoms: C_7  and  C_9
    5  A    between atoms: C_11  and  C_14
    6  A    between atoms: C_17  and  C_20
    7  A    between atoms: N_22  and  C_23
    8  A    between atoms: S_24  and  C_25
    9  A    between atoms: N_29  and  N_30
                            x       y       z     vdW  Elec       q    Type
                         _______ _______ _______ _____ _____    ______ ____

>  <TORSDO>
F 9

$$$$
=
 OpenBabel07192307433D

 50 53  0  0  1  0  0  0  0  0999 V2000
    4.9580    4.6650   15.9260 C   0  0  0  0  0  0  0  0  0  0  0  0
    4.9010    3.3480   16.4050 C   0  0  0  0  0  0  0  0  0  0  0  0
    4.1890    3.0450   17.5640 C   0  0  0  0  0  0  0  0  0  0  0  0
    3.5150    4.0510   18.2590 C   0  0  0  0  0  0  0  0  0  0  0  0
    3.5440    5.3770   17.8060 C   0  0  0  0  0  0  0  0  0  0  0  0
    4.2700    5.6670   16.6390 C   0  0  0  0  0  0  0  0  0  0  0  0
    5.4140    2.5460   15.8780 H   0  0  0  0  0  0  0  0  0  0  0  0
    4.1570    2.0200   17.9270 H   0  0  0  0  0  0  0  0  0  0  0  0
    2.9710    3.7800   19.1590 H   0  0  0  0  0  0  0  0  0  0  0  0
    4.2920    6.6900   16.2650 H   0  0  0  0  0  0  0  0  0  0  0  0
    2.8270    6.4210   18.5330 C   0  0  0  0  0  0  0  0  0  0  0  0
    2.0770    7.5170   18.1760 C   0  0  0  0  0  0  0  0  0  0  0  0
    1.6670    8.1110   19.4000 C   0  0  0  0  0  0  0  0  0  0  0  0
    2.1400    7.3980   20.4340 N   0  0  0  0  0  0  0  0  0  0  0  0
    2.8610    6.3550   19.8920 O   0  0  0  0  0  0  0  0  0  0  0  0
    1.8530    7.8430   17.1720 H   0  0  0  0  0  0  0  0  0  0  0  0
    0.8540    9.3130   19.6040 C   0  0  0  0  0  0  0  0  0  0  0  0
    0.4190   10.0860   18.5170 C   0  0  0  0  0  0  0  0  0  0  0  0
   -0.3570   11.2330   18.7240 C   0  0  0  0  0  0  0  0  0  0  0  0
   -0.7040   11.6320   20.0190 C   0  0  0  0  0  0  0  0  0  0  0  0
   -0.2880   10.8600   21.1090 C   0  0  0  0  0  0  0  0  0  0  0  0
    0.4890    9.7150   20.9000 C   0  0  0  0  0  0  0  0  0  0  0  0
    0.6800    9.8210   17.4970 H   0  0  0  0  0  0  0  0  0  0  0  0
   -0.6860   11.8200   17.8670 H   0  0  0  0  0  0  0  0  0  0  0  0
   -0.5800   11.1140   22.1240 H   0  0  0  0  0  0  0  0  0  0  0  0
    0.7990    9.1270   21.7630 H   0  0  0  0  0  0  0  0  0  0  0  0
   -1.5320   12.8590   20.1850 C   0  0  0  0  0  0  0  0  0  0  0  0
   -2.7340   12.8240   19.9460 O   0  0  0  0  0  0  0  0  0  0  0  0
   -0.8660   14.0030   20.5730 N   0  0  0  0  0  0  0  0  0  0  0  0
    0.1420   14.0270   20.5020 H   0  0  0  0  0  0  0  0  0  0  0  0
   -1.5580   15.2670   20.6440 C   0  0  0  0  0  0  0  0  0  0  0  0
   -1.7960   15.4750   21.6900 H   0  0  0  0  0  0  0  0  0  0  0  0
   -0.9310   16.0690   20.2460 H   0  0  0  0  0  0  0  0  0  0  0  0
   -2.4790   15.1900   20.0630 H   0  0  0  0  0  0  0  0  0  0  0  0
    5.7350    4.9680   14.6520 C   0  0  2  0  0  0  0  0  0  0  0  0
    5.2730    5.8420   14.1770 H   0  0  0  0  0  0  0  0  0  0  0  0
    5.6830    3.8090   13.6520 C   0  0  0  0  0  0  0  0  0  0  0  0
    6.6630    3.3250   13.5740 H   0  0  0  0  0  0  0  0  0  0  0  0
    5.3980    4.1330   12.6460 H   0  0  0  0  0  0  0  0  0  0  0  0
    4.9690    3.0410   13.9670 H   0  0  0  0  0  0  0  0  0  0  0  0
    7.4720    5.3900   15.0670 S   0  0  0  0  0  0  0  0  0  0  0  0
    7.4180    5.4150   16.7940 C   0  0  0  0  0  0  0  0  0  0  0  0
    7.4600    4.3890   17.6140 N   0  0  0  0  0  0  0  0  0  0  0  0
    7.3960    4.8820   18.9020 N   0  0  0  0  0  0  0  0  0  0  0  0
    7.3230    6.1940   18.8220 C   0  0  0  0  0  0  0  0  0  0  0  0
    7.3340    6.5780   17.5160 N   0  0  0  0  0  0  0  0  0  0  0  0
    7.2610    6.8890   19.6460 H   0  0  0  0  0  0  0  0  0  0  0  0
    7.2710    7.9250   17.0370 N   0  0  0  0  0  0  0  0  0  0  0  0
    6.2990    8.2110   16.9230 H   0  0  0  0  0  0  0  0  0  0  0  0
    7.6700    7.9810   16.1000 H   0  0  0  0  0  0  0  0  0  0  0  0
  1  2  2  0  0  0  0
  1  6  1  0  0  0  0
  2  3  1  0  0  0  0
  3  8  1  0  0  0  0
  3  4  2  0  0  0  0
  4  9  1  0  0  0  0
  5  4  1  0  0  0  0
  5 11  1  0  0  0  0
  6  5  2  0  0  0  0
  7  2  1  0  0  0  0
 10  6  1  0  0  0  0
 11 15  1  0  0  0  0
 12 11  2  0  0  0  0
 12 13  1  0  0  0  0
 13 17  1  0  0  0  0
 13 14  2  0  0  0  0
 15 14  1  0  0  0  0
 16 12  1  0  0  0  0
 17 22  1  0  0  0  0
 18 19  1  0  0  0  0
 18 17  2  0  0  0  0
 19 20  2  0  0  0  0
 20 27  1  0  0  0  0
 20 21  1  0  0  0  0
 21 25  1  0  0  0  0
 22 21  2  0  0  0  0
 22 26  1  0  0  0  0
 23 18  1  0  0  0  0
 24 19  1  0  0  0  0
 27 29  1  0  0  0  0
 28 27  2  0  0  0  0
 29 31  1  0  0  0  0
 30 29  1  0  0  0  0
 31 32  1  0  0  0  0
 33 31  1  0  0  0  0
 34 31  1  0  0  0  0
 35 36  1  6  0  0  0
 35 41  1  0  0  0  0
 35  1  1  0  0  0  0
 37 40  1  0  0  0  0
 37 35  1  0  0  0  0
 38 37  1  0  0  0  0
 39 37  1  0  0  0  0
 41 42  1  0  0  0  0
 42 46  1  0  0  0  0
 42 43  2  0  0  0  0
 43 44  1  0  0  0  0
 45 44  2  0  0  0  0
 45 47  1  0  0  0  0
 46 45  1  0  0  0  0
 48 46  1  0  0  0  0
 49 48  1  0  0  0  0
 50 48  1  0  0  0  0
M  END
>  <MODEL>
31

>  <REMARK>
 VINA RESULT:    -6.103      3.374      9.390
 INTER + INTRA:          -9.268
 INTER:                  -9.433
 INTRA:                   0.165
 UNBOUND:                -0.489
  Name = 
  9 active torsions:
  status: ('A' for Active; 'I' for Inactive)
    1  A    between atoms: C_1  and  C_2
    2  A    between atoms: C_2  and  C_3
    3  A    between atoms: C_2  and  S_24
    4  A    between atoms: C_7  and  C_9
    5  A    between atoms: C_11  and  C_14
    6  A    between atoms: C_17  and  C_20
    7  A    between atoms: N_22  and  C_23
    8  A    between atoms: S_24  and  C_25
    9  A    between atoms: N_29  and  N_30
                            x       y       z     vdW  Elec       q    Type
                         _______ _______ _______ _____ _____    ______ ____

>  <TORSDO>
F 9

$$$$
=
 OpenBabel07192307433D

 50 53  0  0  1  0  0  0  0  0999 V2000
   -0.9460   13.3230   22.0910 C   0  0  0  0  0  0  0  0  0  0  0  0
   -0.0630   14.4030   21.9480 C   0  0  0  0  0  0  0  0  0  0  0  0
    1.1600   14.2390   21.3020 C   0  0  0  0  0  0  0  0  0  0  0  0
    1.5180   12.9940   20.7800 C   0  0  0  0  0  0  0  0  0  0  0  0
    0.6590   11.8940   20.8980 C   0  0  0  0  0  0  0  0  0  0  0  0
   -0.5700   12.0750   21.5560 C   0  0  0  0  0  0  0  0  0  0  0  0
   -0.3230   15.3840   22.3420 H   0  0  0  0  0  0  0  0  0  0  0  0
    1.8380   15.0840   21.2030 H   0  0  0  0  0  0  0  0  0  0  0  0
    2.4800   12.9010   20.2840 H   0  0  0  0  0  0  0  0  0  0  0  0
   -1.2560   11.2340   21.6450 H   0  0  0  0  0  0  0  0  0  0  0  0
    1.0360   10.5990   20.3390 C   0  0  0  0  0  0  0  0  0  0  0  0
    1.3510    9.3660   20.8610 C   0  0  0  0  0  0  0  0  0  0  0  0
    1.6230    8.5380   19.7390 C   0  0  0  0  0  0  0  0  0  0  0  0
    1.4680    9.2390   18.6060 N   0  0  0  0  0  0  0  0  0  0  0  0
    1.1070   10.5150   18.9820 O   0  0  0  0  0  0  0  0  0  0  0  0
    1.3790    9.1000   21.9060 H   0  0  0  0  0  0  0  0  0  0  0  0
    2.0190    7.1270   19.7220 C   0  0  0  0  0  0  0  0  0  0  0  0
    1.6780    6.2650   20.7760 C   0  0  0  0  0  0  0  0  0  0  0  0
    2.0620    4.9200   20.7490 C   0  0  0  0  0  0  0  0  0  0  0  0
    2.8010    4.4130   19.6750 C   0  0  0  0  0  0  0  0  0  0  0  0
    3.1340    5.2590   18.6110 C   0  0  0  0  0  0  0  0  0  0  0  0
    2.7500    6.6050   18.6420 C   0  0  0  0  0  0  0  0  0  0  0  0
    1.1200    6.6220   21.6370 H   0  0  0  0  0  0  0  0  0  0  0  0
    1.7870    4.2660   21.5760 H   0  0  0  0  0  0  0  0  0  0  0  0
    3.6640    4.8880   17.7400 H   0  0  0  0  0  0  0  0  0  0  0  0
    3.0170    7.2450   17.8010 H   0  0  0  0  0  0  0  0  0  0  0  0
    3.1840    2.9730   19.6940 C   0  0  0  0  0  0  0  0  0  0  0  0
    3.2360    2.3670   20.7580 O   0  0  0  0  0  0  0  0  0  0  0  0
    3.5010    2.4050   18.4770 N   0  0  0  0  0  0  0  0  0  0  0  0
    3.6860    3.0120   17.6900 H   0  0  0  0  0  0  0  0  0  0  0  0
    3.9980    1.0530   18.4060 C   0  0  0  0  0  0  0  0  0  0  0  0
    5.0680    1.0860   18.1850 H   0  0  0  0  0  0  0  0  0  0  0  0
    3.8380    0.5370   19.3560 H   0  0  0  0  0  0  0  0  0  0  0  0
    3.4710    0.5310   17.6050 H   0  0  0  0  0  0  0  0  0  0  0  0
   -2.2820   13.5310   22.7930 C   0  0  2  0  0  0  0  0  0  0  0  0
   -2.0980   14.1280   23.6940 H   0  0  0  0  0  0  0  0  0  0  0  0
   -2.9180   12.2080   23.2290 C   0  0  0  0  0  0  0  0  0  0  0  0
   -3.6200   11.8510   22.4680 H   0  0  0  0  0  0  0  0  0  0  0  0
   -3.4740   12.2970   24.1690 H   0  0  0  0  0  0  0  0  0  0  0  0
   -2.1640   11.4260   23.3640 H   0  0  0  0  0  0  0  0  0  0  0  0
   -3.4190   14.4710   21.7030 S   0  0  0  0  0  0  0  0  0  0  0  0
   -3.9900   13.2280   20.6460 C   0  0  0  0  0  0  0  0  0  0  0  0
   -5.1020   12.5360   20.7470 N   0  0  0  0  0  0  0  0  0  0  0  0
   -5.1470   11.6610   19.6790 N   0  0  0  0  0  0  0  0  0  0  0  0
   -4.0600   11.8530   18.9620 C   0  0  0  0  0  0  0  0  0  0  0  0
   -3.3000   12.8300   19.5300 N   0  0  0  0  0  0  0  0  0  0  0  0
   -3.7820   11.3340   18.0580 H   0  0  0  0  0  0  0  0  0  0  0  0
   -2.0480   13.3140   19.0320 N   0  0  0  0  0  0  0  0  0  0  0  0
   -1.5710   12.5790   18.5100 H   0  0  0  0  0  0  0  0  0  0  0  0
   -1.4230   13.5270   19.8100 H   0  0  0  0  0  0  0  0  0  0  0  0
  1 35  1  0  0  0  0
  2  1  1  0  0  0  0
  2  7  1  0  0  0  0
  3  2  2  0  0  0  0
  4  5  2  0  0  0  0
  4  3  1  0  0  0  0
  5  6  1  0  0  0  0
  6 10  1  0  0  0  0
  6  1  2  0  0  0  0
  8  3  1  0  0  0  0
  9  4  1  0  0  0  0
 11 12  2  0  0  0  0
 11  5  1  0  0  0  0
 12 16  1  0  0  0  0
 13 12  1  0  0  0  0
 14 15  1  0  0  0  0
 14 13  2  0  0  0  0
 15 11  1  0  0  0  0
 17 13  1  0  0  0  0
 17 18  1  0  0  0  0
 18 23  1  0  0  0  0
 19 18  2  0  0  0  0
 19 24  1  0  0  0  0
 20 27  1  0  0  0  0
 20 19  1  0  0  0  0
 21 22  1  0  0  0  0
 21 20  2  0  0  0  0
 22 17  2  0  0  0  0
 25 21  1  0  0  0  0
 26 22  1  0  0  0  0
 27 28  2  0  0  0  0
 29 27  1  0  0  0  0
 30 29  1  0  0  0  0
 31 29  1  0  0  0  0
 31 33  1  0  0  0  0
 32 31  1  0  0  0  0
 34 31  1  0  0  0  0
 35 37  1  0  0  0  0
 35 36  1  1  0  0  0
 37 40  1  0  0  0  0
 37 39  1  0  0  0  0
 38 37  1  0  0  0  0
 41 35  1  0  0  0  0
 42 43  2  0  0  0  0
 42 41  1  0  0  0  0
 44 43  1  0  0  0  0
 45 46  1  0  0  0  0
 45 44  2  0  0  0  0
 46 42  1  0  0  0  0
 47 45  1  0  0  0  0
 48 46  1  0  0  0  0
 48 50  1  0  0  0  0
 49 48  1  0  0  0  0
M  END
>  <MODEL>
32

>  <REMARK>
 VINA RESULT:    -5.832      3.328      4.698
 INTER + INTRA:          -8.878
 INTER:                  -8.283
 INTRA:                  -0.594
 UNBOUND:                -0.489
  Name = 
  9 active torsions:
  status: ('A' for Active; 'I' for Inactive)
    1  A    between atoms: C_1  and  C_2
    2  A    between atoms: C_2  and  C_3
    3  A    between atoms: C_2  and  S_24
    4  A    between atoms: C_7  and  C_9
    5  A    between atoms: C_11  and  C_14
    6  A    between atoms: C_17  and  C_20
    7  A    between atoms: N_22  and  C_23
    8  A    between atoms: S_24  and  C_25
    9  A    between atoms: N_29  and  N_30
                            x       y       z     vdW  Elec       q    Type
                         _______ _______ _______ _____ _____    ______ ____

>  <TORSDO>
F 9

$$$$
=
 OpenBabel07192307433D

 50 53  0  0  1  0  0  0  0  0999 V2000
   -2.9010   13.0210   20.5350 C   0  0  0  0  0  0  0  0  0  0  0  0
   -2.2390   14.2330   20.7810 C   0  0  0  0  0  0  0  0  0  0  0  0
   -0.8700   14.2550   21.0380 C   0  0  0  0  0  0  0  0  0  0  0  0
   -0.1370   13.0660   21.0470 C   0  0  0  0  0  0  0  0  0  0  0  0
   -0.7630   11.8370   20.8000 C   0  0  0  0  0  0  0  0  0  0  0  0
   -2.1450   11.8320   20.5460 C   0  0  0  0  0  0  0  0  0  0  0  0
   -2.7880   15.1730   20.7730 H   0  0  0  0  0  0  0  0  0  0  0  0
   -0.3710   15.2020   21.2320 H   0  0  0  0  0  0  0  0  0  0  0  0
    0.9280   13.1190   21.2540 H   0  0  0  0  0  0  0  0  0  0  0  0
   -2.6450   10.8870   20.3370 H   0  0  0  0  0  0  0  0  0  0  0  0
    0.0130   10.6000   20.7990 C   0  0  0  0  0  0  0  0  0  0  0  0
    0.3830    9.6820   19.8450 C   0  0  0  0  0  0  0  0  0  0  0  0
    1.1470    8.7030   20.5360 C   0  0  0  0  0  0  0  0  0  0  0  0
    1.2360    9.0280   21.8360 N   0  0  0  0  0  0  0  0  0  0  0  0
    0.5290   10.2010   21.9950 O   0  0  0  0  0  0  0  0  0  0  0  0
    0.1390    9.7130   18.7950 H   0  0  0  0  0  0  0  0  0  0  0  0
    1.7790    7.4940   20.0020 C   0  0  0  0  0  0  0  0  0  0  0  0
    1.7160    6.2760   20.6950 C   0  0  0  0  0  0  0  0  0  0  0  0
    2.3250    5.1280   20.1760 C   0  0  0  0  0  0  0  0  0  0  0  0
    3.0140    5.1780   18.9600 C   0  0  0  0  0  0  0  0  0  0  0  0
    3.0710    6.3830   18.2520 C   0  0  0  0  0  0  0  0  0  0  0  0
    2.4630    7.5310   18.7750 C   0  0  0  0  0  0  0  0  0  0  0  0
    1.2050    6.1980   21.6510 H   0  0  0  0  0  0  0  0  0  0  0  0
    2.2640    4.1910   20.7280 H   0  0  0  0  0  0  0  0  0  0  0  0
    3.5560    6.4460   17.2830 H   0  0  0  0  0  0  0  0  0  0  0  0
    2.5170    8.4580   18.2060 H   0  0  0  0  0  0  0  0  0  0  0  0
    3.6430    3.9270   18.4490 C   0  0  0  0  0  0  0  0  0  0  0  0
    4.5440    3.9880   17.6200 O   0  0  0  0  0  0  0  0  0  0  0  0
    3.1290    2.7400   18.9300 N   0  0  0  0  0  0  0  0  0  0  0  0
    2.2350    2.7520   19.4000 H   0  0  0  0  0  0  0  0  0  0  0  0
    3.5890    1.4770   18.4070 C   0  0  0  0  0  0  0  0  0  0  0  0
    3.1800    0.6740   19.0250 H   0  0  0  0  0  0  0  0  0  0  0  0
    3.2560    1.3470   17.3740 H   0  0  0  0  0  0  0  0  0  0  0  0
    4.6790    1.4590   18.4520 H   0  0  0  0  0  0  0  0  0  0  0  0
   -4.3960   13.0250   20.2460 C   0  0  2  0  0  0  0  0  0  0  0  0
   -4.8070   13.9710   20.6180 H   0  0  0  0  0  0  0  0  0  0  0  0
   -5.1260   11.8840   20.9610 C   0  0  0  0  0  0  0  0  0  0  0  0
   -4.4070   11.2040   21.4320 H   0  0  0  0  0  0  0  0  0  0  0  0
   -5.7420   11.2870   20.2810 H   0  0  0  0  0  0  0  0  0  0  0  0
   -5.7800   12.2620   21.7540 H   0  0  0  0  0  0  0  0  0  0  0  0
   -4.6810   12.9450   18.4360 S   0  0  0  0  0  0  0  0  0  0  0  0
   -3.9760   11.4180   18.0420 C   0  0  0  0  0  0  0  0  0  0  0  0
   -4.5060   10.2250   18.1940 N   0  0  0  0  0  0  0  0  0  0  0  0
   -3.5880    9.2990   17.7390 N   0  0  0  0  0  0  0  0  0  0  0  0
   -2.5290    9.9620   17.3220 C   0  0  0  0  0  0  0  0  0  0  0  0
   -2.7260   11.2990   17.4910 N   0  0  0  0  0  0  0  0  0  0  0  0
   -1.6270    9.5410   16.9050 H   0  0  0  0  0  0  0  0  0  0  0  0
   -1.7960   12.3320   17.1510 N   0  0  0  0  0  0  0  0  0  0  0  0
   -2.0450   12.7450   16.2530 H   0  0  0  0  0  0  0  0  0  0  0  0
   -0.8690   11.9320   17.0050 H   0  0  0  0  0  0  0  0  0  0  0  0
  1  6  2  0  0  0  0
  1  2  1  0  0  0  0
  2  3  2  0  0  0  0
  3  4  1  0  0  0  0
  3  8  1  0  0  0  0
  4  9  1  0  0  0  0
  5  4  2  0  0  0  0
  6  5  1  0  0  0  0
  7  2  1  0  0  0  0
 10  6  1  0  0  0  0
 11  5  1  0  0  0  0
 11 15  1  0  0  0  0
 12 13  1  0  0  0  0
 12 11  2  0  0  0  0
 13 14  2  0  0  0  0
 14 15  1  0  0  0  0
 16 12  1  0  0  0  0
 17 13  1  0  0  0  0
 17 18  1  0  0  0  0
 18 23  1  0  0  0  0
 19 18  2  0  0  0  0
 19 24  1  0  0  0  0
 20 19  1  0  0  0  0
 21 22  1  0  0  0  0
 21 20  2  0  0  0  0
 22 17  2  0  0  0  0
 25 21  1  0  0  0  0
 26 22  1  0  0  0  0
 27 29  1  0  0  0  0
 27 20  1  0  0  0  0
 28 27  2  0  0  0  0
 29 30  1  0  0  0  0
 31 34  1  0  0  0  0
 31 29  1  0  0  0  0
 31 32  1  0  0  0  0
 33 31  1  0  0  0  0
 35  1  1  0  0  0  0
 35 36  1  1  0  0  0
 35 37  1  0  0  0  0
 37 38  1  0  0  0  0
 37 40  1  0  0  0  0
 39 37  1  0  0  0  0
 41 35  1  0  0  0  0
 42 43  2  0  0  0  0
 42 41  1  0  0  0  0
 44 43  1  0  0  0  0
 45 46  1  0  0  0  0
 45 44  2  0  0  0  0
 46 42  1  0  0  0  0
 47 45  1  0  0  0  0
 48 46  1  0  0  0  0
 49 48  1  0  0  0  0
 50 48  1  0  0  0  0
M  END
>  <MODEL>
33

>  <REMARK>
 VINA RESULT:    -5.686      3.144      4.495
 INTER + INTRA:          -8.668
 INTER:                  -8.179
 INTRA:                  -0.489
 UNBOUND:                -0.489
  Name = 
  9 active torsions:
  status: ('A' for Active; 'I' for Inactive)
    1  A    between atoms: C_1  and  C_2
    2  A    between atoms: C_2  and  C_3
    3  A    between atoms: C_2  and  S_24
    4  A    between atoms: C_7  and  C_9
    5  A    between atoms: C_11  and  C_14
    6  A    between atoms: C_17  and  C_20
    7  A    between atoms: N_22  and  C_23
    8  A    between atoms: S_24  and  C_25
    9  A    between atoms: N_29  and  N_30
                            x       y       z     vdW  Elec       q    Type
                         _______ _______ _______ _____ _____    ______ ____

>  <TORSDO>
F 9

$$$$
