=
 OpenBabel07192307433D

 46 48  0  0  1  0  0  0  0  0999 V2000
   -0.4180   10.9460   20.4180 C   0  0  0  0  0  0  0  0  0  0  0  0
   -0.6780   11.2740   21.7520 C   0  0  0  0  0  0  0  0  0  0  0  0
   -0.2940   10.3800   22.7380 C   0  0  0  0  0  0  0  0  0  0  0  0
    0.3160    9.2030   22.4910 N   0  0  0  0  0  0  0  0  0  0  0  0
    0.5570    8.8770   21.2130 C   0  0  0  0  0  0  0  0  0  0  0  0
    0.2050    9.7160   20.1580 C   0  0  0  0  0  0  0  0  0  0  0  0
   -1.1760   12.1950   22.0310 H   0  0  0  0  0  0  0  0  0  0  0  0
   -0.4750   10.5930   23.7880 H   0  0  0  0  0  0  0  0  0  0  0  0
    0.4100    9.4200   19.1330 H   0  0  0  0  0  0  0  0  0  0  0  0
    1.1780    7.6690   20.8880 N   0  0  0  0  0  0  0  0  0  0  0  0
    1.9920    7.4370   19.8010 C   0  0  0  0  0  0  0  0  0  0  0  0
    2.3310    8.2170   18.9210 O   0  0  0  0  0  0  0  0  0  0  0  0
    1.0280    6.8740   21.4960 H   0  0  0  0  0  0  0  0  0  0  0  0
    2.4950    6.0240   19.7550 C   0  0  0  0  0  0  0  0  0  0  0  0
    1.8650    5.0350   20.5060 C   0  0  0  0  0  0  0  0  0  0  0  0
    2.3590    3.7360   20.4360 C   0  0  0  0  0  0  0  0  0  0  0  0
    3.4590    3.4900   19.6110 C   0  0  0  0  0  0  0  0  0  0  0  0
    4.0450    4.5250   18.8960 C   0  0  0  0  0  0  0  0  0  0  0  0
    3.5800    5.7970   18.9510 N   0  0  0  0  0  0  0  0  0  0  0  0
    1.0090    5.2750   21.1320 H   0  0  0  0  0  0  0  0  0  0  0  0
    1.8940    2.9380   21.0110 H   0  0  0  0  0  0  0  0  0  0  0  0
    3.9830    2.1520   19.5140 N   0  0  0  0  0  0  0  0  0  0  0  0
    4.8140    1.8150   20.3680 O   0  0  0  0  0  0  0  0  0  0  0  0
    3.5250    1.4230   18.6240 O   0  0  0  0  0  0  0  0  0  0  0  0
    5.1660    4.2620   18.1400 O   0  0  0  0  0  0  0  0  0  0  0  0
    4.9220    4.1770   16.7400 C   0  0  0  0  0  0  0  0  0  0  0  0
    4.0070    4.7140   16.4660 H   0  0  0  0  0  0  0  0  0  0  0  0
    4.8800    3.1350   16.4070 H   0  0  0  0  0  0  0  0  0  0  0  0
    5.7580    4.6590   16.2240 H   0  0  0  0  0  0  0  0  0  0  0  0
   -0.8120   11.8500   19.2620 C   0  0  2  0  0  0  0  0  0  0  0  0
   -0.3720   11.4300   18.3490 H   0  0  0  0  0  0  0  0  0  0  0  0
   -0.2820   13.2780   19.4170 C   0  0  0  0  0  0  0  0  0  0  0  0
   -0.8860   13.9770   18.8260 H   0  0  0  0  0  0  0  0  0  0  0  0
    0.7570   13.3810   19.0830 H   0  0  0  0  0  0  0  0  0  0  0  0
   -0.3300   13.6110   20.4590 H   0  0  0  0  0  0  0  0  0  0  0  0
   -2.6390   11.8610   19.0800 S   0  0  0  0  0  0  0  0  0  0  0  0
   -2.8310   11.1430   17.5220 C   0  0  0  0  0  0  0  0  0  0  0  0
   -1.9670   10.3830   16.8900 N   0  0  0  0  0  0  0  0  0  0  0  0
   -2.5280   10.0230   15.6850 N   0  0  0  0  0  0  0  0  0  0  0  0
   -3.7190   10.5740   15.6220 C   0  0  0  0  0  0  0  0  0  0  0  0
   -3.9530   11.2890   16.7590 N   0  0  0  0  0  0  0  0  0  0  0  0
   -4.4190   10.4860   14.8030 H   0  0  0  0  0  0  0  0  0  0  0  0
   -5.1470   12.0310   17.0590 C   0  0  0  0  0  0  0  0  0  0  0  0
   -5.9780   11.3310   17.1700 H   0  0  0  0  0  0  0  0  0  0  0  0
   -5.3380   12.7360   16.2450 H   0  0  0  0  0  0  0  0  0  0  0  0
   -5.0090   12.5840   17.9920 H   0  0  0  0  0  0  0  0  0  0  0  0
  1  2  1  0  0  0  0
  2  7  1  0  0  0  0
  2  3  2  0  0  0  0
  3  8  1  0  0  0  0
  4  3  1  0  0  0  0
  5  4  2  0  0  0  0
  6  1  2  0  0  0  0
  6  5  1  0  0  0  0
  9  6  1  0  0  0  0
 10  5  1  0  0  0  0
 10 13  1  0  0  0  0
 11 10  1  0  0  0  0
 12 11  2  0  0  0  0
 14 11  1  0  0  0  0
 14 15  2  0  0  0  0
 15 20  1  0  0  0  0
 16 15  1  0  0  0  0
 16 21  1  0  0  0  0
 17 16  2  0  0  0  0
 18 19  2  0  0  0  0
 18 17  1  0  0  0  0
 19 14  1  0  0  0  0
 22 17  1  0  0  0  0
 22 23  2  0  0  0  0
 24 22  2  0  0  0  0
 25 18  1  0  0  0  0
 26 25  1  0  0  0  0
 27 26  1  0  0  0  0
 28 26  1  0  0  0  0
 29 26  1  0  0  0  0
 30 31  1  6  0  0  0
 30 32  1  0  0  0  0
 30  1  1  0  0  0  0
 32 35  1  0  0  0  0
 33 32  1  0  0  0  0
 34 32  1  0  0  0  0
 36 30  1  0  0  0  0
 37 36  1  0  0  0  0
 38 37  2  0  0  0  0
 39 38  1  0  0  0  0
 40 39  2  0  0  0  0
 40 41  1  0  0  0  0
 41 43  1  0  0  0  0
 41 37  1  0  0  0  0
 42 40  1  0  0  0  0
 43 44  1  0  0  0  0
 43 46  1  0  0  0  0
 45 43  1  0  0  0  0
M  END
>  <MODEL>
1

>  <REMARK>
 VINA RESULT:    -7.458      0.000      0.000
 INTER + INTRA:         -11.391
 INTER:                 -10.924
 INTRA:                  -0.467
 UNBOUND:                -0.227
  Name = 
  10 active torsions:
  status: ('A' for Active; 'I' for Inactive)
    1  A    between atoms: C_1  and  C_2
    2  A    between atoms: C_2  and  C_3
    3  A    between atoms: C_2  and  S_23
    4  A    between atoms: C_7  and  N_9
    5  A    between atoms: C_10  and  C_11
    6  A    between atoms: C_14  and  N_19
    7  A    between atoms: C_15  and  O_17
    8  A    between atoms: O_17  and  C_18
    9  A    between atoms: S_23  and  C_24
   10  A    between atoms: N_28  and  C_29
                            x       y       z     vdW  Elec       q    Type
                         _______ _______ _______ _____ _____    ______ ____

>  <TORSDO>
F 10

$$$$
=
 OpenBabel07192307433D

 46 48  0  0  1  0  0  0  0  0999 V2000
   -0.3880   11.0000   20.2490 C   0  0  0  0  0  0  0  0  0  0  0  0
   -0.6800   10.8660   21.6100 C   0  0  0  0  0  0  0  0  0  0  0  0
   -0.0740    9.8410   22.3170 C   0  0  0  0  0  0  0  0  0  0  0  0
    0.7830    8.9540   21.7720 N   0  0  0  0  0  0  0  0  0  0  0  0
    1.0570    9.0700   20.4650 C   0  0  0  0  0  0  0  0  0  0  0  0
    0.4940   10.0710   19.6770 C   0  0  0  0  0  0  0  0  0  0  0  0
   -1.3690   11.5310   22.1180 H   0  0  0  0  0  0  0  0  0  0  0  0
   -0.2700    9.6990   23.3760 H   0  0  0  0  0  0  0  0  0  0  0  0
    0.7340   10.1340   18.6190 H   0  0  0  0  0  0  0  0  0  0  0  0
    1.9310    8.1790   19.8360 N   0  0  0  0  0  0  0  0  0  0  0  0
    1.9950    6.8180   20.0390 C   0  0  0  0  0  0  0  0  0  0  0  0
    1.3210    6.1260   20.7900 O   0  0  0  0  0  0  0  0  0  0  0  0
    2.5900    8.5490   19.1630 H   0  0  0  0  0  0  0  0  0  0  0  0
    3.0490    6.1630   19.1960 C   0  0  0  0  0  0  0  0  0  0  0  0
    3.5060    6.7900   18.0400 C   0  0  0  0  0  0  0  0  0  0  0  0
    4.4850    6.1520   17.2850 C   0  0  0  0  0  0  0  0  0  0  0  0
    4.9640    4.9170   17.7290 C   0  0  0  0  0  0  0  0  0  0  0  0
    4.4590    4.3450   18.8870 C   0  0  0  0  0  0  0  0  0  0  0  0
    3.5030    4.9490   19.6360 N   0  0  0  0  0  0  0  0  0  0  0  0
    3.1040    7.7540   17.7360 H   0  0  0  0  0  0  0  0  0  0  0  0
    4.8640    6.6110   16.3740 H   0  0  0  0  0  0  0  0  0  0  0  0
    5.9860    4.2430   16.9710 N   0  0  0  0  0  0  0  0  0  0  0  0
    5.6080    3.5740   15.9990 O   0  0  0  0  0  0  0  0  0  0  0  0
    7.1630    4.4240   17.3090 O   0  0  0  0  0  0  0  0  0  0  0  0
    4.9060    3.0980   19.2660 O   0  0  0  0  0  0  0  0  0  0  0  0
    3.8830    2.1130   19.3600 C   0  0  0  0  0  0  0  0  0  0  0  0
    4.2640    1.1910   19.8150 H   0  0  0  0  0  0  0  0  0  0  0  0
    3.4350    1.9110   18.3810 H   0  0  0  0  0  0  0  0  0  0  0  0
    3.0980    2.5070   20.0120 H   0  0  0  0  0  0  0  0  0  0  0  0
   -1.0110   12.0810   19.3810 C   0  0  2  0  0  0  0  0  0  0  0  0
   -0.5430   12.0200   18.3910 H   0  0  0  0  0  0  0  0  0  0  0  0
   -0.7660   13.4920   19.9230 C   0  0  0  0  0  0  0  0  0  0  0  0
   -1.2820   13.6290   20.8810 H   0  0  0  0  0  0  0  0  0  0  0  0
   -1.1270   14.2730   19.2440 H   0  0  0  0  0  0  0  0  0  0  0  0
    0.2980   13.6730   20.1010 H   0  0  0  0  0  0  0  0  0  0  0  0
   -2.8110   11.7670   19.2000 S   0  0  0  0  0  0  0  0  0  0  0  0
   -2.8840   11.1220   17.6000 C   0  0  0  0  0  0  0  0  0  0  0  0
   -1.9810   10.3780   17.0060 N   0  0  0  0  0  0  0  0  0  0  0  0
   -2.4460   10.0790   15.7450 N   0  0  0  0  0  0  0  0  0  0  0  0
   -3.6220   10.6500   15.6120 C   0  0  0  0  0  0  0  0  0  0  0  0
   -3.9390   11.3170   16.7570 N   0  0  0  0  0  0  0  0  0  0  0  0
   -4.2550   10.6080   14.7360 H   0  0  0  0  0  0  0  0  0  0  0  0
   -5.1460   12.0630   16.9940 C   0  0  0  0  0  0  0  0  0  0  0  0
   -4.8970   12.9640   17.5590 H   0  0  0  0  0  0  0  0  0  0  0  0
   -5.8450   11.4340   17.5520 H   0  0  0  0  0  0  0  0  0  0  0  0
   -5.5950   12.3450   16.0380 H   0  0  0  0  0  0  0  0  0  0  0  0
  1  2  1  0  0  0  0
  2  7  1  0  0  0  0
  2  3  2  0  0  0  0
  3  8  1  0  0  0  0
  4  3  1  0  0  0  0
  5  4  2  0  0  0  0
  6  1  2  0  0  0  0
  6  5  1  0  0  0  0
  9  6  1  0  0  0  0
 10 11  1  0  0  0  0
 10  5  1  0  0  0  0
 11 12  2  0  0  0  0
 13 10  1  0  0  0  0
 14 19  1  0  0  0  0
 14 11  1  0  0  0  0
 15 14  2  0  0  0  0
 16 17  2  0  0  0  0
 16 15  1  0  0  0  0
 17 18  1  0  0  0  0
 18 25  1  0  0  0  0
 18 19  2  0  0  0  0
 20 15  1  0  0  0  0
 21 16  1  0  0  0  0
 22 24  2  0  0  0  0
 22 17  1  0  0  0  0
 23 22  2  0  0  0  0
 25 26  1  0  0  0  0
 26 27  1  0  0  0  0
 26 29  1  0  0  0  0
 28 26  1  0  0  0  0
 30 31  1  6  0  0  0
 30 32  1  0  0  0  0
 30  1  1  0  0  0  0
 32 35  1  0  0  0  0
 32 33  1  0  0  0  0
 34 32  1  0  0  0  0
 36 30  1  0  0  0  0
 37 36  1  0  0  0  0
 38 37  2  0  0  0  0
 39 38  1  0  0  0  0
 40 39  2  0  0  0  0
 40 41  1  0  0  0  0
 41 43  1  0  0  0  0
 41 37  1  0  0  0  0
 42 40  1  0  0  0  0
 43 45  1  0  0  0  0
 43 44  1  0  0  0  0
 46 43  1  0  0  0  0
M  END
>  <MODEL>
2

>  <REMARK>
 VINA RESULT:    -7.308      1.368      2.145
 INTER + INTRA:         -11.166
 INTER:                 -10.428
 INTRA:                  -0.738
 UNBOUND:                -0.227
  Name = 
  10 active torsions:
  status: ('A' for Active; 'I' for Inactive)
    1  A    between atoms: C_1  and  C_2
    2  A    between atoms: C_2  and  C_3
    3  A    between atoms: C_2  and  S_23
    4  A    between atoms: C_7  and  N_9
    5  A    between atoms: C_10  and  C_11
    6  A    between atoms: C_14  and  N_19
    7  A    between atoms: C_15  and  O_17
    8  A    between atoms: O_17  and  C_18
    9  A    between atoms: S_23  and  C_24
   10  A    between atoms: N_28  and  C_29
                            x       y       z     vdW  Elec       q    Type
                         _______ _______ _______ _____ _____    ______ ____

>  <TORSDO>
F 10

$$$$
=
 OpenBabel07192307433D

 46 48  0  0  1  0  0  0  0  0999 V2000
    0.0020   10.7420   20.2610 C   0  0  0  0  0  0  0  0  0  0  0  0
   -0.2750   11.0420   21.5970 C   0  0  0  0  0  0  0  0  0  0  0  0
    0.0920   10.1270   22.5690 C   0  0  0  0  0  0  0  0  0  0  0  0
    0.7020    8.9530   22.3070 N   0  0  0  0  0  0  0  0  0  0  0  0
    0.9590    8.6530   21.0250 C   0  0  0  0  0  0  0  0  0  0  0  0
    0.6250    9.5150   19.9830 C   0  0  0  0  0  0  0  0  0  0  0  0
   -0.7740   11.9580   21.8890 H   0  0  0  0  0  0  0  0  0  0  0  0
   -0.1020   10.3180   23.6210 H   0  0  0  0  0  0  0  0  0  0  0  0
    0.8430    9.2400   18.9550 H   0  0  0  0  0  0  0  0  0  0  0  0
    1.5820    7.4500   20.6830 N   0  0  0  0  0  0  0  0  0  0  0  0
    2.3380    7.2140   19.5560 C   0  0  0  0  0  0  0  0  0  0  0  0
    2.6140    7.9860   18.6470 O   0  0  0  0  0  0  0  0  0  0  0  0
    1.4790    6.6620   21.3100 H   0  0  0  0  0  0  0  0  0  0  0  0
    2.8610    5.8090   19.5020 C   0  0  0  0  0  0  0  0  0  0  0  0
    4.1240    5.5550   18.9740 C   0  0  0  0  0  0  0  0  0  0  0  0
    4.5750    4.2390   18.9420 C   0  0  0  0  0  0  0  0  0  0  0  0
    3.7380    3.2400   19.4460 C   0  0  0  0  0  0  0  0  0  0  0  0
    2.4870    3.5630   19.9510 C   0  0  0  0  0  0  0  0  0  0  0  0
    2.0270    4.8380   19.9890 N   0  0  0  0  0  0  0  0  0  0  0  0
    4.7400    6.3670   18.5960 H   0  0  0  0  0  0  0  0  0  0  0  0
    5.5550    4.0030   18.5340 H   0  0  0  0  0  0  0  0  0  0  0  0
    4.1860    1.8720   19.4340 N   0  0  0  0  0  0  0  0  0  0  0  0
    3.8500    1.1840   18.4600 O   0  0  0  0  0  0  0  0  0  0  0  0
    4.9170    1.5010   20.3620 O   0  0  0  0  0  0  0  0  0  0  0  0
    1.6600    2.5490   20.3830 O   0  0  0  0  0  0  0  0  0  0  0  0
    1.4440    2.5300   21.7900 C   0  0  0  0  0  0  0  0  0  0  0  0
    2.2820    2.9910   22.3240 H   0  0  0  0  0  0  0  0  0  0  0  0
    1.2620    1.5120   22.1500 H   0  0  0  0  0  0  0  0  0  0  0  0
    0.5480    3.1230   21.9990 H   0  0  0  0  0  0  0  0  0  0  0  0
   -0.3730   11.6710   19.1180 C   0  0  2  0  0  0  0  0  0  0  0  0
   -0.0540   11.1930   18.1840 H   0  0  0  0  0  0  0  0  0  0  0  0
    0.3260   13.0310   19.2050 C   0  0  0  0  0  0  0  0  0  0  0  0
    1.0850   13.1210   18.4190 H   0  0  0  0  0  0  0  0  0  0  0  0
    0.8310   13.1840   20.1650 H   0  0  0  0  0  0  0  0  0  0  0  0
   -0.3810   13.8540   19.0670 H   0  0  0  0  0  0  0  0  0  0  0  0
   -2.1950   11.8900   19.0720 S   0  0  0  0  0  0  0  0  0  0  0  0
   -2.6030   11.0500   17.6200 C   0  0  0  0  0  0  0  0  0  0  0  0
   -1.8340   10.2340   16.9370 N   0  0  0  0  0  0  0  0  0  0  0  0
   -2.5580    9.7820   15.8560 N   0  0  0  0  0  0  0  0  0  0  0  0
   -3.7480   10.3360   15.9180 C   0  0  0  0  0  0  0  0  0  0  0  0
   -3.8220   11.1420   17.0140 N   0  0  0  0  0  0  0  0  0  0  0  0
   -4.5570   10.1870   15.2150 H   0  0  0  0  0  0  0  0  0  0  0  0
   -4.9650   11.9150   17.4190 C   0  0  0  0  0  0  0  0  0  0  0  0
   -4.7070   12.9760   17.3700 H   0  0  0  0  0  0  0  0  0  0  0  0
   -5.2420   11.6290   18.4370 H   0  0  0  0  0  0  0  0  0  0  0  0
   -5.8010   11.7120   16.7450 H   0  0  0  0  0  0  0  0  0  0  0  0
  1  2  1  0  0  0  0
  2  7  1  0  0  0  0
  2  3  2  0  0  0  0
  3  8  1  0  0  0  0
  4  3  1  0  0  0  0
  5  4  2  0  0  0  0
  6  1  2  0  0  0  0
  6  5  1  0  0  0  0
  9  6  1  0  0  0  0
 10  5  1  0  0  0  0
 10 13  1  0  0  0  0
 11 10  1  0  0  0  0
 12 11  2  0  0  0  0
 14 11  1  0  0  0  0
 14 19  1  0  0  0  0
 15 14  2  0  0  0  0
 16 15  1  0  0  0  0
 16 17  2  0  0  0  0
 17 18  1  0  0  0  0
 18 19  2  0  0  0  0
 18 25  1  0  0  0  0
 20 15  1  0  0  0  0
 21 16  1  0  0  0  0
 22 17  1  0  0  0  0
 22 24  2  0  0  0  0
 23 22  2  0  0  0  0
 25 26  1  0  0  0  0
 26 29  1  0  0  0  0
 26 28  1  0  0  0  0
 26 27  1  0  0  0  0
 30 31  1  6  0  0  0
 30 32  1  0  0  0  0
 30  1  1  0  0  0  0
 32 34  1  0  0  0  0
 33 32  1  0  0  0  0
 35 32  1  0  0  0  0
 36 30  1  0  0  0  0
 37 36  1  0  0  0  0
 38 37  2  0  0  0  0
 39 40  2  0  0  0  0
 39 38  1  0  0  0  0
 40 41  1  0  0  0  0
 41 43  1  0  0  0  0
 41 37  1  0  0  0  0
 42 40  1  0  0  0  0
 43 45  1  0  0  0  0
 44 43  1  0  0  0  0
 46 43  1  0  0  0  0
M  END
>  <MODEL>
3

>  <REMARK>
 VINA RESULT:    -7.280      0.991      1.845
 INTER + INTRA:         -11.124
 INTER:                 -10.706
 INTRA:                  -0.418
 UNBOUND:                -0.227
  Name = 
  10 active torsions:
  status: ('A' for Active; 'I' for Inactive)
    1  A    between atoms: C_1  and  C_2
    2  A    between atoms: C_2  and  C_3
    3  A    between atoms: C_2  and  S_23
    4  A    between atoms: C_7  and  N_9
    5  A    between atoms: C_10  and  C_11
    6  A    between atoms: C_14  and  N_19
    7  A    between atoms: C_15  and  O_17
    8  A    between atoms: O_17  and  C_18
    9  A    between atoms: S_23  and  C_24
   10  A    between atoms: N_28  and  C_29
                            x       y       z     vdW  Elec       q    Type
                         _______ _______ _______ _____ _____    ______ ____

>  <TORSDO>
F 10

$$$$
=
 OpenBabel07192307433D

 46 48  0  0  1  0  0  0  0  0999 V2000
    0.1830   10.5200   20.0340 C   0  0  0  0  0  0  0  0  0  0  0  0
   -0.1610   10.1810   21.3450 C   0  0  0  0  0  0  0  0  0  0  0  0
    0.3480    9.0090   21.8790 C   0  0  0  0  0  0  0  0  0  0  0  0
    1.1570    8.1640   21.2080 N   0  0  0  0  0  0  0  0  0  0  0  0
    1.4810    8.4780   19.9450 C   0  0  0  0  0  0  0  0  0  0  0  0
    1.0140    9.6370   19.3290 C   0  0  0  0  0  0  0  0  0  0  0  0
   -0.8170   10.7990   21.9460 H   0  0  0  0  0  0  0  0  0  0  0  0
    0.1080    8.7050   22.8950 H   0  0  0  0  0  0  0  0  0  0  0  0
    1.2920    9.8590   18.3020 H   0  0  0  0  0  0  0  0  0  0  0  0
    2.3090    7.6430   19.1910 N   0  0  0  0  0  0  0  0  0  0  0  0
    2.3800    6.2690   19.2760 C   0  0  0  0  0  0  0  0  0  0  0  0
    1.7510    5.5170   20.0090 O   0  0  0  0  0  0  0  0  0  0  0  0
    2.9250    8.0680   18.5100 H   0  0  0  0  0  0  0  0  0  0  0  0
    3.3760    5.6880   18.3170 C   0  0  0  0  0  0  0  0  0  0  0  0
    3.2950    4.3440   17.9580 C   0  0  0  0  0  0  0  0  0  0  0  0
    4.2360    3.8410   17.0650 C   0  0  0  0  0  0  0  0  0  0  0  0
    5.2110    4.7110   16.5700 C   0  0  0  0  0  0  0  0  0  0  0  0
    5.2380    6.0380   16.9760 C   0  0  0  0  0  0  0  0  0  0  0  0
    4.3320    6.5480   17.8470 N   0  0  0  0  0  0  0  0  0  0  0  0
    2.5170    3.7060   18.3690 H   0  0  0  0  0  0  0  0  0  0  0  0
    4.2060    2.7960   16.7640 H   0  0  0  0  0  0  0  0  0  0  0  0
    6.1890    4.2170   15.6360 N   0  0  0  0  0  0  0  0  0  0  0  0
    7.3290    4.0190   16.0770 O   0  0  0  0  0  0  0  0  0  0  0  0
    5.8080    3.9750   14.4830 O   0  0  0  0  0  0  0  0  0  0  0  0
    6.2480    6.8560   16.5180 O   0  0  0  0  0  0  0  0  0  0  0  0
    7.2120    7.2030   17.5060 C   0  0  0  0  0  0  0  0  0  0  0  0
    7.7770    6.3230   17.8330 H   0  0  0  0  0  0  0  0  0  0  0  0
    6.7430    7.7070   18.3580 H   0  0  0  0  0  0  0  0  0  0  0  0
    7.9190    7.9040   17.0520 H   0  0  0  0  0  0  0  0  0  0  0  0
   -0.3340   11.7750   19.3500 C   0  0  2  0  0  0  0  0  0  0  0  0
   -0.1100   11.6850   18.2810 H   0  0  0  0  0  0  0  0  0  0  0  0
    0.3430   13.0500   19.8610 C   0  0  0  0  0  0  0  0  0  0  0  0
   -0.0060   13.2900   20.8730 H   0  0  0  0  0  0  0  0  0  0  0  0
    0.1330   13.9210   19.2290 H   0  0  0  0  0  0  0  0  0  0  0  0
    1.4290   12.9330   19.9130 H   0  0  0  0  0  0  0  0  0  0  0  0
   -2.1550   11.8880   19.5600 S   0  0  0  0  0  0  0  0  0  0  0  0
   -2.7050   11.4870   17.9740 C   0  0  0  0  0  0  0  0  0  0  0  0
   -1.9780   11.0530   16.9700 N   0  0  0  0  0  0  0  0  0  0  0  0
   -2.8190   10.8510   15.8990 N   0  0  0  0  0  0  0  0  0  0  0  0
   -4.0340   11.1650   16.2860 C   0  0  0  0  0  0  0  0  0  0  0  0
   -4.0110   11.5700   17.5870 N   0  0  0  0  0  0  0  0  0  0  0  0
   -4.9280   11.1170   15.6780 H   0  0  0  0  0  0  0  0  0  0  0  0
   -5.1470   11.9910   18.3610 C   0  0  0  0  0  0  0  0  0  0  0  0
   -5.8970   12.4100   17.6860 H   0  0  0  0  0  0  0  0  0  0  0  0
   -4.8190   12.7380   19.0900 H   0  0  0  0  0  0  0  0  0  0  0  0
   -5.5700   11.1320   18.8870 H   0  0  0  0  0  0  0  0  0  0  0  0
  1  2  1  0  0  0  0
  2  3  2  0  0  0  0
  2  7  1  0  0  0  0
  3  8  1  0  0  0  0
  4  3  1  0  0  0  0
  5  4  2  0  0  0  0
  6  5  1  0  0  0  0
  6  1  2  0  0  0  0
  9  6  1  0  0  0  0
 10 11  1  0  0  0  0
 10  5  1  0  0  0  0
 11 12  2  0  0  0  0
 13 10  1  0  0  0  0
 14 11  1  0  0  0  0
 15 14  2  0  0  0  0
 15 20  1  0  0  0  0
 16 15  1  0  0  0  0
 17 18  1  0  0  0  0
 17 16  2  0  0  0  0
 18 19  2  0  0  0  0
 19 14  1  0  0  0  0
 21 16  1  0  0  0  0
 22 23  2  0  0  0  0
 22 17  1  0  0  0  0
 24 22  2  0  0  0  0
 25 18  1  0  0  0  0
 25 26  1  0  0  0  0
 26 27  1  0  0  0  0
 26 28  1  0  0  0  0
 29 26  1  0  0  0  0
 30 31  1  6  0  0  0
 30 36  1  0  0  0  0
 30 32  1  0  0  0  0
 30  1  1  0  0  0  0
 32 35  1  0  0  0  0
 32 33  1  0  0  0  0
 34 32  1  0  0  0  0
 37 36  1  0  0  0  0
 38 37  2  0  0  0  0
 39 40  2  0  0  0  0
 39 38  1  0  0  0  0
 40 41  1  0  0  0  0
 41 37  1  0  0  0  0
 41 43  1  0  0  0  0
 42 40  1  0  0  0  0
 43 46  1  0  0  0  0
 43 45  1  0  0  0  0
 44 43  1  0  0  0  0
M  END
>  <MODEL>
4

>  <REMARK>
 VINA RESULT:    -7.081      2.040      2.576
 INTER + INTRA:         -10.827
 INTER:                 -10.275
 INTRA:                  -0.552
 UNBOUND:                -0.227
  Name = 
  10 active torsions:
  status: ('A' for Active; 'I' for Inactive)
    1  A    between atoms: C_1  and  C_2
    2  A    between atoms: C_2  and  C_3
    3  A    between atoms: C_2  and  S_23
    4  A    between atoms: C_7  and  N_9
    5  A    between atoms: C_10  and  C_11
    6  A    between atoms: C_14  and  N_19
    7  A    between atoms: C_15  and  O_17
    8  A    between atoms: O_17  and  C_18
    9  A    between atoms: S_23  and  C_24
   10  A    between atoms: N_28  and  C_29
                            x       y       z     vdW  Elec       q    Type
                         _______ _______ _______ _____ _____    ______ ____

>  <TORSDO>
F 10

$$$$
=
 OpenBabel07192307433D

 46 48  0  0  1  0  0  0  0  0999 V2000
   -0.4480   10.4190   20.8010 C   0  0  0  0  0  0  0  0  0  0  0  0
   -0.3440   10.2600   22.1860 C   0  0  0  0  0  0  0  0  0  0  0  0
    0.5720    9.3450   22.6780 C   0  0  0  0  0  0  0  0  0  0  0  0
    1.3750    8.5900   21.9020 N   0  0  0  0  0  0  0  0  0  0  0  0
    1.2720    8.7300   20.5720 C   0  0  0  0  0  0  0  0  0  0  0  0
    0.3780    9.6260   19.9900 C   0  0  0  0  0  0  0  0  0  0  0  0
   -0.9640   10.8190   22.8770 H   0  0  0  0  0  0  0  0  0  0  0  0
    0.6870    9.1880   23.7480 H   0  0  0  0  0  0  0  0  0  0  0  0
    0.3160    9.7110   18.9080 H   0  0  0  0  0  0  0  0  0  0  0  0
    2.0690    7.9730   19.7100 N   0  0  0  0  0  0  0  0  0  0  0  0
    2.2360    6.6050   19.7420 C   0  0  0  0  0  0  0  0  0  0  0  0
    1.7370    5.7940   20.5100 O   0  0  0  0  0  0  0  0  0  0  0  0
    2.5820    8.4560   18.9840 H   0  0  0  0  0  0  0  0  0  0  0  0
    3.1620    6.1170   18.6670 C   0  0  0  0  0  0  0  0  0  0  0  0
    3.7870    7.0280   17.8190 C   0  0  0  0  0  0  0  0  0  0  0  0
    4.6390    6.5370   16.8350 C   0  0  0  0  0  0  0  0  0  0  0  0
    4.8290    5.1550   16.7520 C   0  0  0  0  0  0  0  0  0  0  0  0
    4.1690    4.3040   17.6260 C   0  0  0  0  0  0  0  0  0  0  0  0
    3.3320    4.7610   18.5900 N   0  0  0  0  0  0  0  0  0  0  0  0
    3.6100    8.0950   17.9240 H   0  0  0  0  0  0  0  0  0  0  0  0
    5.1430    7.2180   16.1530 H   0  0  0  0  0  0  0  0  0  0  0  0
    5.7150    4.6240   15.7500 N   0  0  0  0  0  0  0  0  0  0  0  0
    6.8850    4.4100   16.0970 O   0  0  0  0  0  0  0  0  0  0  0  0
    5.2340    4.3670   14.6390 O   0  0  0  0  0  0  0  0  0  0  0  0
    4.3280    2.9430   17.4800 O   0  0  0  0  0  0  0  0  0  0  0  0
    3.2230    2.1710   17.9390 C   0  0  0  0  0  0  0  0  0  0  0  0
    3.1960    2.1350   19.0340 H   0  0  0  0  0  0  0  0  0  0  0  0
    3.2390    1.1620   17.5140 H   0  0  0  0  0  0  0  0  0  0  0  0
    2.3070    2.6630   17.5990 H   0  0  0  0  0  0  0  0  0  0  0  0
   -1.4310   11.3840   20.1590 C   0  0  2  0  0  0  0  0  0  0  0  0
   -2.4350   10.9570   20.2720 H   0  0  0  0  0  0  0  0  0  0  0  0
   -1.1770   11.5800   18.6610 C   0  0  0  0  0  0  0  0  0  0  0  0
   -0.1290   11.3700   18.4200 H   0  0  0  0  0  0  0  0  0  0  0  0
   -1.3900   12.6030   18.3290 H   0  0  0  0  0  0  0  0  0  0  0  0
   -1.7900   10.9020   18.0600 H   0  0  0  0  0  0  0  0  0  0  0  0
   -1.3770   12.9960   21.0350 S   0  0  0  0  0  0  0  0  0  0  0  0
   -2.7290   12.8510   22.0980 C   0  0  0  0  0  0  0  0  0  0  0  0
   -2.6990   12.5900   23.3840 N   0  0  0  0  0  0  0  0  0  0  0  0
   -3.9980   12.5740   23.8410 N   0  0  0  0  0  0  0  0  0  0  0  0
   -4.7790   12.8300   22.8160 C   0  0  0  0  0  0  0  0  0  0  0  0
   -4.0230   13.0130   21.6970 N   0  0  0  0  0  0  0  0  0  0  0  0
   -5.8590   12.8900   22.8380 H   0  0  0  0  0  0  0  0  0  0  0  0
   -4.5190   13.3130   20.3810 C   0  0  0  0  0  0  0  0  0  0  0  0
   -3.7620   13.0320   19.6470 H   0  0  0  0  0  0  0  0  0  0  0  0
   -4.7400   14.3830   20.3230 H   0  0  0  0  0  0  0  0  0  0  0  0
   -5.4340   12.7440   20.1980 H   0  0  0  0  0  0  0  0  0  0  0  0
  1  2  1  0  0  0  0
  2  3  2  0  0  0  0
  2  7  1  0  0  0  0
  3  8  1  0  0  0  0
  4  3  1  0  0  0  0
  5  4  2  0  0  0  0
  6  5  1  0  0  0  0
  6  1  2  0  0  0  0
  9  6  1  0  0  0  0
 10 11  1  0  0  0  0
 10  5  1  0  0  0  0
 11 12  2  0  0  0  0
 13 10  1  0  0  0  0
 14 11  1  0  0  0  0
 15 20  1  0  0  0  0
 15 14  2  0  0  0  0
 16 15  1  0  0  0  0
 17 16  2  0  0  0  0
 17 18  1  0  0  0  0
 18 19  2  0  0  0  0
 19 14  1  0  0  0  0
 21 16  1  0  0  0  0
 22 23  2  0  0  0  0
 22 17  1  0  0  0  0
 24 22  2  0  0  0  0
 25 18  1  0  0  0  0
 25 26  1  0  0  0  0
 26 27  1  0  0  0  0
 28 26  1  0  0  0  0
 29 26  1  0  0  0  0
 30 31  1  1  0  0  0
 30  1  1  0  0  0  0
 30 36  1  0  0  0  0
 32 30  1  0  0  0  0
 33 32  1  0  0  0  0
 34 32  1  0  0  0  0
 35 32  1  0  0  0  0
 36 37  1  0  0  0  0
 37 38  2  0  0  0  0
 38 39  1  0  0  0  0
 40 42  1  0  0  0  0
 40 39  2  0  0  0  0
 41 37  1  0  0  0  0
 41 40  1  0  0  0  0
 43 41  1  0  0  0  0
 44 43  1  0  0  0  0
 45 43  1  0  0  0  0
 46 43  1  0  0  0  0
M  END
>  <MODEL>
5

>  <REMARK>
 VINA RESULT:    -6.983      2.670      3.829
 INTER + INTRA:         -10.679
 INTER:                 -10.019
 INTRA:                  -0.661
 UNBOUND:                -0.227
  Name = 
  10 active torsions:
  status: ('A' for Active; 'I' for Inactive)
    1  A    between atoms: C_1  and  C_2
    2  A    between atoms: C_2  and  C_3
    3  A    between atoms: C_2  and  S_23
    4  A    between atoms: C_7  and  N_9
    5  A    between atoms: C_10  and  C_11
    6  A    between atoms: C_14  and  N_19
    7  A    between atoms: C_15  and  O_17
    8  A    between atoms: O_17  and  C_18
    9  A    between atoms: S_23  and  C_24
   10  A    between atoms: N_28  and  C_29
                            x       y       z     vdW  Elec       q    Type
                         _______ _______ _______ _____ _____    ______ ____

>  <TORSDO>
F 10

$$$$
=
 OpenBabel07192307433D

 46 48  0  0  1  0  0  0  0  0999 V2000
    5.4650    4.8500   18.8000 C   0  0  0  0  0  0  0  0  0  0  0  0
    4.8440    3.6620   18.4050 C   0  0  0  0  0  0  0  0  0  0  0  0
    3.4730    3.5490   18.5620 C   0  0  0  0  0  0  0  0  0  0  0  0
    2.6920    4.5180   19.0810 N   0  0  0  0  0  0  0  0  0  0  0  0
    3.2840    5.6560   19.4740 C   0  0  0  0  0  0  0  0  0  0  0  0
    4.6570    5.8550   19.3520 C   0  0  0  0  0  0  0  0  0  0  0  0
    5.4040    2.8300   17.9910 H   0  0  0  0  0  0  0  0  0  0  0  0
    2.9480    2.6440   18.2680 H   0  0  0  0  0  0  0  0  0  0  0  0
    5.1050    6.7880   19.6850 H   0  0  0  0  0  0  0  0  0  0  0  0
    2.5340    6.6980   20.0270 N   0  0  0  0  0  0  0  0  0  0  0  0
    2.0530    7.8020   19.3580 C   0  0  0  0  0  0  0  0  0  0  0  0
    2.1770    8.0910   18.1750 O   0  0  0  0  0  0  0  0  0  0  0  0
    2.3130    6.6580   21.0140 H   0  0  0  0  0  0  0  0  0  0  0  0
    1.2840    8.7250   20.2560 C   0  0  0  0  0  0  0  0  0  0  0  0
    1.3460    8.5630   21.6380 C   0  0  0  0  0  0  0  0  0  0  0  0
    0.6210    9.4400   22.4390 C   0  0  0  0  0  0  0  0  0  0  0  0
   -0.1290   10.4410   21.8160 C   0  0  0  0  0  0  0  0  0  0  0  0
   -0.1520   10.5400   20.4320 C   0  0  0  0  0  0  0  0  0  0  0  0
    0.5460    9.6950   19.6330 N   0  0  0  0  0  0  0  0  0  0  0  0
    1.9460    7.7700   22.0780 H   0  0  0  0  0  0  0  0  0  0  0  0
    0.6430    9.3430   23.5220 H   0  0  0  0  0  0  0  0  0  0  0  0
   -0.8790   11.3670   22.6230 N   0  0  0  0  0  0  0  0  0  0  0  0
   -1.7690   10.8880   23.3390 O   0  0  0  0  0  0  0  0  0  0  0  0
   -0.5450   12.5580   22.5860 O   0  0  0  0  0  0  0  0  0  0  0  0
   -0.9490   11.4980   19.8440 O   0  0  0  0  0  0  0  0  0  0  0  0
   -1.4160   11.1540   18.5450 C   0  0  0  0  0  0  0  0  0  0  0  0
   -2.5100   11.0870   18.5240 H   0  0  0  0  0  0  0  0  0  0  0  0
   -0.9610   10.2220   18.1930 H   0  0  0  0  0  0  0  0  0  0  0  0
   -1.1170   11.9520   17.8590 H   0  0  0  0  0  0  0  0  0  0  0  0
    6.9650    5.0680   18.6840 C   0  0  2  0  0  0  0  0  0  0  0  0
    7.4220    4.1000   18.4470 H   0  0  0  0  0  0  0  0  0  0  0  0
    7.5940    5.5720   19.9860 C   0  0  0  0  0  0  0  0  0  0  0  0
    8.5950    5.9750   19.7960 H   0  0  0  0  0  0  0  0  0  0  0  0
    7.6970    4.7810   20.7380 H   0  0  0  0  0  0  0  0  0  0  0  0
    7.0010    6.3770   20.4310 H   0  0  0  0  0  0  0  0  0  0  0  0
    7.3140    6.2340   17.3100 S   0  0  0  0  0  0  0  0  0  0  0  0
    6.6830    5.3670   15.9580 C   0  0  0  0  0  0  0  0  0  0  0  0
    7.1870    4.2880   15.4050 N   0  0  0  0  0  0  0  0  0  0  0  0
    6.3630    3.9250   14.3630 N   0  0  0  0  0  0  0  0  0  0  0  0
    5.3790    4.7950   14.3170 C   0  0  0  0  0  0  0  0  0  0  0  0
    5.5390    5.7210   15.3040 N   0  0  0  0  0  0  0  0  0  0  0  0
    4.5600    4.7930   13.6100 H   0  0  0  0  0  0  0  0  0  0  0  0
    4.6640    6.8300   15.5720 C   0  0  0  0  0  0  0  0  0  0  0  0
    4.0680    7.0320   14.6790 H   0  0  0  0  0  0  0  0  0  0  0  0
    5.2690    7.7000   15.8410 H   0  0  0  0  0  0  0  0  0  0  0  0
    4.0000    6.5790   16.4030 H   0  0  0  0  0  0  0  0  0  0  0  0
  1  6  1  0  0  0  0
  2  3  1  0  0  0  0
  2  1  2  0  0  0  0
  3  4  2  0  0  0  0
  4  5  1  0  0  0  0
  5 10  1  0  0  0  0
  6  5  2  0  0  0  0
  6  9  1  0  0  0  0
  7  2  1  0  0  0  0
  8  3  1  0  0  0  0
 10 13  1  0  0  0  0
 11 10  1  0  0  0  0
 11 14  1  0  0  0  0
 12 11  2  0  0  0  0
 14 15  2  0  0  0  0
 15 20  1  0  0  0  0
 15 16  1  0  0  0  0
 16 21  1  0  0  0  0
 17 16  2  0  0  0  0
 17 22  1  0  0  0  0
 18 17  1  0  0  0  0
 19 14  1  0  0  0  0
 19 18  2  0  0  0  0
 22 23  2  0  0  0  0
 24 22  2  0  0  0  0
 25 18  1  0  0  0  0
 26 25  1  0  0  0  0
 27 26  1  0  0  0  0
 28 26  1  0  0  0  0
 29 26  1  0  0  0  0
 30 31  1  6  0  0  0
 30  1  1  0  0  0  0
 30 32  1  0  0  0  0
 32 35  1  0  0  0  0
 32 34  1  0  0  0  0
 33 32  1  0  0  0  0
 36 30  1  0  0  0  0
 37 36  1  0  0  0  0
 38 37  2  0  0  0  0
 39 38  1  0  0  0  0
 40 39  2  0  0  0  0
 40 41  1  0  0  0  0
 41 43  1  0  0  0  0
 41 37  1  0  0  0  0
 42 40  1  0  0  0  0
 43 45  1  0  0  0  0
 43 46  1  0  0  0  0
 44 43  1  0  0  0  0
M  END
>  <MODEL>
6

>  <REMARK>
 VINA RESULT:    -6.958      3.745      8.812
 INTER + INTRA:         -10.643
 INTER:                  -9.694
 INTRA:                  -0.949
 UNBOUND:                -0.227
  Name = 
  10 active torsions:
  status: ('A' for Active; 'I' for Inactive)
    1  A    between atoms: C_1  and  C_2
    2  A    between atoms: C_2  and  C_3
    3  A    between atoms: C_2  and  S_23
    4  A    between atoms: C_7  and  N_9
    5  A    between atoms: C_10  and  C_11
    6  A    between atoms: C_14  and  N_19
    7  A    between atoms: C_15  and  O_17
    8  A    between atoms: O_17  and  C_18
    9  A    between atoms: S_23  and  C_24
   10  A    between atoms: N_28  and  C_29
                            x       y       z     vdW  Elec       q    Type
                         _______ _______ _______ _____ _____    ______ ____

>  <TORSDO>
F 10

$$$$
=
 OpenBabel07192307433D

 46 48  0  0  1  0  0  0  0  0999 V2000
   -0.3780   10.4500   20.7550 C   0  0  0  0  0  0  0  0  0  0  0  0
   -0.3490   10.2420   22.1370 C   0  0  0  0  0  0  0  0  0  0  0  0
    0.4930    9.2640   22.6400 C   0  0  0  0  0  0  0  0  0  0  0  0
    1.2900    8.4910   21.8750 N   0  0  0  0  0  0  0  0  0  0  0  0
    1.2570    8.6770   20.5480 C   0  0  0  0  0  0  0  0  0  0  0  0
    0.4410    9.6380   19.9560 C   0  0  0  0  0  0  0  0  0  0  0  0
   -0.9690   10.8140   22.8180 H   0  0  0  0  0  0  0  0  0  0  0  0
    0.5490    9.0680   23.7070 H   0  0  0  0  0  0  0  0  0  0  0  0
    0.4350    9.7600   18.8760 H   0  0  0  0  0  0  0  0  0  0  0  0
    2.0520    7.9040   19.6970 N   0  0  0  0  0  0  0  0  0  0  0  0
    2.2170    6.5370   19.7530 C   0  0  0  0  0  0  0  0  0  0  0  0
    1.7170    5.7390   20.5340 O   0  0  0  0  0  0  0  0  0  0  0  0
    2.5660    8.3740   18.9630 H   0  0  0  0  0  0  0  0  0  0  0  0
    3.1410    6.0290   18.6850 C   0  0  0  0  0  0  0  0  0  0  0  0
    3.8200    6.9280   17.8650 C   0  0  0  0  0  0  0  0  0  0  0  0
    4.6690    6.4190   16.8880 C   0  0  0  0  0  0  0  0  0  0  0  0
    4.8010    5.0320   16.7820 C   0  0  0  0  0  0  0  0  0  0  0  0
    4.0890    4.1930   17.6280 C   0  0  0  0  0  0  0  0  0  0  0  0
    3.2550    4.6680   18.5850 N   0  0  0  0  0  0  0  0  0  0  0  0
    3.6860    8.0000   17.9880 H   0  0  0  0  0  0  0  0  0  0  0  0
    5.2130    7.0900   16.2270 H   0  0  0  0  0  0  0  0  0  0  0  0
    5.6820    4.4810   15.7860 N   0  0  0  0  0  0  0  0  0  0  0  0
    6.8330    4.2040   16.1510 O   0  0  0  0  0  0  0  0  0  0  0  0
    5.2130    4.2740   14.6590 O   0  0  0  0  0  0  0  0  0  0  0  0
    4.1930    2.8300   17.4580 O   0  0  0  0  0  0  0  0  0  0  0  0
    3.0580    2.0960   17.9050 C   0  0  0  0  0  0  0  0  0  0  0  0
    3.2610    1.5990   18.8600 H   0  0  0  0  0  0  0  0  0  0  0  0
    2.7280    1.3750   17.1500 H   0  0  0  0  0  0  0  0  0  0  0  0
    2.2420    2.8080   18.0660 H   0  0  0  0  0  0  0  0  0  0  0  0
   -1.2770   11.4870   20.1020 C   0  0  2  0  0  0  0  0  0  0  0  0
   -2.3160   11.1920   20.2950 H   0  0  0  0  0  0  0  0  0  0  0  0
   -1.0910   11.5610   18.5830 C   0  0  0  0  0  0  0  0  0  0  0  0
   -0.0290   11.6640   18.3330 H   0  0  0  0  0  0  0  0  0  0  0  0
   -1.6160   12.4130   18.1360 H   0  0  0  0  0  0  0  0  0  0  0  0
   -1.4530   10.6540   18.0910 H   0  0  0  0  0  0  0  0  0  0  0  0
   -0.9820   13.1300   20.8650 S   0  0  0  0  0  0  0  0  0  0  0  0
    0.6000   13.4980   20.2790 C   0  0  0  0  0  0  0  0  0  0  0  0
    1.7310   12.9480   20.6570 N   0  0  0  0  0  0  0  0  0  0  0  0
    2.7440   13.5310   19.9290 N   0  0  0  0  0  0  0  0  0  0  0  0
    2.1970   14.4170   19.1280 C   0  0  0  0  0  0  0  0  0  0  0  0
    0.8470   14.4290   19.3130 N   0  0  0  0  0  0  0  0  0  0  0  0
    2.7220   15.0480   18.4230 H   0  0  0  0  0  0  0  0  0  0  0  0
   -0.0930   15.2650   18.6170 C   0  0  0  0  0  0  0  0  0  0  0  0
    0.1960   15.3190   17.5650 H   0  0  0  0  0  0  0  0  0  0  0  0
   -0.0870   16.2590   19.0740 H   0  0  0  0  0  0  0  0  0  0  0  0
   -1.0950   14.8350   18.6970 H   0  0  0  0  0  0  0  0  0  0  0  0
  1  2  1  0  0  0  0
  2  3  2  0  0  0  0
  2  7  1  0  0  0  0
  3  8  1  0  0  0  0
  4  3  1  0  0  0  0
  5  4  2  0  0  0  0
  6  5  1  0  0  0  0
  6  1  2  0  0  0  0
  9  6  1  0  0  0  0
 10 11  1  0  0  0  0
 10  5  1  0  0  0  0
 11 12  2  0  0  0  0
 13 10  1  0  0  0  0
 14 11  1  0  0  0  0
 15 20  1  0  0  0  0
 15 14  2  0  0  0  0
 16 15  1  0  0  0  0
 17 16  2  0  0  0  0
 17 18  1  0  0  0  0
 18 19  2  0  0  0  0
 19 14  1  0  0  0  0
 21 16  1  0  0  0  0
 22 23  2  0  0  0  0
 22 17  1  0  0  0  0
 24 22  2  0  0  0  0
 25 18  1  0  0  0  0
 25 26  1  0  0  0  0
 26 29  1  0  0  0  0
 26 27  1  0  0  0  0
 28 26  1  0  0  0  0
 30 31  1  1  0  0  0
 30  1  1  0  0  0  0
 30 36  1  0  0  0  0
 32 30  1  0  0  0  0
 33 32  1  0  0  0  0
 34 32  1  0  0  0  0
 35 32  1  0  0  0  0
 37 38  2  0  0  0  0
 37 36  1  0  0  0  0
 39 38  1  0  0  0  0
 40 41  1  0  0  0  0
 40 39  2  0  0  0  0
 41 37  1  0  0  0  0
 42 40  1  0  0  0  0
 43 46  1  0  0  0  0
 43 45  1  0  0  0  0
 43 41  1  0  0  0  0
 44 43  1  0  0  0  0
M  END
>  <MODEL>
7

>  <REMARK>
 VINA RESULT:    -6.940      2.772      3.871
 INTER + INTRA:         -10.615
 INTER:                  -9.854
 INTRA:                  -0.760
 UNBOUND:                -0.227
  Name = 
  10 active torsions:
  status: ('A' for Active; 'I' for Inactive)
    1  A    between atoms: C_1  and  C_2
    2  A    between atoms: C_2  and  C_3
    3  A    between atoms: C_2  and  S_23
    4  A    between atoms: C_7  and  N_9
    5  A    between atoms: C_10  and  C_11
    6  A    between atoms: C_14  and  N_19
    7  A    between atoms: C_15  and  O_17
    8  A    between atoms: O_17  and  C_18
    9  A    between atoms: S_23  and  C_24
   10  A    between atoms: N_28  and  C_29
                            x       y       z     vdW  Elec       q    Type
                         _______ _______ _______ _____ _____    ______ ____

>  <TORSDO>
F 10

$$$$
=
 OpenBabel07192307433D

 46 48  0  0  1  0  0  0  0  0999 V2000
    5.0200    4.4530   17.2080 C   0  0  0  0  0  0  0  0  0  0  0  0
    4.2250    3.3040   17.1760 C   0  0  0  0  0  0  0  0  0  0  0  0
    2.8870    3.4180   17.5140 C   0  0  0  0  0  0  0  0  0  0  0  0
    2.2980    4.5740   17.8790 N   0  0  0  0  0  0  0  0  0  0  0  0
    3.0580    5.6780   17.9240 C   0  0  0  0  0  0  0  0  0  0  0  0
    4.4130    5.6560   17.6000 C   0  0  0  0  0  0  0  0  0  0  0  0
    4.6270    2.3340   16.9060 H   0  0  0  0  0  0  0  0  0  0  0  0
    2.2310    2.5520   17.5020 H   0  0  0  0  0  0  0  0  0  0  0  0
    5.0020    6.5670   17.6520 H   0  0  0  0  0  0  0  0  0  0  0  0
    2.5130    6.9080   18.3020 N   0  0  0  0  0  0  0  0  0  0  0  0
    2.0520    7.2460   19.5560 C   0  0  0  0  0  0  0  0  0  0  0  0
    2.0250    6.5600   20.5690 O   0  0  0  0  0  0  0  0  0  0  0  0
    2.4390    7.6340   17.6020 H   0  0  0  0  0  0  0  0  0  0  0  0
    1.5320    8.6520   19.6140 C   0  0  0  0  0  0  0  0  0  0  0  0
    1.6240    9.4750   18.4950 C   0  0  0  0  0  0  0  0  0  0  0  0
    1.1300   10.7730   18.5870 C   0  0  0  0  0  0  0  0  0  0  0  0
    0.5610   11.1810   19.7960 C   0  0  0  0  0  0  0  0  0  0  0  0
    0.5080   10.3100   20.8750 C   0  0  0  0  0  0  0  0  0  0  0  0
    0.9860    9.0420   20.8070 N   0  0  0  0  0  0  0  0  0  0  0  0
    2.0730    9.1120   17.5740 H   0  0  0  0  0  0  0  0  0  0  0  0
    1.1870   11.4460   17.7340 H   0  0  0  0  0  0  0  0  0  0  0  0
    0.0320   12.5150   19.9130 N   0  0  0  0  0  0  0  0  0  0  0  0
    0.8290   13.4020   20.2460 O   0  0  0  0  0  0  0  0  0  0  0  0
   -1.1580   12.6860   19.6190 O   0  0  0  0  0  0  0  0  0  0  0  0
   -0.0020   10.7610   22.0730 O   0  0  0  0  0  0  0  0  0  0  0  0
   -0.1840    9.7430   23.0510 C   0  0  0  0  0  0  0  0  0  0  0  0
   -1.1630    9.2620   22.9430 H   0  0  0  0  0  0  0  0  0  0  0  0
   -0.0510   10.1380   24.0640 H   0  0  0  0  0  0  0  0  0  0  0  0
    0.5830    8.9800   22.8870 H   0  0  0  0  0  0  0  0  0  0  0  0
    6.5020    4.4330   16.8700 C   0  0  2  0  0  0  0  0  0  0  0  0
    6.7390    3.4360   16.4800 H   0  0  0  0  0  0  0  0  0  0  0  0
    7.3930    4.6770   18.0920 C   0  0  0  0  0  0  0  0  0  0  0  0
    6.7800    4.8400   18.9860 H   0  0  0  0  0  0  0  0  0  0  0  0
    8.0390    5.5540   17.9740 H   0  0  0  0  0  0  0  0  0  0  0  0
    8.0370    3.8160   18.2950 H   0  0  0  0  0  0  0  0  0  0  0  0
    6.8550    5.6730   15.5630 S   0  0  0  0  0  0  0  0  0  0  0  0
    6.7000    4.7160   14.1350 C   0  0  0  0  0  0  0  0  0  0  0  0
    5.8460    3.7410   13.9250 N   0  0  0  0  0  0  0  0  0  0  0  0
    6.0630    3.2590   12.6540 N   0  0  0  0  0  0  0  0  0  0  0  0
    7.0440    3.9580   12.1280 C   0  0  0  0  0  0  0  0  0  0  0  0
    7.4750    4.8890   13.0260 N   0  0  0  0  0  0  0  0  0  0  0  0
    7.4580    3.8280   11.1380 H   0  0  0  0  0  0  0  0  0  0  0  0
    8.5320    5.8400   12.8130 C   0  0  0  0  0  0  0  0  0  0  0  0
    8.2150    6.5530   12.0490 H   0  0  0  0  0  0  0  0  0  0  0  0
    9.4310    5.3040   12.4970 H   0  0  0  0  0  0  0  0  0  0  0  0
    8.7360    6.3730   13.7460 H   0  0  0  0  0  0  0  0  0  0  0  0
  1  6  1  0  0  0  0
  2  1  2  0  0  0  0
  2  3  1  0  0  0  0
  3  4  2  0  0  0  0
  4  5  1  0  0  0  0
  5 10  1  0  0  0  0
  6  9  1  0  0  0  0
  6  5  2  0  0  0  0
  7  2  1  0  0  0  0
  8  3  1  0  0  0  0
 10 11  1  0  0  0  0
 11 14  1  0  0  0  0
 11 12  2  0  0  0  0
 13 10  1  0  0  0  0
 14 19  1  0  0  0  0
 15 16  1  0  0  0  0
 15 14  2  0  0  0  0
 16 17  2  0  0  0  0
 17 22  1  0  0  0  0
 17 18  1  0  0  0  0
 18 25  1  0  0  0  0
 19 18  2  0  0  0  0
 20 15  1  0  0  0  0
 21 16  1  0  0  0  0
 22 23  2  0  0  0  0
 24 22  2  0  0  0  0
 25 26  1  0  0  0  0
 26 28  1  0  0  0  0
 27 26  1  0  0  0  0
 29 26  1  0  0  0  0
 30 31  1  6  0  0  0
 30  1  1  0  0  0  0
 30 32  1  0  0  0  0
 32 35  1  0  0  0  0
 32 33  1  0  0  0  0
 34 32  1  0  0  0  0
 36 30  1  0  0  0  0
 37 36  1  0  0  0  0
 38 37  2  0  0  0  0
 39 38  1  0  0  0  0
 40 39  2  0  0  0  0
 40 41  1  0  0  0  0
 41 37  1  0  0  0  0
 42 40  1  0  0  0  0
 43 41  1  0  0  0  0
 43 46  1  0  0  0  0
 44 43  1  0  0  0  0
 45 43  1  0  0  0  0
M  END
>  <MODEL>
8

>  <REMARK>
 VINA RESULT:    -6.908      4.156      9.489
 INTER + INTRA:         -10.568
 INTER:                  -9.757
 INTRA:                  -0.811
 UNBOUND:                -0.227
  Name = 
  10 active torsions:
  status: ('A' for Active; 'I' for Inactive)
    1  A    between atoms: C_1  and  C_2
    2  A    between atoms: C_2  and  C_3
    3  A    between atoms: C_2  and  S_23
    4  A    between atoms: C_7  and  N_9
    5  A    between atoms: C_10  and  C_11
    6  A    between atoms: C_14  and  N_19
    7  A    between atoms: C_15  and  O_17
    8  A    between atoms: O_17  and  C_18
    9  A    between atoms: S_23  and  C_24
   10  A    between atoms: N_28  and  C_29
                            x       y       z     vdW  Elec       q    Type
                         _______ _______ _______ _____ _____    ______ ____

>  <TORSDO>
F 10

$$$$
=
 OpenBabel07192307433D

 46 48  0  0  1  0  0  0  0  0999 V2000
    3.5060    5.0910   19.0740 C   0  0  0  0  0  0  0  0  0  0  0  0
    3.2520    3.8530   19.6710 C   0  0  0  0  0  0  0  0  0  0  0  0
    2.3240    3.7940   20.6970 C   0  0  0  0  0  0  0  0  0  0  0  0
    1.6470    4.8630   21.1640 N   0  0  0  0  0  0  0  0  0  0  0  0
    1.8960    6.0550   20.6030 C   0  0  0  0  0  0  0  0  0  0  0  0
    2.8130    6.2070   19.5660 C   0  0  0  0  0  0  0  0  0  0  0  0
    3.7640    2.9500   19.3630 H   0  0  0  0  0  0  0  0  0  0  0  0
    2.0940    2.8530   21.1910 H   0  0  0  0  0  0  0  0  0  0  0  0
    2.9940    7.1890   19.1360 H   0  0  0  0  0  0  0  0  0  0  0  0
    1.2350    7.2050   21.0440 N   0  0  0  0  0  0  0  0  0  0  0  0
    1.1530    8.4060   20.3760 C   0  0  0  0  0  0  0  0  0  0  0  0
    1.6280    8.7090   19.2890 O   0  0  0  0  0  0  0  0  0  0  0  0
    0.7640    7.1730   21.9400 H   0  0  0  0  0  0  0  0  0  0  0  0
    0.3630    9.4310   21.1360 C   0  0  0  0  0  0  0  0  0  0  0  0
    0.1150    9.2520   22.4940 C   0  0  0  0  0  0  0  0  0  0  0  0
   -0.6200   10.2250   23.1650 C   0  0  0  0  0  0  0  0  0  0  0  0
   -1.0670   11.3330   22.4420 C   0  0  0  0  0  0  0  0  0  0  0  0
   -0.7900   11.4440   21.0870 C   0  0  0  0  0  0  0  0  0  0  0  0
   -0.0780   10.5070   20.4140 N   0  0  0  0  0  0  0  0  0  0  0  0
    0.4870    8.3730   23.0150 H   0  0  0  0  0  0  0  0  0  0  0  0
   -0.8350   10.1180   24.2260 H   0  0  0  0  0  0  0  0  0  0  0  0
   -1.8200   12.3590   23.1160 N   0  0  0  0  0  0  0  0  0  0  0  0
   -3.0210   12.1300   23.3120 O   0  0  0  0  0  0  0  0  0  0  0  0
   -1.2040   13.3620   23.4990 O   0  0  0  0  0  0  0  0  0  0  0  0
   -1.2970   12.5180   20.3880 O   0  0  0  0  0  0  0  0  0  0  0  0
   -2.2470   12.1680   19.3860 C   0  0  0  0  0  0  0  0  0  0  0  0
   -2.4730   13.0250   18.7410 H   0  0  0  0  0  0  0  0  0  0  0  0
   -3.1600   11.7590   19.8300 H   0  0  0  0  0  0  0  0  0  0  0  0
   -1.8010   11.3890   18.7610 H   0  0  0  0  0  0  0  0  0  0  0  0
    4.5160    5.2670   17.9520 C   0  0  2  0  0  0  0  0  0  0  0  0
    5.5090    5.3500   18.4100 H   0  0  0  0  0  0  0  0  0  0  0  0
    4.2760    6.5380   17.1310 C   0  0  0  0  0  0  0  0  0  0  0  0
    4.1220    6.2880   16.0750 H   0  0  0  0  0  0  0  0  0  0  0  0
    5.1190    7.2370   17.1820 H   0  0  0  0  0  0  0  0  0  0  0  0
    3.3830    7.0700   17.4710 H   0  0  0  0  0  0  0  0  0  0  0  0
    4.4940    3.7880   16.8630 S   0  0  0  0  0  0  0  0  0  0  0  0
    5.6640    4.2250   15.6720 C   0  0  0  0  0  0  0  0  0  0  0  0
    5.4690    4.3490   14.3790 N   0  0  0  0  0  0  0  0  0  0  0  0
    6.6650    4.7200   13.8070 N   0  0  0  0  0  0  0  0  0  0  0  0
    7.5520    4.8130   14.7720 C   0  0  0  0  0  0  0  0  0  0  0  0
    6.9660    4.5120   15.9640 N   0  0  0  0  0  0  0  0  0  0  0  0
    8.5920    5.0860   14.6560 H   0  0  0  0  0  0  0  0  0  0  0  0
    7.6150    4.5070   17.2470 C   0  0  0  0  0  0  0  0  0  0  0  0
    8.2410    5.3980   17.3290 H   0  0  0  0  0  0  0  0  0  0  0  0
    8.2180    3.5980   17.3340 H   0  0  0  0  0  0  0  0  0  0  0  0
    6.8610    4.5180   18.0390 H   0  0  0  0  0  0  0  0  0  0  0  0
  1  6  2  0  0  0  0
  1  2  1  0  0  0  0
  2  3  2  0  0  0  0
  3  4  1  0  0  0  0
  3  8  1  0  0  0  0
  5 10  1  0  0  0  0
  5  4  2  0  0  0  0
  6  5  1  0  0  0  0
  7  2  1  0  0  0  0
  9  6  1  0  0  0  0
 10 13  1  0  0  0  0
 11 10  1  0  0  0  0
 11 14  1  0  0  0  0
 12 11  2  0  0  0  0
 14 15  2  0  0  0  0
 15 20  1  0  0  0  0
 15 16  1  0  0  0  0
 16 21  1  0  0  0  0
 17 22  1  0  0  0  0
 17 16  2  0  0  0  0
 18 17  1  0  0  0  0
 19 18  2  0  0  0  0
 19 14  1  0  0  0  0
 22 23  2  0  0  0  0
 22 24  2  0  0  0  0
 25 18  1  0  0  0  0
 26 28  1  0  0  0  0
 26 25  1  0  0  0  0
 27 26  1  0  0  0  0
 29 26  1  0  0  0  0
 30 31  1  1  0  0  0
 30  1  1  0  0  0  0
 32 34  1  0  0  0  0
 32 35  1  0  0  0  0
 32 30  1  0  0  0  0
 33 32  1  0  0  0  0
 36 30  1  0  0  0  0
 37 41  1  0  0  0  0
 37 36  1  0  0  0  0
 38 37  2  0  0  0  0
 39 38  1  0  0  0  0
 39 40  2  0  0  0  0
 40 41  1  0  0  0  0
 41 43  1  0  0  0  0
 42 40  1  0  0  0  0
 43 44  1  0  0  0  0
 43 45  1  0  0  0  0
 43 46  1  0  0  0  0
M  END
>  <MODEL>
9

>  <REMARK>
 VINA RESULT:    -6.906      3.856      9.180
 INTER + INTRA:         -10.564
 INTER:                 -10.485
 INTRA:                  -0.080
 UNBOUND:                -0.227
  Name = 
  10 active torsions:
  status: ('A' for Active; 'I' for Inactive)
    1  A    between atoms: C_1  and  C_2
    2  A    between atoms: C_2  and  C_3
    3  A    between atoms: C_2  and  S_23
    4  A    between atoms: C_7  and  N_9
    5  A    between atoms: C_10  and  C_11
    6  A    between atoms: C_14  and  N_19
    7  A    between atoms: C_15  and  O_17
    8  A    between atoms: O_17  and  C_18
    9  A    between atoms: S_23  and  C_24
   10  A    between atoms: N_28  and  C_29
                            x       y       z     vdW  Elec       q    Type
                         _______ _______ _______ _____ _____    ______ ____

>  <TORSDO>
F 10

$$$$
=
 OpenBabel07192307433D

 46 48  0  0  1  0  0  0  0  0999 V2000
    0.3710   11.9020   18.8110 C   0  0  0  0  0  0  0  0  0  0  0  0
   -0.9670   11.6180   18.5220 C   0  0  0  0  0  0  0  0  0  0  0  0
   -1.2830   10.3670   18.0210 C   0  0  0  0  0  0  0  0  0  0  0  0
   -0.3750    9.3970   17.7890 N   0  0  0  0  0  0  0  0  0  0  0  0
    0.9110    9.6670   18.0530 C   0  0  0  0  0  0  0  0  0  0  0  0
    1.3190   10.9000   18.5590 C   0  0  0  0  0  0  0  0  0  0  0  0
   -1.7540   12.3490   18.6670 H   0  0  0  0  0  0  0  0  0  0  0  0
   -2.3090   10.1010   17.7820 H   0  0  0  0  0  0  0  0  0  0  0  0
    2.3710   11.0880   18.7570 H   0  0  0  0  0  0  0  0  0  0  0  0
    1.9040    8.7100   17.8280 N   0  0  0  0  0  0  0  0  0  0  0  0
    2.3540    7.7720   18.7320 C   0  0  0  0  0  0  0  0  0  0  0  0
    1.9890    7.5890   19.8860 O   0  0  0  0  0  0  0  0  0  0  0  0
    2.3490    8.6850   16.9200 H   0  0  0  0  0  0  0  0  0  0  0  0
    3.4290    6.8970   18.1600 C   0  0  0  0  0  0  0  0  0  0  0  0
    4.1450    7.3130   17.0400 C   0  0  0  0  0  0  0  0  0  0  0  0
    5.1350    6.4730   16.5400 C   0  0  0  0  0  0  0  0  0  0  0  0
    5.3650    5.2580   17.1900 C   0  0  0  0  0  0  0  0  0  0  0  0
    4.6090    4.9020   18.2970 C   0  0  0  0  0  0  0  0  0  0  0  0
    3.6370    5.7040   18.8000 N   0  0  0  0  0  0  0  0  0  0  0  0
    3.9320    8.2690   16.5700 H   0  0  0  0  0  0  0  0  0  0  0  0
    5.7130    6.7640   15.6650 H   0  0  0  0  0  0  0  0  0  0  0  0
    6.3920    4.3770   16.6970 N   0  0  0  0  0  0  0  0  0  0  0  0
    6.0800    3.6250   15.7640 O   0  0  0  0  0  0  0  0  0  0  0  0
    7.5180    4.4750   17.2010 O   0  0  0  0  0  0  0  0  0  0  0  0
    4.8160    3.6700   18.8790 O   0  0  0  0  0  0  0  0  0  0  0  0
    3.7740    2.7290   18.6440 C   0  0  0  0  0  0  0  0  0  0  0  0
    2.9190    2.9150   19.3040 H   0  0  0  0  0  0  0  0  0  0  0  0
    4.1350    1.7010   18.7510 H   0  0  0  0  0  0  0  0  0  0  0  0
    3.4330    2.8580   17.6130 H   0  0  0  0  0  0  0  0  0  0  0  0
    0.8240   13.2490   19.3490 C   0  0  2  0  0  0  0  0  0  0  0  0
   -0.0410   13.9230   19.3240 H   0  0  0  0  0  0  0  0  0  0  0  0
    1.9320   13.8840   18.5020 C   0  0  0  0  0  0  0  0  0  0  0  0
    2.8860   13.3750   18.6780 H   0  0  0  0  0  0  0  0  0  0  0  0
    2.0800   14.9450   18.7320 H   0  0  0  0  0  0  0  0  0  0  0  0
    1.7130   13.8030   17.4330 H   0  0  0  0  0  0  0  0  0  0  0  0
    1.3750   13.0660   21.0910 S   0  0  0  0  0  0  0  0  0  0  0  0
   -0.1330   12.8550   21.9040 C   0  0  0  0  0  0  0  0  0  0  0  0
   -0.9880   13.7930   22.2410 N   0  0  0  0  0  0  0  0  0  0  0  0
   -2.0560   13.1850   22.8610 N   0  0  0  0  0  0  0  0  0  0  0  0
   -1.8200   11.8930   22.8790 C   0  0  0  0  0  0  0  0  0  0  0  0
   -0.6200   11.6390   22.2850 N   0  0  0  0  0  0  0  0  0  0  0  0
   -2.4660   11.1320   23.2960 H   0  0  0  0  0  0  0  0  0  0  0  0
   -0.0200   10.3430   22.1130 C   0  0  0  0  0  0  0  0  0  0  0  0
    0.9960   10.4730   21.7320 H   0  0  0  0  0  0  0  0  0  0  0  0
   -0.6270    9.7630   21.4120 H   0  0  0  0  0  0  0  0  0  0  0  0
    0.0160    9.8260   23.0750 H   0  0  0  0  0  0  0  0  0  0  0  0
  1 30  1  0  0  0  0
  2  7  1  0  0  0  0
  2  1  2  0  0  0  0
  3  2  1  0  0  0  0
  4  3  2  0  0  0  0
  4  5  1  0  0  0  0
  5  6  2  0  0  0  0
  6  9  1  0  0  0  0
  6  1  1  0  0  0  0
  8  3  1  0  0  0  0
 10  5  1  0  0  0  0
 10 11  1  0  0  0  0
 11 12  2  0  0  0  0
 13 10  1  0  0  0  0
 14 11  1  0  0  0  0
 14 19  1  0  0  0  0
 15 14  2  0  0  0  0
 16 15  1  0  0  0  0
 16 17  2  0  0  0  0
 17 18  1  0  0  0  0
 18 19  2  0  0  0  0
 18 25  1  0  0  0  0
 20 15  1  0  0  0  0
 21 16  1  0  0  0  0
 22 17  1  0  0  0  0
 22 24  2  0  0  0  0
 23 22  2  0  0  0  0
 26 28  1  0  0  0  0
 26 25  1  0  0  0  0
 26 27  1  0  0  0  0
 29 26  1  0  0  0  0
 30 31  1  6  0  0  0
 30 36  1  0  0  0  0
 32 33  1  0  0  0  0
 32 34  1  0  0  0  0
 32 30  1  0  0  0  0
 35 32  1  0  0  0  0
 36 37  1  0  0  0  0
 37 38  2  0  0  0  0
 37 41  1  0  0  0  0
 38 39  1  0  0  0  0
 39 40  2  0  0  0  0
 40 42  1  0  0  0  0
 41 40  1  0  0  0  0
 43 41  1  0  0  0  0
 43 46  1  0  0  0  0
 44 43  1  0  0  0  0
 45 43  1  0  0  0  0
M  END
>  <MODEL>
10

>  <REMARK>
 VINA RESULT:    -6.858      2.448      4.394
 INTER + INTRA:         -10.492
 INTER:                  -9.332
 INTRA:                  -1.161
 UNBOUND:                -0.227
  Name = 
  10 active torsions:
  status: ('A' for Active; 'I' for Inactive)
    1  A    between atoms: C_1  and  C_2
    2  A    between atoms: C_2  and  C_3
    3  A    between atoms: C_2  and  S_23
    4  A    between atoms: C_7  and  N_9
    5  A    between atoms: C_10  and  C_11
    6  A    between atoms: C_14  and  N_19
    7  A    between atoms: C_15  and  O_17
    8  A    between atoms: O_17  and  C_18
    9  A    between atoms: S_23  and  C_24
   10  A    between atoms: N_28  and  C_29
                            x       y       z     vdW  Elec       q    Type
                         _______ _______ _______ _____ _____    ______ ____

>  <TORSDO>
F 10

$$$$
=
 OpenBabel07192307433D

 46 48  0  0  1  0  0  0  0  0999 V2000
   -0.6640   11.3860   19.2210 C   0  0  0  0  0  0  0  0  0  0  0  0
    0.2210   12.3850   18.8050 C   0  0  0  0  0  0  0  0  0  0  0  0
    1.5230   12.0280   18.4990 C   0  0  0  0  0  0  0  0  0  0  0  0
    1.9970   10.7680   18.5790 N   0  0  0  0  0  0  0  0  0  0  0  0
    1.1560    9.8070   18.9880 C   0  0  0  0  0  0  0  0  0  0  0  0
   -0.1700   10.0760   19.3170 C   0  0  0  0  0  0  0  0  0  0  0  0
   -0.0790   13.4240   18.7280 H   0  0  0  0  0  0  0  0  0  0  0  0
    2.2460   12.7700   18.1710 H   0  0  0  0  0  0  0  0  0  0  0  0
   -0.8250    9.2750   19.6500 H   0  0  0  0  0  0  0  0  0  0  0  0
    1.5850    8.4820   19.1010 N   0  0  0  0  0  0  0  0  0  0  0  0
    1.6950    7.7560   20.2660 C   0  0  0  0  0  0  0  0  0  0  0  0
    1.4480    8.1090   21.4110 O   0  0  0  0  0  0  0  0  0  0  0  0
    1.8450    7.9890   18.2560 H   0  0  0  0  0  0  0  0  0  0  0  0
    2.1850    6.3580   20.0250 C   0  0  0  0  0  0  0  0  0  0  0  0
    1.5430    5.2810   20.6300 C   0  0  0  0  0  0  0  0  0  0  0  0
    2.0260    4.0000   20.3820 C   0  0  0  0  0  0  0  0  0  0  0  0
    3.1270    3.8600   19.5340 C   0  0  0  0  0  0  0  0  0  0  0  0
    3.7240    4.9790   18.9700 C   0  0  0  0  0  0  0  0  0  0  0  0
    3.2710    6.2360   19.2010 N   0  0  0  0  0  0  0  0  0  0  0  0
    0.6870    5.4400   21.2820 H   0  0  0  0  0  0  0  0  0  0  0  0
    1.5520    3.1340   20.8390 H   0  0  0  0  0  0  0  0  0  0  0  0
    3.6390    2.5440   19.2520 N   0  0  0  0  0  0  0  0  0  0  0  0
    4.4910    2.0990   20.0340 O   0  0  0  0  0  0  0  0  0  0  0  0
    3.1530    1.9350   18.2900 O   0  0  0  0  0  0  0  0  0  0  0  0
    4.8460    4.8130   18.1880 O   0  0  0  0  0  0  0  0  0  0  0  0
    6.0660    5.1630   18.8330 C   0  0  0  0  0  0  0  0  0  0  0  0
    6.8990    5.1780   18.1200 H   0  0  0  0  0  0  0  0  0  0  0  0
    6.2790    4.4910   19.6700 H   0  0  0  0  0  0  0  0  0  0  0  0
    5.9540    6.1740   19.2360 H   0  0  0  0  0  0  0  0  0  0  0  0
   -2.1080   11.6760   19.5950 C   0  0  2  0  0  0  0  0  0  0  0  0
   -2.4160   10.9240   20.3320 H   0  0  0  0  0  0  0  0  0  0  0  0
   -3.0630   11.5730   18.4020 C   0  0  0  0  0  0  0  0  0  0  0  0
   -2.6160   10.9650   17.6060 H   0  0  0  0  0  0  0  0  0  0  0  0
   -3.3040   12.5510   17.9700 H   0  0  0  0  0  0  0  0  0  0  0  0
   -4.0050   11.0930   18.6840 H   0  0  0  0  0  0  0  0  0  0  0  0
   -2.2260   13.3370   20.3670 S   0  0  0  0  0  0  0  0  0  0  0  0
   -3.0960   12.9790   21.8140 C   0  0  0  0  0  0  0  0  0  0  0  0
   -4.3440   13.2860   22.0830 N   0  0  0  0  0  0  0  0  0  0  0  0
   -4.6340   12.8050   23.3400 N   0  0  0  0  0  0  0  0  0  0  0  0
   -3.5520   12.2160   23.7970 C   0  0  0  0  0  0  0  0  0  0  0  0
   -2.5580   12.3000   22.8680 N   0  0  0  0  0  0  0  0  0  0  0  0
   -3.4480   11.7330   24.7590 H   0  0  0  0  0  0  0  0  0  0  0  0
   -1.2280   11.7710   23.0040 C   0  0  0  0  0  0  0  0  0  0  0  0
   -1.1770   10.8110   22.4880 H   0  0  0  0  0  0  0  0  0  0  0  0
   -1.0020   11.6540   24.0680 H   0  0  0  0  0  0  0  0  0  0  0  0
   -0.5110   12.4650   22.5560 H   0  0  0  0  0  0  0  0  0  0  0  0
  1  6  1  0  0  0  0
  1 30  1  0  0  0  0
  2  1  2  0  0  0  0
  3  4  2  0  0  0  0
  3  2  1  0  0  0  0
  4  5  1  0  0  0  0
  5 10  1  0  0  0  0
  5  6  2  0  0  0  0
  6  9  1  0  0  0  0
  7  2  1  0  0  0  0
  8  3  1  0  0  0  0
 10 11  1  0  0  0  0
 11 12  2  0  0  0  0
 13 10  1  0  0  0  0
 14 11  1  0  0  0  0
 14 15  2  0  0  0  0
 15 20  1  0  0  0  0
 16 15  1  0  0  0  0
 16 21  1  0  0  0  0
 17 16  2  0  0  0  0
 18 19  2  0  0  0  0
 18 17  1  0  0  0  0
 19 14  1  0  0  0  0
 22 17  1  0  0  0  0
 22 23  2  0  0  0  0
 24 22  2  0  0  0  0
 25 26  1  0  0  0  0
 25 18  1  0  0  0  0
 26 29  1  0  0  0  0
 26 28  1  0  0  0  0
 27 26  1  0  0  0  0
 30 31  1  1  0  0  0
 30 36  1  0  0  0  0
 32 35  1  0  0  0  0
 32 30  1  0  0  0  0
 33 32  1  0  0  0  0
 34 32  1  0  0  0  0
 36 37  1  0  0  0  0
 37 38  2  0  0  0  0
 37 41  1  0  0  0  0
 38 39  1  0  0  0  0
 39 40  2  0  0  0  0
 40 42  1  0  0  0  0
 41 43  1  0  0  0  0
 41 40  1  0  0  0  0
 43 45  1  0  0  0  0
 44 43  1  0  0  0  0
 46 43  1  0  0  0  0
M  END
>  <MODEL>
11

>  <REMARK>
 VINA RESULT:    -6.857      2.385      3.701
 INTER + INTRA:         -10.491
 INTER:                  -9.707
 INTRA:                  -0.783
 UNBOUND:                -0.227
  Name = 
  10 active torsions:
  status: ('A' for Active; 'I' for Inactive)
    1  A    between atoms: C_1  and  C_2
    2  A    between atoms: C_2  and  C_3
    3  A    between atoms: C_2  and  S_23
    4  A    between atoms: C_7  and  N_9
    5  A    between atoms: C_10  and  C_11
    6  A    between atoms: C_14  and  N_19
    7  A    between atoms: C_15  and  O_17
    8  A    between atoms: O_17  and  C_18
    9  A    between atoms: S_23  and  C_24
   10  A    between atoms: N_28  and  C_29
                            x       y       z     vdW  Elec       q    Type
                         _______ _______ _______ _____ _____    ______ ____

>  <TORSDO>
F 10

$$$$
=
 OpenBabel07192307433D

 46 48  0  0  1  0  0  0  0  0999 V2000
    2.8960    4.0940   18.8930 C   0  0  0  0  0  0  0  0  0  0  0  0
    3.0150    3.0440   19.8070 C   0  0  0  0  0  0  0  0  0  0  0  0
    2.5420    3.2330   21.0950 C   0  0  0  0  0  0  0  0  0  0  0  0
    1.9740    4.3760   21.5290 N   0  0  0  0  0  0  0  0  0  0  0  0
    1.8680    5.3920   20.6600 C   0  0  0  0  0  0  0  0  0  0  0  0
    2.3170    5.2890   19.3450 C   0  0  0  0  0  0  0  0  0  0  0  0
    3.4720    2.0980   19.5410 H   0  0  0  0  0  0  0  0  0  0  0  0
    2.6120    2.4440   21.8400 H   0  0  0  0  0  0  0  0  0  0  0  0
    2.2210    6.1330   18.6670 H   0  0  0  0  0  0  0  0  0  0  0  0
    1.2960    6.6070   21.0460 N   0  0  0  0  0  0  0  0  0  0  0  0
    1.4960    7.8310   20.4450 C   0  0  0  0  0  0  0  0  0  0  0  0
    2.1940    8.1000   19.4770 O   0  0  0  0  0  0  0  0  0  0  0  0
    0.6720    6.6110   21.8430 H   0  0  0  0  0  0  0  0  0  0  0  0
    0.7240    8.9290   21.1150 C   0  0  0  0  0  0  0  0  0  0  0  0
    0.4610    8.8630   22.4810 C   0  0  0  0  0  0  0  0  0  0  0  0
   -0.2570    9.9010   23.0660 C   0  0  0  0  0  0  0  0  0  0  0  0
   -0.6710   10.9600   22.2550 C   0  0  0  0  0  0  0  0  0  0  0  0
   -0.3800   10.9590   20.8980 C   0  0  0  0  0  0  0  0  0  0  0  0
    0.3150    9.9560   20.3070 N   0  0  0  0  0  0  0  0  0  0  0  0
    0.8060    8.0180   23.0720 H   0  0  0  0  0  0  0  0  0  0  0  0
   -0.4840    9.8820   24.1300 H   0  0  0  0  0  0  0  0  0  0  0  0
   -1.4050   12.0520   22.8400 N   0  0  0  0  0  0  0  0  0  0  0  0
   -2.5990   11.8450   23.0980 O   0  0  0  0  0  0  0  0  0  0  0  0
   -0.7810   13.0910   23.0920 O   0  0  0  0  0  0  0  0  0  0  0  0
   -0.8560   11.9860   20.1130 O   0  0  0  0  0  0  0  0  0  0  0  0
   -1.8570   11.5940   19.1800 C   0  0  0  0  0  0  0  0  0  0  0  0
   -1.5170   11.7450   18.1490 H   0  0  0  0  0  0  0  0  0  0  0  0
   -2.7990   12.1230   19.3630 H   0  0  0  0  0  0  0  0  0  0  0  0
   -2.0420   10.5250   19.3170 H   0  0  0  0  0  0  0  0  0  0  0  0
    3.3970    3.9940   17.4620 C   0  0  2  0  0  0  0  0  0  0  0  0
    2.5210    3.8760   16.8130 H   0  0  0  0  0  0  0  0  0  0  0  0
    4.3080    2.7840   17.2350 C   0  0  0  0  0  0  0  0  0  0  0  0
    4.8350    2.5230   18.1600 H   0  0  0  0  0  0  0  0  0  0  0  0
    5.0680    2.9680   16.4670 H   0  0  0  0  0  0  0  0  0  0  0  0
    3.7350    1.9040   16.9300 H   0  0  0  0  0  0  0  0  0  0  0  0
    4.2640    5.5450   17.0000 S   0  0  0  0  0  0  0  0  0  0  0  0
    5.7670    5.3530   17.8290 C   0  0  0  0  0  0  0  0  0  0  0  0
    5.9860    5.5060   19.1140 N   0  0  0  0  0  0  0  0  0  0  0  0
    7.3180    5.2490   19.3470 N   0  0  0  0  0  0  0  0  0  0  0  0
    7.8690    4.9460   18.1930 C   0  0  0  0  0  0  0  0  0  0  0  0
    6.9290    4.9970   17.2080 N   0  0  0  0  0  0  0  0  0  0  0  0
    8.9080    4.6920   18.0300 H   0  0  0  0  0  0  0  0  0  0  0  0
    7.1500    4.7270   15.8140 C   0  0  0  0  0  0  0  0  0  0  0  0
    6.9880    3.6620   15.6320 H   0  0  0  0  0  0  0  0  0  0  0  0
    8.1730    5.0150   15.5560 H   0  0  0  0  0  0  0  0  0  0  0  0
    6.4470    5.3100   15.2120 H   0  0  0  0  0  0  0  0  0  0  0  0
  1  6  2  0  0  0  0
  1  2  1  0  0  0  0
  2  3  2  0  0  0  0
  3  4  1  0  0  0  0
  3  8  1  0  0  0  0
  5 10  1  0  0  0  0
  5  4  2  0  0  0  0
  6  5  1  0  0  0  0
  7  2  1  0  0  0  0
  9  6  1  0  0  0  0
 10 13  1  0  0  0  0
 11 10  1  0  0  0  0
 11 14  1  0  0  0  0
 12 11  2  0  0  0  0
 14 15  2  0  0  0  0
 15 16  1  0  0  0  0
 15 20  1  0  0  0  0
 16 21  1  0  0  0  0
 17 22  1  0  0  0  0
 17 16  2  0  0  0  0
 18 17  1  0  0  0  0
 19 18  2  0  0  0  0
 19 14  1  0  0  0  0
 22 24  2  0  0  0  0
 22 23  2  0  0  0  0
 25 18  1  0  0  0  0
 26 29  1  0  0  0  0
 26 28  1  0  0  0  0
 26 25  1  0  0  0  0
 27 26  1  0  0  0  0
 30 31  1  6  0  0  0
 30  1  1  0  0  0  0
 32 30  1  0  0  0  0
 32 33  1  0  0  0  0
 34 32  1  0  0  0  0
 35 32  1  0  0  0  0
 36 30  1  0  0  0  0
 36 37  1  0  0  0  0
 37 38  2  0  0  0  0
 38 39  1  0  0  0  0
 40 39  2  0  0  0  0
 41 37  1  0  0  0  0
 41 40  1  0  0  0  0
 42 40  1  0  0  0  0
 43 41  1  0  0  0  0
 44 43  1  0  0  0  0
 45 43  1  0  0  0  0
 46 43  1  0  0  0  0
M  END
>  <MODEL>
12

>  <REMARK>
 VINA RESULT:    -6.841      3.568      9.094
 INTER + INTRA:         -10.468
 INTER:                 -10.032
 INTRA:                  -0.435
 UNBOUND:                -0.227
  Name = 
  10 active torsions:
  status: ('A' for Active; 'I' for Inactive)
    1  A    between atoms: C_1  and  C_2
    2  A    between atoms: C_2  and  C_3
    3  A    between atoms: C_2  and  S_23
    4  A    between atoms: C_7  and  N_9
    5  A    between atoms: C_10  and  C_11
    6  A    between atoms: C_14  and  N_19
    7  A    between atoms: C_15  and  O_17
    8  A    between atoms: O_17  and  C_18
    9  A    between atoms: S_23  and  C_24
   10  A    between atoms: N_28  and  C_29
                            x       y       z     vdW  Elec       q    Type
                         _______ _______ _______ _____ _____    ______ ____

>  <TORSDO>
F 10

$$$$
=
 OpenBabel07192307433D

 46 48  0  0  1  0  0  0  0  0999 V2000
   -0.1540   11.0700   20.8210 C   0  0  0  0  0  0  0  0  0  0  0  0
   -0.6620   11.2460   22.1100 C   0  0  0  0  0  0  0  0  0  0  0  0
   -0.5280   10.2110   23.0200 C   0  0  0  0  0  0  0  0  0  0  0  0
    0.0630    9.0330   22.7380 N   0  0  0  0  0  0  0  0  0  0  0  0
    0.5430    8.8530   21.4990 C   0  0  0  0  0  0  0  0  0  0  0  0
    0.4510    9.8400   20.5200 C   0  0  0  0  0  0  0  0  0  0  0  0
   -1.1640   12.1590   22.4110 H   0  0  0  0  0  0  0  0  0  0  0  0
   -0.9070   10.3030   24.0340 H   0  0  0  0  0  0  0  0  0  0  0  0
    0.8450    9.6610   19.5240 H   0  0  0  0  0  0  0  0  0  0  0  0
    1.1600    7.6520   21.1380 N   0  0  0  0  0  0  0  0  0  0  0  0
    1.8840    7.4200   19.9890 C   0  0  0  0  0  0  0  0  0  0  0  0
    2.1300    8.1930   19.0730 O   0  0  0  0  0  0  0  0  0  0  0  0
    1.0800    6.8640   21.7670 H   0  0  0  0  0  0  0  0  0  0  0  0
    2.4120    6.0180   19.9190 C   0  0  0  0  0  0  0  0  0  0  0  0
    1.7180    4.9800   20.5370 C   0  0  0  0  0  0  0  0  0  0  0  0
    2.2380    3.6930   20.4490 C   0  0  0  0  0  0  0  0  0  0  0  0
    3.4270    3.5060   19.7410 C   0  0  0  0  0  0  0  0  0  0  0  0
    4.0720    4.5860   19.1560 C   0  0  0  0  0  0  0  0  0  0  0  0
    3.5830    5.8490   19.2310 N   0  0  0  0  0  0  0  0  0  0  0  0
    0.7930    5.1750   21.0750 H   0  0  0  0  0  0  0  0  0  0  0  0
    1.7240    2.8580   20.9220 H   0  0  0  0  0  0  0  0  0  0  0  0
    3.9800    2.1810   19.6270 N   0  0  0  0  0  0  0  0  0  0  0  0
    3.6560    1.5270   18.6260 O   0  0  0  0  0  0  0  0  0  0  0  0
    4.7760    1.8160   20.5010 O   0  0  0  0  0  0  0  0  0  0  0  0
    5.2750    4.3800   18.5170 O   0  0  0  0  0  0  0  0  0  0  0  0
    6.3330    5.2140   18.9770 C   0  0  0  0  0  0  0  0  0  0  0  0
    7.1960    5.1650   18.3030 H   0  0  0  0  0  0  0  0  0  0  0  0
    6.6210    4.9590   20.0030 H   0  0  0  0  0  0  0  0  0  0  0  0
    5.9690    6.2450   18.9790 H   0  0  0  0  0  0  0  0  0  0  0  0
   -0.2640   12.1380   19.7440 C   0  0  2  0  0  0  0  0  0  0  0  0
   -0.5200   13.0820   20.2400 H   0  0  0  0  0  0  0  0  0  0  0  0
   -1.3640   11.8380   18.7210 C   0  0  0  0  0  0  0  0  0  0  0  0
   -1.7030   10.8000   18.8170 H   0  0  0  0  0  0  0  0  0  0  0  0
   -1.0260   11.9780   17.6880 H   0  0  0  0  0  0  0  0  0  0  0  0
   -2.2370   12.4790   18.8750 H   0  0  0  0  0  0  0  0  0  0  0  0
    1.3560   12.3370   18.9030 S   0  0  0  0  0  0  0  0  0  0  0  0
    2.1010   13.5480   19.8810 C   0  0  0  0  0  0  0  0  0  0  0  0
    1.7770   13.8820   21.1090 N   0  0  0  0  0  0  0  0  0  0  0  0
    2.6320   14.8850   21.5110 N   0  0  0  0  0  0  0  0  0  0  0  0
    3.4520   15.1280   20.5130 C   0  0  0  0  0  0  0  0  0  0  0  0
    3.1550   14.3080   19.4660 N   0  0  0  0  0  0  0  0  0  0  0  0
    4.2460   15.8630   20.5060 H   0  0  0  0  0  0  0  0  0  0  0  0
    3.8330   14.2780   18.1990 C   0  0  0  0  0  0  0  0  0  0  0  0
    4.3140   13.3040   18.0800 H   0  0  0  0  0  0  0  0  0  0  0  0
    4.5740   15.0830   18.1750 H   0  0  0  0  0  0  0  0  0  0  0  0
    3.1100   14.4270   17.3930 H   0  0  0  0  0  0  0  0  0  0  0  0
  1  2  1  0  0  0  0
  2  7  1  0  0  0  0
  2  3  2  0  0  0  0
  3  8  1  0  0  0  0
  4  3  1  0  0  0  0
  5  4  2  0  0  0  0
  6  1  2  0  0  0  0
  6  5  1  0  0  0  0
  9  6  1  0  0  0  0
 10  5  1  0  0  0  0
 10 13  1  0  0  0  0
 11 10  1  0  0  0  0
 12 11  2  0  0  0  0
 14 11  1  0  0  0  0
 14 15  2  0  0  0  0
 15 20  1  0  0  0  0
 16 15  1  0  0  0  0
 16 21  1  0  0  0  0
 17 16  2  0  0  0  0
 18 19  2  0  0  0  0
 18 17  1  0  0  0  0
 19 14  1  0  0  0  0
 22 17  1  0  0  0  0
 22 24  2  0  0  0  0
 23 22  2  0  0  0  0
 25 26  1  0  0  0  0
 25 18  1  0  0  0  0
 26 29  1  0  0  0  0
 26 28  1  0  0  0  0
 27 26  1  0  0  0  0
 30 31  1  1  0  0  0
 30  1  1  0  0  0  0
 32 33  1  0  0  0  0
 32 35  1  0  0  0  0
 32 30  1  0  0  0  0
 34 32  1  0  0  0  0
 36 30  1  0  0  0  0
 36 37  1  0  0  0  0
 37 38  2  0  0  0  0
 38 39  1  0  0  0  0
 40 39  2  0  0  0  0
 41 37  1  0  0  0  0
 41 40  1  0  0  0  0
 42 40  1  0  0  0  0
 43 41  1  0  0  0  0
 44 43  1  0  0  0  0
 45 43  1  0  0  0  0
 46 43  1  0  0  0  0
M  END
>  <MODEL>
13

>  <REMARK>
 VINA RESULT:    -6.834      2.663      3.956
 INTER + INTRA:         -10.456
 INTER:                 -10.161
 INTRA:                  -0.295
 UNBOUND:                -0.227
  Name = 
  10 active torsions:
  status: ('A' for Active; 'I' for Inactive)
    1  A    between atoms: C_1  and  C_2
    2  A    between atoms: C_2  and  C_3
    3  A    between atoms: C_2  and  S_23
    4  A    between atoms: C_7  and  N_9
    5  A    between atoms: C_10  and  C_11
    6  A    between atoms: C_14  and  N_19
    7  A    between atoms: C_15  and  O_17
    8  A    between atoms: O_17  and  C_18
    9  A    between atoms: S_23  and  C_24
   10  A    between atoms: N_28  and  C_29
                            x       y       z     vdW  Elec       q    Type
                         _______ _______ _______ _____ _____    ______ ____

>  <TORSDO>
F 10

$$$$
=
 OpenBabel07192307433D

 46 48  0  0  1  0  0  0  0  0999 V2000
   -0.1810   10.9250   20.7930 C   0  0  0  0  0  0  0  0  0  0  0  0
   -0.6340   11.1230   22.1000 C   0  0  0  0  0  0  0  0  0  0  0  0
   -0.4390   10.1120   23.0270 C   0  0  0  0  0  0  0  0  0  0  0  0
    0.1620    8.9380   22.7460 N   0  0  0  0  0  0  0  0  0  0  0  0
    0.5890    8.7380   21.4910 C   0  0  0  0  0  0  0  0  0  0  0  0
    0.4340    9.6990   20.4950 C   0  0  0  0  0  0  0  0  0  0  0  0
   -1.1390   12.0330   22.4020 H   0  0  0  0  0  0  0  0  0  0  0  0
   -0.7740   10.2220   24.0550 H   0  0  0  0  0  0  0  0  0  0  0  0
    0.7870    9.5030   19.4860 H   0  0  0  0  0  0  0  0  0  0  0  0
    1.2130    7.5410   21.1300 N   0  0  0  0  0  0  0  0  0  0  0  0
    1.9610    7.3200   19.9950 C   0  0  0  0  0  0  0  0  0  0  0  0
    2.2270    8.1020   19.0920 O   0  0  0  0  0  0  0  0  0  0  0  0
    1.1190    6.7460   21.7490 H   0  0  0  0  0  0  0  0  0  0  0  0
    2.4890    5.9170   19.9210 C   0  0  0  0  0  0  0  0  0  0  0  0
    1.9470    4.9250   20.7350 C   0  0  0  0  0  0  0  0  0  0  0  0
    2.4620    3.6370   20.6370 C   0  0  0  0  0  0  0  0  0  0  0  0
    3.4930    3.4030   19.7240 C   0  0  0  0  0  0  0  0  0  0  0  0
    3.9920    4.4400   18.9500 C   0  0  0  0  0  0  0  0  0  0  0  0
    3.5060    5.7030   19.0300 N   0  0  0  0  0  0  0  0  0  0  0  0
    1.1420    5.1560   21.4290 H   0  0  0  0  0  0  0  0  0  0  0  0
    2.0650    2.8370   21.2580 H   0  0  0  0  0  0  0  0  0  0  0  0
    4.0350    2.0750   19.5970 N   0  0  0  0  0  0  0  0  0  0  0  0
    3.5920    1.3780   18.6740 O   0  0  0  0  0  0  0  0  0  0  0  0
    4.9380    1.7490   20.3780 O   0  0  0  0  0  0  0  0  0  0  0  0
    5.0510    4.1920   18.1030 O   0  0  0  0  0  0  0  0  0  0  0  0
    6.2610    4.8440   18.4730 C   0  0  0  0  0  0  0  0  0  0  0  0
    6.2390    5.9040   18.1960 H   0  0  0  0  0  0  0  0  0  0  0  0
    7.1320    4.3430   18.0370 H   0  0  0  0  0  0  0  0  0  0  0  0
    6.3530    4.7850   19.5620 H   0  0  0  0  0  0  0  0  0  0  0  0
   -0.3590   11.9640   19.6990 C   0  0  2  0  0  0  0  0  0  0  0  0
   -0.7570   11.4490   18.8160 H   0  0  0  0  0  0  0  0  0  0  0  0
    0.9590   12.6300   19.2920 C   0  0  0  0  0  0  0  0  0  0  0  0
    1.7500   11.8790   19.1870 H   0  0  0  0  0  0  0  0  0  0  0  0
    1.3020   13.3660   20.0280 H   0  0  0  0  0  0  0  0  0  0  0  0
    0.8670   13.1410   18.3290 H   0  0  0  0  0  0  0  0  0  0  0  0
   -1.5760   13.2280   20.2380 S   0  0  0  0  0  0  0  0  0  0  0  0
   -3.0530   12.5490   19.6570 C   0  0  0  0  0  0  0  0  0  0  0  0
   -3.2280   11.8720   18.5460 N   0  0  0  0  0  0  0  0  0  0  0  0
   -4.5560   11.5120   18.4780 N   0  0  0  0  0  0  0  0  0  0  0  0
   -5.1470   11.9790   19.5550 C   0  0  0  0  0  0  0  0  0  0  0  0
   -4.2380   12.6380   20.3270 N   0  0  0  0  0  0  0  0  0  0  0  0
   -6.1930   11.8680   19.8050 H   0  0  0  0  0  0  0  0  0  0  0  0
   -4.5070   13.2840   21.5830 C   0  0  0  0  0  0  0  0  0  0  0  0
   -5.0560   12.5920   22.2240 H   0  0  0  0  0  0  0  0  0  0  0  0
   -5.0930   14.1890   21.3960 H   0  0  0  0  0  0  0  0  0  0  0  0
   -3.5640   13.5560   22.0640 H   0  0  0  0  0  0  0  0  0  0  0  0
  1  2  1  0  0  0  0
  2  7  1  0  0  0  0
  2  3  2  0  0  0  0
  3  8  1  0  0  0  0
  4  3  1  0  0  0  0
  5  4  2  0  0  0  0
  6  1  2  0  0  0  0
  6  5  1  0  0  0  0
  9  6  1  0  0  0  0
 10  5  1  0  0  0  0
 10 13  1  0  0  0  0
 11 10  1  0  0  0  0
 12 11  2  0  0  0  0
 14 11  1  0  0  0  0
 14 15  2  0  0  0  0
 15 20  1  0  0  0  0
 16 15  1  0  0  0  0
 16 21  1  0  0  0  0
 17 16  2  0  0  0  0
 18 19  2  0  0  0  0
 18 17  1  0  0  0  0
 19 14  1  0  0  0  0
 22 17  1  0  0  0  0
 22 24  2  0  0  0  0
 23 22  2  0  0  0  0
 25 26  1  0  0  0  0
 25 18  1  0  0  0  0
 26 29  1  0  0  0  0
 27 26  1  0  0  0  0
 28 26  1  0  0  0  0
 30 31  1  6  0  0  0
 30 36  1  0  0  0  0
 30  1  1  0  0  0  0
 32 30  1  0  0  0  0
 32 34  1  0  0  0  0
 33 32  1  0  0  0  0
 35 32  1  0  0  0  0
 37 36  1  0  0  0  0
 37 41  1  0  0  0  0
 38 37  2  0  0  0  0
 39 38  1  0  0  0  0
 39 40  2  0  0  0  0
 40 42  1  0  0  0  0
 40 41  1  0  0  0  0
 41 43  1  0  0  0  0
 43 46  1  0  0  0  0
 43 44  1  0  0  0  0
 45 43  1  0  0  0  0
M  END
>  <MODEL>
14

>  <REMARK>
 VINA RESULT:    -6.826      1.526      1.920
 INTER + INTRA:         -10.445
 INTER:                 -10.132
 INTRA:                  -0.313
 UNBOUND:                -0.227
  Name = 
  10 active torsions:
  status: ('A' for Active; 'I' for Inactive)
    1  A    between atoms: C_1  and  C_2
    2  A    between atoms: C_2  and  C_3
    3  A    between atoms: C_2  and  S_23
    4  A    between atoms: C_7  and  N_9
    5  A    between atoms: C_10  and  C_11
    6  A    between atoms: C_14  and  N_19
    7  A    between atoms: C_15  and  O_17
    8  A    between atoms: O_17  and  C_18
    9  A    between atoms: S_23  and  C_24
   10  A    between atoms: N_28  and  C_29
                            x       y       z     vdW  Elec       q    Type
                         _______ _______ _______ _____ _____    ______ ____

>  <TORSDO>
F 10

$$$$
=
 OpenBabel07192307433D

 46 48  0  0  1  0  0  0  0  0999 V2000
    4.6330    4.9240   17.7550 C   0  0  0  0  0  0  0  0  0  0  0  0
    4.6020    3.6540   18.3360 C   0  0  0  0  0  0  0  0  0  0  0  0
    3.8240    3.4640   19.4660 C   0  0  0  0  0  0  0  0  0  0  0  0
    3.0910    4.4350   20.0480 N   0  0  0  0  0  0  0  0  0  0  0  0
    3.1270    5.6590   19.5020 C   0  0  0  0  0  0  0  0  0  0  0  0
    3.8820    5.9400   18.3660 C   0  0  0  0  0  0  0  0  0  0  0  0
    5.1730    2.8240   17.9360 H   0  0  0  0  0  0  0  0  0  0  0  0
    3.7680    2.4930   19.9510 H   0  0  0  0  0  0  0  0  0  0  0  0
    3.8930    6.9450   17.9510 H   0  0  0  0  0  0  0  0  0  0  0  0
    2.3980    6.7130   20.0600 N   0  0  0  0  0  0  0  0  0  0  0  0
    1.9880    7.8560   19.4100 C   0  0  0  0  0  0  0  0  0  0  0  0
    2.1720    8.1780   18.2440 O   0  0  0  0  0  0  0  0  0  0  0  0
    2.1350    6.6500   21.0350 H   0  0  0  0  0  0  0  0  0  0  0  0
    1.2210    8.7810   20.3080 C   0  0  0  0  0  0  0  0  0  0  0  0
    1.2830    8.6210   21.6900 C   0  0  0  0  0  0  0  0  0  0  0  0
    0.5590    9.4990   22.4900 C   0  0  0  0  0  0  0  0  0  0  0  0
   -0.1890   10.5000   21.8660 C   0  0  0  0  0  0  0  0  0  0  0  0
   -0.2130   10.5980   20.4820 C   0  0  0  0  0  0  0  0  0  0  0  0
    0.4840    9.7510   19.6840 N   0  0  0  0  0  0  0  0  0  0  0  0
    1.8830    7.8280   22.1300 H   0  0  0  0  0  0  0  0  0  0  0  0
    0.5820    9.4030   23.5740 H   0  0  0  0  0  0  0  0  0  0  0  0
   -0.9380   11.4280   22.6730 N   0  0  0  0  0  0  0  0  0  0  0  0
   -1.8340   10.9510   23.3840 O   0  0  0  0  0  0  0  0  0  0  0  0
   -0.5980   12.6180   22.6410 O   0  0  0  0  0  0  0  0  0  0  0  0
   -1.0090   11.5560   19.8940 O   0  0  0  0  0  0  0  0  0  0  0  0
   -1.6270   11.1400   18.6810 C   0  0  0  0  0  0  0  0  0  0  0  0
   -2.7000   11.3660   18.6870 H   0  0  0  0  0  0  0  0  0  0  0  0
   -1.4520   10.0760   18.4910 H   0  0  0  0  0  0  0  0  0  0  0  0
   -1.1720   11.7050   17.8630 H   0  0  0  0  0  0  0  0  0  0  0  0
    5.4660    5.2410   16.5240 C   0  0  2  0  0  0  0  0  0  0  0  0
    6.4980    5.4070   16.8560 H   0  0  0  0  0  0  0  0  0  0  0  0
    5.0020    6.5110   15.8030 C   0  0  0  0  0  0  0  0  0  0  0  0
    4.8680    6.3160   14.7330 H   0  0  0  0  0  0  0  0  0  0  0  0
    5.7190    7.3340   15.8980 H   0  0  0  0  0  0  0  0  0  0  0  0
    4.0410    6.8610   16.1920 H   0  0  0  0  0  0  0  0  0  0  0  0
    5.4430    3.8090   15.3760 S   0  0  0  0  0  0  0  0  0  0  0  0
    6.4970    4.3580   14.1240 C   0  0  0  0  0  0  0  0  0  0  0  0
    7.5370    5.1490   14.2570 N   0  0  0  0  0  0  0  0  0  0  0  0
    8.0940    5.3220   13.0100 N   0  0  0  0  0  0  0  0  0  0  0  0
    7.3760    4.6270   12.1560 C   0  0  0  0  0  0  0  0  0  0  0  0
    6.3600    4.0020   12.8150 N   0  0  0  0  0  0  0  0  0  0  0  0
    7.5510    4.5510   11.0910 H   0  0  0  0  0  0  0  0  0  0  0  0
    5.3660    3.1500   12.2200 C   0  0  0  0  0  0  0  0  0  0  0  0
    5.5350    2.1240   12.5550 H   0  0  0  0  0  0  0  0  0  0  0  0
    5.4450    3.2220   11.1310 H   0  0  0  0  0  0  0  0  0  0  0  0
    4.3710    3.4760   12.5330 H   0  0  0  0  0  0  0  0  0  0  0  0
  1  2  2  0  0  0  0
  1  6  1  0  0  0  0
  2  3  1  0  0  0  0
  3  8  1  0  0  0  0
  3  4  2  0  0  0  0
  5  4  1  0  0  0  0
  5 10  1  0  0  0  0
  6  5  2  0  0  0  0
  7  2  1  0  0  0  0
  9  6  1  0  0  0  0
 10 13  1  0  0  0  0
 11 10  1  0  0  0  0
 11 14  1  0  0  0  0
 12 11  2  0  0  0  0
 14 15  2  0  0  0  0
 15 20  1  0  0  0  0
 15 16  1  0  0  0  0
 16 21  1  0  0  0  0
 17 16  2  0  0  0  0
 17 22  1  0  0  0  0
 18 17  1  0  0  0  0
 19 14  1  0  0  0  0
 19 18  2  0  0  0  0
 22 23  2  0  0  0  0
 24 22  2  0  0  0  0
 25 18  1  0  0  0  0
 26 27  1  0  0  0  0
 26 25  1  0  0  0  0
 28 26  1  0  0  0  0
 29 26  1  0  0  0  0
 30 31  1  1  0  0  0
 30  1  1  0  0  0  0
 32 34  1  0  0  0  0
 32 35  1  0  0  0  0
 32 30  1  0  0  0  0
 33 32  1  0  0  0  0
 36 30  1  0  0  0  0
 37 38  2  0  0  0  0
 37 36  1  0  0  0  0
 39 38  1  0  0  0  0
 40 41  1  0  0  0  0
 40 39  2  0  0  0  0
 41 37  1  0  0  0  0
 42 40  1  0  0  0  0
 43 46  1  0  0  0  0
 43 44  1  0  0  0  0
 43 41  1  0  0  0  0
 45 43  1  0  0  0  0
M  END
>  <MODEL>
15

>  <REMARK>
 VINA RESULT:    -6.781      4.130      9.181
 INTER + INTRA:         -10.378
 INTER:                 -10.420
 INTRA:                   0.042
 UNBOUND:                -0.227
  Name = 
  10 active torsions:
  status: ('A' for Active; 'I' for Inactive)
    1  A    between atoms: C_1  and  C_2
    2  A    between atoms: C_2  and  C_3
    3  A    between atoms: C_2  and  S_23
    4  A    between atoms: C_7  and  N_9
    5  A    between atoms: C_10  and  C_11
    6  A    between atoms: C_14  and  N_19
    7  A    between atoms: C_15  and  O_17
    8  A    between atoms: O_17  and  C_18
    9  A    between atoms: S_23  and  C_24
   10  A    between atoms: N_28  and  C_29
                            x       y       z     vdW  Elec       q    Type
                         _______ _______ _______ _____ _____    ______ ____

>  <TORSDO>
F 10

$$$$
=
 OpenBabel07192307433D

 46 48  0  0  1  0  0  0  0  0999 V2000
   -0.0550   11.1580   21.1090 C   0  0  0  0  0  0  0  0  0  0  0  0
    0.0810   12.0440   20.0370 C   0  0  0  0  0  0  0  0  0  0  0  0
    0.7150   11.6000   18.8890 C   0  0  0  0  0  0  0  0  0  0  0  0
    1.2180   10.3580   18.7390 N   0  0  0  0  0  0  0  0  0  0  0  0
    1.1020    9.5070   19.7680 C   0  0  0  0  0  0  0  0  0  0  0  0
    0.4780    9.8690   20.9600 C   0  0  0  0  0  0  0  0  0  0  0  0
   -0.2840   13.0640   20.0840 H   0  0  0  0  0  0  0  0  0  0  0  0
    0.8430   12.2550   18.0310 H   0  0  0  0  0  0  0  0  0  0  0  0
    0.4050    9.1550   21.7770 H   0  0  0  0  0  0  0  0  0  0  0  0
    1.6080    8.2070   19.6810 N   0  0  0  0  0  0  0  0  0  0  0  0
    2.3520    7.6880   18.6450 C   0  0  0  0  0  0  0  0  0  0  0  0
    2.7150    8.2400   17.6150 O   0  0  0  0  0  0  0  0  0  0  0  0
    1.4200    7.5680   20.4440 H   0  0  0  0  0  0  0  0  0  0  0  0
    2.7350    6.2560   18.8770 C   0  0  0  0  0  0  0  0  0  0  0  0
    2.0120    5.4780   19.7780 C   0  0  0  0  0  0  0  0  0  0  0  0
    2.3960    4.1550   19.9650 C   0  0  0  0  0  0  0  0  0  0  0  0
    3.4860    3.6720   19.2360 C   0  0  0  0  0  0  0  0  0  0  0  0
    4.1670    4.5040   18.3600 C   0  0  0  0  0  0  0  0  0  0  0  0
    3.8110    5.7980   18.1640 N   0  0  0  0  0  0  0  0  0  0  0  0
    1.1690    5.8990   20.3210 H   0  0  0  0  0  0  0  0  0  0  0  0
    1.8560    3.5180   20.6630 H   0  0  0  0  0  0  0  0  0  0  0  0
    3.8960    2.3020   19.4050 N   0  0  0  0  0  0  0  0  0  0  0  0
    4.6000    2.0490   20.3920 O   0  0  0  0  0  0  0  0  0  0  0  0
    3.4720    1.4730   18.5890 O   0  0  0  0  0  0  0  0  0  0  0  0
    5.2760    4.0170   17.7020 O   0  0  0  0  0  0  0  0  0  0  0  0
    6.4470    4.8100   17.8620 C   0  0  0  0  0  0  0  0  0  0  0  0
    7.2030    4.5520   17.1120 H   0  0  0  0  0  0  0  0  0  0  0  0
    6.8530    4.7200   18.8750 H   0  0  0  0  0  0  0  0  0  0  0  0
    6.1660    5.8560   17.7060 H   0  0  0  0  0  0  0  0  0  0  0  0
   -0.7210   11.5510   22.4170 C   0  0  2  0  0  0  0  0  0  0  0  0
   -0.0260   12.2030   22.9590 H   0  0  0  0  0  0  0  0  0  0  0  0
   -1.0230   10.3460   23.3140 C   0  0  0  0  0  0  0  0  0  0  0  0
   -2.0790   10.0650   23.2350 H   0  0  0  0  0  0  0  0  0  0  0  0
   -0.8160   10.5480   24.3720 H   0  0  0  0  0  0  0  0  0  0  0  0
   -0.4330    9.4730   23.0220 H   0  0  0  0  0  0  0  0  0  0  0  0
   -2.2590   12.4920   22.0700 S   0  0  0  0  0  0  0  0  0  0  0  0
   -2.3060   13.5750   23.4130 C   0  0  0  0  0  0  0  0  0  0  0  0
   -1.4630   14.5470   23.6750 N   0  0  0  0  0  0  0  0  0  0  0  0
   -1.8780   15.1610   24.8350 N   0  0  0  0  0  0  0  0  0  0  0  0
   -2.9640   14.5440   25.2420 C   0  0  0  0  0  0  0  0  0  0  0  0
   -3.2710   13.5380   24.3760 N   0  0  0  0  0  0  0  0  0  0  0  0
   -3.5390   14.7840   26.1270 H   0  0  0  0  0  0  0  0  0  0  0  0
   -4.3910   12.6420   24.4850 C   0  0  0  0  0  0  0  0  0  0  0  0
   -5.2090   13.1610   24.9900 H   0  0  0  0  0  0  0  0  0  0  0  0
   -4.0820   11.7590   25.0520 H   0  0  0  0  0  0  0  0  0  0  0  0
   -4.7140   12.3370   23.4860 H   0  0  0  0  0  0  0  0  0  0  0  0
  1 30  1  0  0  0  0
  2  7  1  0  0  0  0
  2  1  2  0  0  0  0
  3  2  1  0  0  0  0
  4  3  2  0  0  0  0
  4  5  1  0  0  0  0
  5  6  2  0  0  0  0
  6  1  1  0  0  0  0
  6  9  1  0  0  0  0
  8  3  1  0  0  0  0
 10  5  1  0  0  0  0
 10 13  1  0  0  0  0
 11 14  1  0  0  0  0
 11 10  1  0  0  0  0
 12 11  2  0  0  0  0
 14 15  2  0  0  0  0
 15 16  1  0  0  0  0
 15 20  1  0  0  0  0
 16 21  1  0  0  0  0
 17 22  1  0  0  0  0
 17 16  2  0  0  0  0
 18 17  1  0  0  0  0
 19 18  2  0  0  0  0
 19 14  1  0  0  0  0
 22 23  2  0  0  0  0
 24 22  2  0  0  0  0
 25 26  1  0  0  0  0
 25 18  1  0  0  0  0
 26 28  1  0  0  0  0
 27 26  1  0  0  0  0
 29 26  1  0  0  0  0
 30 31  1  1  0  0  0
 30 32  1  0  0  0  0
 32 34  1  0  0  0  0
 33 32  1  0  0  0  0
 35 32  1  0  0  0  0
 36 30  1  0  0  0  0
 36 37  1  0  0  0  0
 37 38  2  0  0  0  0
 37 41  1  0  0  0  0
 38 39  1  0  0  0  0
 39 40  2  0  0  0  0
 40 42  1  0  0  0  0
 41 43  1  0  0  0  0
 41 40  1  0  0  0  0
 43 44  1  0  0  0  0
 43 45  1  0  0  0  0
 46 43  1  0  0  0  0
M  END
>  <MODEL>
16

>  <REMARK>
 VINA RESULT:    -6.759      2.741      4.324
 INTER + INTRA:         -10.345
 INTER:                  -9.925
 INTRA:                  -0.420
 UNBOUND:                -0.227
  Name = 
  10 active torsions:
  status: ('A' for Active; 'I' for Inactive)
    1  A    between atoms: C_1  and  C_2
    2  A    between atoms: C_2  and  C_3
    3  A    between atoms: C_2  and  S_23
    4  A    between atoms: C_7  and  N_9
    5  A    between atoms: C_10  and  C_11
    6  A    between atoms: C_14  and  N_19
    7  A    between atoms: C_15  and  O_17
    8  A    between atoms: O_17  and  C_18
    9  A    between atoms: S_23  and  C_24
   10  A    between atoms: N_28  and  C_29
                            x       y       z     vdW  Elec       q    Type
                         _______ _______ _______ _____ _____    ______ ____

>  <TORSDO>
F 10

$$$$
=
 OpenBabel07192307433D

 46 48  0  0  1  0  0  0  0  0999 V2000
   -0.2980   10.1550   20.3230 C   0  0  0  0  0  0  0  0  0  0  0  0
   -0.1750   10.1010   21.7140 C   0  0  0  0  0  0  0  0  0  0  0  0
    0.7620    9.2400   22.2610 C   0  0  0  0  0  0  0  0  0  0  0  0
    1.5670    8.4400   21.5320 N   0  0  0  0  0  0  0  0  0  0  0  0
    1.4440    8.4780   20.1970 C   0  0  0  0  0  0  0  0  0  0  0  0
    0.5290    9.3150   19.5620 C   0  0  0  0  0  0  0  0  0  0  0  0
   -0.7940   10.7010   22.3700 H   0  0  0  0  0  0  0  0  0  0  0  0
    0.8940    9.1650   23.3370 H   0  0  0  0  0  0  0  0  0  0  0  0
    0.4520    9.3180   18.4780 H   0  0  0  0  0  0  0  0  0  0  0  0
    2.2420    7.6700   19.3820 N   0  0  0  0  0  0  0  0  0  0  0  0
    2.3450    6.2980   19.4440 C   0  0  0  0  0  0  0  0  0  0  0  0
    1.7780    5.5240   20.2030 O   0  0  0  0  0  0  0  0  0  0  0  0
    2.8070    8.1170   18.6710 H   0  0  0  0  0  0  0  0  0  0  0  0
    3.2930    5.7490   18.4190 C   0  0  0  0  0  0  0  0  0  0  0  0
    3.1930    4.4180   18.0190 C   0  0  0  0  0  0  0  0  0  0  0  0
    4.0880    3.9460   17.0650 C   0  0  0  0  0  0  0  0  0  0  0  0
    5.0390    4.8320   16.5520 C   0  0  0  0  0  0  0  0  0  0  0  0
    5.0870    6.1450   17.0010 C   0  0  0  0  0  0  0  0  0  0  0  0
    4.2260    6.6250   17.9320 N   0  0  0  0  0  0  0  0  0  0  0  0
    2.4340    3.7670   18.4450 H   0  0  0  0  0  0  0  0  0  0  0  0
    4.0420    2.9120   16.7310 H   0  0  0  0  0  0  0  0  0  0  0  0
    5.9690    4.3700   15.5560 N   0  0  0  0  0  0  0  0  0  0  0  0
    7.0750    3.9870   15.9610 O   0  0  0  0  0  0  0  0  0  0  0  0
    5.5800    4.3370   14.3810 O   0  0  0  0  0  0  0  0  0  0  0  0
    6.0750    6.9780   16.5230 O   0  0  0  0  0  0  0  0  0  0  0  0
    7.1400    7.2100   17.4390 C   0  0  0  0  0  0  0  0  0  0  0  0
    8.0920    7.3390   16.9120 H   0  0  0  0  0  0  0  0  0  0  0  0
    7.2070    6.4070   18.1800 H   0  0  0  0  0  0  0  0  0  0  0  0
    6.9250    8.1400   17.9730 H   0  0  0  0  0  0  0  0  0  0  0  0
   -1.3050   11.0540   19.6250 C   0  0  2  0  0  0  0  0  0  0  0  0
   -2.3070   10.6880   19.8790 H   0  0  0  0  0  0  0  0  0  0  0  0
   -1.1720   11.0200   18.0990 C   0  0  0  0  0  0  0  0  0  0  0  0
   -1.6640   10.1290   17.6920 H   0  0  0  0  0  0  0  0  0  0  0  0
   -0.1280   10.9970   17.7680 H   0  0  0  0  0  0  0  0  0  0  0  0
   -1.6470   11.8910   17.6380 H   0  0  0  0  0  0  0  0  0  0  0  0
   -1.1340   12.7730   20.2450 S   0  0  0  0  0  0  0  0  0  0  0  0
   -2.5530   12.9280   21.2150 C   0  0  0  0  0  0  0  0  0  0  0  0
   -3.7980   12.7730   20.8260 N   0  0  0  0  0  0  0  0  0  0  0  0
   -4.6090   12.9790   21.9190 N   0  0  0  0  0  0  0  0  0  0  0  0
   -3.8300   13.2510   22.9430 C   0  0  0  0  0  0  0  0  0  0  0  0
   -2.5270   13.2290   22.5460 N   0  0  0  0  0  0  0  0  0  0  0  0
   -4.1570   13.4640   23.9520 H   0  0  0  0  0  0  0  0  0  0  0  0
   -1.3850   13.4760   23.3830 C   0  0  0  0  0  0  0  0  0  0  0  0
   -1.6320   14.2700   24.0900 H   0  0  0  0  0  0  0  0  0  0  0  0
   -0.5400   13.7650   22.7510 H   0  0  0  0  0  0  0  0  0  0  0  0
   -1.1310   12.5650   23.9330 H   0  0  0  0  0  0  0  0  0  0  0  0
  1  2  1  0  0  0  0
  2  3  2  0  0  0  0
  2  7  1  0  0  0  0
  3  8  1  0  0  0  0
  4  3  1  0  0  0  0
  5  4  2  0  0  0  0
  6  5  1  0  0  0  0
  6  1  2  0  0  0  0
  9  6  1  0  0  0  0
 10 11  1  0  0  0  0
 10  5  1  0  0  0  0
 11 12  2  0  0  0  0
 13 10  1  0  0  0  0
 14 11  1  0  0  0  0
 15 14  2  0  0  0  0
 15 20  1  0  0  0  0
 16 15  1  0  0  0  0
 17 18  1  0  0  0  0
 17 16  2  0  0  0  0
 18 19  2  0  0  0  0
 19 14  1  0  0  0  0
 21 16  1  0  0  0  0
 22 23  2  0  0  0  0
 22 17  1  0  0  0  0
 24 22  2  0  0  0  0
 25 18  1  0  0  0  0
 25 26  1  0  0  0  0
 26 29  1  0  0  0  0
 26 28  1  0  0  0  0
 27 26  1  0  0  0  0
 30 31  1  1  0  0  0
 30 36  1  0  0  0  0
 30  1  1  0  0  0  0
 32 30  1  0  0  0  0
 33 32  1  0  0  0  0
 34 32  1  0  0  0  0
 35 32  1  0  0  0  0
 36 37  1  0  0  0  0
 37 41  1  0  0  0  0
 38 37  2  0  0  0  0
 38 39  1  0  0  0  0
 39 40  2  0  0  0  0
 40 42  1  0  0  0  0
 41 40  1  0  0  0  0
 41 43  1  0  0  0  0
 43 46  1  0  0  0  0
 43 44  1  0  0  0  0
 45 43  1  0  0  0  0
M  END
>  <MODEL>
17

>  <REMARK>
 VINA RESULT:    -6.757      2.868      3.920
 INTER + INTRA:         -10.341
 INTER:                  -9.537
 INTRA:                  -0.805
 UNBOUND:                -0.227
  Name = 
  10 active torsions:
  status: ('A' for Active; 'I' for Inactive)
    1  A    between atoms: C_1  and  C_2
    2  A    between atoms: C_2  and  C_3
    3  A    between atoms: C_2  and  S_23
    4  A    between atoms: C_7  and  N_9
    5  A    between atoms: C_10  and  C_11
    6  A    between atoms: C_14  and  N_19
    7  A    between atoms: C_15  and  O_17
    8  A    between atoms: O_17  and  C_18
    9  A    between atoms: S_23  and  C_24
   10  A    between atoms: N_28  and  C_29
                            x       y       z     vdW  Elec       q    Type
                         _______ _______ _______ _____ _____    ______ ____

>  <TORSDO>
F 10

$$$$
=
 OpenBabel07192307433D

 46 48  0  0  1  0  0  0  0  0999 V2000
   -0.5210   10.5120   19.8850 C   0  0  0  0  0  0  0  0  0  0  0  0
   -0.4100   10.5560   21.2770 C   0  0  0  0  0  0  0  0  0  0  0  0
    0.5280    9.7420   21.8910 C   0  0  0  0  0  0  0  0  0  0  0  0
    1.3450    8.9000   21.2270 N   0  0  0  0  0  0  0  0  0  0  0  0
    1.2350    8.8450   19.8910 C   0  0  0  0  0  0  0  0  0  0  0  0
    0.3200    9.6270   19.1910 C   0  0  0  0  0  0  0  0  0  0  0  0
   -1.0400   11.1960   21.8840 H   0  0  0  0  0  0  0  0  0  0  0  0
    0.6500    9.7440   22.9710 H   0  0  0  0  0  0  0  0  0  0  0  0
    0.2530    9.5540   18.1090 H   0  0  0  0  0  0  0  0  0  0  0  0
    2.0470    7.9880   19.1420 N   0  0  0  0  0  0  0  0  0  0  0  0
    2.3010    6.6610   19.4120 C   0  0  0  0  0  0  0  0  0  0  0  0
    1.8820    5.9770   20.3350 O   0  0  0  0  0  0  0  0  0  0  0  0
    2.5020    8.3590   18.3180 H   0  0  0  0  0  0  0  0  0  0  0  0
    3.2160    6.0370   18.4000 C   0  0  0  0  0  0  0  0  0  0  0  0
    3.0050    4.7240   17.9850 C   0  0  0  0  0  0  0  0  0  0  0  0
    3.8740    4.1810   17.0440 C   0  0  0  0  0  0  0  0  0  0  0  0
    4.9100    4.9820   16.5590 C   0  0  0  0  0  0  0  0  0  0  0  0
    5.0670    6.2810   17.0220 C   0  0  0  0  0  0  0  0  0  0  0  0
    4.2330    6.8290   17.9400 N   0  0  0  0  0  0  0  0  0  0  0  0
    2.1820    4.1400   18.3900 H   0  0  0  0  0  0  0  0  0  0  0  0
    3.7420    3.1580   16.6990 H   0  0  0  0  0  0  0  0  0  0  0  0
    5.8160    4.4460   15.5770 N   0  0  0  0  0  0  0  0  0  0  0  0
    6.8880    3.9900   15.9980 O   0  0  0  0  0  0  0  0  0  0  0  0
    5.4360    4.4280   14.3990 O   0  0  0  0  0  0  0  0  0  0  0  0
    6.1360    7.0250   16.5710 O   0  0  0  0  0  0  0  0  0  0  0  0
    7.1920    7.1630   17.5150 C   0  0  0  0  0  0  0  0  0  0  0  0
    8.0380    6.5150   17.2570 H   0  0  0  0  0  0  0  0  0  0  0  0
    6.8430    6.9660   18.5340 H   0  0  0  0  0  0  0  0  0  0  0  0
    7.5420    8.1990   17.4760 H   0  0  0  0  0  0  0  0  0  0  0  0
   -1.5270   11.3520   19.1160 C   0  0  2  0  0  0  0  0  0  0  0  0
   -2.1920   11.8240   19.8490 H   0  0  0  0  0  0  0  0  0  0  0  0
   -2.3970   10.5180   18.1710 C   0  0  0  0  0  0  0  0  0  0  0  0
   -3.2690   10.1210   18.7040 H   0  0  0  0  0  0  0  0  0  0  0  0
   -1.8570    9.6640   17.7450 H   0  0  0  0  0  0  0  0  0  0  0  0
   -2.7730   11.1210   17.3390 H   0  0  0  0  0  0  0  0  0  0  0  0
   -0.6500   12.6690   18.1850 S   0  0  0  0  0  0  0  0  0  0  0  0
    0.4680   13.2380   19.3720 C   0  0  0  0  0  0  0  0  0  0  0  0
    0.1840   13.8640   20.4900 N   0  0  0  0  0  0  0  0  0  0  0  0
    1.3700   14.1250   21.1380 N   0  0  0  0  0  0  0  0  0  0  0  0
    2.3410   13.6470   20.3930 C   0  0  0  0  0  0  0  0  0  0  0  0
    1.8190   13.0770   19.2710 N   0  0  0  0  0  0  0  0  0  0  0  0
    3.3980   13.6890   20.6200 H   0  0  0  0  0  0  0  0  0  0  0  0
    2.5670   12.4450   18.2180 C   0  0  0  0  0  0  0  0  0  0  0  0
    3.2860   13.1640   17.8180 H   0  0  0  0  0  0  0  0  0  0  0  0
    1.8720   12.1160   17.4400 H   0  0  0  0  0  0  0  0  0  0  0  0
    3.1010   11.5790   18.6170 H   0  0  0  0  0  0  0  0  0  0  0  0
  1  2  1  0  0  0  0
  2  7  1  0  0  0  0
  2  3  2  0  0  0  0
  3  8  1  0  0  0  0
  4  3  1  0  0  0  0
  5  4  2  0  0  0  0
  6  1  2  0  0  0  0
  6  5  1  0  0  0  0
  9  6  1  0  0  0  0
 10 11  1  0  0  0  0
 10  5  1  0  0  0  0
 11 12  2  0  0  0  0
 13 10  1  0  0  0  0
 14 11  1  0  0  0  0
 15 20  1  0  0  0  0
 15 14  2  0  0  0  0
 16 15  1  0  0  0  0
 17 18  1  0  0  0  0
 17 16  2  0  0  0  0
 18 19  2  0  0  0  0
 19 14  1  0  0  0  0
 21 16  1  0  0  0  0
 22 23  2  0  0  0  0
 22 17  1  0  0  0  0
 24 22  2  0  0  0  0
 25 18  1  0  0  0  0
 25 26  1  0  0  0  0
 26 28  1  0  0  0  0
 27 26  1  0  0  0  0
 29 26  1  0  0  0  0
 30 31  1  1  0  0  0
 30  1  1  0  0  0  0
 32 33  1  0  0  0  0
 32 30  1  0  0  0  0
 34 32  1  0  0  0  0
 35 32  1  0  0  0  0
 36 30  1  0  0  0  0
 36 37  1  0  0  0  0
 37 38  2  0  0  0  0
 38 39  1  0  0  0  0
 40 42  1  0  0  0  0
 40 39  2  0  0  0  0
 41 37  1  0  0  0  0
 41 40  1  0  0  0  0
 43 46  1  0  0  0  0
 43 41  1  0  0  0  0
 44 43  1  0  0  0  0
 45 43  1  0  0  0  0
M  END
>  <MODEL>
18

>  <REMARK>
 VINA RESULT:    -6.727      2.938      4.069
 INTER + INTRA:         -10.296
 INTER:                  -9.518
 INTRA:                  -0.778
 UNBOUND:                -0.227
  Name = 
  10 active torsions:
  status: ('A' for Active; 'I' for Inactive)
    1  A    between atoms: C_1  and  C_2
    2  A    between atoms: C_2  and  C_3
    3  A    between atoms: C_2  and  S_23
    4  A    between atoms: C_7  and  N_9
    5  A    between atoms: C_10  and  C_11
    6  A    between atoms: C_14  and  N_19
    7  A    between atoms: C_15  and  O_17
    8  A    between atoms: O_17  and  C_18
    9  A    between atoms: S_23  and  C_24
   10  A    between atoms: N_28  and  C_29
                            x       y       z     vdW  Elec       q    Type
                         _______ _______ _______ _____ _____    ______ ____

>  <TORSDO>
F 10

$$$$
=
 OpenBabel07192307433D

 46 48  0  0  1  0  0  0  0  0999 V2000
    4.2300    4.7470   17.1090 C   0  0  0  0  0  0  0  0  0  0  0  0
    3.7310    3.4520   17.2750 C   0  0  0  0  0  0  0  0  0  0  0  0
    2.6590    3.2630   18.1310 C   0  0  0  0  0  0  0  0  0  0  0  0
    2.0640    4.2550   18.8240 N   0  0  0  0  0  0  0  0  0  0  0  0
    2.5470    5.4970   18.6790 C   0  0  0  0  0  0  0  0  0  0  0  0
    3.6220    5.7790   17.8380 C   0  0  0  0  0  0  0  0  0  0  0  0
    4.1620    2.5990   16.7640 H   0  0  0  0  0  0  0  0  0  0  0  0
    2.2370    2.2740   18.2900 H   0  0  0  0  0  0  0  0  0  0  0  0
    3.9910    6.7970   17.7470 H   0  0  0  0  0  0  0  0  0  0  0  0
    1.9820    6.5700   19.3730 N   0  0  0  0  0  0  0  0  0  0  0  0
    2.0040    7.8930   18.9900 C   0  0  0  0  0  0  0  0  0  0  0  0
    2.5080    8.3900   17.9920 O   0  0  0  0  0  0  0  0  0  0  0  0
    1.5050    6.3780   20.2450 H   0  0  0  0  0  0  0  0  0  0  0  0
    1.2990    8.7840   19.9700 C   0  0  0  0  0  0  0  0  0  0  0  0
    1.4540    8.5760   21.3380 C   0  0  0  0  0  0  0  0  0  0  0  0
    0.7850    9.4230   22.2150 C   0  0  0  0  0  0  0  0  0  0  0  0
   -0.0050   10.4430   21.6790 C   0  0  0  0  0  0  0  0  0  0  0  0
   -0.1220   10.5890   20.3040 C   0  0  0  0  0  0  0  0  0  0  0  0
    0.5200    9.7730   19.4310 N   0  0  0  0  0  0  0  0  0  0  0  0
    2.0820    7.7700   21.7090 H   0  0  0  0  0  0  0  0  0  0  0  0
    0.8800    9.2900   23.2910 H   0  0  0  0  0  0  0  0  0  0  0  0
   -0.6980   11.3400   22.5660 N   0  0  0  0  0  0  0  0  0  0  0  0
   -0.3950   12.5390   22.4950 O   0  0  0  0  0  0  0  0  0  0  0  0
   -1.5810   10.8600   23.2890 O   0  0  0  0  0  0  0  0  0  0  0  0
   -0.9570   11.5650   19.8040 O   0  0  0  0  0  0  0  0  0  0  0  0
   -0.3290   12.4640   18.8960 C   0  0  0  0  0  0  0  0  0  0  0  0
    0.4720   11.9650   18.3390 H   0  0  0  0  0  0  0  0  0  0  0  0
    0.0480   13.3520   19.4140 H   0  0  0  0  0  0  0  0  0  0  0  0
   -1.0830   12.7920   18.1750 H   0  0  0  0  0  0  0  0  0  0  0  0
    5.4120    5.0590   16.2050 C   0  0  2  0  0  0  0  0  0  0  0  0
    5.3880    6.1340   15.9890 H   0  0  0  0  0  0  0  0  0  0  0  0
    5.3480    4.3160   14.8670 C   0  0  0  0  0  0  0  0  0  0  0  0
    6.0990    4.7110   14.1740 H   0  0  0  0  0  0  0  0  0  0  0  0
    4.3710    4.4110   14.3790 H   0  0  0  0  0  0  0  0  0  0  0  0
    5.5530    3.2490   14.9930 H   0  0  0  0  0  0  0  0  0  0  0  0
    6.9790    4.6700   17.0790 S   0  0  0  0  0  0  0  0  0  0  0  0
    7.5050    6.2450   17.5500 C   0  0  0  0  0  0  0  0  0  0  0  0
    7.4690    7.3400   16.8260 N   0  0  0  0  0  0  0  0  0  0  0  0
    7.9780    8.3660   17.5910 N   0  0  0  0  0  0  0  0  0  0  0  0
    8.3060    7.8630   18.7600 C   0  0  0  0  0  0  0  0  0  0  0  0
    8.0240    6.5300   18.7790 N   0  0  0  0  0  0  0  0  0  0  0  0
    8.7340    8.4080   19.5900 H   0  0  0  0  0  0  0  0  0  0  0  0
    8.2420    5.6370   19.8850 C   0  0  0  0  0  0  0  0  0  0  0  0
    9.3090    5.4140   19.9530 H   0  0  0  0  0  0  0  0  0  0  0  0
    7.6620    4.7240   19.7210 H   0  0  0  0  0  0  0  0  0  0  0  0
    7.9100    6.1140   20.8110 H   0  0  0  0  0  0  0  0  0  0  0  0
  1  2  2  0  0  0  0
  1  6  1  0  0  0  0
  2  3  1  0  0  0  0
  3  8  1  0  0  0  0
  3  4  2  0  0  0  0
  5  4  1  0  0  0  0
  5 10  1  0  0  0  0
  6  5  2  0  0  0  0
  7  2  1  0  0  0  0
  9  6  1  0  0  0  0
 10 13  1  0  0  0  0
 11 10  1  0  0  0  0
 11 14  1  0  0  0  0
 12 11  2  0  0  0  0
 14 15  2  0  0  0  0
 15 20  1  0  0  0  0
 15 16  1  0  0  0  0
 16 21  1  0  0  0  0
 17 16  2  0  0  0  0
 17 22  1  0  0  0  0
 18 17  1  0  0  0  0
 19 14  1  0  0  0  0
 19 18  2  0  0  0  0
 22 24  2  0  0  0  0
 23 22  2  0  0  0  0
 25 18  1  0  0  0  0
 26 28  1  0  0  0  0
 26 25  1  0  0  0  0
 27 26  1  0  0  0  0
 29 26  1  0  0  0  0
 30 31  1  6  0  0  0
 30 36  1  0  0  0  0
 30  1  1  0  0  0  0
 32 35  1  0  0  0  0
 32 30  1  0  0  0  0
 33 32  1  0  0  0  0
 34 32  1  0  0  0  0
 36 37  1  0  0  0  0
 37 41  1  0  0  0  0
 38 37  2  0  0  0  0
 38 39  1  0  0  0  0
 39 40  2  0  0  0  0
 40 41  1  0  0  0  0
 40 42  1  0  0  0  0
 41 43  1  0  0  0  0
 43 44  1  0  0  0  0
 43 46  1  0  0  0  0
 45 43  1  0  0  0  0
M  END
>  <MODEL>
19

>  <REMARK>
 VINA RESULT:    -6.705      3.948      9.163
 INTER + INTRA:         -10.263
 INTER:                  -9.983
 INTRA:                  -0.280
 UNBOUND:                -0.227
  Name = 
  10 active torsions:
  status: ('A' for Active; 'I' for Inactive)
    1  A    between atoms: C_1  and  C_2
    2  A    between atoms: C_2  and  C_3
    3  A    between atoms: C_2  and  S_23
    4  A    between atoms: C_7  and  N_9
    5  A    between atoms: C_10  and  C_11
    6  A    between atoms: C_14  and  N_19
    7  A    between atoms: C_15  and  O_17
    8  A    between atoms: O_17  and  C_18
    9  A    between atoms: S_23  and  C_24
   10  A    between atoms: N_28  and  C_29
                            x       y       z     vdW  Elec       q    Type
                         _______ _______ _______ _____ _____    ______ ____

>  <TORSDO>
F 10

$$$$
=
 OpenBabel07192307433D

 46 48  0  0  1  0  0  0  0  0999 V2000
   -0.6610   11.1890   21.2260 C   0  0  0  0  0  0  0  0  0  0  0  0
   -0.9730   11.2070   22.5880 C   0  0  0  0  0  0  0  0  0  0  0  0
   -0.6110   10.1190   23.3630 C   0  0  0  0  0  0  0  0  0  0  0  0
    0.0260    9.0310   22.8830 N   0  0  0  0  0  0  0  0  0  0  0  0
    0.3180    9.0020   21.5750 C   0  0  0  0  0  0  0  0  0  0  0  0
   -0.0090   10.0540   20.7210 C   0  0  0  0  0  0  0  0  0  0  0  0
   -1.4960   12.0380   23.0470 H   0  0  0  0  0  0  0  0  0  0  0  0
   -0.8320   10.0890   24.4260 H   0  0  0  0  0  0  0  0  0  0  0  0
    0.2370    9.9970   19.6640 H   0  0  0  0  0  0  0  0  0  0  0  0
    0.9710    7.9030   21.0110 N   0  0  0  0  0  0  0  0  0  0  0  0
    1.7100    7.9000   19.8490 C   0  0  0  0  0  0  0  0  0  0  0  0
    1.9430    8.8320   19.0900 O   0  0  0  0  0  0  0  0  0  0  0  0
    0.9060    7.0120   21.4870 H   0  0  0  0  0  0  0  0  0  0  0  0
    2.2750    6.5460   19.5340 C   0  0  0  0  0  0  0  0  0  0  0  0
    2.8590    6.3060   18.2920 C   0  0  0  0  0  0  0  0  0  0  0  0
    3.3730    5.0390   18.0380 C   0  0  0  0  0  0  0  0  0  0  0  0
    3.2820    4.0730   19.0430 C   0  0  0  0  0  0  0  0  0  0  0  0
    2.6800    4.3780   20.2560 C   0  0  0  0  0  0  0  0  0  0  0  0
    2.1710    5.6060   20.5230 N   0  0  0  0  0  0  0  0  0  0  0  0
    2.9090    7.0910   17.5420 H   0  0  0  0  0  0  0  0  0  0  0  0
    3.8340    4.8140   17.0790 H   0  0  0  0  0  0  0  0  0  0  0  0
    3.8160    2.7570   18.8080 N   0  0  0  0  0  0  0  0  0  0  0  0
    3.4100    2.1630   17.8000 O   0  0  0  0  0  0  0  0  0  0  0  0
    4.6790    2.3410   19.5930 O   0  0  0  0  0  0  0  0  0  0  0  0
    2.5500    3.3870   21.2040 O   0  0  0  0  0  0  0  0  0  0  0  0
    1.2350    2.8530   21.3160 C   0  0  0  0  0  0  0  0  0  0  0  0
    0.5870    3.5190   21.8980 H   0  0  0  0  0  0  0  0  0  0  0  0
    1.2500    1.8460   21.7470 H   0  0  0  0  0  0  0  0  0  0  0  0
    0.8170    2.7790   20.3080 H   0  0  0  0  0  0  0  0  0  0  0  0
   -1.0280   12.3260   20.2860 C   0  0  2  0  0  0  0  0  0  0  0  0
   -0.5390   13.2340   20.6590 H   0  0  0  0  0  0  0  0  0  0  0  0
   -2.5350   12.5960   20.2420 C   0  0  0  0  0  0  0  0  0  0  0  0
   -2.8810   12.6680   19.2050 H   0  0  0  0  0  0  0  0  0  0  0  0
   -2.8100   13.5310   20.7440 H   0  0  0  0  0  0  0  0  0  0  0  0
   -3.1000   11.7870   20.7160 H   0  0  0  0  0  0  0  0  0  0  0  0
   -0.3930   11.9660   18.6020 S   0  0  0  0  0  0  0  0  0  0  0  0
    1.0570   12.9030   18.5780 C   0  0  0  0  0  0  0  0  0  0  0  0
    2.2870   12.4530   18.4840 N   0  0  0  0  0  0  0  0  0  0  0  0
    3.1330   13.5400   18.4940 N   0  0  0  0  0  0  0  0  0  0  0  0
    2.3890   14.6190   18.5910 C   0  0  0  0  0  0  0  0  0  0  0  0
    1.0750   14.2650   18.6450 N   0  0  0  0  0  0  0  0  0  0  0  0
    2.7480   15.6390   18.6240 H   0  0  0  0  0  0  0  0  0  0  0  0
   -0.0390   15.1690   18.7520 C   0  0  0  0  0  0  0  0  0  0  0  0
    0.0620   15.9440   17.9900 H   0  0  0  0  0  0  0  0  0  0  0  0
   -0.0440   15.6060   19.7540 H   0  0  0  0  0  0  0  0  0  0  0  0
   -0.9710   14.6200   18.5920 H   0  0  0  0  0  0  0  0  0  0  0  0
  1  2  1  0  0  0  0
  2  7  1  0  0  0  0
  2  3  2  0  0  0  0
  3  8  1  0  0  0  0
  4  3  1  0  0  0  0
  5  4  2  0  0  0  0
  6  1  2  0  0  0  0
  6  5  1  0  0  0  0
  9  6  1  0  0  0  0
 10 13  1  0  0  0  0
 10  5  1  0  0  0  0
 11 10  1  0  0  0  0
 12 11  2  0  0  0  0
 14 11  1  0  0  0  0
 14 19  1  0  0  0  0
 15 14  2  0  0  0  0
 16 15  1  0  0  0  0
 16 17  2  0  0  0  0
 17 18  1  0  0  0  0
 18 19  2  0  0  0  0
 18 25  1  0  0  0  0
 20 15  1  0  0  0  0
 21 16  1  0  0  0  0
 22 17  1  0  0  0  0
 22 24  2  0  0  0  0
 23 22  2  0  0  0  0
 25 26  1  0  0  0  0
 26 28  1  0  0  0  0
 26 27  1  0  0  0  0
 29 26  1  0  0  0  0
 30 31  1  1  0  0  0
 30  1  1  0  0  0  0
 32 30  1  0  0  0  0
 32 35  1  0  0  0  0
 32 34  1  0  0  0  0
 33 32  1  0  0  0  0
 36 30  1  0  0  0  0
 37 36  1  0  0  0  0
 37 41  1  0  0  0  0
 38 39  1  0  0  0  0
 38 37  2  0  0  0  0
 39 40  2  0  0  0  0
 40 42  1  0  0  0  0
 40 41  1  0  0  0  0
 41 43  1  0  0  0  0
 43 45  1  0  0  0  0
 44 43  1  0  0  0  0
 46 43  1  0  0  0  0
M  END
>  <MODEL>
20

>  <REMARK>
 VINA RESULT:    -6.617      2.543      3.442
 INTER + INTRA:         -10.131
 INTER:                  -9.962
 INTRA:                  -0.170
 UNBOUND:                -0.227
  Name = 
  10 active torsions:
  status: ('A' for Active; 'I' for Inactive)
    1  A    between atoms: C_1  and  C_2
    2  A    between atoms: C_2  and  C_3
    3  A    between atoms: C_2  and  S_23
    4  A    between atoms: C_7  and  N_9
    5  A    between atoms: C_10  and  C_11
    6  A    between atoms: C_14  and  N_19
    7  A    between atoms: C_15  and  O_17
    8  A    between atoms: O_17  and  C_18
    9  A    between atoms: S_23  and  C_24
   10  A    between atoms: N_28  and  C_29
                            x       y       z     vdW  Elec       q    Type
                         _______ _______ _______ _____ _____    ______ ____

>  <TORSDO>
F 10

$$$$
=
 OpenBabel07192307433D

 46 48  0  0  1  0  0  0  0  0999 V2000
   -0.6170   11.6890   19.3690 C   0  0  0  0  0  0  0  0  0  0  0  0
    0.2600   12.7010   18.9680 C   0  0  0  0  0  0  0  0  0  0  0  0
    1.5270   12.3450   18.5390 C   0  0  0  0  0  0  0  0  0  0  0  0
    1.9750   11.0750   18.4860 N   0  0  0  0  0  0  0  0  0  0  0  0
    1.1430   10.1000   18.8800 C   0  0  0  0  0  0  0  0  0  0  0  0
   -0.1490   10.3670   19.3270 C   0  0  0  0  0  0  0  0  0  0  0  0
   -0.0200   13.7480   18.9940 H   0  0  0  0  0  0  0  0  0  0  0  0
    2.2420   13.0980   18.2170 H   0  0  0  0  0  0  0  0  0  0  0  0
   -0.7970    9.5540   19.6440 H   0  0  0  0  0  0  0  0  0  0  0  0
    1.5470    8.7620   18.8580 N   0  0  0  0  0  0  0  0  0  0  0  0
    1.7550    7.9540   19.9540 C   0  0  0  0  0  0  0  0  0  0  0  0
    1.6350    8.2310   21.1400 O   0  0  0  0  0  0  0  0  0  0  0  0
    1.7070    8.3250   17.9590 H   0  0  0  0  0  0  0  0  0  0  0  0
    2.1820    6.5680   19.5700 C   0  0  0  0  0  0  0  0  0  0  0  0
    3.1040    6.3830   18.5420 C   0  0  0  0  0  0  0  0  0  0  0  0
    3.4760    5.0830   18.2150 C   0  0  0  0  0  0  0  0  0  0  0  0
    2.9100    4.0300   18.9380 C   0  0  0  0  0  0  0  0  0  0  0  0
    1.9910    4.2860   19.9460 C   0  0  0  0  0  0  0  0  0  0  0  0
    1.6130    5.5450   20.2790 N   0  0  0  0  0  0  0  0  0  0  0  0
    3.5190    7.2340   18.0090 H   0  0  0  0  0  0  0  0  0  0  0  0
    4.1910    4.8990   17.4160 H   0  0  0  0  0  0  0  0  0  0  0  0
    3.2870    2.6760   18.6260 N   0  0  0  0  0  0  0  0  0  0  0  0
    2.6530    2.1150   17.7220 O   0  0  0  0  0  0  0  0  0  0  0  0
    4.2490    2.1940   19.2390 O   0  0  0  0  0  0  0  0  0  0  0  0
    1.4040    3.2240   20.5990 O   0  0  0  0  0  0  0  0  0  0  0  0
    1.9920    2.9140   21.8580 C   0  0  0  0  0  0  0  0  0  0  0  0
    2.9660    3.4040   21.9690 H   0  0  0  0  0  0  0  0  0  0  0  0
    2.0780    1.8320   22.0000 H   0  0  0  0  0  0  0  0  0  0  0  0
    1.3320    3.3020   22.6400 H   0  0  0  0  0  0  0  0  0  0  0  0
   -2.0230   11.9750   19.8700 C   0  0  2  0  0  0  0  0  0  0  0  0
   -2.2580   11.2280   20.6380 H   0  0  0  0  0  0  0  0  0  0  0  0
   -3.0810   11.8560   18.7690 C   0  0  0  0  0  0  0  0  0  0  0  0
   -3.2370   12.8260   18.2830 H   0  0  0  0  0  0  0  0  0  0  0  0
   -4.0520   11.5240   19.1530 H   0  0  0  0  0  0  0  0  0  0  0  0
   -2.7720   11.1510   17.9930 H   0  0  0  0  0  0  0  0  0  0  0  0
   -2.0790   13.6420   20.6360 S   0  0  0  0  0  0  0  0  0  0  0  0
   -3.0040   13.3320   22.0600 C   0  0  0  0  0  0  0  0  0  0  0  0
   -4.1920   12.7770   22.1270 N   0  0  0  0  0  0  0  0  0  0  0  0
   -4.5530   12.7140   23.4540 N   0  0  0  0  0  0  0  0  0  0  0  0
   -3.5690   13.2300   24.1560 C   0  0  0  0  0  0  0  0  0  0  0  0
   -2.5710   13.6310   23.3190 N   0  0  0  0  0  0  0  0  0  0  0  0
   -3.5390   13.3300   25.2330 H   0  0  0  0  0  0  0  0  0  0  0  0
   -1.3310   14.2420   23.7160 C   0  0  0  0  0  0  0  0  0  0  0  0
   -1.5370   15.2450   24.0940 H   0  0  0  0  0  0  0  0  0  0  0  0
   -0.6640   14.2820   22.8490 H   0  0  0  0  0  0  0  0  0  0  0  0
   -0.8640   13.6440   24.5030 H   0  0  0  0  0  0  0  0  0  0  0  0
  1 30  1  0  0  0  0
  2  7  1  0  0  0  0
  2  1  2  0  0  0  0
  3  2  1  0  0  0  0
  4  3  2  0  0  0  0
  4  5  1  0  0  0  0
  5  6  2  0  0  0  0
  6  1  1  0  0  0  0
  6  9  1  0  0  0  0
  8  3  1  0  0  0  0
 10  5  1  0  0  0  0
 10 11  1  0  0  0  0
 11 12  2  0  0  0  0
 13 10  1  0  0  0  0
 14 11  1  0  0  0  0
 14 19  1  0  0  0  0
 15 14  2  0  0  0  0
 16 15  1  0  0  0  0
 16 17  2  0  0  0  0
 17 18  1  0  0  0  0
 18 19  2  0  0  0  0
 18 25  1  0  0  0  0
 20 15  1  0  0  0  0
 21 16  1  0  0  0  0
 22 17  1  0  0  0  0
 22 24  2  0  0  0  0
 23 22  2  0  0  0  0
 25 26  1  0  0  0  0
 26 27  1  0  0  0  0
 26 28  1  0  0  0  0
 26 29  1  0  0  0  0
 30 36  1  0  0  0  0
 30 31  1  1  0  0  0
 32 34  1  0  0  0  0
 32 30  1  0  0  0  0
 33 32  1  0  0  0  0
 35 32  1  0  0  0  0
 36 37  1  0  0  0  0
 37 38  2  0  0  0  0
 37 41  1  0  0  0  0
 38 39  1  0  0  0  0
 39 40  2  0  0  0  0
 40 42  1  0  0  0  0
 41 43  1  0  0  0  0
 41 40  1  0  0  0  0
 43 44  1  0  0  0  0
 43 46  1  0  0  0  0
 45 43  1  0  0  0  0
M  END
>  <MODEL>
21

>  <REMARK>
 VINA RESULT:    -6.605      2.730      4.262
 INTER + INTRA:         -10.113
 INTER:                  -9.372
 INTRA:                  -0.742
 UNBOUND:                -0.227
  Name = 
  10 active torsions:
  status: ('A' for Active; 'I' for Inactive)
    1  A    between atoms: C_1  and  C_2
    2  A    between atoms: C_2  and  C_3
    3  A    between atoms: C_2  and  S_23
    4  A    between atoms: C_7  and  N_9
    5  A    between atoms: C_10  and  C_11
    6  A    between atoms: C_14  and  N_19
    7  A    between atoms: C_15  and  O_17
    8  A    between atoms: O_17  and  C_18
    9  A    between atoms: S_23  and  C_24
   10  A    between atoms: N_28  and  C_29
                            x       y       z     vdW  Elec       q    Type
                         _______ _______ _______ _____ _____    ______ ____

>  <TORSDO>
F 10

$$$$
=
 OpenBabel07192307433D

 46 48  0  0  1  0  0  0  0  0999 V2000
   -0.6400   12.2450   20.8340 C   0  0  0  0  0  0  0  0  0  0  0  0
   -1.7740   12.4090   20.0340 C   0  0  0  0  0  0  0  0  0  0  0  0
   -2.0280   11.4710   19.0470 C   0  0  0  0  0  0  0  0  0  0  0  0
   -1.2420   10.4020   18.8040 N   0  0  0  0  0  0  0  0  0  0  0  0
   -0.1450   10.2460   19.5600 C   0  0  0  0  0  0  0  0  0  0  0  0
    0.1870   11.1410   20.5750 C   0  0  0  0  0  0  0  0  0  0  0  0
   -2.4490   13.2480   20.1570 H   0  0  0  0  0  0  0  0  0  0  0  0
   -2.8980   11.5570   18.4020 H   0  0  0  0  0  0  0  0  0  0  0  0
    1.0850   10.9880   21.1670 H   0  0  0  0  0  0  0  0  0  0  0  0
    0.7160    9.1650   19.3570 N   0  0  0  0  0  0  0  0  0  0  0  0
    1.7960    9.1320   18.5020 C   0  0  0  0  0  0  0  0  0  0  0  0
    2.2130   10.0150   17.7650 O   0  0  0  0  0  0  0  0  0  0  0  0
    0.5480    8.3140   19.8770 H   0  0  0  0  0  0  0  0  0  0  0  0
    2.5080    7.8110   18.5300 C   0  0  0  0  0  0  0  0  0  0  0  0
    3.4020    7.4790   17.5150 C   0  0  0  0  0  0  0  0  0  0  0  0
    4.0430    6.2460   17.5780 C   0  0  0  0  0  0  0  0  0  0  0  0
    3.7610    5.4060   18.6580 C   0  0  0  0  0  0  0  0  0  0  0  0
    2.8530    5.7970   19.6310 C   0  0  0  0  0  0  0  0  0  0  0  0
    2.2150    6.9930   19.5890 N   0  0  0  0  0  0  0  0  0  0  0  0
    3.5900    8.1670   16.6950 H   0  0  0  0  0  0  0  0  0  0  0  0
    4.7460    5.9510   16.8010 H   0  0  0  0  0  0  0  0  0  0  0  0
    4.4210    4.1300   18.7500 N   0  0  0  0  0  0  0  0  0  0  0  0
    3.8710    3.1760   18.1820 O   0  0  0  0  0  0  0  0  0  0  0  0
    5.5100    4.0900   19.3380 O   0  0  0  0  0  0  0  0  0  0  0  0
    2.5490    4.9220   20.6510 O   0  0  0  0  0  0  0  0  0  0  0  0
    1.2500    4.3480   20.5620 C   0  0  0  0  0  0  0  0  0  0  0  0
    0.5460    4.8610   21.2260 H   0  0  0  0  0  0  0  0  0  0  0  0
    1.2760    3.2730   20.7720 H   0  0  0  0  0  0  0  0  0  0  0  0
    0.8960    4.4790   19.5350 H   0  0  0  0  0  0  0  0  0  0  0  0
   -0.2650   13.2260   21.9330 C   0  0  2  0  0  0  0  0  0  0  0  0
    0.6900   12.8950   22.3590 H   0  0  0  0  0  0  0  0  0  0  0  0
   -1.2910   13.2660   23.0690 C   0  0  0  0  0  0  0  0  0  0  0  0
   -1.1620   14.1730   23.6700 H   0  0  0  0  0  0  0  0  0  0  0  0
   -1.2020   12.4090   23.7470 H   0  0  0  0  0  0  0  0  0  0  0  0
   -2.3150   13.2770   22.6820 H   0  0  0  0  0  0  0  0  0  0  0  0
   -0.0370   14.9000   21.2160 S   0  0  0  0  0  0  0  0  0  0  0  0
    1.2800   14.6310   20.1330 C   0  0  0  0  0  0  0  0  0  0  0  0
    1.2110   14.4350   18.8370 N   0  0  0  0  0  0  0  0  0  0  0  0
    2.4960   14.2720   18.3680 N   0  0  0  0  0  0  0  0  0  0  0  0
    3.3080   14.3780   19.3950 C   0  0  0  0  0  0  0  0  0  0  0  0
    2.5860   14.6050   20.5280 N   0  0  0  0  0  0  0  0  0  0  0  0
    4.3860   14.2980   19.3650 H   0  0  0  0  0  0  0  0  0  0  0  0
    3.1220   14.7780   21.8510 C   0  0  0  0  0  0  0  0  0  0  0  0
    2.6690   15.6630   22.3030 H   0  0  0  0  0  0  0  0  0  0  0  0
    4.2080   14.8900   21.7800 H   0  0  0  0  0  0  0  0  0  0  0  0
    2.8880   13.8990   22.4580 H   0  0  0  0  0  0  0  0  0  0  0  0
  1 30  1  0  0  0  0
  2  7  1  0  0  0  0
  2  1  2  0  0  0  0
  3  2  1  0  0  0  0
  4  3  2  0  0  0  0
  4  5  1  0  0  0  0
  5  6  2  0  0  0  0
  6  1  1  0  0  0  0
  6  9  1  0  0  0  0
  8  3  1  0  0  0  0
 10  5  1  0  0  0  0
 10 13  1  0  0  0  0
 11 14  1  0  0  0  0
 11 10  1  0  0  0  0
 12 11  2  0  0  0  0
 14 19  1  0  0  0  0
 15 16  1  0  0  0  0
 15 14  2  0  0  0  0
 16 17  2  0  0  0  0
 17 22  1  0  0  0  0
 17 18  1  0  0  0  0
 18 25  1  0  0  0  0
 19 18  2  0  0  0  0
 20 15  1  0  0  0  0
 21 16  1  0  0  0  0
 22 24  2  0  0  0  0
 23 22  2  0  0  0  0
 26 25  1  0  0  0  0
 26 28  1  0  0  0  0
 26 27  1  0  0  0  0
 29 26  1  0  0  0  0
 30 31  1  1  0  0  0
 30 32  1  0  0  0  0
 32 33  1  0  0  0  0
 32 34  1  0  0  0  0
 35 32  1  0  0  0  0
 36 30  1  0  0  0  0
 37 41  1  0  0  0  0
 37 36  1  0  0  0  0
 38 37  2  0  0  0  0
 39 38  1  0  0  0  0
 39 40  2  0  0  0  0
 40 41  1  0  0  0  0
 41 43  1  0  0  0  0
 42 40  1  0  0  0  0
 43 44  1  0  0  0  0
 43 46  1  0  0  0  0
 45 43  1  0  0  0  0
M  END
>  <MODEL>
22

>  <REMARK>
 VINA RESULT:    -6.585      2.879      4.497
 INTER + INTRA:         -10.084
 INTER:                  -8.984
 INTRA:                  -1.100
 UNBOUND:                -0.227
  Name = 
  10 active torsions:
  status: ('A' for Active; 'I' for Inactive)
    1  A    between atoms: C_1  and  C_2
    2  A    between atoms: C_2  and  C_3
    3  A    between atoms: C_2  and  S_23
    4  A    between atoms: C_7  and  N_9
    5  A    between atoms: C_10  and  C_11
    6  A    between atoms: C_14  and  N_19
    7  A    between atoms: C_15  and  O_17
    8  A    between atoms: O_17  and  C_18
    9  A    between atoms: S_23  and  C_24
   10  A    between atoms: N_28  and  C_29
                            x       y       z     vdW  Elec       q    Type
                         _______ _______ _______ _____ _____    ______ ____

>  <TORSDO>
F 10

$$$$
=
 OpenBabel07192307433D

 46 48  0  0  1  0  0  0  0  0999 V2000
   -0.0580   11.3000   20.9340 C   0  0  0  0  0  0  0  0  0  0  0  0
   -0.2550   12.0120   19.7480 C   0  0  0  0  0  0  0  0  0  0  0  0
    0.1040   11.4140   18.5520 C   0  0  0  0  0  0  0  0  0  0  0  0
    0.6400   10.1800   18.4570 N   0  0  0  0  0  0  0  0  0  0  0  0
    0.8430    9.4970   19.5930 C   0  0  0  0  0  0  0  0  0  0  0  0
    0.5120   10.0210   20.8410 C   0  0  0  0  0  0  0  0  0  0  0  0
   -0.6680   13.0140   19.7400 H   0  0  0  0  0  0  0  0  0  0  0  0
   -0.0320   11.9290   17.6050 H   0  0  0  0  0  0  0  0  0  0  0  0
    0.6940    9.4430   21.7420 H   0  0  0  0  0  0  0  0  0  0  0  0
    1.4020    8.2160   19.5670 N   0  0  0  0  0  0  0  0  0  0  0  0
    2.3720    7.7660   18.6990 C   0  0  0  0  0  0  0  0  0  0  0  0
    2.9300    8.3760   17.7960 O   0  0  0  0  0  0  0  0  0  0  0  0
    1.0760    7.5380   20.2440 H   0  0  0  0  0  0  0  0  0  0  0  0
    2.7460    6.3360   18.9510 C   0  0  0  0  0  0  0  0  0  0  0  0
    2.0700    5.5990   19.9200 C   0  0  0  0  0  0  0  0  0  0  0  0
    2.4450    4.2750   20.1250 C   0  0  0  0  0  0  0  0  0  0  0  0
    3.4770    3.7510   19.3440 C   0  0  0  0  0  0  0  0  0  0  0  0
    4.1150    4.5440   18.4000 C   0  0  0  0  0  0  0  0  0  0  0  0
    3.7660    5.8370   18.1860 N   0  0  0  0  0  0  0  0  0  0  0  0
    1.2700    6.0500   20.5020 H   0  0  0  0  0  0  0  0  0  0  0  0
    1.9410    3.6700   20.8750 H   0  0  0  0  0  0  0  0  0  0  0  0
    3.8760    2.3800   19.5290 N   0  0  0  0  0  0  0  0  0  0  0  0
    4.6120    2.1390   20.4950 O   0  0  0  0  0  0  0  0  0  0  0  0
    3.4120    1.5390   18.7480 O   0  0  0  0  0  0  0  0  0  0  0  0
    5.1710    4.0170   17.6890 O   0  0  0  0  0  0  0  0  0  0  0  0
    4.9900    4.0320   16.2770 C   0  0  0  0  0  0  0  0  0  0  0  0
    5.9550    4.0540   15.7560 H   0  0  0  0  0  0  0  0  0  0  0  0
    4.3580    4.8710   15.9660 H   0  0  0  0  0  0  0  0  0  0  0  0
    4.4800    3.1070   15.9940 H   0  0  0  0  0  0  0  0  0  0  0  0
   -0.4030   11.8720   22.2990 C   0  0  2  0  0  0  0  0  0  0  0  0
    0.5290   11.9530   22.8700 H   0  0  0  0  0  0  0  0  0  0  0  0
   -1.3570   10.9750   23.0940 C   0  0  0  0  0  0  0  0  0  0  0  0
   -0.8240   10.4860   23.9190 H   0  0  0  0  0  0  0  0  0  0  0  0
   -1.8020   10.1840   22.4790 H   0  0  0  0  0  0  0  0  0  0  0  0
   -2.1750   11.5520   23.5350 H   0  0  0  0  0  0  0  0  0  0  0  0
   -1.1190   13.5510   22.1030 S   0  0  0  0  0  0  0  0  0  0  0  0
   -2.8100   13.2060   22.1250 C   0  0  0  0  0  0  0  0  0  0  0  0
   -3.5210   12.6760   21.1570 N   0  0  0  0  0  0  0  0  0  0  0  0
   -4.8200   12.5690   21.6000 N   0  0  0  0  0  0  0  0  0  0  0  0
   -4.8580   13.0340   22.8290 C   0  0  0  0  0  0  0  0  0  0  0  0
   -3.6130   13.4450   23.2010 N   0  0  0  0  0  0  0  0  0  0  0  0
   -5.7340   13.0910   23.4610 H   0  0  0  0  0  0  0  0  0  0  0  0
   -3.2570   14.0110   24.4740 C   0  0  0  0  0  0  0  0  0  0  0  0
   -2.3210   14.5640   24.3640 H   0  0  0  0  0  0  0  0  0  0  0  0
   -3.1470   13.2020   25.2020 H   0  0  0  0  0  0  0  0  0  0  0  0
   -4.0450   14.6920   24.8050 H   0  0  0  0  0  0  0  0  0  0  0  0
  1 30  1  0  0  0  0
  2  1  2  0  0  0  0
  3  2  1  0  0  0  0
  4  3  2  0  0  0  0
  4  5  1  0  0  0  0
  5  6  2  0  0  0  0
  6  1  1  0  0  0  0
  6  9  1  0  0  0  0
  7  2  1  0  0  0  0
  8  3  1  0  0  0  0
 10  5  1  0  0  0  0
 10 13  1  0  0  0  0
 11 14  1  0  0  0  0
 11 10  1  0  0  0  0
 12 11  2  0  0  0  0
 14 15  2  0  0  0  0
 15 16  1  0  0  0  0
 15 20  1  0  0  0  0
 16 21  1  0  0  0  0
 17 22  1  0  0  0  0
 17 16  2  0  0  0  0
 18 17  1  0  0  0  0
 19 18  2  0  0  0  0
 19 14  1  0  0  0  0
 22 23  2  0  0  0  0
 24 22  2  0  0  0  0
 25 18  1  0  0  0  0
 26 25  1  0  0  0  0
 27 26  1  0  0  0  0
 28 26  1  0  0  0  0
 29 26  1  0  0  0  0
 30 31  1  1  0  0  0
 30 32  1  0  0  0  0
 32 35  1  0  0  0  0
 32 33  1  0  0  0  0
 34 32  1  0  0  0  0
 36 37  1  0  0  0  0
 36 30  1  0  0  0  0
 37 41  1  0  0  0  0
 38 39  1  0  0  0  0
 38 37  2  0  0  0  0
 39 40  2  0  0  0  0
 40 41  1  0  0  0  0
 40 42  1  0  0  0  0
 41 43  1  0  0  0  0
 43 46  1  0  0  0  0
 43 45  1  0  0  0  0
 44 43  1  0  0  0  0
M  END
>  <MODEL>
23

>  <REMARK>
 VINA RESULT:    -6.558      2.432      3.542
 INTER + INTRA:         -10.043
 INTER:                  -9.488
 INTRA:                  -0.556
 UNBOUND:                -0.227
  Name = 
  10 active torsions:
  status: ('A' for Active; 'I' for Inactive)
    1  A    between atoms: C_1  and  C_2
    2  A    between atoms: C_2  and  C_3
    3  A    between atoms: C_2  and  S_23
    4  A    between atoms: C_7  and  N_9
    5  A    between atoms: C_10  and  C_11
    6  A    between atoms: C_14  and  N_19
    7  A    between atoms: C_15  and  O_17
    8  A    between atoms: O_17  and  C_18
    9  A    between atoms: S_23  and  C_24
   10  A    between atoms: N_28  and  C_29
                            x       y       z     vdW  Elec       q    Type
                         _______ _______ _______ _____ _____    ______ ____

>  <TORSDO>
F 10

$$$$
=
 OpenBabel07192307433D

 46 48  0  0  1  0  0  0  0  0999 V2000
   -1.1190   12.2680   20.2850 C   0  0  0  0  0  0  0  0  0  0  0  0
   -2.1450   12.4090   19.3470 C   0  0  0  0  0  0  0  0  0  0  0  0
   -2.2410   11.4760   18.3280 C   0  0  0  0  0  0  0  0  0  0  0  0
   -1.3990   10.4340   18.1790 N   0  0  0  0  0  0  0  0  0  0  0  0
   -0.4040   10.3000   19.0690 C   0  0  0  0  0  0  0  0  0  0  0  0
   -0.2330   11.1920   20.1260 C   0  0  0  0  0  0  0  0  0  0  0  0
   -2.8550   13.2270   19.3890 H   0  0  0  0  0  0  0  0  0  0  0  0
   -3.0230   11.5450   17.5770 H   0  0  0  0  0  0  0  0  0  0  0  0
    0.5860   11.0570   20.8270 H   0  0  0  0  0  0  0  0  0  0  0  0
    0.5090    9.2470   18.9680 N   0  0  0  0  0  0  0  0  0  0  0  0
    1.7400    9.2900   18.3530 C   0  0  0  0  0  0  0  0  0  0  0  0
    2.2750   10.2310   17.7830 O   0  0  0  0  0  0  0  0  0  0  0  0
    0.2600    8.3560   19.3810 H   0  0  0  0  0  0  0  0  0  0  0  0
    2.4650    7.9790   18.4310 C   0  0  0  0  0  0  0  0  0  0  0  0
    3.3740    7.6250   17.4380 C   0  0  0  0  0  0  0  0  0  0  0  0
    4.0280    6.4010   17.5460 C   0  0  0  0  0  0  0  0  0  0  0  0
    3.7420    5.5930   18.6490 C   0  0  0  0  0  0  0  0  0  0  0  0
    2.8190    6.0040   19.5990 C   0  0  0  0  0  0  0  0  0  0  0  0
    2.1690    7.1920   19.5120 N   0  0  0  0  0  0  0  0  0  0  0  0
    3.5660    8.2890   16.5990 H   0  0  0  0  0  0  0  0  0  0  0  0
    4.7430    6.0900   16.7870 H   0  0  0  0  0  0  0  0  0  0  0  0
    4.4140    4.3270   18.7890 N   0  0  0  0  0  0  0  0  0  0  0  0
    3.8680    3.3460   18.2670 O   0  0  0  0  0  0  0  0  0  0  0  0
    5.5080    4.3210   19.3680 O   0  0  0  0  0  0  0  0  0  0  0  0
    2.5120    5.1580   20.6430 O   0  0  0  0  0  0  0  0  0  0  0  0
    1.2880    4.4500   20.4820 C   0  0  0  0  0  0  0  0  0  0  0  0
    0.4270    5.1150   20.6200 H   0  0  0  0  0  0  0  0  0  0  0  0
    1.2330    3.5920   21.1600 H   0  0  0  0  0  0  0  0  0  0  0  0
    1.2540    4.0690   19.4570 H   0  0  0  0  0  0  0  0  0  0  0  0
   -0.9170   13.2450   21.4310 C   0  0  2  0  0  0  0  0  0  0  0  0
   -1.5550   14.1160   21.2390 H   0  0  0  0  0  0  0  0  0  0  0  0
    0.5270   13.7420   21.5400 C   0  0  0  0  0  0  0  0  0  0  0  0
    0.5560   14.8380   21.5330 H   0  0  0  0  0  0  0  0  0  0  0  0
    1.1560   13.3940   20.7130 H   0  0  0  0  0  0  0  0  0  0  0  0
    0.9940   13.4130   22.4730 H   0  0  0  0  0  0  0  0  0  0  0  0
   -1.4470   12.4670   23.0070 S   0  0  0  0  0  0  0  0  0  0  0  0
   -2.5870   13.6240   23.5920 C   0  0  0  0  0  0  0  0  0  0  0  0
   -2.3710   14.5700   24.4760 N   0  0  0  0  0  0  0  0  0  0  0  0
   -3.5480   15.2670   24.6420 N   0  0  0  0  0  0  0  0  0  0  0  0
   -4.4440   14.7230   23.8500 C   0  0  0  0  0  0  0  0  0  0  0  0
   -3.8830   13.6850   23.1680 N   0  0  0  0  0  0  0  0  0  0  0  0
   -5.4740   15.0370   23.7430 H   0  0  0  0  0  0  0  0  0  0  0  0
   -4.5480   12.8480   22.2070 C   0  0  0  0  0  0  0  0  0  0  0  0
   -5.4010   12.3670   22.6900 H   0  0  0  0  0  0  0  0  0  0  0  0
   -3.8390   12.1020   21.8370 H   0  0  0  0  0  0  0  0  0  0  0  0
   -4.9000   13.4580   21.3710 H   0  0  0  0  0  0  0  0  0  0  0  0
  1 30  1  0  0  0  0
  2  7  1  0  0  0  0
  2  1  2  0  0  0  0
  3  2  1  0  0  0  0
  4  3  2  0  0  0  0
  4  5  1  0  0  0  0
  5  6  2  0  0  0  0
  6  1  1  0  0  0  0
  6  9  1  0  0  0  0
  8  3  1  0  0  0  0
 10  5  1  0  0  0  0
 10 13  1  0  0  0  0
 11 14  1  0  0  0  0
 11 10  1  0  0  0  0
 12 11  2  0  0  0  0
 14 19  1  0  0  0  0
 15 16  1  0  0  0  0
 15 14  2  0  0  0  0
 16 17  2  0  0  0  0
 17 22  1  0  0  0  0
 17 18  1  0  0  0  0
 18 25  1  0  0  0  0
 19 18  2  0  0  0  0
 20 15  1  0  0  0  0
 21 16  1  0  0  0  0
 22 24  2  0  0  0  0
 23 22  2  0  0  0  0
 26 27  1  0  0  0  0
 26 25  1  0  0  0  0
 26 28  1  0  0  0  0
 29 26  1  0  0  0  0
 30 31  1  6  0  0  0
 30 32  1  0  0  0  0
 30 36  1  0  0  0  0
 32 35  1  0  0  0  0
 33 32  1  0  0  0  0
 34 32  1  0  0  0  0
 36 37  1  0  0  0  0
 37 38  2  0  0  0  0
 38 39  1  0  0  0  0
 40 39  2  0  0  0  0
 41 37  1  0  0  0  0
 41 40  1  0  0  0  0
 42 40  1  0  0  0  0
 43 44  1  0  0  0  0
 43 41  1  0  0  0  0
 45 43  1  0  0  0  0
 46 43  1  0  0  0  0
M  END
>  <MODEL>
24

>  <REMARK>
 VINA RESULT:    -6.547      3.150      4.646
 INTER + INTRA:         -10.027
 INTER:                  -9.118
 INTRA:                  -0.909
 UNBOUND:                -0.227
  Name = 
  10 active torsions:
  status: ('A' for Active; 'I' for Inactive)
    1  A    between atoms: C_1  and  C_2
    2  A    between atoms: C_2  and  C_3
    3  A    between atoms: C_2  and  S_23
    4  A    between atoms: C_7  and  N_9
    5  A    between atoms: C_10  and  C_11
    6  A    between atoms: C_14  and  N_19
    7  A    between atoms: C_15  and  O_17
    8  A    between atoms: O_17  and  C_18
    9  A    between atoms: S_23  and  C_24
   10  A    between atoms: N_28  and  C_29
                            x       y       z     vdW  Elec       q    Type
                         _______ _______ _______ _____ _____    ______ ____

>  <TORSDO>
F 10

$$$$
=
 OpenBabel07192307433D

 46 48  0  0  1  0  0  0  0  0999 V2000
   -0.1080   10.8250   20.2780 C   0  0  0  0  0  0  0  0  0  0  0  0
   -1.0950   11.1270   19.3370 C   0  0  0  0  0  0  0  0  0  0  0  0
   -1.0370   10.5120   18.0980 C   0  0  0  0  0  0  0  0  0  0  0  0
   -0.0780    9.6350   17.7370 N   0  0  0  0  0  0  0  0  0  0  0  0
    0.8790    9.3490   18.6310 C   0  0  0  0  0  0  0  0  0  0  0  0
    0.8980    9.9220   19.9010 C   0  0  0  0  0  0  0  0  0  0  0  0
   -1.8920   11.8320   19.5450 H   0  0  0  0  0  0  0  0  0  0  0  0
   -1.7830   10.7160   17.3340 H   0  0  0  0  0  0  0  0  0  0  0  0
    1.6910    9.6720   20.6010 H   0  0  0  0  0  0  0  0  0  0  0  0
    1.9060    8.4540   18.3200 N   0  0  0  0  0  0  0  0  0  0  0  0
    2.3220    7.3890   19.0880 C   0  0  0  0  0  0  0  0  0  0  0  0
    1.8910    7.0160   20.1710 O   0  0  0  0  0  0  0  0  0  0  0  0
    2.4060    8.5840   17.4500 H   0  0  0  0  0  0  0  0  0  0  0  0
    3.4500    6.6320   18.4530 C   0  0  0  0  0  0  0  0  0  0  0  0
    4.1230    7.1720   17.3590 C   0  0  0  0  0  0  0  0  0  0  0  0
    5.1650    6.4400   16.7980 C   0  0  0  0  0  0  0  0  0  0  0  0
    5.4870    5.2040   17.3630 C   0  0  0  0  0  0  0  0  0  0  0  0
    4.7700    4.7230   18.4490 C   0  0  0  0  0  0  0  0  0  0  0  0
    3.7490    5.4180   19.0100 N   0  0  0  0  0  0  0  0  0  0  0  0
    3.8370    8.1400   16.9550 H   0  0  0  0  0  0  0  0  0  0  0  0
    5.7110    6.8290   15.9410 H   0  0  0  0  0  0  0  0  0  0  0  0
    6.5690    4.4340   16.8070 N   0  0  0  0  0  0  0  0  0  0  0  0
    7.6580    4.4990   17.3940 O   0  0  0  0  0  0  0  0  0  0  0  0
    6.3190    3.7240   15.8250 O   0  0  0  0  0  0  0  0  0  0  0  0
    5.0700    3.4730   18.9460 O   0  0  0  0  0  0  0  0  0  0  0  0
    3.9950    2.8440   19.6360 C   0  0  0  0  0  0  0  0  0  0  0  0
    4.1680    1.7660   19.7350 H   0  0  0  0  0  0  0  0  0  0  0  0
    3.0370    3.0430   19.1440 H   0  0  0  0  0  0  0  0  0  0  0  0
    3.9490    3.2690   20.6430 H   0  0  0  0  0  0  0  0  0  0  0  0
   -0.0730   11.4570   21.6600 C   0  0  2  0  0  0  0  0  0  0  0  0
    0.9770   11.5130   21.9710 H   0  0  0  0  0  0  0  0  0  0  0  0
   -0.8240   10.6310   22.7090 C   0  0  0  0  0  0  0  0  0  0  0  0
   -0.1900   10.4590   23.5870 H   0  0  0  0  0  0  0  0  0  0  0  0
   -1.1310    9.6490   22.3310 H   0  0  0  0  0  0  0  0  0  0  0  0
   -1.7230   11.1490   23.0560 H   0  0  0  0  0  0  0  0  0  0  0  0
   -0.7530   13.1600   21.5780 S   0  0  0  0  0  0  0  0  0  0  0  0
   -2.2350   12.9760   22.4440 C   0  0  0  0  0  0  0  0  0  0  0  0
   -2.3860   12.9010   23.7460 N   0  0  0  0  0  0  0  0  0  0  0  0
   -3.7320   12.7680   24.0060 N   0  0  0  0  0  0  0  0  0  0  0  0
   -4.3590   12.7690   22.8510 C   0  0  0  0  0  0  0  0  0  0  0  0
   -3.4560   12.9000   21.8390 N   0  0  0  0  0  0  0  0  0  0  0  0
   -5.4280   12.6810   22.7070 H   0  0  0  0  0  0  0  0  0  0  0  0
   -3.7610   12.9440   20.4350 C   0  0  0  0  0  0  0  0  0  0  0  0
   -2.8850   13.3100   19.8950 H   0  0  0  0  0  0  0  0  0  0  0  0
   -4.6180   13.6050   20.2800 H   0  0  0  0  0  0  0  0  0  0  0  0
   -4.0110   11.9390   20.0830 H   0  0  0  0  0  0  0  0  0  0  0  0
  1 30  1  0  0  0  0
  2  7  1  0  0  0  0
  2  1  2  0  0  0  0
  3  2  1  0  0  0  0
  4  3  2  0  0  0  0
  4  5  1  0  0  0  0
  5  6  2  0  0  0  0
  6  1  1  0  0  0  0
  6  9  1  0  0  0  0
  8  3  1  0  0  0  0
 10  5  1  0  0  0  0
 10 11  1  0  0  0  0
 11 12  2  0  0  0  0
 13 10  1  0  0  0  0
 14 19  1  0  0  0  0
 14 11  1  0  0  0  0
 15 14  2  0  0  0  0
 16 15  1  0  0  0  0
 16 17  2  0  0  0  0
 17 18  1  0  0  0  0
 18 25  1  0  0  0  0
 18 19  2  0  0  0  0
 20 15  1  0  0  0  0
 21 16  1  0  0  0  0
 22 17  1  0  0  0  0
 22 23  2  0  0  0  0
 24 22  2  0  0  0  0
 25 26  1  0  0  0  0
 26 27  1  0  0  0  0
 26 29  1  0  0  0  0
 28 26  1  0  0  0  0
 30 31  1  1  0  0  0
 30 32  1  0  0  0  0
 32 35  1  0  0  0  0
 32 33  1  0  0  0  0
 34 32  1  0  0  0  0
 36 30  1  0  0  0  0
 36 37  1  0  0  0  0
 37 38  2  0  0  0  0
 38 39  1  0  0  0  0
 40 39  2  0  0  0  0
 41 37  1  0  0  0  0
 41 40  1  0  0  0  0
 42 40  1  0  0  0  0
 43 41  1  0  0  0  0
 44 43  1  0  0  0  0
 45 43  1  0  0  0  0
 46 43  1  0  0  0  0
M  END
>  <MODEL>
25

>  <REMARK>
 VINA RESULT:    -6.544      2.651      4.181
 INTER + INTRA:         -10.022
 INTER:                  -9.937
 INTRA:                  -0.086
 UNBOUND:                -0.227
  Name = 
  10 active torsions:
  status: ('A' for Active; 'I' for Inactive)
    1  A    between atoms: C_1  and  C_2
    2  A    between atoms: C_2  and  C_3
    3  A    between atoms: C_2  and  S_23
    4  A    between atoms: C_7  and  N_9
    5  A    between atoms: C_10  and  C_11
    6  A    between atoms: C_14  and  N_19
    7  A    between atoms: C_15  and  O_17
    8  A    between atoms: O_17  and  C_18
    9  A    between atoms: S_23  and  C_24
   10  A    between atoms: N_28  and  C_29
                            x       y       z     vdW  Elec       q    Type
                         _______ _______ _______ _____ _____    ______ ____

>  <TORSDO>
F 10

$$$$
=
 OpenBabel07192307433D

 46 48  0  0  1  0  0  0  0  0999 V2000
    4.2890    5.9020   18.5160 C   0  0  0  0  0  0  0  0  0  0  0  0
    4.3760    6.1840   17.1500 C   0  0  0  0  0  0  0  0  0  0  0  0
    3.6330    7.2380   16.6440 C   0  0  0  0  0  0  0  0  0  0  0  0
    2.8210    8.0130   17.3910 N   0  0  0  0  0  0  0  0  0  0  0  0
    2.7230    7.7400   18.7000 C   0  0  0  0  0  0  0  0  0  0  0  0
    3.4340    6.6990   19.2930 C   0  0  0  0  0  0  0  0  0  0  0  0
    4.9960    5.5990   16.4800 H   0  0  0  0  0  0  0  0  0  0  0  0
    3.6710    7.4940   15.5890 H   0  0  0  0  0  0  0  0  0  0  0  0
    3.3290    6.5010   20.3560 H   0  0  0  0  0  0  0  0  0  0  0  0
    1.8940    8.4990   19.5290 N   0  0  0  0  0  0  0  0  0  0  0  0
    1.2270    8.0510   20.6480 C   0  0  0  0  0  0  0  0  0  0  0  0
    1.2220    6.9280   21.1340 O   0  0  0  0  0  0  0  0  0  0  0  0
    1.7550    9.4760   19.3030 H   0  0  0  0  0  0  0  0  0  0  0  0
    0.4230    9.1330   21.3070 C   0  0  0  0  0  0  0  0  0  0  0  0
    0.0880    9.0300   22.6550 C   0  0  0  0  0  0  0  0  0  0  0  0
   -0.6570   10.0550   23.2300 C   0  0  0  0  0  0  0  0  0  0  0  0
   -1.0260   11.1370   22.4280 C   0  0  0  0  0  0  0  0  0  0  0  0
   -0.6650   11.1720   21.0890 C   0  0  0  0  0  0  0  0  0  0  0  0
    0.0590   10.1830   20.5070 N   0  0  0  0  0  0  0  0  0  0  0  0
    0.4020    8.1690   23.2390 H   0  0  0  0  0  0  0  0  0  0  0  0
   -0.9390   10.0070   24.2800 H   0  0  0  0  0  0  0  0  0  0  0  0
   -1.7880   12.2140   23.0030 N   0  0  0  0  0  0  0  0  0  0  0  0
   -3.0030   12.0240   23.1450 O   0  0  0  0  0  0  0  0  0  0  0  0
   -1.1680   13.2230   23.3650 O   0  0  0  0  0  0  0  0  0  0  0  0
   -1.0970   12.2220   20.3080 O   0  0  0  0  0  0  0  0  0  0  0  0
   -2.1040   11.8730   19.3640 C   0  0  0  0  0  0  0  0  0  0  0  0
   -2.2270   12.6590   18.6100 H   0  0  0  0  0  0  0  0  0  0  0  0
   -3.0550   11.6540   19.8600 H   0  0  0  0  0  0  0  0  0  0  0  0
   -1.7790   10.9650   18.8480 H   0  0  0  0  0  0  0  0  0  0  0  0
    5.0500    4.7590   19.1660 C   0  0  2  0  0  0  0  0  0  0  0  0
    4.9590    4.8770   20.2530 H   0  0  0  0  0  0  0  0  0  0  0  0
    6.5430    4.7690   18.8220 C   0  0  0  0  0  0  0  0  0  0  0  0
    6.6860    4.7170   17.7370 H   0  0  0  0  0  0  0  0  0  0  0  0
    7.0820    3.9220   19.2630 H   0  0  0  0  0  0  0  0  0  0  0  0
    7.0260    5.6870   19.1690 H   0  0  0  0  0  0  0  0  0  0  0  0
    4.2920    3.1580   18.6850 S   0  0  0  0  0  0  0  0  0  0  0  0
    2.9050    3.1150   19.7110 C   0  0  0  0  0  0  0  0  0  0  0  0
    2.8660    2.7500   20.9720 N   0  0  0  0  0  0  0  0  0  0  0  0
    1.5650    2.8760   21.4050 N   0  0  0  0  0  0  0  0  0  0  0  0
    0.8520    3.3170   20.3930 C   0  0  0  0  0  0  0  0  0  0  0  0
    1.6560    3.4840   19.3050 N   0  0  0  0  0  0  0  0  0  0  0  0
   -0.2100    3.5230   20.4030 H   0  0  0  0  0  0  0  0  0  0  0  0
    1.2400    3.9530   18.0110 C   0  0  0  0  0  0  0  0  0  0  0  0
    0.3430    3.4090   17.7110 H   0  0  0  0  0  0  0  0  0  0  0  0
    2.0530    3.7880   17.2980 H   0  0  0  0  0  0  0  0  0  0  0  0
    1.0170    5.0220   18.0650 H   0  0  0  0  0  0  0  0  0  0  0  0
  1 30  1  0  0  0  0
  1  6  1  0  0  0  0
  2  1  2  0  0  0  0
  3  2  1  0  0  0  0
  3  4  2  0  0  0  0
  4  5  1  0  0  0  0
  5  6  2  0  0  0  0
  5 10  1  0  0  0  0
  6  9  1  0  0  0  0
  7  2  1  0  0  0  0
  8  3  1  0  0  0  0
 10 11  1  0  0  0  0
 11 12  2  0  0  0  0
 11 14  1  0  0  0  0
 13 10  1  0  0  0  0
 14 15  2  0  0  0  0
 15 16  1  0  0  0  0
 15 20  1  0  0  0  0
 16 21  1  0  0  0  0
 17 22  1  0  0  0  0
 17 16  2  0  0  0  0
 18 17  1  0  0  0  0
 19 18  2  0  0  0  0
 19 14  1  0  0  0  0
 22 23  2  0  0  0  0
 22 24  2  0  0  0  0
 25 18  1  0  0  0  0
 26 28  1  0  0  0  0
 26 25  1  0  0  0  0
 27 26  1  0  0  0  0
 29 26  1  0  0  0  0
 30 31  1  1  0  0  0
 32 30  1  0  0  0  0
 32 35  1  0  0  0  0
 32 34  1  0  0  0  0
 33 32  1  0  0  0  0
 36 30  1  0  0  0  0
 36 37  1  0  0  0  0
 37 38  2  0  0  0  0
 38 39  1  0  0  0  0
 40 42  1  0  0  0  0
 40 39  2  0  0  0  0
 41 37  1  0  0  0  0
 41 40  1  0  0  0  0
 43 46  1  0  0  0  0
 43 41  1  0  0  0  0
 44 43  1  0  0  0  0
 45 43  1  0  0  0  0
M  END
>  <MODEL>
26

>  <REMARK>
 VINA RESULT:    -6.538      3.738      8.732
 INTER + INTRA:         -10.013
 INTER:                  -9.259
 INTRA:                  -0.755
 UNBOUND:                -0.227
  Name = 
  10 active torsions:
  status: ('A' for Active; 'I' for Inactive)
    1  A    between atoms: C_1  and  C_2
    2  A    between atoms: C_2  and  C_3
    3  A    between atoms: C_2  and  S_23
    4  A    between atoms: C_7  and  N_9
    5  A    between atoms: C_10  and  C_11
    6  A    between atoms: C_14  and  N_19
    7  A    between atoms: C_15  and  O_17
    8  A    between atoms: O_17  and  C_18
    9  A    between atoms: S_23  and  C_24
   10  A    between atoms: N_28  and  C_29
                            x       y       z     vdW  Elec       q    Type
                         _______ _______ _______ _____ _____    ______ ____

>  <TORSDO>
F 10

$$$$
=
 OpenBabel07192307433D

 46 48  0  0  1  0  0  0  0  0999 V2000
    2.7980    6.4750   18.8940 C   0  0  0  0  0  0  0  0  0  0  0  0
    3.3750    6.9980   17.7330 C   0  0  0  0  0  0  0  0  0  0  0  0
    3.1030    8.3130   17.3950 C   0  0  0  0  0  0  0  0  0  0  0  0
    2.3060    9.1270   18.1170 N   0  0  0  0  0  0  0  0  0  0  0  0
    1.7400    8.6280   19.2250 C   0  0  0  0  0  0  0  0  0  0  0  0
    1.9590    7.3160   19.6400 C   0  0  0  0  0  0  0  0  0  0  0  0
    4.0160    6.4050   17.0920 H   0  0  0  0  0  0  0  0  0  0  0  0
    3.5300    8.7620   16.5020 H   0  0  0  0  0  0  0  0  0  0  0  0
    1.4800    6.9410   20.5410 H   0  0  0  0  0  0  0  0  0  0  0  0
    0.8970    9.4150   20.0150 N   0  0  0  0  0  0  0  0  0  0  0  0
   -0.1570   10.1820   19.5700 C   0  0  0  0  0  0  0  0  0  0  0  0
   -0.5630   10.3310   18.4250 O   0  0  0  0  0  0  0  0  0  0  0  0
    1.0610    9.4380   21.0130 H   0  0  0  0  0  0  0  0  0  0  0  0
   -0.8530   10.9010   20.6880 C   0  0  0  0  0  0  0  0  0  0  0  0
   -0.6000   10.5430   22.0110 C   0  0  0  0  0  0  0  0  0  0  0  0
   -1.2640   11.2320   23.0200 C   0  0  0  0  0  0  0  0  0  0  0  0
   -2.1460   12.2530   22.6560 C   0  0  0  0  0  0  0  0  0  0  0  0
   -2.3570   12.5520   21.3180 C   0  0  0  0  0  0  0  0  0  0  0  0
   -1.7220   11.8910   20.3180 N   0  0  0  0  0  0  0  0  0  0  0  0
    0.0980    9.7430   22.2450 H   0  0  0  0  0  0  0  0  0  0  0  0
   -1.0930   10.9790   24.0640 H   0  0  0  0  0  0  0  0  0  0  0  0
   -2.8360   12.9890   23.6830 N   0  0  0  0  0  0  0  0  0  0  0  0
   -3.8770   12.4830   24.1260 O   0  0  0  0  0  0  0  0  0  0  0  0
   -2.3140   14.0360   24.0850 O   0  0  0  0  0  0  0  0  0  0  0  0
   -3.2790   13.5220   20.9880 O   0  0  0  0  0  0  0  0  0  0  0  0
   -4.4750   13.0170   20.4030 C   0  0  0  0  0  0  0  0  0  0  0  0
   -5.0070   12.3590   21.0990 H   0  0  0  0  0  0  0  0  0  0  0  0
   -4.2680   12.5020   19.4590 H   0  0  0  0  0  0  0  0  0  0  0  0
   -5.1250   13.8680   20.1840 H   0  0  0  0  0  0  0  0  0  0  0  0
    3.0210    5.0410   19.3440 C   0  0  2  0  0  0  0  0  0  0  0  0
    2.6950    4.3840   18.5300 H   0  0  0  0  0  0  0  0  0  0  0  0
    2.2060    4.6770   20.5890 C   0  0  0  0  0  0  0  0  0  0  0  0
    2.0610    5.5590   21.2230 H   0  0  0  0  0  0  0  0  0  0  0  0
    2.6940    3.9110   21.2020 H   0  0  0  0  0  0  0  0  0  0  0  0
    1.2130    4.3050   20.3210 H   0  0  0  0  0  0  0  0  0  0  0  0
    4.8100    4.7590   19.6450 S   0  0  0  0  0  0  0  0  0  0  0  0
    5.3750    4.4260   18.0480 C   0  0  0  0  0  0  0  0  0  0  0  0
    4.7400    3.7690   17.1050 N   0  0  0  0  0  0  0  0  0  0  0  0
    5.5490    3.7450   15.9920 N   0  0  0  0  0  0  0  0  0  0  0  0
    6.6530    4.3920   16.2920 C   0  0  0  0  0  0  0  0  0  0  0  0
    6.5870    4.8400   17.5770 N   0  0  0  0  0  0  0  0  0  0  0  0
    7.4950    4.5540   15.6320 H   0  0  0  0  0  0  0  0  0  0  0  0
    7.6030    5.5910   18.2630 C   0  0  0  0  0  0  0  0  0  0  0  0
    7.3840    6.6560   18.1600 H   0  0  0  0  0  0  0  0  0  0  0  0
    8.5760    5.3490   17.8260 H   0  0  0  0  0  0  0  0  0  0  0  0
    7.6040    5.3210   19.3220 H   0  0  0  0  0  0  0  0  0  0  0  0
  1 30  1  0  0  0  0
  1  6  1  0  0  0  0
  2  1  2  0  0  0  0
  3  2  1  0  0  0  0
  3  4  2  0  0  0  0
  4  5  1  0  0  0  0
  5  6  2  0  0  0  0
  5 10  1  0  0  0  0
  6  9  1  0  0  0  0
  7  2  1  0  0  0  0
  8  3  1  0  0  0  0
 10 13  1  0  0  0  0
 11 10  1  0  0  0  0
 11 14  1  0  0  0  0
 12 11  2  0  0  0  0
 14 15  2  0  0  0  0
 15 20  1  0  0  0  0
 15 16  1  0  0  0  0
 16 21  1  0  0  0  0
 17 16  2  0  0  0  0
 17 22  1  0  0  0  0
 18 17  1  0  0  0  0
 19 14  1  0  0  0  0
 19 18  2  0  0  0  0
 22 24  2  0  0  0  0
 22 23  2  0  0  0  0
 25 18  1  0  0  0  0
 26 25  1  0  0  0  0
 26 27  1  0  0  0  0
 28 26  1  0  0  0  0
 29 26  1  0  0  0  0
 30 31  1  6  0  0  0
 30 36  1  0  0  0  0
 30 32  1  0  0  0  0
 32 34  1  0  0  0  0
 32 33  1  0  0  0  0
 35 32  1  0  0  0  0
 37 36  1  0  0  0  0
 38 37  2  0  0  0  0
 39 40  2  0  0  0  0
 39 38  1  0  0  0  0
 40 41  1  0  0  0  0
 41 37  1  0  0  0  0
 41 43  1  0  0  0  0
 42 40  1  0  0  0  0
 43 46  1  0  0  0  0
 44 43  1  0  0  0  0
 45 43  1  0  0  0  0
M  END
>  <MODEL>
27

>  <REMARK>
 VINA RESULT:    -6.538      4.377      9.567
 INTER + INTRA:         -10.013
 INTER:                  -9.453
 INTRA:                  -0.560
 UNBOUND:                -0.227
  Name = 
  10 active torsions:
  status: ('A' for Active; 'I' for Inactive)
    1  A    between atoms: C_1  and  C_2
    2  A    between atoms: C_2  and  C_3
    3  A    between atoms: C_2  and  S_23
    4  A    between atoms: C_7  and  N_9
    5  A    between atoms: C_10  and  C_11
    6  A    between atoms: C_14  and  N_19
    7  A    between atoms: C_15  and  O_17
    8  A    between atoms: O_17  and  C_18
    9  A    between atoms: S_23  and  C_24
   10  A    between atoms: N_28  and  C_29
                            x       y       z     vdW  Elec       q    Type
                         _______ _______ _______ _____ _____    ______ ____

>  <TORSDO>
F 10

$$$$
=
 OpenBabel07192307433D

 46 48  0  0  1  0  0  0  0  0999 V2000
    4.4120    5.0230   17.0090 C   0  0  0  0  0  0  0  0  0  0  0  0
    3.8990    3.8450   17.5570 C   0  0  0  0  0  0  0  0  0  0  0  0
    2.8260    3.9350   18.4280 C   0  0  0  0  0  0  0  0  0  0  0  0
    2.2420    5.0970   18.7870 N   0  0  0  0  0  0  0  0  0  0  0  0
    2.7380    6.2320   18.2740 C   0  0  0  0  0  0  0  0  0  0  0  0
    3.8160    6.2350   17.3900 C   0  0  0  0  0  0  0  0  0  0  0  0
    4.3200    2.8730   17.3290 H   0  0  0  0  0  0  0  0  0  0  0  0
    2.3930    3.0460   18.8780 H   0  0  0  0  0  0  0  0  0  0  0  0
    4.1970    7.1730   16.9960 H   0  0  0  0  0  0  0  0  0  0  0  0
    2.1860    7.4700   18.6100 N   0  0  0  0  0  0  0  0  0  0  0  0
    1.6800    7.8320   19.8400 C   0  0  0  0  0  0  0  0  0  0  0  0
    1.6110    7.1630   20.8620 O   0  0  0  0  0  0  0  0  0  0  0  0
    2.1430    8.1860   17.8960 H   0  0  0  0  0  0  0  0  0  0  0  0
    1.1660    9.2410   19.8550 C   0  0  0  0  0  0  0  0  0  0  0  0
    1.1680    9.9960   18.6840 C   0  0  0  0  0  0  0  0  0  0  0  0
    0.6820   11.2990   18.7380 C   0  0  0  0  0  0  0  0  0  0  0  0
    0.2120   11.7810   19.9610 C   0  0  0  0  0  0  0  0  0  0  0  0
    0.2470   10.9760   21.0920 C   0  0  0  0  0  0  0  0  0  0  0  0
    0.7180    9.7050   21.0620 N   0  0  0  0  0  0  0  0  0  0  0  0
    1.5420    9.5760   17.7540 H   0  0  0  0  0  0  0  0  0  0  0  0
    0.6710   11.9190   17.8440 H   0  0  0  0  0  0  0  0  0  0  0  0
   -0.3050   13.1220   20.0400 N   0  0  0  0  0  0  0  0  0  0  0  0
   -1.5310   13.2540   19.9180 O   0  0  0  0  0  0  0  0  0  0  0  0
    0.4990   14.0320   20.2780 O   0  0  0  0  0  0  0  0  0  0  0  0
   -0.1660   11.5010   22.2970 O   0  0  0  0  0  0  0  0  0  0  0  0
   -1.0300   10.6490   23.0410 C   0  0  0  0  0  0  0  0  0  0  0  0
   -2.0030   10.5460   22.5470 H   0  0  0  0  0  0  0  0  0  0  0  0
   -1.1490   11.0040   24.0700 H   0  0  0  0  0  0  0  0  0  0  0  0
   -0.5690    9.6580   23.0810 H   0  0  0  0  0  0  0  0  0  0  0  0
    5.5960    5.0350   16.0560 C   0  0  2  0  0  0  0  0  0  0  0  0
    5.6610    6.0390   15.6210 H   0  0  0  0  0  0  0  0  0  0  0  0
    5.4390    4.0390   14.9030 C   0  0  0  0  0  0  0  0  0  0  0  0
    5.4390    4.5650   13.9410 H   0  0  0  0  0  0  0  0  0  0  0  0
    4.5060    3.4690   14.9630 H   0  0  0  0  0  0  0  0  0  0  0  0
    6.2650    3.3220   14.8790 H   0  0  0  0  0  0  0  0  0  0  0  0
    7.1420    4.6980   16.9870 S   0  0  0  0  0  0  0  0  0  0  0  0
    7.5770    6.2850   17.5100 C   0  0  0  0  0  0  0  0  0  0  0  0
    7.5280    7.3910   16.8050 N   0  0  0  0  0  0  0  0  0  0  0  0
    7.9550    8.4220   17.6110 N   0  0  0  0  0  0  0  0  0  0  0  0
    8.2480    7.9100   18.7850 C   0  0  0  0  0  0  0  0  0  0  0  0
    8.0240    6.5660   18.7680 N   0  0  0  0  0  0  0  0  0  0  0  0
    8.6140    8.4570   19.6450 H   0  0  0  0  0  0  0  0  0  0  0  0
    8.2290    5.6620   19.8670 C   0  0  0  0  0  0  0  0  0  0  0  0
    8.6300    4.7230   19.4790 H   0  0  0  0  0  0  0  0  0  0  0  0
    7.2720    5.4980   20.3710 H   0  0  0  0  0  0  0  0  0  0  0  0
    8.9400    6.0990   20.5720 H   0  0  0  0  0  0  0  0  0  0  0  0
  1  6  2  0  0  0  0
  1  2  1  0  0  0  0
  2  3  2  0  0  0  0
  3  4  1  0  0  0  0
  3  8  1  0  0  0  0
  5 10  1  0  0  0  0
  5  4  2  0  0  0  0
  6  5  1  0  0  0  0
  7  2  1  0  0  0  0
  9  6  1  0  0  0  0
 10 11  1  0  0  0  0
 11 14  1  0  0  0  0
 11 12  2  0  0  0  0
 13 10  1  0  0  0  0
 14 19  1  0  0  0  0
 15 16  1  0  0  0  0
 15 14  2  0  0  0  0
 16 17  2  0  0  0  0
 17 22  1  0  0  0  0
 17 18  1  0  0  0  0
 18 25  1  0  0  0  0
 19 18  2  0  0  0  0
 20 15  1  0  0  0  0
 21 16  1  0  0  0  0
 22 24  2  0  0  0  0
 23 22  2  0  0  0  0
 25 26  1  0  0  0  0
 26 29  1  0  0  0  0
 26 28  1  0  0  0  0
 27 26  1  0  0  0  0
 30 31  1  6  0  0  0
 30 36  1  0  0  0  0
 30  1  1  0  0  0  0
 32 34  1  0  0  0  0
 32 30  1  0  0  0  0
 33 32  1  0  0  0  0
 35 32  1  0  0  0  0
 36 37  1  0  0  0  0
 37 41  1  0  0  0  0
 38 37  2  0  0  0  0
 38 39  1  0  0  0  0
 39 40  2  0  0  0  0
 40 42  1  0  0  0  0
 41 40  1  0  0  0  0
 41 43  1  0  0  0  0
 43 45  1  0  0  0  0
 43 46  1  0  0  0  0
 44 43  1  0  0  0  0
M  END
>  <MODEL>
28

>  <REMARK>
 VINA RESULT:    -6.526      4.062      9.456
 INTER + INTRA:          -9.996
 INTER:                  -9.247
 INTRA:                  -0.749
 UNBOUND:                -0.227
  Name = 
  10 active torsions:
  status: ('A' for Active; 'I' for Inactive)
    1  A    between atoms: C_1  and  C_2
    2  A    between atoms: C_2  and  C_3
    3  A    between atoms: C_2  and  S_23
    4  A    between atoms: C_7  and  N_9
    5  A    between atoms: C_10  and  C_11
    6  A    between atoms: C_14  and  N_19
    7  A    between atoms: C_15  and  O_17
    8  A    between atoms: O_17  and  C_18
    9  A    between atoms: S_23  and  C_24
   10  A    between atoms: N_28  and  C_29
                            x       y       z     vdW  Elec       q    Type
                         _______ _______ _______ _____ _____    ______ ____

>  <TORSDO>
F 10

$$$$
=
 OpenBabel07192307433D

 46 48  0  0  1  0  0  0  0  0999 V2000
    0.3170   10.8440   20.9400 C   0  0  0  0  0  0  0  0  0  0  0  0
   -0.4080   10.2270   21.9620 C   0  0  0  0  0  0  0  0  0  0  0  0
   -0.2850    8.8570   22.1260 C   0  0  0  0  0  0  0  0  0  0  0  0
    0.4940    8.0730   21.3530 N   0  0  0  0  0  0  0  0  0  0  0  0
    1.1830    8.6570   20.3630 C   0  0  0  0  0  0  0  0  0  0  0  0
    1.1190   10.0290   20.1260 C   0  0  0  0  0  0  0  0  0  0  0  0
   -1.0670   10.7850   22.6180 H   0  0  0  0  0  0  0  0  0  0  0  0
   -0.8290    8.3350   22.9080 H   0  0  0  0  0  0  0  0  0  0  0  0
    1.6870   10.4700   19.3110 H   0  0  0  0  0  0  0  0  0  0  0  0
    2.0040    7.9030   19.5200 N   0  0  0  0  0  0  0  0  0  0  0  0
    2.2910    6.5610   19.6470 C   0  0  0  0  0  0  0  0  0  0  0  0
    1.9000    5.7750   20.5000 O   0  0  0  0  0  0  0  0  0  0  0  0
    2.4390    8.3670   18.7340 H   0  0  0  0  0  0  0  0  0  0  0  0
    3.2060    6.0670   18.5660 C   0  0  0  0  0  0  0  0  0  0  0  0
    3.8870    6.9770   17.7600 C   0  0  0  0  0  0  0  0  0  0  0  0
    4.7270    6.4800   16.7690 C   0  0  0  0  0  0  0  0  0  0  0  0
    4.8500    5.0950   16.6360 C   0  0  0  0  0  0  0  0  0  0  0  0
    4.1370    4.2460   17.4700 C   0  0  0  0  0  0  0  0  0  0  0  0
    3.3100    4.7080   18.4400 N   0  0  0  0  0  0  0  0  0  0  0  0
    3.7600    8.0470   17.9020 H   0  0  0  0  0  0  0  0  0  0  0  0
    5.2730    7.1610   16.1180 H   0  0  0  0  0  0  0  0  0  0  0  0
    5.7230    4.5570   15.6250 N   0  0  0  0  0  0  0  0  0  0  0  0
    5.2430    4.4180   14.4920 O   0  0  0  0  0  0  0  0  0  0  0  0
    6.8960    4.3280   15.9460 O   0  0  0  0  0  0  0  0  0  0  0  0
    4.2310    2.8850   17.2750 O   0  0  0  0  0  0  0  0  0  0  0  0
    3.4920    2.1070   18.2100 C   0  0  0  0  0  0  0  0  0  0  0  0
    2.7540    2.7220   18.7390 H   0  0  0  0  0  0  0  0  0  0  0  0
    4.1560    1.5990   18.9170 H   0  0  0  0  0  0  0  0  0  0  0  0
    2.9480    1.3400   17.6520 H   0  0  0  0  0  0  0  0  0  0  0  0
    0.2400   12.3370   20.6670 C   0  0  2  0  0  0  0  0  0  0  0  0
    1.2260   12.7640   20.8850 H   0  0  0  0  0  0  0  0  0  0  0  0
   -0.7830   13.0500   21.5570 C   0  0  0  0  0  0  0  0  0  0  0  0
   -0.2950   13.8370   22.1450 H   0  0  0  0  0  0  0  0  0  0  0  0
   -1.2730   12.3710   22.2630 H   0  0  0  0  0  0  0  0  0  0  0  0
   -1.5650   13.5300   20.9610 H   0  0  0  0  0  0  0  0  0  0  0  0
   -0.1440   12.6220   18.8940 S   0  0  0  0  0  0  0  0  0  0  0  0
   -1.7830   12.0860   18.8100 C   0  0  0  0  0  0  0  0  0  0  0  0
   -2.8320   12.6620   19.3490 N   0  0  0  0  0  0  0  0  0  0  0  0
   -3.9370   11.9070   19.0280 N   0  0  0  0  0  0  0  0  0  0  0  0
   -3.5250   10.8940   18.3000 C   0  0  0  0  0  0  0  0  0  0  0  0
   -2.1750   10.9670   18.1360 N   0  0  0  0  0  0  0  0  0  0  0  0
   -4.1480   10.1120   17.8860 H   0  0  0  0  0  0  0  0  0  0  0  0
   -1.3620   10.0380   17.3980 C   0  0  0  0  0  0  0  0  0  0  0  0
   -0.5970   10.5960   16.8530 H   0  0  0  0  0  0  0  0  0  0  0  0
   -2.0020    9.4800   16.7080 H   0  0  0  0  0  0  0  0  0  0  0  0
   -0.8820    9.3420   18.0900 H   0  0  0  0  0  0  0  0  0  0  0  0
  1  2  1  0  0  0  0
  2  3  2  0  0  0  0
  2  7  1  0  0  0  0
  3  8  1  0  0  0  0
  4  3  1  0  0  0  0
  5  4  2  0  0  0  0
  6  5  1  0  0  0  0
  6  1  2  0  0  0  0
  9  6  1  0  0  0  0
 10 11  1  0  0  0  0
 10  5  1  0  0  0  0
 11 12  2  0  0  0  0
 13 10  1  0  0  0  0
 14 11  1  0  0  0  0
 15 20  1  0  0  0  0
 15 14  2  0  0  0  0
 16 15  1  0  0  0  0
 17 16  2  0  0  0  0
 17 18  1  0  0  0  0
 18 19  2  0  0  0  0
 19 14  1  0  0  0  0
 21 16  1  0  0  0  0
 22 24  2  0  0  0  0
 22 17  1  0  0  0  0
 23 22  2  0  0  0  0
 25 18  1  0  0  0  0
 25 26  1  0  0  0  0
 26 27  1  0  0  0  0
 26 28  1  0  0  0  0
 29 26  1  0  0  0  0
 30 31  1  1  0  0  0
 30  1  1  0  0  0  0
 30 32  1  0  0  0  0
 32 33  1  0  0  0  0
 32 34  1  0  0  0  0
 35 32  1  0  0  0  0
 36 30  1  0  0  0  0
 37 36  1  0  0  0  0
 37 38  2  0  0  0  0
 39 38  1  0  0  0  0
 40 39  2  0  0  0  0
 41 40  1  0  0  0  0
 41 37  1  0  0  0  0
 42 40  1  0  0  0  0
 43 46  1  0  0  0  0
 43 41  1  0  0  0  0
 44 43  1  0  0  0  0
 45 43  1  0  0  0  0
M  END
>  <MODEL>
29

>  <REMARK>
 VINA RESULT:    -6.507      2.004      3.024
 INTER + INTRA:          -9.967
 INTER:                  -9.633
 INTRA:                  -0.334
 UNBOUND:                -0.227
  Name = 
  10 active torsions:
  status: ('A' for Active; 'I' for Inactive)
    1  A    between atoms: C_1  and  C_2
    2  A    between atoms: C_2  and  C_3
    3  A    between atoms: C_2  and  S_23
    4  A    between atoms: C_7  and  N_9
    5  A    between atoms: C_10  and  C_11
    6  A    between atoms: C_14  and  N_19
    7  A    between atoms: C_15  and  O_17
    8  A    between atoms: O_17  and  C_18
    9  A    between atoms: S_23  and  C_24
   10  A    between atoms: N_28  and  C_29
                            x       y       z     vdW  Elec       q    Type
                         _______ _______ _______ _____ _____    ______ ____

>  <TORSDO>
F 10

$$$$
=
 OpenBabel07192307433D

 46 48  0  0  1  0  0  0  0  0999 V2000
    2.7450    4.7940   18.7830 C   0  0  0  0  0  0  0  0  0  0  0  0
    2.1350    4.1390   19.8560 C   0  0  0  0  0  0  0  0  0  0  0  0
    1.4840    4.9020   20.8110 C   0  0  0  0  0  0  0  0  0  0  0  0
    1.4040    6.2470   20.7750 N   0  0  0  0  0  0  0  0  0  0  0  0
    1.9980    6.8820   19.7540 C   0  0  0  0  0  0  0  0  0  0  0  0
    2.6740    6.1950   18.7480 C   0  0  0  0  0  0  0  0  0  0  0  0
    2.1670    3.0610   19.9650 H   0  0  0  0  0  0  0  0  0  0  0  0
    0.9950    4.4360   21.6630 H   0  0  0  0  0  0  0  0  0  0  0  0
    3.1490    6.7410   17.9370 H   0  0  0  0  0  0  0  0  0  0  0  0
    1.9590    8.2760   19.6590 N   0  0  0  0  0  0  0  0  0  0  0  0
    1.6350    9.0090   18.5390 C   0  0  0  0  0  0  0  0  0  0  0  0
    1.3220    8.6050   17.4270 O   0  0  0  0  0  0  0  0  0  0  0  0
    2.1900    8.8190   20.4810 H   0  0  0  0  0  0  0  0  0  0  0  0
    1.6910   10.4880   18.7870 C   0  0  0  0  0  0  0  0  0  0  0  0
    2.3950   11.3150   17.9150 C   0  0  0  0  0  0  0  0  0  0  0  0
    2.4230   12.6810   18.1780 C   0  0  0  0  0  0  0  0  0  0  0  0
    1.7390   13.1530   19.3000 C   0  0  0  0  0  0  0  0  0  0  0  0
    1.0640   12.2720   20.1320 C   0  0  0  0  0  0  0  0  0  0  0  0
    1.0250   10.9370   19.8950 N   0  0  0  0  0  0  0  0  0  0  0  0
    2.9110   10.9000   17.0520 H   0  0  0  0  0  0  0  0  0  0  0  0
    2.9660   13.3570   17.5200 H   0  0  0  0  0  0  0  0  0  0  0  0
    1.7440   14.5640   19.5870 N   0  0  0  0  0  0  0  0  0  0  0  0
    2.6950   14.9930   20.2550 O   0  0  0  0  0  0  0  0  0  0  0  0
    0.8360   15.2500   19.1010 O   0  0  0  0  0  0  0  0  0  0  0  0
    0.4510   12.7610   21.2650 O   0  0  0  0  0  0  0  0  0  0  0  0
   -0.9720   12.7180   21.2250 C   0  0  0  0  0  0  0  0  0  0  0  0
   -1.3550   11.8310   21.7420 H   0  0  0  0  0  0  0  0  0  0  0  0
   -1.3420   12.7630   20.1960 H   0  0  0  0  0  0  0  0  0  0  0  0
   -1.3470   13.6000   21.7540 H   0  0  0  0  0  0  0  0  0  0  0  0
    3.4970    4.0510   17.6910 C   0  0  2  0  0  0  0  0  0  0  0  0
    3.3390    4.5950   16.7520 H   0  0  0  0  0  0  0  0  0  0  0  0
    2.9890    2.6200   17.4890 C   0  0  0  0  0  0  0  0  0  0  0  0
    2.0800    2.6200   16.8760 H   0  0  0  0  0  0  0  0  0  0  0  0
    2.7460    2.1230   18.4350 H   0  0  0  0  0  0  0  0  0  0  0  0
    3.7290    2.0030   16.9710 H   0  0  0  0  0  0  0  0  0  0  0  0
    5.2930    4.0460   18.0700 S   0  0  0  0  0  0  0  0  0  0  0  0
    5.9740    4.2660   16.4990 C   0  0  0  0  0  0  0  0  0  0  0  0
    5.8000    3.4990   15.4480 N   0  0  0  0  0  0  0  0  0  0  0  0
    6.5160    4.0460   14.4070 N   0  0  0  0  0  0  0  0  0  0  0  0
    7.1010    5.1330   14.8570 C   0  0  0  0  0  0  0  0  0  0  0  0
    6.7860    5.3120   16.1710 N   0  0  0  0  0  0  0  0  0  0  0  0
    7.7390    5.7960   14.2870 H   0  0  0  0  0  0  0  0  0  0  0  0
    7.2360    6.3910   17.0080 C   0  0  0  0  0  0  0  0  0  0  0  0
    7.9160    5.9910   17.7630 H   0  0  0  0  0  0  0  0  0  0  0  0
    6.3660    6.8600   17.4770 H   0  0  0  0  0  0  0  0  0  0  0  0
    7.7630    7.1310   16.3990 H   0  0  0  0  0  0  0  0  0  0  0  0
  1  2  1  0  0  0  0
  2  7  1  0  0  0  0
  2  3  2  0  0  0  0
  3  8  1  0  0  0  0
  4  3  1  0  0  0  0
  5  4  2  0  0  0  0
  6  1  2  0  0  0  0
  6  5  1  0  0  0  0
  9  6  1  0  0  0  0
 10  5  1  0  0  0  0
 10 13  1  0  0  0  0
 11 14  1  0  0  0  0
 11 10  1  0  0  0  0
 12 11  2  0  0  0  0
 14 19  1  0  0  0  0
 15 16  1  0  0  0  0
 15 14  2  0  0  0  0
 16 17  2  0  0  0  0
 17 22  1  0  0  0  0
 17 18  1  0  0  0  0
 18 25  1  0  0  0  0
 19 18  2  0  0  0  0
 20 15  1  0  0  0  0
 21 16  1  0  0  0  0
 22 23  2  0  0  0  0
 24 22  2  0  0  0  0
 26 25  1  0  0  0  0
 26 27  1  0  0  0  0
 26 29  1  0  0  0  0
 28 26  1  0  0  0  0
 30 31  1  6  0  0  0
 30 36  1  0  0  0  0
 30  1  1  0  0  0  0
 32 30  1  0  0  0  0
 32 34  1  0  0  0  0
 33 32  1  0  0  0  0
 35 32  1  0  0  0  0
 37 36  1  0  0  0  0
 38 37  2  0  0  0  0
 39 40  2  0  0  0  0
 39 38  1  0  0  0  0
 40 41  1  0  0  0  0
 41 37  1  0  0  0  0
 41 43  1  0  0  0  0
 42 40  1  0  0  0  0
 43 45  1  0  0  0  0
 43 44  1  0  0  0  0
 46 43  1  0  0  0  0
M  END
>  <MODEL>
30

>  <REMARK>
 VINA RESULT:    -6.427      4.358      9.279
 INTER + INTRA:          -9.848
 INTER:                  -9.219
 INTRA:                  -0.629
 UNBOUND:                -0.227
  Name = 
  10 active torsions:
  status: ('A' for Active; 'I' for Inactive)
    1  A    between atoms: C_1  and  C_2
    2  A    between atoms: C_2  and  C_3
    3  A    between atoms: C_2  and  S_23
    4  A    between atoms: C_7  and  N_9
    5  A    between atoms: C_10  and  C_11
    6  A    between atoms: C_14  and  N_19
    7  A    between atoms: C_15  and  O_17
    8  A    between atoms: O_17  and  C_18
    9  A    between atoms: S_23  and  C_24
   10  A    between atoms: N_28  and  C_29
                            x       y       z     vdW  Elec       q    Type
                         _______ _______ _______ _____ _____    ______ ____

>  <TORSDO>
F 10

$$$$
=
 OpenBabel07192307433D

 46 48  0  0  1  0  0  0  0  0999 V2000
    2.7590    5.2510   18.7060 C   0  0  0  0  0  0  0  0  0  0  0  0
    2.5180    4.2990   19.7000 C   0  0  0  0  0  0  0  0  0  0  0  0
    1.9510    4.7190   20.8920 C   0  0  0  0  0  0  0  0  0  0  0  0
    1.6170    5.9980   21.1580 N   0  0  0  0  0  0  0  0  0  0  0  0
    1.8570    6.9180   20.2120 C   0  0  0  0  0  0  0  0  0  0  0  0
    2.4250    6.5840   18.9840 C   0  0  0  0  0  0  0  0  0  0  0  0
    2.7710    3.2530   19.5700 H   0  0  0  0  0  0  0  0  0  0  0  0
    1.7450    4.0140   21.6940 H   0  0  0  0  0  0  0  0  0  0  0  0
    2.6100    7.3550   18.2410 H   0  0  0  0  0  0  0  0  0  0  0  0
    1.5420    8.2620   20.4250 N   0  0  0  0  0  0  0  0  0  0  0  0
    0.4190    8.7470   21.0600 C   0  0  0  0  0  0  0  0  0  0  0  0
   -0.5080    8.1200   21.5540 O   0  0  0  0  0  0  0  0  0  0  0  0
    2.1880    8.9650   20.0880 H   0  0  0  0  0  0  0  0  0  0  0  0
    0.3980   10.2460   21.1180 C   0  0  0  0  0  0  0  0  0  0  0  0
   -0.4280   10.8960   22.0320 C   0  0  0  0  0  0  0  0  0  0  0  0
   -0.4190   12.2870   22.0570 C   0  0  0  0  0  0  0  0  0  0  0  0
    0.4210   12.9600   21.1670 C   0  0  0  0  0  0  0  0  0  0  0  0
    1.2130   12.2490   20.2760 C   0  0  0  0  0  0  0  0  0  0  0  0
    1.2180   10.8940   20.2340 N   0  0  0  0  0  0  0  0  0  0  0  0
   -1.0630   10.3280   22.7070 H   0  0  0  0  0  0  0  0  0  0  0  0
   -1.0530   12.8290   22.7560 H   0  0  0  0  0  0  0  0  0  0  0  0
    0.4560   14.4000   21.1810 N   0  0  0  0  0  0  0  0  0  0  0  0
   -0.3540   14.9840   20.4470 O   0  0  0  0  0  0  0  0  0  0  0  0
    1.2470   14.9450   21.9610 O   0  0  0  0  0  0  0  0  0  0  0  0
    1.9840   12.9420   19.3690 O   0  0  0  0  0  0  0  0  0  0  0  0
    2.3500   12.1900   18.2170 C   0  0  0  0  0  0  0  0  0  0  0  0
    3.1740   12.6710   17.6770 H   0  0  0  0  0  0  0  0  0  0  0  0
    1.4900   12.0300   17.5580 H   0  0  0  0  0  0  0  0  0  0  0  0
    2.6990   11.2100   18.5550 H   0  0  0  0  0  0  0  0  0  0  0  0
    3.3920    4.8960   17.3700 C   0  0  2  0  0  0  0  0  0  0  0  0
    2.5900    4.8660   16.6220 H   0  0  0  0  0  0  0  0  0  0  0  0
    4.0690    3.5230   17.3800 C   0  0  0  0  0  0  0  0  0  0  0  0
    4.9960    3.5490   16.7960 H   0  0  0  0  0  0  0  0  0  0  0  0
    3.4350    2.7380   16.9510 H   0  0  0  0  0  0  0  0  0  0  0  0
    4.3350    3.2160   18.3960 H   0  0  0  0  0  0  0  0  0  0  0  0
    4.5920    6.1990   16.8890 S   0  0  0  0  0  0  0  0  0  0  0  0
    6.0140    5.6730   17.7160 C   0  0  0  0  0  0  0  0  0  0  0  0
    6.2820    5.8110   18.9940 N   0  0  0  0  0  0  0  0  0  0  0  0
    7.5140    5.2430   19.2280 N   0  0  0  0  0  0  0  0  0  0  0  0
    7.9580    4.7750   18.0830 C   0  0  0  0  0  0  0  0  0  0  0  0
    7.0440    5.0220   17.1020 N   0  0  0  0  0  0  0  0  0  0  0  0
    8.9000    4.2690   17.9240 H   0  0  0  0  0  0  0  0  0  0  0  0
    7.1720    4.6590   15.7170 C   0  0  0  0  0  0  0  0  0  0  0  0
    6.1740    4.5300   15.2930 H   0  0  0  0  0  0  0  0  0  0  0  0
    7.7480    3.7310   15.6480 H   0  0  0  0  0  0  0  0  0  0  0  0
    7.6970    5.4520   15.1780 H   0  0  0  0  0  0  0  0  0  0  0  0
  1  6  2  0  0  0  0
  1  2  1  0  0  0  0
  2  3  2  0  0  0  0
  3  4  1  0  0  0  0
  3  8  1  0  0  0  0
  5 10  1  0  0  0  0
  5  4  2  0  0  0  0
  6  5  1  0  0  0  0
  7  2  1  0  0  0  0
  9  6  1  0  0  0  0
 10 11  1  0  0  0  0
 11 14  1  0  0  0  0
 11 12  2  0  0  0  0
 13 10  1  0  0  0  0
 14 15  2  0  0  0  0
 15 16  1  0  0  0  0
 15 20  1  0  0  0  0
 16 21  1  0  0  0  0
 17 22  1  0  0  0  0
 17 16  2  0  0  0  0
 18 17  1  0  0  0  0
 19 18  2  0  0  0  0
 19 14  1  0  0  0  0
 22 24  2  0  0  0  0
 23 22  2  0  0  0  0
 25 18  1  0  0  0  0
 26 29  1  0  0  0  0
 26 25  1  0  0  0  0
 27 26  1  0  0  0  0
 28 26  1  0  0  0  0
 30 31  1  6  0  0  0
 30 32  1  0  0  0  0
 30  1  1  0  0  0  0
 32 35  1  0  0  0  0
 33 32  1  0  0  0  0
 34 32  1  0  0  0  0
 36 30  1  0  0  0  0
 36 37  1  0  0  0  0
 37 38  2  0  0  0  0
 38 39  1  0  0  0  0
 40 39  2  0  0  0  0
 41 37  1  0  0  0  0
 41 40  1  0  0  0  0
 42 40  1  0  0  0  0
 43 41  1  0  0  0  0
 44 43  1  0  0  0  0
 45 43  1  0  0  0  0
 46 43  1  0  0  0  0
M  END
>  <MODEL>
31

>  <REMARK>
 VINA RESULT:    -6.346      4.434      9.180
 INTER + INTRA:          -9.726
 INTER:                  -8.994
 INTRA:                  -0.732
 UNBOUND:                -0.227
  Name = 
  10 active torsions:
  status: ('A' for Active; 'I' for Inactive)
    1  A    between atoms: C_1  and  C_2
    2  A    between atoms: C_2  and  C_3
    3  A    between atoms: C_2  and  S_23
    4  A    between atoms: C_7  and  N_9
    5  A    between atoms: C_10  and  C_11
    6  A    between atoms: C_14  and  N_19
    7  A    between atoms: C_15  and  O_17
    8  A    between atoms: O_17  and  C_18
    9  A    between atoms: S_23  and  C_24
   10  A    between atoms: N_28  and  C_29
                            x       y       z     vdW  Elec       q    Type
                         _______ _______ _______ _____ _____    ______ ____

>  <TORSDO>
F 10

$$$$
=
 OpenBabel07192307433D

 46 48  0  0  1  0  0  0  0  0999 V2000
    0.0930   11.5040   20.9350 C   0  0  0  0  0  0  0  0  0  0  0  0
    0.3060   12.4180   19.8990 C   0  0  0  0  0  0  0  0  0  0  0  0
    0.9550   11.9810   18.7560 C   0  0  0  0  0  0  0  0  0  0  0  0
    1.4020   10.7210   18.5790 N   0  0  0  0  0  0  0  0  0  0  0  0
    1.2110    9.8430   19.5740 C   0  0  0  0  0  0  0  0  0  0  0  0
    0.5680   10.1960   20.7580 C   0  0  0  0  0  0  0  0  0  0  0  0
   -0.0100   13.4520   19.9690 H   0  0  0  0  0  0  0  0  0  0  0  0
    1.1420   12.6550   17.9250 H   0  0  0  0  0  0  0  0  0  0  0  0
    0.4340    9.4610   21.5470 H   0  0  0  0  0  0  0  0  0  0  0  0
    1.6560    8.5230   19.4580 N   0  0  0  0  0  0  0  0  0  0  0  0
    1.6290    7.5630   20.4460 C   0  0  0  0  0  0  0  0  0  0  0  0
    1.2220    7.6630   21.5960 O   0  0  0  0  0  0  0  0  0  0  0  0
    2.0400    8.2230   18.5710 H   0  0  0  0  0  0  0  0  0  0  0  0
    2.1840    6.2490   19.9820 C   0  0  0  0  0  0  0  0  0  0  0  0
    3.2740    6.2200   19.1150 C   0  0  0  0  0  0  0  0  0  0  0  0
    3.7610    4.9820   18.7080 C   0  0  0  0  0  0  0  0  0  0  0  0
    3.1350    3.8310   19.1930 C   0  0  0  0  0  0  0  0  0  0  0  0
    2.0470    3.9330   20.0480 C   0  0  0  0  0  0  0  0  0  0  0  0
    1.5550    5.1290   20.4560 N   0  0  0  0  0  0  0  0  0  0  0  0
    3.7300    7.1430   18.7660 H   0  0  0  0  0  0  0  0  0  0  0  0
    4.6090    4.9200   18.0290 H   0  0  0  0  0  0  0  0  0  0  0  0
    3.6270    2.5380   18.7940 N   0  0  0  0  0  0  0  0  0  0  0  0
    4.4310    1.9880   19.5600 O   0  0  0  0  0  0  0  0  0  0  0  0
    3.1720    2.0490   17.7520 O   0  0  0  0  0  0  0  0  0  0  0  0
    1.4120    2.7810   20.4600 O   0  0  0  0  0  0  0  0  0  0  0  0
    1.5940    2.4740   21.8390 C   0  0  0  0  0  0  0  0  0  0  0  0
    1.4850    1.3990   22.0210 H   0  0  0  0  0  0  0  0  0  0  0  0
    0.9070    3.0500   22.4670 H   0  0  0  0  0  0  0  0  0  0  0  0
    2.6140    2.7570   22.1130 H   0  0  0  0  0  0  0  0  0  0  0  0
   -0.5940   11.8860   22.2350 C   0  0  2  0  0  0  0  0  0  0  0  0
    0.1260   12.4550   22.8350 H   0  0  0  0  0  0  0  0  0  0  0  0
   -1.0250   10.6690   23.0580 C   0  0  0  0  0  0  0  0  0  0  0  0
   -1.6300    9.9890   22.4480 H   0  0  0  0  0  0  0  0  0  0  0  0
   -1.6250   10.9440   23.9330 H   0  0  0  0  0  0  0  0  0  0  0  0
   -0.1600   10.1010   23.4140 H   0  0  0  0  0  0  0  0  0  0  0  0
   -2.0390   12.9620   21.8770 S   0  0  0  0  0  0  0  0  0  0  0  0
   -2.1800   13.8430   23.3550 C   0  0  0  0  0  0  0  0  0  0  0  0
   -1.3190   14.7020   23.8480 N   0  0  0  0  0  0  0  0  0  0  0  0
   -1.8310   15.1760   25.0360 N   0  0  0  0  0  0  0  0  0  0  0  0
   -2.9920   14.5910   25.2260 C   0  0  0  0  0  0  0  0  0  0  0  0
   -3.2530   13.7440   24.1910 N   0  0  0  0  0  0  0  0  0  0  0  0
   -3.6520   14.7450   26.0690 H   0  0  0  0  0  0  0  0  0  0  0  0
   -4.4280   12.9280   24.0430 C   0  0  0  0  0  0  0  0  0  0  0  0
   -4.1820   12.0660   23.4200 H   0  0  0  0  0  0  0  0  0  0  0  0
   -5.2190   13.5280   23.5830 H   0  0  0  0  0  0  0  0  0  0  0  0
   -4.7600   12.5840   25.0260 H   0  0  0  0  0  0  0  0  0  0  0  0
  1 30  1  0  0  0  0
  2  7  1  0  0  0  0
  2  1  2  0  0  0  0
  3  2  1  0  0  0  0
  4  3  2  0  0  0  0
  4  5  1  0  0  0  0
  5  6  2  0  0  0  0
  6  1  1  0  0  0  0
  6  9  1  0  0  0  0
  8  3  1  0  0  0  0
 10  5  1  0  0  0  0
 10 11  1  0  0  0  0
 11 12  2  0  0  0  0
 13 10  1  0  0  0  0
 14 11  1  0  0  0  0
 14 19  1  0  0  0  0
 15 14  2  0  0  0  0
 16 15  1  0  0  0  0
 16 17  2  0  0  0  0
 17 18  1  0  0  0  0
 18 19  2  0  0  0  0
 18 25  1  0  0  0  0
 20 15  1  0  0  0  0
 21 16  1  0  0  0  0
 22 17  1  0  0  0  0
 22 23  2  0  0  0  0
 24 22  2  0  0  0  0
 25 26  1  0  0  0  0
 26 27  1  0  0  0  0
 26 29  1  0  0  0  0
 26 28  1  0  0  0  0
 30 31  1  1  0  0  0
 30 32  1  0  0  0  0
 32 35  1  0  0  0  0
 32 34  1  0  0  0  0
 33 32  1  0  0  0  0
 36 30  1  0  0  0  0
 36 37  1  0  0  0  0
 37 38  2  0  0  0  0
 37 41  1  0  0  0  0
 38 39  1  0  0  0  0
 39 40  2  0  0  0  0
 40 42  1  0  0  0  0
 41 40  1  0  0  0  0
 43 41  1  0  0  0  0
 43 46  1  0  0  0  0
 44 43  1  0  0  0  0
 45 43  1  0  0  0  0
M  END
>  <MODEL>
32

>  <REMARK>
 VINA RESULT:    -6.323      2.939      4.680
 INTER + INTRA:          -9.691
 INTER:                  -9.464
 INTRA:                  -0.227
 UNBOUND:                -0.227
  Name = 
  10 active torsions:
  status: ('A' for Active; 'I' for Inactive)
    1  A    between atoms: C_1  and  C_2
    2  A    between atoms: C_2  and  C_3
    3  A    between atoms: C_2  and  S_23
    4  A    between atoms: C_7  and  N_9
    5  A    between atoms: C_10  and  C_11
    6  A    between atoms: C_14  and  N_19
    7  A    between atoms: C_15  and  O_17
    8  A    between atoms: O_17  and  C_18
    9  A    between atoms: S_23  and  C_24
   10  A    between atoms: N_28  and  C_29
                            x       y       z     vdW  Elec       q    Type
                         _______ _______ _______ _____ _____    ______ ____

>  <TORSDO>
F 10

$$$$
=
 OpenBabel07192307433D

 46 48  0  0  1  0  0  0  0  0999 V2000
   -0.6010   12.2830   20.9340 C   0  0  0  0  0  0  0  0  0  0  0  0
   -1.6560   12.5500   20.0570 C   0  0  0  0  0  0  0  0  0  0  0  0
   -1.8590   11.6930   18.9880 C   0  0  0  0  0  0  0  0  0  0  0  0
   -1.0960   10.6110   18.7340 N   0  0  0  0  0  0  0  0  0  0  0  0
   -0.0740   10.3560   19.5650 C   0  0  0  0  0  0  0  0  0  0  0  0
    0.2030   11.1650   20.6650 C   0  0  0  0  0  0  0  0  0  0  0  0
   -2.3070   13.4070   20.1850 H   0  0  0  0  0  0  0  0  0  0  0  0
   -2.6680   11.8610   18.2810 H   0  0  0  0  0  0  0  0  0  0  0  0
    1.0420   10.9330   21.3160 H   0  0  0  0  0  0  0  0  0  0  0  0
    0.7610    9.2560   19.3550 N   0  0  0  0  0  0  0  0  0  0  0  0
    1.7960    9.1770   18.4490 C   0  0  0  0  0  0  0  0  0  0  0  0
    2.1880   10.0290   17.6630 O   0  0  0  0  0  0  0  0  0  0  0  0
    0.6070    8.4250   19.9120 H   0  0  0  0  0  0  0  0  0  0  0  0
    2.4890    7.8470   18.4870 C   0  0  0  0  0  0  0  0  0  0  0  0
    2.2260    6.9540   19.5220 C   0  0  0  0  0  0  0  0  0  0  0  0
    2.8880    5.7300   19.5220 C   0  0  0  0  0  0  0  0  0  0  0  0
    3.7780    5.4580   18.4810 C   0  0  0  0  0  0  0  0  0  0  0  0
    4.0000    6.3980   17.4850 C   0  0  0  0  0  0  0  0  0  0  0  0
    3.3670    7.5970   17.4670 N   0  0  0  0  0  0  0  0  0  0  0  0
    1.5220    7.2090   20.3100 H   0  0  0  0  0  0  0  0  0  0  0  0
    2.7090    5.0080   20.3160 H   0  0  0  0  0  0  0  0  0  0  0  0
    4.4670    4.1940   18.4530 N   0  0  0  0  0  0  0  0  0  0  0  0
    5.5210    4.1190   19.1000 O   0  0  0  0  0  0  0  0  0  0  0  0
    3.9310    3.2640   17.8360 O   0  0  0  0  0  0  0  0  0  0  0  0
    4.9300    6.1260   16.5050 O   0  0  0  0  0  0  0  0  0  0  0  0
    6.1940    6.7480   16.7100 C   0  0  0  0  0  0  0  0  0  0  0  0
    6.1400    7.8250   16.5170 H   0  0  0  0  0  0  0  0  0  0  0  0
    6.9710    6.2790   16.0980 H   0  0  0  0  0  0  0  0  0  0  0  0
    6.4680    6.6110   17.7610 H   0  0  0  0  0  0  0  0  0  0  0  0
   -0.2840   13.1680   22.1270 C   0  0  2  0  0  0  0  0  0  0  0  0
    0.6110   12.7610   22.6130 H   0  0  0  0  0  0  0  0  0  0  0  0
   -1.4080   13.1880   23.1670 C   0  0  0  0  0  0  0  0  0  0  0  0
   -2.2430   13.8060   22.8170 H   0  0  0  0  0  0  0  0  0  0  0  0
   -1.0830   13.5940   24.1320 H   0  0  0  0  0  0  0  0  0  0  0  0
   -1.8030   12.1830   23.3470 H   0  0  0  0  0  0  0  0  0  0  0  0
    0.0860   14.8720   21.5520 S   0  0  0  0  0  0  0  0  0  0  0  0
    1.7570   14.7370   21.1410 C   0  0  0  0  0  0  0  0  0  0  0  0
    2.7830   14.8510   21.9520 N   0  0  0  0  0  0  0  0  0  0  0  0
    3.9280   14.6650   21.2100 N   0  0  0  0  0  0  0  0  0  0  0  0
    3.5620   14.4400   19.9690 C   0  0  0  0  0  0  0  0  0  0  0  0
    2.2030   14.4750   19.8780 N   0  0  0  0  0  0  0  0  0  0  0  0
    4.2240   14.2540   19.1330 H   0  0  0  0  0  0  0  0  0  0  0  0
    1.4300   14.2720   18.6820 C   0  0  0  0  0  0  0  0  0  0  0  0
    1.7260   15.0190   17.9420 H   0  0  0  0  0  0  0  0  0  0  0  0
    0.3680   14.3670   18.9280 H   0  0  0  0  0  0  0  0  0  0  0  0
    1.6230   13.2710   18.2880 H   0  0  0  0  0  0  0  0  0  0  0  0
  1 30  1  0  0  0  0
  2  7  1  0  0  0  0
  2  1  2  0  0  0  0
  3  2  1  0  0  0  0
  4  3  2  0  0  0  0
  4  5  1  0  0  0  0
  5  6  2  0  0  0  0
  6  1  1  0  0  0  0
  6  9  1  0  0  0  0
  8  3  1  0  0  0  0
 10  5  1  0  0  0  0
 10 13  1  0  0  0  0
 11 14  1  0  0  0  0
 11 10  1  0  0  0  0
 12 11  2  0  0  0  0
 14 15  2  0  0  0  0
 15 16  1  0  0  0  0
 15 20  1  0  0  0  0
 16 21  1  0  0  0  0
 17 16  2  0  0  0  0
 18 17  1  0  0  0  0
 19 18  2  0  0  0  0
 19 14  1  0  0  0  0
 22 17  1  0  0  0  0
 22 23  2  0  0  0  0
 24 22  2  0  0  0  0
 25 26  1  0  0  0  0
 25 18  1  0  0  0  0
 26 29  1  0  0  0  0
 27 26  1  0  0  0  0
 28 26  1  0  0  0  0
 30 31  1  1  0  0  0
 30 32  1  0  0  0  0
 32 35  1  0  0  0  0
 32 34  1  0  0  0  0
 33 32  1  0  0  0  0
 36 30  1  0  0  0  0
 37 36  1  0  0  0  0
 37 38  2  0  0  0  0
 39 38  1  0  0  0  0
 40 39  2  0  0  0  0
 41 40  1  0  0  0  0
 41 37  1  0  0  0  0
 42 40  1  0  0  0  0
 43 45  1  0  0  0  0
 43 41  1  0  0  0  0
 44 43  1  0  0  0  0
 46 43  1  0  0  0  0
M  END
>  <MODEL>
33

>  <REMARK>
 VINA RESULT:    -6.304      2.910      4.478
 INTER + INTRA:          -9.664
 INTER:                  -8.531
 INTRA:                  -1.133
 UNBOUND:                -0.227
  Name = 
  10 active torsions:
  status: ('A' for Active; 'I' for Inactive)
    1  A    between atoms: C_1  and  C_2
    2  A    between atoms: C_2  and  C_3
    3  A    between atoms: C_2  and  S_23
    4  A    between atoms: C_7  and  N_9
    5  A    between atoms: C_10  and  C_11
    6  A    between atoms: C_14  and  N_19
    7  A    between atoms: C_15  and  O_17
    8  A    between atoms: O_17  and  C_18
    9  A    between atoms: S_23  and  C_24
   10  A    between atoms: N_28  and  C_29
                            x       y       z     vdW  Elec       q    Type
                         _______ _______ _______ _____ _____    ______ ____

>  <TORSDO>
F 10

$$$$
