=
 OpenBabel07192307433D

 62 65  0  0  1  0  0  0  0  0999 V2000
    3.1390    6.8430   18.7700 C   0  0  0  0  0  0  0  0  0  0  0  0
    2.9770    7.7230   17.6890 C   0  0  0  0  0  0  0  0  0  0  0  0
    2.0380    8.7580   17.7430 C   0  0  0  0  0  0  0  0  0  0  0  0
    1.2590    8.9450   18.9010 C   0  0  0  0  0  0  0  0  0  0  0  0
    1.4770    8.0940   20.0070 C   0  0  0  0  0  0  0  0  0  0  0  0
    2.3960    7.0370   19.9340 C   0  0  0  0  0  0  0  0  0  0  0  0
    3.6000    7.6120   16.8000 H   0  0  0  0  0  0  0  0  0  0  0  0
    1.9370    9.4380   16.8890 H   0  0  0  0  0  0  0  0  0  0  0  0
    2.5660    6.4290   20.8200 H   0  0  0  0  0  0  0  0  0  0  0  0
    0.8330    8.3650   21.3130 C   0  0  0  0  0  0  0  0  0  0  0  0
    1.6490    8.8540   22.2920 N   0  0  0  0  0  0  0  0  0  0  0  0
   -0.3600    8.1570   21.4770 O   0  0  0  0  0  0  0  0  0  0  0  0
    1.2400    8.9100   23.2150 H   0  0  0  0  0  0  0  0  0  0  0  0
    2.6490    8.7690   22.2260 H   0  0  0  0  0  0  0  0  0  0  0  0
    0.2530   10.0650   18.9460 C   0  0  0  0  0  0  0  0  0  0  0  0
    0.4030   10.7340   18.0880 H   0  0  0  0  0  0  0  0  0  0  0  0
   -0.7720    9.6890   18.8620 H   0  0  0  0  0  0  0  0  0  0  0  0
    0.3790   10.8230   20.1650 N   0  0  0  0  0  0  0  0  0  0  0  0
   -0.5000   11.8430   20.4090 C   0  0  0  0  0  0  0  0  0  0  0  0
   -1.3470   12.2320   19.6150 O   0  0  0  0  0  0  0  0  0  0  0  0
   -0.2800   12.3960   21.6400 N   0  0  0  0  0  0  0  0  0  0  0  0
    0.6250   10.2780   20.9920 H   0  0  0  0  0  0  0  0  0  0  0  0
    0.6760   12.3230   21.9750 H   0  0  0  0  0  0  0  0  0  0  0  0
   -0.9930   13.5900   22.0320 C   0  0  2  0  0  0  0  0  0  0  0  0
   -0.1380   14.5380   22.9060 C   0  0  0  0  0  0  0  0  0  0  0  0
   -1.1090   15.2670   23.8430 C   0  0  0  0  0  0  0  0  0  0  0  0
   -2.1930   14.2460   23.9960 C   0  0  0  0  0  0  0  0  0  0  0  0
   -3.1870   14.1980   24.9630 C   0  0  0  0  0  0  0  0  0  0  0  0
   -4.1350   13.1720   24.8970 C   0  0  0  0  0  0  0  0  0  0  0  0
   -4.0860   12.2220   23.8620 C   0  0  0  0  0  0  0  0  0  0  0  0
   -3.0880   12.2880   22.8820 C   0  0  0  0  0  0  0  0  0  0  0  0
   -2.1370   13.2980   22.9660 C   0  0  0  0  0  0  0  0  0  0  0  0
   -1.3570   14.1150   21.1400 H   0  0  0  0  0  0  0  0  0  0  0  0
    0.4570   15.2360   22.3050 H   0  0  0  0  0  0  0  0  0  0  0  0
    0.5770   13.9600   23.5110 H   0  0  0  0  0  0  0  0  0  0  0  0
   -0.6270   15.5200   24.7930 H   0  0  0  0  0  0  0  0  0  0  0  0
   -1.5070   16.1720   23.3730 H   0  0  0  0  0  0  0  0  0  0  0  0
   -3.2310   14.9380   25.7550 H   0  0  0  0  0  0  0  0  0  0  0  0
   -4.9190   13.1100   25.6510 H   0  0  0  0  0  0  0  0  0  0  0  0
   -4.8370   11.4350   23.8190 H   0  0  0  0  0  0  0  0  0  0  0  0
   -3.0630   11.5660   22.0690 H   0  0  0  0  0  0  0  0  0  0  0  0
    4.1160    5.9020   18.6140 O   0  0  0  0  0  0  0  0  0  0  0  0
    4.0950    5.0990   17.4290 C   0  0  1  0  0  0  0  0  0  0  0  0
    3.3400    5.4700   16.7240 H   0  0  0  0  0  0  0  0  0  0  0  0
    5.4510    5.2760   16.7490 C   0  0  0  0  0  0  0  0  0  0  0  0
    5.6600    6.3400   16.6130 H   0  0  0  0  0  0  0  0  0  0  0  0
    5.4770    4.7920   15.7720 H   0  0  0  0  0  0  0  0  0  0  0  0
    6.2710    4.8860   17.3640 H   0  0  0  0  0  0  0  0  0  0  0  0
    3.7980    3.6230   17.7470 C   0  0  0  0  0  0  0  0  0  0  0  0
    4.7560    3.1050   17.8810 H   0  0  0  0  0  0  0  0  0  0  0  0
    3.3220    3.1470   16.8870 H   0  0  0  0  0  0  0  0  0  0  0  0
    2.9110    3.3580   18.9420 C   0  0  0  0  0  0  0  0  0  0  0  0
    1.5140    3.5280   18.8500 C   0  0  0  0  0  0  0  0  0  0  0  0
    0.6980    3.2920   19.9590 C   0  0  0  0  0  0  0  0  0  0  0  0
    1.2660    2.8810   21.1720 C   0  0  0  0  0  0  0  0  0  0  0  0
    2.6540    2.7100   21.2770 C   0  0  0  0  0  0  0  0  0  0  0  0
    3.4700    2.9520   20.1710 C   0  0  0  0  0  0  0  0  0  0  0  0
    1.0430    3.8490   17.9150 H   0  0  0  0  0  0  0  0  0  0  0  0
   -0.3830    3.4320   19.8660 H   0  0  0  0  0  0  0  0  0  0  0  0
    0.6310    2.6910   22.0310 H   0  0  0  0  0  0  0  0  0  0  0  0
    3.1060    2.3870   22.2200 H   0  0  0  0  0  0  0  0  0  0  0  0
    4.5480    2.8180   20.2760 H   0  0  0  0  0  0  0  0  0  0  0  0
  1  6  1  0  0  0  0
  2  3  1  0  0  0  0
  2  1  2  0  0  0  0
  3  4  2  0  0  0  0
  4 15  1  0  0  0  0
  4  5  1  0  0  0  0
  5 10  1  0  0  0  0
  6  5  2  0  0  0  0
  6  9  1  0  0  0  0
  7  2  1  0  0  0  0
  8  3  1  0  0  0  0
 10 12  2  0  0  0  0
 10 11  1  0  0  0  0
 11 13  1  0  0  0  0
 14 11  1  0  0  0  0
 15 18  1  0  0  0  0
 16 15  1  0  0  0  0
 17 15  1  0  0  0  0
 18 19  1  0  0  0  0
 18 22  1  0  0  0  0
 19 21  1  0  0  0  0
 20 19  2  0  0  0  0
 21 23  1  0  0  0  0
 21 24  1  0  0  0  0
 24 33  1  6  0  0  0
 24 25  1  0  0  0  0
 24 32  1  0  0  0  0
 25 35  1  0  0  0  0
 25 26  1  0  0  0  0
 26 27  1  0  0  0  0
 26 36  1  0  0  0  0
 27 28  1  0  0  0  0
 28 38  1  0  0  0  0
 29 28  2  0  0  0  0
 29 39  1  0  0  0  0
 30 29  1  0  0  0  0
 31 32  1  0  0  0  0
 31 30  2  0  0  0  0
 32 27  2  0  0  0  0
 34 25  1  0  0  0  0
 37 26  1  0  0  0  0
 40 30  1  0  0  0  0
 41 31  1  0  0  0  0
 42  1  1  0  0  0  0
 43 44  1  6  0  0  0
 43 49  1  0  0  0  0
 43 42  1  0  0  0  0
 45 48  1  0  0  0  0
 45 43  1  0  0  0  0
 46 45  1  0  0  0  0
 47 45  1  0  0  0  0
 49 50  1  0  0  0  0
 49 52  1  0  0  0  0
 51 49  1  0  0  0  0
 52 57  1  0  0  0  0
 53 52  2  0  0  0  0
 53 54  1  0  0  0  0
 54 55  2  0  0  0  0
 55 56  1  0  0  0  0
 55 60  1  0  0  0  0
 56 61  1  0  0  0  0
 57 62  1  0  0  0  0
 57 56  2  0  0  0  0
 58 53  1  0  0  0  0
 59 54  1  0  0  0  0
M  END
>  <MODEL>
1

>  <REMARK>
 VINA RESULT:    -8.222      0.000      0.000
 INTER + INTRA:         -13.003
 INTER:                 -12.095
 INTRA:                  -0.908
 UNBOUND:                -0.695
  Name = 
  9 active torsions:
  status: ('A' for Active; 'I' for Inactive)
    1  A    between atoms: C_1  and  C_2
    2  A    between atoms: C_2  and  C_3
    3  A    between atoms: C_2  and  O_10
    4  A    between atoms: C_3  and  C_4
    5  A    between atoms: O_10  and  C_11
    6  A    between atoms: C_14  and  C_15
    7  A    between atoms: C_15  and  N_16
    8  A    between atoms: N_19  and  C_20
    9  A    between atoms: C_29  and  C_30
                            x       y       z     vdW  Elec       q    Type
                         _______ _______ _______ _____ _____    ______ ____

>  <TORSDO>
F 9

$$$$
=
 OpenBabel07192307433D

 62 65  0  0  1  0  0  0  0  0999 V2000
    4.0370    5.2480   17.0240 C   0  0  0  0  0  0  0  0  0  0  0  0
    3.8090    6.4910   17.6330 C   0  0  0  0  0  0  0  0  0  0  0  0
    3.1200    6.5770   18.8470 C   0  0  0  0  0  0  0  0  0  0  0  0
    2.6690    5.4070   19.4880 C   0  0  0  0  0  0  0  0  0  0  0  0
    2.9620    4.1580   18.8990 C   0  0  0  0  0  0  0  0  0  0  0  0
    3.6240    4.0800   17.6640 C   0  0  0  0  0  0  0  0  0  0  0  0
    4.1850    7.4030   17.1650 H   0  0  0  0  0  0  0  0  0  0  0  0
    2.9630    7.5600   19.3080 H   0  0  0  0  0  0  0  0  0  0  0  0
    3.8680    3.0990   17.2620 H   0  0  0  0  0  0  0  0  0  0  0  0
    2.6900    2.8940   19.6210 C   0  0  0  0  0  0  0  0  0  0  0  0
    1.5400    2.2450   19.2780 N   0  0  0  0  0  0  0  0  0  0  0  0
    3.4660    2.4790   20.4680 O   0  0  0  0  0  0  0  0  0  0  0  0
    1.2890    1.4590   19.8640 H   0  0  0  0  0  0  0  0  0  0  0  0
    0.8000    2.7200   18.7890 H   0  0  0  0  0  0  0  0  0  0  0  0
    1.9310    5.5160   20.7960 C   0  0  0  0  0  0  0  0  0  0  0  0
    1.4770    4.5490   21.0500 H   0  0  0  0  0  0  0  0  0  0  0  0
    2.6100    5.7590   21.6210 H   0  0  0  0  0  0  0  0  0  0  0  0
    0.9000    6.5200   20.7250 N   0  0  0  0  0  0  0  0  0  0  0  0
    1.1390    7.7600   21.2520 C   0  0  0  0  0  0  0  0  0  0  0  0
    2.1480    8.0640   21.8750 O   0  0  0  0  0  0  0  0  0  0  0  0
    0.0840    8.6000   21.0260 N   0  0  0  0  0  0  0  0  0  0  0  0
    0.3650    6.5330   19.8560 H   0  0  0  0  0  0  0  0  0  0  0  0
   -0.8160    8.1390   20.9380 H   0  0  0  0  0  0  0  0  0  0  0  0
    0.0630    9.9100   21.6360 C   0  0  2  0  0  0  0  0  0  0  0  0
   -0.7310    9.9390   22.9640 C   0  0  0  0  0  0  0  0  0  0  0  0
   -1.3300   11.3450   23.0880 C   0  0  0  0  0  0  0  0  0  0  0  0
   -1.5070   11.7170   21.6490 C   0  0  0  0  0  0  0  0  0  0  0  0
   -2.2880   12.7360   21.1230 C   0  0  0  0  0  0  0  0  0  0  0  0
   -2.2760   12.9410   19.7390 C   0  0  0  0  0  0  0  0  0  0  0  0
   -1.4750   12.1400   18.9070 C   0  0  0  0  0  0  0  0  0  0  0  0
   -0.6790   11.1250   19.4490 C   0  0  0  0  0  0  0  0  0  0  0  0
   -0.7120   10.9130   20.8230 C   0  0  0  0  0  0  0  0  0  0  0  0
    1.0890   10.2630   21.7950 H   0  0  0  0  0  0  0  0  0  0  0  0
   -0.1070    9.6790   23.8280 H   0  0  0  0  0  0  0  0  0  0  0  0
   -1.5480    9.2020   22.9380 H   0  0  0  0  0  0  0  0  0  0  0  0
   -2.2750   11.3240   23.6400 H   0  0  0  0  0  0  0  0  0  0  0  0
   -0.6300   12.0320   23.5730 H   0  0  0  0  0  0  0  0  0  0  0  0
   -2.8970   13.3610   21.7670 H   0  0  0  0  0  0  0  0  0  0  0  0
   -2.8890   13.7300   19.3040 H   0  0  0  0  0  0  0  0  0  0  0  0
   -1.4700   12.3190   17.8330 H   0  0  0  0  0  0  0  0  0  0  0  0
   -0.0420   10.5190   18.8070 H   0  0  0  0  0  0  0  0  0  0  0  0
    4.7580    5.2900   15.8650 O   0  0  0  0  0  0  0  0  0  0  0  0
    5.4370    4.1000   15.4490 C   0  0  1  0  0  0  0  0  0  0  0  0
    4.8890    3.2070   15.7810 H   0  0  0  0  0  0  0  0  0  0  0  0
    5.4100    4.0840   13.9230 C   0  0  0  0  0  0  0  0  0  0  0  0
    4.7740    3.2680   13.5720 H   0  0  0  0  0  0  0  0  0  0  0  0
    6.4080    3.9480   13.5050 H   0  0  0  0  0  0  0  0  0  0  0  0
    4.9730    5.0030   13.5120 H   0  0  0  0  0  0  0  0  0  0  0  0
    6.8710    4.0400   16.0020 C   0  0  0  0  0  0  0  0  0  0  0  0
    7.5640    4.0330   15.1510 H   0  0  0  0  0  0  0  0  0  0  0  0
    7.0300    3.0920   16.5200 H   0  0  0  0  0  0  0  0  0  0  0  0
    7.2680    5.1370   16.9640 C   0  0  0  0  0  0  0  0  0  0  0  0
    7.3390    6.4780   16.5320 C   0  0  0  0  0  0  0  0  0  0  0  0
    7.7150    7.4870   17.4210 C   0  0  0  0  0  0  0  0  0  0  0  0
    8.0230    7.1710   18.7510 C   0  0  0  0  0  0  0  0  0  0  0  0
    7.9580    5.8420   19.1910 C   0  0  0  0  0  0  0  0  0  0  0  0
    7.5880    4.8320   18.3020 C   0  0  0  0  0  0  0  0  0  0  0  0
    7.1050    6.7530   15.4990 H   0  0  0  0  0  0  0  0  0  0  0  0
    7.7660    8.5200   17.0650 H   0  0  0  0  0  0  0  0  0  0  0  0
    8.3090    7.9580   19.4430 H   0  0  0  0  0  0  0  0  0  0  0  0
    8.1940    5.5870   20.2290 H   0  0  0  0  0  0  0  0  0  0  0  0
    7.5490    3.8030   18.6650 H   0  0  0  0  0  0  0  0  0  0  0  0
  1  2  2  0  0  0  0
  1  6  1  0  0  0  0
  2  3  1  0  0  0  0
  3  8  1  0  0  0  0
  3  4  2  0  0  0  0
  4 15  1  0  0  0  0
  5  4  1  0  0  0  0
  5 10  1  0  0  0  0
  6  5  2  0  0  0  0
  7  2  1  0  0  0  0
  9  6  1  0  0  0  0
 10 12  2  0  0  0  0
 11 10  1  0  0  0  0
 11 13  1  0  0  0  0
 14 11  1  0  0  0  0
 15 16  1  0  0  0  0
 15 17  1  0  0  0  0
 18 15  1  0  0  0  0
 18 19  1  0  0  0  0
 19 20  2  0  0  0  0
 21 19  1  0  0  0  0
 21 24  1  0  0  0  0
 22 18  1  0  0  0  0
 23 21  1  0  0  0  0
 24 33  1  1  0  0  0
 24 25  1  0  0  0  0
 25 26  1  0  0  0  0
 25 34  1  0  0  0  0
 26 37  1  0  0  0  0
 26 36  1  0  0  0  0
 27 26  1  0  0  0  0
 28 27  1  0  0  0  0
 28 38  1  0  0  0  0
 29 28  2  0  0  0  0
 30 31  2  0  0  0  0
 30 29  1  0  0  0  0
 31 32  1  0  0  0  0
 32 24  1  0  0  0  0
 32 27  2  0  0  0  0
 35 25  1  0  0  0  0
 39 29  1  0  0  0  0
 40 30  1  0  0  0  0
 41 31  1  0  0  0  0
 42  1  1  0  0  0  0
 43 44  1  1  0  0  0
 43 42  1  0  0  0  0
 43 49  1  0  0  0  0
 45 43  1  0  0  0  0
 46 45  1  0  0  0  0
 47 45  1  0  0  0  0
 48 45  1  0  0  0  0
 49 51  1  0  0  0  0
 49 52  1  0  0  0  0
 50 49  1  0  0  0  0
 52 57  1  0  0  0  0
 53 52  2  0  0  0  0
 53 54  1  0  0  0  0
 54 55  2  0  0  0  0
 55 56  1  0  0  0  0
 55 60  1  0  0  0  0
 56 61  1  0  0  0  0
 57 62  1  0  0  0  0
 57 56  2  0  0  0  0
 58 53  1  0  0  0  0
 59 54  1  0  0  0  0
M  END
>  <MODEL>
2

>  <REMARK>
 VINA RESULT:    -8.089      2.502      4.965
 INTER + INTRA:         -12.804
 INTER:                 -11.661
 INTRA:                  -1.143
 UNBOUND:                -0.695
  Name = 
  9 active torsions:
  status: ('A' for Active; 'I' for Inactive)
    1  A    between atoms: C_1  and  C_2
    2  A    between atoms: C_2  and  C_3
    3  A    between atoms: C_2  and  O_10
    4  A    between atoms: C_3  and  C_4
    5  A    between atoms: O_10  and  C_11
    6  A    between atoms: C_14  and  C_15
    7  A    between atoms: C_15  and  N_16
    8  A    between atoms: N_19  and  C_20
    9  A    between atoms: C_29  and  C_30
                            x       y       z     vdW  Elec       q    Type
                         _______ _______ _______ _____ _____    ______ ____

>  <TORSDO>
F 9

$$$$
=
 OpenBabel07192307433D

 62 65  0  0  1  0  0  0  0  0999 V2000
    2.1940    5.1550   18.7560 C   0  0  0  0  0  0  0  0  0  0  0  0
    1.8460    5.1930   20.1150 C   0  0  0  0  0  0  0  0  0  0  0  0
    1.7320    6.4120   20.7900 C   0  0  0  0  0  0  0  0  0  0  0  0
    1.9400    7.6230   20.1020 C   0  0  0  0  0  0  0  0  0  0  0  0
    2.2250    7.5740   18.7190 C   0  0  0  0  0  0  0  0  0  0  0  0
    2.3710    6.3470   18.0550 C   0  0  0  0  0  0  0  0  0  0  0  0
    1.6470    4.2630   20.6510 H   0  0  0  0  0  0  0  0  0  0  0  0
    1.4500    6.4160   21.8500 H   0  0  0  0  0  0  0  0  0  0  0  0
    2.5490    6.3510   16.9830 H   0  0  0  0  0  0  0  0  0  0  0  0
    2.2560    8.8110   17.9060 C   0  0  0  0  0  0  0  0  0  0  0  0
    1.0610    9.2170   17.3880 N   0  0  0  0  0  0  0  0  0  0  0  0
    3.3030    9.4150   17.7270 O   0  0  0  0  0  0  0  0  0  0  0  0
    1.1070    9.9810   16.7260 H   0  0  0  0  0  0  0  0  0  0  0  0
    0.2820    8.5850   17.3210 H   0  0  0  0  0  0  0  0  0  0  0  0
    1.8110    8.9280   20.8420 C   0  0  0  0  0  0  0  0  0  0  0  0
    2.2530    8.8340   21.8430 H   0  0  0  0  0  0  0  0  0  0  0  0
    2.3620    9.7310   20.3400 H   0  0  0  0  0  0  0  0  0  0  0  0
    0.4280    9.3140   20.9700 N   0  0  0  0  0  0  0  0  0  0  0  0
   -0.0150   10.4310   20.3150 C   0  0  0  0  0  0  0  0  0  0  0  0
    0.7060   11.1970   19.6880 O   0  0  0  0  0  0  0  0  0  0  0  0
   -1.3610   10.5980   20.4870 N   0  0  0  0  0  0  0  0  0  0  0  0
   -0.2390    8.5430   20.9770 H   0  0  0  0  0  0  0  0  0  0  0  0
   -1.7310   10.2120   21.3500 H   0  0  0  0  0  0  0  0  0  0  0  0
   -2.0040   11.8020   20.0120 C   0  0  2  0  0  0  0  0  0  0  0  0
   -3.0070   12.3880   21.0330 C   0  0  0  0  0  0  0  0  0  0  0  0
   -4.1060   13.0840   20.2210 C   0  0  0  0  0  0  0  0  0  0  0  0
   -4.1070   12.2660   18.9660 C   0  0  0  0  0  0  0  0  0  0  0  0
   -5.0870   12.2120   17.9870 C   0  0  0  0  0  0  0  0  0  0  0  0
   -4.8660   11.4070   16.8640 C   0  0  0  0  0  0  0  0  0  0  0  0
   -3.6670   10.6870   16.7290 C   0  0  0  0  0  0  0  0  0  0  0  0
   -2.6770   10.7610   17.7150 C   0  0  0  0  0  0  0  0  0  0  0  0
   -2.9130   11.5450   18.8390 C   0  0  0  0  0  0  0  0  0  0  0  0
   -1.2460   12.5490   19.7470 H   0  0  0  0  0  0  0  0  0  0  0  0
   -2.5260   13.0710   21.7450 H   0  0  0  0  0  0  0  0  0  0  0  0
   -3.4590   11.5830   21.6320 H   0  0  0  0  0  0  0  0  0  0  0  0
   -5.0660   13.0530   20.7470 H   0  0  0  0  0  0  0  0  0  0  0  0
   -3.8360   14.1200   19.9960 H   0  0  0  0  0  0  0  0  0  0  0  0
   -6.0080   12.7770   18.0860 H   0  0  0  0  0  0  0  0  0  0  0  0
   -5.6270   11.3430   16.0870 H   0  0  0  0  0  0  0  0  0  0  0  0
   -3.5060   10.0730   15.8440 H   0  0  0  0  0  0  0  0  0  0  0  0
   -1.7400   10.2200   17.6010 H   0  0  0  0  0  0  0  0  0  0  0  0
    2.2310    3.9080   18.1990 O   0  0  0  0  0  0  0  0  0  0  0  0
    3.4670    3.1860   18.2450 C   0  0  1  0  0  0  0  0  0  0  0  0
    3.9570    3.3210   19.2180 H   0  0  0  0  0  0  0  0  0  0  0  0
    3.1180    1.7040   18.1340 C   0  0  0  0  0  0  0  0  0  0  0  0
    3.2070    1.2290   19.1140 H   0  0  0  0  0  0  0  0  0  0  0  0
    3.7800    1.1860   17.4390 H   0  0  0  0  0  0  0  0  0  0  0  0
    2.0790    1.5510   17.8200 H   0  0  0  0  0  0  0  0  0  0  0  0
    4.4310    3.6370   17.1330 C   0  0  0  0  0  0  0  0  0  0  0  0
    3.8350    4.0860   16.3290 H   0  0  0  0  0  0  0  0  0  0  0  0
    4.9180    2.7660   16.6900 H   0  0  0  0  0  0  0  0  0  0  0  0
    5.5280    4.5930   17.5420 C   0  0  0  0  0  0  0  0  0  0  0  0
    6.1980    5.3700   16.5740 C   0  0  0  0  0  0  0  0  0  0  0  0
    7.2190    6.2450   16.9530 C   0  0  0  0  0  0  0  0  0  0  0  0
    7.5800    6.3570   18.3020 C   0  0  0  0  0  0  0  0  0  0  0  0
    6.9220    5.5900   19.2730 C   0  0  0  0  0  0  0  0  0  0  0  0
    5.9070    4.7100   18.8940 C   0  0  0  0  0  0  0  0  0  0  0  0
    5.9380    5.3010   15.5130 H   0  0  0  0  0  0  0  0  0  0  0  0
    7.7280    6.8370   16.1870 H   0  0  0  0  0  0  0  0  0  0  0  0
    8.3680    7.0440   18.5980 H   0  0  0  0  0  0  0  0  0  0  0  0
    7.1960    5.6730   20.3300 H   0  0  0  0  0  0  0  0  0  0  0  0
    5.4120    4.1180   19.6650 H   0  0  0  0  0  0  0  0  0  0  0  0
  1  2  1  0  0  0  0
  2  7  1  0  0  0  0
  2  3  2  0  0  0  0
  3  8  1  0  0  0  0
  4  3  1  0  0  0  0
  4 15  1  0  0  0  0
  5  4  2  0  0  0  0
  6  5  1  0  0  0  0
  6  1  2  0  0  0  0
  9  6  1  0  0  0  0
 10  5  1  0  0  0  0
 11 10  1  0  0  0  0
 12 10  2  0  0  0  0
 13 11  1  0  0  0  0
 14 11  1  0  0  0  0
 15 18  1  0  0  0  0
 15 16  1  0  0  0  0
 17 15  1  0  0  0  0
 18 22  1  0  0  0  0
 19 21  1  0  0  0  0
 19 18  1  0  0  0  0
 20 19  2  0  0  0  0
 21 23  1  0  0  0  0
 24 33  1  6  0  0  0
 24 21  1  0  0  0  0
 24 25  1  0  0  0  0
 25 35  1  0  0  0  0
 25 34  1  0  0  0  0
 26 36  1  0  0  0  0
 26 25  1  0  0  0  0
 27 26  1  0  0  0  0
 28 38  1  0  0  0  0
 28 27  2  0  0  0  0
 29 28  1  0  0  0  0
 30 29  2  0  0  0  0
 30 31  1  0  0  0  0
 31 32  2  0  0  0  0
 32 27  1  0  0  0  0
 32 24  1  0  0  0  0
 37 26  1  0  0  0  0
 39 29  1  0  0  0  0
 40 30  1  0  0  0  0
 41 31  1  0  0  0  0
 42 43  1  0  0  0  0
 42  1  1  0  0  0  0
 43 44  1  1  0  0  0
 45 43  1  0  0  0  0
 45 46  1  0  0  0  0
 47 45  1  0  0  0  0
 48 45  1  0  0  0  0
 49 52  1  0  0  0  0
 49 43  1  0  0  0  0
 50 49  1  0  0  0  0
 51 49  1  0  0  0  0
 52 57  1  0  0  0  0
 53 54  1  0  0  0  0
 53 52  2  0  0  0  0
 54 55  2  0  0  0  0
 55 60  1  0  0  0  0
 55 56  1  0  0  0  0
 56 61  1  0  0  0  0
 57 56  2  0  0  0  0
 57 62  1  0  0  0  0
 58 53  1  0  0  0  0
 59 54  1  0  0  0  0
M  END
>  <MODEL>
3

>  <REMARK>
 VINA RESULT:    -8.041      2.580      4.543
 INTER + INTRA:         -12.732
 INTER:                 -10.807
 INTRA:                  -1.925
 UNBOUND:                -0.695
  Name = 
  9 active torsions:
  status: ('A' for Active; 'I' for Inactive)
    1  A    between atoms: C_1  and  C_2
    2  A    between atoms: C_2  and  C_3
    3  A    between atoms: C_2  and  O_10
    4  A    between atoms: C_3  and  C_4
    5  A    between atoms: O_10  and  C_11
    6  A    between atoms: C_14  and  C_15
    7  A    between atoms: C_15  and  N_16
    8  A    between atoms: N_19  and  C_20
    9  A    between atoms: C_29  and  C_30
                            x       y       z     vdW  Elec       q    Type
                         _______ _______ _______ _____ _____    ______ ____

>  <TORSDO>
F 9

$$$$
=
 OpenBabel07192307433D

 62 65  0  0  1  0  0  0  0  0999 V2000
    3.9330    4.9020   18.0480 C   0  0  0  0  0  0  0  0  0  0  0  0
    3.8300    6.2980   18.1560 C   0  0  0  0  0  0  0  0  0  0  0  0
    2.9550    6.8810   19.0770 C   0  0  0  0  0  0  0  0  0  0  0  0
    2.1820    6.0700   19.9290 C   0  0  0  0  0  0  0  0  0  0  0  0
    2.3420    4.6680   19.8570 C   0  0  0  0  0  0  0  0  0  0  0  0
    3.1970    4.0870   18.9070 C   0  0  0  0  0  0  0  0  0  0  0  0
    4.4510    6.9380   17.5260 H   0  0  0  0  0  0  0  0  0  0  0  0
    2.9000    7.9750   19.1480 H   0  0  0  0  0  0  0  0  0  0  0  0
    3.3240    3.0080   18.9100 H   0  0  0  0  0  0  0  0  0  0  0  0
    1.7090    3.7780   20.8560 C   0  0  0  0  0  0  0  0  0  0  0  0
    0.5410    3.1840   20.4740 N   0  0  0  0  0  0  0  0  0  0  0  0
    2.2230    3.6020   21.9510 O   0  0  0  0  0  0  0  0  0  0  0  0
    0.0440    2.6870   21.2020 H   0  0  0  0  0  0  0  0  0  0  0  0
    0.0080    3.5370   19.6980 H   0  0  0  0  0  0  0  0  0  0  0  0
    1.2460    6.7130   20.9180 C   0  0  0  0  0  0  0  0  0  0  0  0
    0.2200    6.6930   20.5270 H   0  0  0  0  0  0  0  0  0  0  0  0
    1.2220    6.1630   21.8650 H   0  0  0  0  0  0  0  0  0  0  0  0
    1.6270    8.0790   21.1760 N   0  0  0  0  0  0  0  0  0  0  0  0
    0.7820    9.0880   20.8050 C   0  0  0  0  0  0  0  0  0  0  0  0
   -0.2550    8.9260   20.1740 O   0  0  0  0  0  0  0  0  0  0  0  0
    1.2690   10.3040   21.1960 N   0  0  0  0  0  0  0  0  0  0  0  0
    2.0990    8.2370   22.0670 H   0  0  0  0  0  0  0  0  0  0  0  0
    2.2810   10.3540   21.2700 H   0  0  0  0  0  0  0  0  0  0  0  0
    0.6110   11.5170   20.7650 C   0  0  2  0  0  0  0  0  0  0  0  0
    1.5840   12.7130   20.6390 C   0  0  0  0  0  0  0  0  0  0  0  0
    0.7710   13.9760   20.9530 C   0  0  0  0  0  0  0  0  0  0  0  0
   -0.2540   13.4380   21.9020 C   0  0  0  0  0  0  0  0  0  0  0  0
   -1.0700   14.1520   22.7670 C   0  0  0  0  0  0  0  0  0  0  0  0
   -1.9970   13.4490   23.5440 C   0  0  0  0  0  0  0  0  0  0  0  0
   -2.1060   12.0520   23.4330 C   0  0  0  0  0  0  0  0  0  0  0  0
   -1.2880   11.3430   22.5460 C   0  0  0  0  0  0  0  0  0  0  0  0
   -0.3550   12.0450   21.7930 C   0  0  0  0  0  0  0  0  0  0  0  0
    0.0930   11.3410   19.8150 H   0  0  0  0  0  0  0  0  0  0  0  0
    2.0570   12.7630   19.6510 H   0  0  0  0  0  0  0  0  0  0  0  0
    2.4000   12.6220   21.3710 H   0  0  0  0  0  0  0  0  0  0  0  0
    1.4010   14.7500   21.4020 H   0  0  0  0  0  0  0  0  0  0  0  0
    0.2840   14.3660   20.0530 H   0  0  0  0  0  0  0  0  0  0  0  0
   -0.9930   15.2310   22.8440 H   0  0  0  0  0  0  0  0  0  0  0  0
   -2.6420   13.9890   24.2370 H   0  0  0  0  0  0  0  0  0  0  0  0
   -2.8390   11.5210   24.0380 H   0  0  0  0  0  0  0  0  0  0  0  0
   -1.3880   10.2640   22.4450 H   0  0  0  0  0  0  0  0  0  0  0  0
    4.8530    4.4540   17.1430 O   0  0  0  0  0  0  0  0  0  0  0  0
    5.9760    5.2930   16.8520 C   0  0  1  0  0  0  0  0  0  0  0  0
    6.0840    6.0730   17.6170 H   0  0  0  0  0  0  0  0  0  0  0  0
    7.2210    4.4150   16.9470 C   0  0  0  0  0  0  0  0  0  0  0  0
    7.2440    3.7130   16.1090 H   0  0  0  0  0  0  0  0  0  0  0  0
    7.2410    3.8440   17.8760 H   0  0  0  0  0  0  0  0  0  0  0  0
    8.1430    5.0040   16.8690 H   0  0  0  0  0  0  0  0  0  0  0  0
    5.8440    5.9610   15.4720 C   0  0  0  0  0  0  0  0  0  0  0  0
    6.5100    6.8340   15.4520 H   0  0  0  0  0  0  0  0  0  0  0  0
    4.8340    6.3570   15.3470 H   0  0  0  0  0  0  0  0  0  0  0  0
    6.1260    5.0870   14.2710 C   0  0  0  0  0  0  0  0  0  0  0  0
    5.2020    4.0990   13.8720 C   0  0  0  0  0  0  0  0  0  0  0  0
    5.4700    3.2860   12.7680 C   0  0  0  0  0  0  0  0  0  0  0  0
    6.6610    3.4510   12.0490 C   0  0  0  0  0  0  0  0  0  0  0  0
    7.5870    4.4290   12.4370 C   0  0  0  0  0  0  0  0  0  0  0  0
    7.3230    5.2370   13.5430 C   0  0  0  0  0  0  0  0  0  0  0  0
    4.2650    3.9470   14.4160 H   0  0  0  0  0  0  0  0  0  0  0  0
    4.7410    2.5240   12.4770 H   0  0  0  0  0  0  0  0  0  0  0  0
    6.8650    2.8240   11.1860 H   0  0  0  0  0  0  0  0  0  0  0  0
    8.5190    4.5660   11.8790 H   0  0  0  0  0  0  0  0  0  0  0  0
    8.0610    5.9880   13.8320 H   0  0  0  0  0  0  0  0  0  0  0  0
  1  2  2  0  0  0  0
  1  6  1  0  0  0  0
  2  3  1  0  0  0  0
  3  8  1  0  0  0  0
  3  4  2  0  0  0  0
  4 15  1  0  0  0  0
  5  4  1  0  0  0  0
  5 10  1  0  0  0  0
  6  9  1  0  0  0  0
  6  5  2  0  0  0  0
  7  2  1  0  0  0  0
 10 12  2  0  0  0  0
 11 10  1  0  0  0  0
 11 13  1  0  0  0  0
 14 11  1  0  0  0  0
 15 18  1  0  0  0  0
 15 17  1  0  0  0  0
 16 15  1  0  0  0  0
 18 22  1  0  0  0  0
 19 18  1  0  0  0  0
 19 21  1  0  0  0  0
 20 19  2  0  0  0  0
 21 23  1  0  0  0  0
 24 33  1  6  0  0  0
 24 21  1  0  0  0  0
 24 32  1  0  0  0  0
 25 24  1  0  0  0  0
 25 26  1  0  0  0  0
 25 35  1  0  0  0  0
 26 36  1  0  0  0  0
 26 27  1  0  0  0  0
 27 28  1  0  0  0  0
 28 38  1  0  0  0  0
 28 29  2  0  0  0  0
 29 39  1  0  0  0  0
 30 29  1  0  0  0  0
 30 40  1  0  0  0  0
 31 30  2  0  0  0  0
 32 27  2  0  0  0  0
 32 31  1  0  0  0  0
 34 25  1  0  0  0  0
 37 26  1  0  0  0  0
 41 31  1  0  0  0  0
 42  1  1  0  0  0  0
 43 45  1  0  0  0  0
 43 42  1  0  0  0  0
 43 44  1  1  0  0  0
 45 47  1  0  0  0  0
 46 45  1  0  0  0  0
 48 45  1  0  0  0  0
 49 43  1  0  0  0  0
 50 49  1  0  0  0  0
 51 49  1  0  0  0  0
 52 49  1  0  0  0  0
 53 52  1  0  0  0  0
 53 58  1  0  0  0  0
 54 53  2  0  0  0  0
 55 56  2  0  0  0  0
 55 54  1  0  0  0  0
 56 57  1  0  0  0  0
 57 62  1  0  0  0  0
 57 52  2  0  0  0  0
 59 54  1  0  0  0  0
 60 55  1  0  0  0  0
 61 56  1  0  0  0  0
M  END
>  <MODEL>
4

>  <REMARK>
 VINA RESULT:    -7.987      2.497      4.667
 INTER + INTRA:         -12.650
 INTER:                 -11.768
 INTRA:                  -0.882
 UNBOUND:                -0.695
  Name = 
  9 active torsions:
  status: ('A' for Active; 'I' for Inactive)
    1  A    between atoms: C_1  and  C_2
    2  A    between atoms: C_2  and  C_3
    3  A    between atoms: C_2  and  O_10
    4  A    between atoms: C_3  and  C_4
    5  A    between atoms: O_10  and  C_11
    6  A    between atoms: C_14  and  C_15
    7  A    between atoms: C_15  and  N_16
    8  A    between atoms: N_19  and  C_20
    9  A    between atoms: C_29  and  C_30
                            x       y       z     vdW  Elec       q    Type
                         _______ _______ _______ _____ _____    ______ ____

>  <TORSDO>
F 9

$$$$
=
 OpenBabel07192307433D

 62 65  0  0  1  0  0  0  0  0999 V2000
    4.4140    4.4730   16.2030 C   0  0  0  0  0  0  0  0  0  0  0  0
    4.2810    5.7210   16.8300 C   0  0  0  0  0  0  0  0  0  0  0  0
    3.8700    5.8110   18.1630 C   0  0  0  0  0  0  0  0  0  0  0  0
    3.6090    4.6410   18.9030 C   0  0  0  0  0  0  0  0  0  0  0  0
    3.8100    3.3890   18.2810 C   0  0  0  0  0  0  0  0  0  0  0  0
    4.1900    3.3060   16.9330 C   0  0  0  0  0  0  0  0  0  0  0  0
    4.5160    6.6330   16.2790 H   0  0  0  0  0  0  0  0  0  0  0  0
    3.7830    6.7980   18.6340 H   0  0  0  0  0  0  0  0  0  0  0  0
    4.3740    2.3250   16.5010 H   0  0  0  0  0  0  0  0  0  0  0  0
    3.7440    2.1340   19.0620 C   0  0  0  0  0  0  0  0  0  0  0  0
    4.8920    1.7660   19.7020 N   0  0  0  0  0  0  0  0  0  0  0  0
    2.7100    1.4840   19.1170 O   0  0  0  0  0  0  0  0  0  0  0  0
    4.8850    0.8450   20.1200 H   0  0  0  0  0  0  0  0  0  0  0  0
    5.7810    2.1540   19.4380 H   0  0  0  0  0  0  0  0  0  0  0  0
    3.1700    4.7550   20.3390 C   0  0  0  0  0  0  0  0  0  0  0  0
    2.2600    4.1600   20.4990 H   0  0  0  0  0  0  0  0  0  0  0  0
    3.9230    4.3480   21.0230 H   0  0  0  0  0  0  0  0  0  0  0  0
    2.9060    6.1270   20.6910 N   0  0  0  0  0  0  0  0  0  0  0  0
    1.7880    6.7390   20.1950 C   0  0  0  0  0  0  0  0  0  0  0  0
    1.0230    6.2330   19.3840 O   0  0  0  0  0  0  0  0  0  0  0  0
    1.6600    8.0060   20.6940 N   0  0  0  0  0  0  0  0  0  0  0  0
    3.1250    6.3780   21.6560 H   0  0  0  0  0  0  0  0  0  0  0  0
    2.5350    8.4520   20.9510 H   0  0  0  0  0  0  0  0  0  0  0  0
    0.6350    8.8840   20.1770 C   0  0  2  0  0  0  0  0  0  0  0  0
    1.1980    9.9660   19.2260 C   0  0  0  0  0  0  0  0  0  0  0  0
    0.2940   11.1960   19.3740 C   0  0  0  0  0  0  0  0  0  0  0  0
   -0.1640   11.0550   20.7920 C   0  0  0  0  0  0  0  0  0  0  0  0
   -0.7470   12.0220   21.5980 C   0  0  0  0  0  0  0  0  0  0  0  0
   -1.1430   11.6640   22.8910 C   0  0  0  0  0  0  0  0  0  0  0  0
   -0.9670   10.3480   23.3520 C   0  0  0  0  0  0  0  0  0  0  0  0
   -0.3920    9.3760   22.5250 C   0  0  0  0  0  0  0  0  0  0  0  0
    0.0190    9.7440   21.2490 C   0  0  0  0  0  0  0  0  0  0  0  0
   -0.1400    8.2950   19.6730 H   0  0  0  0  0  0  0  0  0  0  0  0
    1.2540    9.6190   18.1870 H   0  0  0  0  0  0  0  0  0  0  0  0
    2.2230   10.2380   19.5180 H   0  0  0  0  0  0  0  0  0  0  0  0
    0.8520   12.1210   19.1980 H   0  0  0  0  0  0  0  0  0  0  0  0
   -0.5620   11.1420   18.6940 H   0  0  0  0  0  0  0  0  0  0  0  0
   -0.8930   13.0350   21.2390 H   0  0  0  0  0  0  0  0  0  0  0  0
   -1.5950   12.4100   23.5450 H   0  0  0  0  0  0  0  0  0  0  0  0
   -1.2890   10.0830   24.3580 H   0  0  0  0  0  0  0  0  0  0  0  0
   -0.2750    8.3520   22.8740 H   0  0  0  0  0  0  0  0  0  0  0  0
    4.8640    4.5130   14.9140 O   0  0  0  0  0  0  0  0  0  0  0  0
    6.1770    4.0100   14.6420 C   0  0  1  0  0  0  0  0  0  0  0  0
    6.3880    3.1280   15.2610 H   0  0  0  0  0  0  0  0  0  0  0  0
    6.1790    3.5360   13.1910 C   0  0  0  0  0  0  0  0  0  0  0  0
    7.1990    3.2990   12.8800 H   0  0  0  0  0  0  0  0  0  0  0  0
    5.7810    4.2970   12.5190 H   0  0  0  0  0  0  0  0  0  0  0  0
    5.6050    2.6100   13.0640 H   0  0  0  0  0  0  0  0  0  0  0  0
    7.2590    5.0730   14.9030 C   0  0  0  0  0  0  0  0  0  0  0  0
    7.0130    5.9620   14.3080 H   0  0  0  0  0  0  0  0  0  0  0  0
    8.2220    4.7220   14.5270 H   0  0  0  0  0  0  0  0  0  0  0  0
    7.4720    5.4770   16.3450 C   0  0  0  0  0  0  0  0  0  0  0  0
    7.6380    4.4980   17.3460 C   0  0  0  0  0  0  0  0  0  0  0  0
    7.8240    4.8740   18.6780 C   0  0  0  0  0  0  0  0  0  0  0  0
    7.8500    6.2310   19.0260 C   0  0  0  0  0  0  0  0  0  0  0  0
    7.6840    7.2130   18.0400 C   0  0  0  0  0  0  0  0  0  0  0  0
    7.4910    6.8380   16.7100 C   0  0  0  0  0  0  0  0  0  0  0  0
    7.6220    3.4310   17.1030 H   0  0  0  0  0  0  0  0  0  0  0  0
    7.9490    4.0990   19.4400 H   0  0  0  0  0  0  0  0  0  0  0  0
    8.0020    6.5230   20.0610 H   0  0  0  0  0  0  0  0  0  0  0  0
    7.7050    8.2760   18.3030 H   0  0  0  0  0  0  0  0  0  0  0  0
    7.3590    7.6190   15.9590 H   0  0  0  0  0  0  0  0  0  0  0  0
  1  2  2  0  0  0  0
  1  6  1  0  0  0  0
  2  3  1  0  0  0  0
  3  8  1  0  0  0  0
  3  4  2  0  0  0  0
  4 15  1  0  0  0  0
  5  4  1  0  0  0  0
  5 10  1  0  0  0  0
  6  5  2  0  0  0  0
  7  2  1  0  0  0  0
  9  6  1  0  0  0  0
 10 12  2  0  0  0  0
 10 11  1  0  0  0  0
 11 13  1  0  0  0  0
 14 11  1  0  0  0  0
 15 16  1  0  0  0  0
 15 18  1  0  0  0  0
 15 17  1  0  0  0  0
 18 22  1  0  0  0  0
 19 18  1  0  0  0  0
 19 21  1  0  0  0  0
 20 19  2  0  0  0  0
 21 23  1  0  0  0  0
 24 33  1  6  0  0  0
 24 21  1  0  0  0  0
 24 32  1  0  0  0  0
 25 26  1  0  0  0  0
 25 35  1  0  0  0  0
 25 24  1  0  0  0  0
 26 27  1  0  0  0  0
 27 32  2  0  0  0  0
 27 28  1  0  0  0  0
 28 29  2  0  0  0  0
 29 30  1  0  0  0  0
 29 39  1  0  0  0  0
 30 40  1  0  0  0  0
 31 41  1  0  0  0  0
 31 30  2  0  0  0  0
 32 31  1  0  0  0  0
 34 25  1  0  0  0  0
 36 26  1  0  0  0  0
 37 26  1  0  0  0  0
 38 28  1  0  0  0  0
 42  1  1  0  0  0  0
 43 49  1  0  0  0  0
 43 42  1  0  0  0  0
 43 44  1  1  0  0  0
 45 43  1  0  0  0  0
 46 45  1  0  0  0  0
 47 45  1  0  0  0  0
 48 45  1  0  0  0  0
 49 52  1  0  0  0  0
 50 49  1  0  0  0  0
 51 49  1  0  0  0  0
 52 57  2  0  0  0  0
 52 53  1  0  0  0  0
 53 54  2  0  0  0  0
 54 55  1  0  0  0  0
 54 59  1  0  0  0  0
 55 60  1  0  0  0  0
 56 61  1  0  0  0  0
 56 55  2  0  0  0  0
 57 56  1  0  0  0  0
 58 53  1  0  0  0  0
 62 57  1  0  0  0  0
M  END
>  <MODEL>
5

>  <REMARK>
 VINA RESULT:    -7.958      2.731      5.574
 INTER + INTRA:         -12.607
 INTER:                 -11.673
 INTRA:                  -0.934
 UNBOUND:                -0.695
  Name = 
  9 active torsions:
  status: ('A' for Active; 'I' for Inactive)
    1  A    between atoms: C_1  and  C_2
    2  A    between atoms: C_2  and  C_3
    3  A    between atoms: C_2  and  O_10
    4  A    between atoms: C_3  and  C_4
    5  A    between atoms: O_10  and  C_11
    6  A    between atoms: C_14  and  C_15
    7  A    between atoms: C_15  and  N_16
    8  A    between atoms: N_19  and  C_20
    9  A    between atoms: C_29  and  C_30
                            x       y       z     vdW  Elec       q    Type
                         _______ _______ _______ _____ _____    ______ ____

>  <TORSDO>
F 9

$$$$
=
 OpenBabel07192307433D

 62 65  0  0  1  0  0  0  0  0999 V2000
   -1.7770   12.1610   21.7660 C   0  0  0  0  0  0  0  0  0  0  0  0
   -0.5820   11.5790   22.2190 C   0  0  0  0  0  0  0  0  0  0  0  0
    0.1980   10.7930   21.3660 C   0  0  0  0  0  0  0  0  0  0  0  0
   -0.1960   10.5960   20.0280 C   0  0  0  0  0  0  0  0  0  0  0  0
   -1.3650   11.2400   19.5660 C   0  0  0  0  0  0  0  0  0  0  0  0
   -2.1610   12.0010   20.4350 C   0  0  0  0  0  0  0  0  0  0  0  0
   -0.2470   11.7540   23.2430 H   0  0  0  0  0  0  0  0  0  0  0  0
    1.1320   10.3560   21.7410 H   0  0  0  0  0  0  0  0  0  0  0  0
   -3.0310   12.5150   20.0330 H   0  0  0  0  0  0  0  0  0  0  0  0
   -1.7180   11.2330   18.1290 C   0  0  0  0  0  0  0  0  0  0  0  0
   -1.3190   12.3220   17.4090 N   0  0  0  0  0  0  0  0  0  0  0  0
   -2.3300   10.2950   17.6400 O   0  0  0  0  0  0  0  0  0  0  0  0
   -1.6760   12.3780   16.4640 H   0  0  0  0  0  0  0  0  0  0  0  0
   -1.0610   13.1800   17.8640 H   0  0  0  0  0  0  0  0  0  0  0  0
    0.6570    9.7480   19.1220 C   0  0  0  0  0  0  0  0  0  0  0  0
    0.0270    9.2640   18.3640 H   0  0  0  0  0  0  0  0  0  0  0  0
    1.3830   10.3550   18.5700 H   0  0  0  0  0  0  0  0  0  0  0  0
    1.3590    8.7380   19.8700 N   0  0  0  0  0  0  0  0  0  0  0  0
    2.0460    7.7650   19.1970 C   0  0  0  0  0  0  0  0  0  0  0  0
    2.0360    7.6280   17.9800 O   0  0  0  0  0  0  0  0  0  0  0  0
    2.7110    6.9440   20.0640 N   0  0  0  0  0  0  0  0  0  0  0  0
    1.8270    9.0690   20.7140 H   0  0  0  0  0  0  0  0  0  0  0  0
    2.2880    6.8630   20.9830 H   0  0  0  0  0  0  0  0  0  0  0  0
    3.3690    5.7550   19.5700 C   0  0  2  0  0  0  0  0  0  0  0  0
    3.8430    5.9000   18.1040 C   0  0  0  0  0  0  0  0  0  0  0  0
    3.7820    4.4990   17.4830 C   0  0  0  0  0  0  0  0  0  0  0  0
    2.6620    3.8800   18.2610 C   0  0  0  0  0  0  0  0  0  0  0  0
    1.9360    2.7400   17.9480 C   0  0  0  0  0  0  0  0  0  0  0  0
    0.9530    2.3080   18.8430 C   0  0  0  0  0  0  0  0  0  0  0  0
    0.7210    3.0070   20.0400 C   0  0  0  0  0  0  0  0  0  0  0  0
    1.4700    4.1470   20.3540 C   0  0  0  0  0  0  0  0  0  0  0  0
    2.4310    4.5840   19.4500 C   0  0  0  0  0  0  0  0  0  0  0  0
    4.2120    5.5000   20.2220 H   0  0  0  0  0  0  0  0  0  0  0  0
    4.8450    6.3390   18.0310 H   0  0  0  0  0  0  0  0  0  0  0  0
    3.1690    6.5680   17.5470 H   0  0  0  0  0  0  0  0  0  0  0  0
    3.5730    4.5510   16.4090 H   0  0  0  0  0  0  0  0  0  0  0  0
    4.7120    3.9480   17.6560 H   0  0  0  0  0  0  0  0  0  0  0  0
    2.1230    2.1940   17.0290 H   0  0  0  0  0  0  0  0  0  0  0  0
    0.3640    1.4200   18.6130 H   0  0  0  0  0  0  0  0  0  0  0  0
   -0.0420    2.6520   20.7310 H   0  0  0  0  0  0  0  0  0  0  0  0
    1.3060    4.6770   21.2910 H   0  0  0  0  0  0  0  0  0  0  0  0
   -2.4270   12.9420   22.6790 O   0  0  0  0  0  0  0  0  0  0  0  0
   -2.6240   14.3250   22.3630 C   0  0  1  0  0  0  0  0  0  0  0  0
   -3.0200   14.4370   21.3450 H   0  0  0  0  0  0  0  0  0  0  0  0
   -3.7020   14.8470   23.3100 C   0  0  0  0  0  0  0  0  0  0  0  0
   -3.7300   15.9390   23.2730 H   0  0  0  0  0  0  0  0  0  0  0  0
   -3.5150   14.5410   24.3400 H   0  0  0  0  0  0  0  0  0  0  0  0
   -4.7030   14.5110   23.0130 H   0  0  0  0  0  0  0  0  0  0  0  0
   -1.3160   15.1280   22.4800 C   0  0  0  0  0  0  0  0  0  0  0  0
   -0.8040   14.8120   23.3980 H   0  0  0  0  0  0  0  0  0  0  0  0
   -1.5420   16.1870   22.6170 H   0  0  0  0  0  0  0  0  0  0  0  0
   -0.3600   15.0300   21.3130 C   0  0  0  0  0  0  0  0  0  0  0  0
    0.9990   14.7170   21.5230 C   0  0  0  0  0  0  0  0  0  0  0  0
    1.8810   14.6380   20.4440 C   0  0  0  0  0  0  0  0  0  0  0  0
    1.4180   14.8680   19.1420 C   0  0  0  0  0  0  0  0  0  0  0  0
    0.0700   15.1820   18.9200 C   0  0  0  0  0  0  0  0  0  0  0  0
   -0.8110   15.2670   19.9990 C   0  0  0  0  0  0  0  0  0  0  0  0
    1.3880   14.5340   22.5300 H   0  0  0  0  0  0  0  0  0  0  0  0
    2.9320   14.3960   20.6290 H   0  0  0  0  0  0  0  0  0  0  0  0
    2.1030   14.7990   18.3020 H   0  0  0  0  0  0  0  0  0  0  0  0
   -0.3010   15.3600   17.9050 H   0  0  0  0  0  0  0  0  0  0  0  0
   -1.8550   15.5180   19.8040 H   0  0  0  0  0  0  0  0  0  0  0  0
  1  2  1  0  0  0  0
  1 42  1  0  0  0  0
  2  7  1  0  0  0  0
  3  8  1  0  0  0  0
  3  2  2  0  0  0  0
  4  3  1  0  0  0  0
  5  4  2  0  0  0  0
  5  6  1  0  0  0  0
  6  1  2  0  0  0  0
  9  6  1  0  0  0  0
 10  5  1  0  0  0  0
 11 14  1  0  0  0  0
 11 10  1  0  0  0  0
 12 10  2  0  0  0  0
 13 11  1  0  0  0  0
 15 18  1  0  0  0  0
 15  4  1  0  0  0  0
 16 15  1  0  0  0  0
 17 15  1  0  0  0  0
 18 22  1  0  0  0  0
 19 18  1  0  0  0  0
 19 21  1  0  0  0  0
 20 19  2  0  0  0  0
 21 23  1  0  0  0  0
 24 21  1  0  0  0  0
 24 33  1  1  0  0  0
 25 24  1  0  0  0  0
 26 37  1  0  0  0  0
 26 25  1  0  0  0  0
 26 27  1  0  0  0  0
 27 32  1  0  0  0  0
 28 27  2  0  0  0  0
 28 29  1  0  0  0  0
 29 30  2  0  0  0  0
 30 31  1  0  0  0  0
 30 40  1  0  0  0  0
 31 41  1  0  0  0  0
 32 24  1  0  0  0  0
 32 31  2  0  0  0  0
 34 25  1  0  0  0  0
 35 25  1  0  0  0  0
 36 26  1  0  0  0  0
 38 28  1  0  0  0  0
 39 29  1  0  0  0  0
 43 44  1  6  0  0  0
 43 49  1  0  0  0  0
 43 42  1  0  0  0  0
 43 45  1  0  0  0  0
 45 47  1  0  0  0  0
 46 45  1  0  0  0  0
 48 45  1  0  0  0  0
 49 51  1  0  0  0  0
 49 50  1  0  0  0  0
 52 53  1  0  0  0  0
 52 49  1  0  0  0  0
 53 58  1  0  0  0  0
 54 59  1  0  0  0  0
 54 53  2  0  0  0  0
 55 54  1  0  0  0  0
 56 55  2  0  0  0  0
 56 57  1  0  0  0  0
 57 52  2  0  0  0  0
 60 55  1  0  0  0  0
 61 56  1  0  0  0  0
 62 57  1  0  0  0  0
M  END
>  <MODEL>
6

>  <REMARK>
 VINA RESULT:    -7.895      2.106      9.879
 INTER + INTRA:         -12.513
 INTER:                 -11.436
 INTRA:                  -1.077
 UNBOUND:                -0.695
  Name = 
  9 active torsions:
  status: ('A' for Active; 'I' for Inactive)
    1  A    between atoms: C_1  and  C_2
    2  A    between atoms: C_2  and  C_3
    3  A    between atoms: C_2  and  O_10
    4  A    between atoms: C_3  and  C_4
    5  A    between atoms: O_10  and  C_11
    6  A    between atoms: C_14  and  C_15
    7  A    between atoms: C_15  and  N_16
    8  A    between atoms: N_19  and  C_20
    9  A    between atoms: C_29  and  C_30
                            x       y       z     vdW  Elec       q    Type
                         _______ _______ _______ _____ _____    ______ ____

>  <TORSDO>
F 9

$$$$
=
 OpenBabel07192307433D

 62 65  0  0  1  0  0  0  0  0999 V2000
    2.7740    7.0460   18.9090 C   0  0  0  0  0  0  0  0  0  0  0  0
    2.7160    8.0010   17.8820 C   0  0  0  0  0  0  0  0  0  0  0  0
    1.9180    9.1420   18.0110 C   0  0  0  0  0  0  0  0  0  0  0  0
    1.1810    9.3600   19.1920 C   0  0  0  0  0  0  0  0  0  0  0  0
    1.2990    8.4250   20.2430 C   0  0  0  0  0  0  0  0  0  0  0  0
    2.0740    7.2650   20.0950 C   0  0  0  0  0  0  0  0  0  0  0  0
    3.3110    7.8630   16.9780 H   0  0  0  0  0  0  0  0  0  0  0  0
    1.8970    9.8790   17.1980 H   0  0  0  0  0  0  0  0  0  0  0  0
    2.1730    6.5900   20.9420 H   0  0  0  0  0  0  0  0  0  0  0  0
    0.7090    8.6990   21.5730 C   0  0  0  0  0  0  0  0  0  0  0  0
   -0.5400    8.1950   21.7900 N   0  0  0  0  0  0  0  0  0  0  0  0
    1.3260    9.3410   22.4110 O   0  0  0  0  0  0  0  0  0  0  0  0
   -0.9930    8.4970   22.6420 H   0  0  0  0  0  0  0  0  0  0  0  0
   -1.1260    7.9100   21.0230 H   0  0  0  0  0  0  0  0  0  0  0  0
    0.3290   10.5950   19.3160 C   0  0  0  0  0  0  0  0  0  0  0  0
    0.0640   10.9680   18.3180 H   0  0  0  0  0  0  0  0  0  0  0  0
   -0.6190   10.3800   19.8220 H   0  0  0  0  0  0  0  0  0  0  0  0
    1.0230   11.6300   20.0400 N   0  0  0  0  0  0  0  0  0  0  0  0
    1.5690   12.6760   19.3470 C   0  0  0  0  0  0  0  0  0  0  0  0
    1.5940   12.7590   18.1260 O   0  0  0  0  0  0  0  0  0  0  0  0
    2.1170   13.5950   20.1980 N   0  0  0  0  0  0  0  0  0  0  0  0
    0.6020   11.8940   20.9310 H   0  0  0  0  0  0  0  0  0  0  0  0
    2.4410   13.2160   21.0830 H   0  0  0  0  0  0  0  0  0  0  0  0
    2.8850   14.6990   19.6690 C   0  0  2  0  0  0  0  0  0  0  0  0
    3.1450   14.5740   18.1500 C   0  0  0  0  0  0  0  0  0  0  0  0
    4.4920   15.2550   17.8770 C   0  0  0  0  0  0  0  0  0  0  0  0
    5.2030   15.0310   19.1750 C   0  0  0  0  0  0  0  0  0  0  0  0
    6.5620   15.1420   19.4310 C   0  0  0  0  0  0  0  0  0  0  0  0
    7.0150   14.9300   20.7370 C   0  0  0  0  0  0  0  0  0  0  0  0
    6.1070   14.6300   21.7660 C   0  0  0  0  0  0  0  0  0  0  0  0
    4.7360   14.5350   21.5010 C   0  0  0  0  0  0  0  0  0  0  0  0
    4.2950   14.7260   20.1960 C   0  0  0  0  0  0  0  0  0  0  0  0
    2.3790   15.6460   19.8950 H   0  0  0  0  0  0  0  0  0  0  0  0
    2.3350   15.0080   17.5510 H   0  0  0  0  0  0  0  0  0  0  0  0
    3.2130   13.5150   17.8590 H   0  0  0  0  0  0  0  0  0  0  0  0
    5.0040   14.7910   17.0270 H   0  0  0  0  0  0  0  0  0  0  0  0
    4.3640   16.3260   17.6950 H   0  0  0  0  0  0  0  0  0  0  0  0
    7.2610   15.3860   18.6380 H   0  0  0  0  0  0  0  0  0  0  0  0
    8.0800   15.0040   20.9580 H   0  0  0  0  0  0  0  0  0  0  0  0
    6.4750   14.4770   22.7800 H   0  0  0  0  0  0  0  0  0  0  0  0
    4.0310   14.3230   22.3020 H   0  0  0  0  0  0  0  0  0  0  0  0
    3.6200    5.9980   18.6830 O   0  0  0  0  0  0  0  0  0  0  0  0
    3.5320    5.3200   17.4250 C   0  0  1  0  0  0  0  0  0  0  0  0
    2.8600    5.8570   16.7430 H   0  0  0  0  0  0  0  0  0  0  0  0
    4.9230    5.3700   16.7960 C   0  0  0  0  0  0  0  0  0  0  0  0
    5.2750    4.3550   16.5950 H   0  0  0  0  0  0  0  0  0  0  0  0
    5.6430    5.8610   17.4520 H   0  0  0  0  0  0  0  0  0  0  0  0
    4.9150    5.8820   15.8260 H   0  0  0  0  0  0  0  0  0  0  0  0
    3.0250    3.8760   17.5910 C   0  0  0  0  0  0  0  0  0  0  0  0
    3.8260    3.1960   17.2720 H   0  0  0  0  0  0  0  0  0  0  0  0
    2.1930    3.6950   16.9080 H   0  0  0  0  0  0  0  0  0  0  0  0
    2.5530    3.4840   18.9730 C   0  0  0  0  0  0  0  0  0  0  0  0
    1.2080    3.6750   19.3510 C   0  0  0  0  0  0  0  0  0  0  0  0
    0.7770    3.3210   20.6320 C   0  0  0  0  0  0  0  0  0  0  0  0
    1.6820    2.7700   21.5480 C   0  0  0  0  0  0  0  0  0  0  0  0
    3.0220    2.5770   21.1840 C   0  0  0  0  0  0  0  0  0  0  0  0
    3.4540    2.9360   19.9070 C   0  0  0  0  0  0  0  0  0  0  0  0
    0.4800    4.1050   18.6560 H   0  0  0  0  0  0  0  0  0  0  0  0
   -0.2700    3.4800   20.9060 H   0  0  0  0  0  0  0  0  0  0  0  0
    1.3450    2.4880   22.5410 H   0  0  0  0  0  0  0  0  0  0  0  0
    3.7350    2.1450   21.8940 H   0  0  0  0  0  0  0  0  0  0  0  0
    4.5030    2.7830   19.6470 H   0  0  0  0  0  0  0  0  0  0  0  0
  1  6  1  0  0  0  0
  2  3  1  0  0  0  0
  2  1  2  0  0  0  0
  3  4  2  0  0  0  0
  4 15  1  0  0  0  0
  4  5  1  0  0  0  0
  5 10  1  0  0  0  0
  6  5  2  0  0  0  0
  6  9  1  0  0  0  0
  7  2  1  0  0  0  0
  8  3  1  0  0  0  0
 10 11  1  0  0  0  0
 10 12  2  0  0  0  0
 11 13  1  0  0  0  0
 14 11  1  0  0  0  0
 15 17  1  0  0  0  0
 15 18  1  0  0  0  0
 16 15  1  0  0  0  0
 18 22  1  0  0  0  0
 19 18  1  0  0  0  0
 19 21  1  0  0  0  0
 20 19  2  0  0  0  0
 21 23  1  0  0  0  0
 24 33  1  1  0  0  0
 24 32  1  0  0  0  0
 24 21  1  0  0  0  0
 25 24  1  0  0  0  0
 26 25  1  0  0  0  0
 26 27  1  0  0  0  0
 27 28  2  0  0  0  0
 27 32  1  0  0  0  0
 28 29  1  0  0  0  0
 29 39  1  0  0  0  0
 29 30  2  0  0  0  0
 30 40  1  0  0  0  0
 31 30  1  0  0  0  0
 31 41  1  0  0  0  0
 32 31  2  0  0  0  0
 34 25  1  0  0  0  0
 35 25  1  0  0  0  0
 36 26  1  0  0  0  0
 37 26  1  0  0  0  0
 38 28  1  0  0  0  0
 42  1  1  0  0  0  0
 43 44  1  6  0  0  0
 43 49  1  0  0  0  0
 43 42  1  0  0  0  0
 45 43  1  0  0  0  0
 45 47  1  0  0  0  0
 46 45  1  0  0  0  0
 48 45  1  0  0  0  0
 49 52  1  0  0  0  0
 50 49  1  0  0  0  0
 51 49  1  0  0  0  0
 52 53  2  0  0  0  0
 52 57  1  0  0  0  0
 53 54  1  0  0  0  0
 54 59  1  0  0  0  0
 54 55  2  0  0  0  0
 55 60  1  0  0  0  0
 56 55  1  0  0  0  0
 56 61  1  0  0  0  0
 57 56  2  0  0  0  0
 58 53  1  0  0  0  0
 62 57  1  0  0  0  0
M  END
>  <MODEL>
7

>  <REMARK>
 VINA RESULT:    -7.880      3.397      4.763
 INTER + INTRA:         -12.490
 INTER:                 -12.003
 INTRA:                  -0.488
 UNBOUND:                -0.695
  Name = 
  9 active torsions:
  status: ('A' for Active; 'I' for Inactive)
    1  A    between atoms: C_1  and  C_2
    2  A    between atoms: C_2  and  C_3
    3  A    between atoms: C_2  and  O_10
    4  A    between atoms: C_3  and  C_4
    5  A    between atoms: O_10  and  C_11
    6  A    between atoms: C_14  and  C_15
    7  A    between atoms: C_15  and  N_16
    8  A    between atoms: N_19  and  C_20
    9  A    between atoms: C_29  and  C_30
                            x       y       z     vdW  Elec       q    Type
                         _______ _______ _______ _____ _____    ______ ____

>  <TORSDO>
F 9

$$$$
=
 OpenBabel07192307433D

 62 65  0  0  1  0  0  0  0  0999 V2000
    3.9010    4.7300   17.8810 C   0  0  0  0  0  0  0  0  0  0  0  0
    3.8180    6.1200   18.0570 C   0  0  0  0  0  0  0  0  0  0  0  0
    2.9630    6.6700   19.0170 C   0  0  0  0  0  0  0  0  0  0  0  0
    2.1910    5.8280   19.8410 C   0  0  0  0  0  0  0  0  0  0  0  0
    2.3320    4.4300   19.7000 C   0  0  0  0  0  0  0  0  0  0  0  0
    3.1670    3.8850   18.7120 C   0  0  0  0  0  0  0  0  0  0  0  0
    4.4380    6.7820   17.4500 H   0  0  0  0  0  0  0  0  0  0  0  0
    2.9230    7.7600   19.1410 H   0  0  0  0  0  0  0  0  0  0  0  0
    3.2800    2.8050   18.6620 H   0  0  0  0  0  0  0  0  0  0  0  0
    1.7020    3.5020   20.6650 C   0  0  0  0  0  0  0  0  0  0  0  0
    0.5120    2.9550   20.2800 N   0  0  0  0  0  0  0  0  0  0  0  0
    2.2360    3.2550   21.7360 O   0  0  0  0  0  0  0  0  0  0  0  0
    0.0200    2.4310   20.9920 H   0  0  0  0  0  0  0  0  0  0  0  0
   -0.0310    3.3620   19.5370 H   0  0  0  0  0  0  0  0  0  0  0  0
    1.2770    6.4360   20.8720 C   0  0  0  0  0  0  0  0  0  0  0  0
    0.2420    6.4250   20.5050 H   0  0  0  0  0  0  0  0  0  0  0  0
    1.2760    5.8540   21.8000 H   0  0  0  0  0  0  0  0  0  0  0  0
    1.6620    7.7930   21.1670 N   0  0  0  0  0  0  0  0  0  0  0  0
    0.6920    8.7100   21.4680 C   0  0  0  0  0  0  0  0  0  0  0  0
   -0.5110    8.4880   21.4160 O   0  0  0  0  0  0  0  0  0  0  0  0
    1.2440    9.9180   21.7940 N   0  0  0  0  0  0  0  0  0  0  0  0
    2.5150    7.8930   21.7180 H   0  0  0  0  0  0  0  0  0  0  0  0
    2.1450   10.1040   21.3660 H   0  0  0  0  0  0  0  0  0  0  0  0
    0.3930   11.0690   21.9910 C   0  0  2  0  0  0  0  0  0  0  0  0
   -0.7830   10.7860   22.9560 C   0  0  0  0  0  0  0  0  0  0  0  0
   -1.9450   11.6810   22.5070 C   0  0  0  0  0  0  0  0  0  0  0  0
   -1.6800   11.7920   21.0380 C   0  0  0  0  0  0  0  0  0  0  0  0
   -2.5540   12.2120   20.0450 C   0  0  0  0  0  0  0  0  0  0  0  0
   -2.0850   12.2830   18.7290 C   0  0  0  0  0  0  0  0  0  0  0  0
   -0.7530   11.9520   18.4280 C   0  0  0  0  0  0  0  0  0  0  0  0
    0.1250   11.5450   19.4400 C   0  0  0  0  0  0  0  0  0  0  0  0
   -0.3540   11.4560   20.7420 C   0  0  0  0  0  0  0  0  0  0  0  0
    0.9900   11.9150   22.3520 H   0  0  0  0  0  0  0  0  0  0  0  0
   -0.5130   10.9580   24.0050 H   0  0  0  0  0  0  0  0  0  0  0  0
   -1.0940    9.7330   22.8830 H   0  0  0  0  0  0  0  0  0  0  0  0
   -2.9110   11.2160   22.7300 H   0  0  0  0  0  0  0  0  0  0  0  0
   -1.8890   12.6680   22.9770 H   0  0  0  0  0  0  0  0  0  0  0  0
   -3.5790   12.4780   20.2790 H   0  0  0  0  0  0  0  0  0  0  0  0
   -2.7570   12.6020   17.9320 H   0  0  0  0  0  0  0  0  0  0  0  0
   -0.4010   12.0220   17.4000 H   0  0  0  0  0  0  0  0  0  0  0  0
    1.1620   11.3090   19.2100 H   0  0  0  0  0  0  0  0  0  0  0  0
    4.8030    4.3140   16.9440 O   0  0  0  0  0  0  0  0  0  0  0  0
    5.9030    5.1780   16.6370 C   0  0  1  0  0  0  0  0  0  0  0  0
    5.9940    5.9710   17.3920 H   0  0  0  0  0  0  0  0  0  0  0  0
    7.1710    4.3340   16.7360 C   0  0  0  0  0  0  0  0  0  0  0  0
    7.3630    3.8410   15.7800 H   0  0  0  0  0  0  0  0  0  0  0  0
    7.0840    3.5680   17.5080 H   0  0  0  0  0  0  0  0  0  0  0  0
    8.0560    4.9480   16.9400 H   0  0  0  0  0  0  0  0  0  0  0  0
    5.7480    5.8260   15.2490 C   0  0  0  0  0  0  0  0  0  0  0  0
    6.3670    6.7320   15.2260 H   0  0  0  0  0  0  0  0  0  0  0  0
    4.7200    6.1660   15.1120 H   0  0  0  0  0  0  0  0  0  0  0  0
    6.0850    4.9560   14.0590 C   0  0  0  0  0  0  0  0  0  0  0  0
    7.2940    5.1390   13.3570 C   0  0  0  0  0  0  0  0  0  0  0  0
    7.5970    4.3410   12.2520 C   0  0  0  0  0  0  0  0  0  0  0  0
    6.7000    3.3490   11.8370 C   0  0  0  0  0  0  0  0  0  0  0  0
    5.4940    3.1580   12.5260 C   0  0  0  0  0  0  0  0  0  0  0  0
    5.1870    3.9590   13.6260 C   0  0  0  0  0  0  0  0  0  0  0  0
    8.0130    5.9080   13.6590 H   0  0  0  0  0  0  0  0  0  0  0  0
    8.5400    4.5010   11.7200 H   0  0  0  0  0  0  0  0  0  0  0  0
    6.9400    2.7230   10.9820 H   0  0  0  0  0  0  0  0  0  0  0  0
    4.7880    2.3830   12.2100 H   0  0  0  0  0  0  0  0  0  0  0  0
    4.2410    3.7970   14.1450 H   0  0  0  0  0  0  0  0  0  0  0  0
  1  2  2  0  0  0  0
  1  6  1  0  0  0  0
  2  3  1  0  0  0  0
  3  8  1  0  0  0  0
  3  4  2  0  0  0  0
  4 15  1  0  0  0  0
  5  4  1  0  0  0  0
  5 10  1  0  0  0  0
  6  5  2  0  0  0  0
  7  2  1  0  0  0  0
  9  6  1  0  0  0  0
 10 12  2  0  0  0  0
 11 10  1  0  0  0  0
 11 13  1  0  0  0  0
 14 11  1  0  0  0  0
 15 18  1  0  0  0  0
 15 17  1  0  0  0  0
 16 15  1  0  0  0  0
 18 19  1  0  0  0  0
 18 22  1  0  0  0  0
 19 21  1  0  0  0  0
 20 19  2  0  0  0  0
 21 24  1  0  0  0  0
 23 21  1  0  0  0  0
 24 33  1  1  0  0  0
 24 25  1  0  0  0  0
 25 34  1  0  0  0  0
 26 36  1  0  0  0  0
 26 25  1  0  0  0  0
 26 37  1  0  0  0  0
 27 26  1  0  0  0  0
 28 38  1  0  0  0  0
 28 27  2  0  0  0  0
 29 28  1  0  0  0  0
 30 29  2  0  0  0  0
 30 31  1  0  0  0  0
 31 32  2  0  0  0  0
 32 27  1  0  0  0  0
 32 24  1  0  0  0  0
 35 25  1  0  0  0  0
 39 29  1  0  0  0  0
 40 30  1  0  0  0  0
 41 31  1  0  0  0  0
 42  1  1  0  0  0  0
 43 45  1  0  0  0  0
 43 42  1  0  0  0  0
 43 44  1  1  0  0  0
 45 48  1  0  0  0  0
 45 47  1  0  0  0  0
 46 45  1  0  0  0  0
 49 43  1  0  0  0  0
 50 49  1  0  0  0  0
 51 49  1  0  0  0  0
 52 49  1  0  0  0  0
 53 58  1  0  0  0  0
 53 52  2  0  0  0  0
 54 53  1  0  0  0  0
 55 54  2  0  0  0  0
 55 56  1  0  0  0  0
 56 57  2  0  0  0  0
 57 52  1  0  0  0  0
 57 62  1  0  0  0  0
 59 54  1  0  0  0  0
 60 55  1  0  0  0  0
 61 56  1  0  0  0  0
M  END
>  <MODEL>
8

>  <REMARK>
 VINA RESULT:    -7.829      2.634      5.238
 INTER + INTRA:         -12.414
 INTER:                 -12.137
 INTRA:                  -0.277
 UNBOUND:                -0.695
  Name = 
  9 active torsions:
  status: ('A' for Active; 'I' for Inactive)
    1  A    between atoms: C_1  and  C_2
    2  A    between atoms: C_2  and  C_3
    3  A    between atoms: C_2  and  O_10
    4  A    between atoms: C_3  and  C_4
    5  A    between atoms: O_10  and  C_11
    6  A    between atoms: C_14  and  C_15
    7  A    between atoms: C_15  and  N_16
    8  A    between atoms: N_19  and  C_20
    9  A    between atoms: C_29  and  C_30
                            x       y       z     vdW  Elec       q    Type
                         _______ _______ _______ _____ _____    ______ ____

>  <TORSDO>
F 9

$$$$
=
 OpenBabel07192307433D

 62 65  0  0  1  0  0  0  0  0999 V2000
    4.1410    6.4810   18.2450 C   0  0  0  0  0  0  0  0  0  0  0  0
    3.7110    5.8910   19.4430 C   0  0  0  0  0  0  0  0  0  0  0  0
    2.6320    6.4240   20.1560 C   0  0  0  0  0  0  0  0  0  0  0  0
    1.9460    7.5510   19.6610 C   0  0  0  0  0  0  0  0  0  0  0  0
    2.3470    8.0960   18.4220 C   0  0  0  0  0  0  0  0  0  0  0  0
    3.4510    7.5770   17.7280 C   0  0  0  0  0  0  0  0  0  0  0  0
    4.2110    4.9960   19.8180 H   0  0  0  0  0  0  0  0  0  0  0  0
    2.3090    5.9390   21.0850 H   0  0  0  0  0  0  0  0  0  0  0  0
    3.7030    7.9970   16.7580 H   0  0  0  0  0  0  0  0  0  0  0  0
    1.5430    9.1480   17.7600 C   0  0  0  0  0  0  0  0  0  0  0  0
    2.1250   10.3790   17.6720 N   0  0  0  0  0  0  0  0  0  0  0  0
    0.4280    8.9020   17.3240 O   0  0  0  0  0  0  0  0  0  0  0  0
    1.5260   11.1250   17.3430 H   0  0  0  0  0  0  0  0  0  0  0  0
    2.9070   10.6280   18.2550 H   0  0  0  0  0  0  0  0  0  0  0  0
    0.7850    8.1110   20.4390 C   0  0  0  0  0  0  0  0  0  0  0  0
   -0.0910    8.2080   19.7830 H   0  0  0  0  0  0  0  0  0  0  0  0
    0.4840    7.4410   21.2510 H   0  0  0  0  0  0  0  0  0  0  0  0
    1.1090    9.4020   20.9910 N   0  0  0  0  0  0  0  0  0  0  0  0
    0.2400   10.4430   20.8080 C   0  0  0  0  0  0  0  0  0  0  0  0
   -0.7720   10.3870   20.1200 O   0  0  0  0  0  0  0  0  0  0  0  0
    0.6710   11.5630   21.4630 N   0  0  0  0  0  0  0  0  0  0  0  0
    1.5480    9.3830   21.9120 H   0  0  0  0  0  0  0  0  0  0  0  0
    1.6770   11.6250   21.5830 H   0  0  0  0  0  0  0  0  0  0  0  0
   -0.0180   12.8200   21.2710 C   0  0  2  0  0  0  0  0  0  0  0  0
    0.8880   14.0440   21.5420 C   0  0  0  0  0  0  0  0  0  0  0  0
   -0.0270   15.1600   22.0640 C   0  0  0  0  0  0  0  0  0  0  0  0
   -1.1010   14.3670   22.7410 C   0  0  0  0  0  0  0  0  0  0  0  0
   -2.0370   14.8150   23.6620 C   0  0  0  0  0  0  0  0  0  0  0  0
   -2.9880   13.9090   24.1420 C   0  0  0  0  0  0  0  0  0  0  0  0
   -3.0010   12.5800   23.6860 C   0  0  0  0  0  0  0  0  0  0  0  0
   -2.0610   12.1420   22.7460 C   0  0  0  0  0  0  0  0  0  0  0  0
   -1.1060   13.0420   22.2880 C   0  0  0  0  0  0  0  0  0  0  0  0
   -0.4320   12.8650   20.2570 H   0  0  0  0  0  0  0  0  0  0  0  0
    1.4480   14.3540   20.6520 H   0  0  0  0  0  0  0  0  0  0  0  0
    1.6360   13.8050   22.3120 H   0  0  0  0  0  0  0  0  0  0  0  0
    0.5100   15.8210   22.7520 H   0  0  0  0  0  0  0  0  0  0  0  0
   -0.4500   15.7420   21.2400 H   0  0  0  0  0  0  0  0  0  0  0  0
   -2.0340   15.8440   24.0050 H   0  0  0  0  0  0  0  0  0  0  0  0
   -3.7270   14.2370   24.8730 H   0  0  0  0  0  0  0  0  0  0  0  0
   -3.7530   11.8890   24.0630 H   0  0  0  0  0  0  0  0  0  0  0  0
   -2.0840   11.1180   22.3760 H   0  0  0  0  0  0  0  0  0  0  0  0
    5.1750    5.8440   17.6200 O   0  0  0  0  0  0  0  0  0  0  0  0
    4.8950    5.1330   16.4090 C   0  0  1  0  0  0  0  0  0  0  0  0
    3.9910    5.5310   15.9280 H   0  0  0  0  0  0  0  0  0  0  0  0
    6.0540    5.4090   15.4550 C   0  0  0  0  0  0  0  0  0  0  0  0
    5.7020    5.3640   14.4220 H   0  0  0  0  0  0  0  0  0  0  0  0
    6.8570    4.6810   15.5770 H   0  0  0  0  0  0  0  0  0  0  0  0
    6.4630    6.4180   15.5890 H   0  0  0  0  0  0  0  0  0  0  0  0
    4.7030    3.6280   16.6650 C   0  0  0  0  0  0  0  0  0  0  0  0
    5.6420    3.2290   17.0690 H   0  0  0  0  0  0  0  0  0  0  0  0
    4.5450    3.1080   15.7170 H   0  0  0  0  0  0  0  0  0  0  0  0
    3.5600    3.2400   17.5740 C   0  0  0  0  0  0  0  0  0  0  0  0
    3.7880    2.4340   18.7090 C   0  0  0  0  0  0  0  0  0  0  0  0
    2.7280    2.0690   19.5410 C   0  0  0  0  0  0  0  0  0  0  0  0
    1.4280    2.5060   19.2530 C   0  0  0  0  0  0  0  0  0  0  0  0
    1.1880    3.3060   18.1270 C   0  0  0  0  0  0  0  0  0  0  0  0
    2.2460    3.6650   17.2920 C   0  0  0  0  0  0  0  0  0  0  0  0
    4.7930    2.0780   18.9570 H   0  0  0  0  0  0  0  0  0  0  0  0
    2.9260    1.4410   20.4150 H   0  0  0  0  0  0  0  0  0  0  0  0
    0.6050    2.2280   19.9050 H   0  0  0  0  0  0  0  0  0  0  0  0
    0.1760    3.6540   17.8960 H   0  0  0  0  0  0  0  0  0  0  0  0
    2.0360    4.2840   16.4180 H   0  0  0  0  0  0  0  0  0  0  0  0
  1  2  1  0  0  0  0
  2  7  1  0  0  0  0
  2  3  2  0  0  0  0
  3  8  1  0  0  0  0
  4  3  1  0  0  0  0
  4 15  1  0  0  0  0
  5  4  2  0  0  0  0
  6  1  2  0  0  0  0
  6  5  1  0  0  0  0
  9  6  1  0  0  0  0
 10  5  1  0  0  0  0
 11 10  1  0  0  0  0
 11 14  1  0  0  0  0
 12 10  2  0  0  0  0
 13 11  1  0  0  0  0
 15 18  1  0  0  0  0
 15 17  1  0  0  0  0
 16 15  1  0  0  0  0
 18 22  1  0  0  0  0
 19 18  1  0  0  0  0
 19 21  1  0  0  0  0
 20 19  2  0  0  0  0
 21 23  1  0  0  0  0
 24 33  1  6  0  0  0
 24 21  1  0  0  0  0
 24 25  1  0  0  0  0
 24 32  1  0  0  0  0
 25 26  1  0  0  0  0
 25 35  1  0  0  0  0
 26 27  1  0  0  0  0
 26 36  1  0  0  0  0
 27 28  1  0  0  0  0
 28 38  1  0  0  0  0
 28 29  2  0  0  0  0
 29 39  1  0  0  0  0
 30 40  1  0  0  0  0
 30 29  1  0  0  0  0
 31 30  2  0  0  0  0
 32 27  2  0  0  0  0
 32 31  1  0  0  0  0
 34 25  1  0  0  0  0
 37 26  1  0  0  0  0
 41 31  1  0  0  0  0
 42  1  1  0  0  0  0
 43 44  1  6  0  0  0
 43 49  1  0  0  0  0
 43 42  1  0  0  0  0
 45 47  1  0  0  0  0
 45 48  1  0  0  0  0
 45 43  1  0  0  0  0
 46 45  1  0  0  0  0
 49 50  1  0  0  0  0
 49 52  1  0  0  0  0
 51 49  1  0  0  0  0
 52 53  1  0  0  0  0
 53 58  1  0  0  0  0
 53 54  2  0  0  0  0
 54 59  1  0  0  0  0
 55 54  1  0  0  0  0
 55 60  1  0  0  0  0
 56 55  2  0  0  0  0
 57 52  2  0  0  0  0
 57 56  1  0  0  0  0
 61 56  1  0  0  0  0
 62 57  1  0  0  0  0
M  END
>  <MODEL>
9

>  <REMARK>
 VINA RESULT:    -7.803      1.459      2.320
 INTER + INTRA:         -12.376
 INTER:                 -10.983
 INTRA:                  -1.393
 UNBOUND:                -0.695
  Name = 
  9 active torsions:
  status: ('A' for Active; 'I' for Inactive)
    1  A    between atoms: C_1  and  C_2
    2  A    between atoms: C_2  and  C_3
    3  A    between atoms: C_2  and  O_10
    4  A    between atoms: C_3  and  C_4
    5  A    between atoms: O_10  and  C_11
    6  A    between atoms: C_14  and  C_15
    7  A    between atoms: C_15  and  N_16
    8  A    between atoms: N_19  and  C_20
    9  A    between atoms: C_29  and  C_30
                            x       y       z     vdW  Elec       q    Type
                         _______ _______ _______ _____ _____    ______ ____

>  <TORSDO>
F 9

$$$$
=
 OpenBabel07192307433D

 62 65  0  0  1  0  0  0  0  0999 V2000
   -1.8230   12.1110   20.1170 C   0  0  0  0  0  0  0  0  0  0  0  0
   -1.6490   11.5810   21.4040 C   0  0  0  0  0  0  0  0  0  0  0  0
   -0.4730   10.9080   21.7480 C   0  0  0  0  0  0  0  0  0  0  0  0
    0.5680   10.7780   20.8080 C   0  0  0  0  0  0  0  0  0  0  0  0
    0.4080   11.3730   19.5370 C   0  0  0  0  0  0  0  0  0  0  0  0
   -0.7880   12.0170   19.1870 C   0  0  0  0  0  0  0  0  0  0  0  0
   -2.4330   11.7060   22.1540 H   0  0  0  0  0  0  0  0  0  0  0  0
   -0.3580   10.5110   22.7650 H   0  0  0  0  0  0  0  0  0  0  0  0
   -0.8570   12.4980   18.2140 H   0  0  0  0  0  0  0  0  0  0  0  0
    1.5380   11.4410   18.5830 C   0  0  0  0  0  0  0  0  0  0  0  0
    1.6160   10.4260   17.6750 N   0  0  0  0  0  0  0  0  0  0  0  0
    2.3390   12.3630   18.6270 O   0  0  0  0  0  0  0  0  0  0  0  0
    2.4590   10.4020   17.1160 H   0  0  0  0  0  0  0  0  0  0  0  0
    1.1240    9.5600   17.8180 H   0  0  0  0  0  0  0  0  0  0  0  0
    1.8300   10.0530   21.1950 C   0  0  0  0  0  0  0  0  0  0  0  0
    2.5760   10.1520   20.3960 H   0  0  0  0  0  0  0  0  0  0  0  0
    2.2850   10.4890   22.0910 H   0  0  0  0  0  0  0  0  0  0  0  0
    1.5700    8.6560   21.4310 N   0  0  0  0  0  0  0  0  0  0  0  0
    1.7580    7.7610   20.4140 C   0  0  0  0  0  0  0  0  0  0  0  0
    2.0480    8.0710   19.2650 O   0  0  0  0  0  0  0  0  0  0  0  0
    1.5390    6.4810   20.8390 N   0  0  0  0  0  0  0  0  0  0  0  0
    1.8560    8.3100   22.3480 H   0  0  0  0  0  0  0  0  0  0  0  0
    0.8860    6.3940   21.6120 H   0  0  0  0  0  0  0  0  0  0  0  0
    1.5290    5.3950   19.8840 C   0  0  2  0  0  0  0  0  0  0  0  0
    0.7940    4.1410   20.4130 C   0  0  0  0  0  0  0  0  0  0  0  0
    1.4710    2.9280   19.7610 C   0  0  0  0  0  0  0  0  0  0  0  0
    2.8680    3.4350   19.5760 C   0  0  0  0  0  0  0  0  0  0  0  0
    4.0140    2.6960   19.3230 C   0  0  0  0  0  0  0  0  0  0  0  0
    5.2210    3.3790   19.1390 C   0  0  0  0  0  0  0  0  0  0  0  0
    5.2620    4.7820   19.1920 C   0  0  0  0  0  0  0  0  0  0  0  0
    4.0960    5.5190   19.4310 C   0  0  0  0  0  0  0  0  0  0  0  0
    2.9040    4.8340   19.6350 C   0  0  0  0  0  0  0  0  0  0  0  0
    1.0820    5.7340   18.9420 H   0  0  0  0  0  0  0  0  0  0  0  0
   -0.2820    4.1710   20.2070 H   0  0  0  0  0  0  0  0  0  0  0  0
    0.9000    4.0660   21.5050 H   0  0  0  0  0  0  0  0  0  0  0  0
    1.4220    2.0500   20.4140 H   0  0  0  0  0  0  0  0  0  0  0  0
    1.0210    2.6980   18.7910 H   0  0  0  0  0  0  0  0  0  0  0  0
    3.9810    1.6140   19.2720 H   0  0  0  0  0  0  0  0  0  0  0  0
    6.1360    2.8180   18.9480 H   0  0  0  0  0  0  0  0  0  0  0  0
    6.2080    5.2990   19.0370 H   0  0  0  0  0  0  0  0  0  0  0  0
    4.1230    6.6070   19.4510 H   0  0  0  0  0  0  0  0  0  0  0  0
   -2.9950   12.7830   19.9160 O   0  0  0  0  0  0  0  0  0  0  0  0
   -4.2180   12.0400   19.9880 C   0  0  1  0  0  0  0  0  0  0  0  0
   -4.0310   11.0240   20.3580 H   0  0  0  0  0  0  0  0  0  0  0  0
   -5.0940   12.7300   21.0320 C   0  0  0  0  0  0  0  0  0  0  0  0
   -6.1190   12.8080   20.6610 H   0  0  0  0  0  0  0  0  0  0  0  0
   -4.7320   13.7330   21.2600 H   0  0  0  0  0  0  0  0  0  0  0  0
   -5.1540   12.1510   21.9610 H   0  0  0  0  0  0  0  0  0  0  0  0
   -4.9120   11.9530   18.6180 C   0  0  0  0  0  0  0  0  0  0  0  0
   -5.1190   12.9760   18.2760 H   0  0  0  0  0  0  0  0  0  0  0  0
   -5.8880   11.4750   18.7260 H   0  0  0  0  0  0  0  0  0  0  0  0
   -4.1720   11.2010   17.5350 C   0  0  0  0  0  0  0  0  0  0  0  0
   -4.2330   11.6330   16.1940 C   0  0  0  0  0  0  0  0  0  0  0  0
   -3.5560   10.9300   15.1940 C   0  0  0  0  0  0  0  0  0  0  0  0
   -2.8100    9.7900   15.5220 C   0  0  0  0  0  0  0  0  0  0  0  0
   -2.7440    9.3500   16.8510 C   0  0  0  0  0  0  0  0  0  0  0  0
   -3.4250   10.0490   17.8490 C   0  0  0  0  0  0  0  0  0  0  0  0
   -4.8090   12.5190   15.9090 H   0  0  0  0  0  0  0  0  0  0  0  0
   -3.6180   11.2800   14.1600 H   0  0  0  0  0  0  0  0  0  0  0  0
   -2.2780    9.2480   14.7450 H   0  0  0  0  0  0  0  0  0  0  0  0
   -2.1610    8.4620   17.1170 H   0  0  0  0  0  0  0  0  0  0  0  0
   -3.3640    9.6860   18.8770 H   0  0  0  0  0  0  0  0  0  0  0  0
  1  2  1  0  0  0  0
  2  3  2  0  0  0  0
  2  7  1  0  0  0  0
  3  8  1  0  0  0  0
  4 15  1  0  0  0  0
  4  3  1  0  0  0  0
  5  4  2  0  0  0  0
  6  5  1  0  0  0  0
  6  1  2  0  0  0  0
  9  6  1  0  0  0  0
 10 12  2  0  0  0  0
 10  5  1  0  0  0  0
 11 14  1  0  0  0  0
 11 10  1  0  0  0  0
 13 11  1  0  0  0  0
 15 18  1  0  0  0  0
 15 17  1  0  0  0  0
 16 15  1  0  0  0  0
 18 22  1  0  0  0  0
 19 21  1  0  0  0  0
 19 18  1  0  0  0  0
 20 19  2  0  0  0  0
 21 23  1  0  0  0  0
 24 33  1  6  0  0  0
 24 25  1  0  0  0  0
 24 21  1  0  0  0  0
 25 35  1  0  0  0  0
 26 25  1  0  0  0  0
 26 36  1  0  0  0  0
 27 32  1  0  0  0  0
 27 26  1  0  0  0  0
 28 27  2  0  0  0  0
 29 30  2  0  0  0  0
 29 28  1  0  0  0  0
 30 31  1  0  0  0  0
 31 41  1  0  0  0  0
 31 32  2  0  0  0  0
 32 24  1  0  0  0  0
 34 25  1  0  0  0  0
 37 26  1  0  0  0  0
 38 28  1  0  0  0  0
 39 29  1  0  0  0  0
 40 30  1  0  0  0  0
 42 43  1  0  0  0  0
 42  1  1  0  0  0  0
 43 44  1  1  0  0  0
 43 45  1  0  0  0  0
 45 47  1  0  0  0  0
 45 48  1  0  0  0  0
 46 45  1  0  0  0  0
 49 51  1  0  0  0  0
 49 43  1  0  0  0  0
 50 49  1  0  0  0  0
 52 57  1  0  0  0  0
 52 49  1  0  0  0  0
 53 52  2  0  0  0  0
 54 55  2  0  0  0  0
 54 53  1  0  0  0  0
 55 56  1  0  0  0  0
 56 61  1  0  0  0  0
 56 57  2  0  0  0  0
 57 62  1  0  0  0  0
 58 53  1  0  0  0  0
 59 54  1  0  0  0  0
 60 55  1  0  0  0  0
M  END
>  <MODEL>
10

>  <REMARK>
 VINA RESULT:    -7.791      2.783      9.336
 INTER + INTRA:         -12.357
 INTER:                 -10.656
 INTRA:                  -1.702
 UNBOUND:                -0.695
  Name = 
  9 active torsions:
  status: ('A' for Active; 'I' for Inactive)
    1  A    between atoms: C_1  and  C_2
    2  A    between atoms: C_2  and  C_3
    3  A    between atoms: C_2  and  O_10
    4  A    between atoms: C_3  and  C_4
    5  A    between atoms: O_10  and  C_11
    6  A    between atoms: C_14  and  C_15
    7  A    between atoms: C_15  and  N_16
    8  A    between atoms: N_19  and  C_20
    9  A    between atoms: C_29  and  C_30
                            x       y       z     vdW  Elec       q    Type
                         _______ _______ _______ _____ _____    ______ ____

>  <TORSDO>
F 9

$$$$
=
 OpenBabel07192307433D

 62 65  0  0  1  0  0  0  0  0999 V2000
    1.9510    6.9570   20.3540 C   0  0  0  0  0  0  0  0  0  0  0  0
    1.8560    6.9320   18.9540 C   0  0  0  0  0  0  0  0  0  0  0  0
    1.8820    5.7200   18.2570 C   0  0  0  0  0  0  0  0  0  0  0  0
    1.9790    4.5030   18.9590 C   0  0  0  0  0  0  0  0  0  0  0  0
    2.0080    4.5370   20.3710 C   0  0  0  0  0  0  0  0  0  0  0  0
    2.0140    5.7580   21.0630 C   0  0  0  0  0  0  0  0  0  0  0  0
    1.7430    7.8660   18.4010 H   0  0  0  0  0  0  0  0  0  0  0  0
    1.7970    5.7260   17.1630 H   0  0  0  0  0  0  0  0  0  0  0  0
    1.9960    5.7430   22.1500 H   0  0  0  0  0  0  0  0  0  0  0  0
    1.9090    3.2910   21.1640 C   0  0  0  0  0  0  0  0  0  0  0  0
    3.0900    2.7520   21.5820 N   0  0  0  0  0  0  0  0  0  0  0  0
    0.8200    2.7960   21.4170 O   0  0  0  0  0  0  0  0  0  0  0  0
    3.0290    1.8340   22.0040 H   0  0  0  0  0  0  0  0  0  0  0  0
    3.9620    3.0130   21.1520 H   0  0  0  0  0  0  0  0  0  0  0  0
    2.0040    3.2060   18.1950 C   0  0  0  0  0  0  0  0  0  0  0  0
    2.4420    2.4140   18.8180 H   0  0  0  0  0  0  0  0  0  0  0  0
    0.9930    2.8690   17.9420 H   0  0  0  0  0  0  0  0  0  0  0  0
    2.7730    3.3360   16.9830 N   0  0  0  0  0  0  0  0  0  0  0  0
    4.1300    3.4850   17.0680 C   0  0  0  0  0  0  0  0  0  0  0  0
    4.7480    3.6120   18.1180 O   0  0  0  0  0  0  0  0  0  0  0  0
    4.6990    3.5150   15.8260 N   0  0  0  0  0  0  0  0  0  0  0  0
    2.4670    2.7460   16.2090 H   0  0  0  0  0  0  0  0  0  0  0  0
    4.0940    3.8630   15.0880 H   0  0  0  0  0  0  0  0  0  0  0  0
    6.1040    3.8250   15.6830 C   0  0  2  0  0  0  0  0  0  0  0  0
    6.4800    5.1940   16.2980 C   0  0  0  0  0  0  0  0  0  0  0  0
    7.6500    5.7400   15.4700 C   0  0  0  0  0  0  0  0  0  0  0  0
    7.3730    5.1320   14.1310 C   0  0  0  0  0  0  0  0  0  0  0  0
    7.9000    5.5030   12.9020 C   0  0  0  0  0  0  0  0  0  0  0  0
    7.5370    4.7660   11.7700 C   0  0  0  0  0  0  0  0  0  0  0  0
    6.6710    3.6660   11.8830 C   0  0  0  0  0  0  0  0  0  0  0  0
    6.1560    3.2910   13.1290 C   0  0  0  0  0  0  0  0  0  0  0  0
    6.5040    4.0400   14.2470 C   0  0  0  0  0  0  0  0  0  0  0  0
    6.7080    3.0250   16.1280 H   0  0  0  0  0  0  0  0  0  0  0  0
    6.7290    5.1180   17.3630 H   0  0  0  0  0  0  0  0  0  0  0  0
    5.6330    5.8920   16.2250 H   0  0  0  0  0  0  0  0  0  0  0  0
    7.6420    6.8350   15.4490 H   0  0  0  0  0  0  0  0  0  0  0  0
    8.6090    5.3820   15.8570 H   0  0  0  0  0  0  0  0  0  0  0  0
    8.5780    6.3450   12.8170 H   0  0  0  0  0  0  0  0  0  0  0  0
    7.9330    5.0460   10.7940 H   0  0  0  0  0  0  0  0  0  0  0  0
    6.4050    3.0970   10.9930 H   0  0  0  0  0  0  0  0  0  0  0  0
    5.5020    2.4250   13.2200 H   0  0  0  0  0  0  0  0  0  0  0  0
    1.8690    8.1970   20.9210 O   0  0  0  0  0  0  0  0  0  0  0  0
    0.6040    8.8680   20.8950 C   0  0  1  0  0  0  0  0  0  0  0  0
   -0.1670    8.2220   20.4550 H   0  0  0  0  0  0  0  0  0  0  0  0
    0.1970    9.1040   22.3480 C   0  0  0  0  0  0  0  0  0  0  0  0
   -0.3220    8.2230   22.7340 H   0  0  0  0  0  0  0  0  0  0  0  0
   -0.4650    9.9640   22.4450 H   0  0  0  0  0  0  0  0  0  0  0  0
    1.0690    9.2470   22.9980 H   0  0  0  0  0  0  0  0  0  0  0  0
    0.6730   10.1800   20.0950 C   0  0  0  0  0  0  0  0  0  0  0  0
    1.5870   10.1610   19.4890 H   0  0  0  0  0  0  0  0  0  0  0  0
    0.7870   11.0250   20.7770 H   0  0  0  0  0  0  0  0  0  0  0  0
   -0.5120   10.4900   19.2080 C   0  0  0  0  0  0  0  0  0  0  0  0
   -0.6760    9.8270   17.9740 C   0  0  0  0  0  0  0  0  0  0  0  0
   -1.7660   10.1230   17.1520 C   0  0  0  0  0  0  0  0  0  0  0  0
   -2.7050   11.0820   17.5530 C   0  0  0  0  0  0  0  0  0  0  0  0
   -2.5520   11.7490   18.7760 C   0  0  0  0  0  0  0  0  0  0  0  0
   -1.4600   11.4580   19.5950 C   0  0  0  0  0  0  0  0  0  0  0  0
    0.0430    9.0740   17.6360 H   0  0  0  0  0  0  0  0  0  0  0  0
   -1.8740    9.5980   16.1980 H   0  0  0  0  0  0  0  0  0  0  0  0
   -3.5570   11.3060   16.9170 H   0  0  0  0  0  0  0  0  0  0  0  0
   -3.2830   12.4980   19.0980 H   0  0  0  0  0  0  0  0  0  0  0  0
   -1.3570   11.9930   20.5400 H   0  0  0  0  0  0  0  0  0  0  0  0
  1 42  1  0  0  0  0
  1  6  1  0  0  0  0
  2  1  2  0  0  0  0
  3  2  1  0  0  0  0
  3  4  2  0  0  0  0
  4  5  1  0  0  0  0
  5  6  2  0  0  0  0
  5 10  1  0  0  0  0
  6  9  1  0  0  0  0
  7  2  1  0  0  0  0
  8  3  1  0  0  0  0
 10 12  2  0  0  0  0
 10 11  1  0  0  0  0
 11 13  1  0  0  0  0
 14 11  1  0  0  0  0
 15 16  1  0  0  0  0
 15  4  1  0  0  0  0
 17 15  1  0  0  0  0
 18 19  1  0  0  0  0
 18 15  1  0  0  0  0
 19 20  2  0  0  0  0
 21 19  1  0  0  0  0
 22 18  1  0  0  0  0
 23 21  1  0  0  0  0
 24 21  1  0  0  0  0
 24 33  1  1  0  0  0
 24 25  1  0  0  0  0
 25 34  1  0  0  0  0
 26 37  1  0  0  0  0
 26 25  1  0  0  0  0
 27 32  1  0  0  0  0
 27 26  1  0  0  0  0
 28 27  2  0  0  0  0
 29 30  2  0  0  0  0
 29 28  1  0  0  0  0
 30 31  1  0  0  0  0
 31 41  1  0  0  0  0
 31 32  2  0  0  0  0
 32 24  1  0  0  0  0
 35 25  1  0  0  0  0
 36 26  1  0  0  0  0
 38 28  1  0  0  0  0
 39 29  1  0  0  0  0
 40 30  1  0  0  0  0
 43 44  1  6  0  0  0
 43 42  1  0  0  0  0
 43 45  1  0  0  0  0
 45 47  1  0  0  0  0
 45 46  1  0  0  0  0
 45 48  1  0  0  0  0
 49 51  1  0  0  0  0
 49 43  1  0  0  0  0
 50 49  1  0  0  0  0
 52 57  1  0  0  0  0
 52 49  1  0  0  0  0
 53 52  2  0  0  0  0
 54 55  2  0  0  0  0
 54 53  1  0  0  0  0
 55 56  1  0  0  0  0
 56 61  1  0  0  0  0
 56 57  2  0  0  0  0
 57 62  1  0  0  0  0
 58 53  1  0  0  0  0
 59 54  1  0  0  0  0
 60 55  1  0  0  0  0
M  END
>  <MODEL>
11

>  <REMARK>
 VINA RESULT:    -7.733      3.949     10.607
 INTER + INTRA:         -12.270
 INTER:                 -11.600
 INTRA:                  -0.670
 UNBOUND:                -0.695
  Name = 
  9 active torsions:
  status: ('A' for Active; 'I' for Inactive)
    1  A    between atoms: C_1  and  C_2
    2  A    between atoms: C_2  and  C_3
    3  A    between atoms: C_2  and  O_10
    4  A    between atoms: C_3  and  C_4
    5  A    between atoms: O_10  and  C_11
    6  A    between atoms: C_14  and  C_15
    7  A    between atoms: C_15  and  N_16
    8  A    between atoms: N_19  and  C_20
    9  A    between atoms: C_29  and  C_30
                            x       y       z     vdW  Elec       q    Type
                         _______ _______ _______ _____ _____    ______ ____

>  <TORSDO>
F 9

$$$$
=
 OpenBabel07192307433D

 62 65  0  0  1  0  0  0  0  0999 V2000
    3.2880    4.5830   17.5610 C   0  0  0  0  0  0  0  0  0  0  0  0
    3.3660    5.9810   17.6460 C   0  0  0  0  0  0  0  0  0  0  0  0
    2.8210    6.6630   18.7390 C   0  0  0  0  0  0  0  0  0  0  0  0
    2.2070    5.9460   19.7840 C   0  0  0  0  0  0  0  0  0  0  0  0
    2.1920    4.5360   19.7190 C   0  0  0  0  0  0  0  0  0  0  0  0
    2.7110    3.8590   18.6040 C   0  0  0  0  0  0  0  0  0  0  0  0
    3.8720    6.5460   16.8610 H   0  0  0  0  0  0  0  0  0  0  0  0
    2.9030    7.7560   18.7870 H   0  0  0  0  0  0  0  0  0  0  0  0
    2.7180    2.7720   18.6090 H   0  0  0  0  0  0  0  0  0  0  0  0
    1.7420    3.7260   20.8730 C   0  0  0  0  0  0  0  0  0  0  0  0
    0.5650    3.0540   20.7110 N   0  0  0  0  0  0  0  0  0  0  0  0
    2.4050    3.6770   21.8990 O   0  0  0  0  0  0  0  0  0  0  0  0
    0.1940    2.6140   21.5430 H   0  0  0  0  0  0  0  0  0  0  0  0
   -0.0830    3.3100   19.9860 H   0  0  0  0  0  0  0  0  0  0  0  0
    1.6270    6.6940   20.9550 C   0  0  0  0  0  0  0  0  0  0  0  0
    0.5650    6.4400   21.0710 H   0  0  0  0  0  0  0  0  0  0  0  0
    2.1120    6.4080   21.8950 H   0  0  0  0  0  0  0  0  0  0  0  0
    1.7560    8.1180   20.7730 N   0  0  0  0  0  0  0  0  0  0  0  0
    0.6560    8.9140   20.9410 C   0  0  0  0  0  0  0  0  0  0  0  0
   -0.4760    8.4960   21.1490 O   0  0  0  0  0  0  0  0  0  0  0  0
    0.9820   10.2350   20.8060 N   0  0  0  0  0  0  0  0  0  0  0  0
    2.6230    8.5240   21.1270 H   0  0  0  0  0  0  0  0  0  0  0  0
    1.7790   10.4180   20.2040 H   0  0  0  0  0  0  0  0  0  0  0  0
   -0.0610   11.2360   20.7880 C   0  0  2  0  0  0  0  0  0  0  0  0
   -1.1450   10.9520   19.7230 C   0  0  0  0  0  0  0  0  0  0  0  0
   -1.6810   12.3150   19.2670 C   0  0  0  0  0  0  0  0  0  0  0  0
   -0.4780   13.1840   19.4620 C   0  0  0  0  0  0  0  0  0  0  0  0
   -0.2460   14.4470   18.9360 C   0  0  0  0  0  0  0  0  0  0  0  0
    0.9370   15.1080   19.2830 C   0  0  0  0  0  0  0  0  0  0  0  0
    1.8570   14.5090   20.1600 C   0  0  0  0  0  0  0  0  0  0  0  0
    1.6060   13.2420   20.6980 C   0  0  0  0  0  0  0  0  0  0  0  0
    0.4390   12.5810   20.3320 C   0  0  0  0  0  0  0  0  0  0  0  0
   -0.5130   11.3180   21.7840 H   0  0  0  0  0  0  0  0  0  0  0  0
   -1.9430   10.3020   20.1020 H   0  0  0  0  0  0  0  0  0  0  0  0
   -0.7060   10.4320   18.8580 H   0  0  0  0  0  0  0  0  0  0  0  0
   -2.0140   12.2800   18.2240 H   0  0  0  0  0  0  0  0  0  0  0  0
   -2.5000   12.6530   19.9090 H   0  0  0  0  0  0  0  0  0  0  0  0
   -0.9620   14.9130   18.2680 H   0  0  0  0  0  0  0  0  0  0  0  0
    1.1430   16.0970   18.8740 H   0  0  0  0  0  0  0  0  0  0  0  0
    2.7680   15.0410   20.4280 H   0  0  0  0  0  0  0  0  0  0  0  0
    2.3080   12.7870   21.3940 H   0  0  0  0  0  0  0  0  0  0  0  0
    3.8940    4.0310   16.4690 O   0  0  0  0  0  0  0  0  0  0  0  0
    5.3100    4.1980   16.3280 C   0  0  1  0  0  0  0  0  0  0  0  0
    5.8320    3.8330   17.2230 H   0  0  0  0  0  0  0  0  0  0  0  0
    5.7490    3.3030   15.1720 C   0  0  0  0  0  0  0  0  0  0  0  0
    6.6810    3.6800   14.7450 H   0  0  0  0  0  0  0  0  0  0  0  0
    4.9970    3.2690   14.3820 H   0  0  0  0  0  0  0  0  0  0  0  0
    5.9640    2.2800   15.5050 H   0  0  0  0  0  0  0  0  0  0  0  0
    5.6890    5.6710   16.0940 C   0  0  0  0  0  0  0  0  0  0  0  0
    4.7630    6.2600   16.0750 H   0  0  0  0  0  0  0  0  0  0  0  0
    6.1340    5.7860   15.1040 H   0  0  0  0  0  0  0  0  0  0  0  0
    6.6540    6.2820   17.0840 C   0  0  0  0  0  0  0  0  0  0  0  0
    7.1230    5.5340   18.1830 C   0  0  0  0  0  0  0  0  0  0  0  0
    8.0070    6.1060   19.1010 C   0  0  0  0  0  0  0  0  0  0  0  0
    8.4360    7.4290   18.9310 C   0  0  0  0  0  0  0  0  0  0  0  0
    7.9760    8.1830   17.8430 C   0  0  0  0  0  0  0  0  0  0  0  0
    7.0870    7.6150   16.9290 C   0  0  0  0  0  0  0  0  0  0  0  0
    6.8040    4.4990   18.3420 H   0  0  0  0  0  0  0  0  0  0  0  0
    8.3570    5.5090   19.9490 H   0  0  0  0  0  0  0  0  0  0  0  0
    9.1290    7.8700   19.6410 H   0  0  0  0  0  0  0  0  0  0  0  0
    8.3080    9.2170   17.7010 H   0  0  0  0  0  0  0  0  0  0  0  0
    6.7370    8.2210   16.0920 H   0  0  0  0  0  0  0  0  0  0  0  0
  1  2  2  0  0  0  0
  1  6  1  0  0  0  0
  2  3  1  0  0  0  0
  3  8  1  0  0  0  0
  3  4  2  0  0  0  0
  4 15  1  0  0  0  0
  5  4  1  0  0  0  0
  5 10  1  0  0  0  0
  6  9  1  0  0  0  0
  6  5  2  0  0  0  0
  7  2  1  0  0  0  0
 10 12  2  0  0  0  0
 11 10  1  0  0  0  0
 11 13  1  0  0  0  0
 14 11  1  0  0  0  0
 15 16  1  0  0  0  0
 15 17  1  0  0  0  0
 18 19  1  0  0  0  0
 18 15  1  0  0  0  0
 18 22  1  0  0  0  0
 19 20  2  0  0  0  0
 21 19  1  0  0  0  0
 23 21  1  0  0  0  0
 24 21  1  0  0  0  0
 24 33  1  1  0  0  0
 25 34  1  0  0  0  0
 25 24  1  0  0  0  0
 26 27  1  0  0  0  0
 26 25  1  0  0  0  0
 26 37  1  0  0  0  0
 27 32  1  0  0  0  0
 28 29  1  0  0  0  0
 28 27  2  0  0  0  0
 29 30  2  0  0  0  0
 30 40  1  0  0  0  0
 30 31  1  0  0  0  0
 31 41  1  0  0  0  0
 32 31  2  0  0  0  0
 32 24  1  0  0  0  0
 35 25  1  0  0  0  0
 36 26  1  0  0  0  0
 38 28  1  0  0  0  0
 39 29  1  0  0  0  0
 42  1  1  0  0  0  0
 43 42  1  0  0  0  0
 43 44  1  1  0  0  0
 45 48  1  0  0  0  0
 45 43  1  0  0  0  0
 46 45  1  0  0  0  0
 47 45  1  0  0  0  0
 49 43  1  0  0  0  0
 49 52  1  0  0  0  0
 50 49  1  0  0  0  0
 51 49  1  0  0  0  0
 52 53  1  0  0  0  0
 53 58  1  0  0  0  0
 53 54  2  0  0  0  0
 54 59  1  0  0  0  0
 55 54  1  0  0  0  0
 55 60  1  0  0  0  0
 56 55  2  0  0  0  0
 57 52  2  0  0  0  0
 57 56  1  0  0  0  0
 61 56  1  0  0  0  0
 62 57  1  0  0  0  0
M  END
>  <MODEL>
12

>  <REMARK>
 VINA RESULT:    -7.717      2.801      5.028
 INTER + INTRA:         -12.247
 INTER:                 -12.031
 INTRA:                  -0.216
 UNBOUND:                -0.695
  Name = 
  9 active torsions:
  status: ('A' for Active; 'I' for Inactive)
    1  A    between atoms: C_1  and  C_2
    2  A    between atoms: C_2  and  C_3
    3  A    between atoms: C_2  and  O_10
    4  A    between atoms: C_3  and  C_4
    5  A    between atoms: O_10  and  C_11
    6  A    between atoms: C_14  and  C_15
    7  A    between atoms: C_15  and  N_16
    8  A    between atoms: N_19  and  C_20
    9  A    between atoms: C_29  and  C_30
                            x       y       z     vdW  Elec       q    Type
                         _______ _______ _______ _____ _____    ______ ____

>  <TORSDO>
F 9

$$$$
=
 OpenBabel07192307433D

 62 65  0  0  1  0  0  0  0  0999 V2000
    3.4500    5.3760   17.7390 C   0  0  0  0  0  0  0  0  0  0  0  0
    3.3890    6.7530   18.0030 C   0  0  0  0  0  0  0  0  0  0  0  0
    2.6630    7.2400   19.0940 C   0  0  0  0  0  0  0  0  0  0  0  0
    2.0020    6.3470   19.9600 C   0  0  0  0  0  0  0  0  0  0  0  0
    2.1250    4.9600   19.7220 C   0  0  0  0  0  0  0  0  0  0  0  0
    2.8280    4.4780   18.6070 C   0  0  0  0  0  0  0  0  0  0  0  0
    3.9270    7.4530   17.3610 H   0  0  0  0  0  0  0  0  0  0  0  0
    2.6380    8.3200   19.2850 H   0  0  0  0  0  0  0  0  0  0  0  0
    2.9350    3.4040   18.4800 H   0  0  0  0  0  0  0  0  0  0  0  0
    1.6230    3.9730   20.7040 C   0  0  0  0  0  0  0  0  0  0  0  0
    0.4800    3.3130   20.3590 N   0  0  0  0  0  0  0  0  0  0  0  0
    2.2170    3.7780   21.7540 O   0  0  0  0  0  0  0  0  0  0  0  0
    0.0670    2.7430   21.0850 H   0  0  0  0  0  0  0  0  0  0  0  0
   -0.1260    3.6660   19.6380 H   0  0  0  0  0  0  0  0  0  0  0  0
    1.2260    6.8870   21.1310 C   0  0  0  0  0  0  0  0  0  0  0  0
    0.1490    6.8280   20.9240 H   0  0  0  0  0  0  0  0  0  0  0  0
    1.3950    6.2910   22.0350 H   0  0  0  0  0  0  0  0  0  0  0  0
    1.5830    8.2570   21.3990 N   0  0  0  0  0  0  0  0  0  0  0  0
    0.7540    9.2580   20.9690 C   0  0  0  0  0  0  0  0  0  0  0  0
   -0.2430    9.0830   20.2800 O   0  0  0  0  0  0  0  0  0  0  0  0
    1.2100   10.4810   21.3770 N   0  0  0  0  0  0  0  0  0  0  0  0
    2.0000    8.4270   22.3140 H   0  0  0  0  0  0  0  0  0  0  0  0
    2.2150   10.5380   21.5100 H   0  0  0  0  0  0  0  0  0  0  0  0
    0.5700   11.6850   20.8970 C   0  0  2  0  0  0  0  0  0  0  0  0
    1.5560   12.8680   20.7510 C   0  0  0  0  0  0  0  0  0  0  0  0
    0.7500   14.1470   21.0100 C   0  0  0  0  0  0  0  0  0  0  0  0
   -0.2960   13.6480   21.9580 C   0  0  0  0  0  0  0  0  0  0  0  0
   -1.1210   14.3960   22.7860 C   0  0  0  0  0  0  0  0  0  0  0  0
   -2.0670   13.7260   23.5680 C   0  0  0  0  0  0  0  0  0  0  0  0
   -2.1870   12.3270   23.4990 C   0  0  0  0  0  0  0  0  0  0  0  0
   -1.3610   11.5830   22.6490 C   0  0  0  0  0  0  0  0  0  0  0  0
   -0.4080   12.2540   21.8910 C   0  0  0  0  0  0  0  0  0  0  0  0
    0.0670   11.4840   19.9440 H   0  0  0  0  0  0  0  0  0  0  0  0
    2.0470   12.8830   19.7700 H   0  0  0  0  0  0  0  0  0  0  0  0
    2.3590   12.7930   21.4990 H   0  0  0  0  0  0  0  0  0  0  0  0
    1.3790   14.9290   21.4460 H   0  0  0  0  0  0  0  0  0  0  0  0
    0.2820   14.5130   20.0910 H   0  0  0  0  0  0  0  0  0  0  0  0
   -1.0350   15.4760   22.8300 H   0  0  0  0  0  0  0  0  0  0  0  0
   -2.7190   14.2930   24.2320 H   0  0  0  0  0  0  0  0  0  0  0  0
   -2.9360   11.8220   24.1070 H   0  0  0  0  0  0  0  0  0  0  0  0
   -1.4680   10.5030   22.5800 H   0  0  0  0  0  0  0  0  0  0  0  0
    4.2260    5.0210   16.6730 O   0  0  0  0  0  0  0  0  0  0  0  0
    5.2430    4.0330   16.8780 C   0  0  1  0  0  0  0  0  0  0  0  0
    5.2840    3.7350   17.9340 H   0  0  0  0  0  0  0  0  0  0  0  0
    4.8220    2.7940   16.0920 C   0  0  0  0  0  0  0  0  0  0  0  0
    3.8060    2.5060   16.3710 H   0  0  0  0  0  0  0  0  0  0  0  0
    5.4860    1.9510   16.2860 H   0  0  0  0  0  0  0  0  0  0  0  0
    4.7930    2.9850   15.0120 H   0  0  0  0  0  0  0  0  0  0  0  0
    6.6290    4.5460   16.4490 C   0  0  0  0  0  0  0  0  0  0  0  0
    6.5690    4.8460   15.3950 H   0  0  0  0  0  0  0  0  0  0  0  0
    7.3530    3.7300   16.4840 H   0  0  0  0  0  0  0  0  0  0  0  0
    7.2080    5.6810   17.2630 C   0  0  0  0  0  0  0  0  0  0  0  0
    7.2460    6.9910   16.7410 C   0  0  0  0  0  0  0  0  0  0  0  0
    7.7910    8.0350   17.4920 C   0  0  0  0  0  0  0  0  0  0  0  0
    8.3010    7.7860   18.7720 C   0  0  0  0  0  0  0  0  0  0  0  0
    8.2700    6.4880   19.3020 C   0  0  0  0  0  0  0  0  0  0  0  0
    7.7320    5.4430   18.5500 C   0  0  0  0  0  0  0  0  0  0  0  0
    6.8550    7.2140   15.7430 H   0  0  0  0  0  0  0  0  0  0  0  0
    7.8130    9.0430   17.0670 H   0  0  0  0  0  0  0  0  0  0  0  0
    8.7170    8.5990   19.3580 H   0  0  0  0  0  0  0  0  0  0  0  0
    8.6640    6.2850   20.3030 H   0  0  0  0  0  0  0  0  0  0  0  0
    7.7220    4.4390   18.9780 H   0  0  0  0  0  0  0  0  0  0  0  0
  1  2  2  0  0  0  0
  1  6  1  0  0  0  0
  2  3  1  0  0  0  0
  3  8  1  0  0  0  0
  3  4  2  0  0  0  0
  4 15  1  0  0  0  0
  5  4  1  0  0  0  0
  5 10  1  0  0  0  0
  6  5  2  0  0  0  0
  7  2  1  0  0  0  0
  9  6  1  0  0  0  0
 10 12  2  0  0  0  0
 11 10  1  0  0  0  0
 11 13  1  0  0  0  0
 14 11  1  0  0  0  0
 15 18  1  0  0  0  0
 15 17  1  0  0  0  0
 16 15  1  0  0  0  0
 18 22  1  0  0  0  0
 19 21  1  0  0  0  0
 19 18  1  0  0  0  0
 20 19  2  0  0  0  0
 21 23  1  0  0  0  0
 24 33  1  6  0  0  0
 24 21  1  0  0  0  0
 24 32  1  0  0  0  0
 25 24  1  0  0  0  0
 25 26  1  0  0  0  0
 25 35  1  0  0  0  0
 26 36  1  0  0  0  0
 26 27  1  0  0  0  0
 27 28  1  0  0  0  0
 28 38  1  0  0  0  0
 28 29  2  0  0  0  0
 29 39  1  0  0  0  0
 30 29  1  0  0  0  0
 30 40  1  0  0  0  0
 31 30  2  0  0  0  0
 32 27  2  0  0  0  0
 32 31  1  0  0  0  0
 34 25  1  0  0  0  0
 37 26  1  0  0  0  0
 41 31  1  0  0  0  0
 42 43  1  0  0  0  0
 42  1  1  0  0  0  0
 43 44  1  1  0  0  0
 45 47  1  0  0  0  0
 45 46  1  0  0  0  0
 45 43  1  0  0  0  0
 48 45  1  0  0  0  0
 49 51  1  0  0  0  0
 49 43  1  0  0  0  0
 49 52  1  0  0  0  0
 50 49  1  0  0  0  0
 52 57  1  0  0  0  0
 53 52  2  0  0  0  0
 53 54  1  0  0  0  0
 54 55  2  0  0  0  0
 55 56  1  0  0  0  0
 55 60  1  0  0  0  0
 56 61  1  0  0  0  0
 57 62  1  0  0  0  0
 57 56  2  0  0  0  0
 58 53  1  0  0  0  0
 59 54  1  0  0  0  0
M  END
>  <MODEL>
13

>  <REMARK>
 VINA RESULT:    -7.681      2.271      4.163
 INTER + INTRA:         -12.192
 INTER:                 -10.893
 INTRA:                  -1.300
 UNBOUND:                -0.695
  Name = 
  9 active torsions:
  status: ('A' for Active; 'I' for Inactive)
    1  A    between atoms: C_1  and  C_2
    2  A    between atoms: C_2  and  C_3
    3  A    between atoms: C_2  and  O_10
    4  A    between atoms: C_3  and  C_4
    5  A    between atoms: O_10  and  C_11
    6  A    between atoms: C_14  and  C_15
    7  A    between atoms: C_15  and  N_16
    8  A    between atoms: N_19  and  C_20
    9  A    between atoms: C_29  and  C_30
                            x       y       z     vdW  Elec       q    Type
                         _______ _______ _______ _____ _____    ______ ____

>  <TORSDO>
F 9

$$$$
=
 OpenBabel07192307433D

 62 65  0  0  1  0  0  0  0  0999 V2000
   -0.4380   11.5340   21.3710 C   0  0  0  0  0  0  0  0  0  0  0  0
    0.8000   10.8770   21.2990 C   0  0  0  0  0  0  0  0  0  0  0  0
    1.1770   10.1860   20.1430 C   0  0  0  0  0  0  0  0  0  0  0  0
    0.3250   10.1660   19.0220 C   0  0  0  0  0  0  0  0  0  0  0  0
   -0.8890   10.8850   19.0830 C   0  0  0  0  0  0  0  0  0  0  0  0
   -1.2770   11.5480   20.2570 C   0  0  0  0  0  0  0  0  0  0  0  0
    1.4850   10.9160   22.1480 H   0  0  0  0  0  0  0  0  0  0  0  0
    2.1550    9.6890   20.1090 H   0  0  0  0  0  0  0  0  0  0  0  0
   -2.1990   12.1250   20.2520 H   0  0  0  0  0  0  0  0  0  0  0  0
   -1.7270   11.0640   17.8760 C   0  0  0  0  0  0  0  0  0  0  0  0
   -1.5540   12.2330   17.1950 N   0  0  0  0  0  0  0  0  0  0  0  0
   -2.5180   10.1980   17.5300 O   0  0  0  0  0  0  0  0  0  0  0  0
   -2.2190   12.4110   16.4540 H   0  0  0  0  0  0  0  0  0  0  0  0
   -1.1100   13.0260   17.6270 H   0  0  0  0  0  0  0  0  0  0  0  0
    0.7470    9.4200   17.7840 C   0  0  0  0  0  0  0  0  0  0  0  0
    0.0680    8.5760   17.6080 H   0  0  0  0  0  0  0  0  0  0  0  0
    0.6820   10.0530   16.8920 H   0  0  0  0  0  0  0  0  0  0  0  0
    2.0940    8.9260   17.9130 N   0  0  0  0  0  0  0  0  0  0  0  0
    2.3190    7.5780   17.8510 C   0  0  0  0  0  0  0  0  0  0  0  0
    1.4360    6.7320   17.7840 O   0  0  0  0  0  0  0  0  0  0  0  0
    3.6560    7.3000   17.9140 N   0  0  0  0  0  0  0  0  0  0  0  0
    2.8100    9.4890   17.4520 H   0  0  0  0  0  0  0  0  0  0  0  0
    4.2100    7.9870   18.4160 H   0  0  0  0  0  0  0  0  0  0  0  0
    4.1030    5.9300   18.0240 C   0  0  2  0  0  0  0  0  0  0  0  0
    4.9060    5.6650   19.3190 C   0  0  0  0  0  0  0  0  0  0  0  0
    5.9170    4.5590   18.9910 C   0  0  0  0  0  0  0  0  0  0  0  0
    6.1570    4.8030   17.5340 C   0  0  0  0  0  0  0  0  0  0  0  0
    7.2000    4.3280   16.7520 C   0  0  0  0  0  0  0  0  0  0  0  0
    7.2100    4.6430   15.3890 C   0  0  0  0  0  0  0  0  0  0  0  0
    6.1740    5.4080   14.8270 C   0  0  0  0  0  0  0  0  0  0  0  0
    5.1190    5.8700   15.6210 C   0  0  0  0  0  0  0  0  0  0  0  0
    5.1260    5.5710   16.9790 C   0  0  0  0  0  0  0  0  0  0  0  0
    3.2430    5.2520   17.9600 H   0  0  0  0  0  0  0  0  0  0  0  0
    4.2600    5.3940   20.1630 H   0  0  0  0  0  0  0  0  0  0  0  0
    5.4520    6.5710   19.6240 H   0  0  0  0  0  0  0  0  0  0  0  0
    6.8260    4.6630   19.5940 H   0  0  0  0  0  0  0  0  0  0  0  0
    5.4810    3.5670   19.1420 H   0  0  0  0  0  0  0  0  0  0  0  0
    7.9930    3.7270   17.1840 H   0  0  0  0  0  0  0  0  0  0  0  0
    8.0240    4.2870   14.7580 H   0  0  0  0  0  0  0  0  0  0  0  0
    6.1920    5.6370   13.7620 H   0  0  0  0  0  0  0  0  0  0  0  0
    4.3060    6.4450   15.1820 H   0  0  0  0  0  0  0  0  0  0  0  0
   -0.6730   12.2080   22.5350 O   0  0  0  0  0  0  0  0  0  0  0  0
   -1.0690   13.5820   22.4500 C   0  0  1  0  0  0  0  0  0  0  0  0
   -1.7110   13.7450   21.5740 H   0  0  0  0  0  0  0  0  0  0  0  0
   -1.9270   13.8730   23.6790 C   0  0  0  0  0  0  0  0  0  0  0  0
   -2.3880   12.9480   24.0360 H   0  0  0  0  0  0  0  0  0  0  0  0
   -2.7200   14.5880   23.4550 H   0  0  0  0  0  0  0  0  0  0  0  0
   -1.3280   14.2520   24.5150 H   0  0  0  0  0  0  0  0  0  0  0  0
    0.1470   14.5200   22.3590 C   0  0  0  0  0  0  0  0  0  0  0  0
    0.8020   14.3100   23.2140 H   0  0  0  0  0  0  0  0  0  0  0  0
   -0.1740   15.5560   22.4810 H   0  0  0  0  0  0  0  0  0  0  0  0
    0.9520   14.4580   21.0810 C   0  0  0  0  0  0  0  0  0  0  0  0
    0.3420   14.7230   19.8370 C   0  0  0  0  0  0  0  0  0  0  0  0
    1.0860   14.6540   18.6570 C   0  0  0  0  0  0  0  0  0  0  0  0
    2.4460   14.3230   18.7040 C   0  0  0  0  0  0  0  0  0  0  0  0
    3.0630   14.0550   19.9350 C   0  0  0  0  0  0  0  0  0  0  0  0
    2.3190   14.1180   21.1130 C   0  0  0  0  0  0  0  0  0  0  0  0
   -0.7190   14.9830   19.7700 H   0  0  0  0  0  0  0  0  0  0  0  0
    0.5940   14.8620   17.7020 H   0  0  0  0  0  0  0  0  0  0  0  0
    3.0260   14.2770   17.7870 H   0  0  0  0  0  0  0  0  0  0  0  0
    4.1260   13.7980   19.9810 H   0  0  0  0  0  0  0  0  0  0  0  0
    2.8170   13.9000   22.0600 H   0  0  0  0  0  0  0  0  0  0  0  0
  1 42  1  0  0  0  0
  2  1  1  0  0  0  0
  2  7  1  0  0  0  0
  3  2  2  0  0  0  0
  4  5  2  0  0  0  0
  4  3  1  0  0  0  0
  5  6  1  0  0  0  0
  6  1  2  0  0  0  0
  8  3  1  0  0  0  0
  9  6  1  0  0  0  0
 10  5  1  0  0  0  0
 11 14  1  0  0  0  0
 11 10  1  0  0  0  0
 12 10  2  0  0  0  0
 13 11  1  0  0  0  0
 15 18  1  0  0  0  0
 15  4  1  0  0  0  0
 16 15  1  0  0  0  0
 17 15  1  0  0  0  0
 19 18  1  0  0  0  0
 19 21  1  0  0  0  0
 20 19  2  0  0  0  0
 21 24  1  0  0  0  0
 21 23  1  0  0  0  0
 22 18  1  0  0  0  0
 24 33  1  6  0  0  0
 24 25  1  0  0  0  0
 25 35  1  0  0  0  0
 25 34  1  0  0  0  0
 26 37  1  0  0  0  0
 26 25  1  0  0  0  0
 26 36  1  0  0  0  0
 27 26  1  0  0  0  0
 28 38  1  0  0  0  0
 28 27  2  0  0  0  0
 29 28  1  0  0  0  0
 30 29  2  0  0  0  0
 30 31  1  0  0  0  0
 31 32  2  0  0  0  0
 32 27  1  0  0  0  0
 32 24  1  0  0  0  0
 39 29  1  0  0  0  0
 40 30  1  0  0  0  0
 41 31  1  0  0  0  0
 43 44  1  6  0  0  0
 43 42  1  0  0  0  0
 43 45  1  0  0  0  0
 45 46  1  0  0  0  0
 45 48  1  0  0  0  0
 47 45  1  0  0  0  0
 49 43  1  0  0  0  0
 49 51  1  0  0  0  0
 49 50  1  0  0  0  0
 52 57  1  0  0  0  0
 52 49  1  0  0  0  0
 53 52  2  0  0  0  0
 54 55  2  0  0  0  0
 54 53  1  0  0  0  0
 55 56  1  0  0  0  0
 56 61  1  0  0  0  0
 56 57  2  0  0  0  0
 57 62  1  0  0  0  0
 58 53  1  0  0  0  0
 59 54  1  0  0  0  0
 60 55  1  0  0  0  0
M  END
>  <MODEL>
14

>  <REMARK>
 VINA RESULT:    -7.653      2.683     10.151
 INTER + INTRA:         -12.150
 INTER:                 -10.116
 INTRA:                  -2.034
 UNBOUND:                -0.695
  Name = 
  9 active torsions:
  status: ('A' for Active; 'I' for Inactive)
    1  A    between atoms: C_1  and  C_2
    2  A    between atoms: C_2  and  C_3
    3  A    between atoms: C_2  and  O_10
    4  A    between atoms: C_3  and  C_4
    5  A    between atoms: O_10  and  C_11
    6  A    between atoms: C_14  and  C_15
    7  A    between atoms: C_15  and  N_16
    8  A    between atoms: N_19  and  C_20
    9  A    between atoms: C_29  and  C_30
                            x       y       z     vdW  Elec       q    Type
                         _______ _______ _______ _____ _____    ______ ____

>  <TORSDO>
F 9

$$$$
=
 OpenBabel07192307433D

 62 65  0  0  1  0  0  0  0  0999 V2000
    2.4410    7.2320   18.7180 C   0  0  0  0  0  0  0  0  0  0  0  0
    2.3020    8.2710   17.7850 C   0  0  0  0  0  0  0  0  0  0  0  0
    1.5960    9.4330   18.1080 C   0  0  0  0  0  0  0  0  0  0  0  0
    1.0360    9.5860   19.3920 C   0  0  0  0  0  0  0  0  0  0  0  0
    1.2390    8.5620   20.3430 C   0  0  0  0  0  0  0  0  0  0  0  0
    1.9200    7.3830   20.0020 C   0  0  0  0  0  0  0  0  0  0  0  0
    2.7620    8.1810   16.7990 H   0  0  0  0  0  0  0  0  0  0  0  0
    1.5090   10.2350   17.3650 H   0  0  0  0  0  0  0  0  0  0  0  0
    2.0910    6.6370   20.7730 H   0  0  0  0  0  0  0  0  0  0  0  0
    0.8480    8.7520   21.7590 C   0  0  0  0  0  0  0  0  0  0  0  0
    1.8650    9.0080   22.6310 N   0  0  0  0  0  0  0  0  0  0  0  0
   -0.3240    8.6810   22.0990 O   0  0  0  0  0  0  0  0  0  0  0  0
    1.6140    9.0030   23.6110 H   0  0  0  0  0  0  0  0  0  0  0  0
    2.8210    8.8040   22.3910 H   0  0  0  0  0  0  0  0  0  0  0  0
    0.2800   10.8450   19.7270 C   0  0  0  0  0  0  0  0  0  0  0  0
   -0.1650   11.2660   18.8150 H   0  0  0  0  0  0  0  0  0  0  0  0
   -0.5540   10.6430   20.4070 H   0  0  0  0  0  0  0  0  0  0  0  0
    1.1500   11.8250   20.3260 N   0  0  0  0  0  0  0  0  0  0  0  0
    1.6350   12.8460   19.5550 C   0  0  0  0  0  0  0  0  0  0  0  0
    1.4580   12.9450   18.3470 O   0  0  0  0  0  0  0  0  0  0  0  0
    2.3750   13.7170   20.3040 N   0  0  0  0  0  0  0  0  0  0  0  0
    0.9030   12.1020   21.2760 H   0  0  0  0  0  0  0  0  0  0  0  0
    2.8200   13.3070   21.1190 H   0  0  0  0  0  0  0  0  0  0  0  0
    3.1100   14.7810   19.6570 C   0  0  2  0  0  0  0  0  0  0  0  0
    3.3430   14.5160   18.1510 C   0  0  0  0  0  0  0  0  0  0  0  0
    4.6700   15.1920   17.7860 C   0  0  0  0  0  0  0  0  0  0  0  0
    5.4110   15.1070   19.0840 C   0  0  0  0  0  0  0  0  0  0  0  0
    6.7720   15.2670   19.2990 C   0  0  0  0  0  0  0  0  0  0  0  0
    7.2550   15.1890   20.6100 C   0  0  0  0  0  0  0  0  0  0  0  0
    6.3730   14.9700   21.6820 C   0  0  0  0  0  0  0  0  0  0  0  0
    5.0000   14.8250   21.4560 C   0  0  0  0  0  0  0  0  0  0  0  0
    4.5300   14.8830   20.1490 C   0  0  0  0  0  0  0  0  0  0  0  0
    2.5890   15.7340   19.8030 H   0  0  0  0  0  0  0  0  0  0  0  0
    2.5130   14.8760   17.5310 H   0  0  0  0  0  0  0  0  0  0  0  0
    3.4280   13.4360   17.9600 H   0  0  0  0  0  0  0  0  0  0  0  0
    5.1750   14.6600   16.9730 H   0  0  0  0  0  0  0  0  0  0  0  0
    4.5170   16.2400   17.5070 H   0  0  0  0  0  0  0  0  0  0  0  0
    7.4510   15.4470   18.4720 H   0  0  0  0  0  0  0  0  0  0  0  0
    8.3220   15.3020   20.8010 H   0  0  0  0  0  0  0  0  0  0  0  0
    6.7640   14.9210   22.6970 H   0  0  0  0  0  0  0  0  0  0  0  0
    4.3140   14.6780   22.2880 H   0  0  0  0  0  0  0  0  0  0  0  0
    3.1890    6.1690   18.2990 O   0  0  0  0  0  0  0  0  0  0  0  0
    2.7470    4.8530   18.6520 C   0  0  1  0  0  0  0  0  0  0  0  0
    2.3350    4.8450   19.6700 H   0  0  0  0  0  0  0  0  0  0  0  0
    1.5950    4.5060   17.7120 C   0  0  0  0  0  0  0  0  0  0  0  0
    1.8890    3.6860   17.0530 H   0  0  0  0  0  0  0  0  0  0  0  0
    1.3080    5.3580   17.0950 H   0  0  0  0  0  0  0  0  0  0  0  0
    0.7140    4.1480   18.2600 H   0  0  0  0  0  0  0  0  0  0  0  0
    3.8900    3.8270   18.5670 C   0  0  0  0  0  0  0  0  0  0  0  0
    3.4560    2.8560   18.2960 H   0  0  0  0  0  0  0  0  0  0  0  0
    4.3360    3.6870   19.5540 H   0  0  0  0  0  0  0  0  0  0  0  0
    5.0200    4.1550   17.6180 C   0  0  0  0  0  0  0  0  0  0  0  0
    4.8430    4.0340   16.2240 C   0  0  0  0  0  0  0  0  0  0  0  0
    5.8920    4.3280   15.3510 C   0  0  0  0  0  0  0  0  0  0  0  0
    7.1290    4.7490   15.8570 C   0  0  0  0  0  0  0  0  0  0  0  0
    7.3180    4.8710   17.2410 C   0  0  0  0  0  0  0  0  0  0  0  0
    6.2720    4.5710   18.1140 C   0  0  0  0  0  0  0  0  0  0  0  0
    3.8880    3.7070   15.8010 H   0  0  0  0  0  0  0  0  0  0  0  0
    5.7350    4.2260   14.2730 H   0  0  0  0  0  0  0  0  0  0  0  0
    7.9420    4.9850   15.1770 H   0  0  0  0  0  0  0  0  0  0  0  0
    8.2800    5.2020   17.6450 H   0  0  0  0  0  0  0  0  0  0  0  0
    6.4420    4.6680   19.1880 H   0  0  0  0  0  0  0  0  0  0  0  0
  1  6  1  0  0  0  0
  2  3  1  0  0  0  0
  2  1  2  0  0  0  0
  3  4  2  0  0  0  0
  4 15  1  0  0  0  0
  4  5  1  0  0  0  0
  5 10  1  0  0  0  0
  6  5  2  0  0  0  0
  6  9  1  0  0  0  0
  7  2  1  0  0  0  0
  8  3  1  0  0  0  0
 10 12  2  0  0  0  0
 10 11  1  0  0  0  0
 11 13  1  0  0  0  0
 14 11  1  0  0  0  0
 15 18  1  0  0  0  0
 15 17  1  0  0  0  0
 16 15  1  0  0  0  0
 18 22  1  0  0  0  0
 19 21  1  0  0  0  0
 19 18  1  0  0  0  0
 20 19  2  0  0  0  0
 21 23  1  0  0  0  0
 24 33  1  1  0  0  0
 24 32  1  0  0  0  0
 24 21  1  0  0  0  0
 25 24  1  0  0  0  0
 26 25  1  0  0  0  0
 26 27  1  0  0  0  0
 27 28  2  0  0  0  0
 27 32  1  0  0  0  0
 28 29  1  0  0  0  0
 29 39  1  0  0  0  0
 29 30  2  0  0  0  0
 30 40  1  0  0  0  0
 31 30  1  0  0  0  0
 31 41  1  0  0  0  0
 32 31  2  0  0  0  0
 34 25  1  0  0  0  0
 35 25  1  0  0  0  0
 36 26  1  0  0  0  0
 37 26  1  0  0  0  0
 38 28  1  0  0  0  0
 42 43  1  0  0  0  0
 42  1  1  0  0  0  0
 43 44  1  1  0  0  0
 45 48  1  0  0  0  0
 45 43  1  0  0  0  0
 46 45  1  0  0  0  0
 47 45  1  0  0  0  0
 49 43  1  0  0  0  0
 49 51  1  0  0  0  0
 50 49  1  0  0  0  0
 52 57  1  0  0  0  0
 52 49  1  0  0  0  0
 53 52  2  0  0  0  0
 54 55  2  0  0  0  0
 54 53  1  0  0  0  0
 55 56  1  0  0  0  0
 56 61  1  0  0  0  0
 56 57  2  0  0  0  0
 57 62  1  0  0  0  0
 58 53  1  0  0  0  0
 59 54  1  0  0  0  0
 60 55  1  0  0  0  0
M  END
>  <MODEL>
15

>  <REMARK>
 VINA RESULT:    -7.634      3.571      5.506
 INTER + INTRA:         -12.122
 INTER:                 -11.973
 INTRA:                  -0.150
 UNBOUND:                -0.695
  Name = 
  9 active torsions:
  status: ('A' for Active; 'I' for Inactive)
    1  A    between atoms: C_1  and  C_2
    2  A    between atoms: C_2  and  C_3
    3  A    between atoms: C_2  and  O_10
    4  A    between atoms: C_3  and  C_4
    5  A    between atoms: O_10  and  C_11
    6  A    between atoms: C_14  and  C_15
    7  A    between atoms: C_15  and  N_16
    8  A    between atoms: N_19  and  C_20
    9  A    between atoms: C_29  and  C_30
                            x       y       z     vdW  Elec       q    Type
                         _______ _______ _______ _____ _____    ______ ____

>  <TORSDO>
F 9

$$$$
=
 OpenBabel07192307433D

 62 65  0  0  1  0  0  0  0  0999 V2000
    2.4440   13.4920   20.3890 C   0  0  0  0  0  0  0  0  0  0  0  0
    2.6680   13.3130   19.0160 C   0  0  0  0  0  0  0  0  0  0  0  0
    2.0310   12.2840   18.3150 C   0  0  0  0  0  0  0  0  0  0  0  0
    1.1320   11.4270   18.9800 C   0  0  0  0  0  0  0  0  0  0  0  0
    0.8650   11.6580   20.3470 C   0  0  0  0  0  0  0  0  0  0  0  0
    1.5320   12.6710   21.0530 C   0  0  0  0  0  0  0  0  0  0  0  0
    3.3340   13.9930   18.4810 H   0  0  0  0  0  0  0  0  0  0  0  0
    2.2150   12.1710   17.2390 H   0  0  0  0  0  0  0  0  0  0  0  0
    1.2690   12.8440   22.0930 H   0  0  0  0  0  0  0  0  0  0  0  0
   -0.2130   10.9210   21.0450 C   0  0  0  0  0  0  0  0  0  0  0  0
    0.1210    9.6910   21.5330 N   0  0  0  0  0  0  0  0  0  0  0  0
   -1.3270   11.4080   21.1660 O   0  0  0  0  0  0  0  0  0  0  0  0
   -0.6470    9.1360   21.8870 H   0  0  0  0  0  0  0  0  0  0  0  0
    0.9380    9.2050   21.2020 H   0  0  0  0  0  0  0  0  0  0  0  0
    0.4520   10.3260   18.2110 C   0  0  0  0  0  0  0  0  0  0  0  0
   -0.1320    9.6980   18.8970 H   0  0  0  0  0  0  0  0  0  0  0  0
   -0.2620   10.7250   17.4830 H   0  0  0  0  0  0  0  0  0  0  0  0
    1.4160    9.5060   17.5220 N   0  0  0  0  0  0  0  0  0  0  0  0
    2.0490    8.5040   18.2060 C   0  0  0  0  0  0  0  0  0  0  0  0
    1.9260    8.3010   19.4070 O   0  0  0  0  0  0  0  0  0  0  0  0
    2.8660    7.7850   17.3790 N   0  0  0  0  0  0  0  0  0  0  0  0
    1.1740    9.2650   16.5600 H   0  0  0  0  0  0  0  0  0  0  0  0
    3.2300    8.3030   16.5840 H   0  0  0  0  0  0  0  0  0  0  0  0
    3.7480    6.7810   17.9300 C   0  0  2  0  0  0  0  0  0  0  0  0
    5.0480    6.6100   17.1090 C   0  0  0  0  0  0  0  0  0  0  0  0
    5.4740    5.1450   17.2610 C   0  0  0  0  0  0  0  0  0  0  0  0
    4.1500    4.4710   17.4500 C   0  0  0  0  0  0  0  0  0  0  0  0
    3.8580    3.1210   17.3290 C   0  0  0  0  0  0  0  0  0  0  0  0
    2.5530    2.6940   17.5930 C   0  0  0  0  0  0  0  0  0  0  0  0
    1.5680    3.6150   17.9900 C   0  0  0  0  0  0  0  0  0  0  0  0
    1.8770    4.9730   18.1240 C   0  0  0  0  0  0  0  0  0  0  0  0
    3.1710    5.3940   17.8390 C   0  0  0  0  0  0  0  0  0  0  0  0
    3.9830    7.0260   18.9730 H   0  0  0  0  0  0  0  0  0  0  0  0
    5.8360    7.3030   17.4260 H   0  0  0  0  0  0  0  0  0  0  0  0
    4.8590    6.8200   16.0450 H   0  0  0  0  0  0  0  0  0  0  0  0
    6.0050    4.7930   16.3710 H   0  0  0  0  0  0  0  0  0  0  0  0
    6.0990    5.0050   18.1480 H   0  0  0  0  0  0  0  0  0  0  0  0
    4.6210    2.4090   17.0340 H   0  0  0  0  0  0  0  0  0  0  0  0
    2.2990    1.6380   17.4960 H   0  0  0  0  0  0  0  0  0  0  0  0
    0.5590    3.2650   18.2010 H   0  0  0  0  0  0  0  0  0  0  0  0
    1.1200    5.6830   18.4510 H   0  0  0  0  0  0  0  0  0  0  0  0
    3.0890   14.5560   20.9510 O   0  0  0  0  0  0  0  0  0  0  0  0
    4.4460   14.3760   21.3730 C   0  0  1  0  0  0  0  0  0  0  0  0
    4.7720   13.3430   21.1930 H   0  0  0  0  0  0  0  0  0  0  0  0
    5.3080   15.2670   20.4820 C   0  0  0  0  0  0  0  0  0  0  0  0
    6.3650   15.1050   20.7090 H   0  0  0  0  0  0  0  0  0  0  0  0
    5.0820   16.3230   20.6300 H   0  0  0  0  0  0  0  0  0  0  0  0
    5.1890   15.0210   19.4200 H   0  0  0  0  0  0  0  0  0  0  0  0
    4.6260   14.7040   22.8650 C   0  0  0  0  0  0  0  0  0  0  0  0
    3.6550   14.5790   23.3610 H   0  0  0  0  0  0  0  0  0  0  0  0
    4.8860   15.7580   22.9850 H   0  0  0  0  0  0  0  0  0  0  0  0
    5.6750   13.9070   23.6080 C   0  0  0  0  0  0  0  0  0  0  0  0
    6.2740   14.4240   24.7750 C   0  0  0  0  0  0  0  0  0  0  0  0
    7.2500   13.6890   25.4520 C   0  0  0  0  0  0  0  0  0  0  0  0
    7.6370   12.4310   24.9740 C   0  0  0  0  0  0  0  0  0  0  0  0
    7.0500   11.9070   23.8140 C   0  0  0  0  0  0  0  0  0  0  0  0
    6.0790   12.6430   23.1330 C   0  0  0  0  0  0  0  0  0  0  0  0
    5.9920   15.4050   25.1700 H   0  0  0  0  0  0  0  0  0  0  0  0
    7.7040   14.1090   26.3550 H   0  0  0  0  0  0  0  0  0  0  0  0
    8.3910   11.8570   25.5060 H   0  0  0  0  0  0  0  0  0  0  0  0
    7.3450   10.9230   23.4350 H   0  0  0  0  0  0  0  0  0  0  0  0
    5.6390   12.2200   22.2290 H   0  0  0  0  0  0  0  0  0  0  0  0
  1 42  1  0  0  0  0
  1  6  1  0  0  0  0
  2  1  2  0  0  0  0
  3  4  2  0  0  0  0
  3  2  1  0  0  0  0
  4  5  1  0  0  0  0
  5 10  1  0  0  0  0
  5  6  2  0  0  0  0
  6  9  1  0  0  0  0
  7  2  1  0  0  0  0
  8  3  1  0  0  0  0
 10 12  2  0  0  0  0
 10 11  1  0  0  0  0
 11 13  1  0  0  0  0
 14 11  1  0  0  0  0
 15 16  1  0  0  0  0
 15  4  1  0  0  0  0
 17 15  1  0  0  0  0
 18 19  1  0  0  0  0
 18 15  1  0  0  0  0
 19 20  2  0  0  0  0
 21 24  1  0  0  0  0
 21 19  1  0  0  0  0
 22 18  1  0  0  0  0
 23 21  1  0  0  0  0
 24 33  1  1  0  0  0
 25 26  1  0  0  0  0
 25 34  1  0  0  0  0
 25 24  1  0  0  0  0
 26 27  1  0  0  0  0
 26 37  1  0  0  0  0
 27 32  1  0  0  0  0
 28 27  2  0  0  0  0
 28 29  1  0  0  0  0
 29 30  2  0  0  0  0
 30 31  1  0  0  0  0
 30 40  1  0  0  0  0
 31 41  1  0  0  0  0
 32 24  1  0  0  0  0
 32 31  2  0  0  0  0
 35 25  1  0  0  0  0
 36 26  1  0  0  0  0
 38 28  1  0  0  0  0
 39 29  1  0  0  0  0
 42 43  1  0  0  0  0
 43 44  1  6  0  0  0
 43 49  1  0  0  0  0
 45 47  1  0  0  0  0
 45 46  1  0  0  0  0
 45 43  1  0  0  0  0
 48 45  1  0  0  0  0
 49 51  1  0  0  0  0
 49 50  1  0  0  0  0
 49 52  1  0  0  0  0
 52 53  1  0  0  0  0
 53 58  1  0  0  0  0
 53 54  2  0  0  0  0
 54 59  1  0  0  0  0
 55 54  1  0  0  0  0
 55 60  1  0  0  0  0
 56 55  2  0  0  0  0
 57 52  2  0  0  0  0
 57 56  1  0  0  0  0
 61 56  1  0  0  0  0
 62 57  1  0  0  0  0
M  END
>  <MODEL>
16

>  <REMARK>
 VINA RESULT:    -7.546      3.989      9.475
 INTER + INTRA:         -11.990
 INTER:                 -10.570
 INTRA:                  -1.421
 UNBOUND:                -0.695
  Name = 
  9 active torsions:
  status: ('A' for Active; 'I' for Inactive)
    1  A    between atoms: C_1  and  C_2
    2  A    between atoms: C_2  and  C_3
    3  A    between atoms: C_2  and  O_10
    4  A    between atoms: C_3  and  C_4
    5  A    between atoms: O_10  and  C_11
    6  A    between atoms: C_14  and  C_15
    7  A    between atoms: C_15  and  N_16
    8  A    between atoms: N_19  and  C_20
    9  A    between atoms: C_29  and  C_30
                            x       y       z     vdW  Elec       q    Type
                         _______ _______ _______ _____ _____    ______ ____

>  <TORSDO>
F 9

$$$$
=
 OpenBabel07192307433D

 62 65  0  0  1  0  0  0  0  0999 V2000
    2.3710    6.0170   18.4930 C   0  0  0  0  0  0  0  0  0  0  0  0
    2.1940    5.8710   19.8770 C   0  0  0  0  0  0  0  0  0  0  0  0
    1.8300    6.9630   20.6700 C   0  0  0  0  0  0  0  0  0  0  0  0
    1.6110    8.2230   20.0810 C   0  0  0  0  0  0  0  0  0  0  0  0
    1.7280    8.3430   18.6790 C   0  0  0  0  0  0  0  0  0  0  0  0
    2.1260    7.2510   17.8920 C   0  0  0  0  0  0  0  0  0  0  0  0
    2.3250    4.8920   20.3410 H   0  0  0  0  0  0  0  0  0  0  0  0
    1.6880    6.8210   21.7490 H   0  0  0  0  0  0  0  0  0  0  0  0
    2.1650    7.3720   16.8120 H   0  0  0  0  0  0  0  0  0  0  0  0
    1.3180    9.5850   17.9850 C   0  0  0  0  0  0  0  0  0  0  0  0
    2.3200   10.4620   17.6860 N   0  0  0  0  0  0  0  0  0  0  0  0
    0.1460    9.7880   17.7070 O   0  0  0  0  0  0  0  0  0  0  0  0
    2.0240   11.3640   17.3370 H   0  0  0  0  0  0  0  0  0  0  0  0
    3.2130   10.4070   18.1460 H   0  0  0  0  0  0  0  0  0  0  0  0
    1.2170    9.3890   20.9490 C   0  0  0  0  0  0  0  0  0  0  0  0
    1.2360    9.0910   22.0050 H   0  0  0  0  0  0  0  0  0  0  0  0
    1.9270   10.2180   20.8540 H   0  0  0  0  0  0  0  0  0  0  0  0
   -0.1030    9.8600   20.6130 N   0  0  0  0  0  0  0  0  0  0  0  0
   -0.3760   11.1970   20.6990 C   0  0  0  0  0  0  0  0  0  0  0  0
    0.4030   12.0360   21.1360 O   0  0  0  0  0  0  0  0  0  0  0  0
   -1.6450   11.4680   20.2710 N   0  0  0  0  0  0  0  0  0  0  0  0
   -0.5400    9.3960   19.8160 H   0  0  0  0  0  0  0  0  0  0  0  0
   -2.3050   10.7040   20.3850 H   0  0  0  0  0  0  0  0  0  0  0  0
   -2.1910   12.7970   20.4270 C   0  0  2  0  0  0  0  0  0  0  0  0
   -1.1480   13.9070   20.1630 C   0  0  0  0  0  0  0  0  0  0  0  0
   -1.5360   15.0960   21.0500 C   0  0  0  0  0  0  0  0  0  0  0  0
   -2.1900   14.4010   22.2040 C   0  0  0  0  0  0  0  0  0  0  0  0
   -2.4650   14.9160   23.4620 C   0  0  0  0  0  0  0  0  0  0  0  0
   -3.1270   14.1010   24.3870 C   0  0  0  0  0  0  0  0  0  0  0  0
   -3.5180   12.7970   24.0360 C   0  0  0  0  0  0  0  0  0  0  0  0
   -3.2490   12.2930   22.7590 C   0  0  0  0  0  0  0  0  0  0  0  0
   -2.5720   13.1000   21.8520 C   0  0  0  0  0  0  0  0  0  0  0  0
   -3.0600   12.9220   19.7690 H   0  0  0  0  0  0  0  0  0  0  0  0
   -1.0940   14.1850   19.1030 H   0  0  0  0  0  0  0  0  0  0  0  0
   -0.1410   13.5630   20.4450 H   0  0  0  0  0  0  0  0  0  0  0  0
   -0.6530   15.6730   21.3470 H   0  0  0  0  0  0  0  0  0  0  0  0
   -2.2550   15.7490   20.5460 H   0  0  0  0  0  0  0  0  0  0  0  0
   -2.1740   15.9260   23.7290 H   0  0  0  0  0  0  0  0  0  0  0  0
   -3.3460   14.4820   25.3840 H   0  0  0  0  0  0  0  0  0  0  0  0
   -4.0410   12.1790   24.7640 H   0  0  0  0  0  0  0  0  0  0  0  0
   -3.5710   11.2910   22.4800 H   0  0  0  0  0  0  0  0  0  0  0  0
    2.6830    4.8690   17.8210 O   0  0  0  0  0  0  0  0  0  0  0  0
    3.8490    4.1450   18.2290 C   0  0  1  0  0  0  0  0  0  0  0  0
    4.1710    4.4640   19.2300 H   0  0  0  0  0  0  0  0  0  0  0  0
    3.4410    2.6790   18.3490 C   0  0  0  0  0  0  0  0  0  0  0  0
    2.4200    2.5480   17.9820 H   0  0  0  0  0  0  0  0  0  0  0  0
    3.4840    2.3330   19.3820 H   0  0  0  0  0  0  0  0  0  0  0  0
    4.0690    2.0280   17.7280 H   0  0  0  0  0  0  0  0  0  0  0  0
    5.0150    4.3420   17.2440 C   0  0  0  0  0  0  0  0  0  0  0  0
    4.5920    4.6060   16.2660 H   0  0  0  0  0  0  0  0  0  0  0  0
    5.5370    3.3950   17.0940 H   0  0  0  0  0  0  0  0  0  0  0  0
    6.0600    5.3630   17.6330 C   0  0  0  0  0  0  0  0  0  0  0  0
    6.1160    6.6140   16.9850 C   0  0  0  0  0  0  0  0  0  0  0  0
    7.0890    7.5510   17.3390 C   0  0  0  0  0  0  0  0  0  0  0  0
    8.0160    7.2510   18.3460 C   0  0  0  0  0  0  0  0  0  0  0  0
    7.9720    6.0100   18.9970 C   0  0  0  0  0  0  0  0  0  0  0  0
    7.0030    5.0710   18.6380 C   0  0  0  0  0  0  0  0  0  0  0  0
    5.4050    6.8740   16.1940 H   0  0  0  0  0  0  0  0  0  0  0  0
    7.1170    8.5150   16.8230 H   0  0  0  0  0  0  0  0  0  0  0  0
    8.7680    7.9830   18.6270 H   0  0  0  0  0  0  0  0  0  0  0  0
    8.6900    5.7690   19.7870 H   0  0  0  0  0  0  0  0  0  0  0  0
    6.9900    4.1090   19.1540 H   0  0  0  0  0  0  0  0  0  0  0  0
  1  2  1  0  0  0  0
  2  7  1  0  0  0  0
  2  3  2  0  0  0  0
  3  8  1  0  0  0  0
  4  3  1  0  0  0  0
  4 15  1  0  0  0  0
  5  4  2  0  0  0  0
  6  1  2  0  0  0  0
  6  5  1  0  0  0  0
  9  6  1  0  0  0  0
 10  5  1  0  0  0  0
 11 10  1  0  0  0  0
 11 14  1  0  0  0  0
 12 10  2  0  0  0  0
 13 11  1  0  0  0  0
 15 16  1  0  0  0  0
 17 15  1  0  0  0  0
 18 19  1  0  0  0  0
 18 15  1  0  0  0  0
 19 20  2  0  0  0  0
 21 23  1  0  0  0  0
 21 24  1  0  0  0  0
 21 19  1  0  0  0  0
 22 18  1  0  0  0  0
 24 33  1  6  0  0  0
 24 32  1  0  0  0  0
 25 24  1  0  0  0  0
 25 35  1  0  0  0  0
 25 26  1  0  0  0  0
 26 36  1  0  0  0  0
 26 27  1  0  0  0  0
 27 28  1  0  0  0  0
 28 38  1  0  0  0  0
 28 29  2  0  0  0  0
 29 39  1  0  0  0  0
 30 29  1  0  0  0  0
 30 40  1  0  0  0  0
 31 30  2  0  0  0  0
 32 27  2  0  0  0  0
 32 31  1  0  0  0  0
 34 25  1  0  0  0  0
 37 26  1  0  0  0  0
 41 31  1  0  0  0  0
 42 43  1  0  0  0  0
 42  1  1  0  0  0  0
 43 45  1  0  0  0  0
 43 44  1  1  0  0  0
 45 47  1  0  0  0  0
 46 45  1  0  0  0  0
 48 45  1  0  0  0  0
 49 52  1  0  0  0  0
 49 43  1  0  0  0  0
 50 49  1  0  0  0  0
 51 49  1  0  0  0  0
 52 57  1  0  0  0  0
 53 54  1  0  0  0  0
 53 52  2  0  0  0  0
 54 55  2  0  0  0  0
 55 60  1  0  0  0  0
 55 56  1  0  0  0  0
 56 61  1  0  0  0  0
 57 56  2  0  0  0  0
 57 62  1  0  0  0  0
 58 53  1  0  0  0  0
 59 54  1  0  0  0  0
M  END
>  <MODEL>
17

>  <REMARK>
 VINA RESULT:    -7.545      1.800      3.512
 INTER + INTRA:         -11.989
 INTER:                 -11.450
 INTRA:                  -0.538
 UNBOUND:                -0.695
  Name = 
  9 active torsions:
  status: ('A' for Active; 'I' for Inactive)
    1  A    between atoms: C_1  and  C_2
    2  A    between atoms: C_2  and  C_3
    3  A    between atoms: C_2  and  O_10
    4  A    between atoms: C_3  and  C_4
    5  A    between atoms: O_10  and  C_11
    6  A    between atoms: C_14  and  C_15
    7  A    between atoms: C_15  and  N_16
    8  A    between atoms: N_19  and  C_20
    9  A    between atoms: C_29  and  C_30
                            x       y       z     vdW  Elec       q    Type
                         _______ _______ _______ _____ _____    ______ ____

>  <TORSDO>
F 9

$$$$
=
 OpenBabel07192307433D

 62 65  0  0  1  0  0  0  0  0999 V2000
    3.9790    4.8000   18.0070 C   0  0  0  0  0  0  0  0  0  0  0  0
    3.9680    6.1970   18.1360 C   0  0  0  0  0  0  0  0  0  0  0  0
    3.1390    6.8220   19.0730 C   0  0  0  0  0  0  0  0  0  0  0  0
    2.3220    6.0500   19.9210 C   0  0  0  0  0  0  0  0  0  0  0  0
    2.3900    4.6420   19.8260 C   0  0  0  0  0  0  0  0  0  0  0  0
    3.1980    4.0220   18.8620 C   0  0  0  0  0  0  0  0  0  0  0  0
    4.6240    6.8050   17.5110 H   0  0  0  0  0  0  0  0  0  0  0  0
    3.1560    7.9160   19.1610 H   0  0  0  0  0  0  0  0  0  0  0  0
    3.2560    2.9360   18.8470 H   0  0  0  0  0  0  0  0  0  0  0  0
    1.7080    3.7810   20.8180 C   0  0  0  0  0  0  0  0  0  0  0  0
    0.5170    3.2430   20.4260 N   0  0  0  0  0  0  0  0  0  0  0  0
    2.2060    3.5770   21.9160 O   0  0  0  0  0  0  0  0  0  0  0  0
   -0.0090    2.7690   21.1490 H   0  0  0  0  0  0  0  0  0  0  0  0
    0.0060    3.6230   19.6470 H   0  0  0  0  0  0  0  0  0  0  0  0
    1.4370    6.7380   20.9260 C   0  0  0  0  0  0  0  0  0  0  0  0
    0.3840    6.5160   20.7090 H   0  0  0  0  0  0  0  0  0  0  0  0
    1.6220    6.3710   21.9410 H   0  0  0  0  0  0  0  0  0  0  0  0
    1.6360    8.1650   20.8980 N   0  0  0  0  0  0  0  0  0  0  0  0
    0.5500    8.9910   20.9940 C   0  0  0  0  0  0  0  0  0  0  0  0
   -0.6120    8.6080   21.0120 O   0  0  0  0  0  0  0  0  0  0  0  0
    0.9340   10.3030   21.0280 N   0  0  0  0  0  0  0  0  0  0  0  0
    2.4600    8.4980   21.3990 H   0  0  0  0  0  0  0  0  0  0  0  0
    1.8100   10.5030   20.5550 H   0  0  0  0  0  0  0  0  0  0  0  0
   -0.0630   11.3480   20.9680 C   0  0  2  0  0  0  0  0  0  0  0  0
   -1.1630   11.0660   19.9190 C   0  0  0  0  0  0  0  0  0  0  0  0
   -1.6400   12.4290   19.4040 C   0  0  0  0  0  0  0  0  0  0  0  0
   -0.3990   13.2530   19.5580 C   0  0  0  0  0  0  0  0  0  0  0  0
   -0.1140   14.4790   18.9760 C   0  0  0  0  0  0  0  0  0  0  0  0
    1.0980   15.1020   19.2920 C   0  0  0  0  0  0  0  0  0  0  0  0
    1.9950   14.5020   20.1920 C   0  0  0  0  0  0  0  0  0  0  0  0
    1.6900   13.2720   20.7860 C   0  0  0  0  0  0  0  0  0  0  0  0
    0.4940   12.6480   20.4520 C   0  0  0  0  0  0  0  0  0  0  0  0
   -0.5070   11.4940   21.9600 H   0  0  0  0  0  0  0  0  0  0  0  0
   -1.9880   10.4690   20.3280 H   0  0  0  0  0  0  0  0  0  0  0  0
   -0.7510   10.4890   19.0770 H   0  0  0  0  0  0  0  0  0  0  0  0
   -1.9790   12.3640   18.3650 H   0  0  0  0  0  0  0  0  0  0  0  0
   -2.4410   12.8310   20.0330 H   0  0  0  0  0  0  0  0  0  0  0  0
   -0.8110   14.9470   18.2900 H   0  0  0  0  0  0  0  0  0  0  0  0
    1.3470   16.0610   18.8390 H   0  0  0  0  0  0  0  0  0  0  0  0
    2.9300   15.0040   20.4350 H   0  0  0  0  0  0  0  0  0  0  0  0
    2.3750   12.8170   21.5000 H   0  0  0  0  0  0  0  0  0  0  0  0
    4.8610    4.3060   17.0890 O   0  0  0  0  0  0  0  0  0  0  0  0
    5.9410    5.1490   16.6710 C   0  0  1  0  0  0  0  0  0  0  0  0
    6.1100    5.9510   17.4020 H   0  0  0  0  0  0  0  0  0  0  0  0
    7.2010    4.2870   16.6720 C   0  0  0  0  0  0  0  0  0  0  0  0
    7.8780    4.6210   17.4630 H   0  0  0  0  0  0  0  0  0  0  0  0
    7.7290    4.3460   15.7200 H   0  0  0  0  0  0  0  0  0  0  0  0
    6.9780    3.2360   16.8920 H   0  0  0  0  0  0  0  0  0  0  0  0
    5.6720    5.7770   15.2930 C   0  0  0  0  0  0  0  0  0  0  0  0
    6.1950    6.7410   15.2510 H   0  0  0  0  0  0  0  0  0  0  0  0
    4.6110    6.0120   15.1930 H   0  0  0  0  0  0  0  0  0  0  0  0
    6.0530    4.9460   14.0880 C   0  0  0  0  0  0  0  0  0  0  0  0
    7.2620    5.1870   13.4040 C   0  0  0  0  0  0  0  0  0  0  0  0
    7.6060    4.4240   12.2860 C   0  0  0  0  0  0  0  0  0  0  0  0
    6.7490    3.4100   11.8390 C   0  0  0  0  0  0  0  0  0  0  0  0
    5.5430    3.1620   12.5100 C   0  0  0  0  0  0  0  0  0  0  0  0
    5.1960    3.9280   13.6240 C   0  0  0  0  0  0  0  0  0  0  0  0
    7.9500    5.9740   13.7310 H   0  0  0  0  0  0  0  0  0  0  0  0
    8.5480    4.6290   11.7680 H   0  0  0  0  0  0  0  0  0  0  0  0
    7.0200    2.8120   10.9740 H   0  0  0  0  0  0  0  0  0  0  0  0
    4.8680    2.3700   12.1690 H   0  0  0  0  0  0  0  0  0  0  0  0
    4.2500    3.7220   14.1280 H   0  0  0  0  0  0  0  0  0  0  0  0
  1  2  2  0  0  0  0
  1  6  1  0  0  0  0
  2  3  1  0  0  0  0
  3  8  1  0  0  0  0
  3  4  2  0  0  0  0
  4 15  1  0  0  0  0
  5  4  1  0  0  0  0
  5 10  1  0  0  0  0
  6  5  2  0  0  0  0
  7  2  1  0  0  0  0
  9  6  1  0  0  0  0
 10 12  2  0  0  0  0
 11 10  1  0  0  0  0
 11 13  1  0  0  0  0
 14 11  1  0  0  0  0
 15 17  1  0  0  0  0
 16 15  1  0  0  0  0
 18 15  1  0  0  0  0
 18 19  1  0  0  0  0
 18 22  1  0  0  0  0
 19 20  2  0  0  0  0
 19 21  1  0  0  0  0
 23 21  1  0  0  0  0
 24 21  1  0  0  0  0
 24 33  1  1  0  0  0
 25 34  1  0  0  0  0
 25 24  1  0  0  0  0
 26 27  1  0  0  0  0
 26 25  1  0  0  0  0
 26 37  1  0  0  0  0
 27 32  1  0  0  0  0
 28 29  1  0  0  0  0
 28 27  2  0  0  0  0
 29 30  2  0  0  0  0
 30 40  1  0  0  0  0
 30 31  1  0  0  0  0
 31 41  1  0  0  0  0
 32 31  2  0  0  0  0
 32 24  1  0  0  0  0
 35 25  1  0  0  0  0
 36 26  1  0  0  0  0
 38 28  1  0  0  0  0
 39 29  1  0  0  0  0
 42  1  1  0  0  0  0
 43 45  1  0  0  0  0
 43 42  1  0  0  0  0
 43 44  1  1  0  0  0
 45 48  1  0  0  0  0
 45 46  1  0  0  0  0
 47 45  1  0  0  0  0
 49 43  1  0  0  0  0
 50 49  1  0  0  0  0
 51 49  1  0  0  0  0
 52 49  1  0  0  0  0
 53 58  1  0  0  0  0
 53 52  2  0  0  0  0
 54 53  1  0  0  0  0
 55 54  2  0  0  0  0
 55 56  1  0  0  0  0
 56 57  2  0  0  0  0
 57 52  1  0  0  0  0
 57 62  1  0  0  0  0
 59 54  1  0  0  0  0
 60 55  1  0  0  0  0
 61 56  1  0  0  0  0
M  END
>  <MODEL>
18

>  <REMARK>
 VINA RESULT:    -7.543      2.737      5.410
 INTER + INTRA:         -11.986
 INTER:                 -11.705
 INTRA:                  -0.282
 UNBOUND:                -0.695
  Name = 
  9 active torsions:
  status: ('A' for Active; 'I' for Inactive)
    1  A    between atoms: C_1  and  C_2
    2  A    between atoms: C_2  and  C_3
    3  A    between atoms: C_2  and  O_10
    4  A    between atoms: C_3  and  C_4
    5  A    between atoms: O_10  and  C_11
    6  A    between atoms: C_14  and  C_15
    7  A    between atoms: C_15  and  N_16
    8  A    between atoms: N_19  and  C_20
    9  A    between atoms: C_29  and  C_30
                            x       y       z     vdW  Elec       q    Type
                         _______ _______ _______ _____ _____    ______ ____

>  <TORSDO>
F 9

$$$$
=
 OpenBabel07192307433D

 62 65  0  0  1  0  0  0  0  0999 V2000
   -0.2470   10.8630   21.6170 C   0  0  0  0  0  0  0  0  0  0  0  0
   -0.1190    9.8160   22.5430 C   0  0  0  0  0  0  0  0  0  0  0  0
    0.3640    8.5660   22.1460 C   0  0  0  0  0  0  0  0  0  0  0  0
    0.7540    8.3500   20.8090 C   0  0  0  0  0  0  0  0  0  0  0  0
    0.6820    9.4300   19.9020 C   0  0  0  0  0  0  0  0  0  0  0  0
    0.1650   10.6730   20.2990 C   0  0  0  0  0  0  0  0  0  0  0  0
   -0.3830    9.9810   23.5890 H   0  0  0  0  0  0  0  0  0  0  0  0
    0.4640    7.7660   22.8900 H   0  0  0  0  0  0  0  0  0  0  0  0
    0.1640   11.4910   19.5830 H   0  0  0  0  0  0  0  0  0  0  0  0
    1.2600    9.3200   18.5440 C   0  0  0  0  0  0  0  0  0  0  0  0
    0.3650    9.2450   17.5160 N   0  0  0  0  0  0  0  0  0  0  0  0
    2.4710    9.3030   18.3790 O   0  0  0  0  0  0  0  0  0  0  0  0
    0.7570    9.0350   16.6080 H   0  0  0  0  0  0  0  0  0  0  0  0
   -0.5960    8.9970   17.6810 H   0  0  0  0  0  0  0  0  0  0  0  0
    1.2740    6.9980   20.3980 C   0  0  0  0  0  0  0  0  0  0  0  0
    1.1470    6.2830   21.2220 H   0  0  0  0  0  0  0  0  0  0  0  0
    0.7090    6.5910   19.5520 H   0  0  0  0  0  0  0  0  0  0  0  0
    2.6680    7.0680   20.0420 N   0  0  0  0  0  0  0  0  0  0  0  0
    3.3020    5.9370   19.6050 C   0  0  0  0  0  0  0  0  0  0  0  0
    2.7920    4.8240   19.5790 O   0  0  0  0  0  0  0  0  0  0  0  0
    4.5920    6.2080   19.2410 N   0  0  0  0  0  0  0  0  0  0  0  0
    2.9490    7.9190   19.5530 H   0  0  0  0  0  0  0  0  0  0  0  0
    5.0150    6.9940   19.7250 H   0  0  0  0  0  0  0  0  0  0  0  0
    5.4870    5.1250   18.9010 C   0  0  2  0  0  0  0  0  0  0  0  0
    6.9650    5.4450   19.2280 C   0  0  0  0  0  0  0  0  0  0  0  0
    7.8160    4.6890   18.2010 C   0  0  0  0  0  0  0  0  0  0  0  0
    6.8940    4.6540   17.0220 C   0  0  0  0  0  0  0  0  0  0  0  0
    7.2120    4.3810   15.7000 C   0  0  0  0  0  0  0  0  0  0  0  0
    6.1810    4.3570   14.7560 C   0  0  0  0  0  0  0  0  0  0  0  0
    4.8510    4.5890   15.1470 C   0  0  0  0  0  0  0  0  0  0  0  0
    4.5380    4.8480   16.4860 C   0  0  0  0  0  0  0  0  0  0  0  0
    5.5710    4.8910   17.4160 C   0  0  0  0  0  0  0  0  0  0  0  0
    5.1710    4.2080   19.4110 H   0  0  0  0  0  0  0  0  0  0  0  0
    7.2310    5.1800   20.2580 H   0  0  0  0  0  0  0  0  0  0  0  0
    7.1550    6.5240   19.1260 H   0  0  0  0  0  0  0  0  0  0  0  0
    8.7500    5.2210   17.9930 H   0  0  0  0  0  0  0  0  0  0  0  0
    8.0340    3.6710   18.5410 H   0  0  0  0  0  0  0  0  0  0  0  0
    8.2370    4.1910   15.4010 H   0  0  0  0  0  0  0  0  0  0  0  0
    6.4100    4.1540   13.7100 H   0  0  0  0  0  0  0  0  0  0  0  0
    4.0580    4.5580   14.4010 H   0  0  0  0  0  0  0  0  0  0  0  0
    3.5060    5.0060   16.7920 H   0  0  0  0  0  0  0  0  0  0  0  0
   -0.6880   12.0480   22.1340 O   0  0  0  0  0  0  0  0  0  0  0  0
   -2.0900   12.3320   22.0680 C   0  0  1  0  0  0  0  0  0  0  0  0
   -2.6710   11.4010   22.0190 H   0  0  0  0  0  0  0  0  0  0  0  0
   -2.4670   13.0130   23.3820 C   0  0  0  0  0  0  0  0  0  0  0  0
   -1.6510   13.6610   23.7100 H   0  0  0  0  0  0  0  0  0  0  0  0
   -2.6670   12.2840   24.1690 H   0  0  0  0  0  0  0  0  0  0  0  0
   -3.3410   13.6650   23.2680 H   0  0  0  0  0  0  0  0  0  0  0  0
   -2.4370   13.2020   20.8470 C   0  0  0  0  0  0  0  0  0  0  0  0
   -1.5130   13.6780   20.4960 H   0  0  0  0  0  0  0  0  0  0  0  0
   -3.0940   14.0190   21.1490 H   0  0  0  0  0  0  0  0  0  0  0  0
   -3.1120   12.5000   19.6900 C   0  0  0  0  0  0  0  0  0  0  0  0
   -4.5160   12.3830   19.6440 C   0  0  0  0  0  0  0  0  0  0  0  0
   -5.1360   11.7250   18.5800 C   0  0  0  0  0  0  0  0  0  0  0  0
   -4.3620   11.1780   17.5480 C   0  0  0  0  0  0  0  0  0  0  0  0
   -2.9650   11.2870   17.5830 C   0  0  0  0  0  0  0  0  0  0  0  0
   -2.3450   11.9390   18.6500 C   0  0  0  0  0  0  0  0  0  0  0  0
   -5.1450   12.8000   20.4370 H   0  0  0  0  0  0  0  0  0  0  0  0
   -6.2270   11.6440   18.5640 H   0  0  0  0  0  0  0  0  0  0  0  0
   -4.8450   10.6730   16.7170 H   0  0  0  0  0  0  0  0  0  0  0  0
   -2.3520   10.8650   16.7800 H   0  0  0  0  0  0  0  0  0  0  0  0
   -1.2550   12.0070   18.6610 H   0  0  0  0  0  0  0  0  0  0  0  0
  1 42  1  0  0  0  0
  1  2  1  0  0  0  0
  2  7  1  0  0  0  0
  3  2  2  0  0  0  0
  3  8  1  0  0  0  0
  4  3  1  0  0  0  0
  5  6  1  0  0  0  0
  5  4  2  0  0  0  0
  6  1  2  0  0  0  0
  9  6  1  0  0  0  0
 10  5  1  0  0  0  0
 11 14  1  0  0  0  0
 11 10  1  0  0  0  0
 12 10  2  0  0  0  0
 13 11  1  0  0  0  0
 15  4  1  0  0  0  0
 15 16  1  0  0  0  0
 17 15  1  0  0  0  0
 18 15  1  0  0  0  0
 19 18  1  0  0  0  0
 20 19  2  0  0  0  0
 21 19  1  0  0  0  0
 21 23  1  0  0  0  0
 22 18  1  0  0  0  0
 24 25  1  0  0  0  0
 24 21  1  0  0  0  0
 24 33  1  1  0  0  0
 25 34  1  0  0  0  0
 26 37  1  0  0  0  0
 26 25  1  0  0  0  0
 27 32  1  0  0  0  0
 27 26  1  0  0  0  0
 28 27  2  0  0  0  0
 29 30  2  0  0  0  0
 29 28  1  0  0  0  0
 30 31  1  0  0  0  0
 31 41  1  0  0  0  0
 31 32  2  0  0  0  0
 32 24  1  0  0  0  0
 35 25  1  0  0  0  0
 36 26  1  0  0  0  0
 38 28  1  0  0  0  0
 39 29  1  0  0  0  0
 40 30  1  0  0  0  0
 43 44  1  6  0  0  0
 43 42  1  0  0  0  0
 43 45  1  0  0  0  0
 45 46  1  0  0  0  0
 45 47  1  0  0  0  0
 48 45  1  0  0  0  0
 49 51  1  0  0  0  0
 49 43  1  0  0  0  0
 50 49  1  0  0  0  0
 52 49  1  0  0  0  0
 53 52  1  0  0  0  0
 53 58  1  0  0  0  0
 54 53  2  0  0  0  0
 55 56  2  0  0  0  0
 55 54  1  0  0  0  0
 56 57  1  0  0  0  0
 57 62  1  0  0  0  0
 57 52  2  0  0  0  0
 59 54  1  0  0  0  0
 60 55  1  0  0  0  0
 61 56  1  0  0  0  0
M  END
>  <MODEL>
19

>  <REMARK>
 VINA RESULT:    -7.500      2.552     10.154
 INTER + INTRA:         -11.922
 INTER:                 -10.742
 INTRA:                  -1.180
 UNBOUND:                -0.695
  Name = 
  9 active torsions:
  status: ('A' for Active; 'I' for Inactive)
    1  A    between atoms: C_1  and  C_2
    2  A    between atoms: C_2  and  C_3
    3  A    between atoms: C_2  and  O_10
    4  A    between atoms: C_3  and  C_4
    5  A    between atoms: O_10  and  C_11
    6  A    between atoms: C_14  and  C_15
    7  A    between atoms: C_15  and  N_16
    8  A    between atoms: N_19  and  C_20
    9  A    between atoms: C_29  and  C_30
                            x       y       z     vdW  Elec       q    Type
                         _______ _______ _______ _____ _____    ______ ____

>  <TORSDO>
F 9

$$$$
=
 OpenBabel07192307433D

 62 65  0  0  1  0  0  0  0  0999 V2000
    4.7640    5.6970   18.7080 C   0  0  0  0  0  0  0  0  0  0  0  0
    4.7230    6.5730   17.6130 C   0  0  0  0  0  0  0  0  0  0  0  0
    3.6150    7.3970   17.3970 C   0  0  0  0  0  0  0  0  0  0  0  0
    2.5320    7.3750   18.2970 C   0  0  0  0  0  0  0  0  0  0  0  0
    2.6130    6.5370   19.4310 C   0  0  0  0  0  0  0  0  0  0  0  0
    3.7130    5.6880   19.6250 C   0  0  0  0  0  0  0  0  0  0  0  0
    5.5720    6.6260   16.9280 H   0  0  0  0  0  0  0  0  0  0  0  0
    3.6110    8.0800   16.5380 H   0  0  0  0  0  0  0  0  0  0  0  0
    3.7580    5.0890   20.5310 H   0  0  0  0  0  0  0  0  0  0  0  0
    1.6020    6.6180   20.5090 C   0  0  0  0  0  0  0  0  0  0  0  0
    1.6260    7.7510   21.2700 N   0  0  0  0  0  0  0  0  0  0  0  0
    0.8020    5.7110   20.6860 O   0  0  0  0  0  0  0  0  0  0  0  0
    1.0280    7.7450   22.0850 H   0  0  0  0  0  0  0  0  0  0  0  0
    2.4350    8.3490   21.2860 H   0  0  0  0  0  0  0  0  0  0  0  0
    1.3460    8.2700   18.0520 C   0  0  0  0  0  0  0  0  0  0  0  0
    1.1160    8.2990   16.9790 H   0  0  0  0  0  0  0  0  0  0  0  0
    0.4460    7.8880   18.5460 H   0  0  0  0  0  0  0  0  0  0  0  0
    1.6050    9.6090   18.5170 N   0  0  0  0  0  0  0  0  0  0  0  0
    0.5510   10.4460   18.7600 C   0  0  0  0  0  0  0  0  0  0  0  0
   -0.6190   10.1740   18.5200 O   0  0  0  0  0  0  0  0  0  0  0  0
    0.9800   11.6420   19.2650 N   0  0  0  0  0  0  0  0  0  0  0  0
    2.3690    9.6950   19.1890 H   0  0  0  0  0  0  0  0  0  0  0  0
    1.9190   11.9100   18.9850 H   0  0  0  0  0  0  0  0  0  0  0  0
    0.0430   12.7280   19.4430 C   0  0  2  0  0  0  0  0  0  0  0  0
    0.6950   14.1180   19.2500 C   0  0  0  0  0  0  0  0  0  0  0  0
   -0.0660   15.0900   20.1600 C   0  0  0  0  0  0  0  0  0  0  0  0
   -0.4990   14.1800   21.2670 C   0  0  0  0  0  0  0  0  0  0  0  0
   -0.9520   14.5320   22.5300 C   0  0  0  0  0  0  0  0  0  0  0  0
   -1.3500   13.5150   23.4040 C   0  0  0  0  0  0  0  0  0  0  0  0
   -1.3060   12.1700   23.0000 C   0  0  0  0  0  0  0  0  0  0  0  0
   -0.8620   11.8260   21.7180 C   0  0  0  0  0  0  0  0  0  0  0  0
   -0.4480   12.8400   20.8620 C   0  0  0  0  0  0  0  0  0  0  0  0
   -0.8040   12.6030   18.7580 H   0  0  0  0  0  0  0  0  0  0  0  0
    0.6850   14.4410   18.2020 H   0  0  0  0  0  0  0  0  0  0  0  0
    1.7510   14.0920   19.5580 H   0  0  0  0  0  0  0  0  0  0  0  0
    0.5840   15.8990   20.5060 H   0  0  0  0  0  0  0  0  0  0  0  0
   -0.9410   15.5060   19.6500 H   0  0  0  0  0  0  0  0  0  0  0  0
   -0.9970   15.5710   22.8370 H   0  0  0  0  0  0  0  0  0  0  0  0
   -1.7010   13.7680   24.4040 H   0  0  0  0  0  0  0  0  0  0  0  0
   -1.6280   11.3910   23.6890 H   0  0  0  0  0  0  0  0  0  0  0  0
   -0.8470   10.7860   21.3980 H   0  0  0  0  0  0  0  0  0  0  0  0
    5.9180    4.9770   18.8360 O   0  0  0  0  0  0  0  0  0  0  0  0
    7.0990    5.4780   18.2000 C   0  0  1  0  0  0  0  0  0  0  0  0
    6.8810    6.4090   17.6600 H   0  0  0  0  0  0  0  0  0  0  0  0
    8.0810    5.8400   19.3120 C   0  0  0  0  0  0  0  0  0  0  0  0
    7.6420    6.6030   19.9600 H   0  0  0  0  0  0  0  0  0  0  0  0
    9.0180    6.2260   18.9110 H   0  0  0  0  0  0  0  0  0  0  0  0
    8.2970    4.9830   19.9620 H   0  0  0  0  0  0  0  0  0  0  0  0
    7.6930    4.4560   17.2150 C   0  0  0  0  0  0  0  0  0  0  0  0
    7.6800    3.4710   17.6990 H   0  0  0  0  0  0  0  0  0  0  0  0
    8.7460    4.6830   17.0350 H   0  0  0  0  0  0  0  0  0  0  0  0
    7.0270    4.3600   15.8610 C   0  0  0  0  0  0  0  0  0  0  0  0
    5.8100    3.6640   15.7090 C   0  0  0  0  0  0  0  0  0  0  0  0
    5.2030    3.5690   14.4550 C   0  0  0  0  0  0  0  0  0  0  0  0
    5.8000    4.1700   13.3400 C   0  0  0  0  0  0  0  0  0  0  0  0
    7.0110    4.8630   13.4780 C   0  0  0  0  0  0  0  0  0  0  0  0
    7.6210    4.9530   14.7290 C   0  0  0  0  0  0  0  0  0  0  0  0
    5.3220    3.1840   16.5630 H   0  0  0  0  0  0  0  0  0  0  0  0
    4.2600    3.0220   14.3580 H   0  0  0  0  0  0  0  0  0  0  0  0
    5.3240    4.1020   12.3660 H   0  0  0  0  0  0  0  0  0  0  0  0
    7.4830    5.3380   12.6120 H   0  0  0  0  0  0  0  0  0  0  0  0
    8.5660    5.4930   14.8140 H   0  0  0  0  0  0  0  0  0  0  0  0
  1 42  1  0  0  0  0
  1  6  1  0  0  0  0
  2  1  2  0  0  0  0
  3  2  1  0  0  0  0
  3  4  2  0  0  0  0
  4  5  1  0  0  0  0
  5  6  2  0  0  0  0
  5 10  1  0  0  0  0
  6  9  1  0  0  0  0
  7  2  1  0  0  0  0
  8  3  1  0  0  0  0
 10 12  2  0  0  0  0
 10 11  1  0  0  0  0
 11 14  1  0  0  0  0
 11 13  1  0  0  0  0
 15  4  1  0  0  0  0
 15 18  1  0  0  0  0
 15 17  1  0  0  0  0
 16 15  1  0  0  0  0
 18 19  1  0  0  0  0
 18 22  1  0  0  0  0
 19 21  1  0  0  0  0
 20 19  2  0  0  0  0
 21 24  1  0  0  0  0
 23 21  1  0  0  0  0
 24 33  1  6  0  0  0
 24 32  1  0  0  0  0
 25 24  1  0  0  0  0
 25 35  1  0  0  0  0
 25 26  1  0  0  0  0
 26 36  1  0  0  0  0
 26 27  1  0  0  0  0
 27 28  1  0  0  0  0
 28 38  1  0  0  0  0
 28 29  2  0  0  0  0
 29 39  1  0  0  0  0
 30 29  1  0  0  0  0
 30 40  1  0  0  0  0
 31 30  2  0  0  0  0
 32 27  2  0  0  0  0
 32 31  1  0  0  0  0
 34 25  1  0  0  0  0
 37 26  1  0  0  0  0
 41 31  1  0  0  0  0
 43 44  1  6  0  0  0
 43 42  1  0  0  0  0
 43 45  1  0  0  0  0
 45 46  1  0  0  0  0
 45 48  1  0  0  0  0
 47 45  1  0  0  0  0
 49 50  1  0  0  0  0
 49 43  1  0  0  0  0
 51 49  1  0  0  0  0
 52 49  1  0  0  0  0
 53 52  1  0  0  0  0
 53 58  1  0  0  0  0
 54 53  2  0  0  0  0
 55 56  2  0  0  0  0
 55 54  1  0  0  0  0
 56 57  1  0  0  0  0
 57 62  1  0  0  0  0
 57 52  2  0  0  0  0
 59 54  1  0  0  0  0
 60 55  1  0  0  0  0
 61 56  1  0  0  0  0
M  END
>  <MODEL>
20

>  <REMARK>
 VINA RESULT:    -7.424      2.148      4.009
 INTER + INTRA:         -11.807
 INTER:                 -10.503
 INTRA:                  -1.304
 UNBOUND:                -0.695
  Name = 
  9 active torsions:
  status: ('A' for Active; 'I' for Inactive)
    1  A    between atoms: C_1  and  C_2
    2  A    between atoms: C_2  and  C_3
    3  A    between atoms: C_2  and  O_10
    4  A    between atoms: C_3  and  C_4
    5  A    between atoms: O_10  and  C_11
    6  A    between atoms: C_14  and  C_15
    7  A    between atoms: C_15  and  N_16
    8  A    between atoms: N_19  and  C_20
    9  A    between atoms: C_29  and  C_30
                            x       y       z     vdW  Elec       q    Type
                         _______ _______ _______ _____ _____    ______ ____

>  <TORSDO>
F 9

$$$$
=
 OpenBabel07192307433D

 62 65  0  0  1  0  0  0  0  0999 V2000
    4.4840    5.5610   17.1630 C   0  0  0  0  0  0  0  0  0  0  0  0
    4.4360    6.9540   17.0060 C   0  0  0  0  0  0  0  0  0  0  0  0
    3.5030    7.7220   17.7100 C   0  0  0  0  0  0  0  0  0  0  0  0
    2.6140    7.1030   18.6100 C   0  0  0  0  0  0  0  0  0  0  0  0
    2.7160    5.7080   18.8090 C   0  0  0  0  0  0  0  0  0  0  0  0
    3.6310    4.9390   18.0750 C   0  0  0  0  0  0  0  0  0  0  0  0
    5.1430    7.4500   16.3390 H   0  0  0  0  0  0  0  0  0  0  0  0
    3.4910    8.8110   17.5760 H   0  0  0  0  0  0  0  0  0  0  0  0
    3.7090    3.8750   18.2860 H   0  0  0  0  0  0  0  0  0  0  0  0
    1.9490    5.0360   19.8820 C   0  0  0  0  0  0  0  0  0  0  0  0
    2.3820    5.2580   21.1570 N   0  0  0  0  0  0  0  0  0  0  0  0
    0.9860    4.3310   19.6150 O   0  0  0  0  0  0  0  0  0  0  0  0
    1.9440    4.6940   21.8730 H   0  0  0  0  0  0  0  0  0  0  0  0
    3.3060    5.6100   21.3380 H   0  0  0  0  0  0  0  0  0  0  0  0
    1.6170    7.9430   19.3630 C   0  0  0  0  0  0  0  0  0  0  0  0
    0.6700    7.3970   19.4640 H   0  0  0  0  0  0  0  0  0  0  0  0
    1.9570    8.1530   20.3830 H   0  0  0  0  0  0  0  0  0  0  0  0
    1.3740    9.1900   18.6820 N   0  0  0  0  0  0  0  0  0  0  0  0
    0.3790   10.0130   19.1330 C   0  0  0  0  0  0  0  0  0  0  0  0
   -0.4010    9.7270   20.0330 O   0  0  0  0  0  0  0  0  0  0  0  0
    0.3440   11.1780   18.4180 N   0  0  0  0  0  0  0  0  0  0  0  0
    2.2100    9.6820   18.3650 H   0  0  0  0  0  0  0  0  0  0  0  0
    0.6870   11.1030   17.4650 H   0  0  0  0  0  0  0  0  0  0  0  0
   -0.7320   12.1200   18.6260 C   0  0  2  0  0  0  0  0  0  0  0  0
   -1.1400   12.2430   20.1130 C   0  0  0  0  0  0  0  0  0  0  0  0
   -2.6370   12.5780   20.1320 C   0  0  0  0  0  0  0  0  0  0  0  0
   -3.1040   11.9110   18.8750 C   0  0  0  0  0  0  0  0  0  0  0  0
   -4.4050   11.5980   18.5110 C   0  0  0  0  0  0  0  0  0  0  0  0
   -4.6260   11.0090   17.2620 C   0  0  0  0  0  0  0  0  0  0  0  0
   -3.5510   10.7590   16.3920 C   0  0  0  0  0  0  0  0  0  0  0  0
   -2.2430   11.0920   16.7630 C   0  0  0  0  0  0  0  0  0  0  0  0
   -2.0290   11.6580   18.0150 C   0  0  0  0  0  0  0  0  0  0  0  0
   -0.4520   13.0990   18.2220 H   0  0  0  0  0  0  0  0  0  0  0  0
   -0.5440   12.9920   20.6480 H   0  0  0  0  0  0  0  0  0  0  0  0
   -0.9810   11.2870   20.6350 H   0  0  0  0  0  0  0  0  0  0  0  0
   -3.1200   12.1790   21.0290 H   0  0  0  0  0  0  0  0  0  0  0  0
   -2.8010   13.6590   20.0690 H   0  0  0  0  0  0  0  0  0  0  0  0
   -5.2360   11.8020   19.1780 H   0  0  0  0  0  0  0  0  0  0  0  0
   -5.6390   10.7470   16.9590 H   0  0  0  0  0  0  0  0  0  0  0  0
   -3.7400   10.3080   15.4190 H   0  0  0  0  0  0  0  0  0  0  0  0
   -1.4130   10.9180   16.0810 H   0  0  0  0  0  0  0  0  0  0  0  0
    5.4660    4.9280   16.4550 O   0  0  0  0  0  0  0  0  0  0  0  0
    6.8080    5.4110   16.5860 C   0  0  1  0  0  0  0  0  0  0  0  0
    6.8250    6.3630   17.1330 H   0  0  0  0  0  0  0  0  0  0  0  0
    7.5610    4.4000   17.4480 C   0  0  0  0  0  0  0  0  0  0  0  0
    8.6120    4.3690   17.1490 H   0  0  0  0  0  0  0  0  0  0  0  0
    7.1440    3.3970   17.3470 H   0  0  0  0  0  0  0  0  0  0  0  0
    7.5580    4.6840   18.5070 H   0  0  0  0  0  0  0  0  0  0  0  0
    7.4770    5.6110   15.2140 C   0  0  0  0  0  0  0  0  0  0  0  0
    8.5480    5.4030   15.3250 H   0  0  0  0  0  0  0  0  0  0  0  0
    7.4080    6.6590   14.9180 H   0  0  0  0  0  0  0  0  0  0  0  0
    6.9210    4.7940   14.0690 C   0  0  0  0  0  0  0  0  0  0  0  0
    5.7390    4.0440   14.2320 C   0  0  0  0  0  0  0  0  0  0  0  0
    5.2340    3.2820   13.1760 C   0  0  0  0  0  0  0  0  0  0  0  0
    5.9020    3.2630   11.9440 C   0  0  0  0  0  0  0  0  0  0  0  0
    7.0800    4.0030   11.7710 C   0  0  0  0  0  0  0  0  0  0  0  0
    7.5880    4.7590   12.8280 C   0  0  0  0  0  0  0  0  0  0  0  0
    5.1970    4.0390   15.1830 H   0  0  0  0  0  0  0  0  0  0  0  0
    4.3170    2.7050   13.3230 H   0  0  0  0  0  0  0  0  0  0  0  0
    5.5060    2.6760   11.1210 H   0  0  0  0  0  0  0  0  0  0  0  0
    7.6070    3.9960   10.8110 H   0  0  0  0  0  0  0  0  0  0  0  0
    8.5090    5.3240   12.6730 H   0  0  0  0  0  0  0  0  0  0  0  0
  1  6  1  0  0  0  0
  2  1  2  0  0  0  0
  2  3  1  0  0  0  0
  3  4  2  0  0  0  0
  4  5  1  0  0  0  0
  4 15  1  0  0  0  0
  5 10  1  0  0  0  0
  6  9  1  0  0  0  0
  6  5  2  0  0  0  0
  7  2  1  0  0  0  0
  8  3  1  0  0  0  0
 10 11  1  0  0  0  0
 11 14  1  0  0  0  0
 11 13  1  0  0  0  0
 12 10  2  0  0  0  0
 15 16  1  0  0  0  0
 15 17  1  0  0  0  0
 18 19  1  0  0  0  0
 18 15  1  0  0  0  0
 19 20  2  0  0  0  0
 21 24  1  0  0  0  0
 21 19  1  0  0  0  0
 22 18  1  0  0  0  0
 23 21  1  0  0  0  0
 24 33  1  6  0  0  0
 24 25  1  0  0  0  0
 25 26  1  0  0  0  0
 25 35  1  0  0  0  0
 25 34  1  0  0  0  0
 26 36  1  0  0  0  0
 27 26  1  0  0  0  0
 28 27  1  0  0  0  0
 28 38  1  0  0  0  0
 29 28  2  0  0  0  0
 30 31  2  0  0  0  0
 30 29  1  0  0  0  0
 31 32  1  0  0  0  0
 32 24  1  0  0  0  0
 32 27  2  0  0  0  0
 37 26  1  0  0  0  0
 39 29  1  0  0  0  0
 40 30  1  0  0  0  0
 41 31  1  0  0  0  0
 42 43  1  0  0  0  0
 42  1  1  0  0  0  0
 43 44  1  1  0  0  0
 43 45  1  0  0  0  0
 45 48  1  0  0  0  0
 46 45  1  0  0  0  0
 47 45  1  0  0  0  0
 49 50  1  0  0  0  0
 49 43  1  0  0  0  0
 51 49  1  0  0  0  0
 52 53  1  0  0  0  0
 52 49  1  0  0  0  0
 53 58  1  0  0  0  0
 54 59  1  0  0  0  0
 54 53  2  0  0  0  0
 55 54  1  0  0  0  0
 56 55  2  0  0  0  0
 56 57  1  0  0  0  0
 57 52  2  0  0  0  0
 60 55  1  0  0  0  0
 61 56  1  0  0  0  0
 62 57  1  0  0  0  0
M  END
>  <MODEL>
21

>  <REMARK>
 VINA RESULT:    -7.412      2.969      5.309
 INTER + INTRA:         -11.790
 INTER:                 -12.547
 INTRA:                   0.757
 UNBOUND:                -0.695
  Name = 
  9 active torsions:
  status: ('A' for Active; 'I' for Inactive)
    1  A    between atoms: C_1  and  C_2
    2  A    between atoms: C_2  and  C_3
    3  A    between atoms: C_2  and  O_10
    4  A    between atoms: C_3  and  C_4
    5  A    between atoms: O_10  and  C_11
    6  A    between atoms: C_14  and  C_15
    7  A    between atoms: C_15  and  N_16
    8  A    between atoms: N_19  and  C_20
    9  A    between atoms: C_29  and  C_30
                            x       y       z     vdW  Elec       q    Type
                         _______ _______ _______ _____ _____    ______ ____

>  <TORSDO>
F 9

$$$$
=
 OpenBabel07192307433D

 62 65  0  0  1  0  0  0  0  0999 V2000
   -0.3740   11.6860   19.6230 C   0  0  0  0  0  0  0  0  0  0  0  0
   -0.0550   10.8610   18.5340 C   0  0  0  0  0  0  0  0  0  0  0  0
    0.5420    9.6130   18.7330 C   0  0  0  0  0  0  0  0  0  0  0  0
    0.8070    9.1560   20.0390 C   0  0  0  0  0  0  0  0  0  0  0  0
    0.4210    9.9670   21.1290 C   0  0  0  0  0  0  0  0  0  0  0  0
   -0.1470   11.2330   20.9220 C   0  0  0  0  0  0  0  0  0  0  0  0
   -0.2880   11.1880   17.5190 H   0  0  0  0  0  0  0  0  0  0  0  0
    0.7740    8.9820   17.8660 H   0  0  0  0  0  0  0  0  0  0  0  0
   -0.4680   11.8100   21.7860 H   0  0  0  0  0  0  0  0  0  0  0  0
    0.4910    9.4570   22.5170 C   0  0  0  0  0  0  0  0  0  0  0  0
   -0.7050    9.2210   23.1300 N   0  0  0  0  0  0  0  0  0  0  0  0
    1.5700    9.2650   23.0590 O   0  0  0  0  0  0  0  0  0  0  0  0
   -0.6570    9.0040   24.1170 H   0  0  0  0  0  0  0  0  0  0  0  0
   -1.5570    9.6250   22.7790 H   0  0  0  0  0  0  0  0  0  0  0  0
    1.4480    7.8080   20.2380 C   0  0  0  0  0  0  0  0  0  0  0  0
    1.9250    7.7640   21.2250 H   0  0  0  0  0  0  0  0  0  0  0  0
    0.7040    7.0040   20.2230 H   0  0  0  0  0  0  0  0  0  0  0  0
    2.4370    7.5530   19.2210 N   0  0  0  0  0  0  0  0  0  0  0  0
    3.1850    6.4100   19.2920 C   0  0  0  0  0  0  0  0  0  0  0  0
    3.1450    5.6120   20.2200 O   0  0  0  0  0  0  0  0  0  0  0  0
    4.0120    6.2970   18.2090 N   0  0  0  0  0  0  0  0  0  0  0  0
    2.1630    7.8140   18.2740 H   0  0  0  0  0  0  0  0  0  0  0  0
    4.2880    7.1800   17.7910 H   0  0  0  0  0  0  0  0  0  0  0  0
    5.0020    5.2440   18.1640 C   0  0  2  0  0  0  0  0  0  0  0  0
    6.3380    5.6500   18.8290 C   0  0  0  0  0  0  0  0  0  0  0  0
    7.4460    4.8890   18.0910 C   0  0  0  0  0  0  0  0  0  0  0  0
    6.8500    4.7550   16.7240 C   0  0  0  0  0  0  0  0  0  0  0  0
    7.4990    4.4370   15.5400 C   0  0  0  0  0  0  0  0  0  0  0  0
    6.7390    4.3210   14.3720 C   0  0  0  0  0  0  0  0  0  0  0  0
    5.3460    4.5050   14.4060 C   0  0  0  0  0  0  0  0  0  0  0  0
    4.6990    4.8110   15.6090 C   0  0  0  0  0  0  0  0  0  0  0  0
    5.4630    4.9470   16.7620 C   0  0  0  0  0  0  0  0  0  0  0  0
    4.6000    4.3370   18.6310 H   0  0  0  0  0  0  0  0  0  0  0  0
    6.3460    5.4460   19.9070 H   0  0  0  0  0  0  0  0  0  0  0  0
    6.5100    6.7310   18.7160 H   0  0  0  0  0  0  0  0  0  0  0  0
    8.3830    5.4560   18.0910 H   0  0  0  0  0  0  0  0  0  0  0  0
    7.6070    3.9000   18.5310 H   0  0  0  0  0  0  0  0  0  0  0  0
    8.5720    4.2830   15.5160 H   0  0  0  0  0  0  0  0  0  0  0  0
    7.2290    4.0800   13.4290 H   0  0  0  0  0  0  0  0  0  0  0  0
    4.7670    4.4020   13.4900 H   0  0  0  0  0  0  0  0  0  0  0  0
    3.6180    4.9330   15.6400 H   0  0  0  0  0  0  0  0  0  0  0  0
   -0.9930   12.8610   19.3030 O   0  0  0  0  0  0  0  0  0  0  0  0
   -0.5370   14.0590   19.9420 C   0  0  1  0  0  0  0  0  0  0  0  0
    0.2170   13.8260   20.7060 H   0  0  0  0  0  0  0  0  0  0  0  0
    0.1670   14.8910   18.8740 C   0  0  0  0  0  0  0  0  0  0  0  0
    1.2490   14.7670   18.9610 H   0  0  0  0  0  0  0  0  0  0  0  0
   -0.0670   15.9520   18.9720 H   0  0  0  0  0  0  0  0  0  0  0  0
   -0.0920   14.5600   17.8610 H   0  0  0  0  0  0  0  0  0  0  0  0
   -1.6960   14.8270   20.6020 C   0  0  0  0  0  0  0  0  0  0  0  0
   -2.3370   15.2260   19.8060 H   0  0  0  0  0  0  0  0  0  0  0  0
   -1.3070   15.6990   21.1330 H   0  0  0  0  0  0  0  0  0  0  0  0
   -2.5410   14.0540   21.5890 C   0  0  0  0  0  0  0  0  0  0  0  0
   -2.0440   13.7460   22.8720 C   0  0  0  0  0  0  0  0  0  0  0  0
   -2.8230   13.0220   23.7770 C   0  0  0  0  0  0  0  0  0  0  0  0
   -4.1080   12.5990   23.4130 C   0  0  0  0  0  0  0  0  0  0  0  0
   -4.6130   12.8970   22.1390 C   0  0  0  0  0  0  0  0  0  0  0  0
   -3.8320   13.6150   21.2330 C   0  0  0  0  0  0  0  0  0  0  0  0
   -1.0430   14.0630   23.1820 H   0  0  0  0  0  0  0  0  0  0  0  0
   -2.4180   12.7920   24.7670 H   0  0  0  0  0  0  0  0  0  0  0  0
   -4.7170   12.0430   24.1200 H   0  0  0  0  0  0  0  0  0  0  0  0
   -5.6170   12.5730   21.8480 H   0  0  0  0  0  0  0  0  0  0  0  0
   -4.2420   13.8310   20.2450 H   0  0  0  0  0  0  0  0  0  0  0  0
  1  6  1  0  0  0  0
  2  3  1  0  0  0  0
  2  1  2  0  0  0  0
  3  4  2  0  0  0  0
  4 15  1  0  0  0  0
  4  5  1  0  0  0  0
  5 10  1  0  0  0  0
  6  5  2  0  0  0  0
  6  9  1  0  0  0  0
  7  2  1  0  0  0  0
  8  3  1  0  0  0  0
 10 12  2  0  0  0  0
 10 11  1  0  0  0  0
 11 13  1  0  0  0  0
 14 11  1  0  0  0  0
 15 16  1  0  0  0  0
 17 15  1  0  0  0  0
 18 19  1  0  0  0  0
 18 15  1  0  0  0  0
 19 20  2  0  0  0  0
 21 19  1  0  0  0  0
 22 18  1  0  0  0  0
 23 21  1  0  0  0  0
 24 21  1  0  0  0  0
 24 33  1  1  0  0  0
 24 25  1  0  0  0  0
 25 34  1  0  0  0  0
 26 37  1  0  0  0  0
 26 25  1  0  0  0  0
 27 32  1  0  0  0  0
 27 26  1  0  0  0  0
 28 27  2  0  0  0  0
 29 30  2  0  0  0  0
 29 28  1  0  0  0  0
 30 31  1  0  0  0  0
 31 41  1  0  0  0  0
 31 32  2  0  0  0  0
 32 24  1  0  0  0  0
 35 25  1  0  0  0  0
 36 26  1  0  0  0  0
 38 28  1  0  0  0  0
 39 29  1  0  0  0  0
 40 30  1  0  0  0  0
 42  1  1  0  0  0  0
 42 43  1  0  0  0  0
 43 49  1  0  0  0  0
 43 44  1  1  0  0  0
 45 46  1  0  0  0  0
 45 47  1  0  0  0  0
 45 43  1  0  0  0  0
 48 45  1  0  0  0  0
 49 51  1  0  0  0  0
 49 52  1  0  0  0  0
 50 49  1  0  0  0  0
 52 53  1  0  0  0  0
 53 58  1  0  0  0  0
 53 54  2  0  0  0  0
 54 59  1  0  0  0  0
 55 54  1  0  0  0  0
 55 60  1  0  0  0  0
 56 55  2  0  0  0  0
 57 52  2  0  0  0  0
 57 56  1  0  0  0  0
 61 56  1  0  0  0  0
 62 57  1  0  0  0  0
M  END
>  <MODEL>
22

>  <REMARK>
 VINA RESULT:    -7.391      2.253     10.323
 INTER + INTRA:         -11.759
 INTER:                 -10.420
 INTRA:                  -1.339
 UNBOUND:                -0.695
  Name = 
  9 active torsions:
  status: ('A' for Active; 'I' for Inactive)
    1  A    between atoms: C_1  and  C_2
    2  A    between atoms: C_2  and  C_3
    3  A    between atoms: C_2  and  O_10
    4  A    between atoms: C_3  and  C_4
    5  A    between atoms: O_10  and  C_11
    6  A    between atoms: C_14  and  C_15
    7  A    between atoms: C_15  and  N_16
    8  A    between atoms: N_19  and  C_20
    9  A    between atoms: C_29  and  C_30
                            x       y       z     vdW  Elec       q    Type
                         _______ _______ _______ _____ _____    ______ ____

>  <TORSDO>
F 9

$$$$
=
 OpenBabel07192307433D

 62 65  0  0  1  0  0  0  0  0999 V2000
   -2.3560   10.5610   18.4640 C   0  0  0  0  0  0  0  0  0  0  0  0
   -1.8050    9.8490   17.3880 C   0  0  0  0  0  0  0  0  0  0  0  0
   -0.4250    9.6440   17.2970 C   0  0  0  0  0  0  0  0  0  0  0  0
    0.4300   10.1300   18.3060 C   0  0  0  0  0  0  0  0  0  0  0  0
   -0.1420   10.7880   19.4170 C   0  0  0  0  0  0  0  0  0  0  0  0
   -1.5250   11.0200   19.4850 C   0  0  0  0  0  0  0  0  0  0  0  0
   -2.4600    9.4350   16.6180 H   0  0  0  0  0  0  0  0  0  0  0  0
   -0.0200    9.0750   16.4500 H   0  0  0  0  0  0  0  0  0  0  0  0
   -1.9320   11.4930   20.3760 H   0  0  0  0  0  0  0  0  0  0  0  0
    0.6800   11.1420   20.5950 C   0  0  0  0  0  0  0  0  0  0  0  0
    1.1360   12.4280   20.6430 N   0  0  0  0  0  0  0  0  0  0  0  0
    0.9200   10.3150   21.4620 O   0  0  0  0  0  0  0  0  0  0  0  0
    1.8050   12.6290   21.3740 H   0  0  0  0  0  0  0  0  0  0  0  0
    1.1550   13.0030   19.8170 H   0  0  0  0  0  0  0  0  0  0  0  0
    1.9130    9.8980   18.1950 C   0  0  0  0  0  0  0  0  0  0  0  0
    2.3750   10.7100   17.6180 H   0  0  0  0  0  0  0  0  0  0  0  0
    2.3960    9.9110   19.1780 H   0  0  0  0  0  0  0  0  0  0  0  0
    2.1930    8.6400   17.5500 N   0  0  0  0  0  0  0  0  0  0  0  0
    2.7050    7.6110   18.2910 C   0  0  0  0  0  0  0  0  0  0  0  0
    3.0380    7.7020   19.4660 O   0  0  0  0  0  0  0  0  0  0  0  0
    2.8330    6.4790   17.5350 N   0  0  0  0  0  0  0  0  0  0  0  0
    1.5100    8.3500   16.8500 H   0  0  0  0  0  0  0  0  0  0  0  0
    2.9730    6.6430   16.5430 H   0  0  0  0  0  0  0  0  0  0  0  0
    3.5020    5.3190   18.0810 C   0  0  2  0  0  0  0  0  0  0  0  0
    4.1030    4.4060   16.9870 C   0  0  0  0  0  0  0  0  0  0  0  0
    4.0610    2.9750   17.5370 C   0  0  0  0  0  0  0  0  0  0  0  0
    2.8630    3.0390   18.4330 C   0  0  0  0  0  0  0  0  0  0  0  0
    2.1390    1.9820   18.9630 C   0  0  0  0  0  0  0  0  0  0  0  0
    1.0710    2.2670   19.8210 C   0  0  0  0  0  0  0  0  0  0  0  0
    0.7550    3.5960   20.1480 C   0  0  0  0  0  0  0  0  0  0  0  0
    1.5020    4.6550   19.6210 C   0  0  0  0  0  0  0  0  0  0  0  0
    2.5480    4.3660   18.7520 C   0  0  0  0  0  0  0  0  0  0  0  0
    4.2790    5.6360   18.7860 H   0  0  0  0  0  0  0  0  0  0  0  0
    5.1190    4.7080   16.7040 H   0  0  0  0  0  0  0  0  0  0  0  0
    3.4970    4.4550   16.0700 H   0  0  0  0  0  0  0  0  0  0  0  0
    3.9470    2.2440   16.7300 H   0  0  0  0  0  0  0  0  0  0  0  0
    4.9580    2.7490   18.1210 H   0  0  0  0  0  0  0  0  0  0  0  0
    2.3900    0.9550   18.7190 H   0  0  0  0  0  0  0  0  0  0  0  0
    0.4830    1.4510   20.2410 H   0  0  0  0  0  0  0  0  0  0  0  0
   -0.0730    3.8010   20.8250 H   0  0  0  0  0  0  0  0  0  0  0  0
    1.2710    5.6840   19.8910 H   0  0  0  0  0  0  0  0  0  0  0  0
   -3.7180   10.6570   18.4630 O   0  0  0  0  0  0  0  0  0  0  0  0
   -4.3020   11.9590   18.3370 C   0  0  1  0  0  0  0  0  0  0  0  0
   -3.5220   12.7200   18.1990 H   0  0  0  0  0  0  0  0  0  0  0  0
   -5.1320   11.9500   17.0550 C   0  0  0  0  0  0  0  0  0  0  0  0
   -4.9180   12.8470   16.4690 H   0  0  0  0  0  0  0  0  0  0  0  0
   -6.2010   11.9250   17.2690 H   0  0  0  0  0  0  0  0  0  0  0  0
   -4.8770   11.1020   16.4090 H   0  0  0  0  0  0  0  0  0  0  0  0
   -5.1460   12.3260   19.5690 C   0  0  0  0  0  0  0  0  0  0  0  0
   -5.7020   11.4320   19.8790 H   0  0  0  0  0  0  0  0  0  0  0  0
   -5.9020   13.0650   19.2940 H   0  0  0  0  0  0  0  0  0  0  0  0
   -4.3960   12.8870   20.7560 C   0  0  0  0  0  0  0  0  0  0  0  0
   -3.2330   13.6620   20.5680 C   0  0  0  0  0  0  0  0  0  0  0  0
   -2.5360   14.1700   21.6670 C   0  0  0  0  0  0  0  0  0  0  0  0
   -2.9940   13.9130   22.9660 C   0  0  0  0  0  0  0  0  0  0  0  0
   -4.1480   13.1430   23.1660 C   0  0  0  0  0  0  0  0  0  0  0  0
   -4.8410   12.6300   22.0690 C   0  0  0  0  0  0  0  0  0  0  0  0
   -2.8520   13.8770   19.5640 H   0  0  0  0  0  0  0  0  0  0  0  0
   -1.6350   14.7670   21.4990 H   0  0  0  0  0  0  0  0  0  0  0  0
   -2.4560   14.3150   23.8190 H   0  0  0  0  0  0  0  0  0  0  0  0
   -4.5140   12.9400   24.1780 H   0  0  0  0  0  0  0  0  0  0  0  0
   -5.7340   12.0290   22.2470 H   0  0  0  0  0  0  0  0  0  0  0  0
  1  6  1  0  0  0  0
  2  1  2  0  0  0  0
  3  2  1  0  0  0  0
  3  4  2  0  0  0  0
  4  5  1  0  0  0  0
  5  6  2  0  0  0  0
  5 10  1  0  0  0  0
  6  9  1  0  0  0  0
  7  2  1  0  0  0  0
  8  3  1  0  0  0  0
 10 11  1  0  0  0  0
 10 12  2  0  0  0  0
 11 13  1  0  0  0  0
 14 11  1  0  0  0  0
 15  4  1  0  0  0  0
 15 17  1  0  0  0  0
 16 15  1  0  0  0  0
 18 15  1  0  0  0  0
 18 19  1  0  0  0  0
 19 20  2  0  0  0  0
 21 24  1  0  0  0  0
 21 19  1  0  0  0  0
 22 18  1  0  0  0  0
 23 21  1  0  0  0  0
 24 32  1  0  0  0  0
 24 33  1  1  0  0  0
 25 26  1  0  0  0  0
 25 24  1  0  0  0  0
 26 37  1  0  0  0  0
 26 27  1  0  0  0  0
 27 32  2  0  0  0  0
 27 28  1  0  0  0  0
 28 29  2  0  0  0  0
 29 30  1  0  0  0  0
 29 39  1  0  0  0  0
 30 40  1  0  0  0  0
 31 41  1  0  0  0  0
 31 30  2  0  0  0  0
 32 31  1  0  0  0  0
 34 25  1  0  0  0  0
 35 25  1  0  0  0  0
 36 26  1  0  0  0  0
 38 28  1  0  0  0  0
 42  1  1  0  0  0  0
 43 44  1  6  0  0  0
 43 42  1  0  0  0  0
 43 49  1  0  0  0  0
 45 47  1  0  0  0  0
 45 43  1  0  0  0  0
 46 45  1  0  0  0  0
 48 45  1  0  0  0  0
 49 50  1  0  0  0  0
 49 52  1  0  0  0  0
 51 49  1  0  0  0  0
 52 57  1  0  0  0  0
 53 52  2  0  0  0  0
 53 54  1  0  0  0  0
 54 55  2  0  0  0  0
 55 56  1  0  0  0  0
 55 60  1  0  0  0  0
 56 61  1  0  0  0  0
 57 62  1  0  0  0  0
 57 56  2  0  0  0  0
 58 53  1  0  0  0  0
 59 54  1  0  0  0  0
M  END
>  <MODEL>
23

>  <REMARK>
 VINA RESULT:    -7.378      2.413      9.637
 INTER + INTRA:         -11.738
 INTER:                 -10.344
 INTRA:                  -1.394
 UNBOUND:                -0.695
  Name = 
  9 active torsions:
  status: ('A' for Active; 'I' for Inactive)
    1  A    between atoms: C_1  and  C_2
    2  A    between atoms: C_2  and  C_3
    3  A    between atoms: C_2  and  O_10
    4  A    between atoms: C_3  and  C_4
    5  A    between atoms: O_10  and  C_11
    6  A    between atoms: C_14  and  C_15
    7  A    between atoms: C_15  and  N_16
    8  A    between atoms: N_19  and  C_20
    9  A    between atoms: C_29  and  C_30
                            x       y       z     vdW  Elec       q    Type
                         _______ _______ _______ _____ _____    ______ ____

>  <TORSDO>
F 9

$$$$
=
 OpenBabel07192307433D

 62 65  0  0  1  0  0  0  0  0999 V2000
    1.9740    5.4590   19.4610 C   0  0  0  0  0  0  0  0  0  0  0  0
    2.5510    5.9760   18.2910 C   0  0  0  0  0  0  0  0  0  0  0  0
    2.5440    7.3500   18.0370 C   0  0  0  0  0  0  0  0  0  0  0  0
    1.9780    8.2390   18.9710 C   0  0  0  0  0  0  0  0  0  0  0  0
    1.4580    7.7140   20.1740 C   0  0  0  0  0  0  0  0  0  0  0  0
    1.4370    6.3310   20.4090 C   0  0  0  0  0  0  0  0  0  0  0  0
    3.0260    5.3010   17.5770 H   0  0  0  0  0  0  0  0  0  0  0  0
    3.0110    7.7300   17.1190 H   0  0  0  0  0  0  0  0  0  0  0  0
    1.0670    5.9680   21.3640 H   0  0  0  0  0  0  0  0  0  0  0  0
    1.0330    8.6100   21.2730 C   0  0  0  0  0  0  0  0  0  0  0  0
    1.9780    8.8920   22.2160 N   0  0  0  0  0  0  0  0  0  0  0  0
   -0.1030    9.0590   21.3100 O   0  0  0  0  0  0  0  0  0  0  0  0
    1.6490    9.3910   23.0320 H   0  0  0  0  0  0  0  0  0  0  0  0
    2.8000    8.3200   22.3150 H   0  0  0  0  0  0  0  0  0  0  0  0
    1.9800    9.7170   18.6830 C   0  0  0  0  0  0  0  0  0  0  0  0
    2.4960   10.2530   19.4910 H   0  0  0  0  0  0  0  0  0  0  0  0
    2.5320    9.9470   17.7650 H   0  0  0  0  0  0  0  0  0  0  0  0
    0.6360   10.2220   18.5640 N   0  0  0  0  0  0  0  0  0  0  0  0
    0.3570   11.4880   19.0020 C   0  0  0  0  0  0  0  0  0  0  0  0
    1.1560   12.2100   19.5850 O   0  0  0  0  0  0  0  0  0  0  0  0
   -0.9420   11.8230   18.7390 N   0  0  0  0  0  0  0  0  0  0  0  0
    0.1490    9.9620   17.7050 H   0  0  0  0  0  0  0  0  0  0  0  0
   -1.5840   11.0380   18.6990 H   0  0  0  0  0  0  0  0  0  0  0  0
   -1.4880   13.0560   19.2610 C   0  0  2  0  0  0  0  0  0  0  0  0
   -0.5920   14.2810   18.9630 C   0  0  0  0  0  0  0  0  0  0  0  0
   -0.7960   15.2670   20.1200 C   0  0  0  0  0  0  0  0  0  0  0  0
   -1.1110   14.3360   21.2490 C   0  0  0  0  0  0  0  0  0  0  0  0
   -1.0860   14.6070   22.6090 C   0  0  0  0  0  0  0  0  0  0  0  0
   -1.4600   13.5960   23.4990 C   0  0  0  0  0  0  0  0  0  0  0  0
   -1.8700   12.3400   23.0200 C   0  0  0  0  0  0  0  0  0  0  0  0
   -1.9070   12.0810   21.6450 C   0  0  0  0  0  0  0  0  0  0  0  0
   -1.5130   13.0830   20.7670 C   0  0  0  0  0  0  0  0  0  0  0  0
   -2.4970   13.2130   18.8630 H   0  0  0  0  0  0  0  0  0  0  0  0
   -0.8160   14.7350   17.9900 H   0  0  0  0  0  0  0  0  0  0  0  0
    0.4670   13.9820   18.9300 H   0  0  0  0  0  0  0  0  0  0  0  0
    0.1070   15.8600   20.2980 H   0  0  0  0  0  0  0  0  0  0  0  0
   -1.6460   15.9300   19.9280 H   0  0  0  0  0  0  0  0  0  0  0  0
   -0.7800   15.5800   22.9780 H   0  0  0  0  0  0  0  0  0  0  0  0
   -1.4390   13.7850   24.5720 H   0  0  0  0  0  0  0  0  0  0  0  0
   -2.1680   11.5670   23.7260 H   0  0  0  0  0  0  0  0  0  0  0  0
   -2.2450   11.1160   21.2730 H   0  0  0  0  0  0  0  0  0  0  0  0
    2.0820    4.1070   19.6170 O   0  0  0  0  0  0  0  0  0  0  0  0
    3.1030    3.6080   20.4880 C   0  0  1  0  0  0  0  0  0  0  0  0
    3.5670    4.4300   21.0490 H   0  0  0  0  0  0  0  0  0  0  0  0
    2.4110    2.7160   21.5160 C   0  0  0  0  0  0  0  0  0  0  0  0
    1.4110    3.1020   21.7280 H   0  0  0  0  0  0  0  0  0  0  0  0
    2.9690    2.6740   22.4520 H   0  0  0  0  0  0  0  0  0  0  0  0
    2.2660    1.6960   21.1410 H   0  0  0  0  0  0  0  0  0  0  0  0
    4.1960    2.8530   19.7110 C   0  0  0  0  0  0  0  0  0  0  0  0
    3.7500    1.9390   19.2990 H   0  0  0  0  0  0  0  0  0  0  0  0
    4.9750    2.5180   20.3990 H   0  0  0  0  0  0  0  0  0  0  0  0
    4.8860    3.6190   18.6050 C   0  0  0  0  0  0  0  0  0  0  0  0
    5.8100    4.6390   18.9100 C   0  0  0  0  0  0  0  0  0  0  0  0
    6.4380    5.3520   17.8860 C   0  0  0  0  0  0  0  0  0  0  0  0
    6.1540    5.0530   16.5470 C   0  0  0  0  0  0  0  0  0  0  0  0
    5.2350    4.0410   16.2320 C   0  0  0  0  0  0  0  0  0  0  0  0
    4.6020    3.3340   17.2550 C   0  0  0  0  0  0  0  0  0  0  0  0
    6.0510    4.8950   19.9460 H   0  0  0  0  0  0  0  0  0  0  0  0
    7.1510    6.1410   18.1430 H   0  0  0  0  0  0  0  0  0  0  0  0
    6.6480    5.6020   15.7510 H   0  0  0  0  0  0  0  0  0  0  0  0
    5.0080    3.7990   15.1880 H   0  0  0  0  0  0  0  0  0  0  0  0
    3.8870    2.5540   16.9880 H   0  0  0  0  0  0  0  0  0  0  0  0
  1 42  1  0  0  0  0
  1  6  1  0  0  0  0
  2  1  2  0  0  0  0
  3  2  1  0  0  0  0
  3  4  2  0  0  0  0
  4  5  1  0  0  0  0
  5  6  2  0  0  0  0
  5 10  1  0  0  0  0
  6  9  1  0  0  0  0
  7  2  1  0  0  0  0
  8  3  1  0  0  0  0
 10 12  2  0  0  0  0
 10 11  1  0  0  0  0
 11 14  1  0  0  0  0
 11 13  1  0  0  0  0
 15  4  1  0  0  0  0
 15 16  1  0  0  0  0
 17 15  1  0  0  0  0
 18 15  1  0  0  0  0
 18 19  1  0  0  0  0
 19 20  2  0  0  0  0
 21 19  1  0  0  0  0
 21 24  1  0  0  0  0
 22 18  1  0  0  0  0
 23 21  1  0  0  0  0
 24 33  1  6  0  0  0
 24 32  1  0  0  0  0
 25 24  1  0  0  0  0
 25 26  1  0  0  0  0
 26 36  1  0  0  0  0
 26 27  1  0  0  0  0
 27 28  1  0  0  0  0
 28 38  1  0  0  0  0
 28 29  2  0  0  0  0
 29 39  1  0  0  0  0
 30 29  1  0  0  0  0
 30 40  1  0  0  0  0
 31 30  2  0  0  0  0
 32 27  2  0  0  0  0
 32 31  1  0  0  0  0
 34 25  1  0  0  0  0
 35 25  1  0  0  0  0
 37 26  1  0  0  0  0
 41 31  1  0  0  0  0
 42 43  1  0  0  0  0
 43 44  1  1  0  0  0
 43 45  1  0  0  0  0
 45 46  1  0  0  0  0
 45 47  1  0  0  0  0
 48 45  1  0  0  0  0
 49 51  1  0  0  0  0
 49 43  1  0  0  0  0
 50 49  1  0  0  0  0
 52 53  1  0  0  0  0
 52 49  1  0  0  0  0
 53 58  1  0  0  0  0
 54 59  1  0  0  0  0
 54 53  2  0  0  0  0
 55 54  1  0  0  0  0
 56 55  2  0  0  0  0
 56 57  1  0  0  0  0
 57 52  2  0  0  0  0
 60 55  1  0  0  0  0
 61 56  1  0  0  0  0
 62 57  1  0  0  0  0
M  END
>  <MODEL>
24

>  <REMARK>
 VINA RESULT:    -7.338      1.618      3.216
 INTER + INTRA:         -11.680
 INTER:                 -10.686
 INTRA:                  -0.993
 UNBOUND:                -0.695
  Name = 
  9 active torsions:
  status: ('A' for Active; 'I' for Inactive)
    1  A    between atoms: C_1  and  C_2
    2  A    between atoms: C_2  and  C_3
    3  A    between atoms: C_2  and  O_10
    4  A    between atoms: C_3  and  C_4
    5  A    between atoms: O_10  and  C_11
    6  A    between atoms: C_14  and  C_15
    7  A    between atoms: C_15  and  N_16
    8  A    between atoms: N_19  and  C_20
    9  A    between atoms: C_29  and  C_30
                            x       y       z     vdW  Elec       q    Type
                         _______ _______ _______ _____ _____    ______ ____

>  <TORSDO>
F 9

$$$$
=
 OpenBabel07192307433D

 62 65  0  0  1  0  0  0  0  0999 V2000
   -0.2580   10.7890   22.0620 C   0  0  0  0  0  0  0  0  0  0  0  0
   -0.0250    9.6450   22.8400 C   0  0  0  0  0  0  0  0  0  0  0  0
    0.4090    8.4550   22.2500 C   0  0  0  0  0  0  0  0  0  0  0  0
    0.6450    8.3990   20.8620 C   0  0  0  0  0  0  0  0  0  0  0  0
    0.4700    9.5750   20.1000 C   0  0  0  0  0  0  0  0  0  0  0  0
    0.0020   10.7570   20.6930 C   0  0  0  0  0  0  0  0  0  0  0  0
   -0.1690    9.6850   23.9220 H   0  0  0  0  0  0  0  0  0  0  0  0
    0.5930    7.5760   22.8810 H   0  0  0  0  0  0  0  0  0  0  0  0
   -0.0810   11.6520   20.0810 H   0  0  0  0  0  0  0  0  0  0  0  0
    0.8910    9.6300   18.6810 C   0  0  0  0  0  0  0  0  0  0  0  0
   -0.1140    9.6920   17.7610 N   0  0  0  0  0  0  0  0  0  0  0  0
    2.0750    9.6210   18.3800 O   0  0  0  0  0  0  0  0  0  0  0  0
    0.1690    9.5930   16.7950 H   0  0  0  0  0  0  0  0  0  0  0  0
   -1.0570    9.4360   18.0020 H   0  0  0  0  0  0  0  0  0  0  0  0
    1.1160    7.1110   20.2410 C   0  0  0  0  0  0  0  0  0  0  0  0
    0.9420    6.2770   20.9350 H   0  0  0  0  0  0  0  0  0  0  0  0
    0.5510    6.8730   19.3330 H   0  0  0  0  0  0  0  0  0  0  0  0
    2.5190    7.1750   19.9200 N   0  0  0  0  0  0  0  0  0  0  0  0
    3.1630    6.0370   19.5180 C   0  0  0  0  0  0  0  0  0  0  0  0
    2.6540    4.9240   19.4970 O   0  0  0  0  0  0  0  0  0  0  0  0
    4.4620    6.3010   19.1830 N   0  0  0  0  0  0  0  0  0  0  0  0
    2.8130    8.0170   19.4250 H   0  0  0  0  0  0  0  0  0  0  0  0
    4.8730    7.0960   19.6640 H   0  0  0  0  0  0  0  0  0  0  0  0
    5.3650    5.2130   18.8830 C   0  0  2  0  0  0  0  0  0  0  0  0
    6.8190    5.5030   19.3250 C   0  0  0  0  0  0  0  0  0  0  0  0
    7.7330    4.7580   18.3450 C   0  0  0  0  0  0  0  0  0  0  0  0
    6.8990    4.7630   17.1020 C   0  0  0  0  0  0  0  0  0  0  0  0
    7.3100    4.5160   15.8000 C   0  0  0  0  0  0  0  0  0  0  0  0
    6.3510    4.5300   14.7830 C   0  0  0  0  0  0  0  0  0  0  0  0
    4.9990    4.7720   15.0810 C   0  0  0  0  0  0  0  0  0  0  0  0
    4.5920    5.0060   16.4000 C   0  0  0  0  0  0  0  0  0  0  0  0
    5.5550    5.0120   17.4030 C   0  0  0  0  0  0  0  0  0  0  0  0
    5.0000    4.2890   19.3470 H   0  0  0  0  0  0  0  0  0  0  0  0
    7.0050    5.2110   20.3650 H   0  0  0  0  0  0  0  0  0  0  0  0
    7.0310    6.5820   19.2630 H   0  0  0  0  0  0  0  0  0  0  0  0
    8.6870    5.2800   18.2190 H   0  0  0  0  0  0  0  0  0  0  0  0
    7.9120    3.7300   18.6750 H   0  0  0  0  0  0  0  0  0  0  0  0
    8.3520    4.3170   15.5720 H   0  0  0  0  0  0  0  0  0  0  0  0
    6.6530    4.3460   13.7520 H   0  0  0  0  0  0  0  0  0  0  0  0
    4.2630    4.7700   14.2790 H   0  0  0  0  0  0  0  0  0  0  0  0
    3.5430    5.1730   16.6340 H   0  0  0  0  0  0  0  0  0  0  0  0
   -0.6380   11.9010   22.7590 O   0  0  0  0  0  0  0  0  0  0  0  0
   -1.8080   12.6030   22.3230 C   0  0  1  0  0  0  0  0  0  0  0  0
   -2.1870   12.1750   21.3860 H   0  0  0  0  0  0  0  0  0  0  0  0
   -2.8850   12.3660   23.3790 C   0  0  0  0  0  0  0  0  0  0  0  0
   -2.6440   11.4740   23.9610 H   0  0  0  0  0  0  0  0  0  0  0  0
   -3.8670   12.2260   22.9250 H   0  0  0  0  0  0  0  0  0  0  0  0
   -2.9390   13.1900   24.1000 H   0  0  0  0  0  0  0  0  0  0  0  0
   -1.5260   14.1010   22.1110 C   0  0  0  0  0  0  0  0  0  0  0  0
   -1.3160   14.5490   23.0910 H   0  0  0  0  0  0  0  0  0  0  0  0
   -2.4260   14.5990   21.7450 H   0  0  0  0  0  0  0  0  0  0  0  0
   -0.4120   14.4470   21.1500 C   0  0  0  0  0  0  0  0  0  0  0  0
    0.8360   14.8930   21.6320 C   0  0  0  0  0  0  0  0  0  0  0  0
    1.8610   15.2220   20.7410 C   0  0  0  0  0  0  0  0  0  0  0  0
    1.6530   15.1060   19.3600 C   0  0  0  0  0  0  0  0  0  0  0  0
    0.4160   14.6650   18.8700 C   0  0  0  0  0  0  0  0  0  0  0  0
   -0.6100   14.3420   19.7590 C   0  0  0  0  0  0  0  0  0  0  0  0
    1.0260   14.9940   22.7050 H   0  0  0  0  0  0  0  0  0  0  0  0
    2.8210   15.5680   21.1350 H   0  0  0  0  0  0  0  0  0  0  0  0
    2.4520   15.3540   18.6680 H   0  0  0  0  0  0  0  0  0  0  0  0
    0.2450   14.5690   17.7920 H   0  0  0  0  0  0  0  0  0  0  0  0
   -1.5670   14.0060   19.3560 H   0  0  0  0  0  0  0  0  0  0  0  0
  1 42  1  0  0  0  0
  1  2  1  0  0  0  0
  2  7  1  0  0  0  0
  3  2  2  0  0  0  0
  3  8  1  0  0  0  0
  4  3  1  0  0  0  0
  5  6  1  0  0  0  0
  5  4  2  0  0  0  0
  6  1  2  0  0  0  0
  9  6  1  0  0  0  0
 10  5  1  0  0  0  0
 11 14  1  0  0  0  0
 11 10  1  0  0  0  0
 12 10  2  0  0  0  0
 13 11  1  0  0  0  0
 15  4  1  0  0  0  0
 15 16  1  0  0  0  0
 17 15  1  0  0  0  0
 18 15  1  0  0  0  0
 19 18  1  0  0  0  0
 20 19  2  0  0  0  0
 21 19  1  0  0  0  0
 21 23  1  0  0  0  0
 22 18  1  0  0  0  0
 24 21  1  0  0  0  0
 24 25  1  0  0  0  0
 24 33  1  1  0  0  0
 25 34  1  0  0  0  0
 26 37  1  0  0  0  0
 26 25  1  0  0  0  0
 27 32  1  0  0  0  0
 27 26  1  0  0  0  0
 28 27  2  0  0  0  0
 29 30  2  0  0  0  0
 29 28  1  0  0  0  0
 30 31  1  0  0  0  0
 31 41  1  0  0  0  0
 31 32  2  0  0  0  0
 32 24  1  0  0  0  0
 35 25  1  0  0  0  0
 36 26  1  0  0  0  0
 38 28  1  0  0  0  0
 39 29  1  0  0  0  0
 40 30  1  0  0  0  0
 43 44  1  6  0  0  0
 43 42  1  0  0  0  0
 43 45  1  0  0  0  0
 45 46  1  0  0  0  0
 45 48  1  0  0  0  0
 47 45  1  0  0  0  0
 49 43  1  0  0  0  0
 49 50  1  0  0  0  0
 51 49  1  0  0  0  0
 52 53  1  0  0  0  0
 52 49  1  0  0  0  0
 53 58  1  0  0  0  0
 54 59  1  0  0  0  0
 54 53  2  0  0  0  0
 55 54  1  0  0  0  0
 56 55  2  0  0  0  0
 56 57  1  0  0  0  0
 57 52  2  0  0  0  0
 60 55  1  0  0  0  0
 61 56  1  0  0  0  0
 62 57  1  0  0  0  0
M  END
>  <MODEL>
25

>  <REMARK>
 VINA RESULT:    -7.207      2.389     10.418
 INTER + INTRA:         -11.483
 INTER:                  -9.963
 INTRA:                  -1.520
 UNBOUND:                -0.695
  Name = 
  9 active torsions:
  status: ('A' for Active; 'I' for Inactive)
    1  A    between atoms: C_1  and  C_2
    2  A    between atoms: C_2  and  C_3
    3  A    between atoms: C_2  and  O_10
    4  A    between atoms: C_3  and  C_4
    5  A    between atoms: O_10  and  C_11
    6  A    between atoms: C_14  and  C_15
    7  A    between atoms: C_15  and  N_16
    8  A    between atoms: N_19  and  C_20
    9  A    between atoms: C_29  and  C_30
                            x       y       z     vdW  Elec       q    Type
                         _______ _______ _______ _____ _____    ______ ____

>  <TORSDO>
F 9

$$$$
=
 OpenBabel07192307433D

 62 65  0  0  1  0  0  0  0  0999 V2000
    0.2550   13.5370   19.6210 C   0  0  0  0  0  0  0  0  0  0  0  0
    1.5160   12.9260   19.6840 C   0  0  0  0  0  0  0  0  0  0  0  0
    1.7050   11.6230   19.2130 C   0  0  0  0  0  0  0  0  0  0  0  0
    0.6290   10.9150   18.6430 C   0  0  0  0  0  0  0  0  0  0  0  0
   -0.6200   11.5640   18.5250 C   0  0  0  0  0  0  0  0  0  0  0  0
   -0.8110   12.8600   19.0300 C   0  0  0  0  0  0  0  0  0  0  0  0
    2.3670   13.4770   20.0900 H   0  0  0  0  0  0  0  0  0  0  0  0
    2.7030   11.1710   19.2650 H   0  0  0  0  0  0  0  0  0  0  0  0
   -1.7750   13.3410   18.8830 H   0  0  0  0  0  0  0  0  0  0  0  0
   -1.7270   10.9480   17.7590 C   0  0  0  0  0  0  0  0  0  0  0  0
   -2.0340   11.5400   16.5690 N   0  0  0  0  0  0  0  0  0  0  0  0
   -2.3140    9.9660   18.1890 O   0  0  0  0  0  0  0  0  0  0  0  0
   -2.8730   11.2030   16.1150 H   0  0  0  0  0  0  0  0  0  0  0  0
   -1.7330   12.4770   16.3610 H   0  0  0  0  0  0  0  0  0  0  0  0
    0.8480    9.5140   18.1380 C   0  0  0  0  0  0  0  0  0  0  0  0
   -0.1190    9.0310   17.9470 H   0  0  0  0  0  0  0  0  0  0  0  0
    1.3830    9.5100   17.1820 H   0  0  0  0  0  0  0  0  0  0  0  0
    1.5880    8.7310   19.0940 N   0  0  0  0  0  0  0  0  0  0  0  0
    2.2570    7.6160   18.6680 C   0  0  0  0  0  0  0  0  0  0  0  0
    2.2030    7.1690   17.5300 O   0  0  0  0  0  0  0  0  0  0  0  0
    2.9630    7.0460   19.6910 N   0  0  0  0  0  0  0  0  0  0  0  0
    2.0850    9.2690   19.8050 H   0  0  0  0  0  0  0  0  0  0  0  0
    2.5760    7.2070   20.6160 H   0  0  0  0  0  0  0  0  0  0  0  0
    3.6130    5.7700   19.4960 C   0  0  2  0  0  0  0  0  0  0  0  0
    4.3240    5.6650   18.1260 C   0  0  0  0  0  0  0  0  0  0  0  0
    4.2710    4.1870   17.7170 C   0  0  0  0  0  0  0  0  0  0  0  0
    3.0030    3.7430   18.3780 C   0  0  0  0  0  0  0  0  0  0  0  0
    2.2640    2.5990   18.1190 C   0  0  0  0  0  0  0  0  0  0  0  0
    1.1240    2.3510   18.8890 C   0  0  0  0  0  0  0  0  0  0  0  0
    0.7500    3.2370   19.9140 C   0  0  0  0  0  0  0  0  0  0  0  0
    1.5110    4.3820   20.1780 C   0  0  0  0  0  0  0  0  0  0  0  0
    2.6310    4.6330   19.3940 C   0  0  0  0  0  0  0  0  0  0  0  0
    4.3220    5.5860   20.3120 H   0  0  0  0  0  0  0  0  0  0  0  0
    5.3510    6.0460   18.1590 H   0  0  0  0  0  0  0  0  0  0  0  0
    3.7930    6.2640   17.3720 H   0  0  0  0  0  0  0  0  0  0  0  0
    4.2410    4.0800   16.6270 H   0  0  0  0  0  0  0  0  0  0  0  0
    5.1230    3.6340   18.1230 H   0  0  0  0  0  0  0  0  0  0  0  0
    2.5590    1.9090   17.3350 H   0  0  0  0  0  0  0  0  0  0  0  0
    0.5230    1.4620   18.6970 H   0  0  0  0  0  0  0  0  0  0  0  0
   -0.1360    3.0260   20.5110 H   0  0  0  0  0  0  0  0  0  0  0  0
    1.2340    5.0570   20.9850 H   0  0  0  0  0  0  0  0  0  0  0  0
    0.2080   14.8250   20.0720 O   0  0  0  0  0  0  0  0  0  0  0  0
   -0.5610   15.1000   21.2480 C   0  0  1  0  0  0  0  0  0  0  0  0
   -0.2740   16.0680   21.6800 H   0  0  0  0  0  0  0  0  0  0  0  0
   -2.0160   15.2350   20.8060 C   0  0  0  0  0  0  0  0  0  0  0  0
   -2.4940   14.2520   20.8020 H   0  0  0  0  0  0  0  0  0  0  0  0
   -2.0940   15.6590   19.8040 H   0  0  0  0  0  0  0  0  0  0  0  0
   -2.6000   15.8500   21.5020 H   0  0  0  0  0  0  0  0  0  0  0  0
   -0.3810   14.0050   22.3140 C   0  0  0  0  0  0  0  0  0  0  0  0
    0.4490   14.3020   22.9690 H   0  0  0  0  0  0  0  0  0  0  0  0
   -0.0650   13.0740   21.8400 H   0  0  0  0  0  0  0  0  0  0  0  0
   -1.5940   13.6790   23.1560 C   0  0  0  0  0  0  0  0  0  0  0  0
   -2.3030   12.4770   22.9550 C   0  0  0  0  0  0  0  0  0  0  0  0
   -3.4300   12.1840   23.7270 C   0  0  0  0  0  0  0  0  0  0  0  0
   -3.8590   13.0850   24.7110 C   0  0  0  0  0  0  0  0  0  0  0  0
   -3.1630   14.2840   24.9190 C   0  0  0  0  0  0  0  0  0  0  0  0
   -2.0410   14.5810   24.1430 C   0  0  0  0  0  0  0  0  0  0  0  0
   -1.9910   11.7560   22.1940 H   0  0  0  0  0  0  0  0  0  0  0  0
   -3.9670   11.2470   23.5540 H   0  0  0  0  0  0  0  0  0  0  0  0
   -4.7300   12.8530   25.3160 H   0  0  0  0  0  0  0  0  0  0  0  0
   -3.4900   14.9930   25.6870 H   0  0  0  0  0  0  0  0  0  0  0  0
   -1.5170   15.5220   24.3180 H   0  0  0  0  0  0  0  0  0  0  0  0
  1  2  1  0  0  0  0
  1 42  1  0  0  0  0
  2  7  1  0  0  0  0
  3  8  1  0  0  0  0
  3  2  2  0  0  0  0
  4  3  1  0  0  0  0
  5  4  2  0  0  0  0
  5  6  1  0  0  0  0
  6  1  2  0  0  0  0
  9  6  1  0  0  0  0
 10 12  2  0  0  0  0
 10  5  1  0  0  0  0
 11 10  1  0  0  0  0
 13 11  1  0  0  0  0
 14 11  1  0  0  0  0
 15  4  1  0  0  0  0
 15 18  1  0  0  0  0
 16 15  1  0  0  0  0
 17 15  1  0  0  0  0
 18 22  1  0  0  0  0
 19 18  1  0  0  0  0
 19 21  1  0  0  0  0
 20 19  2  0  0  0  0
 21 23  1  0  0  0  0
 24 21  1  0  0  0  0
 24 33  1  1  0  0  0
 25 34  1  0  0  0  0
 25 24  1  0  0  0  0
 26 37  1  0  0  0  0
 26 25  1  0  0  0  0
 26 27  1  0  0  0  0
 27 32  1  0  0  0  0
 28 27  2  0  0  0  0
 28 29  1  0  0  0  0
 29 30  2  0  0  0  0
 30 31  1  0  0  0  0
 30 40  1  0  0  0  0
 31 41  1  0  0  0  0
 32 24  1  0  0  0  0
 32 31  2  0  0  0  0
 35 25  1  0  0  0  0
 36 26  1  0  0  0  0
 38 28  1  0  0  0  0
 39 29  1  0  0  0  0
 42 43  1  0  0  0  0
 43 44  1  1  0  0  0
 43 49  1  0  0  0  0
 45 43  1  0  0  0  0
 45 48  1  0  0  0  0
 46 45  1  0  0  0  0
 47 45  1  0  0  0  0
 49 50  1  0  0  0  0
 49 52  1  0  0  0  0
 51 49  1  0  0  0  0
 52 57  1  0  0  0  0
 53 52  2  0  0  0  0
 53 54  1  0  0  0  0
 54 55  2  0  0  0  0
 55 56  1  0  0  0  0
 55 60  1  0  0  0  0
 56 61  1  0  0  0  0
 57 62  1  0  0  0  0
 57 56  2  0  0  0  0
 58 53  1  0  0  0  0
 59 54  1  0  0  0  0
M  END
>  <MODEL>
26

>  <REMARK>
 VINA RESULT:    -7.205      1.907      9.675
 INTER + INTRA:         -11.480
 INTER:                 -11.462
 INTRA:                  -0.018
 UNBOUND:                -0.695
  Name = 
  9 active torsions:
  status: ('A' for Active; 'I' for Inactive)
    1  A    between atoms: C_1  and  C_2
    2  A    between atoms: C_2  and  C_3
    3  A    between atoms: C_2  and  O_10
    4  A    between atoms: C_3  and  C_4
    5  A    between atoms: O_10  and  C_11
    6  A    between atoms: C_14  and  C_15
    7  A    between atoms: C_15  and  N_16
    8  A    between atoms: N_19  and  C_20
    9  A    between atoms: C_29  and  C_30
                            x       y       z     vdW  Elec       q    Type
                         _______ _______ _______ _____ _____    ______ ____

>  <TORSDO>
F 9

$$$$
=
 OpenBabel07192307433D

 62 65  0  0  1  0  0  0  0  0999 V2000
    2.6260   13.9710   19.1130 C   0  0  0  0  0  0  0  0  0  0  0  0
    2.8990   13.1440   18.0130 C   0  0  0  0  0  0  0  0  0  0  0  0
    2.3210   11.8750   17.9100 C   0  0  0  0  0  0  0  0  0  0  0  0
    1.4330   11.4210   18.9040 C   0  0  0  0  0  0  0  0  0  0  0  0
    1.1150   12.2870   19.9740 C   0  0  0  0  0  0  0  0  0  0  0  0
    1.7240   13.5460   20.0880 C   0  0  0  0  0  0  0  0  0  0  0  0
    3.5570   13.4990   17.2170 H   0  0  0  0  0  0  0  0  0  0  0  0
    2.5430   11.2520   17.0350 H   0  0  0  0  0  0  0  0  0  0  0  0
    1.4220   14.2010   20.9030 H   0  0  0  0  0  0  0  0  0  0  0  0
    0.0430   11.9450   20.9360 C   0  0  0  0  0  0  0  0  0  0  0  0
   -1.1490   12.5830   20.7550 N   0  0  0  0  0  0  0  0  0  0  0  0
    0.2390   11.1340   21.8280 O   0  0  0  0  0  0  0  0  0  0  0  0
   -1.8330   12.4510   21.4890 H   0  0  0  0  0  0  0  0  0  0  0  0
   -1.2120   13.4210   20.2010 H   0  0  0  0  0  0  0  0  0  0  0  0
    0.8170   10.0530   18.7790 C   0  0  0  0  0  0  0  0  0  0  0  0
    0.6370    9.6320   19.7770 H   0  0  0  0  0  0  0  0  0  0  0  0
   -0.1610   10.0960   18.2870 H   0  0  0  0  0  0  0  0  0  0  0  0
    1.6770    9.1650   18.0380 N   0  0  0  0  0  0  0  0  0  0  0  0
    2.2520    8.1040   18.6810 C   0  0  0  0  0  0  0  0  0  0  0  0
    2.1660    7.8940   19.8840 O   0  0  0  0  0  0  0  0  0  0  0  0
    2.9690    7.3320   17.8090 N   0  0  0  0  0  0  0  0  0  0  0  0
    1.3730    8.9610   17.0860 H   0  0  0  0  0  0  0  0  0  0  0  0
    3.3390    7.8300   17.0050 H   0  0  0  0  0  0  0  0  0  0  0  0
    3.7870    6.2500   18.3090 C   0  0  2  0  0  0  0  0  0  0  0  0
    5.0610    6.0220   17.4620 C   0  0  0  0  0  0  0  0  0  0  0  0
    5.3870    4.5270   17.5510 C   0  0  0  0  0  0  0  0  0  0  0  0
    4.0230    3.9380   17.7350 C   0  0  0  0  0  0  0  0  0  0  0  0
    3.6370    2.6160   17.5670 C   0  0  0  0  0  0  0  0  0  0  0  0
    2.3080    2.2690   17.8350 C   0  0  0  0  0  0  0  0  0  0  0  0
    1.3950    3.2390   18.2810 C   0  0  0  0  0  0  0  0  0  0  0  0
    1.7980    4.5670   18.4620 C   0  0  0  0  0  0  0  0  0  0  0  0
    3.1140    4.9090   18.1730 C   0  0  0  0  0  0  0  0  0  0  0  0
    4.0510    6.4370   19.3560 H   0  0  0  0  0  0  0  0  0  0  0  0
    5.8990    6.6470   17.7930 H   0  0  0  0  0  0  0  0  0  0  0  0
    4.8740    6.2860   16.4090 H   0  0  0  0  0  0  0  0  0  0  0  0
    5.8820    4.1750   16.6400 H   0  0  0  0  0  0  0  0  0  0  0  0
    6.0130    4.3100   18.4230 H   0  0  0  0  0  0  0  0  0  0  0  0
    4.3450    1.8660   17.2330 H   0  0  0  0  0  0  0  0  0  0  0  0
    1.9810    1.2390   17.7010 H   0  0  0  0  0  0  0  0  0  0  0  0
    0.3660    2.9510   18.4940 H   0  0  0  0  0  0  0  0  0  0  0  0
    1.0960    5.3140   18.8280 H   0  0  0  0  0  0  0  0  0  0  0  0
    3.2150   15.2030   19.0780 O   0  0  0  0  0  0  0  0  0  0  0  0
    4.6450   15.2670   19.1010 C   0  0  1  0  0  0  0  0  0  0  0  0
    4.9830   16.3030   19.2370 H   0  0  0  0  0  0  0  0  0  0  0  0
    5.1040   14.4930   20.3340 C   0  0  0  0  0  0  0  0  0  0  0  0
    6.1010   14.8260   20.6310 H   0  0  0  0  0  0  0  0  0  0  0  0
    5.1410   13.4190   20.1440 H   0  0  0  0  0  0  0  0  0  0  0  0
    4.4550   14.6810   21.1990 H   0  0  0  0  0  0  0  0  0  0  0  0
    5.2610   14.7070   17.8060 C   0  0  0  0  0  0  0  0  0  0  0  0
    5.1000   15.4420   17.0080 H   0  0  0  0  0  0  0  0  0  0  0  0
    4.7210   13.8100   17.4960 H   0  0  0  0  0  0  0  0  0  0  0  0
    6.7270   14.3400   17.8630 C   0  0  0  0  0  0  0  0  0  0  0  0
    7.6800   15.2670   18.3330 C   0  0  0  0  0  0  0  0  0  0  0  0
    9.0340   14.9280   18.3740 C   0  0  0  0  0  0  0  0  0  0  0  0
    9.4530   13.6600   17.9490 C   0  0  0  0  0  0  0  0  0  0  0  0
    8.5140   12.7310   17.4780 C   0  0  0  0  0  0  0  0  0  0  0  0
    7.1620   13.0710   17.4300 C   0  0  0  0  0  0  0  0  0  0  0  0
    7.3820   16.2640   18.6700 H   0  0  0  0  0  0  0  0  0  0  0  0
    9.7580   15.6620   18.7400 H   0  0  0  0  0  0  0  0  0  0  0  0
   10.5050   13.3940   17.9880 H   0  0  0  0  0  0  0  0  0  0  0  0
    8.8320   11.7370   17.1460 H   0  0  0  0  0  0  0  0  0  0  0  0
    6.4490   12.3350   17.0550 H   0  0  0  0  0  0  0  0  0  0  0  0
  1  6  1  0  0  0  0
  2  1  2  0  0  0  0
  3  2  1  0  0  0  0
  3  4  2  0  0  0  0
  4  5  1  0  0  0  0
  5  6  2  0  0  0  0
  5 10  1  0  0  0  0
  6  9  1  0  0  0  0
  7  2  1  0  0  0  0
  8  3  1  0  0  0  0
 10 12  2  0  0  0  0
 11 10  1  0  0  0  0
 11 13  1  0  0  0  0
 14 11  1  0  0  0  0
 15  4  1  0  0  0  0
 15 16  1  0  0  0  0
 17 15  1  0  0  0  0
 18 19  1  0  0  0  0
 18 15  1  0  0  0  0
 19 20  2  0  0  0  0
 21 24  1  0  0  0  0
 21 19  1  0  0  0  0
 22 18  1  0  0  0  0
 23 21  1  0  0  0  0
 24 33  1  1  0  0  0
 25 26  1  0  0  0  0
 25 34  1  0  0  0  0
 25 24  1  0  0  0  0
 26 27  1  0  0  0  0
 26 37  1  0  0  0  0
 27 32  1  0  0  0  0
 28 27  2  0  0  0  0
 28 29  1  0  0  0  0
 29 30  2  0  0  0  0
 30 31  1  0  0  0  0
 30 40  1  0  0  0  0
 31 41  1  0  0  0  0
 32 24  1  0  0  0  0
 32 31  2  0  0  0  0
 35 25  1  0  0  0  0
 36 26  1  0  0  0  0
 38 28  1  0  0  0  0
 39 29  1  0  0  0  0
 42 43  1  0  0  0  0
 42  1  1  0  0  0  0
 43 44  1  1  0  0  0
 43 45  1  0  0  0  0
 45 46  1  0  0  0  0
 45 48  1  0  0  0  0
 47 45  1  0  0  0  0
 49 52  1  0  0  0  0
 49 43  1  0  0  0  0
 50 49  1  0  0  0  0
 51 49  1  0  0  0  0
 52 53  1  0  0  0  0
 53 54  2  0  0  0  0
 53 58  1  0  0  0  0
 54 59  1  0  0  0  0
 55 60  1  0  0  0  0
 55 54  1  0  0  0  0
 56 55  2  0  0  0  0
 57 56  1  0  0  0  0
 57 52  2  0  0  0  0
 61 56  1  0  0  0  0
 62 57  1  0  0  0  0
M  END
>  <MODEL>
27

>  <REMARK>
 VINA RESULT:    -7.174      4.480      9.748
 INTER + INTRA:         -11.433
 INTER:                 -10.993
 INTRA:                  -0.440
 UNBOUND:                -0.695
  Name = 
  9 active torsions:
  status: ('A' for Active; 'I' for Inactive)
    1  A    between atoms: C_1  and  C_2
    2  A    between atoms: C_2  and  C_3
    3  A    between atoms: C_2  and  O_10
    4  A    between atoms: C_3  and  C_4
    5  A    between atoms: O_10  and  C_11
    6  A    between atoms: C_14  and  C_15
    7  A    between atoms: C_15  and  N_16
    8  A    between atoms: N_19  and  C_20
    9  A    between atoms: C_29  and  C_30
                            x       y       z     vdW  Elec       q    Type
                         _______ _______ _______ _____ _____    ______ ____

>  <TORSDO>
F 9

$$$$
=
 OpenBabel07192307433D

 62 65  0  0  1  0  0  0  0  0999 V2000
   -1.5320   12.1640   19.7880 C   0  0  0  0  0  0  0  0  0  0  0  0
   -0.9560   12.3350   18.5200 C   0  0  0  0  0  0  0  0  0  0  0  0
    0.1610   11.5880   18.1350 C   0  0  0  0  0  0  0  0  0  0  0  0
    0.7070   10.6300   19.0120 C   0  0  0  0  0  0  0  0  0  0  0  0
    0.0790   10.4200   20.2590 C   0  0  0  0  0  0  0  0  0  0  0  0
   -1.0210   11.1970   20.6530 C   0  0  0  0  0  0  0  0  0  0  0  0
   -1.3920   13.0480   17.8180 H   0  0  0  0  0  0  0  0  0  0  0  0
    0.5880   11.7340   17.1350 H   0  0  0  0  0  0  0  0  0  0  0  0
   -1.5030   10.9770   21.6030 H   0  0  0  0  0  0  0  0  0  0  0  0
    0.4840    9.2970   21.1340 C   0  0  0  0  0  0  0  0  0  0  0  0
    1.4240    9.5830   22.0800 N   0  0  0  0  0  0  0  0  0  0  0  0
   -0.0120    8.1880   20.9970 O   0  0  0  0  0  0  0  0  0  0  0  0
    1.7960    8.7890   22.5840 H   0  0  0  0  0  0  0  0  0  0  0  0
    2.0010   10.4040   22.0080 H   0  0  0  0  0  0  0  0  0  0  0  0
    1.9090    9.8310   18.5820 C   0  0  0  0  0  0  0  0  0  0  0  0
    2.4140   10.3380   17.7490 H   0  0  0  0  0  0  0  0  0  0  0  0
    2.6490    9.7550   19.3860 H   0  0  0  0  0  0  0  0  0  0  0  0
    1.5260    8.5060   18.1670 N   0  0  0  0  0  0  0  0  0  0  0  0
    2.3500    7.4530   18.4550 C   0  0  0  0  0  0  0  0  0  0  0  0
    3.4570    7.5600   18.9680 O   0  0  0  0  0  0  0  0  0  0  0  0
    1.7930    6.2700   18.0570 N   0  0  0  0  0  0  0  0  0  0  0  0
    0.5320    8.2930   18.2560 H   0  0  0  0  0  0  0  0  0  0  0  0
    1.1520    6.3440   17.2730 H   0  0  0  0  0  0  0  0  0  0  0  0
    2.5650    5.0500   18.1230 C   0  0  2  0  0  0  0  0  0  0  0  0
    2.1200    4.0020   17.0760 C   0  0  0  0  0  0  0  0  0  0  0  0
    2.3900    2.6240   17.6910 C   0  0  0  0  0  0  0  0  0  0  0  0
    2.2240    2.9150   19.1500 C   0  0  0  0  0  0  0  0  0  0  0  0
    2.0370    2.0080   20.1830 C   0  0  0  0  0  0  0  0  0  0  0  0
    1.9470    2.4950   21.4910 C   0  0  0  0  0  0  0  0  0  0  0  0
    2.0620    3.8720   21.7490 C   0  0  0  0  0  0  0  0  0  0  0  0
    2.2650    4.7770   20.7010 C   0  0  0  0  0  0  0  0  0  0  0  0
    2.3320    4.2880   19.4010 C   0  0  0  0  0  0  0  0  0  0  0  0
    3.6310    5.2790   18.0080 H   0  0  0  0  0  0  0  0  0  0  0  0
    2.6320    4.1310   16.1140 H   0  0  0  0  0  0  0  0  0  0  0  0
    1.0430    4.0990   16.8700 H   0  0  0  0  0  0  0  0  0  0  0  0
    1.6750    1.8800   17.3230 H   0  0  0  0  0  0  0  0  0  0  0  0
    3.4120    2.2920   17.4860 H   0  0  0  0  0  0  0  0  0  0  0  0
    1.9610    0.9440   19.9850 H   0  0  0  0  0  0  0  0  0  0  0  0
    1.7920    1.8010   22.3170 H   0  0  0  0  0  0  0  0  0  0  0  0
    1.9990    4.2340   22.7740 H   0  0  0  0  0  0  0  0  0  0  0  0
    2.3750    5.8410   20.9020 H   0  0  0  0  0  0  0  0  0  0  0  0
   -2.6440   12.9190   20.0300 O   0  0  0  0  0  0  0  0  0  0  0  0
   -3.8850   12.2400   20.2550 C   0  0  1  0  0  0  0  0  0  0  0  0
   -3.7060   11.2240   20.6310 H   0  0  0  0  0  0  0  0  0  0  0  0
   -4.6090   12.9950   21.3660 C   0  0  0  0  0  0  0  0  0  0  0  0
   -5.6780   13.0430   21.1460 H   0  0  0  0  0  0  0  0  0  0  0  0
   -4.2330   14.0140   21.4710 H   0  0  0  0  0  0  0  0  0  0  0  0
   -4.5250   12.4820   22.3320 H   0  0  0  0  0  0  0  0  0  0  0  0
   -4.7280   12.1550   18.9700 C   0  0  0  0  0  0  0  0  0  0  0  0
   -4.9130   13.1770   18.6170 H   0  0  0  0  0  0  0  0  0  0  0  0
   -5.7110   11.7380   19.1990 H   0  0  0  0  0  0  0  0  0  0  0  0
   -4.1530   11.3290   17.8410 C   0  0  0  0  0  0  0  0  0  0  0  0
   -4.2630   11.7670   16.5060 C   0  0  0  0  0  0  0  0  0  0  0  0
   -3.7400   10.9970   15.4640 C   0  0  0  0  0  0  0  0  0  0  0  0
   -3.0980    9.7830   15.7440 C   0  0  0  0  0  0  0  0  0  0  0  0
   -2.9840    9.3370   17.0680 C   0  0  0  0  0  0  0  0  0  0  0  0
   -3.5120   10.1020   18.1080 C   0  0  0  0  0  0  0  0  0  0  0  0
   -4.7600   12.7100   16.2580 H   0  0  0  0  0  0  0  0  0  0  0  0
   -3.8380   11.3530   14.4350 H   0  0  0  0  0  0  0  0  0  0  0  0
   -2.6850    9.1880   14.9350 H   0  0  0  0  0  0  0  0  0  0  0  0
   -2.4820    8.3910   17.2960 H   0  0  0  0  0  0  0  0  0  0  0  0
   -3.4170    9.7340   19.1310 H   0  0  0  0  0  0  0  0  0  0  0  0
  1 42  1  0  0  0  0
  1  6  1  0  0  0  0
  2  1  2  0  0  0  0
  3  2  1  0  0  0  0
  3  4  2  0  0  0  0
  4  5  1  0  0  0  0
  5  6  2  0  0  0  0
  5 10  1  0  0  0  0
  6  9  1  0  0  0  0
  7  2  1  0  0  0  0
  8  3  1  0  0  0  0
 10 11  1  0  0  0  0
 11 13  1  0  0  0  0
 12 10  2  0  0  0  0
 14 11  1  0  0  0  0
 15  4  1  0  0  0  0
 15 17  1  0  0  0  0
 16 15  1  0  0  0  0
 18 22  1  0  0  0  0
 18 19  1  0  0  0  0
 18 15  1  0  0  0  0
 19 20  2  0  0  0  0
 21 24  1  0  0  0  0
 21 19  1  0  0  0  0
 23 21  1  0  0  0  0
 24 33  1  6  0  0  0
 24 32  1  0  0  0  0
 25 26  1  0  0  0  0
 25 24  1  0  0  0  0
 26 27  1  0  0  0  0
 27 32  2  0  0  0  0
 27 28  1  0  0  0  0
 28 29  2  0  0  0  0
 29 30  1  0  0  0  0
 29 39  1  0  0  0  0
 30 40  1  0  0  0  0
 31 41  1  0  0  0  0
 31 30  2  0  0  0  0
 32 31  1  0  0  0  0
 34 25  1  0  0  0  0
 35 25  1  0  0  0  0
 36 26  1  0  0  0  0
 37 26  1  0  0  0  0
 38 28  1  0  0  0  0
 42 43  1  0  0  0  0
 43 44  1  1  0  0  0
 43 45  1  0  0  0  0
 45 47  1  0  0  0  0
 45 48  1  0  0  0  0
 46 45  1  0  0  0  0
 49 51  1  0  0  0  0
 49 43  1  0  0  0  0
 50 49  1  0  0  0  0
 52 57  1  0  0  0  0
 52 49  1  0  0  0  0
 53 52  2  0  0  0  0
 54 55  2  0  0  0  0
 54 53  1  0  0  0  0
 55 56  1  0  0  0  0
 56 61  1  0  0  0  0
 56 57  2  0  0  0  0
 57 62  1  0  0  0  0
 58 53  1  0  0  0  0
 59 54  1  0  0  0  0
 60 55  1  0  0  0  0
M  END
>  <MODEL>
28

>  <REMARK>
 VINA RESULT:    -7.142      2.681      9.144
 INTER + INTRA:         -11.386
 INTER:                  -9.574
 INTRA:                  -1.812
 UNBOUND:                -0.695
  Name = 
  9 active torsions:
  status: ('A' for Active; 'I' for Inactive)
    1  A    between atoms: C_1  and  C_2
    2  A    between atoms: C_2  and  C_3
    3  A    between atoms: C_2  and  O_10
    4  A    between atoms: C_3  and  C_4
    5  A    between atoms: O_10  and  C_11
    6  A    between atoms: C_14  and  C_15
    7  A    between atoms: C_15  and  N_16
    8  A    between atoms: N_19  and  C_20
    9  A    between atoms: C_29  and  C_30
                            x       y       z     vdW  Elec       q    Type
                         _______ _______ _______ _____ _____    ______ ____

>  <TORSDO>
F 9

$$$$
=
 OpenBabel07192307433D

 62 65  0  0  1  0  0  0  0  0999 V2000
   -0.4490   11.9830   20.9940 C   0  0  0  0  0  0  0  0  0  0  0  0
   -0.4920   10.6070   20.7220 C   0  0  0  0  0  0  0  0  0  0  0  0
    0.2940   10.0540   19.7070 C   0  0  0  0  0  0  0  0  0  0  0  0
    1.1630   10.8730   18.9600 C   0  0  0  0  0  0  0  0  0  0  0  0
    1.2460   12.2450   19.2860 C   0  0  0  0  0  0  0  0  0  0  0  0
    0.4300   12.8000   20.2840 C   0  0  0  0  0  0  0  0  0  0  0  0
   -1.1340    9.9560   21.3180 H   0  0  0  0  0  0  0  0  0  0  0  0
    0.2500    8.9740   19.5200 H   0  0  0  0  0  0  0  0  0  0  0  0
    0.5530   13.8510   20.5340 H   0  0  0  0  0  0  0  0  0  0  0  0
    2.2800   13.1100   18.6740 C   0  0  0  0  0  0  0  0  0  0  0  0
    2.1240   13.3790   17.3450 N   0  0  0  0  0  0  0  0  0  0  0  0
    3.2050   13.5470   19.3410 O   0  0  0  0  0  0  0  0  0  0  0  0
    2.8990   13.8550   16.9010 H   0  0  0  0  0  0  0  0  0  0  0  0
    1.5270   12.8130   16.7660 H   0  0  0  0  0  0  0  0  0  0  0  0
    2.0050   10.2620   17.8710 C   0  0  0  0  0  0  0  0  0  0  0  0
    1.7850   10.7490   16.9120 H   0  0  0  0  0  0  0  0  0  0  0  0
    3.0740   10.4200   18.0540 H   0  0  0  0  0  0  0  0  0  0  0  0
    1.7510    8.8480   17.7550 N   0  0  0  0  0  0  0  0  0  0  0  0
    2.7210    7.9630   18.1390 C   0  0  0  0  0  0  0  0  0  0  0  0
    3.8480    8.2830   18.4960 O   0  0  0  0  0  0  0  0  0  0  0  0
    2.2790    6.6740   18.0310 N   0  0  0  0  0  0  0  0  0  0  0  0
    0.8030    8.5560   17.9920 H   0  0  0  0  0  0  0  0  0  0  0  0
    1.5650    6.5260   17.3240 H   0  0  0  0  0  0  0  0  0  0  0  0
    3.1970    5.5770   18.2360 C   0  0  2  0  0  0  0  0  0  0  0  0
    3.8920    5.1270   16.9290 C   0  0  0  0  0  0  0  0  0  0  0  0
    4.1680    3.6250   17.0730 C   0  0  0  0  0  0  0  0  0  0  0  0
    3.0450    3.2030   17.9680 C   0  0  0  0  0  0  0  0  0  0  0  0
    2.5790    1.9170   18.2020 C   0  0  0  0  0  0  0  0  0  0  0  0
    1.5370    1.7410   19.1170 C   0  0  0  0  0  0  0  0  0  0  0  0
    0.9890    2.8430   19.7950 C   0  0  0  0  0  0  0  0  0  0  0  0
    1.4760    4.1340   19.5640 C   0  0  0  0  0  0  0  0  0  0  0  0
    2.4970    4.3050   18.6370 C   0  0  0  0  0  0  0  0  0  0  0  0
    3.9430    5.8530   18.9910 H   0  0  0  0  0  0  0  0  0  0  0  0
    4.8060    5.6960   16.7250 H   0  0  0  0  0  0  0  0  0  0  0  0
    3.2270    5.2870   16.0670 H   0  0  0  0  0  0  0  0  0  0  0  0
    4.1460    3.1240   16.1000 H   0  0  0  0  0  0  0  0  0  0  0  0
    5.1300    3.4450   17.5630 H   0  0  0  0  0  0  0  0  0  0  0  0
    3.0100    1.0660   17.6870 H   0  0  0  0  0  0  0  0  0  0  0  0
    1.1500    0.7400   19.3090 H   0  0  0  0  0  0  0  0  0  0  0  0
    0.1840    2.6870   20.5120 H   0  0  0  0  0  0  0  0  0  0  0  0
    1.0660    4.9850   20.1040 H   0  0  0  0  0  0  0  0  0  0  0  0
   -1.2290   12.3960   22.0360 O   0  0  0  0  0  0  0  0  0  0  0  0
   -2.6490   12.2650   21.9080 C   0  0  1  0  0  0  0  0  0  0  0  0
   -2.9280   11.2140   21.7600 H   0  0  0  0  0  0  0  0  0  0  0  0
   -3.2560   12.6940   23.2420 C   0  0  0  0  0  0  0  0  0  0  0  0
   -4.3040   12.3880   23.2880 H   0  0  0  0  0  0  0  0  0  0  0  0
   -3.2060   13.7750   23.3780 H   0  0  0  0  0  0  0  0  0  0  0  0
   -2.7640   12.2030   24.0910 H   0  0  0  0  0  0  0  0  0  0  0  0
   -3.1930   13.0970   20.7330 C   0  0  0  0  0  0  0  0  0  0  0  0
   -2.4610   13.8820   20.5050 H   0  0  0  0  0  0  0  0  0  0  0  0
   -4.1020   13.6190   21.0380 H   0  0  0  0  0  0  0  0  0  0  0  0
   -3.5270   12.3370   19.4690 C   0  0  0  0  0  0  0  0  0  0  0  0
   -4.8440   11.8980   19.2240 C   0  0  0  0  0  0  0  0  0  0  0  0
   -5.1470   11.1880   18.0600 C   0  0  0  0  0  0  0  0  0  0  0  0
   -4.1400   10.9100   17.1270 C   0  0  0  0  0  0  0  0  0  0  0  0
   -2.8260   11.3410   17.3600 C   0  0  0  0  0  0  0  0  0  0  0  0
   -2.5220   12.0450   18.5260 C   0  0  0  0  0  0  0  0  0  0  0  0
   -5.6500   12.1000   19.9360 H   0  0  0  0  0  0  0  0  0  0  0  0
   -6.1750   10.8540   17.8900 H   0  0  0  0  0  0  0  0  0  0  0  0
   -4.3770   10.3650   16.2180 H   0  0  0  0  0  0  0  0  0  0  0  0
   -2.0330   11.1300   16.6350 H   0  0  0  0  0  0  0  0  0  0  0  0
   -1.4920   12.3660   18.6900 H   0  0  0  0  0  0  0  0  0  0  0  0
  1 42  1  0  0  0  0
  2  1  1  0  0  0  0
  2  7  1  0  0  0  0
  3  2  2  0  0  0  0
  4  5  2  0  0  0  0
  4  3  1  0  0  0  0
  5  6  1  0  0  0  0
  6  9  1  0  0  0  0
  6  1  2  0  0  0  0
  8  3  1  0  0  0  0
 10  5  1  0  0  0  0
 10 12  2  0  0  0  0
 11 10  1  0  0  0  0
 13 11  1  0  0  0  0
 14 11  1  0  0  0  0
 15 17  1  0  0  0  0
 15  4  1  0  0  0  0
 16 15  1  0  0  0  0
 18 15  1  0  0  0  0
 18 22  1  0  0  0  0
 18 19  1  0  0  0  0
 19 20  2  0  0  0  0
 21 19  1  0  0  0  0
 21 24  1  0  0  0  0
 23 21  1  0  0  0  0
 24 32  1  0  0  0  0
 24 33  1  1  0  0  0
 25 26  1  0  0  0  0
 25 24  1  0  0  0  0
 26 37  1  0  0  0  0
 26 27  1  0  0  0  0
 27 28  2  0  0  0  0
 27 32  1  0  0  0  0
 28 29  1  0  0  0  0
 29 39  1  0  0  0  0
 29 30  2  0  0  0  0
 30 40  1  0  0  0  0
 31 30  1  0  0  0  0
 31 41  1  0  0  0  0
 32 31  2  0  0  0  0
 34 25  1  0  0  0  0
 35 25  1  0  0  0  0
 36 26  1  0  0  0  0
 38 28  1  0  0  0  0
 43 44  1  6  0  0  0
 43 42  1  0  0  0  0
 43 45  1  0  0  0  0
 45 46  1  0  0  0  0
 45 47  1  0  0  0  0
 45 48  1  0  0  0  0
 49 51  1  0  0  0  0
 49 43  1  0  0  0  0
 50 49  1  0  0  0  0
 52 49  1  0  0  0  0
 53 52  1  0  0  0  0
 53 58  1  0  0  0  0
 54 53  2  0  0  0  0
 55 56  2  0  0  0  0
 55 54  1  0  0  0  0
 56 57  1  0  0  0  0
 57 62  1  0  0  0  0
 57 52  2  0  0  0  0
 59 54  1  0  0  0  0
 60 55  1  0  0  0  0
 61 56  1  0  0  0  0
M  END
>  <MODEL>
29

>  <REMARK>
 VINA RESULT:    -7.090      2.637      9.564
 INTER + INTRA:         -11.308
 INTER:                 -10.202
 INTRA:                  -1.107
 UNBOUND:                -0.695
  Name = 
  9 active torsions:
  status: ('A' for Active; 'I' for Inactive)
    1  A    between atoms: C_1  and  C_2
    2  A    between atoms: C_2  and  C_3
    3  A    between atoms: C_2  and  O_10
    4  A    between atoms: C_3  and  C_4
    5  A    between atoms: O_10  and  C_11
    6  A    between atoms: C_14  and  C_15
    7  A    between atoms: C_15  and  N_16
    8  A    between atoms: N_19  and  C_20
    9  A    between atoms: C_29  and  C_30
                            x       y       z     vdW  Elec       q    Type
                         _______ _______ _______ _____ _____    ______ ____

>  <TORSDO>
F 9

$$$$
=
 OpenBabel07192307433D

 62 65  0  0  1  0  0  0  0  0999 V2000
   -1.4640   11.7660   19.7920 C   0  0  0  0  0  0  0  0  0  0  0  0
   -0.6890   11.3540   18.6970 C   0  0  0  0  0  0  0  0  0  0  0  0
    0.3020   10.3790   18.8480 C   0  0  0  0  0  0  0  0  0  0  0  0
    0.5150    9.7770   20.1030 C   0  0  0  0  0  0  0  0  0  0  0  0
   -0.3150   10.1520   21.1820 C   0  0  0  0  0  0  0  0  0  0  0  0
   -1.2850   11.1550   21.0330 C   0  0  0  0  0  0  0  0  0  0  0  0
   -0.8690   11.7860   17.7100 H   0  0  0  0  0  0  0  0  0  0  0  0
    0.8880   10.0670   17.9740 H   0  0  0  0  0  0  0  0  0  0  0  0
   -1.9310   11.3870   21.8750 H   0  0  0  0  0  0  0  0  0  0  0  0
   -0.2700    9.4170   22.4660 C   0  0  0  0  0  0  0  0  0  0  0  0
   -0.9510    8.2350   22.5030 N   0  0  0  0  0  0  0  0  0  0  0  0
    0.3490    9.8630   23.4210 O   0  0  0  0  0  0  0  0  0  0  0  0
   -1.0320    7.8040   23.4140 H   0  0  0  0  0  0  0  0  0  0  0  0
   -1.6550    8.0190   21.8180 H   0  0  0  0  0  0  0  0  0  0  0  0
    1.5840    8.7270   20.2490 C   0  0  0  0  0  0  0  0  0  0  0  0
    2.4600    9.1540   20.7560 H   0  0  0  0  0  0  0  0  0  0  0  0
    1.2460    7.8940   20.8750 H   0  0  0  0  0  0  0  0  0  0  0  0
    1.9850    8.2160   18.9630 N   0  0  0  0  0  0  0  0  0  0  0  0
    2.6990    7.0510   18.9010 C   0  0  0  0  0  0  0  0  0  0  0  0
    3.1130    6.4400   19.8790 O   0  0  0  0  0  0  0  0  0  0  0  0
    2.9230    6.6800   17.6040 N   0  0  0  0  0  0  0  0  0  0  0  0
    1.2940    8.3210   18.2190 H   0  0  0  0  0  0  0  0  0  0  0  0
    2.9540    7.4490   16.9410 H   0  0  0  0  0  0  0  0  0  0  0  0
    3.7940    5.5640   17.3130 C   0  0  2  0  0  0  0  0  0  0  0  0
    3.5800    4.3720   18.2750 C   0  0  0  0  0  0  0  0  0  0  0  0
    4.9350    3.6650   18.4070 C   0  0  0  0  0  0  0  0  0  0  0  0
    5.8830    4.8050   18.2010 C   0  0  0  0  0  0  0  0  0  0  0  0
    7.2340    4.8540   18.5120 C   0  0  0  0  0  0  0  0  0  0  0  0
    7.9500    6.0130   18.1940 C   0  0  0  0  0  0  0  0  0  0  0  0
    7.3140    7.0920   17.5570 C   0  0  0  0  0  0  0  0  0  0  0  0
    5.9540    7.0260   17.2340 C   0  0  0  0  0  0  0  0  0  0  0  0
    5.2430    5.8800   17.5730 C   0  0  0  0  0  0  0  0  0  0  0  0
    3.6560    5.2470   16.2730 H   0  0  0  0  0  0  0  0  0  0  0  0
    2.7930    3.6920   17.9280 H   0  0  0  0  0  0  0  0  0  0  0  0
    3.2660    4.7310   19.2670 H   0  0  0  0  0  0  0  0  0  0  0  0
    5.0420    3.1960   19.3900 H   0  0  0  0  0  0  0  0  0  0  0  0
    5.0680    2.9160   17.6200 H   0  0  0  0  0  0  0  0  0  0  0  0
    7.7270    4.0170   18.9920 H   0  0  0  0  0  0  0  0  0  0  0  0
    9.0110    6.0770   18.4370 H   0  0  0  0  0  0  0  0  0  0  0  0
    7.8880    7.9830   17.3080 H   0  0  0  0  0  0  0  0  0  0  0  0
    5.4660    7.8530   16.7230 H   0  0  0  0  0  0  0  0  0  0  0  0
   -2.4270   12.6910   19.5090 O   0  0  0  0  0  0  0  0  0  0  0  0
   -3.7560   12.4490   19.9860 C   0  0  1  0  0  0  0  0  0  0  0  0
   -3.7530   11.6620   20.7520 H   0  0  0  0  0  0  0  0  0  0  0  0
   -4.2190   13.7290   20.6770 C   0  0  0  0  0  0  0  0  0  0  0  0
   -3.6350   14.5780   20.3140 H   0  0  0  0  0  0  0  0  0  0  0  0
   -4.1000   13.6670   21.7590 H   0  0  0  0  0  0  0  0  0  0  0  0
   -5.2650   13.9640   20.4450 H   0  0  0  0  0  0  0  0  0  0  0  0
   -4.7030   12.0330   18.8460 C   0  0  0  0  0  0  0  0  0  0  0  0
   -5.1620   12.9420   18.4370 H   0  0  0  0  0  0  0  0  0  0  0  0
   -5.5270   11.4400   19.2470 H   0  0  0  0  0  0  0  0  0  0  0  0
   -4.0900   11.2300   17.7210 C   0  0  0  0  0  0  0  0  0  0  0  0
   -3.9720   11.7820   16.4290 C   0  0  0  0  0  0  0  0  0  0  0  0
   -3.4140   11.0340   15.3890 C   0  0  0  0  0  0  0  0  0  0  0  0
   -2.9660    9.7280   15.6280 C   0  0  0  0  0  0  0  0  0  0  0  0
   -3.0800    9.1680   16.9080 C   0  0  0  0  0  0  0  0  0  0  0  0
   -3.6420    9.9130   17.9460 C   0  0  0  0  0  0  0  0  0  0  0  0
   -4.3140   12.7990   16.2130 H   0  0  0  0  0  0  0  0  0  0  0  0
   -3.3340   11.4790   14.3930 H   0  0  0  0  0  0  0  0  0  0  0  0
   -2.5260    9.1490   14.8210 H   0  0  0  0  0  0  0  0  0  0  0  0
   -2.7300    8.1490   17.1040 H   0  0  0  0  0  0  0  0  0  0  0  0
   -3.7260    9.4560   18.9330 H   0  0  0  0  0  0  0  0  0  0  0  0
  1  6  1  0  0  0  0
  2  3  1  0  0  0  0
  2  1  2  0  0  0  0
  3  4  2  0  0  0  0
  4 15  1  0  0  0  0
  4  5  1  0  0  0  0
  5 10  1  0  0  0  0
  6  5  2  0  0  0  0
  6  9  1  0  0  0  0
  7  2  1  0  0  0  0
  8  3  1  0  0  0  0
 10 11  1  0  0  0  0
 10 12  2  0  0  0  0
 11 13  1  0  0  0  0
 14 11  1  0  0  0  0
 15 16  1  0  0  0  0
 15 17  1  0  0  0  0
 18 15  1  0  0  0  0
 19 18  1  0  0  0  0
 19 20  2  0  0  0  0
 21 19  1  0  0  0  0
 22 18  1  0  0  0  0
 23 21  1  0  0  0  0
 24 33  1  6  0  0  0
 24 32  1  0  0  0  0
 24 21  1  0  0  0  0
 24 25  1  0  0  0  0
 25 26  1  0  0  0  0
 25 35  1  0  0  0  0
 26 36  1  0  0  0  0
 27 26  1  0  0  0  0
 27 28  1  0  0  0  0
 28 38  1  0  0  0  0
 29 39  1  0  0  0  0
 29 28  2  0  0  0  0
 30 29  1  0  0  0  0
 31 30  2  0  0  0  0
 31 32  1  0  0  0  0
 32 27  2  0  0  0  0
 34 25  1  0  0  0  0
 37 26  1  0  0  0  0
 40 30  1  0  0  0  0
 41 31  1  0  0  0  0
 42  1  1  0  0  0  0
 42 43  1  0  0  0  0
 43 45  1  0  0  0  0
 43 44  1  1  0  0  0
 45 47  1  0  0  0  0
 46 45  1  0  0  0  0
 48 45  1  0  0  0  0
 49 51  1  0  0  0  0
 49 43  1  0  0  0  0
 50 49  1  0  0  0  0
 52 57  1  0  0  0  0
 52 49  1  0  0  0  0
 53 52  2  0  0  0  0
 54 55  2  0  0  0  0
 54 53  1  0  0  0  0
 55 56  1  0  0  0  0
 56 61  1  0  0  0  0
 56 57  2  0  0  0  0
 57 62  1  0  0  0  0
 58 53  1  0  0  0  0
 59 54  1  0  0  0  0
 60 55  1  0  0  0  0
M  END
>  <MODEL>
30

>  <REMARK>
 VINA RESULT:    -7.037      2.860      9.603
 INTER + INTRA:         -11.229
 INTER:                 -10.534
 INTRA:                  -0.695
 UNBOUND:                -0.695
  Name = 
  9 active torsions:
  status: ('A' for Active; 'I' for Inactive)
    1  A    between atoms: C_1  and  C_2
    2  A    between atoms: C_2  and  C_3
    3  A    between atoms: C_2  and  O_10
    4  A    between atoms: C_3  and  C_4
    5  A    between atoms: O_10  and  C_11
    6  A    between atoms: C_14  and  C_15
    7  A    between atoms: C_15  and  N_16
    8  A    between atoms: N_19  and  C_20
    9  A    between atoms: C_29  and  C_30
                            x       y       z     vdW  Elec       q    Type
                         _______ _______ _______ _____ _____    ______ ____

>  <TORSDO>
F 9

$$$$
=
 OpenBabel07192307433D

 62 65  0  0  1  0  0  0  0  0999 V2000
    2.6830    6.7700   18.2930 C   0  0  0  0  0  0  0  0  0  0  0  0
    2.5930    6.2490   19.5930 C   0  0  0  0  0  0  0  0  0  0  0  0
    1.9820    6.9800   20.6160 C   0  0  0  0  0  0  0  0  0  0  0  0
    1.4230    8.2440   20.3450 C   0  0  0  0  0  0  0  0  0  0  0  0
    1.4610    8.7290   19.0190 C   0  0  0  0  0  0  0  0  0  0  0  0
    2.1060    8.0060   18.0040 C   0  0  0  0  0  0  0  0  0  0  0  0
    2.9900    5.2550   19.8080 H   0  0  0  0  0  0  0  0  0  0  0  0
    1.9160    6.5460   21.6220 H   0  0  0  0  0  0  0  0  0  0  0  0
    2.0790    8.3930   16.9880 H   0  0  0  0  0  0  0  0  0  0  0  0
    0.7200    9.9520   18.6360 C   0  0  0  0  0  0  0  0  0  0  0  0
    1.4810   11.0180   18.2530 N   0  0  0  0  0  0  0  0  0  0  0  0
   -0.5010    9.9780   18.6670 O   0  0  0  0  0  0  0  0  0  0  0  0
    0.9830   11.8880   18.1230 H   0  0  0  0  0  0  0  0  0  0  0  0
    2.4590   11.0670   18.4820 H   0  0  0  0  0  0  0  0  0  0  0  0
    0.7650    9.0180   21.4560 C   0  0  0  0  0  0  0  0  0  0  0  0
   -0.2570    8.6490   21.6130 H   0  0  0  0  0  0  0  0  0  0  0  0
    1.2890    8.8760   22.4080 H   0  0  0  0  0  0  0  0  0  0  0  0
    0.7200   10.4250   21.1490 N   0  0  0  0  0  0  0  0  0  0  0  0
   -0.1990   11.2160   21.7820 C   0  0  0  0  0  0  0  0  0  0  0  0
   -1.0670   10.7990   22.5390 O   0  0  0  0  0  0  0  0  0  0  0  0
   -0.0450   12.5270   21.4260 N   0  0  0  0  0  0  0  0  0  0  0  0
    1.6280   10.8690   21.0120 H   0  0  0  0  0  0  0  0  0  0  0  0
    0.3510   12.6740   20.5020 H   0  0  0  0  0  0  0  0  0  0  0  0
   -1.0140   13.5090   21.8570 C   0  0  2  0  0  0  0  0  0  0  0  0
   -1.2110   13.5220   23.3910 C   0  0  0  0  0  0  0  0  0  0  0  0
   -2.6640   13.9440   23.6440 C   0  0  0  0  0  0  0  0  0  0  0  0
   -3.3400   13.4230   22.4140 C   0  0  0  0  0  0  0  0  0  0  0  0
   -4.6980   13.2240   22.2100 C   0  0  0  0  0  0  0  0  0  0  0  0
   -5.1240   12.7650   20.9590 C   0  0  0  0  0  0  0  0  0  0  0  0
   -4.1950   12.5300   19.9310 C   0  0  0  0  0  0  0  0  0  0  0  0
   -2.8290   12.7490   20.1430 C   0  0  0  0  0  0  0  0  0  0  0  0
   -2.4100   13.1840   21.3950 C   0  0  0  0  0  0  0  0  0  0  0  0
   -0.7190   14.5030   21.5000 H   0  0  0  0  0  0  0  0  0  0  0  0
   -0.4970   14.1820   23.8980 H   0  0  0  0  0  0  0  0  0  0  0  0
   -1.0530   12.5150   23.8060 H   0  0  0  0  0  0  0  0  0  0  0  0
   -3.0510   13.4950   24.5640 H   0  0  0  0  0  0  0  0  0  0  0  0
   -2.7560   15.0340   23.6930 H   0  0  0  0  0  0  0  0  0  0  0  0
   -5.4160   13.4160   22.9990 H   0  0  0  0  0  0  0  0  0  0  0  0
   -6.1850   12.5930   20.7790 H   0  0  0  0  0  0  0  0  0  0  0  0
   -4.5440   12.1820   18.9600 H   0  0  0  0  0  0  0  0  0  0  0  0
   -2.1120   12.5870   19.3410 H   0  0  0  0  0  0  0  0  0  0  0  0
    3.2630    5.9440   17.3730 O   0  0  0  0  0  0  0  0  0  0  0  0
    3.7020    4.6520   17.8090 C   0  0  1  0  0  0  0  0  0  0  0  0
    3.6530    4.5770   18.9030 H   0  0  0  0  0  0  0  0  0  0  0  0
    2.7060    3.6360   17.2560 C   0  0  0  0  0  0  0  0  0  0  0  0
    1.9060    4.1540   16.7230 H   0  0  0  0  0  0  0  0  0  0  0  0
    2.2590    3.0380   18.0520 H   0  0  0  0  0  0  0  0  0  0  0  0
    3.1700    2.9650   16.5230 H   0  0  0  0  0  0  0  0  0  0  0  0
    5.1420    4.3570   17.3520 C   0  0  0  0  0  0  0  0  0  0  0  0
    5.1390    4.2610   16.2590 H   0  0  0  0  0  0  0  0  0  0  0  0
    5.4590    3.3840   17.7330 H   0  0  0  0  0  0  0  0  0  0  0  0
    6.1980    5.3560   17.7670 C   0  0  0  0  0  0  0  0  0  0  0  0
    6.4200    6.5220   17.0050 C   0  0  0  0  0  0  0  0  0  0  0  0
    7.4030    7.4380   17.3850 C   0  0  0  0  0  0  0  0  0  0  0  0
    8.1750    7.2020   18.5310 C   0  0  0  0  0  0  0  0  0  0  0  0
    7.9640    6.0460   19.2950 C   0  0  0  0  0  0  0  0  0  0  0  0
    6.9860    5.1270   18.9120 C   0  0  0  0  0  0  0  0  0  0  0  0
    5.8330    6.7300   16.1050 H   0  0  0  0  0  0  0  0  0  0  0  0
    7.5610    8.3350   16.7790 H   0  0  0  0  0  0  0  0  0  0  0  0
    8.9340    7.9180   18.8300 H   0  0  0  0  0  0  0  0  0  0  0  0
    8.5610    5.8560   20.1930 H   0  0  0  0  0  0  0  0  0  0  0  0
    6.8430    4.2310   19.5190 H   0  0  0  0  0  0  0  0  0  0  0  0
  1  2  1  0  0  0  0
  2  7  1  0  0  0  0
  2  3  2  0  0  0  0
  3  8  1  0  0  0  0
  4  3  1  0  0  0  0
  4 15  1  0  0  0  0
  5  4  2  0  0  0  0
  6  1  2  0  0  0  0
  6  5  1  0  0  0  0
  9  6  1  0  0  0  0
 10 12  2  0  0  0  0
 10  5  1  0  0  0  0
 11 14  1  0  0  0  0
 11 10  1  0  0  0  0
 13 11  1  0  0  0  0
 15 16  1  0  0  0  0
 15 17  1  0  0  0  0
 18 15  1  0  0  0  0
 18 19  1  0  0  0  0
 19 20  2  0  0  0  0
 21 19  1  0  0  0  0
 21 24  1  0  0  0  0
 22 18  1  0  0  0  0
 23 21  1  0  0  0  0
 24 33  1  6  0  0  0
 24 25  1  0  0  0  0
 25 26  1  0  0  0  0
 25 35  1  0  0  0  0
 25 34  1  0  0  0  0
 26 37  1  0  0  0  0
 26 36  1  0  0  0  0
 27 26  1  0  0  0  0
 28 27  1  0  0  0  0
 28 38  1  0  0  0  0
 29 28  2  0  0  0  0
 30 31  2  0  0  0  0
 30 29  1  0  0  0  0
 31 32  1  0  0  0  0
 32 24  1  0  0  0  0
 32 27  2  0  0  0  0
 39 29  1  0  0  0  0
 40 30  1  0  0  0  0
 41 31  1  0  0  0  0
 42 43  1  0  0  0  0
 42  1  1  0  0  0  0
 43 44  1  1  0  0  0
 45 43  1  0  0  0  0
 45 47  1  0  0  0  0
 46 45  1  0  0  0  0
 48 45  1  0  0  0  0
 49 51  1  0  0  0  0
 49 52  1  0  0  0  0
 49 43  1  0  0  0  0
 50 49  1  0  0  0  0
 52 57  1  0  0  0  0
 53 54  1  0  0  0  0
 53 52  2  0  0  0  0
 54 55  2  0  0  0  0
 55 60  1  0  0  0  0
 55 56  1  0  0  0  0
 56 61  1  0  0  0  0
 57 56  2  0  0  0  0
 57 62  1  0  0  0  0
 58 53  1  0  0  0  0
 59 54  1  0  0  0  0
M  END
>  <MODEL>
31

>  <REMARK>
 VINA RESULT:    -7.014      1.865      3.599
 INTER + INTRA:         -11.195
 INTER:                 -11.910
 INTRA:                   0.716
 UNBOUND:                -0.695
  Name = 
  9 active torsions:
  status: ('A' for Active; 'I' for Inactive)
    1  A    between atoms: C_1  and  C_2
    2  A    between atoms: C_2  and  C_3
    3  A    between atoms: C_2  and  O_10
    4  A    between atoms: C_3  and  C_4
    5  A    between atoms: O_10  and  C_11
    6  A    between atoms: C_14  and  C_15
    7  A    between atoms: C_15  and  N_16
    8  A    between atoms: N_19  and  C_20
    9  A    between atoms: C_29  and  C_30
                            x       y       z     vdW  Elec       q    Type
                         _______ _______ _______ _____ _____    ______ ____

>  <TORSDO>
F 9

$$$$
=
 OpenBabel07192307433D

 62 65  0  0  1  0  0  0  0  0999 V2000
   -1.4100   11.4310   20.0170 C   0  0  0  0  0  0  0  0  0  0  0  0
   -1.0420   11.6180   18.6760 C   0  0  0  0  0  0  0  0  0  0  0  0
    0.0850   10.9810   18.1480 C   0  0  0  0  0  0  0  0  0  0  0  0
    0.8520   10.1180   18.9540 C   0  0  0  0  0  0  0  0  0  0  0  0
    0.4350    9.8860   20.2830 C   0  0  0  0  0  0  0  0  0  0  0  0
   -0.6770   10.5540   20.8180 C   0  0  0  0  0  0  0  0  0  0  0  0
   -1.6490   12.2560   18.0310 H   0  0  0  0  0  0  0  0  0  0  0  0
    0.3460   11.1360   17.0930 H   0  0  0  0  0  0  0  0  0  0  0  0
   -0.9920   10.3180   21.8310 H   0  0  0  0  0  0  0  0  0  0  0  0
    1.0810    8.8430   21.1110 C   0  0  0  0  0  0  0  0  0  0  0  0
    1.9920    9.2850   22.0260 N   0  0  0  0  0  0  0  0  0  0  0  0
    0.7970    7.6630   20.9660 O   0  0  0  0  0  0  0  0  0  0  0  0
    2.5280    8.5650   22.4940 H   0  0  0  0  0  0  0  0  0  0  0  0
    2.4010   10.2010   21.9530 H   0  0  0  0  0  0  0  0  0  0  0  0
    2.0610    9.4370   18.3690 C   0  0  0  0  0  0  0  0  0  0  0  0
    2.4420   10.0180   17.5190 H   0  0  0  0  0  0  0  0  0  0  0  0
    2.8810    9.3840   19.0930 H   0  0  0  0  0  0  0  0  0  0  0  0
    1.7390    8.1040   17.9250 N   0  0  0  0  0  0  0  0  0  0  0  0
    2.5250    7.0590   18.3280 C   0  0  0  0  0  0  0  0  0  0  0  0
    3.5570    7.1790   18.9760 O   0  0  0  0  0  0  0  0  0  0  0  0
    2.0260    5.8690   17.8770 N   0  0  0  0  0  0  0  0  0  0  0  0
    0.7430    7.8870   17.8910 H   0  0  0  0  0  0  0  0  0  0  0  0
    1.4890    5.9310   17.0170 H   0  0  0  0  0  0  0  0  0  0  0  0
    2.7890    4.6540   18.0550 C   0  0  2  0  0  0  0  0  0  0  0  0
    2.4180    3.5590   17.0270 C   0  0  0  0  0  0  0  0  0  0  0  0
    2.6390    2.2100   17.7240 C   0  0  0  0  0  0  0  0  0  0  0  0
    2.3700    2.5690   19.1520 C   0  0  0  0  0  0  0  0  0  0  0  0
    2.1080    1.7100   20.2100 C   0  0  0  0  0  0  0  0  0  0  0  0
    1.9250    2.2570   21.4840 C   0  0  0  0  0  0  0  0  0  0  0  0
    2.0240    3.6450   21.6850 C   0  0  0  0  0  0  0  0  0  0  0  0
    2.3040    4.5010   20.6140 C   0  0  0  0  0  0  0  0  0  0  0  0
    2.4630    3.9520   19.3460 C   0  0  0  0  0  0  0  0  0  0  0  0
    3.8610    4.8780   18.0060 H   0  0  0  0  0  0  0  0  0  0  0  0
    2.9970    3.6430   16.1000 H   0  0  0  0  0  0  0  0  0  0  0  0
    1.3590    3.6450   16.7410 H   0  0  0  0  0  0  0  0  0  0  0  0
    1.9510    1.4500   17.3400 H   0  0  0  0  0  0  0  0  0  0  0  0
    3.6730    1.8700   17.6080 H   0  0  0  0  0  0  0  0  0  0  0  0
    2.0430    0.6390   20.0560 H   0  0  0  0  0  0  0  0  0  0  0  0
    1.7100    1.6020   22.3280 H   0  0  0  0  0  0  0  0  0  0  0  0
    1.8890    4.0540   22.6850 H   0  0  0  0  0  0  0  0  0  0  0  0
    2.4020    5.5730   20.7730 H   0  0  0  0  0  0  0  0  0  0  0  0
   -2.5520   12.0710   20.4030 O   0  0  0  0  0  0  0  0  0  0  0  0
   -2.5590   13.5030   20.3910 C   0  0  1  0  0  0  0  0  0  0  0  0
   -2.4170   13.8810   19.3700 H   0  0  0  0  0  0  0  0  0  0  0  0
   -3.9540   13.9440   20.8290 C   0  0  0  0  0  0  0  0  0  0  0  0
   -4.0200   13.9330   21.9200 H   0  0  0  0  0  0  0  0  0  0  0  0
   -4.7270   13.2850   20.4310 H   0  0  0  0  0  0  0  0  0  0  0  0
   -4.1710   14.9750   20.5250 H   0  0  0  0  0  0  0  0  0  0  0  0
   -1.4590   14.0850   21.2960 C   0  0  0  0  0  0  0  0  0  0  0  0
   -1.3490   13.4240   22.1650 H   0  0  0  0  0  0  0  0  0  0  0  0
   -1.7800   15.0490   21.6970 H   0  0  0  0  0  0  0  0  0  0  0  0
   -0.1070   14.3040   20.6560 C   0  0  0  0  0  0  0  0  0  0  0  0
    1.0600   13.7810   21.2500 C   0  0  0  0  0  0  0  0  0  0  0  0
    2.3090   13.9940   20.6610 C   0  0  0  0  0  0  0  0  0  0  0  0
    2.4070   14.7290   19.4730 C   0  0  0  0  0  0  0  0  0  0  0  0
    1.2540   15.2560   18.8740 C   0  0  0  0  0  0  0  0  0  0  0  0
    0.0070   15.0490   19.4650 C   0  0  0  0  0  0  0  0  0  0  0  0
    1.0130   13.2030   22.1790 H   0  0  0  0  0  0  0  0  0  0  0  0
    3.2020   13.5800   21.1390 H   0  0  0  0  0  0  0  0  0  0  0  0
    3.3770   14.8880   19.0120 H   0  0  0  0  0  0  0  0  0  0  0  0
    1.3220   15.8300   17.9440 H   0  0  0  0  0  0  0  0  0  0  0  0
   -0.8770   15.4730   18.9860 H   0  0  0  0  0  0  0  0  0  0  0  0
  1 42  1  0  0  0  0
  1  6  1  0  0  0  0
  2  1  2  0  0  0  0
  3  2  1  0  0  0  0
  3  4  2  0  0  0  0
  4  5  1  0  0  0  0
  5  6  2  0  0  0  0
  5 10  1  0  0  0  0
  6  9  1  0  0  0  0
  7  2  1  0  0  0  0
  8  3  1  0  0  0  0
 10 11  1  0  0  0  0
 11 13  1  0  0  0  0
 12 10  2  0  0  0  0
 14 11  1  0  0  0  0
 15  4  1  0  0  0  0
 15 17  1  0  0  0  0
 16 15  1  0  0  0  0
 18 19  1  0  0  0  0
 18 15  1  0  0  0  0
 19 20  2  0  0  0  0
 21 24  1  0  0  0  0
 21 19  1  0  0  0  0
 22 18  1  0  0  0  0
 23 21  1  0  0  0  0
 24 33  1  6  0  0  0
 24 32  1  0  0  0  0
 25 26  1  0  0  0  0
 25 24  1  0  0  0  0
 26 27  1  0  0  0  0
 27 32  2  0  0  0  0
 27 28  1  0  0  0  0
 28 29  2  0  0  0  0
 29 30  1  0  0  0  0
 29 39  1  0  0  0  0
 30 40  1  0  0  0  0
 31 41  1  0  0  0  0
 31 30  2  0  0  0  0
 32 31  1  0  0  0  0
 34 25  1  0  0  0  0
 35 25  1  0  0  0  0
 36 26  1  0  0  0  0
 37 26  1  0  0  0  0
 38 28  1  0  0  0  0
 43 44  1  6  0  0  0
 43 42  1  0  0  0  0
 43 45  1  0  0  0  0
 43 49  1  0  0  0  0
 45 46  1  0  0  0  0
 47 45  1  0  0  0  0
 48 45  1  0  0  0  0
 49 51  1  0  0  0  0
 49 50  1  0  0  0  0
 52 53  1  0  0  0  0
 52 49  1  0  0  0  0
 53 58  1  0  0  0  0
 54 59  1  0  0  0  0
 54 53  2  0  0  0  0
 55 54  1  0  0  0  0
 56 57  1  0  0  0  0
 56 55  2  0  0  0  0
 57 52  2  0  0  0  0
 60 55  1  0  0  0  0
 61 56  1  0  0  0  0
 62 57  1  0  0  0  0
M  END
>  <MODEL>
32

>  <REMARK>
 VINA RESULT:    -6.965      2.176      9.584
 INTER + INTRA:         -11.121
 INTER:                  -9.237
 INTRA:                  -1.884
 UNBOUND:                -0.695
  Name = 
  9 active torsions:
  status: ('A' for Active; 'I' for Inactive)
    1  A    between atoms: C_1  and  C_2
    2  A    between atoms: C_2  and  C_3
    3  A    between atoms: C_2  and  O_10
    4  A    between atoms: C_3  and  C_4
    5  A    between atoms: O_10  and  C_11
    6  A    between atoms: C_14  and  C_15
    7  A    between atoms: C_15  and  N_16
    8  A    between atoms: N_19  and  C_20
    9  A    between atoms: C_29  and  C_30
                            x       y       z     vdW  Elec       q    Type
                         _______ _______ _______ _____ _____    ______ ____

>  <TORSDO>
F 9

$$$$
=
 OpenBabel07192307433D

 62 65  0  0  1  0  0  0  0  0999 V2000
    0.8540   12.6240   20.9650 C   0  0  0  0  0  0  0  0  0  0  0  0
    0.8170   12.8400   19.5790 C   0  0  0  0  0  0  0  0  0  0  0  0
    0.7900   11.7630   18.6880 C   0  0  0  0  0  0  0  0  0  0  0  0
    0.7730   10.4410   19.1770 C   0  0  0  0  0  0  0  0  0  0  0  0
    0.7450   10.2380   20.5740 C   0  0  0  0  0  0  0  0  0  0  0  0
    0.8060   11.3220   21.4630 C   0  0  0  0  0  0  0  0  0  0  0  0
    0.7930   13.8590   19.1880 H   0  0  0  0  0  0  0  0  0  0  0  0
    0.7520   11.9570   17.6090 H   0  0  0  0  0  0  0  0  0  0  0  0
    0.7400   11.1280   22.5310 H   0  0  0  0  0  0  0  0  0  0  0  0
    0.5270    8.8880   21.1410 C   0  0  0  0  0  0  0  0  0  0  0  0
    1.6520    8.1720   21.4300 N   0  0  0  0  0  0  0  0  0  0  0  0
   -0.6040    8.4650   21.3310 O   0  0  0  0  0  0  0  0  0  0  0  0
    1.5020    7.2050   21.6880 H   0  0  0  0  0  0  0  0  0  0  0  0
    2.5420    8.4180   21.0310 H   0  0  0  0  0  0  0  0  0  0  0  0
    0.7420    9.2920   18.2050 C   0  0  0  0  0  0  0  0  0  0  0  0
    0.1590    8.4630   18.6270 H   0  0  0  0  0  0  0  0  0  0  0  0
    0.2430    9.5700   17.2700 H   0  0  0  0  0  0  0  0  0  0  0  0
    2.0740    8.8310   17.9070 N   0  0  0  0  0  0  0  0  0  0  0  0
    2.3780    7.5090   18.0860 C   0  0  0  0  0  0  0  0  0  0  0  0
    1.6170    6.6850   18.5760 O   0  0  0  0  0  0  0  0  0  0  0  0
    3.6560    7.2410   17.6820 N   0  0  0  0  0  0  0  0  0  0  0  0
    2.5050    9.2490   17.0820 H   0  0  0  0  0  0  0  0  0  0  0  0
    4.2970    8.0260   17.7460 H   0  0  0  0  0  0  0  0  0  0  0  0
    4.2330    5.9390   17.9320 C   0  0  2  0  0  0  0  0  0  0  0  0
    5.1330    5.9140   19.1890 C   0  0  0  0  0  0  0  0  0  0  0  0
    6.2200    4.8620   18.9310 C   0  0  0  0  0  0  0  0  0  0  0  0
    6.3470    4.9310   17.4410 C   0  0  0  0  0  0  0  0  0  0  0  0
    7.3800    4.4450   16.6520 C   0  0  0  0  0  0  0  0  0  0  0  0
    7.2790    4.5770   15.2640 C   0  0  0  0  0  0  0  0  0  0  0  0
    6.1460    5.1740   14.6850 C   0  0  0  0  0  0  0  0  0  0  0  0
    5.1020    5.6470   15.4890 C   0  0  0  0  0  0  0  0  0  0  0  0
    5.2190    5.5320   16.8690 C   0  0  0  0  0  0  0  0  0  0  0  0
    3.4360    5.1900   18.0150 H   0  0  0  0  0  0  0  0  0  0  0  0
    4.5670    5.7040   20.1040 H   0  0  0  0  0  0  0  0  0  0  0  0
    5.6120    6.8940   19.3370 H   0  0  0  0  0  0  0  0  0  0  0  0
    7.1490    5.1190   19.4490 H   0  0  0  0  0  0  0  0  0  0  0  0
    5.8850    3.8660   19.2360 H   0  0  0  0  0  0  0  0  0  0  0  0
    8.2490    3.9740   17.0990 H   0  0  0  0  0  0  0  0  0  0  0  0
    8.0830    4.2110   14.6260 H   0  0  0  0  0  0  0  0  0  0  0  0
    6.0780    5.2610   13.6020 H   0  0  0  0  0  0  0  0  0  0  0  0
    4.2150    6.0900   15.0400 H   0  0  0  0  0  0  0  0  0  0  0  0
    0.8340   13.7550   21.7310 O   0  0  0  0  0  0  0  0  0  0  0  0
   -0.3730   14.0690   22.4360 C   0  0  1  0  0  0  0  0  0  0  0  0
   -0.1440   14.5400   23.4020 H   0  0  0  0  0  0  0  0  0  0  0  0
   -1.1110   15.1160   21.6050 C   0  0  0  0  0  0  0  0  0  0  0  0
   -1.3280   15.9920   22.2220 H   0  0  0  0  0  0  0  0  0  0  0  0
   -2.0520   14.7290   21.2140 H   0  0  0  0  0  0  0  0  0  0  0  0
   -0.5000   15.4810   20.7710 H   0  0  0  0  0  0  0  0  0  0  0  0
   -1.2320   12.8170   22.6820 C   0  0  0  0  0  0  0  0  0  0  0  0
   -1.3360   12.6830   23.7660 H   0  0  0  0  0  0  0  0  0  0  0  0
   -0.7050   11.9300   22.3240 H   0  0  0  0  0  0  0  0  0  0  0  0
   -2.6010   12.8030   22.0390 C   0  0  0  0  0  0  0  0  0  0  0  0
   -3.7580   13.0180   22.8150 C   0  0  0  0  0  0  0  0  0  0  0  0
   -5.0220   12.9940   22.2210 C   0  0  0  0  0  0  0  0  0  0  0  0
   -5.1450   12.7590   20.8450 C   0  0  0  0  0  0  0  0  0  0  0  0
   -4.0010   12.5430   20.0630 C   0  0  0  0  0  0  0  0  0  0  0  0
   -2.7390   12.5600   20.6580 C   0  0  0  0  0  0  0  0  0  0  0  0
   -3.6920   13.2030   23.8920 H   0  0  0  0  0  0  0  0  0  0  0  0
   -5.9080   13.1610   22.8410 H   0  0  0  0  0  0  0  0  0  0  0  0
   -6.1270   12.7480   20.3820 H   0  0  0  0  0  0  0  0  0  0  0  0
   -4.0880   12.3610   18.9870 H   0  0  0  0  0  0  0  0  0  0  0  0
   -1.8620   12.3830   20.0320 H   0  0  0  0  0  0  0  0  0  0  0  0
  1  6  1  0  0  0  0
  1 42  1  0  0  0  0
  2  1  2  0  0  0  0
  3  4  2  0  0  0  0
  3  2  1  0  0  0  0
  4  5  1  0  0  0  0
  5 10  1  0  0  0  0
  5  6  2  0  0  0  0
  6  9  1  0  0  0  0
  7  2  1  0  0  0  0
  8  3  1  0  0  0  0
 10 12  2  0  0  0  0
 10 11  1  0  0  0  0
 11 13  1  0  0  0  0
 14 11  1  0  0  0  0
 15 16  1  0  0  0  0
 15  4  1  0  0  0  0
 17 15  1  0  0  0  0
 18 19  1  0  0  0  0
 18 15  1  0  0  0  0
 19 20  2  0  0  0  0
 21 23  1  0  0  0  0
 21 24  1  0  0  0  0
 21 19  1  0  0  0  0
 22 18  1  0  0  0  0
 24 33  1  1  0  0  0
 24 25  1  0  0  0  0
 25 35  1  0  0  0  0
 25 34  1  0  0  0  0
 26 25  1  0  0  0  0
 26 37  1  0  0  0  0
 26 36  1  0  0  0  0
 27 26  1  0  0  0  0
 28 38  1  0  0  0  0
 28 27  2  0  0  0  0
 29 28  1  0  0  0  0
 30 29  2  0  0  0  0
 30 31  1  0  0  0  0
 31 32  2  0  0  0  0
 32 27  1  0  0  0  0
 32 24  1  0  0  0  0
 39 29  1  0  0  0  0
 40 30  1  0  0  0  0
 41 31  1  0  0  0  0
 42 43  1  0  0  0  0
 43 49  1  0  0  0  0
 43 44  1  1  0  0  0
 45 46  1  0  0  0  0
 45 43  1  0  0  0  0
 47 45  1  0  0  0  0
 48 45  1  0  0  0  0
 49 50  1  0  0  0  0
 51 49  1  0  0  0  0
 52 49  1  0  0  0  0
 52 53  1  0  0  0  0
 53 58  1  0  0  0  0
 54 53  2  0  0  0  0
 54 59  1  0  0  0  0
 55 54  1  0  0  0  0
 56 57  1  0  0  0  0
 56 55  2  0  0  0  0
 57 52  2  0  0  0  0
 60 55  1  0  0  0  0
 61 56  1  0  0  0  0
 62 57  1  0  0  0  0
M  END
>  <MODEL>
33

>  <REMARK>
 VINA RESULT:    -6.949      2.500     10.023
 INTER + INTRA:         -11.097
 INTER:                 -10.000
 INTRA:                  -1.098
 UNBOUND:                -0.695
  Name = 
  9 active torsions:
  status: ('A' for Active; 'I' for Inactive)
    1  A    between atoms: C_1  and  C_2
    2  A    between atoms: C_2  and  C_3
    3  A    between atoms: C_2  and  O_10
    4  A    between atoms: C_3  and  C_4
    5  A    between atoms: O_10  and  C_11
    6  A    between atoms: C_14  and  C_15
    7  A    between atoms: C_15  and  N_16
    8  A    between atoms: N_19  and  C_20
    9  A    between atoms: C_29  and  C_30
                            x       y       z     vdW  Elec       q    Type
                         _______ _______ _______ _____ _____    ______ ____

>  <TORSDO>
F 9

$$$$
