=
 OpenBabel07192307433D

 54 57  0  0  1  0  0  0  0  0999 V2000
   -0.3080   10.8750   19.7970 C   0  0  0  0  0  0  0  0  0  0  0  0
   -0.4460   11.2580   21.1370 C   0  0  0  0  0  0  0  0  0  0  0  0
    0.0980   10.4780   22.1550 C   0  0  0  0  0  0  0  0  0  0  0  0
    0.7900    9.3020   21.8510 C   0  0  0  0  0  0  0  0  0  0  0  0
    0.9450    8.9010   20.5260 C   0  0  0  0  0  0  0  0  0  0  0  0
    0.3950    9.6920   19.5060 C   0  0  0  0  0  0  0  0  0  0  0  0
   -0.9750   12.1720   21.4040 H   0  0  0  0  0  0  0  0  0  0  0  0
   -0.0110   10.7830   23.1930 H   0  0  0  0  0  0  0  0  0  0  0  0
    1.2000    8.7250   22.6730 H   0  0  0  0  0  0  0  0  0  0  0  0
    0.5170    9.3900   18.4690 H   0  0  0  0  0  0  0  0  0  0  0  0
    1.6290    7.7370   20.1360 N   0  0  0  0  0  0  0  0  0  0  0  0
    2.4000    7.5310   19.0080 C   0  0  0  0  0  0  0  0  0  0  0  0
    2.6480    8.3340   18.1170 O   0  0  0  0  0  0  0  0  0  0  0  0
    1.5580    6.9240   20.7440 H   0  0  0  0  0  0  0  0  0  0  0  0
    2.9690    6.1430   18.9390 C   0  0  0  0  0  0  0  0  0  0  0  0
    3.8390    5.7970   17.9120 C   0  0  0  0  0  0  0  0  0  0  0  0
    4.3730    4.5000   17.8490 C   0  0  0  0  0  0  0  0  0  0  0  0
    3.9650    3.6180   18.8680 C   0  0  0  0  0  0  0  0  0  0  0  0
    3.0850    4.0240   19.8780 C   0  0  0  0  0  0  0  0  0  0  0  0
    2.5800    5.2870   19.9230 N   0  0  0  0  0  0  0  0  0  0  0  0
    4.1040    6.5330   17.1570 H   0  0  0  0  0  0  0  0  0  0  0  0
    4.3470    2.5960   18.8670 H   0  0  0  0  0  0  0  0  0  0  0  0
    5.3640    4.0650   16.6950 C   0  0  1  0  0  0  0  0  0  0  0  0
    5.4410    4.9290   15.4260 C   0  0  0  0  0  0  0  0  0  0  0  0
    6.9490    4.8730   15.6420 C   0  0  0  0  0  0  0  0  0  0  0  0
    6.7720    4.3320   16.9730 O   0  0  0  0  0  0  0  0  0  0  0  0
    5.2450    2.9970   16.4640 H   0  0  0  0  0  0  0  0  0  0  0  0
    5.0150    5.9330   15.5140 H   0  0  0  0  0  0  0  0  0  0  0  0
    5.0800    4.4520   14.5110 H   0  0  0  0  0  0  0  0  0  0  0  0
    7.4920    4.1730   14.9990 H   0  0  0  0  0  0  0  0  0  0  0  0
    7.4560    5.8400   15.6580 H   0  0  0  0  0  0  0  0  0  0  0  0
    2.6900    3.0170   20.9520 C   0  0  0  0  0  0  0  0  0  0  0  0
    1.6730    2.1890   20.5790 F   0  0  0  0  0  0  0  0  0  0  0  0
    2.2750    3.6170   22.1050 F   0  0  0  0  0  0  0  0  0  0  0  0
    3.7220    2.2010   21.3110 F   0  0  0  0  0  0  0  0  0  0  0  0
   -0.9000   11.7030   18.6650 C   0  0  2  0  0  0  0  0  0  0  0  0
   -0.4240   11.3840   17.7270 H   0  0  0  0  0  0  0  0  0  0  0  0
   -0.5640   13.1880   18.8500 C   0  0  0  0  0  0  0  0  0  0  0  0
    0.3480   13.3100   19.4450 H   0  0  0  0  0  0  0  0  0  0  0  0
   -1.3690   13.7280   19.3620 H   0  0  0  0  0  0  0  0  0  0  0  0
   -0.3950   13.6780   17.8860 H   0  0  0  0  0  0  0  0  0  0  0  0
   -2.4190   11.4560   18.5470 C   0  0  0  0  0  0  0  0  0  0  0  0
   -2.9730   12.3860   18.7260 H   0  0  0  0  0  0  0  0  0  0  0  0
   -2.7500   10.7550   19.3230 H   0  0  0  0  0  0  0  0  0  0  0  0
   -2.8030   10.9220   17.2090 C   0  0  0  0  0  0  0  0  0  0  0  0
   -2.0690   10.1400   16.4410 N   0  0  0  0  0  0  0  0  0  0  0  0
   -2.7830    9.8700   15.2980 N   0  0  0  0  0  0  0  0  0  0  0  0
   -3.9310   10.4960   15.3890 C   0  0  0  0  0  0  0  0  0  0  0  0
   -3.9880   11.1700   16.5690 N   0  0  0  0  0  0  0  0  0  0  0  0
   -4.7200   10.4900   14.6500 H   0  0  0  0  0  0  0  0  0  0  0  0
   -5.0830   11.9790   17.0320 C   0  0  0  0  0  0  0  0  0  0  0  0
   -6.0030   11.6210   16.5630 H   0  0  0  0  0  0  0  0  0  0  0  0
   -5.1670   11.8950   18.1190 H   0  0  0  0  0  0  0  0  0  0  0  0
   -4.8920   13.0190   16.7600 H   0  0  0  0  0  0  0  0  0  0  0  0
  1  2  1  0  0  0  0
  2  7  1  0  0  0  0
  2  3  2  0  0  0  0
  3  8  1  0  0  0  0
  4  3  1  0  0  0  0
  4  9  1  0  0  0  0
  5  4  2  0  0  0  0
  6  1  2  0  0  0  0
  6  5  1  0  0  0  0
 10  6  1  0  0  0  0
 11  5  1  0  0  0  0
 11 14  1  0  0  0  0
 12 11  1  0  0  0  0
 13 12  2  0  0  0  0
 15 12  1  0  0  0  0
 15 20  1  0  0  0  0
 16 15  2  0  0  0  0
 17 16  1  0  0  0  0
 17 18  2  0  0  0  0
 18 19  1  0  0  0  0
 19 20  2  0  0  0  0
 19 32  1  0  0  0  0
 21 16  1  0  0  0  0
 22 18  1  0  0  0  0
 23 27  1  6  0  0  0
 23 26  1  0  0  0  0
 23 17  1  0  0  0  0
 24 28  1  0  0  0  0
 24 25  1  0  0  0  0
 24 23  1  0  0  0  0
 25 31  1  0  0  0  0
 25 26  1  0  0  0  0
 29 24  1  0  0  0  0
 30 25  1  0  0  0  0
 32 35  1  0  0  0  0
 32 34  1  0  0  0  0
 33 32  1  0  0  0  0
 36 37  1  6  0  0  0
 36 38  1  0  0  0  0
 36  1  1  0  0  0  0
 38 40  1  0  0  0  0
 38 39  1  0  0  0  0
 41 38  1  0  0  0  0
 42 36  1  0  0  0  0
 42 43  1  0  0  0  0
 42 44  1  0  0  0  0
 45 42  1  0  0  0  0
 46 45  2  0  0  0  0
 47 48  2  0  0  0  0
 47 46  1  0  0  0  0
 48 49  1  0  0  0  0
 49 51  1  0  0  0  0
 49 45  1  0  0  0  0
 50 48  1  0  0  0  0
 51 53  1  0  0  0  0
 52 51  1  0  0  0  0
 54 51  1  0  0  0  0
M  END
>  <MODEL>
1

>  <REMARK>
 VINA RESULT:    -8.602      0.000      0.000
 INTER + INTRA:         -13.533
 INTER:                 -12.749
 INTRA:                  -0.784
 UNBOUND:                -0.909
  Name = 
  9 active torsions:
  status: ('A' for Active; 'I' for Inactive)
    1  A    between atoms: C_1  and  C_2
    2  A    between atoms: C_2  and  C_3
    3  A    between atoms: C_2  and  C_10
    4  A    between atoms: C_3  and  C_4
    5  A    between atoms: N_8  and  C_9
    6  A    between atoms: C_14  and  N_15
    7  A    between atoms: C_16  and  C_18
    8  A    between atoms: C_20  and  C_21
    9  A    between atoms: C_26  and  C_27
                            x       y       z     vdW  Elec       q    Type
                         _______ _______ _______ _____ _____    ______ ____

>  <TORSDO>
F 9

$$$$
=
 OpenBabel07192307433D

 54 57  0  0  1  0  0  0  0  0999 V2000
   -0.3830   11.4980   18.5400 C   0  0  0  0  0  0  0  0  0  0  0  0
    0.4260   12.6420   18.5600 C   0  0  0  0  0  0  0  0  0  0  0  0
    1.8040   12.5350   18.3820 C   0  0  0  0  0  0  0  0  0  0  0  0
    2.3960   11.2860   18.1810 C   0  0  0  0  0  0  0  0  0  0  0  0
    1.6130   10.1340   18.1530 C   0  0  0  0  0  0  0  0  0  0  0  0
    0.2270   10.2490   18.3320 C   0  0  0  0  0  0  0  0  0  0  0  0
   -0.0080   13.6290   18.7090 H   0  0  0  0  0  0  0  0  0  0  0  0
    2.4250   13.4280   18.3960 H   0  0  0  0  0  0  0  0  0  0  0  0
    3.4720   11.2480   18.0440 H   0  0  0  0  0  0  0  0  0  0  0  0
   -0.3920    9.3550   18.3050 H   0  0  0  0  0  0  0  0  0  0  0  0
    2.1290    8.8420   17.9520 N   0  0  0  0  0  0  0  0  0  0  0  0
    2.2750    7.8220   18.8720 C   0  0  0  0  0  0  0  0  0  0  0  0
    1.9730    7.8400   20.0590 O   0  0  0  0  0  0  0  0  0  0  0  0
    2.4510    8.6050   17.0150 H   0  0  0  0  0  0  0  0  0  0  0  0
    2.8740    6.5810   18.2750 C   0  0  0  0  0  0  0  0  0  0  0  0
    4.0190    6.6670   17.4930 C   0  0  0  0  0  0  0  0  0  0  0  0
    4.5810    5.5070   16.9370 C   0  0  0  0  0  0  0  0  0  0  0  0
    3.9100    4.3030   17.2240 C   0  0  0  0  0  0  0  0  0  0  0  0
    2.7590    4.2780   18.0210 C   0  0  0  0  0  0  0  0  0  0  0  0
    2.2320    5.4140   18.5520 N   0  0  0  0  0  0  0  0  0  0  0  0
    4.4770    7.6370   17.3110 H   0  0  0  0  0  0  0  0  0  0  0  0
    4.3010    3.3700   16.8160 H   0  0  0  0  0  0  0  0  0  0  0  0
    5.8810    5.5620   16.0380 C   0  0  1  0  0  0  0  0  0  0  0  0
    6.8820    4.3970   16.1190 C   0  0  0  0  0  0  0  0  0  0  0  0
    6.8050    4.4040   14.5970 C   0  0  0  0  0  0  0  0  0  0  0  0
    5.6520    5.2800   14.6240 O   0  0  0  0  0  0  0  0  0  0  0  0
    6.3740    6.5410   16.1280 H   0  0  0  0  0  0  0  0  0  0  0  0
    6.5010    3.4820   16.5810 H   0  0  0  0  0  0  0  0  0  0  0  0
    7.8590    4.6480   16.5400 H   0  0  0  0  0  0  0  0  0  0  0  0
    7.6480    4.8750   14.0830 H   0  0  0  0  0  0  0  0  0  0  0  0
    6.5750    3.4400   14.1360 H   0  0  0  0  0  0  0  0  0  0  0  0
    2.0880    2.9370   18.2940 C   0  0  0  0  0  0  0  0  0  0  0  0
    0.7310    3.0150   18.4060 F   0  0  0  0  0  0  0  0  0  0  0  0
    2.5220    2.3610   19.4530 F   0  0  0  0  0  0  0  0  0  0  0  0
    2.3280    2.0200   17.3120 F   0  0  0  0  0  0  0  0  0  0  0  0
   -1.8900   11.5830   18.7410 C   0  0  2  0  0  0  0  0  0  0  0  0
   -2.2680   12.4060   18.1190 H   0  0  0  0  0  0  0  0  0  0  0  0
   -2.2210   11.9380   20.1960 C   0  0  0  0  0  0  0  0  0  0  0  0
   -2.6910   11.0900   20.7070 H   0  0  0  0  0  0  0  0  0  0  0  0
   -2.9100   12.7880   20.2620 H   0  0  0  0  0  0  0  0  0  0  0  0
   -1.3160   12.1980   20.7550 H   0  0  0  0  0  0  0  0  0  0  0  0
   -2.5740   10.2770   18.2860 C   0  0  0  0  0  0  0  0  0  0  0  0
   -3.4850   10.0980   18.8710 H   0  0  0  0  0  0  0  0  0  0  0  0
   -1.9190    9.4180   18.4800 H   0  0  0  0  0  0  0  0  0  0  0  0
   -2.9320   10.3000   16.8380 C   0  0  0  0  0  0  0  0  0  0  0  0
   -2.2710    9.7120   15.8620 N   0  0  0  0  0  0  0  0  0  0  0  0
   -2.9280    9.9710   14.6830 N   0  0  0  0  0  0  0  0  0  0  0  0
   -3.9700   10.7160   14.9630 C   0  0  0  0  0  0  0  0  0  0  0  0
   -4.0130   10.9500   16.3020 N   0  0  0  0  0  0  0  0  0  0  0  0
   -4.6910   11.0950   14.2530 H   0  0  0  0  0  0  0  0  0  0  0  0
   -5.0020   11.7290   16.9960 C   0  0  0  0  0  0  0  0  0  0  0  0
   -5.7140   11.0460   17.4660 H   0  0  0  0  0  0  0  0  0  0  0  0
   -4.5160   12.3380   17.7630 H   0  0  0  0  0  0  0  0  0  0  0  0
   -5.5070   12.3780   16.2780 H   0  0  0  0  0  0  0  0  0  0  0  0
  1  2  1  0  0  0  0
  1 36  1  0  0  0  0
  2  7  1  0  0  0  0
  3  8  1  0  0  0  0
  3  2  2  0  0  0  0
  4  3  1  0  0  0  0
  5  4  2  0  0  0  0
  5  6  1  0  0  0  0
  6  1  2  0  0  0  0
  9  4  1  0  0  0  0
 10  6  1  0  0  0  0
 11  5  1  0  0  0  0
 11 12  1  0  0  0  0
 12 13  2  0  0  0  0
 14 11  1  0  0  0  0
 15 20  1  0  0  0  0
 15 12  1  0  0  0  0
 16 15  2  0  0  0  0
 17 18  2  0  0  0  0
 17 16  1  0  0  0  0
 18 19  1  0  0  0  0
 19 32  1  0  0  0  0
 19 20  2  0  0  0  0
 21 16  1  0  0  0  0
 22 18  1  0  0  0  0
 23 24  1  0  0  0  0
 23 27  1  1  0  0  0
 23 17  1  0  0  0  0
 24 29  1  0  0  0  0
 24 28  1  0  0  0  0
 25 26  1  0  0  0  0
 25 24  1  0  0  0  0
 26 23  1  0  0  0  0
 30 25  1  0  0  0  0
 31 25  1  0  0  0  0
 32 33  1  0  0  0  0
 32 34  1  0  0  0  0
 35 32  1  0  0  0  0
 36 37  1  6  0  0  0
 36 38  1  0  0  0  0
 38 40  1  0  0  0  0
 38 39  1  0  0  0  0
 38 41  1  0  0  0  0
 42 44  1  0  0  0  0
 42 36  1  0  0  0  0
 42 43  1  0  0  0  0
 45 42  1  0  0  0  0
 46 45  2  0  0  0  0
 47 48  2  0  0  0  0
 47 46  1  0  0  0  0
 48 49  1  0  0  0  0
 49 45  1  0  0  0  0
 49 51  1  0  0  0  0
 50 48  1  0  0  0  0
 51 52  1  0  0  0  0
 51 53  1  0  0  0  0
 54 51  1  0  0  0  0
M  END
>  <MODEL>
2

>  <REMARK>
 VINA RESULT:    -8.467      1.753      2.171
 INTER + INTRA:         -13.336
 INTER:                 -12.318
 INTRA:                  -1.017
 UNBOUND:                -0.909
  Name = 
  9 active torsions:
  status: ('A' for Active; 'I' for Inactive)
    1  A    between atoms: C_1  and  C_2
    2  A    between atoms: C_2  and  C_3
    3  A    between atoms: C_2  and  C_10
    4  A    between atoms: C_3  and  C_4
    5  A    between atoms: N_8  and  C_9
    6  A    between atoms: C_14  and  N_15
    7  A    between atoms: C_16  and  C_18
    8  A    between atoms: C_20  and  C_21
    9  A    between atoms: C_26  and  C_27
                            x       y       z     vdW  Elec       q    Type
                         _______ _______ _______ _____ _____    ______ ____

>  <TORSDO>
F 9

$$$$
=
 OpenBabel07192307433D

 54 57  0  0  1  0  0  0  0  0999 V2000
   -0.4010   11.3460   18.7230 C   0  0  0  0  0  0  0  0  0  0  0  0
    0.3780   12.5080   18.6570 C   0  0  0  0  0  0  0  0  0  0  0  0
    1.7390   12.4310   18.3700 C   0  0  0  0  0  0  0  0  0  0  0  0
    2.3450   11.1910   18.1440 C   0  0  0  0  0  0  0  0  0  0  0  0
    1.5910   10.0210   18.2000 C   0  0  0  0  0  0  0  0  0  0  0  0
    0.2210   10.1070   18.4880 C   0  0  0  0  0  0  0  0  0  0  0  0
   -0.0670   13.4870   18.8230 H   0  0  0  0  0  0  0  0  0  0  0  0
    2.3380   13.3370   18.3180 H   0  0  0  0  0  0  0  0  0  0  0  0
    3.4060   11.1760   17.9220 H   0  0  0  0  0  0  0  0  0  0  0  0
   -0.3760    9.1990   18.5270 H   0  0  0  0  0  0  0  0  0  0  0  0
    2.1210    8.7380   17.9810 N   0  0  0  0  0  0  0  0  0  0  0  0
    2.2870    7.7100   18.8890 C   0  0  0  0  0  0  0  0  0  0  0  0
    1.9950    7.7120   20.0780 O   0  0  0  0  0  0  0  0  0  0  0  0
    2.4370    8.5150   17.0390 H   0  0  0  0  0  0  0  0  0  0  0  0
    2.8960    6.4840   18.2730 C   0  0  0  0  0  0  0  0  0  0  0  0
    4.0260    6.5940   17.4720 C   0  0  0  0  0  0  0  0  0  0  0  0
    4.5970    5.4470   16.8990 C   0  0  0  0  0  0  0  0  0  0  0  0
    3.9520    4.2290   17.1900 C   0  0  0  0  0  0  0  0  0  0  0  0
    2.8160    4.1800   18.0060 C   0  0  0  0  0  0  0  0  0  0  0  0
    2.2790    5.3040   18.5540 N   0  0  0  0  0  0  0  0  0  0  0  0
    4.4650    7.5720   17.2880 H   0  0  0  0  0  0  0  0  0  0  0  0
    4.3510    3.3060   16.7690 H   0  0  0  0  0  0  0  0  0  0  0  0
    5.8810    5.5290   15.9780 C   0  0  1  0  0  0  0  0  0  0  0  0
    6.9200    4.3990   16.0610 C   0  0  0  0  0  0  0  0  0  0  0  0
    6.8190    4.3770   14.5400 C   0  0  0  0  0  0  0  0  0  0  0  0
    5.6390    5.2160   14.5730 O   0  0  0  0  0  0  0  0  0  0  0  0
    6.3420    6.5250   16.0440 H   0  0  0  0  0  0  0  0  0  0  0  0
    6.5770    3.4800   16.5440 H   0  0  0  0  0  0  0  0  0  0  0  0
    7.8950    4.6880   16.4620 H   0  0  0  0  0  0  0  0  0  0  0  0
    7.6380    4.8680   14.0050 H   0  0  0  0  0  0  0  0  0  0  0  0
    6.6140    3.3990   14.0990 H   0  0  0  0  0  0  0  0  0  0  0  0
    2.1720    2.8260   18.2830 C   0  0  0  0  0  0  0  0  0  0  0  0
    2.5690    1.8450   17.4220 F   0  0  0  0  0  0  0  0  0  0  0  0
    0.8110    2.8660   18.1960 F   0  0  0  0  0  0  0  0  0  0  0  0
    2.4510    2.3580   19.5330 F   0  0  0  0  0  0  0  0  0  0  0  0
   -1.8890   11.3990   19.0430 C   0  0  2  0  0  0  0  0  0  0  0  0
   -2.1320   10.5290   19.6690 H   0  0  0  0  0  0  0  0  0  0  0  0
   -2.7220   11.2690   17.7620 C   0  0  0  0  0  0  0  0  0  0  0  0
   -3.6050   10.6440   17.9320 H   0  0  0  0  0  0  0  0  0  0  0  0
   -2.1460   10.8160   16.9460 H   0  0  0  0  0  0  0  0  0  0  0  0
   -3.0730   12.2470   17.4190 H   0  0  0  0  0  0  0  0  0  0  0  0
   -2.2290   12.6780   19.8360 C   0  0  0  0  0  0  0  0  0  0  0  0
   -3.1500   13.1340   19.4510 H   0  0  0  0  0  0  0  0  0  0  0  0
   -1.4410   13.4300   19.6990 H   0  0  0  0  0  0  0  0  0  0  0  0
   -2.4010   12.4110   21.2940 C   0  0  0  0  0  0  0  0  0  0  0  0
   -1.4920   11.9130   22.1080 N   0  0  0  0  0  0  0  0  0  0  0  0
   -2.0430   11.8270   23.3640 N   0  0  0  0  0  0  0  0  0  0  0  0
   -3.2750   12.2680   23.2890 C   0  0  0  0  0  0  0  0  0  0  0  0
   -3.5450   12.6440   22.0100 N   0  0  0  0  0  0  0  0  0  0  0  0
   -3.9810   12.3290   24.1060 H   0  0  0  0  0  0  0  0  0  0  0  0
   -4.7910   13.1750   21.5260 C   0  0  0  0  0  0  0  0  0  0  0  0
   -5.0620   12.6430   20.6110 H   0  0  0  0  0  0  0  0  0  0  0  0
   -5.5690   13.0300   22.2810 H   0  0  0  0  0  0  0  0  0  0  0  0
   -4.6670   14.2420   21.3300 H   0  0  0  0  0  0  0  0  0  0  0  0
  1 36  1  0  0  0  0
  2  1  1  0  0  0  0
  2  7  1  0  0  0  0
  3  2  2  0  0  0  0
  4  5  2  0  0  0  0
  4  3  1  0  0  0  0
  5  6  1  0  0  0  0
  6 10  1  0  0  0  0
  6  1  2  0  0  0  0
  8  3  1  0  0  0  0
  9  4  1  0  0  0  0
 11  5  1  0  0  0  0
 11 12  1  0  0  0  0
 12 13  2  0  0  0  0
 14 11  1  0  0  0  0
 15 20  1  0  0  0  0
 15 12  1  0  0  0  0
 16 15  2  0  0  0  0
 17 18  2  0  0  0  0
 17 16  1  0  0  0  0
 18 19  1  0  0  0  0
 19 32  1  0  0  0  0
 19 20  2  0  0  0  0
 21 16  1  0  0  0  0
 22 18  1  0  0  0  0
 23 27  1  1  0  0  0
 23 24  1  0  0  0  0
 23 17  1  0  0  0  0
 24 29  1  0  0  0  0
 24 28  1  0  0  0  0
 25 26  1  0  0  0  0
 25 24  1  0  0  0  0
 26 23  1  0  0  0  0
 30 25  1  0  0  0  0
 31 25  1  0  0  0  0
 32 35  1  0  0  0  0
 33 32  1  0  0  0  0
 34 32  1  0  0  0  0
 36 37  1  1  0  0  0
 36 42  1  0  0  0  0
 38 39  1  0  0  0  0
 38 36  1  0  0  0  0
 40 38  1  0  0  0  0
 41 38  1  0  0  0  0
 42 45  1  0  0  0  0
 43 42  1  0  0  0  0
 44 42  1  0  0  0  0
 45 49  1  0  0  0  0
 45 46  2  0  0  0  0
 46 47  1  0  0  0  0
 48 47  2  0  0  0  0
 48 50  1  0  0  0  0
 49 48  1  0  0  0  0
 51 49  1  0  0  0  0
 51 53  1  0  0  0  0
 52 51  1  0  0  0  0
 54 51  1  0  0  0  0
M  END
>  <MODEL>
3

>  <REMARK>
 VINA RESULT:    -8.281      2.607      3.514
 INTER + INTRA:         -13.063
 INTER:                 -12.009
 INTRA:                  -1.054
 UNBOUND:                -0.909
  Name = 
  9 active torsions:
  status: ('A' for Active; 'I' for Inactive)
    1  A    between atoms: C_1  and  C_2
    2  A    between atoms: C_2  and  C_3
    3  A    between atoms: C_2  and  C_10
    4  A    between atoms: C_3  and  C_4
    5  A    between atoms: N_8  and  C_9
    6  A    between atoms: C_14  and  N_15
    7  A    between atoms: C_16  and  C_18
    8  A    between atoms: C_20  and  C_21
    9  A    between atoms: C_26  and  C_27
                            x       y       z     vdW  Elec       q    Type
                         _______ _______ _______ _____ _____    ______ ____

>  <TORSDO>
F 9

$$$$
=
 OpenBabel07192307433D

 54 57  0  0  1  0  0  0  0  0999 V2000
   -0.1590   10.7440   19.5710 C   0  0  0  0  0  0  0  0  0  0  0  0
   -0.2660   11.0590   20.9310 C   0  0  0  0  0  0  0  0  0  0  0  0
    0.3650   10.2700   21.8910 C   0  0  0  0  0  0  0  0  0  0  0  0
    1.1140    9.1540   21.5070 C   0  0  0  0  0  0  0  0  0  0  0  0
    1.2400    8.8220   20.1600 C   0  0  0  0  0  0  0  0  0  0  0  0
    0.6020    9.6210   19.2000 C   0  0  0  0  0  0  0  0  0  0  0  0
   -0.8380   11.9250   21.2590 H   0  0  0  0  0  0  0  0  0  0  0  0
    0.2800   10.5220   22.9450 H   0  0  0  0  0  0  0  0  0  0  0  0
    1.5910    8.5690   22.2860 H   0  0  0  0  0  0  0  0  0  0  0  0
    0.7000    9.3720   18.1460 H   0  0  0  0  0  0  0  0  0  0  0  0
    1.9770    7.7210   19.6920 N   0  0  0  0  0  0  0  0  0  0  0  0
    1.9960    6.4290   20.1810 C   0  0  0  0  0  0  0  0  0  0  0  0
    1.3610    5.9810   21.1280 O   0  0  0  0  0  0  0  0  0  0  0  0
    2.5890    7.8710   18.8920 H   0  0  0  0  0  0  0  0  0  0  0  0
    2.9190    5.5290   19.4110 C   0  0  0  0  0  0  0  0  0  0  0  0
    4.1180    6.0240   18.9130 C   0  0  0  0  0  0  0  0  0  0  0  0
    4.9830    5.1820   18.1960 C   0  0  0  0  0  0  0  0  0  0  0  0
    4.5480    3.8540   18.0280 C   0  0  0  0  0  0  0  0  0  0  0  0
    3.3280    3.4120   18.5540 C   0  0  0  0  0  0  0  0  0  0  0  0
    2.5040    4.2440   19.2490 N   0  0  0  0  0  0  0  0  0  0  0  0
    4.3840    7.0650   19.0790 H   0  0  0  0  0  0  0  0  0  0  0  0
    5.1790    3.1570   17.4760 H   0  0  0  0  0  0  0  0  0  0  0  0
    6.3560    5.7070   17.6090 C   0  0  1  0  0  0  0  0  0  0  0  0
    6.5020    7.2080   17.3070 C   0  0  0  0  0  0  0  0  0  0  0  0
    7.8030    7.1010   18.0930 C   0  0  0  0  0  0  0  0  0  0  0  0
    7.4390    5.7890   18.5840 O   0  0  0  0  0  0  0  0  0  0  0  0
    6.6830    5.0790   16.7680 H   0  0  0  0  0  0  0  0  0  0  0  0
    5.7520    7.8550   17.7700 H   0  0  0  0  0  0  0  0  0  0  0  0
    6.6120    7.4640   16.2500 H   0  0  0  0  0  0  0  0  0  0  0  0
    8.7160    7.0600   17.4910 H   0  0  0  0  0  0  0  0  0  0  0  0
    7.9200    7.8230   18.9040 H   0  0  0  0  0  0  0  0  0  0  0  0
    2.9220    1.9580   18.3390 C   0  0  0  0  0  0  0  0  0  0  0  0
    1.9910    1.5120   19.2290 F   0  0  0  0  0  0  0  0  0  0  0  0
    3.9770    1.0990   18.4440 F   0  0  0  0  0  0  0  0  0  0  0  0
    2.3890    1.7410   17.1020 F   0  0  0  0  0  0  0  0  0  0  0  0
   -0.8450   11.5820   18.5000 C   0  0  2  0  0  0  0  0  0  0  0  0
   -0.4020   11.3200   17.5290 H   0  0  0  0  0  0  0  0  0  0  0  0
   -0.5690   13.0740   18.7250 C   0  0  0  0  0  0  0  0  0  0  0  0
   -0.2760   13.5620   17.7890 H   0  0  0  0  0  0  0  0  0  0  0  0
    0.2370   13.2350   19.4500 H   0  0  0  0  0  0  0  0  0  0  0  0
   -1.4610   13.5880   19.0980 H   0  0  0  0  0  0  0  0  0  0  0  0
   -2.3550   11.2660   18.4470 C   0  0  0  0  0  0  0  0  0  0  0  0
   -2.9410   12.1550   18.7110 H   0  0  0  0  0  0  0  0  0  0  0  0
   -2.6090   10.5050   19.1950 H   0  0  0  0  0  0  0  0  0  0  0  0
   -2.7850   10.7910   17.1000 C   0  0  0  0  0  0  0  0  0  0  0  0
   -2.0980   10.0100   16.2920 N   0  0  0  0  0  0  0  0  0  0  0  0
   -2.8440    9.8050   15.1560 N   0  0  0  0  0  0  0  0  0  0  0  0
   -3.9660   10.4700   15.2920 C   0  0  0  0  0  0  0  0  0  0  0  0
   -3.9740   11.1050   16.4950 N   0  0  0  0  0  0  0  0  0  0  0  0
   -4.7700   10.5170   14.5710 H   0  0  0  0  0  0  0  0  0  0  0  0
   -5.0280   11.9370   17.0090 C   0  0  0  0  0  0  0  0  0  0  0  0
   -4.7510   12.9830   16.8540 H   0  0  0  0  0  0  0  0  0  0  0  0
   -5.9590   11.7200   16.4770 H   0  0  0  0  0  0  0  0  0  0  0  0
   -5.1570   11.7260   18.0720 H   0  0  0  0  0  0  0  0  0  0  0  0
  1  2  1  0  0  0  0
  2  7  1  0  0  0  0
  2  3  2  0  0  0  0
  3  8  1  0  0  0  0
  4  3  1  0  0  0  0
  4  9  1  0  0  0  0
  5  4  2  0  0  0  0
  6  1  2  0  0  0  0
  6  5  1  0  0  0  0
 10  6  1  0  0  0  0
 11  5  1  0  0  0  0
 11 12  1  0  0  0  0
 12 13  2  0  0  0  0
 14 11  1  0  0  0  0
 15 12  1  0  0  0  0
 16 21  1  0  0  0  0
 16 15  2  0  0  0  0
 17 16  1  0  0  0  0
 18 17  2  0  0  0  0
 18 19  1  0  0  0  0
 19 20  2  0  0  0  0
 20 15  1  0  0  0  0
 22 18  1  0  0  0  0
 23 27  1  6  0  0  0
 23 17  1  0  0  0  0
 23 26  1  0  0  0  0
 24 23  1  0  0  0  0
 24 28  1  0  0  0  0
 24 25  1  0  0  0  0
 25 26  1  0  0  0  0
 25 31  1  0  0  0  0
 29 24  1  0  0  0  0
 30 25  1  0  0  0  0
 32 34  1  0  0  0  0
 32 19  1  0  0  0  0
 32 33  1  0  0  0  0
 35 32  1  0  0  0  0
 36 37  1  6  0  0  0
 36 38  1  0  0  0  0
 36  1  1  0  0  0  0
 38 41  1  0  0  0  0
 38 40  1  0  0  0  0
 39 38  1  0  0  0  0
 42 36  1  0  0  0  0
 42 43  1  0  0  0  0
 42 44  1  0  0  0  0
 45 42  1  0  0  0  0
 46 45  2  0  0  0  0
 47 48  2  0  0  0  0
 47 46  1  0  0  0  0
 48 49  1  0  0  0  0
 49 51  1  0  0  0  0
 49 45  1  0  0  0  0
 50 48  1  0  0  0  0
 51 54  1  0  0  0  0
 52 51  1  0  0  0  0
 53 51  1  0  0  0  0
M  END
>  <MODEL>
4

>  <REMARK>
 VINA RESULT:    -8.252      1.623      1.871
 INTER + INTRA:         -13.020
 INTER:                 -12.067
 INTRA:                  -0.953
 UNBOUND:                -0.909
  Name = 
  9 active torsions:
  status: ('A' for Active; 'I' for Inactive)
    1  A    between atoms: C_1  and  C_2
    2  A    between atoms: C_2  and  C_3
    3  A    between atoms: C_2  and  C_10
    4  A    between atoms: C_3  and  C_4
    5  A    between atoms: N_8  and  C_9
    6  A    between atoms: C_14  and  N_15
    7  A    between atoms: C_16  and  C_18
    8  A    between atoms: C_20  and  C_21
    9  A    between atoms: C_26  and  C_27
                            x       y       z     vdW  Elec       q    Type
                         _______ _______ _______ _____ _____    ______ ____

>  <TORSDO>
F 9

$$$$
=
 OpenBabel07192307433D

 54 57  0  0  1  0  0  0  0  0999 V2000
   -0.2310   10.6880   19.5570 C   0  0  0  0  0  0  0  0  0  0  0  0
   -0.4170   10.8880   20.9310 C   0  0  0  0  0  0  0  0  0  0  0  0
    0.2160   10.0590   21.8560 C   0  0  0  0  0  0  0  0  0  0  0  0
    1.0430    9.0190   21.4240 C   0  0  0  0  0  0  0  0  0  0  0  0
    1.2470    8.8030   20.0630 C   0  0  0  0  0  0  0  0  0  0  0  0
    0.6080    9.6420   19.1380 C   0  0  0  0  0  0  0  0  0  0  0  0
   -1.0510   11.6930   21.2970 H   0  0  0  0  0  0  0  0  0  0  0  0
    0.0690   10.2210   22.9220 H   0  0  0  0  0  0  0  0  0  0  0  0
    1.5180    8.4000   22.1780 H   0  0  0  0  0  0  0  0  0  0  0  0
    0.7670    9.4840   18.0740 H   0  0  0  0  0  0  0  0  0  0  0  0
    2.0660    7.7850   19.5470 N   0  0  0  0  0  0  0  0  0  0  0  0
    2.7420    7.7530   18.3420 C   0  0  0  0  0  0  0  0  0  0  0  0
    2.7650    8.6200   17.4770 O   0  0  0  0  0  0  0  0  0  0  0  0
    2.1890    6.9480   20.1140 H   0  0  0  0  0  0  0  0  0  0  0  0
    3.5160    6.4820   18.1430 C   0  0  0  0  0  0  0  0  0  0  0  0
    2.9630    5.2630   18.5190 C   0  0  0  0  0  0  0  0  0  0  0  0
    3.6850    4.0750   18.3300 C   0  0  0  0  0  0  0  0  0  0  0  0
    4.9630    4.2170   17.7560 C   0  0  0  0  0  0  0  0  0  0  0  0
    5.4670    5.4730   17.3970 C   0  0  0  0  0  0  0  0  0  0  0  0
    4.7500    6.6140   17.5860 N   0  0  0  0  0  0  0  0  0  0  0  0
    1.9700    5.2340   18.9620 H   0  0  0  0  0  0  0  0  0  0  0  0
    5.5700    3.3270   17.5900 H   0  0  0  0  0  0  0  0  0  0  0  0
    3.0940    2.6680   18.7480 C   0  0  1  0  0  0  0  0  0  0  0  0
    2.1280    2.6010   19.9440 C   0  0  0  0  0  0  0  0  0  0  0  0
    1.2380    1.7940   19.0060 C   0  0  0  0  0  0  0  0  0  0  0  0
    2.0470    2.1640   17.8640 O   0  0  0  0  0  0  0  0  0  0  0  0
    3.8930    1.9160   18.8150 H   0  0  0  0  0  0  0  0  0  0  0  0
    1.6990    3.5570   20.2550 H   0  0  0  0  0  0  0  0  0  0  0  0
    2.5020    2.0590   20.8170 H   0  0  0  0  0  0  0  0  0  0  0  0
    1.2450    0.7110   19.1620 H   0  0  0  0  0  0  0  0  0  0  0  0
    0.2100    2.1540   18.9120 H   0  0  0  0  0  0  0  0  0  0  0  0
    6.8570    5.5520   16.7750 C   0  0  0  0  0  0  0  0  0  0  0  0
    7.6770    4.5220   17.1340 F   0  0  0  0  0  0  0  0  0  0  0  0
    7.5220    6.6920   17.1220 F   0  0  0  0  0  0  0  0  0  0  0  0
    6.8240    5.5420   15.4120 F   0  0  0  0  0  0  0  0  0  0  0  0
   -0.9170   11.5720   18.5230 C   0  0  2  0  0  0  0  0  0  0  0  0
   -0.4520   11.3740   17.5470 H   0  0  0  0  0  0  0  0  0  0  0  0
   -0.6760   13.0550   18.8360 C   0  0  0  0  0  0  0  0  0  0  0  0
   -1.1580   13.6940   18.0880 H   0  0  0  0  0  0  0  0  0  0  0  0
    0.3920   13.3010   18.8450 H   0  0  0  0  0  0  0  0  0  0  0  0
   -1.0880   13.3240   19.8130 H   0  0  0  0  0  0  0  0  0  0  0  0
   -2.4180   11.2300   18.4250 C   0  0  0  0  0  0  0  0  0  0  0  0
   -3.0280   12.1040   18.6880 H   0  0  0  0  0  0  0  0  0  0  0  0
   -2.6790   10.4520   19.1540 H   0  0  0  0  0  0  0  0  0  0  0  0
   -2.8050   10.7700   17.0600 C   0  0  0  0  0  0  0  0  0  0  0  0
   -2.0870   10.0060   16.2620 N   0  0  0  0  0  0  0  0  0  0  0  0
   -2.7980    9.8100   15.1020 N   0  0  0  0  0  0  0  0  0  0  0  0
   -3.9300   10.4620   15.2140 C   0  0  0  0  0  0  0  0  0  0  0  0
   -3.9790   11.0810   16.4240 N   0  0  0  0  0  0  0  0  0  0  0  0
   -4.7120   10.5120   14.4700 H   0  0  0  0  0  0  0  0  0  0  0  0
   -5.0550   11.8970   16.9180 C   0  0  0  0  0  0  0  0  0  0  0  0
   -5.4460   12.4930   16.0890 H   0  0  0  0  0  0  0  0  0  0  0  0
   -5.8460   11.2580   17.3180 H   0  0  0  0  0  0  0  0  0  0  0  0
   -4.6720   12.5440   17.7100 H   0  0  0  0  0  0  0  0  0  0  0  0
  1  2  1  0  0  0  0
  2  7  1  0  0  0  0
  2  3  2  0  0  0  0
  3  8  1  0  0  0  0
  4  3  1  0  0  0  0
  4  9  1  0  0  0  0
  5  4  2  0  0  0  0
  6  1  2  0  0  0  0
  6  5  1  0  0  0  0
 10  6  1  0  0  0  0
 11  5  1  0  0  0  0
 11 14  1  0  0  0  0
 12 11  1  0  0  0  0
 13 12  2  0  0  0  0
 15 12  1  0  0  0  0
 15 16  1  0  0  0  0
 16 21  1  0  0  0  0
 17 16  2  0  0  0  0
 17 23  1  0  0  0  0
 18 17  1  0  0  0  0
 19 20  1  0  0  0  0
 19 18  2  0  0  0  0
 20 15  2  0  0  0  0
 22 18  1  0  0  0  0
 23 27  1  1  0  0  0
 23 24  1  0  0  0  0
 24 28  1  0  0  0  0
 24 29  1  0  0  0  0
 25 30  1  0  0  0  0
 25 24  1  0  0  0  0
 26 23  1  0  0  0  0
 26 25  1  0  0  0  0
 31 25  1  0  0  0  0
 32 34  1  0  0  0  0
 32 33  1  0  0  0  0
 32 19  1  0  0  0  0
 35 32  1  0  0  0  0
 36 37  1  6  0  0  0
 36 38  1  0  0  0  0
 36  1  1  0  0  0  0
 38 40  1  0  0  0  0
 38 41  1  0  0  0  0
 39 38  1  0  0  0  0
 42 36  1  0  0  0  0
 42 43  1  0  0  0  0
 42 44  1  0  0  0  0
 45 42  1  0  0  0  0
 46 45  2  0  0  0  0
 47 48  2  0  0  0  0
 47 46  1  0  0  0  0
 48 49  1  0  0  0  0
 49 51  1  0  0  0  0
 49 45  1  0  0  0  0
 50 48  1  0  0  0  0
 51 53  1  0  0  0  0
 51 54  1  0  0  0  0
 52 51  1  0  0  0  0
M  END
>  <MODEL>
5

>  <REMARK>
 VINA RESULT:    -8.251      2.541      3.430
 INTER + INTRA:         -13.018
 INTER:                 -12.299
 INTRA:                  -0.719
 UNBOUND:                -0.909
  Name = 
  9 active torsions:
  status: ('A' for Active; 'I' for Inactive)
    1  A    between atoms: C_1  and  C_2
    2  A    between atoms: C_2  and  C_3
    3  A    between atoms: C_2  and  C_10
    4  A    between atoms: C_3  and  C_4
    5  A    between atoms: N_8  and  C_9
    6  A    between atoms: C_14  and  N_15
    7  A    between atoms: C_16  and  C_18
    8  A    between atoms: C_20  and  C_21
    9  A    between atoms: C_26  and  C_27
                            x       y       z     vdW  Elec       q    Type
                         _______ _______ _______ _____ _____    ______ ____

>  <TORSDO>
F 9

$$$$
=
 OpenBabel07192307433D

 54 57  0  0  1  0  0  0  0  0999 V2000
   -0.4320   11.8980   18.5390 C   0  0  0  0  0  0  0  0  0  0  0  0
    0.4010   13.0180   18.4160 C   0  0  0  0  0  0  0  0  0  0  0  0
    1.7730   12.8600   18.2320 C   0  0  0  0  0  0  0  0  0  0  0  0
    2.3350   11.5820   18.1680 C   0  0  0  0  0  0  0  0  0  0  0  0
    1.5280   10.4530   18.2830 C   0  0  0  0  0  0  0  0  0  0  0  0
    0.1470   10.6190   18.4670 C   0  0  0  0  0  0  0  0  0  0  0  0
   -0.0100   14.0250   18.4570 H   0  0  0  0  0  0  0  0  0  0  0  0
    2.4140   13.7340   18.1350 H   0  0  0  0  0  0  0  0  0  0  0  0
    3.4080   11.5050   18.0210 H   0  0  0  0  0  0  0  0  0  0  0  0
   -0.4910    9.7430   18.5520 H   0  0  0  0  0  0  0  0  0  0  0  0
    2.0130    9.1350   18.2250 N   0  0  0  0  0  0  0  0  0  0  0  0
    2.0350    8.1820   19.2250 C   0  0  0  0  0  0  0  0  0  0  0  0
    1.6240    8.2970   20.3730 O   0  0  0  0  0  0  0  0  0  0  0  0
    2.4120    8.8200   17.3430 H   0  0  0  0  0  0  0  0  0  0  0  0
    2.6410    6.8830   18.7770 C   0  0  0  0  0  0  0  0  0  0  0  0
    2.2740    5.6940   19.3950 C   0  0  0  0  0  0  0  0  0  0  0  0
    2.8380    4.4800   18.9740 C   0  0  0  0  0  0  0  0  0  0  0  0
    3.7700    4.5670   17.9220 C   0  0  0  0  0  0  0  0  0  0  0  0
    4.1010    5.7960   17.3380 C   0  0  0  0  0  0  0  0  0  0  0  0
    3.5400    6.9630   17.7590 N   0  0  0  0  0  0  0  0  0  0  0  0
    1.5490    5.7070   20.2050 H   0  0  0  0  0  0  0  0  0  0  0  0
    4.2430    3.6550   17.5570 H   0  0  0  0  0  0  0  0  0  0  0  0
    2.4500    3.1040   19.6530 C   0  0  1  0  0  0  0  0  0  0  0  0
    2.9950    2.7960   21.0570 C   0  0  0  0  0  0  0  0  0  0  0  0
    1.5510    2.4470   21.3940 C   0  0  0  0  0  0  0  0  0  0  0  0
    1.0830    3.0430   20.1600 O   0  0  0  0  0  0  0  0  0  0  0  0
    2.6050    2.2690   18.9540 H   0  0  0  0  0  0  0  0  0  0  0  0
    3.3870    3.6560   21.6080 H   0  0  0  0  0  0  0  0  0  0  0  0
    3.7030    1.9650   21.1120 H   0  0  0  0  0  0  0  0  0  0  0  0
    1.3190    1.3780   21.4300 H   0  0  0  0  0  0  0  0  0  0  0  0
    1.1400    2.9510   22.2730 H   0  0  0  0  0  0  0  0  0  0  0  0
    5.1150    5.8150   16.2000 C   0  0  0  0  0  0  0  0  0  0  0  0
    4.9060    6.8150   15.2970 F   0  0  0  0  0  0  0  0  0  0  0  0
    5.1140    4.6580   15.4780 F   0  0  0  0  0  0  0  0  0  0  0  0
    6.3950    5.9750   16.6420 F   0  0  0  0  0  0  0  0  0  0  0  0
   -1.9330   12.0400   18.7500 C   0  0  2  0  0  0  0  0  0  0  0  0
   -2.3010   12.8140   18.0620 H   0  0  0  0  0  0  0  0  0  0  0  0
   -2.2340   12.5330   20.1720 C   0  0  0  0  0  0  0  0  0  0  0  0
   -1.4920   13.2720   20.4930 H   0  0  0  0  0  0  0  0  0  0  0  0
   -2.2220   11.7130   20.8980 H   0  0  0  0  0  0  0  0  0  0  0  0
   -3.2170   13.0100   20.2240 H   0  0  0  0  0  0  0  0  0  0  0  0
   -2.6560   10.7160   18.4240 C   0  0  0  0  0  0  0  0  0  0  0  0
   -3.5860   10.6360   19.0010 H   0  0  0  0  0  0  0  0  0  0  0  0
   -2.0390    9.8620   18.7290 H   0  0  0  0  0  0  0  0  0  0  0  0
   -2.9800   10.5920   16.9730 C   0  0  0  0  0  0  0  0  0  0  0  0
   -2.2600    9.9670   16.0640 N   0  0  0  0  0  0  0  0  0  0  0  0
   -2.9040   10.0800   14.8550 N   0  0  0  0  0  0  0  0  0  0  0  0
   -3.9980   10.7760   15.0500 C   0  0  0  0  0  0  0  0  0  0  0  0
   -4.0880   11.1200   16.3630 N   0  0  0  0  0  0  0  0  0  0  0  0
   -4.7250   11.0440   14.2970 H   0  0  0  0  0  0  0  0  0  0  0  0
   -5.1410   11.8890   16.9690 C   0  0  0  0  0  0  0  0  0  0  0  0
   -5.1740   12.8710   16.4910 H   0  0  0  0  0  0  0  0  0  0  0  0
   -6.0970   11.3780   16.8260 H   0  0  0  0  0  0  0  0  0  0  0  0
   -4.9360   11.9870   18.0370 H   0  0  0  0  0  0  0  0  0  0  0  0
  1 36  1  0  0  0  0
  2  7  1  0  0  0  0
  2  1  2  0  0  0  0
  3  2  1  0  0  0  0
  4  3  2  0  0  0  0
  4  5  1  0  0  0  0
  5  6  2  0  0  0  0
  6  1  1  0  0  0  0
  6 10  1  0  0  0  0
  8  3  1  0  0  0  0
  9  4  1  0  0  0  0
 11  5  1  0  0  0  0
 11 12  1  0  0  0  0
 12 13  2  0  0  0  0
 14 11  1  0  0  0  0
 15 12  1  0  0  0  0
 15 16  1  0  0  0  0
 16 21  1  0  0  0  0
 17 16  2  0  0  0  0
 17 23  1  0  0  0  0
 18 17  1  0  0  0  0
 19 20  1  0  0  0  0
 19 18  2  0  0  0  0
 20 15  2  0  0  0  0
 22 18  1  0  0  0  0
 23 27  1  6  0  0  0
 23 26  1  0  0  0  0
 23 24  1  0  0  0  0
 24 29  1  0  0  0  0
 24 25  1  0  0  0  0
 24 28  1  0  0  0  0
 25 30  1  0  0  0  0
 25 31  1  0  0  0  0
 26 25  1  0  0  0  0
 32 35  1  0  0  0  0
 32 19  1  0  0  0  0
 33 32  1  0  0  0  0
 34 32  1  0  0  0  0
 36 37  1  6  0  0  0
 36 38  1  0  0  0  0
 38 41  1  0  0  0  0
 38 39  1  0  0  0  0
 38 40  1  0  0  0  0
 42 44  1  0  0  0  0
 42 36  1  0  0  0  0
 42 43  1  0  0  0  0
 45 42  1  0  0  0  0
 46 45  2  0  0  0  0
 47 48  2  0  0  0  0
 47 46  1  0  0  0  0
 48 49  1  0  0  0  0
 49 51  1  0  0  0  0
 49 45  1  0  0  0  0
 50 48  1  0  0  0  0
 51 54  1  0  0  0  0
 52 51  1  0  0  0  0
 53 51  1  0  0  0  0
M  END
>  <MODEL>
6

>  <REMARK>
 VINA RESULT:    -8.146      2.833      3.888
 INTER + INTRA:         -12.865
 INTER:                 -11.897
 INTRA:                  -0.968
 UNBOUND:                -0.909
  Name = 
  9 active torsions:
  status: ('A' for Active; 'I' for Inactive)
    1  A    between atoms: C_1  and  C_2
    2  A    between atoms: C_2  and  C_3
    3  A    between atoms: C_2  and  C_10
    4  A    between atoms: C_3  and  C_4
    5  A    between atoms: N_8  and  C_9
    6  A    between atoms: C_14  and  N_15
    7  A    between atoms: C_16  and  C_18
    8  A    between atoms: C_20  and  C_21
    9  A    between atoms: C_26  and  C_27
                            x       y       z     vdW  Elec       q    Type
                         _______ _______ _______ _____ _____    ______ ____

>  <TORSDO>
F 9

$$$$
=
 OpenBabel07192307433D

 54 57  0  0  1  0  0  0  0  0999 V2000
   -0.1410   10.8200   21.1500 C   0  0  0  0  0  0  0  0  0  0  0  0
   -0.3280   11.7740   20.1410 C   0  0  0  0  0  0  0  0  0  0  0  0
    0.1100   11.5240   18.8420 C   0  0  0  0  0  0  0  0  0  0  0  0
    0.7420   10.3180   18.5300 C   0  0  0  0  0  0  0  0  0  0  0  0
    0.9360    9.3510   19.5130 C   0  0  0  0  0  0  0  0  0  0  0  0
    0.4920    9.6090   20.8190 C   0  0  0  0  0  0  0  0  0  0  0  0
   -0.8220   12.7200   20.3550 H   0  0  0  0  0  0  0  0  0  0  0  0
   -0.0410   12.2690   18.0640 H   0  0  0  0  0  0  0  0  0  0  0  0
    1.0650   10.1630   17.5060 H   0  0  0  0  0  0  0  0  0  0  0  0
    0.6350    8.8570   21.5910 H   0  0  0  0  0  0  0  0  0  0  0  0
    1.5580    8.1120   19.2800 N   0  0  0  0  0  0  0  0  0  0  0  0
    2.4760    7.7820   18.3030 C   0  0  0  0  0  0  0  0  0  0  0  0
    2.9410    8.5150   17.4390 O   0  0  0  0  0  0  0  0  0  0  0  0
    1.3100    7.3390   19.8950 H   0  0  0  0  0  0  0  0  0  0  0  0
    2.9100    6.3460   18.3740 C   0  0  0  0  0  0  0  0  0  0  0  0
    3.8870    5.8700   17.5080 C   0  0  0  0  0  0  0  0  0  0  0  0
    4.2950    4.5290   17.5760 C   0  0  0  0  0  0  0  0  0  0  0  0
    3.6540    3.7410   18.5520 C   0  0  0  0  0  0  0  0  0  0  0  0
    2.6760    4.2780   19.3980 C   0  0  0  0  0  0  0  0  0  0  0  0
    2.2960    5.5820   19.3170 N   0  0  0  0  0  0  0  0  0  0  0  0
    4.3330    6.5390   16.7760 H   0  0  0  0  0  0  0  0  0  0  0  0
    3.9300    2.6910   18.6480 H   0  0  0  0  0  0  0  0  0  0  0  0
    5.4010    3.9460   16.6060 C   0  0  1  0  0  0  0  0  0  0  0  0
    5.5660    4.5770   15.2140 C   0  0  0  0  0  0  0  0  0  0  0  0
    7.0480    4.6330   15.5620 C   0  0  0  0  0  0  0  0  0  0  0  0
    6.7690    4.3260   16.9500 O   0  0  0  0  0  0  0  0  0  0  0  0
    5.3390    2.8500   16.5620 H   0  0  0  0  0  0  0  0  0  0  0  0
    5.1000    5.5580   15.0840 H   0  0  0  0  0  0  0  0  0  0  0  0
    5.3060    3.9290   14.3730 H   0  0  0  0  0  0  0  0  0  0  0  0
    7.6710    3.8590   15.1040 H   0  0  0  0  0  0  0  0  0  0  0  0
    7.5190    5.6120   15.4470 H   0  0  0  0  0  0  0  0  0  0  0  0
    2.0280    3.3670   20.4350 C   0  0  0  0  0  0  0  0  0  0  0  0
    0.7170    3.6560   20.6740 F   0  0  0  0  0  0  0  0  0  0  0  0
    2.6480    3.4310   21.6480 F   0  0  0  0  0  0  0  0  0  0  0  0
    2.0580    2.0530   20.0710 F   0  0  0  0  0  0  0  0  0  0  0  0
   -0.6010   11.0700   22.5800 C   0  0  2  0  0  0  0  0  0  0  0  0
    0.1080   11.7680   23.0470 H   0  0  0  0  0  0  0  0  0  0  0  0
   -0.5480    9.7720   23.3970 C   0  0  0  0  0  0  0  0  0  0  0  0
   -0.6120    8.8960   22.7430 H   0  0  0  0  0  0  0  0  0  0  0  0
   -1.3730    9.7100   24.1160 H   0  0  0  0  0  0  0  0  0  0  0  0
    0.3890    9.6960   23.9570 H   0  0  0  0  0  0  0  0  0  0  0  0
   -2.0010   11.7160   22.5960 C   0  0  0  0  0  0  0  0  0  0  0  0
   -2.7360   11.0270   23.0310 H   0  0  0  0  0  0  0  0  0  0  0  0
   -2.3420   11.9100   21.5710 H   0  0  0  0  0  0  0  0  0  0  0  0
   -2.0260   12.9920   23.3680 C   0  0  0  0  0  0  0  0  0  0  0  0
   -1.0580   13.8830   23.4330 N   0  0  0  0  0  0  0  0  0  0  0  0
   -1.4760   14.9130   24.2420 N   0  0  0  0  0  0  0  0  0  0  0  0
   -2.6860   14.6260   24.6580 C   0  0  0  0  0  0  0  0  0  0  0  0
   -3.0720   13.4300   24.1370 N   0  0  0  0  0  0  0  0  0  0  0  0
   -3.2950   15.2320   25.3130 H   0  0  0  0  0  0  0  0  0  0  0  0
   -4.3310   12.7730   24.3630 C   0  0  0  0  0  0  0  0  0  0  0  0
   -4.6020   12.8950   25.4150 H   0  0  0  0  0  0  0  0  0  0  0  0
   -5.0990   13.2240   23.7300 H   0  0  0  0  0  0  0  0  0  0  0  0
   -4.2260   11.7150   24.1140 H   0  0  0  0  0  0  0  0  0  0  0  0
  1 36  1  0  0  0  0
  2  7  1  0  0  0  0
  2  1  2  0  0  0  0
  3  2  1  0  0  0  0
  4  3  2  0  0  0  0
  4  5  1  0  0  0  0
  5  6  2  0  0  0  0
  6  1  1  0  0  0  0
  6 10  1  0  0  0  0
  8  3  1  0  0  0  0
  9  4  1  0  0  0  0
 11  5  1  0  0  0  0
 11 14  1  0  0  0  0
 12 15  1  0  0  0  0
 12 11  1  0  0  0  0
 13 12  2  0  0  0  0
 15 20  1  0  0  0  0
 16 17  1  0  0  0  0
 16 15  2  0  0  0  0
 17 18  2  0  0  0  0
 18 22  1  0  0  0  0
 18 19  1  0  0  0  0
 19 32  1  0  0  0  0
 20 19  2  0  0  0  0
 21 16  1  0  0  0  0
 23 27  1  6  0  0  0
 23 26  1  0  0  0  0
 23 17  1  0  0  0  0
 24 25  1  0  0  0  0
 24 23  1  0  0  0  0
 25 26  1  0  0  0  0
 28 24  1  0  0  0  0
 29 24  1  0  0  0  0
 30 25  1  0  0  0  0
 31 25  1  0  0  0  0
 32 33  1  0  0  0  0
 32 34  1  0  0  0  0
 35 32  1  0  0  0  0
 36 42  1  0  0  0  0
 36 37  1  1  0  0  0
 36 38  1  0  0  0  0
 38 41  1  0  0  0  0
 38 40  1  0  0  0  0
 39 38  1  0  0  0  0
 42 43  1  0  0  0  0
 42 45  1  0  0  0  0
 44 42  1  0  0  0  0
 45 46  2  0  0  0  0
 45 49  1  0  0  0  0
 46 47  1  0  0  0  0
 47 48  2  0  0  0  0
 48 50  1  0  0  0  0
 49 51  1  0  0  0  0
 49 48  1  0  0  0  0
 51 52  1  0  0  0  0
 53 51  1  0  0  0  0
 54 51  1  0  0  0  0
M  END
>  <MODEL>
7

>  <REMARK>
 VINA RESULT:    -8.127      2.990      4.124
 INTER + INTRA:         -12.836
 INTER:                 -12.042
 INTRA:                  -0.795
 UNBOUND:                -0.909
  Name = 
  9 active torsions:
  status: ('A' for Active; 'I' for Inactive)
    1  A    between atoms: C_1  and  C_2
    2  A    between atoms: C_2  and  C_3
    3  A    between atoms: C_2  and  C_10
    4  A    between atoms: C_3  and  C_4
    5  A    between atoms: N_8  and  C_9
    6  A    between atoms: C_14  and  N_15
    7  A    between atoms: C_16  and  C_18
    8  A    between atoms: C_20  and  C_21
    9  A    between atoms: C_26  and  C_27
                            x       y       z     vdW  Elec       q    Type
                         _______ _______ _______ _____ _____    ______ ____

>  <TORSDO>
F 9

$$$$
=
 OpenBabel07192307433D

 54 57  0  0  1  0  0  0  0  0999 V2000
   -0.4280   11.3640   20.9370 C   0  0  0  0  0  0  0  0  0  0  0  0
   -0.7980   11.2250   22.2810 C   0  0  0  0  0  0  0  0  0  0  0  0
   -0.4620   10.0730   22.9890 C   0  0  0  0  0  0  0  0  0  0  0  0
    0.2500    9.0430   22.3680 C   0  0  0  0  0  0  0  0  0  0  0  0
    0.6340    9.1600   21.0340 C   0  0  0  0  0  0  0  0  0  0  0  0
    0.2920   10.3230   20.3270 C   0  0  0  0  0  0  0  0  0  0  0  0
   -1.3480   12.0120   22.7920 H   0  0  0  0  0  0  0  0  0  0  0  0
   -0.7500    9.9720   24.0330 H   0  0  0  0  0  0  0  0  0  0  0  0
    0.4930    8.1650   22.9570 H   0  0  0  0  0  0  0  0  0  0  0  0
    0.5930   10.4240   19.2870 H   0  0  0  0  0  0  0  0  0  0  0  0
    1.3540    8.1740   20.3380 N   0  0  0  0  0  0  0  0  0  0  0  0
    1.9470    8.2610   19.0930 C   0  0  0  0  0  0  0  0  0  0  0  0
    1.9680    9.2300   18.3430 O   0  0  0  0  0  0  0  0  0  0  0  0
    1.4610    7.2660   20.7860 H   0  0  0  0  0  0  0  0  0  0  0  0
    2.6270    6.9870   18.6830 C   0  0  0  0  0  0  0  0  0  0  0  0
    2.2580    5.7810   19.2660 C   0  0  0  0  0  0  0  0  0  0  0  0
    2.8910    4.5890   18.8810 C   0  0  0  0  0  0  0  0  0  0  0  0
    3.8920    4.7160   17.8980 C   0  0  0  0  0  0  0  0  0  0  0  0
    4.2210    5.9600   17.3450 C   0  0  0  0  0  0  0  0  0  0  0  0
    3.5930    7.1040   17.7320 N   0  0  0  0  0  0  0  0  0  0  0  0
    1.4780    5.7640   20.0240 H   0  0  0  0  0  0  0  0  0  0  0  0
    4.4190    3.8220   17.5630 H   0  0  0  0  0  0  0  0  0  0  0  0
    2.5020    3.1970   19.5230 C   0  0  1  0  0  0  0  0  0  0  0  0
    3.0090    2.8720   20.9380 C   0  0  0  0  0  0  0  0  0  0  0  0
    1.5590    2.4960   21.2240 C   0  0  0  0  0  0  0  0  0  0  0  0
    1.1210    3.1080   19.9870 O   0  0  0  0  0  0  0  0  0  0  0  0
    2.6910    2.3770   18.8150 H   0  0  0  0  0  0  0  0  0  0  0  0
    3.3710    3.7270   21.5160 H   0  0  0  0  0  0  0  0  0  0  0  0
    3.7270    2.0500   21.0010 H   0  0  0  0  0  0  0  0  0  0  0  0
    1.3420    1.4240   21.2340 H   0  0  0  0  0  0  0  0  0  0  0  0
    1.1150    2.9780   22.0980 H   0  0  0  0  0  0  0  0  0  0  0  0
    5.3120    6.0210   16.2830 C   0  0  0  0  0  0  0  0  0  0  0  0
    6.4550    6.6310   16.7060 F   0  0  0  0  0  0  0  0  0  0  0  0
    4.9190    6.7040   15.1680 F   0  0  0  0  0  0  0  0  0  0  0  0
    5.6900    4.7850   15.8460 F   0  0  0  0  0  0  0  0  0  0  0  0
   -0.7900   12.6080   20.1350 C   0  0  2  0  0  0  0  0  0  0  0  0
   -0.2560   12.5590   19.1760 H   0  0  0  0  0  0  0  0  0  0  0  0
   -0.3000   13.8730   20.8510 C   0  0  0  0  0  0  0  0  0  0  0  0
   -0.4810   14.7630   20.2380 H   0  0  0  0  0  0  0  0  0  0  0  0
    0.7730   13.8300   21.0650 H   0  0  0  0  0  0  0  0  0  0  0  0
   -0.8250   14.0170   21.8000 H   0  0  0  0  0  0  0  0  0  0  0  0
   -2.3050   12.6470   19.8460 C   0  0  0  0  0  0  0  0  0  0  0  0
   -2.6550   13.6840   19.7780 H   0  0  0  0  0  0  0  0  0  0  0  0
   -2.8610   12.1960   20.6770 H   0  0  0  0  0  0  0  0  0  0  0  0
   -2.6570   11.9390   18.5810 C   0  0  0  0  0  0  0  0  0  0  0  0
   -1.8210   11.5820   17.6270 N   0  0  0  0  0  0  0  0  0  0  0  0
   -2.5400   10.9530   16.6390 N   0  0  0  0  0  0  0  0  0  0  0  0
   -3.7980   10.9450   17.0070 C   0  0  0  0  0  0  0  0  0  0  0  0
   -3.9210   11.5530   18.2170 N   0  0  0  0  0  0  0  0  0  0  0  0
   -4.6230   10.5260   16.4470 H   0  0  0  0  0  0  0  0  0  0  0  0
   -5.1430   11.7470   18.9500 C   0  0  0  0  0  0  0  0  0  0  0  0
   -5.9390   11.9860   18.2410 H   0  0  0  0  0  0  0  0  0  0  0  0
   -5.3950   10.8300   19.4900 H   0  0  0  0  0  0  0  0  0  0  0  0
   -5.0020   12.5630   19.6610 H   0  0  0  0  0  0  0  0  0  0  0  0
  1  2  1  0  0  0  0
  2  7  1  0  0  0  0
  2  3  2  0  0  0  0
  3  8  1  0  0  0  0
  4  9  1  0  0  0  0
  4  3  1  0  0  0  0
  5  4  2  0  0  0  0
  6  1  2  0  0  0  0
  6  5  1  0  0  0  0
 10  6  1  0  0  0  0
 11 14  1  0  0  0  0
 11  5  1  0  0  0  0
 12 11  1  0  0  0  0
 13 12  2  0  0  0  0
 15 12  1  0  0  0  0
 15 16  1  0  0  0  0
 16 21  1  0  0  0  0
 17 16  2  0  0  0  0
 17 23  1  0  0  0  0
 18 17  1  0  0  0  0
 19 20  1  0  0  0  0
 19 18  2  0  0  0  0
 20 15  2  0  0  0  0
 22 18  1  0  0  0  0
 23 27  1  6  0  0  0
 23 26  1  0  0  0  0
 23 24  1  0  0  0  0
 24 29  1  0  0  0  0
 24 25  1  0  0  0  0
 24 28  1  0  0  0  0
 25 30  1  0  0  0  0
 25 31  1  0  0  0  0
 26 25  1  0  0  0  0
 32 33  1  0  0  0  0
 32 19  1  0  0  0  0
 34 32  1  0  0  0  0
 35 32  1  0  0  0  0
 36 37  1  6  0  0  0
 36 38  1  0  0  0  0
 36  1  1  0  0  0  0
 38 40  1  0  0  0  0
 38 41  1  0  0  0  0
 39 38  1  0  0  0  0
 42 36  1  0  0  0  0
 42 44  1  0  0  0  0
 43 42  1  0  0  0  0
 45 42  1  0  0  0  0
 46 45  2  0  0  0  0
 47 48  2  0  0  0  0
 47 46  1  0  0  0  0
 48 49  1  0  0  0  0
 49 45  1  0  0  0  0
 49 51  1  0  0  0  0
 50 48  1  0  0  0  0
 51 53  1  0  0  0  0
 51 54  1  0  0  0  0
 52 51  1  0  0  0  0
M  END
>  <MODEL>
8

>  <REMARK>
 VINA RESULT:    -7.947      2.676      3.690
 INTER + INTRA:         -12.572
 INTER:                 -11.888
 INTRA:                  -0.684
 UNBOUND:                -0.909
  Name = 
  9 active torsions:
  status: ('A' for Active; 'I' for Inactive)
    1  A    between atoms: C_1  and  C_2
    2  A    between atoms: C_2  and  C_3
    3  A    between atoms: C_2  and  C_10
    4  A    between atoms: C_3  and  C_4
    5  A    between atoms: N_8  and  C_9
    6  A    between atoms: C_14  and  N_15
    7  A    between atoms: C_16  and  C_18
    8  A    between atoms: C_20  and  C_21
    9  A    between atoms: C_26  and  C_27
                            x       y       z     vdW  Elec       q    Type
                         _______ _______ _______ _____ _____    ______ ____

>  <TORSDO>
F 9

$$$$
=
 OpenBabel07192307433D

 54 57  0  0  1  0  0  0  0  0999 V2000
   -0.1510   10.6180   21.0830 C   0  0  0  0  0  0  0  0  0  0  0  0
   -0.6530   11.3540   20.0030 C   0  0  0  0  0  0  0  0  0  0  0  0
   -0.3100   11.0140   18.6960 C   0  0  0  0  0  0  0  0  0  0  0  0
    0.5390    9.9320   18.4470 C   0  0  0  0  0  0  0  0  0  0  0  0
    1.0490    9.1810   19.5050 C   0  0  0  0  0  0  0  0  0  0  0  0
    0.6980    9.5290   20.8180 C   0  0  0  0  0  0  0  0  0  0  0  0
   -1.3210   12.1980   20.1660 H   0  0  0  0  0  0  0  0  0  0  0  0
   -0.7060   11.5880   17.8620 H   0  0  0  0  0  0  0  0  0  0  0  0
    0.7790    9.7000   17.4150 H   0  0  0  0  0  0  0  0  0  0  0  0
    1.0860    8.9450   21.6480 H   0  0  0  0  0  0  0  0  0  0  0  0
    1.9030    8.0780   19.3400 N   0  0  0  0  0  0  0  0  0  0  0  0
    2.6900    7.7560   18.2510 C   0  0  0  0  0  0  0  0  0  0  0  0
    2.8040    8.3800   17.2030 O   0  0  0  0  0  0  0  0  0  0  0  0
    1.9630    7.4110   20.1070 H   0  0  0  0  0  0  0  0  0  0  0  0
    3.4670    6.4870   18.4500 C   0  0  0  0  0  0  0  0  0  0  0  0
    2.9510    5.4720   19.2460 C   0  0  0  0  0  0  0  0  0  0  0  0
    3.6760    4.2840   19.4300 C   0  0  0  0  0  0  0  0  0  0  0  0
    4.9190    4.2150   18.7710 C   0  0  0  0  0  0  0  0  0  0  0  0
    5.3870    5.2710   17.9810 C   0  0  0  0  0  0  0  0  0  0  0  0
    4.6670    6.4140   17.8130 N   0  0  0  0  0  0  0  0  0  0  0  0
    1.9840    5.6010   19.7270 H   0  0  0  0  0  0  0  0  0  0  0  0
    5.5260    3.3160   18.8820 H   0  0  0  0  0  0  0  0  0  0  0  0
    3.1250    3.1050   20.3310 C   0  0  1  0  0  0  0  0  0  0  0  0
    2.3890    3.4570   21.6340 C   0  0  0  0  0  0  0  0  0  0  0  0
    1.3200    2.4950   21.1310 C   0  0  0  0  0  0  0  0  0  0  0  0
    1.9220    2.4600   19.8150 O   0  0  0  0  0  0  0  0  0  0  0  0
    3.9000    2.3400   20.4830 H   0  0  0  0  0  0  0  0  0  0  0  0
    2.0530    4.4950   21.7190 H   0  0  0  0  0  0  0  0  0  0  0  0
    2.8970    3.1550   22.5540 H   0  0  0  0  0  0  0  0  0  0  0  0
    1.3210    1.5030   21.5940 H   0  0  0  0  0  0  0  0  0  0  0  0
    0.3040    2.8970   21.1050 H   0  0  0  0  0  0  0  0  0  0  0  0
    6.7400    5.1250   17.2930 C   0  0  0  0  0  0  0  0  0  0  0  0
    7.4280    6.2980   17.1840 F   0  0  0  0  0  0  0  0  0  0  0  0
    6.6320    4.6400   16.0220 F   0  0  0  0  0  0  0  0  0  0  0  0
    7.5720    4.2660   17.9480 F   0  0  0  0  0  0  0  0  0  0  0  0
   -0.5010   10.9730   22.5230 C   0  0  2  0  0  0  0  0  0  0  0  0
    0.2160   11.7290   22.8690 H   0  0  0  0  0  0  0  0  0  0  0  0
   -0.3330    9.7510   23.4350 C   0  0  0  0  0  0  0  0  0  0  0  0
   -0.4170    8.8210   22.8620 H   0  0  0  0  0  0  0  0  0  0  0  0
   -1.0920    9.7250   24.2250 H   0  0  0  0  0  0  0  0  0  0  0  0
    0.6500    9.7520   23.9180 H   0  0  0  0  0  0  0  0  0  0  0  0
   -1.9200   11.5740   22.6050 C   0  0  0  0  0  0  0  0  0  0  0  0
   -2.5910   10.9000   23.1520 H   0  0  0  0  0  0  0  0  0  0  0  0
   -2.3480   11.6740   21.5990 H   0  0  0  0  0  0  0  0  0  0  0  0
   -1.9310   12.9070   23.2750 C   0  0  0  0  0  0  0  0  0  0  0  0
   -0.9680   13.8070   23.2370 N   0  0  0  0  0  0  0  0  0  0  0  0
   -1.3690   14.8940   23.9760 N   0  0  0  0  0  0  0  0  0  0  0  0
   -2.5620   14.6330   24.4540 C   0  0  0  0  0  0  0  0  0  0  0  0
   -2.9550   13.3970   24.0420 N   0  0  0  0  0  0  0  0  0  0  0  0
   -3.1540   15.2850   25.0800 H   0  0  0  0  0  0  0  0  0  0  0  0
   -4.1990   12.7520   24.3610 C   0  0  0  0  0  0  0  0  0  0  0  0
   -4.4370   12.9550   25.4080 H   0  0  0  0  0  0  0  0  0  0  0  0
   -4.9920   13.1460   23.7200 H   0  0  0  0  0  0  0  0  0  0  0  0
   -4.0930   11.6780   24.1920 H   0  0  0  0  0  0  0  0  0  0  0  0
  1 36  1  0  0  0  0
  2  7  1  0  0  0  0
  2  1  2  0  0  0  0
  3  2  1  0  0  0  0
  4  3  2  0  0  0  0
  4  5  1  0  0  0  0
  5  6  2  0  0  0  0
  6  1  1  0  0  0  0
  6 10  1  0  0  0  0
  8  3  1  0  0  0  0
  9  4  1  0  0  0  0
 11  5  1  0  0  0  0
 11 14  1  0  0  0  0
 12 15  1  0  0  0  0
 12 11  1  0  0  0  0
 13 12  2  0  0  0  0
 15 16  1  0  0  0  0
 16 17  2  0  0  0  0
 16 21  1  0  0  0  0
 17 23  1  0  0  0  0
 18 22  1  0  0  0  0
 18 17  1  0  0  0  0
 19 18  2  0  0  0  0
 20 19  1  0  0  0  0
 20 15  2  0  0  0  0
 23 27  1  1  0  0  0
 23 24  1  0  0  0  0
 24 28  1  0  0  0  0
 24 29  1  0  0  0  0
 25 30  1  0  0  0  0
 25 24  1  0  0  0  0
 26 23  1  0  0  0  0
 26 25  1  0  0  0  0
 31 25  1  0  0  0  0
 32 35  1  0  0  0  0
 32 19  1  0  0  0  0
 33 32  1  0  0  0  0
 34 32  1  0  0  0  0
 36 42  1  0  0  0  0
 36 37  1  1  0  0  0
 36 38  1  0  0  0  0
 38 41  1  0  0  0  0
 38 40  1  0  0  0  0
 39 38  1  0  0  0  0
 42 43  1  0  0  0  0
 42 45  1  0  0  0  0
 44 42  1  0  0  0  0
 45 49  1  0  0  0  0
 46 45  2  0  0  0  0
 46 47  1  0  0  0  0
 47 48  2  0  0  0  0
 48 50  1  0  0  0  0
 49 51  1  0  0  0  0
 49 48  1  0  0  0  0
 51 52  1  0  0  0  0
 53 51  1  0  0  0  0
 54 51  1  0  0  0  0
M  END
>  <MODEL>
9

>  <REMARK>
 VINA RESULT:    -7.901      3.723      5.316
 INTER + INTRA:         -12.505
 INTER:                 -11.733
 INTRA:                  -0.772
 UNBOUND:                -0.909
  Name = 
  9 active torsions:
  status: ('A' for Active; 'I' for Inactive)
    1  A    between atoms: C_1  and  C_2
    2  A    between atoms: C_2  and  C_3
    3  A    between atoms: C_2  and  C_10
    4  A    between atoms: C_3  and  C_4
    5  A    between atoms: N_8  and  C_9
    6  A    between atoms: C_14  and  N_15
    7  A    between atoms: C_16  and  C_18
    8  A    between atoms: C_20  and  C_21
    9  A    between atoms: C_26  and  C_27
                            x       y       z     vdW  Elec       q    Type
                         _______ _______ _______ _____ _____    ______ ____

>  <TORSDO>
F 9

$$$$
=
 OpenBabel07192307433D

 54 57  0  0  1  0  0  0  0  0999 V2000
    5.4490    4.8170   18.8830 C   0  0  0  0  0  0  0  0  0  0  0  0
    4.8560    3.5480   18.8560 C   0  0  0  0  0  0  0  0  0  0  0  0
    3.4920    3.4000   19.0980 C   0  0  0  0  0  0  0  0  0  0  0  0
    2.6980    4.5180   19.3700 C   0  0  0  0  0  0  0  0  0  0  0  0
    3.2620    5.7910   19.3980 C   0  0  0  0  0  0  0  0  0  0  0  0
    4.6360    5.9320   19.1520 C   0  0  0  0  0  0  0  0  0  0  0  0
    5.4490    2.6600   18.6420 H   0  0  0  0  0  0  0  0  0  0  0  0
    3.0380    2.4120   19.0740 H   0  0  0  0  0  0  0  0  0  0  0  0
    1.6400    4.3590   19.5500 H   0  0  0  0  0  0  0  0  0  0  0  0
    5.0830    6.9230   19.1660 H   0  0  0  0  0  0  0  0  0  0  0  0
    2.5330    6.9640   19.6580 N   0  0  0  0  0  0  0  0  0  0  0  0
    2.1650    7.9610   18.7750 C   0  0  0  0  0  0  0  0  0  0  0  0
    2.3990    8.0160   17.5730 O   0  0  0  0  0  0  0  0  0  0  0  0
    2.2310    7.1270   20.6160 H   0  0  0  0  0  0  0  0  0  0  0  0
    1.3900    9.0650   19.4340 C   0  0  0  0  0  0  0  0  0  0  0  0
    1.1410   10.2470   18.7490 C   0  0  0  0  0  0  0  0  0  0  0  0
    0.4140   11.2780   19.3640 C   0  0  0  0  0  0  0  0  0  0  0  0
   -0.0190   11.0230   20.6790 C   0  0  0  0  0  0  0  0  0  0  0  0
    0.2610    9.8100   21.3190 C   0  0  0  0  0  0  0  0  0  0  0  0
    0.9660    8.8220   20.7040 N   0  0  0  0  0  0  0  0  0  0  0  0
    1.5140   10.3720   17.7340 H   0  0  0  0  0  0  0  0  0  0  0  0
   -0.5870   11.7910   21.2070 H   0  0  0  0  0  0  0  0  0  0  0  0
    0.1120   12.6410   18.6190 C   0  0  1  0  0  0  0  0  0  0  0  0
   -0.6770   13.7290   19.3670 C   0  0  0  0  0  0  0  0  0  0  0  0
    0.4420   14.6610   18.9140 C   0  0  0  0  0  0  0  0  0  0  0  0
    1.2600   13.5370   18.5080 O   0  0  0  0  0  0  0  0  0  0  0  0
   -0.2880   12.4530   17.6130 H   0  0  0  0  0  0  0  0  0  0  0  0
   -0.7400   13.6020   20.4510 H   0  0  0  0  0  0  0  0  0  0  0  0
   -1.6660   13.9530   18.9600 H   0  0  0  0  0  0  0  0  0  0  0  0
    0.2050   15.3060   18.0630 H   0  0  0  0  0  0  0  0  0  0  0  0
    0.9150   15.2440   19.7080 H   0  0  0  0  0  0  0  0  0  0  0  0
   -0.2440    9.6010   22.7420 C   0  0  0  0  0  0  0  0  0  0  0  0
   -0.9740   10.6470   23.2240 F   0  0  0  0  0  0  0  0  0  0  0  0
    0.7710    9.4150   23.6360 F   0  0  0  0  0  0  0  0  0  0  0  0
   -1.0450    8.5030   22.8590 F   0  0  0  0  0  0  0  0  0  0  0  0
    6.9390    5.0070   18.6320 C   0  0  2  0  0  0  0  0  0  0  0  0
    7.3900    4.0130   18.5020 H   0  0  0  0  0  0  0  0  0  0  0  0
    7.6150    5.6450   19.8520 C   0  0  0  0  0  0  0  0  0  0  0  0
    8.4950    5.0680   20.1560 H   0  0  0  0  0  0  0  0  0  0  0  0
    6.9380    5.6950   20.7120 H   0  0  0  0  0  0  0  0  0  0  0  0
    7.9500    6.6630   19.6310 H   0  0  0  0  0  0  0  0  0  0  0  0
    7.1740    5.8190   17.3410 C   0  0  0  0  0  0  0  0  0  0  0  0
    8.2450    6.0060   17.1960 H   0  0  0  0  0  0  0  0  0  0  0  0
    6.7040    6.8080   17.4240 H   0  0  0  0  0  0  0  0  0  0  0  0
    6.6410    5.1260   16.1320 C   0  0  0  0  0  0  0  0  0  0  0  0
    7.0600    3.9750   15.6450 N   0  0  0  0  0  0  0  0  0  0  0  0
    6.3110    3.6830   14.5300 N   0  0  0  0  0  0  0  0  0  0  0  0
    5.4570    4.6630   14.3570 C   0  0  0  0  0  0  0  0  0  0  0  0
    5.6280    5.5920   15.3360 N   0  0  0  0  0  0  0  0  0  0  0  0
    4.7250    4.7380   13.5650 H   0  0  0  0  0  0  0  0  0  0  0  0
    4.8850    6.8140   15.4870 C   0  0  0  0  0  0  0  0  0  0  0  0
    5.4320    7.4710   16.1670 H   0  0  0  0  0  0  0  0  0  0  0  0
    4.7770    7.2990   14.5130 H   0  0  0  0  0  0  0  0  0  0  0  0
    3.8970    6.5780   15.8890 H   0  0  0  0  0  0  0  0  0  0  0  0
  1  6  1  0  0  0  0
  2  1  2  0  0  0  0
  2  3  1  0  0  0  0
  3  4  2  0  0  0  0
  4  5  1  0  0  0  0
  4  9  1  0  0  0  0
  5 11  1  0  0  0  0
  6 10  1  0  0  0  0
  6  5  2  0  0  0  0
  7  2  1  0  0  0  0
  8  3  1  0  0  0  0
 11 14  1  0  0  0  0
 12 15  1  0  0  0  0
 12 11  1  0  0  0  0
 13 12  2  0  0  0  0
 15 20  1  0  0  0  0
 16 17  1  0  0  0  0
 16 15  2  0  0  0  0
 17 18  2  0  0  0  0
 18 22  1  0  0  0  0
 18 19  1  0  0  0  0
 19 32  1  0  0  0  0
 20 19  2  0  0  0  0
 21 16  1  0  0  0  0
 23 27  1  6  0  0  0
 23 17  1  0  0  0  0
 23 24  1  0  0  0  0
 24 28  1  0  0  0  0
 25 24  1  0  0  0  0
 25 31  1  0  0  0  0
 26 23  1  0  0  0  0
 26 25  1  0  0  0  0
 29 24  1  0  0  0  0
 30 25  1  0  0  0  0
 32 35  1  0  0  0  0
 32 33  1  0  0  0  0
 32 34  1  0  0  0  0
 36 37  1  6  0  0  0
 36  1  1  0  0  0  0
 36 38  1  0  0  0  0
 38 39  1  0  0  0  0
 38 40  1  0  0  0  0
 41 38  1  0  0  0  0
 42 44  1  0  0  0  0
 42 36  1  0  0  0  0
 43 42  1  0  0  0  0
 45 42  1  0  0  0  0
 46 45  2  0  0  0  0
 47 46  1  0  0  0  0
 48 47  2  0  0  0  0
 48 49  1  0  0  0  0
 49 51  1  0  0  0  0
 49 45  1  0  0  0  0
 50 48  1  0  0  0  0
 51 54  1  0  0  0  0
 51 52  1  0  0  0  0
 53 51  1  0  0  0  0
M  END
>  <MODEL>
10

>  <REMARK>
 VINA RESULT:    -7.841      3.604      8.660
 INTER + INTRA:         -12.416
 INTER:                 -11.143
 INTRA:                  -1.274
 UNBOUND:                -0.909
  Name = 
  9 active torsions:
  status: ('A' for Active; 'I' for Inactive)
    1  A    between atoms: C_1  and  C_2
    2  A    between atoms: C_2  and  C_3
    3  A    between atoms: C_2  and  C_10
    4  A    between atoms: C_3  and  C_4
    5  A    between atoms: N_8  and  C_9
    6  A    between atoms: C_14  and  N_15
    7  A    between atoms: C_16  and  C_18
    8  A    between atoms: C_20  and  C_21
    9  A    between atoms: C_26  and  C_27
                            x       y       z     vdW  Elec       q    Type
                         _______ _______ _______ _____ _____    ______ ____

>  <TORSDO>
F 9

$$$$
=
 OpenBabel07192307433D

 54 57  0  0  1  0  0  0  0  0999 V2000
    4.2320    5.1600   17.1440 C   0  0  0  0  0  0  0  0  0  0  0  0
    3.6510    3.9080   17.3830 C   0  0  0  0  0  0  0  0  0  0  0  0
    2.5360    3.7930   18.2100 C   0  0  0  0  0  0  0  0  0  0  0  0
    1.9830    4.9270   18.8120 C   0  0  0  0  0  0  0  0  0  0  0  0
    2.5390    6.1840   18.5870 C   0  0  0  0  0  0  0  0  0  0  0  0
    3.6610    6.2920   17.7520 C   0  0  0  0  0  0  0  0  0  0  0  0
    4.0570    3.0090   16.9230 H   0  0  0  0  0  0  0  0  0  0  0  0
    2.0890    2.8180   18.3890 H   0  0  0  0  0  0  0  0  0  0  0  0
    1.1130    4.7930   19.4470 H   0  0  0  0  0  0  0  0  0  0  0  0
    4.0980    7.2710   17.5670 H   0  0  0  0  0  0  0  0  0  0  0  0
    2.0410    7.3710   19.1490 N   0  0  0  0  0  0  0  0  0  0  0  0
    1.8110    8.5850   18.5300 C   0  0  0  0  0  0  0  0  0  0  0  0
    1.9920    8.8670   17.3520 O   0  0  0  0  0  0  0  0  0  0  0  0
    1.8190    7.3640   20.1430 H   0  0  0  0  0  0  0  0  0  0  0  0
    1.2740    9.6250   19.4710 C   0  0  0  0  0  0  0  0  0  0  0  0
    1.2970   10.9670   19.1120 C   0  0  0  0  0  0  0  0  0  0  0  0
    0.7920   11.9390   19.9900 C   0  0  0  0  0  0  0  0  0  0  0  0
    0.2870   11.4580   21.2140 C   0  0  0  0  0  0  0  0  0  0  0  0
    0.2900   10.0920   21.5200 C   0  0  0  0  0  0  0  0  0  0  0  0
    0.7820    9.1650   20.6530 N   0  0  0  0  0  0  0  0  0  0  0  0
    1.7080   11.2620   18.1500 H   0  0  0  0  0  0  0  0  0  0  0  0
   -0.1150   12.1700   21.9350 H   0  0  0  0  0  0  0  0  0  0  0  0
    0.8030   13.4780   19.6210 C   0  0  1  0  0  0  0  0  0  0  0  0
   -0.2090   13.9930   18.5840 C   0  0  0  0  0  0  0  0  0  0  0  0
   -0.5180   15.0680   19.6190 C   0  0  0  0  0  0  0  0  0  0  0  0
    0.2180   14.3480   20.6370 O   0  0  0  0  0  0  0  0  0  0  0  0
    1.8260   13.8190   19.4100 H   0  0  0  0  0  0  0  0  0  0  0  0
   -1.0470   13.3240   18.3720 H   0  0  0  0  0  0  0  0  0  0  0  0
    0.2240   14.3550   17.6480 H   0  0  0  0  0  0  0  0  0  0  0  0
   -0.0720   16.0500   19.4290 H   0  0  0  0  0  0  0  0  0  0  0  0
   -1.5730   15.1790   19.8790 H   0  0  0  0  0  0  0  0  0  0  0  0
   -0.2770    9.6430   22.8610 C   0  0  0  0  0  0  0  0  0  0  0  0
    0.6770    9.3810   23.7990 F   0  0  0  0  0  0  0  0  0  0  0  0
   -1.0200    8.5020   22.7600 F   0  0  0  0  0  0  0  0  0  0  0  0
   -1.1020   10.5740   23.4210 F   0  0  0  0  0  0  0  0  0  0  0  0
    5.4570    5.3150   16.2520 C   0  0  2  0  0  0  0  0  0  0  0  0
    5.4630    6.3420   15.8620 H   0  0  0  0  0  0  0  0  0  0  0  0
    5.3620    4.3810   15.0390 C   0  0  0  0  0  0  0  0  0  0  0  0
    4.3590    4.4120   14.6000 H   0  0  0  0  0  0  0  0  0  0  0  0
    5.5730    3.3400   15.3090 H   0  0  0  0  0  0  0  0  0  0  0  0
    6.0710    4.6740   14.2590 H   0  0  0  0  0  0  0  0  0  0  0  0
    6.7510    5.0950   17.0620 C   0  0  0  0  0  0  0  0  0  0  0  0
    7.4960    4.5620   16.4570 H   0  0  0  0  0  0  0  0  0  0  0  0
    6.5520    4.4510   17.9280 H   0  0  0  0  0  0  0  0  0  0  0  0
    7.3480    6.3770   17.5340 C   0  0  0  0  0  0  0  0  0  0  0  0
    7.3620    7.5200   16.8780 N   0  0  0  0  0  0  0  0  0  0  0  0
    8.0000    8.4550   17.6570 N   0  0  0  0  0  0  0  0  0  0  0  0
    8.3690    7.8630   18.7670 C   0  0  0  0  0  0  0  0  0  0  0  0
    7.9830    6.5590   18.7350 N   0  0  0  0  0  0  0  0  0  0  0  0
    8.8980    8.3230   19.5890 H   0  0  0  0  0  0  0  0  0  0  0  0
    8.2080    5.5810   19.7650 C   0  0  0  0  0  0  0  0  0  0  0  0
    8.8510    4.7950   19.3620 H   0  0  0  0  0  0  0  0  0  0  0  0
    8.6980    6.0550   20.6200 H   0  0  0  0  0  0  0  0  0  0  0  0
    7.2460    5.1700   20.0770 H   0  0  0  0  0  0  0  0  0  0  0  0
  1  2  2  0  0  0  0
  1  6  1  0  0  0  0
  2  3  1  0  0  0  0
  3  8  1  0  0  0  0
  3  4  2  0  0  0  0
  4  9  1  0  0  0  0
  5  4  1  0  0  0  0
  5 11  1  0  0  0  0
  6  5  2  0  0  0  0
  7  2  1  0  0  0  0
 10  6  1  0  0  0  0
 11 14  1  0  0  0  0
 12 11  1  0  0  0  0
 12 15  1  0  0  0  0
 13 12  2  0  0  0  0
 15 20  1  0  0  0  0
 16 15  2  0  0  0  0
 16 17  1  0  0  0  0
 17 18  2  0  0  0  0
 18 19  1  0  0  0  0
 18 22  1  0  0  0  0
 19 32  1  0  0  0  0
 20 19  2  0  0  0  0
 21 16  1  0  0  0  0
 23 27  1  6  0  0  0
 23 17  1  0  0  0  0
 23 26  1  0  0  0  0
 24 25  1  0  0  0  0
 24 23  1  0  0  0  0
 25 31  1  0  0  0  0
 25 26  1  0  0  0  0
 28 24  1  0  0  0  0
 29 24  1  0  0  0  0
 30 25  1  0  0  0  0
 32 35  1  0  0  0  0
 32 33  1  0  0  0  0
 34 32  1  0  0  0  0
 36 37  1  6  0  0  0
 36 42  1  0  0  0  0
 36  1  1  0  0  0  0
 38 40  1  0  0  0  0
 38 36  1  0  0  0  0
 39 38  1  0  0  0  0
 41 38  1  0  0  0  0
 42 45  1  0  0  0  0
 42 44  1  0  0  0  0
 43 42  1  0  0  0  0
 45 49  1  0  0  0  0
 46 45  2  0  0  0  0
 46 47  1  0  0  0  0
 47 48  2  0  0  0  0
 48 50  1  0  0  0  0
 49 48  1  0  0  0  0
 49 51  1  0  0  0  0
 51 54  1  0  0  0  0
 51 53  1  0  0  0  0
 52 51  1  0  0  0  0
M  END
>  <MODEL>
11

>  <REMARK>
 VINA RESULT:    -7.833      3.727      9.064
 INTER + INTRA:         -12.406
 INTER:                 -11.443
 INTRA:                  -0.963
 UNBOUND:                -0.909
  Name = 
  9 active torsions:
  status: ('A' for Active; 'I' for Inactive)
    1  A    between atoms: C_1  and  C_2
    2  A    between atoms: C_2  and  C_3
    3  A    between atoms: C_2  and  C_10
    4  A    between atoms: C_3  and  C_4
    5  A    between atoms: N_8  and  C_9
    6  A    between atoms: C_14  and  N_15
    7  A    between atoms: C_16  and  C_18
    8  A    between atoms: C_20  and  C_21
    9  A    between atoms: C_26  and  C_27
                            x       y       z     vdW  Elec       q    Type
                         _______ _______ _______ _____ _____    ______ ____

>  <TORSDO>
F 9

$$$$
=
 OpenBabel07192307433D

 54 57  0  0  1  0  0  0  0  0999 V2000
   -0.6710   10.8200   19.8770 C   0  0  0  0  0  0  0  0  0  0  0  0
   -0.4860   11.3070   21.1770 C   0  0  0  0  0  0  0  0  0  0  0  0
    0.3350   10.6270   22.0750 C   0  0  0  0  0  0  0  0  0  0  0  0
    0.9830    9.4510   21.6890 C   0  0  0  0  0  0  0  0  0  0  0  0
    0.8190    8.9480   20.4000 C   0  0  0  0  0  0  0  0  0  0  0  0
   -0.0070    9.6380   19.5010 C   0  0  0  0  0  0  0  0  0  0  0  0
   -0.9740   12.2230   21.5030 H   0  0  0  0  0  0  0  0  0  0  0  0
    0.4760   11.0120   23.0830 H   0  0  0  0  0  0  0  0  0  0  0  0
    1.6140    8.9550   22.4190 H   0  0  0  0  0  0  0  0  0  0  0  0
   -0.1360    9.2560   18.4910 H   0  0  0  0  0  0  0  0  0  0  0  0
    1.4390    7.7770   19.9330 N   0  0  0  0  0  0  0  0  0  0  0  0
    2.3040    7.6300   18.8660 C   0  0  0  0  0  0  0  0  0  0  0  0
    2.7130    8.5040   18.1110 O   0  0  0  0  0  0  0  0  0  0  0  0
    1.2340    6.9090   20.4240 H   0  0  0  0  0  0  0  0  0  0  0  0
    2.7560    6.2100   18.6760 C   0  0  0  0  0  0  0  0  0  0  0  0
    3.6940    5.9030   17.6980 C   0  0  0  0  0  0  0  0  0  0  0  0
    4.1190    4.5770   17.5220 C   0  0  0  0  0  0  0  0  0  0  0  0
    3.5340    3.6260   18.3810 C   0  0  0  0  0  0  0  0  0  0  0  0
    2.5940    3.9960   19.3500 C   0  0  0  0  0  0  0  0  0  0  0  0
    2.1970    5.2880   19.5060 N   0  0  0  0  0  0  0  0  0  0  0  0
    4.0960    6.6930   17.0680 H   0  0  0  0  0  0  0  0  0  0  0  0
    3.8250    2.5790   18.2870 H   0  0  0  0  0  0  0  0  0  0  0  0
    5.1820    4.1840   16.4180 C   0  0  1  0  0  0  0  0  0  0  0  0
    5.3960    5.1370   15.2300 C   0  0  0  0  0  0  0  0  0  0  0  0
    6.8770    4.9950   15.5570 C   0  0  0  0  0  0  0  0  0  0  0  0
    6.5720    4.3640   16.8250 O   0  0  0  0  0  0  0  0  0  0  0  0
    5.0390    3.1420   16.0960 H   0  0  0  0  0  0  0  0  0  0  0  0
    5.0040    6.1490   15.3630 H   0  0  0  0  0  0  0  0  0  0  0  0
    5.0910    4.7460   14.2560 H   0  0  0  0  0  0  0  0  0  0  0  0
    7.4430    4.3210   14.9060 H   0  0  0  0  0  0  0  0  0  0  0  0
    7.4200    5.9340   15.6890 H   0  0  0  0  0  0  0  0  0  0  0  0
    2.0060    2.9140   20.2490 C   0  0  0  0  0  0  0  0  0  0  0  0
    1.6920    1.7640   19.5880 F   0  0  0  0  0  0  0  0  0  0  0  0
    0.8560    3.3130   20.8650 F   0  0  0  0  0  0  0  0  0  0  0  0
    2.8550    2.5460   21.2510 F   0  0  0  0  0  0  0  0  0  0  0  0
   -1.5680   11.5360   18.8760 C   0  0  2  0  0  0  0  0  0  0  0  0
   -2.2030   12.2390   19.4340 H   0  0  0  0  0  0  0  0  0  0  0  0
   -2.5100   10.5400   18.1870 C   0  0  0  0  0  0  0  0  0  0  0  0
   -2.7990    9.7370   18.8740 H   0  0  0  0  0  0  0  0  0  0  0  0
   -2.0410   10.0760   17.3120 H   0  0  0  0  0  0  0  0  0  0  0  0
   -3.4280   11.0320   17.8510 H   0  0  0  0  0  0  0  0  0  0  0  0
   -0.7240   12.3410   17.8660 C   0  0  0  0  0  0  0  0  0  0  0  0
   -1.3720   12.8160   17.1190 H   0  0  0  0  0  0  0  0  0  0  0  0
   -0.0610   11.6690   17.3060 H   0  0  0  0  0  0  0  0  0  0  0  0
    0.0960   13.3960   18.5290 C   0  0  0  0  0  0  0  0  0  0  0  0
   -0.3550   14.5130   19.0640 N   0  0  0  0  0  0  0  0  0  0  0  0
    0.7170   15.2080   19.5720 N   0  0  0  0  0  0  0  0  0  0  0  0
    1.7970   14.5050   19.3300 C   0  0  0  0  0  0  0  0  0  0  0  0
    1.4580   13.3620   18.6760 N   0  0  0  0  0  0  0  0  0  0  0  0
    2.8080   14.7780   19.5990 H   0  0  0  0  0  0  0  0  0  0  0  0
    2.3630   12.3360   18.2340 C   0  0  0  0  0  0  0  0  0  0  0  0
    2.4700   12.4120   17.1490 H   0  0  0  0  0  0  0  0  0  0  0  0
    3.3370   12.4770   18.7100 H   0  0  0  0  0  0  0  0  0  0  0  0
    1.9560   11.3630   18.5140 H   0  0  0  0  0  0  0  0  0  0  0  0
  1  2  1  0  0  0  0
  2  7  1  0  0  0  0
  2  3  2  0  0  0  0
  3  8  1  0  0  0  0
  4  3  1  0  0  0  0
  4  9  1  0  0  0  0
  5  4  2  0  0  0  0
  6  1  2  0  0  0  0
  6  5  1  0  0  0  0
 10  6  1  0  0  0  0
 11  5  1  0  0  0  0
 11 14  1  0  0  0  0
 12 11  1  0  0  0  0
 13 12  2  0  0  0  0
 15 12  1  0  0  0  0
 15 20  1  0  0  0  0
 16 15  2  0  0  0  0
 17 16  1  0  0  0  0
 17 18  2  0  0  0  0
 18 19  1  0  0  0  0
 19 20  2  0  0  0  0
 19 32  1  0  0  0  0
 21 16  1  0  0  0  0
 22 18  1  0  0  0  0
 23 27  1  6  0  0  0
 23 26  1  0  0  0  0
 23 17  1  0  0  0  0
 24 28  1  0  0  0  0
 24 25  1  0  0  0  0
 24 23  1  0  0  0  0
 25 31  1  0  0  0  0
 25 26  1  0  0  0  0
 29 24  1  0  0  0  0
 30 25  1  0  0  0  0
 32 34  1  0  0  0  0
 32 35  1  0  0  0  0
 33 32  1  0  0  0  0
 36 37  1  1  0  0  0
 36  1  1  0  0  0  0
 38 39  1  0  0  0  0
 38 36  1  0  0  0  0
 40 38  1  0  0  0  0
 41 38  1  0  0  0  0
 42 45  1  0  0  0  0
 42 36  1  0  0  0  0
 43 42  1  0  0  0  0
 44 42  1  0  0  0  0
 45 49  1  0  0  0  0
 45 46  2  0  0  0  0
 46 47  1  0  0  0  0
 48 47  2  0  0  0  0
 48 50  1  0  0  0  0
 49 48  1  0  0  0  0
 51 54  1  0  0  0  0
 51 49  1  0  0  0  0
 51 53  1  0  0  0  0
 52 51  1  0  0  0  0
M  END
>  <MODEL>
12

>  <REMARK>
 VINA RESULT:    -7.827      2.022      3.009
 INTER + INTRA:         -12.396
 INTER:                 -11.274
 INTRA:                  -1.122
 UNBOUND:                -0.909
  Name = 
  9 active torsions:
  status: ('A' for Active; 'I' for Inactive)
    1  A    between atoms: C_1  and  C_2
    2  A    between atoms: C_2  and  C_3
    3  A    between atoms: C_2  and  C_10
    4  A    between atoms: C_3  and  C_4
    5  A    between atoms: N_8  and  C_9
    6  A    between atoms: C_14  and  N_15
    7  A    between atoms: C_16  and  C_18
    8  A    between atoms: C_20  and  C_21
    9  A    between atoms: C_26  and  C_27
                            x       y       z     vdW  Elec       q    Type
                         _______ _______ _______ _____ _____    ______ ____

>  <TORSDO>
F 9

$$$$
=
 OpenBabel07192307433D

 54 57  0  0  1  0  0  0  0  0999 V2000
    0.6500   12.0570   18.7780 C   0  0  0  0  0  0  0  0  0  0  0  0
   -0.7180   12.1270   18.4860 C   0  0  0  0  0  0  0  0  0  0  0  0
   -1.3960   11.0070   18.0080 C   0  0  0  0  0  0  0  0  0  0  0  0
   -0.7190    9.8000   17.8150 C   0  0  0  0  0  0  0  0  0  0  0  0
    0.6410    9.7030   18.1020 C   0  0  0  0  0  0  0  0  0  0  0  0
    1.3170   10.8340   18.5840 C   0  0  0  0  0  0  0  0  0  0  0  0
   -1.2720   13.0520   18.6310 H   0  0  0  0  0  0  0  0  0  0  0  0
   -2.4590   11.0680   17.7850 H   0  0  0  0  0  0  0  0  0  0  0  0
   -1.2860    8.9530   17.4430 H   0  0  0  0  0  0  0  0  0  0  0  0
    2.3760   10.7650   18.8160 H   0  0  0  0  0  0  0  0  0  0  0  0
    1.3920    8.5270   17.9410 N   0  0  0  0  0  0  0  0  0  0  0  0
    1.9910    7.7490   18.9130 C   0  0  0  0  0  0  0  0  0  0  0  0
    1.9800    7.9310   20.1240 O   0  0  0  0  0  0  0  0  0  0  0  0
    1.5330    8.1860   16.9920 H   0  0  0  0  0  0  0  0  0  0  0  0
    2.7160    6.5630   18.3440 C   0  0  0  0  0  0  0  0  0  0  0  0
    3.8900    6.7440   17.6240 C   0  0  0  0  0  0  0  0  0  0  0  0
    4.5690    5.6350   17.0950 C   0  0  0  0  0  0  0  0  0  0  0  0
    3.9810    4.3800   17.3430 C   0  0  0  0  0  0  0  0  0  0  0  0
    2.7950    4.2600   18.0770 C   0  0  0  0  0  0  0  0  0  0  0  0
    2.1530    5.3480   18.5840 N   0  0  0  0  0  0  0  0  0  0  0  0
    4.2800    7.7470   17.4700 H   0  0  0  0  0  0  0  0  0  0  0  0
    4.4640    3.4840   16.9520 H   0  0  0  0  0  0  0  0  0  0  0  0
    5.9060    5.7980   16.2660 C   0  0  1  0  0  0  0  0  0  0  0  0
    6.9830    4.7060   16.3830 C   0  0  0  0  0  0  0  0  0  0  0  0
    6.9840    4.7330   14.8590 C   0  0  0  0  0  0  0  0  0  0  0  0
    5.7710    5.5240   14.8380 O   0  0  0  0  0  0  0  0  0  0  0  0
    6.3220    6.8070   16.3940 H   0  0  0  0  0  0  0  0  0  0  0  0
    6.6460    3.7580   16.8130 H   0  0  0  0  0  0  0  0  0  0  0  0
    7.9160    5.0180   16.8580 H   0  0  0  0  0  0  0  0  0  0  0  0
    7.8160    5.2720   14.3960 H   0  0  0  0  0  0  0  0  0  0  0  0
    6.8470    3.7630   14.3740 H   0  0  0  0  0  0  0  0  0  0  0  0
    2.2180    2.8680   18.3110 C   0  0  0  0  0  0  0  0  0  0  0  0
    2.7530    2.2270   19.3890 F   0  0  0  0  0  0  0  0  0  0  0  0
    2.4150    2.0350   17.2490 F   0  0  0  0  0  0  0  0  0  0  0  0
    0.8700    2.8880   18.5220 F   0  0  0  0  0  0  0  0  0  0  0  0
    1.4190   13.2660   19.2930 C   0  0  2  0  0  0  0  0  0  0  0  0
    0.7890   14.1550   19.1490 H   0  0  0  0  0  0  0  0  0  0  0  0
    2.6930   13.4870   18.4660 C   0  0  0  0  0  0  0  0  0  0  0  0
    2.9690   12.5760   17.9240 H   0  0  0  0  0  0  0  0  0  0  0  0
    3.5440   13.7690   19.0970 H   0  0  0  0  0  0  0  0  0  0  0  0
    2.5490   14.2800   17.7260 H   0  0  0  0  0  0  0  0  0  0  0  0
    1.7170   13.1210   20.8000 C   0  0  0  0  0  0  0  0  0  0  0  0
    2.5720   13.7470   21.0840 H   0  0  0  0  0  0  0  0  0  0  0  0
    2.0100   12.0890   21.0310 H   0  0  0  0  0  0  0  0  0  0  0  0
    0.5470   13.4970   21.6460 C   0  0  0  0  0  0  0  0  0  0  0  0
    0.1990   14.7180   21.9980 N   0  0  0  0  0  0  0  0  0  0  0  0
   -0.9340   14.6350   22.7720 N   0  0  0  0  0  0  0  0  0  0  0  0
   -1.2490   13.3670   22.8810 C   0  0  0  0  0  0  0  0  0  0  0  0
   -0.3480   12.6150   22.1930 N   0  0  0  0  0  0  0  0  0  0  0  0
   -2.0890   12.9640   23.4290 H   0  0  0  0  0  0  0  0  0  0  0  0
   -0.3500   11.1820   22.0780 C   0  0  0  0  0  0  0  0  0  0  0  0
   -0.9690   10.7700   22.8790 H   0  0  0  0  0  0  0  0  0  0  0  0
   -0.7650   10.8930   21.1080 H   0  0  0  0  0  0  0  0  0  0  0  0
    0.6770   10.8200   22.1590 H   0  0  0  0  0  0  0  0  0  0  0  0
  1 36  1  0  0  0  0
  2  7  1  0  0  0  0
  2  1  2  0  0  0  0
  3  2  1  0  0  0  0
  4  3  2  0  0  0  0
  4  5  1  0  0  0  0
  5  6  2  0  0  0  0
  6  1  1  0  0  0  0
  6 10  1  0  0  0  0
  8  3  1  0  0  0  0
  9  4  1  0  0  0  0
 11  5  1  0  0  0  0
 11 12  1  0  0  0  0
 12 13  2  0  0  0  0
 14 11  1  0  0  0  0
 15 20  1  0  0  0  0
 15 12  1  0  0  0  0
 16 15  2  0  0  0  0
 17 18  2  0  0  0  0
 17 16  1  0  0  0  0
 18 19  1  0  0  0  0
 19 32  1  0  0  0  0
 19 20  2  0  0  0  0
 21 16  1  0  0  0  0
 22 18  1  0  0  0  0
 23 24  1  0  0  0  0
 23 27  1  1  0  0  0
 23 17  1  0  0  0  0
 24 28  1  0  0  0  0
 24 29  1  0  0  0  0
 25 24  1  0  0  0  0
 26 25  1  0  0  0  0
 26 23  1  0  0  0  0
 30 25  1  0  0  0  0
 31 25  1  0  0  0  0
 32 35  1  0  0  0  0
 32 33  1  0  0  0  0
 34 32  1  0  0  0  0
 36 37  1  6  0  0  0
 36 42  1  0  0  0  0
 38 40  1  0  0  0  0
 38 36  1  0  0  0  0
 39 38  1  0  0  0  0
 41 38  1  0  0  0  0
 42 44  1  0  0  0  0
 42 43  1  0  0  0  0
 42 45  1  0  0  0  0
 45 46  2  0  0  0  0
 45 49  1  0  0  0  0
 46 47  1  0  0  0  0
 47 48  2  0  0  0  0
 48 50  1  0  0  0  0
 49 48  1  0  0  0  0
 51 54  1  0  0  0  0
 51 49  1  0  0  0  0
 51 52  1  0  0  0  0
 53 51  1  0  0  0  0
M  END
>  <MODEL>
13

>  <REMARK>
 VINA RESULT:    -7.821      2.788      4.092
 INTER + INTRA:         -12.388
 INTER:                 -11.247
 INTRA:                  -1.141
 UNBOUND:                -0.909
  Name = 
  9 active torsions:
  status: ('A' for Active; 'I' for Inactive)
    1  A    between atoms: C_1  and  C_2
    2  A    between atoms: C_2  and  C_3
    3  A    between atoms: C_2  and  C_10
    4  A    between atoms: C_3  and  C_4
    5  A    between atoms: N_8  and  C_9
    6  A    between atoms: C_14  and  N_15
    7  A    between atoms: C_16  and  C_18
    8  A    between atoms: C_20  and  C_21
    9  A    between atoms: C_26  and  C_27
                            x       y       z     vdW  Elec       q    Type
                         _______ _______ _______ _____ _____    ______ ____

>  <TORSDO>
F 9

$$$$
=
 OpenBabel07192307433D

 54 57  0  0  1  0  0  0  0  0999 V2000
    4.6070    4.6080   16.8230 C   0  0  0  0  0  0  0  0  0  0  0  0
    4.1750    3.2940   17.0430 C   0  0  0  0  0  0  0  0  0  0  0  0
    3.0010    3.0470   17.7520 C   0  0  0  0  0  0  0  0  0  0  0  0
    2.2400    4.1080   18.2520 C   0  0  0  0  0  0  0  0  0  0  0  0
    2.6470    5.4240   18.0420 C   0  0  0  0  0  0  0  0  0  0  0  0
    3.8290    5.6650   17.3260 C   0  0  0  0  0  0  0  0  0  0  0  0
    4.7440    2.4490   16.6610 H   0  0  0  0  0  0  0  0  0  0  0  0
    2.6700    2.0240   17.9180 H   0  0  0  0  0  0  0  0  0  0  0  0
    1.3320    3.8710   18.7960 H   0  0  0  0  0  0  0  0  0  0  0  0
    4.1500    6.6890   17.1530 H   0  0  0  0  0  0  0  0  0  0  0  0
    1.9380    6.5440   18.5060 N   0  0  0  0  0  0  0  0  0  0  0  0
    2.2440    7.8820   18.3450 C   0  0  0  0  0  0  0  0  0  0  0  0
    3.2030    8.3610   17.7530 O   0  0  0  0  0  0  0  0  0  0  0  0
    1.0870    6.3750   19.0390 H   0  0  0  0  0  0  0  0  0  0  0  0
    1.2390    8.7900   18.9930 C   0  0  0  0  0  0  0  0  0  0  0  0
    0.4150    9.5890   18.2100 C   0  0  0  0  0  0  0  0  0  0  0  0
   -0.5270   10.4360   18.8150 C   0  0  0  0  0  0  0  0  0  0  0  0
   -0.5600   10.4100   20.2220 C   0  0  0  0  0  0  0  0  0  0  0  0
    0.2960    9.5830   20.9590 C   0  0  0  0  0  0  0  0  0  0  0  0
    1.2010    8.7670   20.3530 N   0  0  0  0  0  0  0  0  0  0  0  0
    0.5030    9.5580   17.1260 H   0  0  0  0  0  0  0  0  0  0  0  0
   -1.2710   11.0510   20.7460 H   0  0  0  0  0  0  0  0  0  0  0  0
   -1.4810   11.3640   17.9590 C   0  0  1  0  0  0  0  0  0  0  0  0
   -2.3120   10.7270   16.8320 C   0  0  0  0  0  0  0  0  0  0  0  0
   -3.4850   11.4680   17.4620 C   0  0  0  0  0  0  0  0  0  0  0  0
   -2.7050   11.7690   18.6440 O   0  0  0  0  0  0  0  0  0  0  0  0
   -0.9480   12.2650   17.6250 H   0  0  0  0  0  0  0  0  0  0  0  0
   -2.3990    9.6370   16.8720 H   0  0  0  0  0  0  0  0  0  0  0  0
   -2.0460   11.0420   15.8200 H   0  0  0  0  0  0  0  0  0  0  0  0
   -3.7960   12.3830   16.9490 H   0  0  0  0  0  0  0  0  0  0  0  0
   -4.3570   10.8530   17.6940 H   0  0  0  0  0  0  0  0  0  0  0  0
    0.2010    9.6030   22.4810 C   0  0  0  0  0  0  0  0  0  0  0  0
   -0.1640   10.8140   22.9900 F   0  0  0  0  0  0  0  0  0  0  0  0
    1.3840    9.2890   23.0830 F   0  0  0  0  0  0  0  0  0  0  0  0
   -0.7090    8.7080   22.9620 F   0  0  0  0  0  0  0  0  0  0  0  0
    5.8910    4.9080   16.0590 C   0  0  2  0  0  0  0  0  0  0  0  0
    5.8200    5.9320   15.6670 H   0  0  0  0  0  0  0  0  0  0  0  0
    6.0280    3.9780   14.8470 C   0  0  0  0  0  0  0  0  0  0  0  0
    6.8010    4.3420   14.1620 H   0  0  0  0  0  0  0  0  0  0  0  0
    5.0910    3.9040   14.2830 H   0  0  0  0  0  0  0  0  0  0  0  0
    6.3120    2.9670   15.1560 H   0  0  0  0  0  0  0  0  0  0  0  0
    7.1130    4.8310   16.9980 C   0  0  0  0  0  0  0  0  0  0  0  0
    7.9560    4.3450   16.4910 H   0  0  0  0  0  0  0  0  0  0  0  0
    6.8840    4.2030   17.8680 H   0  0  0  0  0  0  0  0  0  0  0  0
    7.5500    6.1770   17.4690 C   0  0  0  0  0  0  0  0  0  0  0  0
    7.5550    7.2880   16.7600 N   0  0  0  0  0  0  0  0  0  0  0  0
    8.0240    8.3040   17.5580 N   0  0  0  0  0  0  0  0  0  0  0  0
    8.3000    7.7920   18.7320 C   0  0  0  0  0  0  0  0  0  0  0  0
    8.0210    6.4610   18.7240 N   0  0  0  0  0  0  0  0  0  0  0  0
    8.6910    8.3290   19.5850 H   0  0  0  0  0  0  0  0  0  0  0  0
    8.1950    5.5500   19.8230 C   0  0  0  0  0  0  0  0  0  0  0  0
    7.3560    4.8490   19.8290 H   0  0  0  0  0  0  0  0  0  0  0  0
    9.1320    5.0020   19.6990 H   0  0  0  0  0  0  0  0  0  0  0  0
    8.2250    6.1210   20.7530 H   0  0  0  0  0  0  0  0  0  0  0  0
  1  2  2  0  0  0  0
  1  6  1  0  0  0  0
  2  3  1  0  0  0  0
  3  8  1  0  0  0  0
  3  4  2  0  0  0  0
  4  9  1  0  0  0  0
  5  4  1  0  0  0  0
  5 11  1  0  0  0  0
  6  5  2  0  0  0  0
  7  2  1  0  0  0  0
 10  6  1  0  0  0  0
 11 14  1  0  0  0  0
 12 11  1  0  0  0  0
 12 15  1  0  0  0  0
 13 12  2  0  0  0  0
 15 20  1  0  0  0  0
 16 17  1  0  0  0  0
 16 15  2  0  0  0  0
 17 18  2  0  0  0  0
 18 22  1  0  0  0  0
 18 19  1  0  0  0  0
 19 32  1  0  0  0  0
 20 19  2  0  0  0  0
 21 16  1  0  0  0  0
 23 27  1  6  0  0  0
 23 26  1  0  0  0  0
 23 17  1  0  0  0  0
 24 28  1  0  0  0  0
 24 25  1  0  0  0  0
 24 23  1  0  0  0  0
 25 31  1  0  0  0  0
 25 26  1  0  0  0  0
 29 24  1  0  0  0  0
 30 25  1  0  0  0  0
 32 35  1  0  0  0  0
 32 33  1  0  0  0  0
 32 34  1  0  0  0  0
 36 37  1  6  0  0  0
 36  1  1  0  0  0  0
 36 42  1  0  0  0  0
 38 41  1  0  0  0  0
 38 36  1  0  0  0  0
 39 38  1  0  0  0  0
 40 38  1  0  0  0  0
 42 45  1  0  0  0  0
 42 44  1  0  0  0  0
 43 42  1  0  0  0  0
 45 49  1  0  0  0  0
 46 45  2  0  0  0  0
 46 47  1  0  0  0  0
 47 48  2  0  0  0  0
 48 50  1  0  0  0  0
 49 48  1  0  0  0  0
 49 51  1  0  0  0  0
 51 52  1  0  0  0  0
 51 54  1  0  0  0  0
 53 51  1  0  0  0  0
M  END
>  <MODEL>
14

>  <REMARK>
 VINA RESULT:    -7.752      3.351      9.035
 INTER + INTRA:         -12.286
 INTER:                 -11.673
 INTRA:                  -0.614
 UNBOUND:                -0.909
  Name = 
  9 active torsions:
  status: ('A' for Active; 'I' for Inactive)
    1  A    between atoms: C_1  and  C_2
    2  A    between atoms: C_2  and  C_3
    3  A    between atoms: C_2  and  C_10
    4  A    between atoms: C_3  and  C_4
    5  A    between atoms: N_8  and  C_9
    6  A    between atoms: C_14  and  N_15
    7  A    between atoms: C_16  and  C_18
    8  A    between atoms: C_20  and  C_21
    9  A    between atoms: C_26  and  C_27
                            x       y       z     vdW  Elec       q    Type
                         _______ _______ _______ _____ _____    ______ ____

>  <TORSDO>
F 9

$$$$
=
 OpenBabel07192307433D

 54 57  0  0  1  0  0  0  0  0999 V2000
   -0.7380   11.7030   18.9940 C   0  0  0  0  0  0  0  0  0  0  0  0
   -0.0050   12.8880   18.8500 C   0  0  0  0  0  0  0  0  0  0  0  0
    1.3490   12.8450   18.5230 C   0  0  0  0  0  0  0  0  0  0  0  0
    1.9920   11.6190   18.3340 C   0  0  0  0  0  0  0  0  0  0  0  0
    1.2840   10.4270   18.4670 C   0  0  0  0  0  0  0  0  0  0  0  0
   -0.0790   10.4780   18.7950 C   0  0  0  0  0  0  0  0  0  0  0  0
   -0.4800   13.8580   18.9860 H   0  0  0  0  0  0  0  0  0  0  0  0
    1.9120   13.7690   18.4110 H   0  0  0  0  0  0  0  0  0  0  0  0
    3.0470   11.6310   18.0790 H   0  0  0  0  0  0  0  0  0  0  0  0
   -0.6400    9.5520   18.8950 H   0  0  0  0  0  0  0  0  0  0  0  0
    1.8540    9.1550   18.2890 N   0  0  0  0  0  0  0  0  0  0  0  0
    2.0110    8.1450   19.2200 C   0  0  0  0  0  0  0  0  0  0  0  0
    1.6730    8.1580   20.3970 O   0  0  0  0  0  0  0  0  0  0  0  0
    2.2120    8.9250   17.3640 H   0  0  0  0  0  0  0  0  0  0  0  0
    2.6730    6.9250   18.6480 C   0  0  0  0  0  0  0  0  0  0  0  0
    2.3060    5.6610   19.0920 C   0  0  0  0  0  0  0  0  0  0  0  0
    2.9220    4.5200   18.5550 C   0  0  0  0  0  0  0  0  0  0  0  0
    3.9050    4.7570   17.5750 C   0  0  0  0  0  0  0  0  0  0  0  0
    4.2330    6.0560   17.1670 C   0  0  0  0  0  0  0  0  0  0  0  0
    3.6210    7.1490   17.6980 N   0  0  0  0  0  0  0  0  0  0  0  0
    1.5400    5.5580   19.8570 H   0  0  0  0  0  0  0  0  0  0  0  0
    4.4200    3.9070   17.1250 H   0  0  0  0  0  0  0  0  0  0  0  0
    2.5360    3.0630   19.0350 C   0  0  1  0  0  0  0  0  0  0  0  0
    1.2660    2.8790   19.8830 C   0  0  0  0  0  0  0  0  0  0  0  0
    0.9280    1.7720   18.8930 C   0  0  0  0  0  0  0  0  0  0  0  0
    1.9740    2.2100   17.9920 O   0  0  0  0  0  0  0  0  0  0  0  0
    3.4070    2.5560   19.4750 H   0  0  0  0  0  0  0  0  0  0  0  0
    0.5670    3.7200   19.8690 H   0  0  0  0  0  0  0  0  0  0  0  0
    1.4340    2.5530   20.9120 H   0  0  0  0  0  0  0  0  0  0  0  0
    1.1110    0.7510   19.2440 H   0  0  0  0  0  0  0  0  0  0  0  0
   -0.0610    1.8400   18.4340 H   0  0  0  0  0  0  0  0  0  0  0  0
    5.3040    6.2370   16.0970 C   0  0  0  0  0  0  0  0  0  0  0  0
    5.7210    5.0670   15.5350 F   0  0  0  0  0  0  0  0  0  0  0  0
    6.4300    6.8380   16.5800 F   0  0  0  0  0  0  0  0  0  0  0  0
    4.8830    7.0180   15.0610 F   0  0  0  0  0  0  0  0  0  0  0  0
   -2.2160   11.7190   19.3590 C   0  0  2  0  0  0  0  0  0  0  0  0
   -2.4000   10.8940   20.0610 H   0  0  0  0  0  0  0  0  0  0  0  0
   -3.0810   11.4490   18.1210 C   0  0  0  0  0  0  0  0  0  0  0  0
   -2.6810   11.9710   17.2450 H   0  0  0  0  0  0  0  0  0  0  0  0
   -4.1140   11.7850   18.2650 H   0  0  0  0  0  0  0  0  0  0  0  0
   -3.1070   10.3810   17.8840 H   0  0  0  0  0  0  0  0  0  0  0  0
   -2.5900   13.0430   20.0580 C   0  0  0  0  0  0  0  0  0  0  0  0
   -3.3230   13.5980   19.4590 H   0  0  0  0  0  0  0  0  0  0  0  0
   -1.7090   13.6940   20.1330 H   0  0  0  0  0  0  0  0  0  0  0  0
   -3.1540   12.8240   21.4210 C   0  0  0  0  0  0  0  0  0  0  0  0
   -4.4300   12.8360   21.7480 N   0  0  0  0  0  0  0  0  0  0  0  0
   -4.5300   12.5890   23.0960 N   0  0  0  0  0  0  0  0  0  0  0  0
   -3.3140   12.4390   23.5640 C   0  0  0  0  0  0  0  0  0  0  0  0
   -2.4180   12.5800   22.5510 N   0  0  0  0  0  0  0  0  0  0  0  0
   -3.0470   12.2370   24.5910 H   0  0  0  0  0  0  0  0  0  0  0  0
   -0.9870   12.4900   22.6630 C   0  0  0  0  0  0  0  0  0  0  0  0
   -0.7160   12.5760   23.7190 H   0  0  0  0  0  0  0  0  0  0  0  0
   -0.6490   11.5260   22.2740 H   0  0  0  0  0  0  0  0  0  0  0  0
   -0.5360   13.2970   22.0830 H   0  0  0  0  0  0  0  0  0  0  0  0
  1 36  1  0  0  0  0
  2  7  1  0  0  0  0
  2  1  1  0  0  0  0
  3  2  2  0  0  0  0
  4  5  2  0  0  0  0
  4  3  1  0  0  0  0
  5  6  1  0  0  0  0
  6 10  1  0  0  0  0
  6  1  2  0  0  0  0
  8  3  1  0  0  0  0
  9  4  1  0  0  0  0
 11  5  1  0  0  0  0
 11 12  1  0  0  0  0
 12 13  2  0  0  0  0
 14 11  1  0  0  0  0
 15 16  1  0  0  0  0
 15 12  1  0  0  0  0
 16 21  1  0  0  0  0
 17 23  1  0  0  0  0
 17 16  2  0  0  0  0
 18 17  1  0  0  0  0
 19 18  2  0  0  0  0
 19 20  1  0  0  0  0
 20 15  2  0  0  0  0
 22 18  1  0  0  0  0
 23 27  1  1  0  0  0
 23 24  1  0  0  0  0
 24 29  1  0  0  0  0
 25 30  1  0  0  0  0
 25 24  1  0  0  0  0
 26 25  1  0  0  0  0
 26 23  1  0  0  0  0
 28 24  1  0  0  0  0
 31 25  1  0  0  0  0
 32 34  1  0  0  0  0
 32 19  1  0  0  0  0
 33 32  1  0  0  0  0
 35 32  1  0  0  0  0
 36 42  1  0  0  0  0
 36 37  1  1  0  0  0
 38 40  1  0  0  0  0
 38 36  1  0  0  0  0
 39 38  1  0  0  0  0
 41 38  1  0  0  0  0
 42 44  1  0  0  0  0
 42 45  1  0  0  0  0
 43 42  1  0  0  0  0
 45 46  2  0  0  0  0
 45 49  1  0  0  0  0
 46 47  1  0  0  0  0
 47 48  2  0  0  0  0
 48 50  1  0  0  0  0
 49 51  1  0  0  0  0
 49 48  1  0  0  0  0
 51 52  1  0  0  0  0
 53 51  1  0  0  0  0
 54 51  1  0  0  0  0
M  END
>  <MODEL>
15

>  <REMARK>
 VINA RESULT:    -7.750      3.525      4.893
 INTER + INTRA:         -12.283
 INTER:                 -11.226
 INTRA:                  -1.057
 UNBOUND:                -0.909
  Name = 
  9 active torsions:
  status: ('A' for Active; 'I' for Inactive)
    1  A    between atoms: C_1  and  C_2
    2  A    between atoms: C_2  and  C_3
    3  A    between atoms: C_2  and  C_10
    4  A    between atoms: C_3  and  C_4
    5  A    between atoms: N_8  and  C_9
    6  A    between atoms: C_14  and  N_15
    7  A    between atoms: C_16  and  C_18
    8  A    between atoms: C_20  and  C_21
    9  A    between atoms: C_26  and  C_27
                            x       y       z     vdW  Elec       q    Type
                         _______ _______ _______ _____ _____    ______ ____

>  <TORSDO>
F 9

$$$$
=
 OpenBabel07192307433D

 54 57  0  0  1  0  0  0  0  0999 V2000
   -0.2910   10.5130   20.5620 C   0  0  0  0  0  0  0  0  0  0  0  0
   -0.1190   10.7700   21.9280 C   0  0  0  0  0  0  0  0  0  0  0  0
    0.6400    9.9090   22.7180 C   0  0  0  0  0  0  0  0  0  0  0  0
    1.2380    8.7770   22.1570 C   0  0  0  0  0  0  0  0  0  0  0  0
    1.0850    8.5010   20.8000 C   0  0  0  0  0  0  0  0  0  0  0  0
    0.3210    9.3740   20.0110 C   0  0  0  0  0  0  0  0  0  0  0  0
   -0.5680   11.6460   22.3910 H   0  0  0  0  0  0  0  0  0  0  0  0
    0.7710   10.1160   23.7780 H   0  0  0  0  0  0  0  0  0  0  0  0
    1.8220    8.1350   22.8080 H   0  0  0  0  0  0  0  0  0  0  0  0
    0.2020    9.1690   18.9490 H   0  0  0  0  0  0  0  0  0  0  0  0
    1.6570    7.3900   20.1590 N   0  0  0  0  0  0  0  0  0  0  0  0
    2.3710    7.3530   18.9770 C   0  0  0  0  0  0  0  0  0  0  0  0
    2.6560    8.2950   18.2480 O   0  0  0  0  0  0  0  0  0  0  0  0
    1.5380    6.4800   20.6010 H   0  0  0  0  0  0  0  0  0  0  0  0
    2.8200    5.9670   18.6120 C   0  0  0  0  0  0  0  0  0  0  0  0
    3.9770    5.7830   17.8660 C   0  0  0  0  0  0  0  0  0  0  0  0
    4.3980    4.4880   17.5270 C   0  0  0  0  0  0  0  0  0  0  0  0
    3.5790    3.4370   17.9850 C   0  0  0  0  0  0  0  0  0  0  0  0
    2.4230    3.6840   18.7340 C   0  0  0  0  0  0  0  0  0  0  0  0
    2.0340    4.9480   19.0540 N   0  0  0  0  0  0  0  0  0  0  0  0
    4.5550    6.6460   17.5430 H   0  0  0  0  0  0  0  0  0  0  0  0
    3.8570    2.4090   17.7480 H   0  0  0  0  0  0  0  0  0  0  0  0
    5.7080    4.2350   16.6760 C   0  0  1  0  0  0  0  0  0  0  0  0
    5.6160    4.3120   15.1430 C   0  0  0  0  0  0  0  0  0  0  0  0
    6.8310    5.2250   15.2500 C   0  0  0  0  0  0  0  0  0  0  0  0
    6.6580    5.3440   16.6830 O   0  0  0  0  0  0  0  0  0  0  0  0
    6.2230    3.3260   17.0170 H   0  0  0  0  0  0  0  0  0  0  0  0
    4.7210    4.8030   14.7500 H   0  0  0  0  0  0  0  0  0  0  0  0
    5.7830    3.3690   14.6160 H   0  0  0  0  0  0  0  0  0  0  0  0
    7.7920    4.7640   15.0040 H   0  0  0  0  0  0  0  0  0  0  0  0
    6.7370    6.1900   14.7460 H   0  0  0  0  0  0  0  0  0  0  0  0
    1.5870    2.4970   19.2010 C   0  0  0  0  0  0  0  0  0  0  0  0
    2.1770    1.2890   18.9740 F   0  0  0  0  0  0  0  0  0  0  0  0
    0.3720    2.4380   18.5830 F   0  0  0  0  0  0  0  0  0  0  0  0
    1.3220    2.5360   20.5380 F   0  0  0  0  0  0  0  0  0  0  0  0
   -1.1220   11.4310   19.6750 C   0  0  2  0  0  0  0  0  0  0  0  0
   -2.0380   10.8930   19.3950 H   0  0  0  0  0  0  0  0  0  0  0  0
   -0.3750   11.7440   18.3730 C   0  0  0  0  0  0  0  0  0  0  0  0
    0.6870   11.9310   18.5670 H   0  0  0  0  0  0  0  0  0  0  0  0
   -0.7820   12.6290   17.8720 H   0  0  0  0  0  0  0  0  0  0  0  0
   -0.4370   10.9060   17.6710 H   0  0  0  0  0  0  0  0  0  0  0  0
   -1.5240   12.7090   20.4410 C   0  0  0  0  0  0  0  0  0  0  0  0
   -1.3130   13.6000   19.8370 H   0  0  0  0  0  0  0  0  0  0  0  0
   -0.9190   12.8120   21.3510 H   0  0  0  0  0  0  0  0  0  0  0  0
   -2.9690   12.7140   20.8130 C   0  0  0  0  0  0  0  0  0  0  0  0
   -3.9880   12.6270   19.9820 N   0  0  0  0  0  0  0  0  0  0  0  0
   -5.1470   12.6630   20.7200 N   0  0  0  0  0  0  0  0  0  0  0  0
   -4.8110   12.7770   21.9830 C   0  0  0  0  0  0  0  0  0  0  0  0
   -3.4560   12.8150   22.0900 N   0  0  0  0  0  0  0  0  0  0  0  0
   -5.4920   12.8360   22.8200 H   0  0  0  0  0  0  0  0  0  0  0  0
   -2.7040   12.9390   23.3090 C   0  0  0  0  0  0  0  0  0  0  0  0
   -2.2450   13.9300   23.3340 H   0  0  0  0  0  0  0  0  0  0  0  0
   -3.3720   12.8200   24.1660 H   0  0  0  0  0  0  0  0  0  0  0  0
   -1.9380   12.1600   23.3320 H   0  0  0  0  0  0  0  0  0  0  0  0
  1  2  1  0  0  0  0
  2  7  1  0  0  0  0
  2  3  2  0  0  0  0
  3  8  1  0  0  0  0
  4  3  1  0  0  0  0
  4  9  1  0  0  0  0
  5  4  2  0  0  0  0
  6  1  2  0  0  0  0
  6  5  1  0  0  0  0
 10  6  1  0  0  0  0
 11 14  1  0  0  0  0
 11  5  1  0  0  0  0
 12 11  1  0  0  0  0
 13 12  2  0  0  0  0
 15 12  1  0  0  0  0
 15 20  1  0  0  0  0
 16 15  2  0  0  0  0
 17 16  1  0  0  0  0
 17 18  2  0  0  0  0
 18 19  1  0  0  0  0
 19 20  2  0  0  0  0
 19 32  1  0  0  0  0
 21 16  1  0  0  0  0
 22 18  1  0  0  0  0
 23 26  1  0  0  0  0
 23 27  1  1  0  0  0
 23 17  1  0  0  0  0
 24 25  1  0  0  0  0
 24 23  1  0  0  0  0
 25 26  1  0  0  0  0
 28 24  1  0  0  0  0
 29 24  1  0  0  0  0
 30 25  1  0  0  0  0
 31 25  1  0  0  0  0
 32 35  1  0  0  0  0
 33 32  1  0  0  0  0
 34 32  1  0  0  0  0
 36 37  1  6  0  0  0
 36 42  1  0  0  0  0
 36  1  1  0  0  0  0
 38 39  1  0  0  0  0
 38 36  1  0  0  0  0
 40 38  1  0  0  0  0
 41 38  1  0  0  0  0
 42 45  1  0  0  0  0
 42 44  1  0  0  0  0
 43 42  1  0  0  0  0
 45 49  1  0  0  0  0
 46 47  1  0  0  0  0
 46 45  2  0  0  0  0
 47 48  2  0  0  0  0
 48 49  1  0  0  0  0
 48 50  1  0  0  0  0
 49 51  1  0  0  0  0
 51 54  1  0  0  0  0
 51 52  1  0  0  0  0
 51 53  1  0  0  0  0
M  END
>  <MODEL>
16

>  <REMARK>
 VINA RESULT:    -7.748      2.154      2.862
 INTER + INTRA:         -12.280
 INTER:                 -11.423
 INTRA:                  -0.857
 UNBOUND:                -0.909
  Name = 
  9 active torsions:
  status: ('A' for Active; 'I' for Inactive)
    1  A    between atoms: C_1  and  C_2
    2  A    between atoms: C_2  and  C_3
    3  A    between atoms: C_2  and  C_10
    4  A    between atoms: C_3  and  C_4
    5  A    between atoms: N_8  and  C_9
    6  A    between atoms: C_14  and  N_15
    7  A    between atoms: C_16  and  C_18
    8  A    between atoms: C_20  and  C_21
    9  A    between atoms: C_26  and  C_27
                            x       y       z     vdW  Elec       q    Type
                         _______ _______ _______ _____ _____    ______ ____

>  <TORSDO>
F 9

$$$$
=
 OpenBabel07192307433D

 54 57  0  0  1  0  0  0  0  0999 V2000
   -1.0270   12.1280   20.2400 C   0  0  0  0  0  0  0  0  0  0  0  0
   -2.1420   12.2460   19.4010 C   0  0  0  0  0  0  0  0  0  0  0  0
   -2.3490   11.3310   18.3700 C   0  0  0  0  0  0  0  0  0  0  0  0
   -1.4470   10.2850   18.1610 C   0  0  0  0  0  0  0  0  0  0  0  0
   -0.3320   10.1440   18.9840 C   0  0  0  0  0  0  0  0  0  0  0  0
   -0.1300   11.0670   20.0210 C   0  0  0  0  0  0  0  0  0  0  0  0
   -2.8640   13.0470   19.5430 H   0  0  0  0  0  0  0  0  0  0  0  0
   -3.2190   11.4280   17.7230 H   0  0  0  0  0  0  0  0  0  0  0  0
   -1.6470    9.5950   17.3480 H   0  0  0  0  0  0  0  0  0  0  0  0
    0.7340   10.9600   20.6720 H   0  0  0  0  0  0  0  0  0  0  0  0
    0.6190    9.1180   18.8440 N   0  0  0  0  0  0  0  0  0  0  0  0
    1.8640    9.1770   18.2490 C   0  0  0  0  0  0  0  0  0  0  0  0
    2.3950   10.1490   17.7250 O   0  0  0  0  0  0  0  0  0  0  0  0
    0.3790    8.2020   19.2160 H   0  0  0  0  0  0  0  0  0  0  0  0
    2.5920    7.8640   18.2920 C   0  0  0  0  0  0  0  0  0  0  0  0
    2.2750    6.9240   19.2650 C   0  0  0  0  0  0  0  0  0  0  0  0
    2.9520    5.6950   19.3030 C   0  0  0  0  0  0  0  0  0  0  0  0
    3.9400    5.5080   18.3180 C   0  0  0  0  0  0  0  0  0  0  0  0
    4.2150    6.4930   17.3610 C   0  0  0  0  0  0  0  0  0  0  0  0
    3.5450    7.6770   17.3400 N   0  0  0  0  0  0  0  0  0  0  0  0
    1.5010    7.1440   19.9970 H   0  0  0  0  0  0  0  0  0  0  0  0
    4.5000    4.5730   18.3020 H   0  0  0  0  0  0  0  0  0  0  0  0
    2.6240    4.5990   20.3960 C   0  0  1  0  0  0  0  0  0  0  0  0
    1.1550    4.2080   20.6290 C   0  0  0  0  0  0  0  0  0  0  0  0
    1.6580    2.7750   20.5040 C   0  0  0  0  0  0  0  0  0  0  0  0
    2.9340    3.2310   19.9940 O   0  0  0  0  0  0  0  0  0  0  0  0
    3.1500    4.8190   21.3360 H   0  0  0  0  0  0  0  0  0  0  0  0
    0.4580    4.5080   19.8410 H   0  0  0  0  0  0  0  0  0  0  0  0
    0.7480    4.4790   21.6070 H   0  0  0  0  0  0  0  0  0  0  0  0
    1.7790    2.2330   21.4470 H   0  0  0  0  0  0  0  0  0  0  0  0
    1.1260    2.1540   19.7800 H   0  0  0  0  0  0  0  0  0  0  0  0
    5.2950    6.2200   16.3210 C   0  0  0  0  0  0  0  0  0  0  0  0
    5.5440    4.8930   16.1250 F   0  0  0  0  0  0  0  0  0  0  0  0
    6.4960    6.7760   16.6540 F   0  0  0  0  0  0  0  0  0  0  0  0
    4.9810    6.7240   15.0930 F   0  0  0  0  0  0  0  0  0  0  0  0
   -0.7690   13.1170   21.3690 C   0  0  2  0  0  0  0  0  0  0  0  0
   -1.4840   13.9450   21.2630 H   0  0  0  0  0  0  0  0  0  0  0  0
    0.6340   13.7250   21.2440 C   0  0  0  0  0  0  0  0  0  0  0  0
    1.1180   13.7930   22.2250 H   0  0  0  0  0  0  0  0  0  0  0  0
    0.6050   14.7340   20.8180 H   0  0  0  0  0  0  0  0  0  0  0  0
    1.2740   13.1100   20.6040 H   0  0  0  0  0  0  0  0  0  0  0  0
   -0.9990   12.4500   22.7410 C   0  0  0  0  0  0  0  0  0  0  0  0
   -0.1680   12.6760   23.4210 H   0  0  0  0  0  0  0  0  0  0  0  0
   -1.0110   11.3570   22.6330 H   0  0  0  0  0  0  0  0  0  0  0  0
   -2.2730   12.8920   23.3780 C   0  0  0  0  0  0  0  0  0  0  0  0
   -3.4370   12.2780   23.3030 N   0  0  0  0  0  0  0  0  0  0  0  0
   -4.3520   13.0030   24.0290 N   0  0  0  0  0  0  0  0  0  0  0  0
   -3.7290   14.0450   24.5260 C   0  0  0  0  0  0  0  0  0  0  0  0
   -2.4250   14.0180   24.1430 N   0  0  0  0  0  0  0  0  0  0  0  0
   -4.1690   14.8140   25.1440 H   0  0  0  0  0  0  0  0  0  0  0  0
   -1.4200   14.9900   24.4820 C   0  0  0  0  0  0  0  0  0  0  0  0
   -1.4240   15.1290   25.5660 H   0  0  0  0  0  0  0  0  0  0  0  0
   -0.4390   14.6310   24.1610 H   0  0  0  0  0  0  0  0  0  0  0  0
   -1.6520   15.9280   23.9730 H   0  0  0  0  0  0  0  0  0  0  0  0
  1 36  1  0  0  0  0
  2  7  1  0  0  0  0
  2  1  2  0  0  0  0
  3  2  1  0  0  0  0
  4  3  2  0  0  0  0
  4  5  1  0  0  0  0
  5  6  2  0  0  0  0
  6  1  1  0  0  0  0
  6 10  1  0  0  0  0
  8  3  1  0  0  0  0
  9  4  1  0  0  0  0
 11  5  1  0  0  0  0
 11 14  1  0  0  0  0
 12 15  1  0  0  0  0
 12 11  1  0  0  0  0
 13 12  2  0  0  0  0
 15 16  1  0  0  0  0
 16 17  2  0  0  0  0
 16 21  1  0  0  0  0
 17 23  1  0  0  0  0
 18 17  1  0  0  0  0
 19 18  2  0  0  0  0
 20 19  1  0  0  0  0
 20 15  2  0  0  0  0
 22 18  1  0  0  0  0
 23 24  1  0  0  0  0
 23 27  1  1  0  0  0
 24 29  1  0  0  0  0
 25 24  1  0  0  0  0
 25 30  1  0  0  0  0
 26 23  1  0  0  0  0
 26 25  1  0  0  0  0
 28 24  1  0  0  0  0
 31 25  1  0  0  0  0
 32 34  1  0  0  0  0
 32 19  1  0  0  0  0
 33 32  1  0  0  0  0
 35 32  1  0  0  0  0
 36 37  1  6  0  0  0
 36 42  1  0  0  0  0
 38 36  1  0  0  0  0
 38 39  1  0  0  0  0
 40 38  1  0  0  0  0
 41 38  1  0  0  0  0
 42 45  1  0  0  0  0
 42 43  1  0  0  0  0
 44 42  1  0  0  0  0
 45 49  1  0  0  0  0
 46 45  2  0  0  0  0
 46 47  1  0  0  0  0
 47 48  2  0  0  0  0
 48 50  1  0  0  0  0
 49 51  1  0  0  0  0
 49 48  1  0  0  0  0
 51 52  1  0  0  0  0
 53 51  1  0  0  0  0
 54 51  1  0  0  0  0
M  END
>  <MODEL>
17

>  <REMARK>
 VINA RESULT:    -7.717      3.837      5.380
 INTER + INTRA:         -12.234
 INTER:                 -11.124
 INTRA:                  -1.111
 UNBOUND:                -0.909
  Name = 
  9 active torsions:
  status: ('A' for Active; 'I' for Inactive)
    1  A    between atoms: C_1  and  C_2
    2  A    between atoms: C_2  and  C_3
    3  A    between atoms: C_2  and  C_10
    4  A    between atoms: C_3  and  C_4
    5  A    between atoms: N_8  and  C_9
    6  A    between atoms: C_14  and  N_15
    7  A    between atoms: C_16  and  C_18
    8  A    between atoms: C_20  and  C_21
    9  A    between atoms: C_26  and  C_27
                            x       y       z     vdW  Elec       q    Type
                         _______ _______ _______ _____ _____    ______ ____

>  <TORSDO>
F 9

$$$$
=
 OpenBabel07192307433D

 54 57  0  0  1  0  0  0  0  0999 V2000
    0.0290   12.2290   18.8480 C   0  0  0  0  0  0  0  0  0  0  0  0
    0.9220   13.2640   18.5430 C   0  0  0  0  0  0  0  0  0  0  0  0
    2.2250   12.9770   18.1400 C   0  0  0  0  0  0  0  0  0  0  0  0
    2.6560   11.6520   18.0340 C   0  0  0  0  0  0  0  0  0  0  0  0
    1.7860   10.6040   18.3280 C   0  0  0  0  0  0  0  0  0  0  0  0
    0.4760   10.9010   18.7320 C   0  0  0  0  0  0  0  0  0  0  0  0
    0.6120   14.3050   18.6110 H   0  0  0  0  0  0  0  0  0  0  0  0
    2.9120   13.7860   17.9020 H   0  0  0  0  0  0  0  0  0  0  0  0
    3.6770   11.4730   17.7150 H   0  0  0  0  0  0  0  0  0  0  0  0
   -0.2110   10.0890   18.9580 H   0  0  0  0  0  0  0  0  0  0  0  0
    2.1400    9.2470   18.2430 N   0  0  0  0  0  0  0  0  0  0  0  0
    2.0120    8.2630   19.2050 C   0  0  0  0  0  0  0  0  0  0  0  0
    1.5530    8.3810   20.3350 O   0  0  0  0  0  0  0  0  0  0  0  0
    2.5520    8.9220   17.3700 H   0  0  0  0  0  0  0  0  0  0  0  0
    2.5080    6.9260   18.7380 C   0  0  0  0  0  0  0  0  0  0  0  0
    3.5080    6.8500   17.7760 C   0  0  0  0  0  0  0  0  0  0  0  0
    3.9740    5.6000   17.3420 C   0  0  0  0  0  0  0  0  0  0  0  0
    3.3660    4.4780   17.9360 C   0  0  0  0  0  0  0  0  0  0  0  0
    2.3630    4.6160   18.9030 C   0  0  0  0  0  0  0  0  0  0  0  0
    1.9260    5.8380   19.3120 N   0  0  0  0  0  0  0  0  0  0  0  0
    3.9260    7.7640   17.3590 H   0  0  0  0  0  0  0  0  0  0  0  0
    3.6880    3.4800   17.6340 H   0  0  0  0  0  0  0  0  0  0  0  0
    5.1080    5.4710   16.2450 C   0  0  1  0  0  0  0  0  0  0  0  0
    6.5640    5.7450   16.6560 C   0  0  0  0  0  0  0  0  0  0  0  0
    6.8660    4.4200   15.9660 C   0  0  0  0  0  0  0  0  0  0  0  0
    5.4560    4.0970   15.8930 O   0  0  0  0  0  0  0  0  0  0  0  0
    4.8250    6.0100   15.3300 H   0  0  0  0  0  0  0  0  0  0  0  0
    6.7570    5.7420   17.7320 H   0  0  0  0  0  0  0  0  0  0  0  0
    7.0210    6.6260   16.1990 H   0  0  0  0  0  0  0  0  0  0  0  0
    7.3070    4.4960   14.9680 H   0  0  0  0  0  0  0  0  0  0  0  0
    7.4200    3.6950   16.5670 H   0  0  0  0  0  0  0  0  0  0  0  0
    1.7520    3.3570   19.5070 C   0  0  0  0  0  0  0  0  0  0  0  0
    2.4930    2.8200   20.5190 F   0  0  0  0  0  0  0  0  0  0  0  0
    1.5980    2.3570   18.5910 F   0  0  0  0  0  0  0  0  0  0  0  0
    0.5120    3.5740   20.0310 F   0  0  0  0  0  0  0  0  0  0  0  0
   -1.3970   12.5120   19.3000 C   0  0  2  0  0  0  0  0  0  0  0  0
   -1.8230   13.2660   18.6240 H   0  0  0  0  0  0  0  0  0  0  0  0
   -1.4060   13.1240   20.7070 C   0  0  0  0  0  0  0  0  0  0  0  0
   -0.9580   14.1240   20.7000 H   0  0  0  0  0  0  0  0  0  0  0  0
   -0.8410   12.5130   21.4200 H   0  0  0  0  0  0  0  0  0  0  0  0
   -2.4270   13.2230   21.0880 H   0  0  0  0  0  0  0  0  0  0  0  0
   -2.2610   11.2370   19.2100 C   0  0  0  0  0  0  0  0  0  0  0  0
   -2.7430   11.0320   20.1740 H   0  0  0  0  0  0  0  0  0  0  0  0
   -1.6280   10.3650   18.9990 H   0  0  0  0  0  0  0  0  0  0  0  0
   -3.3150   11.3400   18.1610 C   0  0  0  0  0  0  0  0  0  0  0  0
   -4.4670   11.9710   18.2710 N   0  0  0  0  0  0  0  0  0  0  0  0
   -5.1470   11.8340   17.0850 N   0  0  0  0  0  0  0  0  0  0  0  0
   -4.4010   11.1170   16.2800 C   0  0  0  0  0  0  0  0  0  0  0  0
   -3.2430   10.7830   16.9100 N   0  0  0  0  0  0  0  0  0  0  0  0
   -4.6520   10.8260   15.2690 H   0  0  0  0  0  0  0  0  0  0  0  0
   -2.1720    9.9990   16.3600 C   0  0  0  0  0  0  0  0  0  0  0  0
   -1.2260   10.3770   16.7550 H   0  0  0  0  0  0  0  0  0  0  0  0
   -2.2980    8.9520   16.6480 H   0  0  0  0  0  0  0  0  0  0  0  0
   -2.1960   10.0840   15.2710 H   0  0  0  0  0  0  0  0  0  0  0  0
  1 36  1  0  0  0  0
  2  7  1  0  0  0  0
  2  1  2  0  0  0  0
  3  2  1  0  0  0  0
  4  3  2  0  0  0  0
  4  5  1  0  0  0  0
  5  6  2  0  0  0  0
  6  1  1  0  0  0  0
  6 10  1  0  0  0  0
  8  3  1  0  0  0  0
  9  4  1  0  0  0  0
 11  5  1  0  0  0  0
 11 12  1  0  0  0  0
 12 13  2  0  0  0  0
 14 11  1  0  0  0  0
 15 12  1  0  0  0  0
 15 20  1  0  0  0  0
 16 15  2  0  0  0  0
 17 16  1  0  0  0  0
 17 18  2  0  0  0  0
 18 19  1  0  0  0  0
 19 20  2  0  0  0  0
 19 32  1  0  0  0  0
 21 16  1  0  0  0  0
 22 18  1  0  0  0  0
 23 27  1  6  0  0  0
 23 24  1  0  0  0  0
 23 17  1  0  0  0  0
 24 28  1  0  0  0  0
 25 31  1  0  0  0  0
 25 24  1  0  0  0  0
 26 25  1  0  0  0  0
 26 23  1  0  0  0  0
 29 24  1  0  0  0  0
 30 25  1  0  0  0  0
 32 35  1  0  0  0  0
 32 33  1  0  0  0  0
 34 32  1  0  0  0  0
 36 37  1  6  0  0  0
 36 38  1  0  0  0  0
 38 41  1  0  0  0  0
 38 40  1  0  0  0  0
 39 38  1  0  0  0  0
 42 36  1  0  0  0  0
 42 43  1  0  0  0  0
 44 42  1  0  0  0  0
 45 46  2  0  0  0  0
 45 42  1  0  0  0  0
 47 46  1  0  0  0  0
 48 49  1  0  0  0  0
 48 47  2  0  0  0  0
 49 45  1  0  0  0  0
 50 48  1  0  0  0  0
 51 53  1  0  0  0  0
 51 52  1  0  0  0  0
 51 49  1  0  0  0  0
 54 51  1  0  0  0  0
M  END
>  <MODEL>
18

>  <REMARK>
 VINA RESULT:    -7.640      1.601      2.416
 INTER + INTRA:         -12.122
 INTER:                 -11.064
 INTRA:                  -1.058
 UNBOUND:                -0.909
  Name = 
  9 active torsions:
  status: ('A' for Active; 'I' for Inactive)
    1  A    between atoms: C_1  and  C_2
    2  A    between atoms: C_2  and  C_3
    3  A    between atoms: C_2  and  C_10
    4  A    between atoms: C_3  and  C_4
    5  A    between atoms: N_8  and  C_9
    6  A    between atoms: C_14  and  N_15
    7  A    between atoms: C_16  and  C_18
    8  A    between atoms: C_20  and  C_21
    9  A    between atoms: C_26  and  C_27
                            x       y       z     vdW  Elec       q    Type
                         _______ _______ _______ _____ _____    ______ ____

>  <TORSDO>
F 9

$$$$
=
 OpenBabel07192307433D

 54 57  0  0  1  0  0  0  0  0999 V2000
    0.2390   12.3950   18.9020 C   0  0  0  0  0  0  0  0  0  0  0  0
   -1.1020   12.3960   18.4980 C   0  0  0  0  0  0  0  0  0  0  0  0
   -1.6820   11.2440   17.9700 C   0  0  0  0  0  0  0  0  0  0  0  0
   -0.9310   10.0730   17.8370 C   0  0  0  0  0  0  0  0  0  0  0  0
    0.4040   10.0450   18.2350 C   0  0  0  0  0  0  0  0  0  0  0  0
    0.9800   11.2080   18.7670 C   0  0  0  0  0  0  0  0  0  0  0  0
   -1.7130   13.2920   18.5950 H   0  0  0  0  0  0  0  0  0  0  0  0
   -2.7250   11.2520   17.6610 H   0  0  0  0  0  0  0  0  0  0  0  0
   -1.4220    9.1980   17.4230 H   0  0  0  0  0  0  0  0  0  0  0  0
    2.0190   11.1920   19.0850 H   0  0  0  0  0  0  0  0  0  0  0  0
    1.2240    8.9080   18.1390 N   0  0  0  0  0  0  0  0  0  0  0  0
    1.7690    8.1520   19.1590 C   0  0  0  0  0  0  0  0  0  0  0  0
    1.6370    8.3230   20.3650 O   0  0  0  0  0  0  0  0  0  0  0  0
    1.4690    8.5830   17.2060 H   0  0  0  0  0  0  0  0  0  0  0  0
    2.6000    7.0080   18.6560 C   0  0  0  0  0  0  0  0  0  0  0  0
    2.3700    5.7200   19.1240 C   0  0  0  0  0  0  0  0  0  0  0  0
    3.1450    4.6500   18.6510 C   0  0  0  0  0  0  0  0  0  0  0  0
    4.1350    4.9800   17.7060 C   0  0  0  0  0  0  0  0  0  0  0  0
    4.3210    6.2980   17.2700 C   0  0  0  0  0  0  0  0  0  0  0  0
    3.5570    7.3220   17.7400 N   0  0  0  0  0  0  0  0  0  0  0  0
    1.5880    5.5450   19.8590 H   0  0  0  0  0  0  0  0  0  0  0  0
    4.7690    4.1880   17.3060 H   0  0  0  0  0  0  0  0  0  0  0  0
    2.9170    3.1700   19.1610 C   0  0  1  0  0  0  0  0  0  0  0  0
    2.3400    2.1340   18.1810 C   0  0  0  0  0  0  0  0  0  0  0  0
    3.4990    1.2560   18.6380 C   0  0  0  0  0  0  0  0  0  0  0  0
    4.1380    2.3800   19.2910 O   0  0  0  0  0  0  0  0  0  0  0  0
    2.3900    3.1690   20.1260 H   0  0  0  0  0  0  0  0  0  0  0  0
    2.3810    2.4130   17.1240 H   0  0  0  0  0  0  0  0  0  0  0  0
    1.3430    1.7610   18.4280 H   0  0  0  0  0  0  0  0  0  0  0  0
    3.2430    0.4730   19.3590 H   0  0  0  0  0  0  0  0  0  0  0  0
    4.1170    0.8430   17.8380 H   0  0  0  0  0  0  0  0  0  0  0  0
    5.4090    6.5810   16.2420 C   0  0  0  0  0  0  0  0  0  0  0  0
    6.3840    7.4220   16.6930 F   0  0  0  0  0  0  0  0  0  0  0  0
    4.9190    7.1590   15.1060 F   0  0  0  0  0  0  0  0  0  0  0  0
    6.0530    5.4500   15.8340 F   0  0  0  0  0  0  0  0  0  0  0  0
    0.9010   13.6410   19.4740 C   0  0  2  0  0  0  0  0  0  0  0  0
    0.1730   14.4630   19.4270 H   0  0  0  0  0  0  0  0  0  0  0  0
    2.0990   14.0600   18.6110 C   0  0  0  0  0  0  0  0  0  0  0  0
    2.1970   13.4060   17.7380 H   0  0  0  0  0  0  0  0  0  0  0  0
    3.0400   14.0110   19.1700 H   0  0  0  0  0  0  0  0  0  0  0  0
    1.9810   15.0840   18.2440 H   0  0  0  0  0  0  0  0  0  0  0  0
    1.2910   13.4210   20.9510 C   0  0  0  0  0  0  0  0  0  0  0  0
    2.0960   14.1090   21.2410 H   0  0  0  0  0  0  0  0  0  0  0  0
    1.6950   12.4100   21.0900 H   0  0  0  0  0  0  0  0  0  0  0  0
    0.1380   13.6180   21.8750 C   0  0  0  0  0  0  0  0  0  0  0  0
   -0.3250   14.7720   22.3110 N   0  0  0  0  0  0  0  0  0  0  0  0
   -1.3950   14.5210   23.1370 N   0  0  0  0  0  0  0  0  0  0  0  0
   -1.5580   13.2210   23.1930 C   0  0  0  0  0  0  0  0  0  0  0  0
   -0.6200   12.6130   22.4190 N   0  0  0  0  0  0  0  0  0  0  0  0
   -2.3140   12.6980   23.7610 H   0  0  0  0  0  0  0  0  0  0  0  0
   -0.4670   11.1960   22.2250 C   0  0  0  0  0  0  0  0  0  0  0  0
   -1.0160   10.9080   21.3250 H   0  0  0  0  0  0  0  0  0  0  0  0
    0.5920   10.9550   22.1040 H   0  0  0  0  0  0  0  0  0  0  0  0
   -0.8620   10.6770   23.1000 H   0  0  0  0  0  0  0  0  0  0  0  0
  1 36  1  0  0  0  0
  2  7  1  0  0  0  0
  2  1  2  0  0  0  0
  3  2  1  0  0  0  0
  4  3  2  0  0  0  0
  4  5  1  0  0  0  0
  5  6  2  0  0  0  0
  6  1  1  0  0  0  0
  6 10  1  0  0  0  0
  8  3  1  0  0  0  0
  9  4  1  0  0  0  0
 11  5  1  0  0  0  0
 11 12  1  0  0  0  0
 12 13  2  0  0  0  0
 14 11  1  0  0  0  0
 15 16  1  0  0  0  0
 15 12  1  0  0  0  0
 16 21  1  0  0  0  0
 17 16  2  0  0  0  0
 17 23  1  0  0  0  0
 18 17  1  0  0  0  0
 19 18  2  0  0  0  0
 19 20  1  0  0  0  0
 20 15  2  0  0  0  0
 22 18  1  0  0  0  0
 23 26  1  0  0  0  0
 23 27  1  1  0  0  0
 24 29  1  0  0  0  0
 24 25  1  0  0  0  0
 24 23  1  0  0  0  0
 25 26  1  0  0  0  0
 25 30  1  0  0  0  0
 28 24  1  0  0  0  0
 31 25  1  0  0  0  0
 32 33  1  0  0  0  0
 32 19  1  0  0  0  0
 34 32  1  0  0  0  0
 35 32  1  0  0  0  0
 36 37  1  6  0  0  0
 36 42  1  0  0  0  0
 38 40  1  0  0  0  0
 38 36  1  0  0  0  0
 39 38  1  0  0  0  0
 41 38  1  0  0  0  0
 42 44  1  0  0  0  0
 42 43  1  0  0  0  0
 42 45  1  0  0  0  0
 45 46  2  0  0  0  0
 45 49  1  0  0  0  0
 46 47  1  0  0  0  0
 47 48  2  0  0  0  0
 48 50  1  0  0  0  0
 49 48  1  0  0  0  0
 51 49  1  0  0  0  0
 51 54  1  0  0  0  0
 52 51  1  0  0  0  0
 53 51  1  0  0  0  0
M  END
>  <MODEL>
19

>  <REMARK>
 VINA RESULT:    -7.617      3.636      5.029
 INTER + INTRA:         -12.089
 INTER:                 -10.891
 INTRA:                  -1.198
 UNBOUND:                -0.909
  Name = 
  9 active torsions:
  status: ('A' for Active; 'I' for Inactive)
    1  A    between atoms: C_1  and  C_2
    2  A    between atoms: C_2  and  C_3
    3  A    between atoms: C_2  and  C_10
    4  A    between atoms: C_3  and  C_4
    5  A    between atoms: N_8  and  C_9
    6  A    between atoms: C_14  and  N_15
    7  A    between atoms: C_16  and  C_18
    8  A    between atoms: C_20  and  C_21
    9  A    between atoms: C_26  and  C_27
                            x       y       z     vdW  Elec       q    Type
                         _______ _______ _______ _____ _____    ______ ____

>  <TORSDO>
F 9

$$$$
=
 OpenBabel07192307433D

 54 57  0  0  1  0  0  0  0  0999 V2000
    0.4970   11.1260   21.1340 C   0  0  0  0  0  0  0  0  0  0  0  0
   -0.2990   10.7830   22.2340 C   0  0  0  0  0  0  0  0  0  0  0  0
   -0.4550    9.4480   22.6030 C   0  0  0  0  0  0  0  0  0  0  0  0
    0.1810    8.4360   21.8800 C   0  0  0  0  0  0  0  0  0  0  0  0
    0.9820    8.7510   20.7840 C   0  0  0  0  0  0  0  0  0  0  0  0
    1.1350   10.0970   20.4190 C   0  0  0  0  0  0  0  0  0  0  0  0
   -0.8020   11.5500   22.8190 H   0  0  0  0  0  0  0  0  0  0  0  0
   -1.0730    9.1890   23.4600 H   0  0  0  0  0  0  0  0  0  0  0  0
    0.0340    7.4100   22.2030 H   0  0  0  0  0  0  0  0  0  0  0  0
    1.7630   10.3520   19.5690 H   0  0  0  0  0  0  0  0  0  0  0  0
    1.6580    7.7950   20.0090 N   0  0  0  0  0  0  0  0  0  0  0  0
    2.0680    7.8890   18.6930 C   0  0  0  0  0  0  0  0  0  0  0  0
    1.9250    8.8400   17.9340 O   0  0  0  0  0  0  0  0  0  0  0  0
    1.8820    6.9050   20.4500 H   0  0  0  0  0  0  0  0  0  0  0  0
    2.7620    6.6490   18.2100 C   0  0  0  0  0  0  0  0  0  0  0  0
    3.9550    6.7480   17.5040 C   0  0  0  0  0  0  0  0  0  0  0  0
    4.6060    5.5880   17.0560 C   0  0  0  0  0  0  0  0  0  0  0  0
    3.9710    4.3690   17.3640 C   0  0  0  0  0  0  0  0  0  0  0  0
    2.7690    4.3320   18.0800 C   0  0  0  0  0  0  0  0  0  0  0  0
    2.1540    5.4680   18.5080 N   0  0  0  0  0  0  0  0  0  0  0  0
    4.3820    7.7270   17.3000 H   0  0  0  0  0  0  0  0  0  0  0  0
    4.4320    3.4360   17.0370 H   0  0  0  0  0  0  0  0  0  0  0  0
    5.9640    5.6580   16.2470 C   0  0  1  0  0  0  0  0  0  0  0  0
    6.8850    4.4260   16.2460 C   0  0  0  0  0  0  0  0  0  0  0  0
    6.9080    4.6120   14.7330 C   0  0  0  0  0  0  0  0  0  0  0  0
    5.8120    5.5560   14.7980 O   0  0  0  0  0  0  0  0  0  0  0  0
    6.5080    6.5840   16.4810 H   0  0  0  0  0  0  0  0  0  0  0  0
    6.4200    3.4910   16.5730 H   0  0  0  0  0  0  0  0  0  0  0  0
    7.8450    4.5590   16.7500 H   0  0  0  0  0  0  0  0  0  0  0  0
    7.8110    5.0810   14.3290 H   0  0  0  0  0  0  0  0  0  0  0  0
    6.6510    3.7260   14.1480 H   0  0  0  0  0  0  0  0  0  0  0  0
    2.1400    2.9760   18.3820 C   0  0  0  0  0  0  0  0  0  0  0  0
    2.3670    2.0400   17.4170 F   0  0  0  0  0  0  0  0  0  0  0  0
    0.7840    3.0470   18.5180 F   0  0  0  0  0  0  0  0  0  0  0  0
    2.6020    2.4320   19.5440 F   0  0  0  0  0  0  0  0  0  0  0  0
    0.6790   12.5750   20.7010 C   0  0  2  0  0  0  0  0  0  0  0  0
    1.7560   12.7670   20.6040 H   0  0  0  0  0  0  0  0  0  0  0  0
    0.1540   13.5300   21.7810 C   0  0  0  0  0  0  0  0  0  0  0  0
   -0.7130   13.0990   22.2950 H   0  0  0  0  0  0  0  0  0  0  0  0
   -0.1540   14.4930   21.3590 H   0  0  0  0  0  0  0  0  0  0  0  0
    0.9190   13.7270   22.5380 H   0  0  0  0  0  0  0  0  0  0  0  0
    0.0160   12.8210   19.3300 C   0  0  0  0  0  0  0  0  0  0  0  0
    0.4980   12.2100   18.5570 H   0  0  0  0  0  0  0  0  0  0  0  0
    0.1590   13.8640   19.0210 H   0  0  0  0  0  0  0  0  0  0  0  0
   -1.4430   12.5120   19.3430 C   0  0  0  0  0  0  0  0  0  0  0  0
   -2.3700   13.1520   20.0290 N   0  0  0  0  0  0  0  0  0  0  0  0
   -3.5820   12.5620   19.7650 N   0  0  0  0  0  0  0  0  0  0  0  0
   -3.3700   11.5720   18.9310 C   0  0  0  0  0  0  0  0  0  0  0  0
   -2.0440   11.5010   18.6390 N   0  0  0  0  0  0  0  0  0  0  0  0
   -4.1200   10.9060   18.5290 H   0  0  0  0  0  0  0  0  0  0  0  0
   -1.4160   10.5470   17.7670 C   0  0  0  0  0  0  0  0  0  0  0  0
   -0.3390   10.7340   17.7650 H   0  0  0  0  0  0  0  0  0  0  0  0
   -1.6130    9.5340   18.1290 H   0  0  0  0  0  0  0  0  0  0  0  0
   -1.8290   10.6620   16.7620 H   0  0  0  0  0  0  0  0  0  0  0  0
  1  2  1  0  0  0  0
  2  3  2  0  0  0  0
  2  7  1  0  0  0  0
  3  8  1  0  0  0  0
  4  9  1  0  0  0  0
  4  3  1  0  0  0  0
  5  4  2  0  0  0  0
  6  5  1  0  0  0  0
  6  1  2  0  0  0  0
 10  6  1  0  0  0  0
 11 14  1  0  0  0  0
 11  5  1  0  0  0  0
 12 11  1  0  0  0  0
 13 12  2  0  0  0  0
 15 20  1  0  0  0  0
 15 12  1  0  0  0  0
 16 15  2  0  0  0  0
 17 18  2  0  0  0  0
 17 16  1  0  0  0  0
 18 19  1  0  0  0  0
 19 32  1  0  0  0  0
 19 20  2  0  0  0  0
 21 16  1  0  0  0  0
 22 18  1  0  0  0  0
 23 27  1  1  0  0  0
 23 17  1  0  0  0  0
 24 23  1  0  0  0  0
 24 28  1  0  0  0  0
 24 29  1  0  0  0  0
 25 26  1  0  0  0  0
 25 24  1  0  0  0  0
 26 23  1  0  0  0  0
 30 25  1  0  0  0  0
 31 25  1  0  0  0  0
 32 34  1  0  0  0  0
 32 35  1  0  0  0  0
 33 32  1  0  0  0  0
 36 37  1  6  0  0  0
 36  1  1  0  0  0  0
 36 38  1  0  0  0  0
 38 39  1  0  0  0  0
 38 41  1  0  0  0  0
 40 38  1  0  0  0  0
 42 45  1  0  0  0  0
 42 36  1  0  0  0  0
 43 42  1  0  0  0  0
 44 42  1  0  0  0  0
 45 46  2  0  0  0  0
 47 46  1  0  0  0  0
 48 47  2  0  0  0  0
 49 48  1  0  0  0  0
 49 45  1  0  0  0  0
 50 48  1  0  0  0  0
 51 53  1  0  0  0  0
 51 49  1  0  0  0  0
 52 51  1  0  0  0  0
 54 51  1  0  0  0  0
M  END
>  <MODEL>
20

>  <REMARK>
 VINA RESULT:    -7.606      1.809      2.470
 INTER + INTRA:         -12.072
 INTER:                 -11.513
 INTRA:                  -0.559
 UNBOUND:                -0.909
  Name = 
  9 active torsions:
  status: ('A' for Active; 'I' for Inactive)
    1  A    between atoms: C_1  and  C_2
    2  A    between atoms: C_2  and  C_3
    3  A    between atoms: C_2  and  C_10
    4  A    between atoms: C_3  and  C_4
    5  A    between atoms: N_8  and  C_9
    6  A    between atoms: C_14  and  N_15
    7  A    between atoms: C_16  and  C_18
    8  A    between atoms: C_20  and  C_21
    9  A    between atoms: C_26  and  C_27
                            x       y       z     vdW  Elec       q    Type
                         _______ _______ _______ _____ _____    ______ ____

>  <TORSDO>
F 9

$$$$
=
 OpenBabel07192307433D

 54 57  0  0  1  0  0  0  0  0999 V2000
    0.1780   11.4350   21.2010 C   0  0  0  0  0  0  0  0  0  0  0  0
   -0.5720   11.2830   22.3740 C   0  0  0  0  0  0  0  0  0  0  0  0
   -0.6310   10.0490   23.0190 C   0  0  0  0  0  0  0  0  0  0  0  0
    0.0590    8.9480   22.5030 C   0  0  0  0  0  0  0  0  0  0  0  0
    0.8150    9.0750   21.3400 C   0  0  0  0  0  0  0  0  0  0  0  0
    0.8700   10.3210   20.6960 C   0  0  0  0  0  0  0  0  0  0  0  0
   -1.1150   12.1230   22.8020 H   0  0  0  0  0  0  0  0  0  0  0  0
   -1.2130    9.9380   23.9310 H   0  0  0  0  0  0  0  0  0  0  0  0
   -0.0120    8.0070   23.0370 H   0  0  0  0  0  0  0  0  0  0  0  0
    1.4630   10.4300   19.7920 H   0  0  0  0  0  0  0  0  0  0  0  0
    1.5400    8.0210   20.7590 N   0  0  0  0  0  0  0  0  0  0  0  0
    1.9690    7.8900   19.4520 C   0  0  0  0  0  0  0  0  0  0  0  0
    1.8040    8.6800   18.5310 O   0  0  0  0  0  0  0  0  0  0  0  0
    1.7890    7.2360   21.3580 H   0  0  0  0  0  0  0  0  0  0  0  0
    2.7170    6.6100   19.2110 C   0  0  0  0  0  0  0  0  0  0  0  0
    3.6890    6.5480   18.2200 C   0  0  0  0  0  0  0  0  0  0  0  0
    4.3900    5.3530   17.9970 C   0  0  0  0  0  0  0  0  0  0  0  0
    4.0370    4.2700   18.8250 C   0  0  0  0  0  0  0  0  0  0  0  0
    3.0490    4.3930   19.8090 C   0  0  0  0  0  0  0  0  0  0  0  0
    2.3810    5.5620   20.0110 N   0  0  0  0  0  0  0  0  0  0  0  0
    3.9030    7.4270   17.6170 H   0  0  0  0  0  0  0  0  0  0  0  0
    4.5480    3.3150   18.6930 H   0  0  0  0  0  0  0  0  0  0  0  0
    5.5020    5.2380   16.8770 C   0  0  1  0  0  0  0  0  0  0  0  0
    5.6500    3.9070   16.1210 C   0  0  0  0  0  0  0  0  0  0  0  0
    5.6160    4.7720   14.8660 C   0  0  0  0  0  0  0  0  0  0  0  0
    5.1750    5.9210   15.6280 O   0  0  0  0  0  0  0  0  0  0  0  0
    6.4650    5.6170   17.2460 H   0  0  0  0  0  0  0  0  0  0  0  0
    4.8060    3.2190   16.2110 H   0  0  0  0  0  0  0  0  0  0  0  0
    6.5870    3.3720   16.2960 H   0  0  0  0  0  0  0  0  0  0  0  0
    6.5860    4.9580   14.3940 H   0  0  0  0  0  0  0  0  0  0  0  0
    4.8820    4.4750   14.1130 H   0  0  0  0  0  0  0  0  0  0  0  0
    2.7210    3.1800   20.6720 C   0  0  0  0  0  0  0  0  0  0  0  0
    3.7900    2.3650   20.8990 F   0  0  0  0  0  0  0  0  0  0  0  0
    1.7610    2.3850   20.1160 F   0  0  0  0  0  0  0  0  0  0  0  0
    2.2480    3.5250   21.9040 F   0  0  0  0  0  0  0  0  0  0  0  0
    0.2520   12.7690   20.4700 C   0  0  2  0  0  0  0  0  0  0  0  0
    0.4240   13.5560   21.2180 H   0  0  0  0  0  0  0  0  0  0  0  0
   -1.0850   13.0880   19.7900 C   0  0  0  0  0  0  0  0  0  0  0  0
   -1.5000   12.1960   19.3080 H   0  0  0  0  0  0  0  0  0  0  0  0
   -0.9780   13.8610   19.0210 H   0  0  0  0  0  0  0  0  0  0  0  0
   -1.8230   13.4410   20.5170 H   0  0  0  0  0  0  0  0  0  0  0  0
    1.4320   12.7790   19.4750 C   0  0  0  0  0  0  0  0  0  0  0  0
    1.1150   13.1940   18.5100 H   0  0  0  0  0  0  0  0  0  0  0  0
    1.7620   11.7530   19.2680 H   0  0  0  0  0  0  0  0  0  0  0  0
    2.5900   13.5730   19.9790 C   0  0  0  0  0  0  0  0  0  0  0  0
    3.0760   13.5520   21.2040 N   0  0  0  0  0  0  0  0  0  0  0  0
    4.1410   14.4190   21.2580 N   0  0  0  0  0  0  0  0  0  0  0  0
    4.2790   14.9540   20.0690 C   0  0  0  0  0  0  0  0  0  0  0  0
    3.3280   14.4550   19.2340 N   0  0  0  0  0  0  0  0  0  0  0  0
    5.0250   15.6800   19.7800 H   0  0  0  0  0  0  0  0  0  0  0  0
    3.1470   14.8000   17.8500 C   0  0  0  0  0  0  0  0  0  0  0  0
    4.0740   14.5820   17.3140 H   0  0  0  0  0  0  0  0  0  0  0  0
    2.3300   14.2090   17.4280 H   0  0  0  0  0  0  0  0  0  0  0  0
    2.9030   15.8620   17.7810 H   0  0  0  0  0  0  0  0  0  0  0  0
  1  2  1  0  0  0  0
  2  7  1  0  0  0  0
  2  3  2  0  0  0  0
  3  8  1  0  0  0  0
  4  3  1  0  0  0  0
  4  9  1  0  0  0  0
  5  4  2  0  0  0  0
  6  1  2  0  0  0  0
  6  5  1  0  0  0  0
 10  6  1  0  0  0  0
 11  5  1  0  0  0  0
 11 14  1  0  0  0  0
 12 11  1  0  0  0  0
 13 12  2  0  0  0  0
 15 12  1  0  0  0  0
 15 20  1  0  0  0  0
 16 15  2  0  0  0  0
 17 16  1  0  0  0  0
 17 18  2  0  0  0  0
 18 19  1  0  0  0  0
 19 20  2  0  0  0  0
 19 32  1  0  0  0  0
 21 16  1  0  0  0  0
 22 18  1  0  0  0  0
 23 27  1  1  0  0  0
 23 17  1  0  0  0  0
 24 28  1  0  0  0  0
 24 29  1  0  0  0  0
 24 23  1  0  0  0  0
 25 26  1  0  0  0  0
 25 24  1  0  0  0  0
 26 23  1  0  0  0  0
 30 25  1  0  0  0  0
 31 25  1  0  0  0  0
 32 33  1  0  0  0  0
 32 35  1  0  0  0  0
 34 32  1  0  0  0  0
 36  1  1  0  0  0  0
 36 37  1  1  0  0  0
 38 36  1  0  0  0  0
 38 41  1  0  0  0  0
 39 38  1  0  0  0  0
 40 38  1  0  0  0  0
 42 45  1  0  0  0  0
 42 36  1  0  0  0  0
 43 42  1  0  0  0  0
 44 42  1  0  0  0  0
 45 46  2  0  0  0  0
 46 47  1  0  0  0  0
 48 47  2  0  0  0  0
 49 45  1  0  0  0  0
 49 48  1  0  0  0  0
 50 48  1  0  0  0  0
 51 49  1  0  0  0  0
 52 51  1  0  0  0  0
 53 51  1  0  0  0  0
 54 51  1  0  0  0  0
M  END
>  <MODEL>
21

>  <REMARK>
 VINA RESULT:    -7.598      2.806      4.073
 INTER + INTRA:         -12.061
 INTER:                 -11.382
 INTRA:                  -0.678
 UNBOUND:                -0.909
  Name = 
  9 active torsions:
  status: ('A' for Active; 'I' for Inactive)
    1  A    between atoms: C_1  and  C_2
    2  A    between atoms: C_2  and  C_3
    3  A    between atoms: C_2  and  C_10
    4  A    between atoms: C_3  and  C_4
    5  A    between atoms: N_8  and  C_9
    6  A    between atoms: C_14  and  N_15
    7  A    between atoms: C_16  and  C_18
    8  A    between atoms: C_20  and  C_21
    9  A    between atoms: C_26  and  C_27
                            x       y       z     vdW  Elec       q    Type
                         _______ _______ _______ _____ _____    ______ ____

>  <TORSDO>
F 9

$$$$
=
 OpenBabel07192307433D

 54 57  0  0  1  0  0  0  0  0999 V2000
    4.7030    4.3880   17.2170 C   0  0  0  0  0  0  0  0  0  0  0  0
    3.9760    3.1930   17.2950 C   0  0  0  0  0  0  0  0  0  0  0  0
    2.6990    3.1790   17.8510 C   0  0  0  0  0  0  0  0  0  0  0  0
    2.1260    4.3580   18.3370 C   0  0  0  0  0  0  0  0  0  0  0  0
    2.8270    5.5600   18.2670 C   0  0  0  0  0  0  0  0  0  0  0  0
    4.1130    5.5670   17.7050 C   0  0  0  0  0  0  0  0  0  0  0  0
    4.3940    2.2610   16.9190 H   0  0  0  0  0  0  0  0  0  0  0  0
    2.1390    2.2480   17.9060 H   0  0  0  0  0  0  0  0  0  0  0  0
    1.1290    4.3030   18.7600 H   0  0  0  0  0  0  0  0  0  0  0  0
    4.6640    6.5020   17.6420 H   0  0  0  0  0  0  0  0  0  0  0  0
    2.3220    6.7870   18.7290 N   0  0  0  0  0  0  0  0  0  0  0  0
    2.3920    8.0270   18.1230 C   0  0  0  0  0  0  0  0  0  0  0  0
    2.9090    8.3040   17.0480 O   0  0  0  0  0  0  0  0  0  0  0  0
    1.8440    6.7910   19.6270 H   0  0  0  0  0  0  0  0  0  0  0  0
    1.7340    9.1070   18.9330 C   0  0  0  0  0  0  0  0  0  0  0  0
    1.6470   10.4000   18.4310 C   0  0  0  0  0  0  0  0  0  0  0  0
    1.0280   11.4080   19.1860 C   0  0  0  0  0  0  0  0  0  0  0  0
    0.5300   11.0160   20.4430 C   0  0  0  0  0  0  0  0  0  0  0  0
    0.6470    9.6960   20.8970 C   0  0  0  0  0  0  0  0  0  0  0  0
    1.2480    8.7320   20.1480 N   0  0  0  0  0  0  0  0  0  0  0  0
    2.0600   10.6270   17.4510 H   0  0  0  0  0  0  0  0  0  0  0  0
    0.0430   11.7600   21.0740 H   0  0  0  0  0  0  0  0  0  0  0  0
    0.9120   12.8930   18.6520 C   0  0  1  0  0  0  0  0  0  0  0  0
   -0.4720   13.4200   18.2360 C   0  0  0  0  0  0  0  0  0  0  0  0
   -0.1310   14.6170   19.1150 C   0  0  0  0  0  0  0  0  0  0  0  0
    1.0000   13.9180   19.6880 O   0  0  0  0  0  0  0  0  0  0  0  0
    1.6800   13.0930   17.8910 H   0  0  0  0  0  0  0  0  0  0  0  0
   -1.3240   12.8330   18.5910 H   0  0  0  0  0  0  0  0  0  0  0  0
   -0.5890   13.6380   17.1710 H   0  0  0  0  0  0  0  0  0  0  0  0
    0.1890   15.5180   18.5820 H   0  0  0  0  0  0  0  0  0  0  0  0
   -0.8790   14.8720   19.8690 H   0  0  0  0  0  0  0  0  0  0  0  0
    0.0800    9.3420   22.2670 C   0  0  0  0  0  0  0  0  0  0  0  0
    1.0340    9.0360   23.1920 F   0  0  0  0  0  0  0  0  0  0  0  0
   -0.7540    8.2630   22.2250 F   0  0  0  0  0  0  0  0  0  0  0  0
   -0.6520   10.3560   22.8100 F   0  0  0  0  0  0  0  0  0  0  0  0
    6.1050    4.4320   16.6230 C   0  0  2  0  0  0  0  0  0  0  0  0
    6.3650    3.4170   16.2940 H   0  0  0  0  0  0  0  0  0  0  0  0
    7.1310    4.8290   17.6920 C   0  0  0  0  0  0  0  0  0  0  0  0
    6.9430    4.2960   18.6300 H   0  0  0  0  0  0  0  0  0  0  0  0
    7.1000    5.9030   17.9080 H   0  0  0  0  0  0  0  0  0  0  0  0
    8.1490    4.5830   17.3720 H   0  0  0  0  0  0  0  0  0  0  0  0
    6.1470    5.3660   15.3950 C   0  0  0  0  0  0  0  0  0  0  0  0
    7.0250    6.0220   15.4430 H   0  0  0  0  0  0  0  0  0  0  0  0
    5.2740    6.0320   15.3950 H   0  0  0  0  0  0  0  0  0  0  0  0
    6.1830    4.6090   14.1100 C   0  0  0  0  0  0  0  0  0  0  0  0
    5.3310    3.6800   13.7280 N   0  0  0  0  0  0  0  0  0  0  0  0
    5.7110    3.2350   12.4840 N   0  0  0  0  0  0  0  0  0  0  0  0
    6.7900    3.8960   12.1380 C   0  0  0  0  0  0  0  0  0  0  0  0
    7.1240    4.7680   13.1260 N   0  0  0  0  0  0  0  0  0  0  0  0
    7.3400    3.7780   11.2150 H   0  0  0  0  0  0  0  0  0  0  0  0
    8.2470    5.6660   13.1220 C   0  0  0  0  0  0  0  0  0  0  0  0
    8.0080    6.5170   12.4800 H   0  0  0  0  0  0  0  0  0  0  0  0
    8.4400    6.0160   14.1400 H   0  0  0  0  0  0  0  0  0  0  0  0
    9.1230    5.1330   12.7460 H   0  0  0  0  0  0  0  0  0  0  0  0
  1  2  2  0  0  0  0
  1  6  1  0  0  0  0
  2  3  1  0  0  0  0
  3  8  1  0  0  0  0
  3  4  2  0  0  0  0
  4  9  1  0  0  0  0
  5  4  1  0  0  0  0
  5 11  1  0  0  0  0
  6  5  2  0  0  0  0
  7  2  1  0  0  0  0
 10  6  1  0  0  0  0
 11 14  1  0  0  0  0
 12 11  1  0  0  0  0
 12 15  1  0  0  0  0
 13 12  2  0  0  0  0
 15 20  1  0  0  0  0
 16 15  2  0  0  0  0
 16 17  1  0  0  0  0
 17 18  2  0  0  0  0
 18 19  1  0  0  0  0
 18 22  1  0  0  0  0
 19 32  1  0  0  0  0
 20 19  2  0  0  0  0
 21 16  1  0  0  0  0
 23 27  1  6  0  0  0
 23 17  1  0  0  0  0
 23 26  1  0  0  0  0
 24 28  1  0  0  0  0
 24 23  1  0  0  0  0
 24 25  1  0  0  0  0
 25 26  1  0  0  0  0
 25 31  1  0  0  0  0
 29 24  1  0  0  0  0
 30 25  1  0  0  0  0
 32 35  1  0  0  0  0
 32 33  1  0  0  0  0
 34 32  1  0  0  0  0
 36 37  1  6  0  0  0
 36  1  1  0  0  0  0
 36 38  1  0  0  0  0
 38 40  1  0  0  0  0
 38 39  1  0  0  0  0
 41 38  1  0  0  0  0
 42 44  1  0  0  0  0
 42 43  1  0  0  0  0
 42 36  1  0  0  0  0
 45 42  1  0  0  0  0
 46 45  2  0  0  0  0
 47 46  1  0  0  0  0
 48 47  2  0  0  0  0
 48 49  1  0  0  0  0
 49 45  1  0  0  0  0
 50 48  1  0  0  0  0
 51 49  1  0  0  0  0
 51 53  1  0  0  0  0
 52 51  1  0  0  0  0
 54 51  1  0  0  0  0
M  END
>  <MODEL>
22

>  <REMARK>
 VINA RESULT:    -7.562      3.540      8.996
 INTER + INTRA:         -12.008
 INTER:                 -11.173
 INTRA:                  -0.835
 UNBOUND:                -0.909
  Name = 
  9 active torsions:
  status: ('A' for Active; 'I' for Inactive)
    1  A    between atoms: C_1  and  C_2
    2  A    between atoms: C_2  and  C_3
    3  A    between atoms: C_2  and  C_10
    4  A    between atoms: C_3  and  C_4
    5  A    between atoms: N_8  and  C_9
    6  A    between atoms: C_14  and  N_15
    7  A    between atoms: C_16  and  C_18
    8  A    between atoms: C_20  and  C_21
    9  A    between atoms: C_26  and  C_27
                            x       y       z     vdW  Elec       q    Type
                         _______ _______ _______ _____ _____    ______ ____

>  <TORSDO>
F 9

$$$$
=
 OpenBabel07192307433D

 54 57  0  0  1  0  0  0  0  0999 V2000
   -0.9340   11.0740   20.5580 C   0  0  0  0  0  0  0  0  0  0  0  0
   -0.9830   11.2240   21.9500 C   0  0  0  0  0  0  0  0  0  0  0  0
   -0.2890   10.3450   22.7790 C   0  0  0  0  0  0  0  0  0  0  0  0
    0.4650    9.3030   22.2330 C   0  0  0  0  0  0  0  0  0  0  0  0
    0.5340    9.1360   20.8510 C   0  0  0  0  0  0  0  0  0  0  0  0
   -0.1670   10.0250   20.0220 C   0  0  0  0  0  0  0  0  0  0  0  0
   -1.5570   12.0290   22.4030 H   0  0  0  0  0  0  0  0  0  0  0  0
   -0.3300   10.4690   23.8590 H   0  0  0  0  0  0  0  0  0  0  0  0
    0.9910    8.6440   22.9140 H   0  0  0  0  0  0  0  0  0  0  0  0
   -0.1140    9.9040   18.9430 H   0  0  0  0  0  0  0  0  0  0  0  0
    1.2720    8.1180   20.2230 N   0  0  0  0  0  0  0  0  0  0  0  0
    1.9980    8.1830   19.0490 C   0  0  0  0  0  0  0  0  0  0  0  0
    2.1480    9.1550   18.3180 O   0  0  0  0  0  0  0  0  0  0  0  0
    1.2840    7.2030   20.6680 H   0  0  0  0  0  0  0  0  0  0  0  0
    2.6510    6.8780   18.6960 C   0  0  0  0  0  0  0  0  0  0  0  0
    2.2570    5.7080   19.3340 C   0  0  0  0  0  0  0  0  0  0  0  0
    2.8650    4.4870   19.0020 C   0  0  0  0  0  0  0  0  0  0  0  0
    3.8670    4.5490   18.0150 C   0  0  0  0  0  0  0  0  0  0  0  0
    4.2210    5.7590   17.4060 C   0  0  0  0  0  0  0  0  0  0  0  0
    3.6180    6.9320   17.7410 N   0  0  0  0  0  0  0  0  0  0  0  0
    1.4780    5.7410   20.0920 H   0  0  0  0  0  0  0  0  0  0  0  0
    4.3760    3.6300   17.7200 H   0  0  0  0  0  0  0  0  0  0  0  0
    2.4490    3.1330   19.7070 C   0  0  1  0  0  0  0  0  0  0  0  0
    2.9750    2.8480   21.1240 C   0  0  0  0  0  0  0  0  0  0  0  0
    1.5220    2.5290   21.4530 C   0  0  0  0  0  0  0  0  0  0  0  0
    1.0760    3.1040   20.2010 O   0  0  0  0  0  0  0  0  0  0  0  0
    2.5980    2.2810   19.0280 H   0  0  0  0  0  0  0  0  0  0  0  0
    3.3750    3.7140   21.6590 H   0  0  0  0  0  0  0  0  0  0  0  0
    3.6700    2.0080   21.2050 H   0  0  0  0  0  0  0  0  0  0  0  0
    1.2730    1.4650   21.5100 H   0  0  0  0  0  0  0  0  0  0  0  0
    1.1100    3.0580   22.3150 H   0  0  0  0  0  0  0  0  0  0  0  0
    5.3120    5.7500   16.3410 C   0  0  0  0  0  0  0  0  0  0  0  0
    6.5080    6.2380   16.7780 F   0  0  0  0  0  0  0  0  0  0  0  0
    4.9830    6.4990   15.2490 F   0  0  0  0  0  0  0  0  0  0  0  0
    5.5720    4.4980   15.8670 F   0  0  0  0  0  0  0  0  0  0  0  0
   -1.6890   12.0130   19.6270 C   0  0  2  0  0  0  0  0  0  0  0  0
   -2.7210   12.0960   19.9940 H   0  0  0  0  0  0  0  0  0  0  0  0
   -1.7680   11.4230   18.2130 C   0  0  0  0  0  0  0  0  0  0  0  0
   -2.6150   11.8450   17.6610 H   0  0  0  0  0  0  0  0  0  0  0  0
   -1.8930   10.3350   18.2320 H   0  0  0  0  0  0  0  0  0  0  0  0
   -0.8610   11.6450   17.6420 H   0  0  0  0  0  0  0  0  0  0  0  0
   -1.0540   13.4200   19.6410 C   0  0  0  0  0  0  0  0  0  0  0  0
   -1.1900   13.8920   20.6220 H   0  0  0  0  0  0  0  0  0  0  0  0
   -1.5630   14.0720   18.9200 H   0  0  0  0  0  0  0  0  0  0  0  0
    0.4030   13.3850   19.3240 C   0  0  0  0  0  0  0  0  0  0  0  0
    0.9450   13.0050   18.1850 N   0  0  0  0  0  0  0  0  0  0  0  0
    2.3100   13.1250   18.2980 N   0  0  0  0  0  0  0  0  0  0  0  0
    2.5710   13.5680   19.5040 C   0  0  0  0  0  0  0  0  0  0  0  0
    1.4070   13.7450   20.1850 N   0  0  0  0  0  0  0  0  0  0  0  0
    3.5530   13.7670   19.9110 H   0  0  0  0  0  0  0  0  0  0  0  0
    1.2770   14.2140   21.5380 C   0  0  0  0  0  0  0  0  0  0  0  0
    0.2280   14.4560   21.7220 H   0  0  0  0  0  0  0  0  0  0  0  0
    1.6020   13.4310   22.2300 H   0  0  0  0  0  0  0  0  0  0  0  0
    1.9050   15.0980   21.6660 H   0  0  0  0  0  0  0  0  0  0  0  0
  1  2  1  0  0  0  0
  2  7  1  0  0  0  0
  2  3  2  0  0  0  0
  3  8  1  0  0  0  0
  4  3  1  0  0  0  0
  4  9  1  0  0  0  0
  5  4  2  0  0  0  0
  6  1  2  0  0  0  0
  6  5  1  0  0  0  0
 10  6  1  0  0  0  0
 11 14  1  0  0  0  0
 11  5  1  0  0  0  0
 12 11  1  0  0  0  0
 13 12  2  0  0  0  0
 15 12  1  0  0  0  0
 15 16  1  0  0  0  0
 16 21  1  0  0  0  0
 17 16  2  0  0  0  0
 17 23  1  0  0  0  0
 18 17  1  0  0  0  0
 19 20  1  0  0  0  0
 19 18  2  0  0  0  0
 20 15  2  0  0  0  0
 22 18  1  0  0  0  0
 23 27  1  6  0  0  0
 23 26  1  0  0  0  0
 23 24  1  0  0  0  0
 24 29  1  0  0  0  0
 24 25  1  0  0  0  0
 24 28  1  0  0  0  0
 25 30  1  0  0  0  0
 25 31  1  0  0  0  0
 26 25  1  0  0  0  0
 32 33  1  0  0  0  0
 32 19  1  0  0  0  0
 34 32  1  0  0  0  0
 35 32  1  0  0  0  0
 36 42  1  0  0  0  0
 36 37  1  1  0  0  0
 36  1  1  0  0  0  0
 38 40  1  0  0  0  0
 38 36  1  0  0  0  0
 39 38  1  0  0  0  0
 41 38  1  0  0  0  0
 42 43  1  0  0  0  0
 44 42  1  0  0  0  0
 45 42  1  0  0  0  0
 45 49  1  0  0  0  0
 46 47  1  0  0  0  0
 46 45  2  0  0  0  0
 47 48  2  0  0  0  0
 48 50  1  0  0  0  0
 48 49  1  0  0  0  0
 49 51  1  0  0  0  0
 51 54  1  0  0  0  0
 51 52  1  0  0  0  0
 51 53  1  0  0  0  0
M  END
>  <MODEL>
23

>  <REMARK>
 VINA RESULT:    -7.548      3.142      4.622
 INTER + INTRA:         -11.986
 INTER:                 -11.266
 INTRA:                  -0.720
 UNBOUND:                -0.909
  Name = 
  9 active torsions:
  status: ('A' for Active; 'I' for Inactive)
    1  A    between atoms: C_1  and  C_2
    2  A    between atoms: C_2  and  C_3
    3  A    between atoms: C_2  and  C_10
    4  A    between atoms: C_3  and  C_4
    5  A    between atoms: N_8  and  C_9
    6  A    between atoms: C_14  and  N_15
    7  A    between atoms: C_16  and  C_18
    8  A    between atoms: C_20  and  C_21
    9  A    between atoms: C_26  and  C_27
                            x       y       z     vdW  Elec       q    Type
                         _______ _______ _______ _____ _____    ______ ____

>  <TORSDO>
F 9

$$$$
=
 OpenBabel07192307433D

 54 57  0  0  1  0  0  0  0  0999 V2000
    0.1530   11.5850   20.9850 C   0  0  0  0  0  0  0  0  0  0  0  0
   -0.4740   11.3900   22.2220 C   0  0  0  0  0  0  0  0  0  0  0  0
   -0.4750   10.1320   22.8230 C   0  0  0  0  0  0  0  0  0  0  0  0
    0.1510    9.0500   22.1980 C   0  0  0  0  0  0  0  0  0  0  0  0
    0.7860    9.2190   20.9700 C   0  0  0  0  0  0  0  0  0  0  0  0
    0.7830   10.4880   20.3710 C   0  0  0  0  0  0  0  0  0  0  0  0
   -0.9650   12.2150   22.7340 H   0  0  0  0  0  0  0  0  0  0  0  0
   -0.9620    9.9890   23.7840 H   0  0  0  0  0  0  0  0  0  0  0  0
    0.1280    8.0890   22.7020 H   0  0  0  0  0  0  0  0  0  0  0  0
    1.2820   10.6290   19.4150 H   0  0  0  0  0  0  0  0  0  0  0  0
    1.4410    8.1850   20.2790 N   0  0  0  0  0  0  0  0  0  0  0  0
    2.0170    8.2200   19.0240 C   0  0  0  0  0  0  0  0  0  0  0  0
    2.0760    9.1740   18.2570 O   0  0  0  0  0  0  0  0  0  0  0  0
    1.5080    7.2800   20.7410 H   0  0  0  0  0  0  0  0  0  0  0  0
    2.6220    6.9050   18.6250 C   0  0  0  0  0  0  0  0  0  0  0  0
    2.2150    5.7330   19.2500 C   0  0  0  0  0  0  0  0  0  0  0  0
    2.7780    4.5030   18.8750 C   0  0  0  0  0  0  0  0  0  0  0  0
    3.7500    4.5580   17.8580 C   0  0  0  0  0  0  0  0  0  0  0  0
    4.1200    5.7710   17.2640 C   0  0  0  0  0  0  0  0  0  0  0  0
    3.5600    6.9530   17.6400 N   0  0  0  0  0  0  0  0  0  0  0  0
    1.4600    5.7720   20.0320 H   0  0  0  0  0  0  0  0  0  0  0  0
    4.2240    3.6320   17.5290 H   0  0  0  0  0  0  0  0  0  0  0  0
    2.3450    3.1470   19.5640 C   0  0  1  0  0  0  0  0  0  0  0  0
    2.8610    2.8430   20.9810 C   0  0  0  0  0  0  0  0  0  0  0  0
    1.4030    2.5350   21.3000 C   0  0  0  0  0  0  0  0  0  0  0  0
    0.9690    3.1260   20.0510 O   0  0  0  0  0  0  0  0  0  0  0  0
    2.4900    2.3000   18.8790 H   0  0  0  0  0  0  0  0  0  0  0  0
    3.2650    3.7000   21.5270 H   0  0  0  0  0  0  0  0  0  0  0  0
    3.5470    1.9960   21.0580 H   0  0  0  0  0  0  0  0  0  0  0  0
    1.1440    1.4730   21.3450 H   0  0  0  0  0  0  0  0  0  0  0  0
    0.9920    3.0590   22.1650 H   0  0  0  0  0  0  0  0  0  0  0  0
    5.1760    5.7540   16.1650 C   0  0  0  0  0  0  0  0  0  0  0  0
    4.9770    6.6960   15.1990 F   0  0  0  0  0  0  0  0  0  0  0  0
    5.2330    4.5580   15.5110 F   0  0  0  0  0  0  0  0  0  0  0  0
    6.4340    5.9740   16.6440 F   0  0  0  0  0  0  0  0  0  0  0  0
    0.1620   12.9450   20.3000 C   0  0  2  0  0  0  0  0  0  0  0  0
    0.3110   13.7120   21.0730 H   0  0  0  0  0  0  0  0  0  0  0  0
   -1.1970   13.2300   19.6480 C   0  0  0  0  0  0  0  0  0  0  0  0
   -1.8650   13.7430   20.3490 H   0  0  0  0  0  0  0  0  0  0  0  0
   -1.6960   12.3080   19.3280 H   0  0  0  0  0  0  0  0  0  0  0  0
   -1.0860   13.8720   18.7690 H   0  0  0  0  0  0  0  0  0  0  0  0
    1.3270   13.0390   19.2920 C   0  0  0  0  0  0  0  0  0  0  0  0
    1.0130   13.5870   18.3950 H   0  0  0  0  0  0  0  0  0  0  0  0
    1.6120   12.0370   18.9480 H   0  0  0  0  0  0  0  0  0  0  0  0
    2.5230   13.7160   19.8720 C   0  0  0  0  0  0  0  0  0  0  0  0
    2.9090   13.6740   21.1310 N   0  0  0  0  0  0  0  0  0  0  0  0
    4.0550   14.4220   21.2540 N   0  0  0  0  0  0  0  0  0  0  0  0
    4.3410   14.9090   20.0700 C   0  0  0  0  0  0  0  0  0  0  0  0
    3.4070   14.4940   19.1720 N   0  0  0  0  0  0  0  0  0  0  0  0
    5.1820   15.5430   19.8280 H   0  0  0  0  0  0  0  0  0  0  0  0
    3.3710   14.8210   17.7720 C   0  0  0  0  0  0  0  0  0  0  0  0
    3.5850   13.9160   17.1990 H   0  0  0  0  0  0  0  0  0  0  0  0
    2.3790   15.1980   17.5090 H   0  0  0  0  0  0  0  0  0  0  0  0
    4.1200   15.5910   17.5710 H   0  0  0  0  0  0  0  0  0  0  0  0
  1  2  1  0  0  0  0
  2  7  1  0  0  0  0
  2  3  2  0  0  0  0
  3  8  1  0  0  0  0
  4  9  1  0  0  0  0
  4  3  1  0  0  0  0
  5  4  2  0  0  0  0
  6  5  1  0  0  0  0
  6  1  2  0  0  0  0
 10  6  1  0  0  0  0
 11 14  1  0  0  0  0
 11  5  1  0  0  0  0
 12 11  1  0  0  0  0
 13 12  2  0  0  0  0
 15 12  1  0  0  0  0
 15 16  1  0  0  0  0
 16 21  1  0  0  0  0
 17 16  2  0  0  0  0
 17 23  1  0  0  0  0
 18 17  1  0  0  0  0
 19 20  1  0  0  0  0
 19 18  2  0  0  0  0
 20 15  2  0  0  0  0
 22 18  1  0  0  0  0
 23 27  1  6  0  0  0
 23 26  1  0  0  0  0
 23 24  1  0  0  0  0
 24 29  1  0  0  0  0
 24 25  1  0  0  0  0
 24 28  1  0  0  0  0
 25 30  1  0  0  0  0
 25 31  1  0  0  0  0
 26 25  1  0  0  0  0
 32 35  1  0  0  0  0
 32 19  1  0  0  0  0
 33 32  1  0  0  0  0
 34 32  1  0  0  0  0
 36  1  1  0  0  0  0
 36 37  1  1  0  0  0
 38 36  1  0  0  0  0
 38 39  1  0  0  0  0
 40 38  1  0  0  0  0
 41 38  1  0  0  0  0
 42 45  1  0  0  0  0
 42 36  1  0  0  0  0
 43 42  1  0  0  0  0
 44 42  1  0  0  0  0
 45 46  2  0  0  0  0
 46 47  1  0  0  0  0
 48 47  2  0  0  0  0
 49 45  1  0  0  0  0
 49 48  1  0  0  0  0
 50 48  1  0  0  0  0
 51 49  1  0  0  0  0
 52 51  1  0  0  0  0
 53 51  1  0  0  0  0
 54 51  1  0  0  0  0
M  END
>  <MODEL>
24

>  <REMARK>
 VINA RESULT:    -7.531      3.632      5.294
 INTER + INTRA:         -11.962
 INTER:                 -11.362
 INTRA:                  -0.601
 UNBOUND:                -0.909
  Name = 
  9 active torsions:
  status: ('A' for Active; 'I' for Inactive)
    1  A    between atoms: C_1  and  C_2
    2  A    between atoms: C_2  and  C_3
    3  A    between atoms: C_2  and  C_10
    4  A    between atoms: C_3  and  C_4
    5  A    between atoms: N_8  and  C_9
    6  A    between atoms: C_14  and  N_15
    7  A    between atoms: C_16  and  C_18
    8  A    between atoms: C_20  and  C_21
    9  A    between atoms: C_26  and  C_27
                            x       y       z     vdW  Elec       q    Type
                         _______ _______ _______ _____ _____    ______ ____

>  <TORSDO>
F 9

$$$$
=
 OpenBabel07192307433D

 54 57  0  0  1  0  0  0  0  0999 V2000
   -0.6460   11.9970   20.9150 C   0  0  0  0  0  0  0  0  0  0  0  0
   -1.6880   12.2770   20.0220 C   0  0  0  0  0  0  0  0  0  0  0  0
   -1.9000   11.4680   18.9080 C   0  0  0  0  0  0  0  0  0  0  0  0
   -1.0750   10.3650   18.6680 C   0  0  0  0  0  0  0  0  0  0  0  0
   -0.0340   10.0630   19.5440 C   0  0  0  0  0  0  0  0  0  0  0  0
    0.1720   10.8810   20.6640 C   0  0  0  0  0  0  0  0  0  0  0  0
   -2.3490   13.1260   20.1870 H   0  0  0  0  0  0  0  0  0  0  0  0
   -2.7120   11.6900   18.2200 H   0  0  0  0  0  0  0  0  0  0  0  0
   -1.2760    9.7610   17.7900 H   0  0  0  0  0  0  0  0  0  0  0  0
    0.9780   10.6490   21.3550 H   0  0  0  0  0  0  0  0  0  0  0  0
    0.8350    8.9720   19.3770 N   0  0  0  0  0  0  0  0  0  0  0  0
    1.8170    8.7940   18.4220 C   0  0  0  0  0  0  0  0  0  0  0  0
    2.1320    9.5650   17.5230 O   0  0  0  0  0  0  0  0  0  0  0  0
    0.7460    8.1950   20.0300 H   0  0  0  0  0  0  0  0  0  0  0  0
    2.5410    7.4860   18.5680 C   0  0  0  0  0  0  0  0  0  0  0  0
    3.7130    7.2560   17.8590 C   0  0  0  0  0  0  0  0  0  0  0  0
    4.3920    6.0350   17.9990 C   0  0  0  0  0  0  0  0  0  0  0  0
    3.8040    5.1030   18.8760 C   0  0  0  0  0  0  0  0  0  0  0  0
    2.6200    5.3920   19.5640 C   0  0  0  0  0  0  0  0  0  0  0  0
    1.9790    6.5830   19.4170 N   0  0  0  0  0  0  0  0  0  0  0  0
    4.1030    8.0240   17.1960 H   0  0  0  0  0  0  0  0  0  0  0  0
    4.2870    4.1360   19.0200 H   0  0  0  0  0  0  0  0  0  0  0  0
    5.7280    5.7310   17.2070 C   0  0  1  0  0  0  0  0  0  0  0  0
    7.0660    6.1650   17.8280 C   0  0  0  0  0  0  0  0  0  0  0  0
    7.5130    4.7390   17.5260 C   0  0  0  0  0  0  0  0  0  0  0  0
    6.1510    4.3350   17.2470 O   0  0  0  0  0  0  0  0  0  0  0  0
    5.6360    6.0430   16.1570 H   0  0  0  0  0  0  0  0  0  0  0  0
    7.0330    6.4060   18.8950 H   0  0  0  0  0  0  0  0  0  0  0  0
    7.6010    6.9490   17.2860 H   0  0  0  0  0  0  0  0  0  0  0  0
    8.1500    4.6210   16.6440 H   0  0  0  0  0  0  0  0  0  0  0  0
    7.9370    4.1930   18.3720 H   0  0  0  0  0  0  0  0  0  0  0  0
    2.0430    4.3370   20.5010 C   0  0  0  0  0  0  0  0  0  0  0  0
    2.3660    4.5340   21.8120 F   0  0  0  0  0  0  0  0  0  0  0  0
    2.4720    3.0780   20.1990 F   0  0  0  0  0  0  0  0  0  0  0  0
    0.6810    4.2850   20.4580 F   0  0  0  0  0  0  0  0  0  0  0  0
   -0.3850   12.8690   22.1360 C   0  0  2  0  0  0  0  0  0  0  0  0
    0.4890   12.4610   22.6630 H   0  0  0  0  0  0  0  0  0  0  0  0
   -1.5650   12.7970   23.1130 C   0  0  0  0  0  0  0  0  0  0  0  0
   -1.4600   13.5440   23.9080 H   0  0  0  0  0  0  0  0  0  0  0  0
   -1.6400   11.8130   23.5900 H   0  0  0  0  0  0  0  0  0  0  0  0
   -2.5130   12.9930   22.6020 H   0  0  0  0  0  0  0  0  0  0  0  0
   -0.0630   14.3170   21.7120 C   0  0  0  0  0  0  0  0  0  0  0  0
    0.0630   14.9560   22.5950 H   0  0  0  0  0  0  0  0  0  0  0  0
   -0.9040   14.7440   21.1500 H   0  0  0  0  0  0  0  0  0  0  0  0
    1.1720   14.4010   20.8800 C   0  0  0  0  0  0  0  0  0  0  0  0
    2.3960   14.1050   21.2690 N   0  0  0  0  0  0  0  0  0  0  0  0
    3.2450   14.3110   20.2070 N   0  0  0  0  0  0  0  0  0  0  0  0
    2.5230   14.7350   19.1980 C   0  0  0  0  0  0  0  0  0  0  0  0
    1.2180   14.8090   19.5720 N   0  0  0  0  0  0  0  0  0  0  0  0
    2.8920   14.9910   18.2150 H   0  0  0  0  0  0  0  0  0  0  0  0
    0.1210   15.2350   18.7470 C   0  0  0  0  0  0  0  0  0  0  0  0
   -0.5050   14.3660   18.5260 H   0  0  0  0  0  0  0  0  0  0  0  0
   -0.4680   15.9860   19.2790 H   0  0  0  0  0  0  0  0  0  0  0  0
    0.5190   15.6670   17.8270 H   0  0  0  0  0  0  0  0  0  0  0  0
  1 36  1  0  0  0  0
  2  7  1  0  0  0  0
  2  1  2  0  0  0  0
  3  2  1  0  0  0  0
  4  3  2  0  0  0  0
  4  5  1  0  0  0  0
  5  6  2  0  0  0  0
  6  1  1  0  0  0  0
  6 10  1  0  0  0  0
  8  3  1  0  0  0  0
  9  4  1  0  0  0  0
 11  5  1  0  0  0  0
 11 14  1  0  0  0  0
 12 15  1  0  0  0  0
 12 11  1  0  0  0  0
 13 12  2  0  0  0  0
 15 20  1  0  0  0  0
 16 17  1  0  0  0  0
 16 15  2  0  0  0  0
 17 18  2  0  0  0  0
 18 22  1  0  0  0  0
 18 19  1  0  0  0  0
 19 32  1  0  0  0  0
 20 19  2  0  0  0  0
 21 16  1  0  0  0  0
 23 27  1  6  0  0  0
 23 26  1  0  0  0  0
 23 24  1  0  0  0  0
 23 17  1  0  0  0  0
 24 28  1  0  0  0  0
 25 24  1  0  0  0  0
 25 31  1  0  0  0  0
 26 25  1  0  0  0  0
 29 24  1  0  0  0  0
 30 25  1  0  0  0  0
 32 33  1  0  0  0  0
 34 32  1  0  0  0  0
 35 32  1  0  0  0  0
 36 37  1  1  0  0  0
 36 38  1  0  0  0  0
 38 40  1  0  0  0  0
 38 39  1  0  0  0  0
 41 38  1  0  0  0  0
 42 36  1  0  0  0  0
 42 43  1  0  0  0  0
 44 42  1  0  0  0  0
 45 46  2  0  0  0  0
 45 42  1  0  0  0  0
 47 46  1  0  0  0  0
 48 49  1  0  0  0  0
 48 47  2  0  0  0  0
 49 45  1  0  0  0  0
 50 48  1  0  0  0  0
 51 53  1  0  0  0  0
 51 49  1  0  0  0  0
 52 51  1  0  0  0  0
 54 51  1  0  0  0  0
M  END
>  <MODEL>
25

>  <REMARK>
 VINA RESULT:    -7.525      2.630      3.993
 INTER + INTRA:         -11.953
 INTER:                 -10.672
 INTRA:                  -1.281
 UNBOUND:                -0.909
  Name = 
  9 active torsions:
  status: ('A' for Active; 'I' for Inactive)
    1  A    between atoms: C_1  and  C_2
    2  A    between atoms: C_2  and  C_3
    3  A    between atoms: C_2  and  C_10
    4  A    between atoms: C_3  and  C_4
    5  A    between atoms: N_8  and  C_9
    6  A    between atoms: C_14  and  N_15
    7  A    between atoms: C_16  and  C_18
    8  A    between atoms: C_20  and  C_21
    9  A    between atoms: C_26  and  C_27
                            x       y       z     vdW  Elec       q    Type
                         _______ _______ _______ _____ _____    ______ ____

>  <TORSDO>
F 9

$$$$
=
 OpenBabel07192307433D

 54 57  0  0  1  0  0  0  0  0999 V2000
   -0.3700   10.6340   20.5980 C   0  0  0  0  0  0  0  0  0  0  0  0
   -0.2850   10.6430   21.9960 C   0  0  0  0  0  0  0  0  0  0  0  0
    0.4870    9.6940   22.6630 C   0  0  0  0  0  0  0  0  0  0  0  0
    1.1870    8.7210   21.9440 C   0  0  0  0  0  0  0  0  0  0  0  0
    1.1230    8.6930   20.5530 C   0  0  0  0  0  0  0  0  0  0  0  0
    0.3440    9.6520   19.8880 C   0  0  0  0  0  0  0  0  0  0  0  0
   -0.8150   11.3920   22.5820 H   0  0  0  0  0  0  0  0  0  0  0  0
    0.5500    9.7080   23.7490 H   0  0  0  0  0  0  0  0  0  0  0  0
    1.7770    8.0020   22.5030 H   0  0  0  0  0  0  0  0  0  0  0  0
    0.2930    9.6410   18.8020 H   0  0  0  0  0  0  0  0  0  0  0  0
    1.7990    7.7530   19.7570 N   0  0  0  0  0  0  0  0  0  0  0  0
    2.3630    7.9310   18.5090 C   0  0  0  0  0  0  0  0  0  0  0  0
    2.3900    8.9580   17.8430 O   0  0  0  0  0  0  0  0  0  0  0  0
    1.8930    6.8080   20.1250 H   0  0  0  0  0  0  0  0  0  0  0  0
    2.9990    6.6800   17.9750 C   0  0  0  0  0  0  0  0  0  0  0  0
    2.3530    5.4570   18.1110 C   0  0  0  0  0  0  0  0  0  0  0  0
    2.9450    4.2880   17.6090 C   0  0  0  0  0  0  0  0  0  0  0  0
    4.1980    4.4530   16.9860 C   0  0  0  0  0  0  0  0  0  0  0  0
    4.8000    5.7120   16.8780 C   0  0  0  0  0  0  0  0  0  0  0  0
    4.2080    6.8340   17.3700 N   0  0  0  0  0  0  0  0  0  0  0  0
    1.3870    5.4080   18.6090 H   0  0  0  0  0  0  0  0  0  0  0  0
    4.7060    3.5780   16.5810 H   0  0  0  0  0  0  0  0  0  0  0  0
    2.2450    2.8760   17.7470 C   0  0  1  0  0  0  0  0  0  0  0  0
    2.8890    1.8210   18.6620 C   0  0  0  0  0  0  0  0  0  0  0  0
    1.4900    1.6730   19.2490 C   0  0  0  0  0  0  0  0  0  0  0  0
    1.0430    2.8740   18.5750 O   0  0  0  0  0  0  0  0  0  0  0  0
    1.9930    2.4700   16.7570 H   0  0  0  0  0  0  0  0  0  0  0  0
    3.6320    2.2020   19.3680 H   0  0  0  0  0  0  0  0  0  0  0  0
    3.2800    0.9360   18.1530 H   0  0  0  0  0  0  0  0  0  0  0  0
    0.9270    0.7980   18.9130 H   0  0  0  0  0  0  0  0  0  0  0  0
    1.4260    1.7660   20.3360 H   0  0  0  0  0  0  0  0  0  0  0  0
    6.1550    5.8170   16.1870 C   0  0  0  0  0  0  0  0  0  0  0  0
    6.8780    6.9120   16.5620 F   0  0  0  0  0  0  0  0  0  0  0  0
    6.0460    5.8920   14.8290 F   0  0  0  0  0  0  0  0  0  0  0  0
    6.9550    4.7410   16.4360 F   0  0  0  0  0  0  0  0  0  0  0  0
   -1.2130   11.6530   19.8430 C   0  0  2  0  0  0  0  0  0  0  0  0
   -2.1640   11.1720   19.5740 H   0  0  0  0  0  0  0  0  0  0  0  0
   -0.5300   12.0500   18.5290 C   0  0  0  0  0  0  0  0  0  0  0  0
   -0.9310   11.4710   17.6900 H   0  0  0  0  0  0  0  0  0  0  0  0
    0.5520   11.8790   18.5640 H   0  0  0  0  0  0  0  0  0  0  0  0
   -0.6920   13.1090   18.3040 H   0  0  0  0  0  0  0  0  0  0  0  0
   -1.5210   12.8730   20.7360 C   0  0  0  0  0  0  0  0  0  0  0  0
   -1.2080   13.8000   20.2390 H   0  0  0  0  0  0  0  0  0  0  0  0
   -0.9390   12.8190   21.6650 H   0  0  0  0  0  0  0  0  0  0  0  0
   -2.9700   12.9760   21.0730 C   0  0  0  0  0  0  0  0  0  0  0  0
   -3.9780   12.6560   20.2860 N   0  0  0  0  0  0  0  0  0  0  0  0
   -5.1470   12.8930   20.9700 N   0  0  0  0  0  0  0  0  0  0  0  0
   -4.8280   13.3580   22.1540 C   0  0  0  0  0  0  0  0  0  0  0  0
   -3.4750   13.4290   22.2640 N   0  0  0  0  0  0  0  0  0  0  0  0
   -5.5200   13.6450   22.9320 H   0  0  0  0  0  0  0  0  0  0  0  0
   -2.7390   13.8920   23.4090 C   0  0  0  0  0  0  0  0  0  0  0  0
   -3.2340   13.5260   24.3110 H   0  0  0  0  0  0  0  0  0  0  0  0
   -1.7160   13.5080   23.3680 H   0  0  0  0  0  0  0  0  0  0  0  0
   -2.7200   14.9840   23.3970 H   0  0  0  0  0  0  0  0  0  0  0  0
  1  2  1  0  0  0  0
  2  7  1  0  0  0  0
  2  3  2  0  0  0  0
  3  8  1  0  0  0  0
  4  9  1  0  0  0  0
  4  3  1  0  0  0  0
  5  4  2  0  0  0  0
  6  5  1  0  0  0  0
  6  1  2  0  0  0  0
 10  6  1  0  0  0  0
 11 14  1  0  0  0  0
 11  5  1  0  0  0  0
 12 11  1  0  0  0  0
 13 12  2  0  0  0  0
 15 16  1  0  0  0  0
 15 12  1  0  0  0  0
 16 21  1  0  0  0  0
 17 23  1  0  0  0  0
 17 16  2  0  0  0  0
 18 17  1  0  0  0  0
 19 18  2  0  0  0  0
 19 20  1  0  0  0  0
 20 15  2  0  0  0  0
 22 18  1  0  0  0  0
 23 27  1  6  0  0  0
 23 26  1  0  0  0  0
 23 24  1  0  0  0  0
 24 25  1  0  0  0  0
 24 28  1  0  0  0  0
 25 31  1  0  0  0  0
 26 25  1  0  0  0  0
 29 24  1  0  0  0  0
 30 25  1  0  0  0  0
 32 35  1  0  0  0  0
 32 33  1  0  0  0  0
 32 19  1  0  0  0  0
 34 32  1  0  0  0  0
 36 37  1  6  0  0  0
 36  1  1  0  0  0  0
 36 42  1  0  0  0  0
 38 40  1  0  0  0  0
 38 36  1  0  0  0  0
 39 38  1  0  0  0  0
 41 38  1  0  0  0  0
 42 45  1  0  0  0  0
 42 44  1  0  0  0  0
 43 42  1  0  0  0  0
 45 49  1  0  0  0  0
 46 47  1  0  0  0  0
 46 45  2  0  0  0  0
 47 48  2  0  0  0  0
 48 49  1  0  0  0  0
 48 50  1  0  0  0  0
 49 51  1  0  0  0  0
 51 52  1  0  0  0  0
 53 51  1  0  0  0  0
 54 51  1  0  0  0  0
M  END
>  <MODEL>
26

>  <REMARK>
 VINA RESULT:    -7.510      3.359      4.456
 INTER + INTRA:         -11.931
 INTER:                 -11.208
 INTRA:                  -0.723
 UNBOUND:                -0.909
  Name = 
  9 active torsions:
  status: ('A' for Active; 'I' for Inactive)
    1  A    between atoms: C_1  and  C_2
    2  A    between atoms: C_2  and  C_3
    3  A    between atoms: C_2  and  C_10
    4  A    between atoms: C_3  and  C_4
    5  A    between atoms: N_8  and  C_9
    6  A    between atoms: C_14  and  N_15
    7  A    between atoms: C_16  and  C_18
    8  A    between atoms: C_20  and  C_21
    9  A    between atoms: C_26  and  C_27
                            x       y       z     vdW  Elec       q    Type
                         _______ _______ _______ _____ _____    ______ ____

>  <TORSDO>
F 9

$$$$
=
 OpenBabel07192307433D

 54 57  0  0  1  0  0  0  0  0999 V2000
    3.4820    5.7450   19.0330 C   0  0  0  0  0  0  0  0  0  0  0  0
    3.2890    4.6240   19.8500 C   0  0  0  0  0  0  0  0  0  0  0  0
    2.3160    4.6360   20.8470 C   0  0  0  0  0  0  0  0  0  0  0  0
    1.5210    5.7680   21.0450 C   0  0  0  0  0  0  0  0  0  0  0  0
    1.6900    6.8950   20.2430 C   0  0  0  0  0  0  0  0  0  0  0  0
    2.6710    6.8740   19.2400 C   0  0  0  0  0  0  0  0  0  0  0  0
    3.8890    3.7260   19.7150 H   0  0  0  0  0  0  0  0  0  0  0  0
    2.1700    3.7610   21.4770 H   0  0  0  0  0  0  0  0  0  0  0  0
    0.7740    5.7350   21.8320 H   0  0  0  0  0  0  0  0  0  0  0  0
    2.8050    7.7470   18.6060 H   0  0  0  0  0  0  0  0  0  0  0  0
    0.9300    8.0690   20.3740 N   0  0  0  0  0  0  0  0  0  0  0  0
    0.9220    8.9760   21.4170 C   0  0  0  0  0  0  0  0  0  0  0  0
    1.5890    8.9370   22.4430 O   0  0  0  0  0  0  0  0  0  0  0  0
    0.2890    8.3010   19.6180 H   0  0  0  0  0  0  0  0  0  0  0  0
   -0.0350   10.1110   21.1920 C   0  0  0  0  0  0  0  0  0  0  0  0
   -0.5080   10.8480   22.2710 C   0  0  0  0  0  0  0  0  0  0  0  0
   -1.3990   11.9110   22.0610 C   0  0  0  0  0  0  0  0  0  0  0  0
   -1.7610   12.1530   20.7220 C   0  0  0  0  0  0  0  0  0  0  0  0
   -1.2510   11.3770   19.6740 C   0  0  0  0  0  0  0  0  0  0  0  0
   -0.3850   10.3510   19.8990 N   0  0  0  0  0  0  0  0  0  0  0  0
   -0.1860   10.5970   23.2790 H   0  0  0  0  0  0  0  0  0  0  0  0
   -2.4540   12.9660   20.5000 H   0  0  0  0  0  0  0  0  0  0  0  0
   -1.9630   12.7720   23.2630 C   0  0  1  0  0  0  0  0  0  0  0  0
   -2.5780   14.1490   22.9570 C   0  0  0  0  0  0  0  0  0  0  0  0
   -3.7450   13.6660   23.8110 C   0  0  0  0  0  0  0  0  0  0  0  0
   -3.2430   12.3080   23.7920 O   0  0  0  0  0  0  0  0  0  0  0  0
   -1.2350   12.8150   24.0850 H   0  0  0  0  0  0  0  0  0  0  0  0
   -2.8350   14.3260   21.9090 H   0  0  0  0  0  0  0  0  0  0  0  0
   -2.0280   15.0050   23.3550 H   0  0  0  0  0  0  0  0  0  0  0  0
   -3.7790   14.0610   24.8310 H   0  0  0  0  0  0  0  0  0  0  0  0
   -4.7300   13.7440   23.3440 H   0  0  0  0  0  0  0  0  0  0  0  0
   -1.6820   11.6990   18.2480 C   0  0  0  0  0  0  0  0  0  0  0  0
   -1.0580   12.7910   17.7210 F   0  0  0  0  0  0  0  0  0  0  0  0
   -3.0190   11.9540   18.1510 F   0  0  0  0  0  0  0  0  0  0  0  0
   -1.4360   10.6750   17.3820 F   0  0  0  0  0  0  0  0  0  0  0  0
    4.5430    5.7640   17.9410 C   0  0  2  0  0  0  0  0  0  0  0  0
    5.5260    5.8440   18.4250 H   0  0  0  0  0  0  0  0  0  0  0  0
    4.3820    7.0050   17.0540 C   0  0  0  0  0  0  0  0  0  0  0  0
    5.3580    7.4410   16.8130 H   0  0  0  0  0  0  0  0  0  0  0  0
    3.7840    7.7810   17.5440 H   0  0  0  0  0  0  0  0  0  0  0  0
    3.8930    6.7540   16.1080 H   0  0  0  0  0  0  0  0  0  0  0  0
    4.5090    4.4530   17.1270 C   0  0  0  0  0  0  0  0  0  0  0  0
    3.4990    4.2700   16.7380 H   0  0  0  0  0  0  0  0  0  0  0  0
    4.7420    3.5980   17.7740 H   0  0  0  0  0  0  0  0  0  0  0  0
    5.4650    4.4740   15.9820 C   0  0  0  0  0  0  0  0  0  0  0  0
    5.1510    4.4320   14.7030 N   0  0  0  0  0  0  0  0  0  0  0  0
    6.3160    4.4750   13.9740 N   0  0  0  0  0  0  0  0  0  0  0  0
    7.3140    4.5360   14.8220 C   0  0  0  0  0  0  0  0  0  0  0  0
    6.8290    4.5360   16.0930 N   0  0  0  0  0  0  0  0  0  0  0  0
    8.3630    4.5780   14.5690 H   0  0  0  0  0  0  0  0  0  0  0  0
    7.6100    4.5880   17.2990 C   0  0  0  0  0  0  0  0  0  0  0  0
    7.6640    3.5810   17.7210 H   0  0  0  0  0  0  0  0  0  0  0  0
    8.6170    4.9450   17.0690 H   0  0  0  0  0  0  0  0  0  0  0  0
    7.1300    5.2740   18.0000 H   0  0  0  0  0  0  0  0  0  0  0  0
  1  6  2  0  0  0  0
  1  2  1  0  0  0  0
  2  3  2  0  0  0  0
  3  4  1  0  0  0  0
  3  8  1  0  0  0  0
  4  9  1  0  0  0  0
  5 11  1  0  0  0  0
  5  4  2  0  0  0  0
  6  5  1  0  0  0  0
  7  2  1  0  0  0  0
 10  6  1  0  0  0  0
 11 12  1  0  0  0  0
 12 13  2  0  0  0  0
 14 11  1  0  0  0  0
 15 12  1  0  0  0  0
 15 16  1  0  0  0  0
 16 21  1  0  0  0  0
 17 16  2  0  0  0  0
 17 23  1  0  0  0  0
 18 17  1  0  0  0  0
 19 20  1  0  0  0  0
 19 18  2  0  0  0  0
 20 15  2  0  0  0  0
 22 18  1  0  0  0  0
 23 26  1  0  0  0  0
 23 27  1  1  0  0  0
 24 23  1  0  0  0  0
 24 29  1  0  0  0  0
 24 25  1  0  0  0  0
 25 30  1  0  0  0  0
 26 25  1  0  0  0  0
 28 24  1  0  0  0  0
 31 25  1  0  0  0  0
 32 19  1  0  0  0  0
 33 32  1  0  0  0  0
 34 32  1  0  0  0  0
 35 32  1  0  0  0  0
 36 37  1  1  0  0  0
 36  1  1  0  0  0  0
 38 40  1  0  0  0  0
 38 36  1  0  0  0  0
 39 38  1  0  0  0  0
 41 38  1  0  0  0  0
 42 44  1  0  0  0  0
 42 36  1  0  0  0  0
 43 42  1  0  0  0  0
 45 49  1  0  0  0  0
 45 42  1  0  0  0  0
 46 45  2  0  0  0  0
 47 46  1  0  0  0  0
 47 48  2  0  0  0  0
 48 49  1  0  0  0  0
 49 51  1  0  0  0  0
 50 48  1  0  0  0  0
 51 52  1  0  0  0  0
 51 54  1  0  0  0  0
 53 51  1  0  0  0  0
M  END
>  <MODEL>
27

>  <REMARK>
 VINA RESULT:    -7.480      4.417      9.693
 INTER + INTRA:         -11.887
 INTER:                 -11.008
 INTRA:                  -0.879
 UNBOUND:                -0.909
  Name = 
  9 active torsions:
  status: ('A' for Active; 'I' for Inactive)
    1  A    between atoms: C_1  and  C_2
    2  A    between atoms: C_2  and  C_3
    3  A    between atoms: C_2  and  C_10
    4  A    between atoms: C_3  and  C_4
    5  A    between atoms: N_8  and  C_9
    6  A    between atoms: C_14  and  N_15
    7  A    between atoms: C_16  and  C_18
    8  A    between atoms: C_20  and  C_21
    9  A    between atoms: C_26  and  C_27
                            x       y       z     vdW  Elec       q    Type
                         _______ _______ _______ _____ _____    ______ ____

>  <TORSDO>
F 9

$$$$
=
 OpenBabel07192307433D

 54 57  0  0  1  0  0  0  0  0999 V2000
    3.4770    5.7890   19.0840 C   0  0  0  0  0  0  0  0  0  0  0  0
    3.3070    4.7070   19.9580 C   0  0  0  0  0  0  0  0  0  0  0  0
    2.3170    4.7390   20.9380 C   0  0  0  0  0  0  0  0  0  0  0  0
    1.4800    5.8520   21.0610 C   0  0  0  0  0  0  0  0  0  0  0  0
    1.6260    6.9390   20.2020 C   0  0  0  0  0  0  0  0  0  0  0  0
    2.6240    6.8990   19.2170 C   0  0  0  0  0  0  0  0  0  0  0  0
    3.9400    3.8250   19.8820 H   0  0  0  0  0  0  0  0  0  0  0  0
    2.1890    3.8940   21.6110 H   0  0  0  0  0  0  0  0  0  0  0  0
    0.7220    5.8350   21.8360 H   0  0  0  0  0  0  0  0  0  0  0  0
    2.7400    7.7400   18.5390 H   0  0  0  0  0  0  0  0  0  0  0  0
    0.8240    8.0910   20.2560 N   0  0  0  0  0  0  0  0  0  0  0  0
    0.7810    9.0620   21.2390 C   0  0  0  0  0  0  0  0  0  0  0  0
    1.4450    9.1130   22.2660 O   0  0  0  0  0  0  0  0  0  0  0  0
    0.1780    8.2510   19.4860 H   0  0  0  0  0  0  0  0  0  0  0  0
   -0.2150   10.1460   20.9410 C   0  0  0  0  0  0  0  0  0  0  0  0
   -0.6620   10.3430   19.6400 C   0  0  0  0  0  0  0  0  0  0  0  0
   -1.5940   11.3540   19.3620 C   0  0  0  0  0  0  0  0  0  0  0  0
   -2.0160   12.1210   20.4650 C   0  0  0  0  0  0  0  0  0  0  0  0
   -1.5310   11.8750   21.7550 C   0  0  0  0  0  0  0  0  0  0  0  0
   -0.6280   10.8870   22.0040 N   0  0  0  0  0  0  0  0  0  0  0  0
   -0.2850    9.7130   18.8380 H   0  0  0  0  0  0  0  0  0  0  0  0
   -2.7380   12.9220   20.3070 H   0  0  0  0  0  0  0  0  0  0  0  0
   -2.1260   11.6140   17.8940 C   0  0  1  0  0  0  0  0  0  0  0  0
   -2.2070   10.4270   16.9200 C   0  0  0  0  0  0  0  0  0  0  0  0
   -3.6260   10.9170   16.6550 C   0  0  0  0  0  0  0  0  0  0  0  0
   -3.5700   11.8050   17.7980 O   0  0  0  0  0  0  0  0  0  0  0  0
   -1.6240   12.4850   17.4480 H   0  0  0  0  0  0  0  0  0  0  0  0
   -2.1560    9.4370   17.3810 H   0  0  0  0  0  0  0  0  0  0  0  0
   -1.5280   10.4750   16.0650 H   0  0  0  0  0  0  0  0  0  0  0  0
   -3.7670   11.4760   15.7250 H   0  0  0  0  0  0  0  0  0  0  0  0
   -4.4090   10.1620   16.7620 H   0  0  0  0  0  0  0  0  0  0  0  0
   -2.0360   12.7410   22.9030 C   0  0  0  0  0  0  0  0  0  0  0  0
   -1.0390   13.2990   23.6480 F   0  0  0  0  0  0  0  0  0  0  0  0
   -2.8090   12.0430   23.7850 F   0  0  0  0  0  0  0  0  0  0  0  0
   -2.8070   13.7810   22.4760 F   0  0  0  0  0  0  0  0  0  0  0  0
    4.5560    5.7850   18.0100 C   0  0  2  0  0  0  0  0  0  0  0  0
    5.5310    5.8750   18.5090 H   0  0  0  0  0  0  0  0  0  0  0  0
    4.4120    7.0090   17.0960 C   0  0  0  0  0  0  0  0  0  0  0  0
    3.7780    6.7780   16.2330 H   0  0  0  0  0  0  0  0  0  0  0  0
    5.3810    7.3500   16.7160 H   0  0  0  0  0  0  0  0  0  0  0  0
    3.9490    7.8460   17.6280 H   0  0  0  0  0  0  0  0  0  0  0  0
    4.5340    4.4590   17.2210 C   0  0  0  0  0  0  0  0  0  0  0  0
    3.5230    4.2520   16.8490 H   0  0  0  0  0  0  0  0  0  0  0  0
    4.7900    3.6210   17.8810 H   0  0  0  0  0  0  0  0  0  0  0  0
    5.4750    4.4740   16.0640 C   0  0  0  0  0  0  0  0  0  0  0  0
    5.1450    4.4310   14.7890 N   0  0  0  0  0  0  0  0  0  0  0  0
    6.3000    4.4690   14.0450 N   0  0  0  0  0  0  0  0  0  0  0  0
    7.3090    4.5270   14.8800 C   0  0  0  0  0  0  0  0  0  0  0  0
    6.8410    4.5310   16.1570 N   0  0  0  0  0  0  0  0  0  0  0  0
    8.3550    4.5650   14.6130 H   0  0  0  0  0  0  0  0  0  0  0  0
    7.6380    4.5820   17.3530 C   0  0  0  0  0  0  0  0  0  0  0  0
    7.4910    5.5560   17.8270 H   0  0  0  0  0  0  0  0  0  0  0  0
    7.3230    3.7890   18.0370 H   0  0  0  0  0  0  0  0  0  0  0  0
    8.6860    4.4380   17.0850 H   0  0  0  0  0  0  0  0  0  0  0  0
  1  6  2  0  0  0  0
  1  2  1  0  0  0  0
  2  3  2  0  0  0  0
  3  4  1  0  0  0  0
  3  8  1  0  0  0  0
  4  9  1  0  0  0  0
  5 11  1  0  0  0  0
  5  4  2  0  0  0  0
  6  5  1  0  0  0  0
  7  2  1  0  0  0  0
 10  6  1  0  0  0  0
 11 12  1  0  0  0  0
 12 13  2  0  0  0  0
 14 11  1  0  0  0  0
 15 12  1  0  0  0  0
 15 20  1  0  0  0  0
 16 15  2  0  0  0  0
 17 16  1  0  0  0  0
 17 18  2  0  0  0  0
 18 19  1  0  0  0  0
 19 20  2  0  0  0  0
 19 32  1  0  0  0  0
 21 16  1  0  0  0  0
 22 18  1  0  0  0  0
 23 27  1  6  0  0  0
 23 17  1  0  0  0  0
 24 28  1  0  0  0  0
 24 23  1  0  0  0  0
 25 31  1  0  0  0  0
 25 24  1  0  0  0  0
 25 26  1  0  0  0  0
 26 23  1  0  0  0  0
 29 24  1  0  0  0  0
 30 25  1  0  0  0  0
 32 33  1  0  0  0  0
 32 34  1  0  0  0  0
 35 32  1  0  0  0  0
 36 37  1  1  0  0  0
 36  1  1  0  0  0  0
 38 41  1  0  0  0  0
 38 36  1  0  0  0  0
 39 38  1  0  0  0  0
 40 38  1  0  0  0  0
 42 44  1  0  0  0  0
 42 36  1  0  0  0  0
 43 42  1  0  0  0  0
 45 49  1  0  0  0  0
 45 42  1  0  0  0  0
 46 45  2  0  0  0  0
 47 46  1  0  0  0  0
 47 48  2  0  0  0  0
 48 49  1  0  0  0  0
 49 51  1  0  0  0  0
 50 48  1  0  0  0  0
 51 52  1  0  0  0  0
 51 53  1  0  0  0  0
 54 51  1  0  0  0  0
M  END
>  <MODEL>
28

>  <REMARK>
 VINA RESULT:    -7.480      4.404      9.254
 INTER + INTRA:         -11.886
 INTER:                 -10.987
 INTRA:                  -0.899
 UNBOUND:                -0.909
  Name = 
  9 active torsions:
  status: ('A' for Active; 'I' for Inactive)
    1  A    between atoms: C_1  and  C_2
    2  A    between atoms: C_2  and  C_3
    3  A    between atoms: C_2  and  C_10
    4  A    between atoms: C_3  and  C_4
    5  A    between atoms: N_8  and  C_9
    6  A    between atoms: C_14  and  N_15
    7  A    between atoms: C_16  and  C_18
    8  A    between atoms: C_20  and  C_21
    9  A    between atoms: C_26  and  C_27
                            x       y       z     vdW  Elec       q    Type
                         _______ _______ _______ _____ _____    ______ ____

>  <TORSDO>
F 9

$$$$
=
 OpenBabel07192307433D

 54 57  0  0  1  0  0  0  0  0999 V2000
   -0.5370   10.7660   19.6760 C   0  0  0  0  0  0  0  0  0  0  0  0
   -0.3840   11.1370   21.0190 C   0  0  0  0  0  0  0  0  0  0  0  0
    0.4720   10.4230   21.8550 C   0  0  0  0  0  0  0  0  0  0  0  0
    1.1880    9.3280   21.3640 C   0  0  0  0  0  0  0  0  0  0  0  0
    1.0560    8.9420   20.0320 C   0  0  0  0  0  0  0  0  0  0  0  0
    0.1940    9.6660   19.1960 C   0  0  0  0  0  0  0  0  0  0  0  0
   -0.9250   11.9880   21.4270 H   0  0  0  0  0  0  0  0  0  0  0  0
    0.5880   10.7170   22.8950 H   0  0  0  0  0  0  0  0  0  0  0  0
    1.8450    8.8010   22.0490 H   0  0  0  0  0  0  0  0  0  0  0  0
    0.0900    9.3750   18.1530 H   0  0  0  0  0  0  0  0  0  0  0  0
    1.7440    7.8580   19.4610 N   0  0  0  0  0  0  0  0  0  0  0  0
    1.9640    6.6020   19.9940 C   0  0  0  0  0  0  0  0  0  0  0  0
    1.5930    6.1790   21.0820 O   0  0  0  0  0  0  0  0  0  0  0  0
    2.1470    7.9920   18.5350 H   0  0  0  0  0  0  0  0  0  0  0  0
    2.7490    5.7100   19.0760 C   0  0  0  0  0  0  0  0  0  0  0  0
    3.7130    6.2520   18.2350 C   0  0  0  0  0  0  0  0  0  0  0  0
    4.4500    5.4180   17.3800 C   0  0  0  0  0  0  0  0  0  0  0  0
    4.1390    4.0460   17.4420 C   0  0  0  0  0  0  0  0  0  0  0  0
    3.1570    3.5580   18.3120 C   0  0  0  0  0  0  0  0  0  0  0  0
    2.4550    4.3830   19.1350 N   0  0  0  0  0  0  0  0  0  0  0  0
    3.8930    7.3250   18.2400 H   0  0  0  0  0  0  0  0  0  0  0  0
    4.6780    3.3520   16.7970 H   0  0  0  0  0  0  0  0  0  0  0  0
    5.5530    5.9960   16.4030 C   0  0  1  0  0  0  0  0  0  0  0  0
    6.9950    5.4780   16.5340 C   0  0  0  0  0  0  0  0  0  0  0  0
    6.9160    5.2770   15.0250 C   0  0  0  0  0  0  0  0  0  0  0  0
    5.4820    5.4820   15.0390 O   0  0  0  0  0  0  0  0  0  0  0  0
    5.5060    7.0940   16.3710 H   0  0  0  0  0  0  0  0  0  0  0  0
    7.1120    4.5510   17.1020 H   0  0  0  0  0  0  0  0  0  0  0  0
    7.7280    6.2150   16.8700 H   0  0  0  0  0  0  0  0  0  0  0  0
    7.4190    6.0370   14.4200 H   0  0  0  0  0  0  0  0  0  0  0  0
    7.1820    4.2780   14.6710 H   0  0  0  0  0  0  0  0  0  0  0  0
    2.8760    2.0600   18.3300 C   0  0  0  0  0  0  0  0  0  0  0  0
    2.1940    1.6170   17.2350 F   0  0  0  0  0  0  0  0  0  0  0  0
    2.1310    1.6790   19.4080 F   0  0  0  0  0  0  0  0  0  0  0  0
    4.0160    1.3130   18.3850 F   0  0  0  0  0  0  0  0  0  0  0  0
   -1.4720   11.5220   18.7420 C   0  0  2  0  0  0  0  0  0  0  0  0
   -2.1580   12.1200   19.3590 H   0  0  0  0  0  0  0  0  0  0  0  0
   -2.3380   10.5440   17.9370 C   0  0  0  0  0  0  0  0  0  0  0  0
   -1.7140    9.8220   17.4000 H   0  0  0  0  0  0  0  0  0  0  0  0
   -2.9580   11.0620   17.1980 H   0  0  0  0  0  0  0  0  0  0  0  0
   -3.0050    9.9760   18.5930 H   0  0  0  0  0  0  0  0  0  0  0  0
   -0.6750   12.4820   17.8340 C   0  0  0  0  0  0  0  0  0  0  0  0
   -1.3440   12.9750   17.1170 H   0  0  0  0  0  0  0  0  0  0  0  0
    0.0500   11.9200   17.2310 H   0  0  0  0  0  0  0  0  0  0  0  0
    0.0460   13.5290   18.6130 C   0  0  0  0  0  0  0  0  0  0  0  0
   -0.5040   14.5350   19.2640 N   0  0  0  0  0  0  0  0  0  0  0  0
    0.5000   15.2660   19.8520 N   0  0  0  0  0  0  0  0  0  0  0  0
    1.6400   14.6960   19.5430 C   0  0  0  0  0  0  0  0  0  0  0  0
    1.4060   13.6050   18.7670 N   0  0  0  0  0  0  0  0  0  0  0  0
    2.6220   15.0290   19.8490 H   0  0  0  0  0  0  0  0  0  0  0  0
    2.4000   12.7210   18.2220 C   0  0  0  0  0  0  0  0  0  0  0  0
    2.9570   13.2580   17.4500 H   0  0  0  0  0  0  0  0  0  0  0  0
    3.0840   12.4040   19.0150 H   0  0  0  0  0  0  0  0  0  0  0  0
    1.9010   11.8460   17.7990 H   0  0  0  0  0  0  0  0  0  0  0  0
  1  2  1  0  0  0  0
  2  7  1  0  0  0  0
  2  3  2  0  0  0  0
  3  8  1  0  0  0  0
  4  3  1  0  0  0  0
  4  9  1  0  0  0  0
  5  4  2  0  0  0  0
  6  1  2  0  0  0  0
  6  5  1  0  0  0  0
 10  6  1  0  0  0  0
 11 12  1  0  0  0  0
 11  5  1  0  0  0  0
 12 13  2  0  0  0  0
 14 11  1  0  0  0  0
 15 20  1  0  0  0  0
 15 12  1  0  0  0  0
 16 21  1  0  0  0  0
 16 15  2  0  0  0  0
 17 18  2  0  0  0  0
 17 16  1  0  0  0  0
 18 19  1  0  0  0  0
 19 32  1  0  0  0  0
 19 20  2  0  0  0  0
 22 18  1  0  0  0  0
 23 27  1  1  0  0  0
 23 24  1  0  0  0  0
 23 17  1  0  0  0  0
 24 29  1  0  0  0  0
 24 28  1  0  0  0  0
 25 26  1  0  0  0  0
 25 24  1  0  0  0  0
 26 23  1  0  0  0  0
 30 25  1  0  0  0  0
 31 25  1  0  0  0  0
 32 35  1  0  0  0  0
 32 34  1  0  0  0  0
 33 32  1  0  0  0  0
 36 37  1  1  0  0  0
 36  1  1  0  0  0  0
 38 41  1  0  0  0  0
 38 36  1  0  0  0  0
 39 38  1  0  0  0  0
 40 38  1  0  0  0  0
 42 45  1  0  0  0  0
 42 36  1  0  0  0  0
 43 42  1  0  0  0  0
 44 42  1  0  0  0  0
 45 49  1  0  0  0  0
 45 46  2  0  0  0  0
 46 47  1  0  0  0  0
 48 50  1  0  0  0  0
 48 47  2  0  0  0  0
 49 48  1  0  0  0  0
 51 49  1  0  0  0  0
 51 53  1  0  0  0  0
 52 51  1  0  0  0  0
 54 51  1  0  0  0  0
M  END
>  <MODEL>
29

>  <REMARK>
 VINA RESULT:    -7.395      2.412      3.393
 INTER + INTRA:         -11.762
 INTER:                 -10.764
 INTRA:                  -0.998
 UNBOUND:                -0.909
  Name = 
  9 active torsions:
  status: ('A' for Active; 'I' for Inactive)
    1  A    between atoms: C_1  and  C_2
    2  A    between atoms: C_2  and  C_3
    3  A    between atoms: C_2  and  C_10
    4  A    between atoms: C_3  and  C_4
    5  A    between atoms: N_8  and  C_9
    6  A    between atoms: C_14  and  N_15
    7  A    between atoms: C_16  and  C_18
    8  A    between atoms: C_20  and  C_21
    9  A    between atoms: C_26  and  C_27
                            x       y       z     vdW  Elec       q    Type
                         _______ _______ _______ _____ _____    ______ ____

>  <TORSDO>
F 9

$$$$
=
 OpenBabel07192307433D

 54 57  0  0  1  0  0  0  0  0999 V2000
    3.3500    5.2480   18.7070 C   0  0  0  0  0  0  0  0  0  0  0  0
    2.8780    4.2240   19.5380 C   0  0  0  0  0  0  0  0  0  0  0  0
    1.9910    4.5090   20.5740 C   0  0  0  0  0  0  0  0  0  0  0  0
    1.5610    5.8200   20.7970 C   0  0  0  0  0  0  0  0  0  0  0  0
    2.0130    6.8550   19.9820 C   0  0  0  0  0  0  0  0  0  0  0  0
    2.9050    6.5610   18.9400 C   0  0  0  0  0  0  0  0  0  0  0  0
    3.1900    3.1930   19.3840 H   0  0  0  0  0  0  0  0  0  0  0  0
    1.6260    3.7080   21.2140 H   0  0  0  0  0  0  0  0  0  0  0  0
    0.8690    5.9970   21.6140 H   0  0  0  0  0  0  0  0  0  0  0  0
    3.2580    7.3630   18.2950 H   0  0  0  0  0  0  0  0  0  0  0  0
    1.6270    8.1970   20.1360 N   0  0  0  0  0  0  0  0  0  0  0  0
    1.2960    9.1150   19.1570 C   0  0  0  0  0  0  0  0  0  0  0  0
    1.2690    8.9350   17.9460 O   0  0  0  0  0  0  0  0  0  0  0  0
    1.5830    8.5680   21.0840 H   0  0  0  0  0  0  0  0  0  0  0  0
    0.9380   10.4600   19.7190 C   0  0  0  0  0  0  0  0  0  0  0  0
    1.4100   11.6170   19.1110 C   0  0  0  0  0  0  0  0  0  0  0  0
    1.0720   12.8750   19.6330 C   0  0  0  0  0  0  0  0  0  0  0  0
    0.2530   12.8640   20.7790 C   0  0  0  0  0  0  0  0  0  0  0  0
   -0.1930   11.6650   21.3470 C   0  0  0  0  0  0  0  0  0  0  0  0
    0.1440   10.4550   20.8240 N   0  0  0  0  0  0  0  0  0  0  0  0
    2.0440   11.5440   18.2300 H   0  0  0  0  0  0  0  0  0  0  0  0
   -0.0380   13.8140   21.2290 H   0  0  0  0  0  0  0  0  0  0  0  0
    1.5920   14.2160   18.9740 C   0  0  1  0  0  0  0  0  0  0  0  0
    2.6370   15.0520   19.7310 C   0  0  0  0  0  0  0  0  0  0  0  0
    3.3960   15.0540   18.4090 C   0  0  0  0  0  0  0  0  0  0  0  0
    2.5310   14.0240   17.8720 O   0  0  0  0  0  0  0  0  0  0  0  0
    0.7490   14.8250   18.6180 H   0  0  0  0  0  0  0  0  0  0  0  0
    3.1550   14.5340   20.5430 H   0  0  0  0  0  0  0  0  0  0  0  0
    2.2930   16.0310   20.0750 H   0  0  0  0  0  0  0  0  0  0  0  0
    3.3240   15.9760   17.8250 H   0  0  0  0  0  0  0  0  0  0  0  0
    4.4360   14.7260   18.4670 H   0  0  0  0  0  0  0  0  0  0  0  0
   -1.0810   11.7290   22.5850 C   0  0  0  0  0  0  0  0  0  0  0  0
   -0.8400   12.8130   23.3760 F   0  0  0  0  0  0  0  0  0  0  0  0
   -0.9320   10.6400   23.3930 F   0  0  0  0  0  0  0  0  0  0  0  0
   -2.4090   11.7820   22.2760 F   0  0  0  0  0  0  0  0  0  0  0  0
    4.3260    4.9690   17.5720 C   0  0  2  0  0  0  0  0  0  0  0  0
    4.3330    5.8440   16.9070 H   0  0  0  0  0  0  0  0  0  0  0  0
    3.8500    3.7770   16.7310 C   0  0  0  0  0  0  0  0  0  0  0  0
    4.4090    2.8710   16.9880 H   0  0  0  0  0  0  0  0  0  0  0  0
    3.9820    3.9570   15.6590 H   0  0  0  0  0  0  0  0  0  0  0  0
    2.7900    3.5690   16.9070 H   0  0  0  0  0  0  0  0  0  0  0  0
    5.7540    4.7650   18.1200 C   0  0  0  0  0  0  0  0  0  0  0  0
    6.2570    3.9490   17.5860 H   0  0  0  0  0  0  0  0  0  0  0  0
    5.7160    4.4560   19.1730 H   0  0  0  0  0  0  0  0  0  0  0  0
    6.5860    5.9970   18.0040 C   0  0  0  0  0  0  0  0  0  0  0  0
    6.4100    6.9790   17.1420 N   0  0  0  0  0  0  0  0  0  0  0  0
    7.3810    7.9250   17.3640 N   0  0  0  0  0  0  0  0  0  0  0  0
    8.1320    7.4990   18.3510 C   0  0  0  0  0  0  0  0  0  0  0  0
    7.6730    6.2940   18.7830 N   0  0  0  0  0  0  0  0  0  0  0  0
    8.9880    8.0120   18.7680 H   0  0  0  0  0  0  0  0  0  0  0  0
    8.2330    5.5030   19.8450 C   0  0  0  0  0  0  0  0  0  0  0  0
    7.7170    5.7550   20.7750 H   0  0  0  0  0  0  0  0  0  0  0  0
    8.0950    4.4410   19.6240 H   0  0  0  0  0  0  0  0  0  0  0  0
    9.3000    5.7240   19.9250 H   0  0  0  0  0  0  0  0  0  0  0  0
  1  6  2  0  0  0  0
  1  2  1  0  0  0  0
  2  3  2  0  0  0  0
  3  4  1  0  0  0  0
  3  8  1  0  0  0  0
  4  9  1  0  0  0  0
  5 11  1  0  0  0  0
  5  4  2  0  0  0  0
  6  5  1  0  0  0  0
  7  2  1  0  0  0  0
 10  6  1  0  0  0  0
 11 14  1  0  0  0  0
 12 15  1  0  0  0  0
 12 11  1  0  0  0  0
 13 12  2  0  0  0  0
 15 20  1  0  0  0  0
 16 17  1  0  0  0  0
 16 15  2  0  0  0  0
 17 18  2  0  0  0  0
 18 22  1  0  0  0  0
 18 19  1  0  0  0  0
 19 32  1  0  0  0  0
 20 19  2  0  0  0  0
 21 16  1  0  0  0  0
 23 27  1  6  0  0  0
 23 17  1  0  0  0  0
 23 24  1  0  0  0  0
 24 29  1  0  0  0  0
 24 28  1  0  0  0  0
 25 31  1  0  0  0  0
 25 24  1  0  0  0  0
 26 25  1  0  0  0  0
 26 23  1  0  0  0  0
 30 25  1  0  0  0  0
 32 33  1  0  0  0  0
 32 34  1  0  0  0  0
 35 32  1  0  0  0  0
 36 37  1  6  0  0  0
 36 42  1  0  0  0  0
 36  1  1  0  0  0  0
 38 41  1  0  0  0  0
 38 39  1  0  0  0  0
 38 36  1  0  0  0  0
 40 38  1  0  0  0  0
 42 44  1  0  0  0  0
 43 42  1  0  0  0  0
 45 42  1  0  0  0  0
 45 49  1  0  0  0  0
 46 47  1  0  0  0  0
 46 45  2  0  0  0  0
 47 48  2  0  0  0  0
 48 50  1  0  0  0  0
 48 49  1  0  0  0  0
 49 51  1  0  0  0  0
 51 54  1  0  0  0  0
 51 52  1  0  0  0  0
 53 51  1  0  0  0  0
M  END
>  <MODEL>
30

>  <REMARK>
 VINA RESULT:    -7.325      4.226      9.030
 INTER + INTRA:         -11.660
 INTER:                 -10.751
 INTRA:                  -0.909
 UNBOUND:                -0.909
  Name = 
  9 active torsions:
  status: ('A' for Active; 'I' for Inactive)
    1  A    between atoms: C_1  and  C_2
    2  A    between atoms: C_2  and  C_3
    3  A    between atoms: C_2  and  C_10
    4  A    between atoms: C_3  and  C_4
    5  A    between atoms: N_8  and  C_9
    6  A    between atoms: C_14  and  N_15
    7  A    between atoms: C_16  and  C_18
    8  A    between atoms: C_20  and  C_21
    9  A    between atoms: C_26  and  C_27
                            x       y       z     vdW  Elec       q    Type
                         _______ _______ _______ _____ _____    ______ ____

>  <TORSDO>
F 9

$$$$
=
 OpenBabel07192307433D

 54 57  0  0  1  0  0  0  0  0999 V2000
   -0.6720   11.8380   20.7680 C   0  0  0  0  0  0  0  0  0  0  0  0
   -1.6670   12.1630   19.8370 C   0  0  0  0  0  0  0  0  0  0  0  0
   -1.8130   11.4150   18.6700 C   0  0  0  0  0  0  0  0  0  0  0  0
   -0.9680   10.3310   18.4150 C   0  0  0  0  0  0  0  0  0  0  0  0
    0.0260    9.9850   19.3270 C   0  0  0  0  0  0  0  0  0  0  0  0
    0.1660   10.7420   20.5000 C   0  0  0  0  0  0  0  0  0  0  0  0
   -2.3430   12.9980   20.0120 H   0  0  0  0  0  0  0  0  0  0  0  0
   -2.5890   11.6710   17.9530 H   0  0  0  0  0  0  0  0  0  0  0  0
   -1.1180    9.7750   17.4950 H   0  0  0  0  0  0  0  0  0  0  0  0
    0.9360   10.4750   21.2200 H   0  0  0  0  0  0  0  0  0  0  0  0
    0.9120    8.9090   19.1480 N   0  0  0  0  0  0  0  0  0  0  0  0
    1.9860    8.8150   18.2840 C   0  0  0  0  0  0  0  0  0  0  0  0
    2.3870    9.6650   17.4980 O   0  0  0  0  0  0  0  0  0  0  0  0
    0.7590    8.0760   19.7120 H   0  0  0  0  0  0  0  0  0  0  0  0
    2.6950    7.4950   18.3790 C   0  0  0  0  0  0  0  0  0  0  0  0
    2.3420    6.5850   19.3680 C   0  0  0  0  0  0  0  0  0  0  0  0
    3.0020    5.3500   19.4550 C   0  0  0  0  0  0  0  0  0  0  0  0
    4.0120    5.1240   18.5000 C   0  0  0  0  0  0  0  0  0  0  0  0
    4.3230    6.0800   17.5250 C   0  0  0  0  0  0  0  0  0  0  0  0
    3.6690    7.2710   17.4560 N   0  0  0  0  0  0  0  0  0  0  0  0
    1.5530    6.8330   20.0750 H   0  0  0  0  0  0  0  0  0  0  0  0
    4.5600    4.1820   18.5230 H   0  0  0  0  0  0  0  0  0  0  0  0
    2.6330    4.2870   20.5680 C   0  0  1  0  0  0  0  0  0  0  0  0
    1.1740    3.8160   20.6810 C   0  0  0  0  0  0  0  0  0  0  0  0
    1.7690    2.4120   20.6790 C   0  0  0  0  0  0  0  0  0  0  0  0
    3.0600    2.9230   20.2680 O   0  0  0  0  0  0  0  0  0  0  0  0
    3.0520    4.5830   21.5410 H   0  0  0  0  0  0  0  0  0  0  0  0
    0.5410    4.0340   19.8160 H   0  0  0  0  0  0  0  0  0  0  0  0
    0.6590    4.1050   21.6010 H   0  0  0  0  0  0  0  0  0  0  0  0
    1.8290    1.9230   21.6560 H   0  0  0  0  0  0  0  0  0  0  0  0
    1.3470    1.7270   19.9410 H   0  0  0  0  0  0  0  0  0  0  0  0
    5.4250    5.7660   16.5200 C   0  0  0  0  0  0  0  0  0  0  0  0
    5.7900    4.4530   16.5000 F   0  0  0  0  0  0  0  0  0  0  0  0
    6.5710    6.4660   16.7630 F   0  0  0  0  0  0  0  0  0  0  0  0
    5.0690    6.0730   15.2390 F   0  0  0  0  0  0  0  0  0  0  0  0
   -0.4840   12.6430   22.0470 C   0  0  2  0  0  0  0  0  0  0  0  0
    0.4740   12.3450   22.4970 H   0  0  0  0  0  0  0  0  0  0  0  0
   -1.5770   12.2990   23.0670 C   0  0  0  0  0  0  0  0  0  0  0  0
   -1.2770   11.4480   23.6890 H   0  0  0  0  0  0  0  0  0  0  0  0
   -2.5220   12.0360   22.5780 H   0  0  0  0  0  0  0  0  0  0  0  0
   -1.7710   13.1420   23.7370 H   0  0  0  0  0  0  0  0  0  0  0  0
   -0.4260   14.1530   21.7370 C   0  0  0  0  0  0  0  0  0  0  0  0
   -0.6520   14.7380   22.6370 H   0  0  0  0  0  0  0  0  0  0  0  0
   -1.1970   14.4190   21.0030 H   0  0  0  0  0  0  0  0  0  0  0  0
    0.9080   14.5720   21.2170 C   0  0  0  0  0  0  0  0  0  0  0  0
    2.0320   14.6240   21.9030 N   0  0  0  0  0  0  0  0  0  0  0  0
    3.0290   15.0550   21.0610 N   0  0  0  0  0  0  0  0  0  0  0  0
    2.4920   15.2630   19.8830 C   0  0  0  0  0  0  0  0  0  0  0  0
    1.1640   14.9760   19.9320 N   0  0  0  0  0  0  0  0  0  0  0  0
    3.0090   15.6100   19.0000 H   0  0  0  0  0  0  0  0  0  0  0  0
    0.2300   15.0830   18.8440 C   0  0  0  0  0  0  0  0  0  0  0  0
   -0.5710   15.7640   19.1400 H   0  0  0  0  0  0  0  0  0  0  0  0
    0.7410   15.4780   17.9610 H   0  0  0  0  0  0  0  0  0  0  0  0
   -0.1680   14.0910   18.6220 H   0  0  0  0  0  0  0  0  0  0  0  0
  1 36  1  0  0  0  0
  2  7  1  0  0  0  0
  2  1  2  0  0  0  0
  3  2  1  0  0  0  0
  4  3  2  0  0  0  0
  4  5  1  0  0  0  0
  5  6  2  0  0  0  0
  6  1  1  0  0  0  0
  6 10  1  0  0  0  0
  8  3  1  0  0  0  0
  9  4  1  0  0  0  0
 11  5  1  0  0  0  0
 11 14  1  0  0  0  0
 12 15  1  0  0  0  0
 12 11  1  0  0  0  0
 13 12  2  0  0  0  0
 15 16  1  0  0  0  0
 16 17  2  0  0  0  0
 16 21  1  0  0  0  0
 17 23  1  0  0  0  0
 18 22  1  0  0  0  0
 18 17  1  0  0  0  0
 19 18  2  0  0  0  0
 20 19  1  0  0  0  0
 20 15  2  0  0  0  0
 23 24  1  0  0  0  0
 23 27  1  1  0  0  0
 24 29  1  0  0  0  0
 25 24  1  0  0  0  0
 25 30  1  0  0  0  0
 26 23  1  0  0  0  0
 26 25  1  0  0  0  0
 28 24  1  0  0  0  0
 31 25  1  0  0  0  0
 32 34  1  0  0  0  0
 32 19  1  0  0  0  0
 33 32  1  0  0  0  0
 35 32  1  0  0  0  0
 36 37  1  1  0  0  0
 36 38  1  0  0  0  0
 38 39  1  0  0  0  0
 38 41  1  0  0  0  0
 40 38  1  0  0  0  0
 42 36  1  0  0  0  0
 42 43  1  0  0  0  0
 44 42  1  0  0  0  0
 45 42  1  0  0  0  0
 45 46  2  0  0  0  0
 47 46  1  0  0  0  0
 48 49  1  0  0  0  0
 48 47  2  0  0  0  0
 49 45  1  0  0  0  0
 50 48  1  0  0  0  0
 51 52  1  0  0  0  0
 51 49  1  0  0  0  0
 53 51  1  0  0  0  0
 54 51  1  0  0  0  0
M  END
>  <MODEL>
31

>  <REMARK>
 VINA RESULT:    -7.318      3.509      5.186
 INTER + INTRA:         -11.649
 INTER:                 -10.377
 INTRA:                  -1.272
 UNBOUND:                -0.909
  Name = 
  9 active torsions:
  status: ('A' for Active; 'I' for Inactive)
    1  A    between atoms: C_1  and  C_2
    2  A    between atoms: C_2  and  C_3
    3  A    between atoms: C_2  and  C_10
    4  A    between atoms: C_3  and  C_4
    5  A    between atoms: N_8  and  C_9
    6  A    between atoms: C_14  and  N_15
    7  A    between atoms: C_16  and  C_18
    8  A    between atoms: C_20  and  C_21
    9  A    between atoms: C_26  and  C_27
                            x       y       z     vdW  Elec       q    Type
                         _______ _______ _______ _____ _____    ______ ____

>  <TORSDO>
F 9

$$$$
=
 OpenBabel07192307433D

 54 57  0  0  1  0  0  0  0  0999 V2000
    2.7450    5.1040   18.6780 C   0  0  0  0  0  0  0  0  0  0  0  0
    2.4920    4.1550   19.6770 C   0  0  0  0  0  0  0  0  0  0  0  0
    1.9320    4.5410   20.8930 C   0  0  0  0  0  0  0  0  0  0  0  0
    1.6150    5.8820   21.1300 C   0  0  0  0  0  0  0  0  0  0  0  0
    1.8530    6.8440   20.1520 C   0  0  0  0  0  0  0  0  0  0  0  0
    2.4170    6.4470   18.9300 C   0  0  0  0  0  0  0  0  0  0  0  0
    2.7230    3.1030   19.5170 H   0  0  0  0  0  0  0  0  0  0  0  0
    1.7360    3.7990   21.6630 H   0  0  0  0  0  0  0  0  0  0  0  0
    1.1790    6.1390   22.0900 H   0  0  0  0  0  0  0  0  0  0  0  0
    2.6000    7.1910   18.1580 H   0  0  0  0  0  0  0  0  0  0  0  0
    1.5600    8.2090   20.3100 N   0  0  0  0  0  0  0  0  0  0  0  0
    0.4770    8.7880   20.9430 C   0  0  0  0  0  0  0  0  0  0  0  0
   -0.4500    8.2180   21.5050 O   0  0  0  0  0  0  0  0  0  0  0  0
    2.2130    8.8800   19.9080 H   0  0  0  0  0  0  0  0  0  0  0  0
    0.5130   10.2880   20.9010 C   0  0  0  0  0  0  0  0  0  0  0  0
   -0.1980   11.0290   21.8380 C   0  0  0  0  0  0  0  0  0  0  0  0
   -0.1630   12.4310   21.8000 C   0  0  0  0  0  0  0  0  0  0  0  0
    0.6180   12.9980   20.7740 C   0  0  0  0  0  0  0  0  0  0  0  0
    1.3140   12.2000   19.8590 C   0  0  0  0  0  0  0  0  0  0  0  0
    1.2680   10.8410   19.9130 N   0  0  0  0  0  0  0  0  0  0  0  0
   -0.7840   10.5180   22.5990 H   0  0  0  0  0  0  0  0  0  0  0  0
    0.6790   14.0850   20.6960 H   0  0  0  0  0  0  0  0  0  0  0  0
   -0.9610   13.3110   22.8460 C   0  0  1  0  0  0  0  0  0  0  0  0
   -1.7580   14.5210   22.3330 C   0  0  0  0  0  0  0  0  0  0  0  0
   -2.9030   13.9450   23.1570 C   0  0  0  0  0  0  0  0  0  0  0  0
   -2.1900   12.6980   23.3390 O   0  0  0  0  0  0  0  0  0  0  0  0
   -0.3240   13.5660   23.7050 H   0  0  0  0  0  0  0  0  0  0  0  0
   -1.9480   14.5370   21.2550 H   0  0  0  0  0  0  0  0  0  0  0  0
   -1.3900   15.4970   22.6590 H   0  0  0  0  0  0  0  0  0  0  0  0
   -3.0890   14.4380   24.1160 H   0  0  0  0  0  0  0  0  0  0  0  0
   -3.8430   13.8040   22.6190 H   0  0  0  0  0  0  0  0  0  0  0  0
    2.1430   12.8830   18.7770 C   0  0  0  0  0  0  0  0  0  0  0  0
    1.4330   13.7670   18.0190 F   0  0  0  0  0  0  0  0  0  0  0  0
    2.6870   11.9950   17.8960 F   0  0  0  0  0  0  0  0  0  0  0  0
    3.1920   13.5890   19.2870 F   0  0  0  0  0  0  0  0  0  0  0  0
    3.3640    4.7120   17.3430 C   0  0  2  0  0  0  0  0  0  0  0  0
    2.5730    4.7390   16.5810 H   0  0  0  0  0  0  0  0  0  0  0  0
    3.8830    3.2690   17.3920 C   0  0  0  0  0  0  0  0  0  0  0  0
    4.0440    2.9480   18.4270 H   0  0  0  0  0  0  0  0  0  0  0  0
    4.8340    3.1590   16.8590 H   0  0  0  0  0  0  0  0  0  0  0  0
    3.1650    2.5760   16.9420 H   0  0  0  0  0  0  0  0  0  0  0  0
    4.4630    5.7160   16.9370 C   0  0  0  0  0  0  0  0  0  0  0  0
    4.1850    6.7320   17.2420 H   0  0  0  0  0  0  0  0  0  0  0  0
    4.5640    5.7460   15.8450 H   0  0  0  0  0  0  0  0  0  0  0  0
    5.7860    5.3810   17.5410 C   0  0  0  0  0  0  0  0  0  0  0  0
    6.1460    5.5840   18.7920 N   0  0  0  0  0  0  0  0  0  0  0  0
    7.4360    5.1350   18.9450 N   0  0  0  0  0  0  0  0  0  0  0  0
    7.8370    4.6750   17.7850 C   0  0  0  0  0  0  0  0  0  0  0  0
    6.8370    4.8100   16.8730 N   0  0  0  0  0  0  0  0  0  0  0  0
    8.8080    4.2530   17.5680 H   0  0  0  0  0  0  0  0  0  0  0  0
    6.8930    4.4270   15.4880 C   0  0  0  0  0  0  0  0  0  0  0  0
    5.9190    4.0240   15.2000 H   0  0  0  0  0  0  0  0  0  0  0  0
    7.1270    5.3010   14.8750 H   0  0  0  0  0  0  0  0  0  0  0  0
    7.6740    3.6730   15.3620 H   0  0  0  0  0  0  0  0  0  0  0  0
  1  6  2  0  0  0  0
  1  2  1  0  0  0  0
  2  3  2  0  0  0  0
  3  4  1  0  0  0  0
  3  8  1  0  0  0  0
  4  9  1  0  0  0  0
  5 11  1  0  0  0  0
  5  4  2  0  0  0  0
  6  5  1  0  0  0  0
  7  2  1  0  0  0  0
 10  6  1  0  0  0  0
 11 12  1  0  0  0  0
 12 13  2  0  0  0  0
 14 11  1  0  0  0  0
 15 12  1  0  0  0  0
 15 16  1  0  0  0  0
 16 21  1  0  0  0  0
 17 16  2  0  0  0  0
 17 23  1  0  0  0  0
 18 17  1  0  0  0  0
 19 20  1  0  0  0  0
 19 18  2  0  0  0  0
 20 15  2  0  0  0  0
 22 18  1  0  0  0  0
 23 26  1  0  0  0  0
 23 27  1  1  0  0  0
 24 29  1  0  0  0  0
 24 23  1  0  0  0  0
 24 25  1  0  0  0  0
 25 26  1  0  0  0  0
 25 30  1  0  0  0  0
 28 24  1  0  0  0  0
 31 25  1  0  0  0  0
 32 35  1  0  0  0  0
 32 19  1  0  0  0  0
 33 32  1  0  0  0  0
 34 32  1  0  0  0  0
 36 37  1  6  0  0  0
 36 38  1  0  0  0  0
 36  1  1  0  0  0  0
 38 39  1  0  0  0  0
 40 38  1  0  0  0  0
 41 38  1  0  0  0  0
 42 43  1  0  0  0  0
 42 36  1  0  0  0  0
 42 45  1  0  0  0  0
 44 42  1  0  0  0  0
 45 46  2  0  0  0  0
 46 47  1  0  0  0  0
 48 47  2  0  0  0  0
 49 45  1  0  0  0  0
 49 48  1  0  0  0  0
 50 48  1  0  0  0  0
 51 49  1  0  0  0  0
 52 51  1  0  0  0  0
 53 51  1  0  0  0  0
 54 51  1  0  0  0  0
M  END
>  <MODEL>
32

>  <REMARK>
 VINA RESULT:    -7.283      4.649      9.675
 INTER + INTRA:         -11.597
 INTER:                 -10.691
 INTRA:                  -0.906
 UNBOUND:                -0.909
  Name = 
  9 active torsions:
  status: ('A' for Active; 'I' for Inactive)
    1  A    between atoms: C_1  and  C_2
    2  A    between atoms: C_2  and  C_3
    3  A    between atoms: C_2  and  C_10
    4  A    between atoms: C_3  and  C_4
    5  A    between atoms: N_8  and  C_9
    6  A    between atoms: C_14  and  N_15
    7  A    between atoms: C_16  and  C_18
    8  A    between atoms: C_20  and  C_21
    9  A    between atoms: C_26  and  C_27
                            x       y       z     vdW  Elec       q    Type
                         _______ _______ _______ _____ _____    ______ ____

>  <TORSDO>
F 9

$$$$
=
 OpenBabel07192307433D

 54 57  0  0  1  0  0  0  0  0999 V2000
    3.3990    5.1690   18.7080 C   0  0  0  0  0  0  0  0  0  0  0  0
    3.1390    4.4030   19.8520 C   0  0  0  0  0  0  0  0  0  0  0  0
    2.3070    4.8940   20.8570 C   0  0  0  0  0  0  0  0  0  0  0  0
    1.7210    6.1570   20.7350 C   0  0  0  0  0  0  0  0  0  0  0  0
    1.9600    6.9360   19.6050 C   0  0  0  0  0  0  0  0  0  0  0  0
    2.7980    6.4350   18.5970 C   0  0  0  0  0  0  0  0  0  0  0  0
    3.5770    3.4140   19.9720 H   0  0  0  0  0  0  0  0  0  0  0  0
    2.1080    4.2930   21.7410 H   0  0  0  0  0  0  0  0  0  0  0  0
    1.0790    6.5000   21.5390 H   0  0  0  0  0  0  0  0  0  0  0  0
    2.9850    7.0340   17.7090 H   0  0  0  0  0  0  0  0  0  0  0  0
    1.4070    8.2120   19.4030 N   0  0  0  0  0  0  0  0  0  0  0  0
    1.0830    9.1670   20.3480 C   0  0  0  0  0  0  0  0  0  0  0  0
    1.2230    9.0910   21.5630 O   0  0  0  0  0  0  0  0  0  0  0  0
    1.2030    8.4900   18.4450 H   0  0  0  0  0  0  0  0  0  0  0  0
    0.5050   10.4120   19.7410 C   0  0  0  0  0  0  0  0  0  0  0  0
   -0.6760   10.3480   19.0100 C   0  0  0  0  0  0  0  0  0  0  0  0
   -1.2180   11.5120   18.4460 C   0  0  0  0  0  0  0  0  0  0  0  0
   -0.4930   12.6990   18.6690 C   0  0  0  0  0  0  0  0  0  0  0  0
    0.6920   12.7020   19.4140 C   0  0  0  0  0  0  0  0  0  0  0  0
    1.2010   11.5620   19.9560 N   0  0  0  0  0  0  0  0  0  0  0  0
   -1.1770    9.3920   18.8770 H   0  0  0  0  0  0  0  0  0  0  0  0
   -0.8670   13.6330   18.2500 H   0  0  0  0  0  0  0  0  0  0  0  0
   -2.5580   11.4820   17.6050 C   0  0  1  0  0  0  0  0  0  0  0  0
   -3.1690   10.1180   17.2430 C   0  0  0  0  0  0  0  0  0  0  0  0
   -4.4670   10.7090   17.7800 C   0  0  0  0  0  0  0  0  0  0  0  0
   -3.7570   11.8280   18.3620 O   0  0  0  0  0  0  0  0  0  0  0  0
   -2.4850   12.1490   16.7340 H   0  0  0  0  0  0  0  0  0  0  0  0
   -2.7940    9.2670   17.8190 H   0  0  0  0  0  0  0  0  0  0  0  0
   -3.1710    9.8730   16.1780 H   0  0  0  0  0  0  0  0  0  0  0  0
   -5.1830   11.0450   17.0230 H   0  0  0  0  0  0  0  0  0  0  0  0
   -4.9760   10.1090   18.5380 H   0  0  0  0  0  0  0  0  0  0  0  0
    1.4230   14.0240   19.6200 C   0  0  0  0  0  0  0  0  0  0  0  0
    1.5130   14.7820   18.4890 F   0  0  0  0  0  0  0  0  0  0  0  0
    2.7050   13.8520   20.0520 F   0  0  0  0  0  0  0  0  0  0  0  0
    0.8210   14.8170   20.5520 F   0  0  0  0  0  0  0  0  0  0  0  0
    4.3110    4.6620   17.5990 C   0  0  2  0  0  0  0  0  0  0  0  0
    4.2960    5.3990   16.7850 H   0  0  0  0  0  0  0  0  0  0  0  0
    3.7730    3.3480   17.0170 C   0  0  0  0  0  0  0  0  0  0  0  0
    3.8880    2.5280   17.7340 H   0  0  0  0  0  0  0  0  0  0  0  0
    4.3010    3.0630   16.1000 H   0  0  0  0  0  0  0  0  0  0  0  0
    2.7090    3.4290   16.7780 H   0  0  0  0  0  0  0  0  0  0  0  0
    5.7620    4.5270   18.1060 C   0  0  0  0  0  0  0  0  0  0  0  0
    6.2810    3.7220   17.5720 H   0  0  0  0  0  0  0  0  0  0  0  0
    5.7680    4.2380   19.1650 H   0  0  0  0  0  0  0  0  0  0  0  0
    6.5380    5.7900   17.9400 C   0  0  0  0  0  0  0  0  0  0  0  0
    6.3540    6.7020   17.0070 N   0  0  0  0  0  0  0  0  0  0  0  0
    7.2680    7.7090   17.2040 N   0  0  0  0  0  0  0  0  0  0  0  0
    7.9940    7.3880   18.2470 C   0  0  0  0  0  0  0  0  0  0  0  0
    7.5740    6.1920   18.7410 N   0  0  0  0  0  0  0  0  0  0  0  0
    8.8040    7.9700   18.6630 H   0  0  0  0  0  0  0  0  0  0  0  0
    8.1240    5.5030   19.8770 C   0  0  0  0  0  0  0  0  0  0  0  0
    7.3380    5.3900   20.6280 H   0  0  0  0  0  0  0  0  0  0  0  0
    8.4830    4.5170   19.5690 H   0  0  0  0  0  0  0  0  0  0  0  0
    8.9560    6.0870   20.2750 H   0  0  0  0  0  0  0  0  0  0  0  0
  1  2  1  0  0  0  0
  2  7  1  0  0  0  0
  2  3  2  0  0  0  0
  3  8  1  0  0  0  0
  4  3  1  0  0  0  0
  4  9  1  0  0  0  0
  5  4  2  0  0  0  0
  6  1  2  0  0  0  0
  6  5  1  0  0  0  0
 10  6  1  0  0  0  0
 11  5  1  0  0  0  0
 11 12  1  0  0  0  0
 12 13  2  0  0  0  0
 14 11  1  0  0  0  0
 15 20  1  0  0  0  0
 15 12  1  0  0  0  0
 16 15  2  0  0  0  0
 17 18  2  0  0  0  0
 17 16  1  0  0  0  0
 18 19  1  0  0  0  0
 19 32  1  0  0  0  0
 19 20  2  0  0  0  0
 21 16  1  0  0  0  0
 22 18  1  0  0  0  0
 23 27  1  6  0  0  0
 23 26  1  0  0  0  0
 23 17  1  0  0  0  0
 24 23  1  0  0  0  0
 24 25  1  0  0  0  0
 24 28  1  0  0  0  0
 25 26  1  0  0  0  0
 25 31  1  0  0  0  0
 29 24  1  0  0  0  0
 30 25  1  0  0  0  0
 32 34  1  0  0  0  0
 32 35  1  0  0  0  0
 33 32  1  0  0  0  0
 36 37  1  6  0  0  0
 36 42  1  0  0  0  0
 36  1  1  0  0  0  0
 38 36  1  0  0  0  0
 38 39  1  0  0  0  0
 40 38  1  0  0  0  0
 41 38  1  0  0  0  0
 42 44  1  0  0  0  0
 43 42  1  0  0  0  0
 45 42  1  0  0  0  0
 45 49  1  0  0  0  0
 46 47  1  0  0  0  0
 46 45  2  0  0  0  0
 47 48  2  0  0  0  0
 48 50  1  0  0  0  0
 48 49  1  0  0  0  0
 49 51  1  0  0  0  0
 51 54  1  0  0  0  0
 51 52  1  0  0  0  0
 53 51  1  0  0  0  0
M  END
>  <MODEL>
33

>  <REMARK>
 VINA RESULT:    -7.245      4.437      9.467
 INTER + INTRA:         -11.542
 INTER:                 -10.631
 INTRA:                  -0.911
 UNBOUND:                -0.909
  Name = 
  9 active torsions:
  status: ('A' for Active; 'I' for Inactive)
    1  A    between atoms: C_1  and  C_2
    2  A    between atoms: C_2  and  C_3
    3  A    between atoms: C_2  and  C_10
    4  A    between atoms: C_3  and  C_4
    5  A    between atoms: N_8  and  C_9
    6  A    between atoms: C_14  and  N_15
    7  A    between atoms: C_16  and  C_18
    8  A    between atoms: C_20  and  C_21
    9  A    between atoms: C_26  and  C_27
                            x       y       z     vdW  Elec       q    Type
                         _______ _______ _______ _____ _____    ______ ____

>  <TORSDO>
F 9

$$$$
