=
 OpenBabel07192307433D

 55 58  0  0  1  0  0  0  0  0999 V2000
    3.3800    5.6940   18.6010 C   0  0  0  0  0  0  0  0  0  0  0  0
    2.5690    6.7440   18.1440 C   0  0  0  0  0  0  0  0  0  0  0  0
    1.2560    6.7500   18.4230 F   0  0  0  0  0  0  0  0  0  0  0  0
    3.0770    7.7960   17.3890 C   0  0  0  0  0  0  0  0  0  0  0  0
    4.4310    7.8260   17.0680 C   0  0  0  0  0  0  0  0  0  0  0  0
    5.2970    6.8100   17.5130 C   0  0  0  0  0  0  0  0  0  0  0  0
    4.7560    5.7400   18.2650 C   0  0  0  0  0  0  0  0  0  0  0  0
    2.4080    8.5780   17.0440 H   0  0  0  0  0  0  0  0  0  0  0  0
    4.8120    8.6450   16.4600 H   0  0  0  0  0  0  0  0  0  0  0  0
    2.2890    3.4090   18.7350 C   0  0  0  0  0  0  0  0  0  0  0  0
    1.7310    2.3860   19.5210 C   0  0  0  0  0  0  0  0  0  0  0  0
    1.6290    2.5210   20.9050 C   0  0  0  0  0  0  0  0  0  0  0  0
    2.0930    3.6750   21.5240 C   0  0  0  0  0  0  0  0  0  0  0  0
    2.6630    4.6930   20.7600 C   0  0  0  0  0  0  0  0  0  0  0  0
    2.7730    4.5830   19.3600 C   0  0  0  0  0  0  0  0  0  0  0  0
    1.3730    1.4690   19.0570 H   0  0  0  0  0  0  0  0  0  0  0  0
    1.1950    1.7210   21.4990 H   0  0  0  0  0  0  0  0  0  0  0  0
    2.0200    3.7840   22.6050 H   0  0  0  0  0  0  0  0  0  0  0  0
    3.0230    5.5880   21.2690 H   0  0  0  0  0  0  0  0  0  0  0  0
    2.3920    3.1930   17.2480 C   0  0  0  0  0  0  0  0  0  0  0  0
    1.9930    4.0600   16.7120 H   0  0  0  0  0  0  0  0  0  0  0  0
    1.8530    2.2920   16.9400 H   0  0  0  0  0  0  0  0  0  0  0  0
    3.4350    3.0540   16.9410 H   0  0  0  0  0  0  0  0  0  0  0  0
    5.6500    4.6260   18.6570 C   0  0  0  0  0  0  0  0  0  0  0  0
    6.3250    4.7660   19.8340 N   0  0  0  0  0  0  0  0  0  0  0  0
    5.7890    3.6480   17.9340 O   0  0  0  0  0  0  0  0  0  0  0  0
    6.8220    3.9480   20.1660 H   0  0  0  0  0  0  0  0  0  0  0  0
    6.0540    5.4520   20.5260 H   0  0  0  0  0  0  0  0  0  0  0  0
    6.7610    6.8760   17.1270 C   0  0  0  0  0  0  0  0  0  0  0  0
    6.8920    6.4690   16.1180 H   0  0  0  0  0  0  0  0  0  0  0  0
    7.4040    6.3090   17.8050 H   0  0  0  0  0  0  0  0  0  0  0  0
    7.2530    8.2420   17.1700 N   0  0  0  0  0  0  0  0  0  0  0  0
    8.1850    8.5910   18.1150 C   0  0  0  0  0  0  0  0  0  0  0  0
    8.7160    7.8050   18.8830 O   0  0  0  0  0  0  0  0  0  0  0  0
    8.4320    9.9390   18.0760 N   0  0  0  0  0  0  0  0  0  0  0  0
    6.5610    8.9590   17.0070 H   0  0  0  0  0  0  0  0  0  0  0  0
    8.3260   10.3520   17.1620 H   0  0  0  0  0  0  0  0  0  0  0  0
    9.4650   10.5230   18.9060 C   0  0  2  0  0  0  0  0  0  0  0  0
    9.1060   10.4000   20.4000 C   0  0  0  0  0  0  0  0  0  0  0  0
    9.7340   11.6090   21.1050 C   0  0  0  0  0  0  0  0  0  0  0  0
    9.7050   12.6300   20.0110 C   0  0  0  0  0  0  0  0  0  0  0  0
    9.8530   14.0010   20.1270 C   0  0  0  0  0  0  0  0  0  0  0  0
    9.8470   14.7700   18.9610 C   0  0  0  0  0  0  0  0  0  0  0  0
    9.7150   14.1610   17.7040 C   0  0  0  0  0  0  0  0  0  0  0  0
    9.5800   12.7750   17.5960 C   0  0  0  0  0  0  0  0  0  0  0  0
    9.5620   12.0180   18.7590 C   0  0  0  0  0  0  0  0  0  0  0  0
   10.4420   10.0680   18.7030 H   0  0  0  0  0  0  0  0  0  0  0  0
    9.4420    9.4490   20.8290 H   0  0  0  0  0  0  0  0  0  0  0  0
    8.0140   10.4370   20.5350 H   0  0  0  0  0  0  0  0  0  0  0  0
    9.1450   11.9120   21.9760 H   0  0  0  0  0  0  0  0  0  0  0  0
   10.7670   11.4030   21.4010 H   0  0  0  0  0  0  0  0  0  0  0  0
    9.9780   14.4720   21.0970 H   0  0  0  0  0  0  0  0  0  0  0  0
    9.9630   15.8490   19.0250 H   0  0  0  0  0  0  0  0  0  0  0  0
    9.7330   14.7720   16.8050 H   0  0  0  0  0  0  0  0  0  0  0  0
    9.5060   12.3030   16.6200 H   0  0  0  0  0  0  0  0  0  0  0  0
  1 15  1  0  0  0  0
  2  3  1  0  0  0  0
  2  1  2  0  0  0  0
  4  2  1  0  0  0  0
  5  4  2  0  0  0  0
  5  6  1  0  0  0  0
  6  7  2  0  0  0  0
  7  1  1  0  0  0  0
  7 24  1  0  0  0  0
  8  4  1  0  0  0  0
  9  5  1  0  0  0  0
 10 15  2  0  0  0  0
 10 11  1  0  0  0  0
 11 12  2  0  0  0  0
 12 17  1  0  0  0  0
 12 13  1  0  0  0  0
 13 18  1  0  0  0  0
 14 19  1  0  0  0  0
 14 13  2  0  0  0  0
 15 14  1  0  0  0  0
 16 11  1  0  0  0  0
 20 10  1  0  0  0  0
 21 20  1  0  0  0  0
 22 20  1  0  0  0  0
 23 20  1  0  0  0  0
 24 25  1  0  0  0  0
 25 27  1  0  0  0  0
 25 28  1  0  0  0  0
 26 24  2  0  0  0  0
 29 32  1  0  0  0  0
 29  6  1  0  0  0  0
 29 31  1  0  0  0  0
 30 29  1  0  0  0  0
 32 33  1  0  0  0  0
 33 34  2  0  0  0  0
 35 33  1  0  0  0  0
 35 38  1  0  0  0  0
 36 32  1  0  0  0  0
 37 35  1  0  0  0  0
 38 47  1  6  0  0  0
 38 39  1  0  0  0  0
 39 49  1  0  0  0  0
 39 48  1  0  0  0  0
 39 40  1  0  0  0  0
 40 51  1  0  0  0  0
 40 50  1  0  0  0  0
 41 42  1  0  0  0  0
 41 40  1  0  0  0  0
 42 52  1  0  0  0  0
 43 53  1  0  0  0  0
 43 42  2  0  0  0  0
 44 43  1  0  0  0  0
 45 44  2  0  0  0  0
 45 46  1  0  0  0  0
 46 38  1  0  0  0  0
 46 41  2  0  0  0  0
 54 44  1  0  0  0  0
 55 45  1  0  0  0  0
M  END
>  <MODEL>
1

>  <REMARK>
 VINA RESULT:    -8.339      0.000      0.000
 INTER + INTRA:         -12.307
 INTER:                 -11.177
 INTRA:                  -1.130
 UNBOUND:                -1.286
  Name = 
  6 active torsions:
  status: ('A' for Active; 'I' for Inactive)
    1  A    between atoms: C_1  and  C_2
    2  A    between atoms: C_7  and  C_8
    3  A    between atoms: C_13  and  C_14
    4  A    between atoms: C_14  and  N_15
    5  A    between atoms: N_18  and  C_19
    6  A    between atoms: C_28  and  C_29
                            x       y       z     vdW  Elec       q    Type
                         _______ _______ _______ _____ _____    ______ ____

>  <TORSDO>
F 6

$$$$
=
 OpenBabel07192307433D

 55 58  0  0  1  0  0  0  0  0999 V2000
   -1.4750   11.6800   19.8800 C   0  0  0  0  0  0  0  0  0  0  0  0
   -2.5260   11.4000   18.9940 C   0  0  0  0  0  0  0  0  0  0  0  0
   -3.7470   11.9140   19.2130 F   0  0  0  0  0  0  0  0  0  0  0  0
   -2.3570   10.5840   17.8810 C   0  0  0  0  0  0  0  0  0  0  0  0
   -1.1100   10.0210   17.6190 C   0  0  0  0  0  0  0  0  0  0  0  0
   -0.0140   10.2800   18.4620 C   0  0  0  0  0  0  0  0  0  0  0  0
   -0.2140   11.0990   19.5990 C   0  0  0  0  0  0  0  0  0  0  0  0
   -3.2030   10.3820   17.2310 H   0  0  0  0  0  0  0  0  0  0  0  0
   -0.9960    9.3680   16.7550 H   0  0  0  0  0  0  0  0  0  0  0  0
   -1.5120   13.9160   21.0770 C   0  0  0  0  0  0  0  0  0  0  0  0
   -1.7870   14.6520   22.2420 C   0  0  0  0  0  0  0  0  0  0  0  0
   -2.2520   14.0210   23.3960 C   0  0  0  0  0  0  0  0  0  0  0  0
   -2.4590   12.6470   23.3980 C   0  0  0  0  0  0  0  0  0  0  0  0
   -2.2050   11.9040   22.2450 C   0  0  0  0  0  0  0  0  0  0  0  0
   -1.7310   12.5170   21.0690 C   0  0  0  0  0  0  0  0  0  0  0  0
   -1.6430   15.7300   22.2580 H   0  0  0  0  0  0  0  0  0  0  0  0
   -2.4590   14.6040   24.2890 H   0  0  0  0  0  0  0  0  0  0  0  0
   -2.8250   12.1500   24.2940 H   0  0  0  0  0  0  0  0  0  0  0  0
   -2.3790   10.8280   22.2700 H   0  0  0  0  0  0  0  0  0  0  0  0
   -1.0350   14.6580   19.8570 C   0  0  0  0  0  0  0  0  0  0  0  0
   -1.4550   15.6690   19.8420 H   0  0  0  0  0  0  0  0  0  0  0  0
   -1.3160   14.1330   18.9390 H   0  0  0  0  0  0  0  0  0  0  0  0
    0.0570   14.7420   19.8480 H   0  0  0  0  0  0  0  0  0  0  0  0
    0.9170   11.3000   20.5350 C   0  0  0  0  0  0  0  0  0  0  0  0
    1.7250   12.3740   20.3000 N   0  0  0  0  0  0  0  0  0  0  0  0
    1.1210   10.5150   21.4510 O   0  0  0  0  0  0  0  0  0  0  0  0
    2.4060   12.5870   21.0180 H   0  0  0  0  0  0  0  0  0  0  0  0
    1.4410   13.1320   19.6950 H   0  0  0  0  0  0  0  0  0  0  0  0
    1.3190    9.6350   18.1470 C   0  0  0  0  0  0  0  0  0  0  0  0
    2.0780   10.4140   18.0040 H   0  0  0  0  0  0  0  0  0  0  0  0
    1.2910    9.0210   17.2430 H   0  0  0  0  0  0  0  0  0  0  0  0
    1.7340    8.7420   19.2150 N   0  0  0  0  0  0  0  0  0  0  0  0
    2.3410    7.5520   18.8970 C   0  0  0  0  0  0  0  0  0  0  0  0
    2.6520    7.2170   17.7650 O   0  0  0  0  0  0  0  0  0  0  0  0
    2.5450    6.7980   20.0230 N   0  0  0  0  0  0  0  0  0  0  0  0
    1.0970    8.6690   19.9940 H   0  0  0  0  0  0  0  0  0  0  0  0
    2.6960    7.3390   20.8610 H   0  0  0  0  0  0  0  0  0  0  0  0
    3.2750    5.5490   19.9500 C   0  0  2  0  0  0  0  0  0  0  0  0
    4.2840    5.5680   18.7850 C   0  0  0  0  0  0  0  0  0  0  0  0
    4.4170    4.1210   18.2930 C   0  0  0  0  0  0  0  0  0  0  0  0
    3.0570    3.5820   18.6070 C   0  0  0  0  0  0  0  0  0  0  0  0
    2.4690    2.4270   18.1200 C   0  0  0  0  0  0  0  0  0  0  0  0
    1.2010    2.0790   18.5900 C   0  0  0  0  0  0  0  0  0  0  0  0
    0.5510    2.8730   19.5470 C   0  0  0  0  0  0  0  0  0  0  0  0
    1.1570    4.0290   20.0420 C   0  0  0  0  0  0  0  0  0  0  0  0
    2.4070    4.3840   19.5540 C   0  0  0  0  0  0  0  0  0  0  0  0
    3.7800    5.3270   20.8980 H   0  0  0  0  0  0  0  0  0  0  0  0
    5.2490    5.9950   19.0810 H   0  0  0  0  0  0  0  0  0  0  0  0
    3.9050    6.1900   17.9610 H   0  0  0  0  0  0  0  0  0  0  0  0
    4.6460    4.0830   17.2240 H   0  0  0  0  0  0  0  0  0  0  0  0
    5.1780    3.5760   18.8600 H   0  0  0  0  0  0  0  0  0  0  0  0
    2.9810    1.7990   17.3970 H   0  0  0  0  0  0  0  0  0  0  0  0
    0.7190    1.1760   18.2240 H   0  0  0  0  0  0  0  0  0  0  0  0
   -0.4280    2.5760   19.9170 H   0  0  0  0  0  0  0  0  0  0  0  0
    0.6640    4.6270   20.8040 H   0  0  0  0  0  0  0  0  0  0  0  0
  1 15  1  0  0  0  0
  2  3  1  0  0  0  0
  2  1  2  0  0  0  0
  4  2  1  0  0  0  0
  5  4  2  0  0  0  0
  5  6  1  0  0  0  0
  6  7  2  0  0  0  0
  7  1  1  0  0  0  0
  7 24  1  0  0  0  0
  8  4  1  0  0  0  0
  9  5  1  0  0  0  0
 10 11  1  0  0  0  0
 11 16  1  0  0  0  0
 11 12  2  0  0  0  0
 12 13  1  0  0  0  0
 12 17  1  0  0  0  0
 13 18  1  0  0  0  0
 14 19  1  0  0  0  0
 14 13  2  0  0  0  0
 15 10  2  0  0  0  0
 15 14  1  0  0  0  0
 20 10  1  0  0  0  0
 21 20  1  0  0  0  0
 22 20  1  0  0  0  0
 23 20  1  0  0  0  0
 24 26  2  0  0  0  0
 25 24  1  0  0  0  0
 25 27  1  0  0  0  0
 28 25  1  0  0  0  0
 29  6  1  0  0  0  0
 29 32  1  0  0  0  0
 30 29  1  0  0  0  0
 31 29  1  0  0  0  0
 32 36  1  0  0  0  0
 33 32  1  0  0  0  0
 33 35  1  0  0  0  0
 34 33  2  0  0  0  0
 35 37  1  0  0  0  0
 38 35  1  0  0  0  0
 38 47  1  1  0  0  0
 39 48  1  0  0  0  0
 39 38  1  0  0  0  0
 40 41  1  0  0  0  0
 40 39  1  0  0  0  0
 40 51  1  0  0  0  0
 41 46  1  0  0  0  0
 42 43  1  0  0  0  0
 42 41  2  0  0  0  0
 43 44  2  0  0  0  0
 44 54  1  0  0  0  0
 44 45  1  0  0  0  0
 45 55  1  0  0  0  0
 46 38  1  0  0  0  0
 46 45  2  0  0  0  0
 49 39  1  0  0  0  0
 50 40  1  0  0  0  0
 52 42  1  0  0  0  0
 53 43  1  0  0  0  0
M  END
>  <MODEL>
2

>  <REMARK>
 VINA RESULT:    -7.620      5.815      9.624
 INTER + INTRA:         -11.357
 INTER:                 -10.985
 INTRA:                  -0.372
 UNBOUND:                -1.286
  Name = 
  6 active torsions:
  status: ('A' for Active; 'I' for Inactive)
    1  A    between atoms: C_1  and  C_2
    2  A    between atoms: C_7  and  C_8
    3  A    between atoms: C_13  and  C_14
    4  A    between atoms: C_14  and  N_15
    5  A    between atoms: N_18  and  C_19
    6  A    between atoms: C_28  and  C_29
                            x       y       z     vdW  Elec       q    Type
                         _______ _______ _______ _____ _____    ______ ____

>  <TORSDO>
F 6

$$$$
=
 OpenBabel07192307433D

 55 58  0  0  1  0  0  0  0  0999 V2000
   -2.2180   12.0180   19.8680 C   0  0  0  0  0  0  0  0  0  0  0  0
   -2.6990   11.6600   18.6000 C   0  0  0  0  0  0  0  0  0  0  0  0
   -3.8060   12.2420   18.1100 F   0  0  0  0  0  0  0  0  0  0  0  0
   -2.0710   10.6980   17.8160 C   0  0  0  0  0  0  0  0  0  0  0  0
   -0.9260   10.0610   18.2880 C   0  0  0  0  0  0  0  0  0  0  0  0
   -0.3880   10.3910   19.5450 C   0  0  0  0  0  0  0  0  0  0  0  0
   -1.0530   11.3600   20.3330 C   0  0  0  0  0  0  0  0  0  0  0  0
   -2.4880   10.4410   16.8470 H   0  0  0  0  0  0  0  0  0  0  0  0
   -0.4560    9.2950   17.6720 H   0  0  0  0  0  0  0  0  0  0  0  0
   -2.5610   14.3710   20.7510 C   0  0  0  0  0  0  0  0  0  0  0  0
   -3.3170   15.2670   21.5260 C   0  0  0  0  0  0  0  0  0  0  0  0
   -4.4380   14.8330   22.2330 C   0  0  0  0  0  0  0  0  0  0  0  0
   -4.8260   13.5010   22.1660 C   0  0  0  0  0  0  0  0  0  0  0  0
   -4.0960   12.6020   21.3900 C   0  0  0  0  0  0  0  0  0  0  0  0
   -2.9560   13.0140   20.6700 C   0  0  0  0  0  0  0  0  0  0  0  0
   -3.0370   16.3170   21.5820 H   0  0  0  0  0  0  0  0  0  0  0  0
   -5.0120   15.5380   22.8280 H   0  0  0  0  0  0  0  0  0  0  0  0
   -5.7030   13.1570   22.7130 H   0  0  0  0  0  0  0  0  0  0  0  0
   -4.4220   11.5620   21.3500 H   0  0  0  0  0  0  0  0  0  0  0  0
   -1.3750   14.9050   19.9920 C   0  0  0  0  0  0  0  0  0  0  0  0
   -1.6730   15.1910   18.9780 H   0  0  0  0  0  0  0  0  0  0  0  0
   -0.5710   14.1640   19.9410 H   0  0  0  0  0  0  0  0  0  0  0  0
   -0.9560   15.7880   20.4860 H   0  0  0  0  0  0  0  0  0  0  0  0
   -0.5370   11.6430   21.6930 C   0  0  0  0  0  0  0  0  0  0  0  0
   -1.0170   10.8650   22.7050 N   0  0  0  0  0  0  0  0  0  0  0  0
    0.2600   12.5510   21.8850 O   0  0  0  0  0  0  0  0  0  0  0  0
   -0.5600   10.9660   23.6030 H   0  0  0  0  0  0  0  0  0  0  0  0
   -1.4940    9.9920   22.5270 H   0  0  0  0  0  0  0  0  0  0  0  0
    0.8510    9.6620   20.0230 C   0  0  0  0  0  0  0  0  0  0  0  0
    0.6120    9.0920   20.9290 H   0  0  0  0  0  0  0  0  0  0  0  0
    1.6770   10.3380   20.2590 H   0  0  0  0  0  0  0  0  0  0  0  0
    1.3580    8.7640   19.0010 N   0  0  0  0  0  0  0  0  0  0  0  0
    2.1630    7.7150   19.3690 C   0  0  0  0  0  0  0  0  0  0  0  0
    2.4190    7.4130   20.5250 O   0  0  0  0  0  0  0  0  0  0  0  0
    2.6390    7.0590   18.2630 N   0  0  0  0  0  0  0  0  0  0  0  0
    1.6450    9.2030   18.1390 H   0  0  0  0  0  0  0  0  0  0  0  0
    2.0170    7.0830   17.4700 H   0  0  0  0  0  0  0  0  0  0  0  0
    3.4190    5.8470   18.4050 C   0  0  2  0  0  0  0  0  0  0  0  0
    4.1770    5.5250   17.1010 C   0  0  0  0  0  0  0  0  0  0  0  0
    4.3040    3.9980   17.0310 C   0  0  0  0  0  0  0  0  0  0  0  0
    3.0690    3.5710   17.7600 C   0  0  0  0  0  0  0  0  0  0  0  0
    2.4730    2.3210   17.7590 C   0  0  0  0  0  0  0  0  0  0  0  0
    1.3470    2.1220   18.5600 C   0  0  0  0  0  0  0  0  0  0  0  0
    0.8470    3.1610   19.3610 C   0  0  0  0  0  0  0  0  0  0  0  0
    1.4620    4.4140   19.3660 C   0  0  0  0  0  0  0  0  0  0  0  0
    2.5670    4.6130   18.5490 C   0  0  0  0  0  0  0  0  0  0  0  0
    4.1130    5.9170   19.2500 H   0  0  0  0  0  0  0  0  0  0  0  0
    5.1510    6.0240   17.0560 H   0  0  0  0  0  0  0  0  0  0  0  0
    3.6040    5.8750   16.2300 H   0  0  0  0  0  0  0  0  0  0  0  0
    4.3210    3.6470   15.9940 H   0  0  0  0  0  0  0  0  0  0  0  0
    5.1950    3.6480   17.5610 H   0  0  0  0  0  0  0  0  0  0  0  0
    2.8720    1.5100   17.1580 H   0  0  0  0  0  0  0  0  0  0  0  0
    0.8620    1.1490   18.5780 H   0  0  0  0  0  0  0  0  0  0  0  0
   -0.0190    2.9830   19.9940 H   0  0  0  0  0  0  0  0  0  0  0  0
    1.0910    5.2080   20.0070 H   0  0  0  0  0  0  0  0  0  0  0  0
  1  7  1  0  0  0  0
  1 15  1  0  0  0  0
  2  1  2  0  0  0  0
  3  2  1  0  0  0  0
  4  5  2  0  0  0  0
  4  2  1  0  0  0  0
  5  6  1  0  0  0  0
  6 29  1  0  0  0  0
  6  7  2  0  0  0  0
  7 24  1  0  0  0  0
  8  4  1  0  0  0  0
  9  5  1  0  0  0  0
 10 11  1  0  0  0  0
 11 16  1  0  0  0  0
 11 12  2  0  0  0  0
 12 17  1  0  0  0  0
 13 12  1  0  0  0  0
 13 18  1  0  0  0  0
 14 13  2  0  0  0  0
 15 10  2  0  0  0  0
 15 14  1  0  0  0  0
 19 14  1  0  0  0  0
 20 23  1  0  0  0  0
 20 10  1  0  0  0  0
 21 20  1  0  0  0  0
 22 20  1  0  0  0  0
 24 26  2  0  0  0  0
 24 25  1  0  0  0  0
 25 27  1  0  0  0  0
 28 25  1  0  0  0  0
 29 31  1  0  0  0  0
 29 30  1  0  0  0  0
 32 33  1  0  0  0  0
 32 29  1  0  0  0  0
 33 34  2  0  0  0  0
 35 38  1  0  0  0  0
 35 33  1  0  0  0  0
 36 32  1  0  0  0  0
 37 35  1  0  0  0  0
 38 46  1  0  0  0  0
 38 47  1  1  0  0  0
 39 38  1  0  0  0  0
 40 39  1  0  0  0  0
 40 51  1  0  0  0  0
 40 41  1  0  0  0  0
 41 46  1  0  0  0  0
 42 41  2  0  0  0  0
 42 43  1  0  0  0  0
 43 53  1  0  0  0  0
 43 44  2  0  0  0  0
 44 45  1  0  0  0  0
 44 54  1  0  0  0  0
 45 55  1  0  0  0  0
 46 45  2  0  0  0  0
 48 39  1  0  0  0  0
 49 39  1  0  0  0  0
 50 40  1  0  0  0  0
 52 42  1  0  0  0  0
M  END
>  <MODEL>
3

>  <REMARK>
 VINA RESULT:    -7.609      6.561     10.132
 INTER + INTRA:         -11.342
 INTER:                 -10.274
 INTRA:                  -1.068
 UNBOUND:                -1.286
  Name = 
  6 active torsions:
  status: ('A' for Active; 'I' for Inactive)
    1  A    between atoms: C_1  and  C_2
    2  A    between atoms: C_7  and  C_8
    3  A    between atoms: C_13  and  C_14
    4  A    between atoms: C_14  and  N_15
    5  A    between atoms: N_18  and  C_19
    6  A    between atoms: C_28  and  C_29
                            x       y       z     vdW  Elec       q    Type
                         _______ _______ _______ _____ _____    ______ ____

>  <TORSDO>
F 6

$$$$
=
 OpenBabel07192307433D

 55 58  0  0  1  0  0  0  0  0999 V2000
    4.0090    4.0420   19.0920 C   0  0  0  0  0  0  0  0  0  0  0  0
    4.0420    2.8890   19.8900 C   0  0  0  0  0  0  0  0  0  0  0  0
    4.9660    1.9410   19.6660 F   0  0  0  0  0  0  0  0  0  0  0  0
    3.1310    2.6750   20.9190 C   0  0  0  0  0  0  0  0  0  0  0  0
    2.1490    3.6270   21.1810 C   0  0  0  0  0  0  0  0  0  0  0  0
    2.0770    4.8120   20.4260 C   0  0  0  0  0  0  0  0  0  0  0  0
    3.0040    5.0000   19.3720 C   0  0  0  0  0  0  0  0  0  0  0  0
    3.1850    1.7600   21.5000 H   0  0  0  0  0  0  0  0  0  0  0  0
    1.4290    3.4390   21.9760 H   0  0  0  0  0  0  0  0  0  0  0  0
    6.2240    4.8380   18.1470 C   0  0  0  0  0  0  0  0  0  0  0  0
    7.1010    4.9310   17.0530 C   0  0  0  0  0  0  0  0  0  0  0  0
    6.7500    4.4130   15.8070 C   0  0  0  0  0  0  0  0  0  0  0  0
    5.5230    3.7830   15.6390 C   0  0  0  0  0  0  0  0  0  0  0  0
    4.6480    3.6680   16.7190 C   0  0  0  0  0  0  0  0  0  0  0  0
    4.9770    4.1880   17.9860 C   0  0  0  0  0  0  0  0  0  0  0  0
    8.0720    5.4100   17.1650 H   0  0  0  0  0  0  0  0  0  0  0  0
    7.4390    4.4940   14.9700 H   0  0  0  0  0  0  0  0  0  0  0  0
    5.2450    3.3730   14.6700 H   0  0  0  0  0  0  0  0  0  0  0  0
    3.6920    3.1670   16.5640 H   0  0  0  0  0  0  0  0  0  0  0  0
    6.6710    5.3960   19.4720 C   0  0  0  0  0  0  0  0  0  0  0  0
    7.4050    4.7290   19.9350 H   0  0  0  0  0  0  0  0  0  0  0  0
    5.8230    5.5330   20.1510 H   0  0  0  0  0  0  0  0  0  0  0  0
    7.1350    6.3800   19.3490 H   0  0  0  0  0  0  0  0  0  0  0  0
    2.8720    6.2050   18.5200 C   0  0  0  0  0  0  0  0  0  0  0  0
    2.0100    6.1210   17.4670 N   0  0  0  0  0  0  0  0  0  0  0  0
    3.5340    7.2090   18.7470 O   0  0  0  0  0  0  0  0  0  0  0  0
    1.8170    6.9850   16.9750 H   0  0  0  0  0  0  0  0  0  0  0  0
    1.3130    5.3910   17.4050 H   0  0  0  0  0  0  0  0  0  0  0  0
    0.9840    5.8120   20.7370 C   0  0  0  0  0  0  0  0  0  0  0  0
    0.3390    5.4150   21.5290 H   0  0  0  0  0  0  0  0  0  0  0  0
    0.3540    6.0370   19.8710 H   0  0  0  0  0  0  0  0  0  0  0  0
    1.5420    7.0860   21.1560 N   0  0  0  0  0  0  0  0  0  0  0  0
    0.7010    8.1470   21.3790 C   0  0  0  0  0  0  0  0  0  0  0  0
   -0.5180    8.0810   21.3430 O   0  0  0  0  0  0  0  0  0  0  0  0
    1.4170    9.2850   21.6460 N   0  0  0  0  0  0  0  0  0  0  0  0
    2.4080    7.3500   20.7090 H   0  0  0  0  0  0  0  0  0  0  0  0
    2.3020    9.1190   22.1020 H   0  0  0  0  0  0  0  0  0  0  0  0
    0.7420   10.5080   22.0250 C   0  0  2  0  0  0  0  0  0  0  0  0
   -0.3910   10.2230   23.0310 C   0  0  0  0  0  0  0  0  0  0  0  0
   -1.4700   11.2860   22.7930 C   0  0  0  0  0  0  0  0  0  0  0  0
   -1.2910   11.5590   21.3320 C   0  0  0  0  0  0  0  0  0  0  0  0
   -2.1700   12.1980   20.4750 C   0  0  0  0  0  0  0  0  0  0  0  0
   -1.7780   12.3980   19.1490 C   0  0  0  0  0  0  0  0  0  0  0  0
   -0.5130   11.9770   18.7070 C   0  0  0  0  0  0  0  0  0  0  0  0
    0.3720   11.3450   19.5830 C   0  0  0  0  0  0  0  0  0  0  0  0
   -0.0320   11.1280   20.8930 C   0  0  0  0  0  0  0  0  0  0  0  0
    1.4480   11.2420   22.4340 H   0  0  0  0  0  0  0  0  0  0  0  0
   -0.0340   10.2200   24.0670 H   0  0  0  0  0  0  0  0  0  0  0  0
   -0.8250    9.2290   22.8450 H   0  0  0  0  0  0  0  0  0  0  0  0
   -2.4670   10.9020   23.0270 H   0  0  0  0  0  0  0  0  0  0  0  0
   -1.2700   12.1930   23.3730 H   0  0  0  0  0  0  0  0  0  0  0  0
   -3.1390   12.5450   20.8210 H   0  0  0  0  0  0  0  0  0  0  0  0
   -2.4490   12.8990   18.4570 H   0  0  0  0  0  0  0  0  0  0  0  0
   -0.2160   12.1590   17.6780 H   0  0  0  0  0  0  0  0  0  0  0  0
    1.3610   11.0460   19.2470 H   0  0  0  0  0  0  0  0  0  0  0  0
  1  7  2  0  0  0  0
  1  2  1  0  0  0  0
  2  4  2  0  0  0  0
  3  2  1  0  0  0  0
  4  5  1  0  0  0  0
  4  8  1  0  0  0  0
  5  9  1  0  0  0  0
  6 29  1  0  0  0  0
  6  5  2  0  0  0  0
  7  6  1  0  0  0  0
 10 20  1  0  0  0  0
 11 16  1  0  0  0  0
 11 10  2  0  0  0  0
 12 11  1  0  0  0  0
 13 12  2  0  0  0  0
 13 14  1  0  0  0  0
 14 15  2  0  0  0  0
 15 10  1  0  0  0  0
 15  1  1  0  0  0  0
 17 12  1  0  0  0  0
 18 13  1  0  0  0  0
 19 14  1  0  0  0  0
 20 21  1  0  0  0  0
 20 22  1  0  0  0  0
 23 20  1  0  0  0  0
 24 26  2  0  0  0  0
 24  7  1  0  0  0  0
 25 24  1  0  0  0  0
 27 25  1  0  0  0  0
 28 25  1  0  0  0  0
 29 32  1  0  0  0  0
 29 30  1  0  0  0  0
 31 29  1  0  0  0  0
 32 33  1  0  0  0  0
 33 35  1  0  0  0  0
 34 33  2  0  0  0  0
 35 38  1  0  0  0  0
 35 37  1  0  0  0  0
 36 32  1  0  0  0  0
 38 47  1  1  0  0  0
 38 39  1  0  0  0  0
 39 48  1  0  0  0  0
 40 50  1  0  0  0  0
 40 39  1  0  0  0  0
 40 51  1  0  0  0  0
 41 40  1  0  0  0  0
 42 52  1  0  0  0  0
 42 41  2  0  0  0  0
 43 42  1  0  0  0  0
 44 43  2  0  0  0  0
 44 45  1  0  0  0  0
 45 46  2  0  0  0  0
 46 41  1  0  0  0  0
 46 38  1  0  0  0  0
 49 39  1  0  0  0  0
 53 43  1  0  0  0  0
 54 44  1  0  0  0  0
 55 45  1  0  0  0  0
M  END
>  <MODEL>
4

>  <REMARK>
 VINA RESULT:    -7.446      5.150      7.580
 INTER + INTRA:         -11.127
 INTER:                 -10.441
 INTRA:                  -0.686
 UNBOUND:                -1.286
  Name = 
  6 active torsions:
  status: ('A' for Active; 'I' for Inactive)
    1  A    between atoms: C_1  and  C_2
    2  A    between atoms: C_7  and  C_8
    3  A    between atoms: C_13  and  C_14
    4  A    between atoms: C_14  and  N_15
    5  A    between atoms: N_18  and  C_19
    6  A    between atoms: C_28  and  C_29
                            x       y       z     vdW  Elec       q    Type
                         _______ _______ _______ _____ _____    ______ ____

>  <TORSDO>
F 6

$$$$
=
 OpenBabel07192307433D

 55 58  0  0  1  0  0  0  0  0999 V2000
   -0.0640   10.7160   20.9410 C   0  0  0  0  0  0  0  0  0  0  0  0
    0.0000   10.0890   22.1950 C   0  0  0  0  0  0  0  0  0  0  0  0
   -0.5780   10.6600   23.2640 F   0  0  0  0  0  0  0  0  0  0  0  0
    0.6620    8.8800   22.3840 C   0  0  0  0  0  0  0  0  0  0  0  0
    1.2840    8.2570   21.3050 C   0  0  0  0  0  0  0  0  0  0  0  0
    1.2390    8.8290   20.0210 C   0  0  0  0  0  0  0  0  0  0  0  0
    0.5750   10.0690   19.8550 C   0  0  0  0  0  0  0  0  0  0  0  0
    0.6990    8.4390   23.3750 H   0  0  0  0  0  0  0  0  0  0  0  0
    1.8160    7.3210   21.4700 H   0  0  0  0  0  0  0  0  0  0  0  0
   -0.0540   13.2520   20.9320 C   0  0  0  0  0  0  0  0  0  0  0  0
   -0.7620   14.4570   20.7900 C   0  0  0  0  0  0  0  0  0  0  0  0
   -2.1370   14.4570   20.5580 C   0  0  0  0  0  0  0  0  0  0  0  0
   -2.8220   13.2530   20.4530 C   0  0  0  0  0  0  0  0  0  0  0  0
   -2.1310   12.0480   20.5760 C   0  0  0  0  0  0  0  0  0  0  0  0
   -0.7430   12.0210   20.8150 C   0  0  0  0  0  0  0  0  0  0  0  0
   -0.2430   15.4110   20.8570 H   0  0  0  0  0  0  0  0  0  0  0  0
   -2.6710   15.3980   20.4510 H   0  0  0  0  0  0  0  0  0  0  0  0
   -3.8940   13.2470   20.2680 H   0  0  0  0  0  0  0  0  0  0  0  0
   -2.6890   11.1150   20.4860 H   0  0  0  0  0  0  0  0  0  0  0  0
    1.4340   13.3180   21.1570 C   0  0  0  0  0  0  0  0  0  0  0  0
    1.6650   13.1340   22.2110 H   0  0  0  0  0  0  0  0  0  0  0  0
    1.8370   14.2910   20.8590 H   0  0  0  0  0  0  0  0  0  0  0  0
    1.9570   12.5650   20.5580 H   0  0  0  0  0  0  0  0  0  0  0  0
    0.6040   10.7140   18.5220 C   0  0  0  0  0  0  0  0  0  0  0  0
   -0.4490   10.4570   17.6930 N   0  0  0  0  0  0  0  0  0  0  0  0
    1.5460   11.4180   18.1860 O   0  0  0  0  0  0  0  0  0  0  0  0
   -0.4960   11.0080   16.8450 H   0  0  0  0  0  0  0  0  0  0  0  0
   -1.3150   10.0660   18.0370 H   0  0  0  0  0  0  0  0  0  0  0  0
    1.9420    8.1230   18.8800 C   0  0  0  0  0  0  0  0  0  0  0  0
    2.7210    8.7770   18.4700 H   0  0  0  0  0  0  0  0  0  0  0  0
    1.2650    7.8530   18.0660 H   0  0  0  0  0  0  0  0  0  0  0  0
    2.5390    6.8760   19.3240 N   0  0  0  0  0  0  0  0  0  0  0  0
    3.7150    6.4550   18.7560 C   0  0  0  0  0  0  0  0  0  0  0  0
    4.3660    7.1050   17.9540 O   0  0  0  0  0  0  0  0  0  0  0  0
    4.0540    5.2070   19.2130 N   0  0  0  0  0  0  0  0  0  0  0  0
    1.8910    6.1230   19.5040 H   0  0  0  0  0  0  0  0  0  0  0  0
    3.7420    5.0130   20.1520 H   0  0  0  0  0  0  0  0  0  0  0  0
    5.3160    4.6040   18.8400 C   0  0  2  0  0  0  0  0  0  0  0  0
    6.4990    5.5090   19.2380 C   0  0  0  0  0  0  0  0  0  0  0  0
    7.6110    5.2570   18.2130 C   0  0  0  0  0  0  0  0  0  0  0  0
    6.8120    4.9030   16.9980 C   0  0  0  0  0  0  0  0  0  0  0  0
    7.2400    4.8720   15.6820 C   0  0  0  0  0  0  0  0  0  0  0  0
    6.3360    4.4570   14.7010 C   0  0  0  0  0  0  0  0  0  0  0  0
    5.0340    4.0650   15.0490 C   0  0  0  0  0  0  0  0  0  0  0  0
    4.6160    4.0870   16.3810 C   0  0  0  0  0  0  0  0  0  0  0  0
    5.5100    4.5220   17.3490 C   0  0  0  0  0  0  0  0  0  0  0  0
    5.4260    3.6060   19.2810 H   0  0  0  0  0  0  0  0  0  0  0  0
    6.8320    5.3250   20.2660 H   0  0  0  0  0  0  0  0  0  0  0  0
    6.2030    6.5680   19.1890 H   0  0  0  0  0  0  0  0  0  0  0  0
    8.2260    6.1500   18.0650 H   0  0  0  0  0  0  0  0  0  0  0  0
    8.2410    4.4120   18.5090 H   0  0  0  0  0  0  0  0  0  0  0  0
    8.2530    5.1530   15.4140 H   0  0  0  0  0  0  0  0  0  0  0  0
    6.6470    4.4220   13.6600 H   0  0  0  0  0  0  0  0  0  0  0  0
    4.3490    3.7260   14.2750 H   0  0  0  0  0  0  0  0  0  0  0  0
    3.6170    3.7560   16.6510 H   0  0  0  0  0  0  0  0  0  0  0  0
  1  2  1  0  0  0  0
  2  4  2  0  0  0  0
  2  3  1  0  0  0  0
  4  8  1  0  0  0  0
  5  9  1  0  0  0  0
  5  4  1  0  0  0  0
  6  5  2  0  0  0  0
  7  6  1  0  0  0  0
  7  1  2  0  0  0  0
 10 20  1  0  0  0  0
 11 16  1  0  0  0  0
 11 10  2  0  0  0  0
 12 11  1  0  0  0  0
 13 12  2  0  0  0  0
 13 14  1  0  0  0  0
 14 15  2  0  0  0  0
 15 10  1  0  0  0  0
 15  1  1  0  0  0  0
 17 12  1  0  0  0  0
 18 13  1  0  0  0  0
 19 14  1  0  0  0  0
 20 21  1  0  0  0  0
 22 20  1  0  0  0  0
 23 20  1  0  0  0  0
 24  7  1  0  0  0  0
 25 28  1  0  0  0  0
 25 24  1  0  0  0  0
 26 24  2  0  0  0  0
 27 25  1  0  0  0  0
 29 32  1  0  0  0  0
 29  6  1  0  0  0  0
 30 29  1  0  0  0  0
 31 29  1  0  0  0  0
 32 36  1  0  0  0  0
 33 35  1  0  0  0  0
 33 32  1  0  0  0  0
 34 33  2  0  0  0  0
 35 37  1  0  0  0  0
 38 35  1  0  0  0  0
 38 39  1  0  0  0  0
 38 47  1  1  0  0  0
 39 48  1  0  0  0  0
 40 51  1  0  0  0  0
 40 39  1  0  0  0  0
 41 46  1  0  0  0  0
 41 40  1  0  0  0  0
 42 41  2  0  0  0  0
 43 44  2  0  0  0  0
 43 42  1  0  0  0  0
 44 45  1  0  0  0  0
 45 55  1  0  0  0  0
 45 46  2  0  0  0  0
 46 38  1  0  0  0  0
 49 39  1  0  0  0  0
 50 40  1  0  0  0  0
 52 42  1  0  0  0  0
 53 43  1  0  0  0  0
 54 44  1  0  0  0  0
M  END
>  <MODEL>
5

>  <REMARK>
 VINA RESULT:    -7.383      5.188      8.389
 INTER + INTRA:         -11.043
 INTER:                 -10.484
 INTRA:                  -0.559
 UNBOUND:                -1.286
  Name = 
  6 active torsions:
  status: ('A' for Active; 'I' for Inactive)
    1  A    between atoms: C_1  and  C_2
    2  A    between atoms: C_7  and  C_8
    3  A    between atoms: C_13  and  C_14
    4  A    between atoms: C_14  and  N_15
    5  A    between atoms: N_18  and  C_19
    6  A    between atoms: C_28  and  C_29
                            x       y       z     vdW  Elec       q    Type
                         _______ _______ _______ _____ _____    ______ ____

>  <TORSDO>
F 6

$$$$
=
 OpenBabel07192307433D

 55 58  0  0  1  0  0  0  0  0999 V2000
   -1.3850   11.6640   21.4440 C   0  0  0  0  0  0  0  0  0  0  0  0
   -1.2360   11.1140   22.7260 C   0  0  0  0  0  0  0  0  0  0  0  0
   -1.8850   11.6550   23.7700 F   0  0  0  0  0  0  0  0  0  0  0  0
   -0.4170   10.0170   22.9690 C   0  0  0  0  0  0  0  0  0  0  0  0
    0.2830    9.4300   21.9180 C   0  0  0  0  0  0  0  0  0  0  0  0
    0.1590    9.9260   20.6080 C   0  0  0  0  0  0  0  0  0  0  0  0
   -0.6660   11.0550   20.3870 C   0  0  0  0  0  0  0  0  0  0  0  0
   -0.3200    9.6350   23.9810 H   0  0  0  0  0  0  0  0  0  0  0  0
    0.9360    8.5840   22.1260 H   0  0  0  0  0  0  0  0  0  0  0  0
   -1.7370   14.1750   21.4050 C   0  0  0  0  0  0  0  0  0  0  0  0
   -2.6000   15.2660   21.2040 C   0  0  0  0  0  0  0  0  0  0  0  0
   -3.9430   15.0680   20.8830 C   0  0  0  0  0  0  0  0  0  0  0  0
   -4.4400   13.7770   20.7480 C   0  0  0  0  0  0  0  0  0  0  0  0
   -3.5930   12.6840   20.9300 C   0  0  0  0  0  0  0  0  0  0  0  0
   -2.2340   12.8580   21.2590 C   0  0  0  0  0  0  0  0  0  0  0  0
   -2.2290   16.2850   21.2930 H   0  0  0  0  0  0  0  0  0  0  0  0
   -4.5970   15.9220   20.7310 H   0  0  0  0  0  0  0  0  0  0  0  0
   -5.4860   13.6170   20.4940 H   0  0  0  0  0  0  0  0  0  0  0  0
   -4.0050   11.6810   20.8150 H   0  0  0  0  0  0  0  0  0  0  0  0
   -0.2920   14.4550   21.7260 C   0  0  0  0  0  0  0  0  0  0  0  0
    0.1090   13.6700   22.3750 H   0  0  0  0  0  0  0  0  0  0  0  0
   -0.1760   15.4270   22.2140 H   0  0  0  0  0  0  0  0  0  0  0  0
    0.3140   14.4870   20.8150 H   0  0  0  0  0  0  0  0  0  0  0  0
   -0.7260   11.6320   19.0230 C   0  0  0  0  0  0  0  0  0  0  0  0
    0.2420   12.5360   18.6960 N   0  0  0  0  0  0  0  0  0  0  0  0
   -1.6220   11.3230   18.2490 O   0  0  0  0  0  0  0  0  0  0  0  0
    0.2810   12.8180   17.7240 H   0  0  0  0  0  0  0  0  0  0  0  0
    1.0910   12.6270   19.2370 H   0  0  0  0  0  0  0  0  0  0  0  0
    0.9510    9.2660   19.4980 C   0  0  0  0  0  0  0  0  0  0  0  0
    1.4310   10.0360   18.8830 H   0  0  0  0  0  0  0  0  0  0  0  0
    0.3300    8.6490   18.8430 H   0  0  0  0  0  0  0  0  0  0  0  0
    1.9620    8.3720   20.0350 N   0  0  0  0  0  0  0  0  0  0  0  0
    2.3530    7.2810   19.3000 C   0  0  0  0  0  0  0  0  0  0  0  0
    1.9790    7.0460   18.1620 O   0  0  0  0  0  0  0  0  0  0  0  0
    3.2170    6.4970   20.0200 N   0  0  0  0  0  0  0  0  0  0  0  0
    1.8940    8.1820   21.0250 H   0  0  0  0  0  0  0  0  0  0  0  0
    3.7850    7.0060   20.6800 H   0  0  0  0  0  0  0  0  0  0  0  0
    3.8530    5.3490   19.4080 C   0  0  2  0  0  0  0  0  0  0  0  0
    4.2210    5.6400   17.9400 C   0  0  0  0  0  0  0  0  0  0  0  0
    4.1380    4.3040   17.1910 C   0  0  0  0  0  0  0  0  0  0  0  0
    3.0790    3.5970   17.9760 C   0  0  0  0  0  0  0  0  0  0  0  0
    2.3530    2.4780   17.6050 C   0  0  0  0  0  0  0  0  0  0  0  0
    1.4430    1.9430   18.5200 C   0  0  0  0  0  0  0  0  0  0  0  0
    1.2880    2.5170   19.7910 C   0  0  0  0  0  0  0  0  0  0  0  0
    2.0340    3.6380   20.1620 C   0  0  0  0  0  0  0  0  0  0  0  0
    2.9190    4.1800   19.2400 C   0  0  0  0  0  0  0  0  0  0  0  0
    4.7380    5.0350   19.9750 H   0  0  0  0  0  0  0  0  0  0  0  0
    5.2070    6.1080   17.8460 H   0  0  0  0  0  0  0  0  0  0  0  0
    3.4970    6.3420   17.4970 H   0  0  0  0  0  0  0  0  0  0  0  0
    3.8560    4.4510   16.1440 H   0  0  0  0  0  0  0  0  0  0  0  0
    5.0830    3.7550   17.2520 H   0  0  0  0  0  0  0  0  0  0  0  0
    2.4890    2.0190   16.6310 H   0  0  0  0  0  0  0  0  0  0  0  0
    0.8630    1.0640   18.2540 H   0  0  0  0  0  0  0  0  0  0  0  0
    0.5900    2.0760   20.4990 H   0  0  0  0  0  0  0  0  0  0  0  0
    1.9330    4.0640   21.1560 H   0  0  0  0  0  0  0  0  0  0  0  0
  1  2  1  0  0  0  0
  2  4  2  0  0  0  0
  2  3  1  0  0  0  0
  4  8  1  0  0  0  0
  5  9  1  0  0  0  0
  5  4  1  0  0  0  0
  6  5  2  0  0  0  0
  7  6  1  0  0  0  0
  7  1  2  0  0  0  0
 10 20  1  0  0  0  0
 11 16  1  0  0  0  0
 11 10  2  0  0  0  0
 12 11  1  0  0  0  0
 13 12  2  0  0  0  0
 13 14  1  0  0  0  0
 14 15  2  0  0  0  0
 15 10  1  0  0  0  0
 15  1  1  0  0  0  0
 17 12  1  0  0  0  0
 18 13  1  0  0  0  0
 19 14  1  0  0  0  0
 20 22  1  0  0  0  0
 20 21  1  0  0  0  0
 23 20  1  0  0  0  0
 24  7  1  0  0  0  0
 25 24  1  0  0  0  0
 25 28  1  0  0  0  0
 26 24  2  0  0  0  0
 27 25  1  0  0  0  0
 29 32  1  0  0  0  0
 29  6  1  0  0  0  0
 30 29  1  0  0  0  0
 31 29  1  0  0  0  0
 32 36  1  0  0  0  0
 33 35  1  0  0  0  0
 33 32  1  0  0  0  0
 34 33  2  0  0  0  0
 35 37  1  0  0  0  0
 38 47  1  1  0  0  0
 38 35  1  0  0  0  0
 39 38  1  0  0  0  0
 40 51  1  0  0  0  0
 40 39  1  0  0  0  0
 40 41  1  0  0  0  0
 41 46  1  0  0  0  0
 42 41  2  0  0  0  0
 42 43  1  0  0  0  0
 43 44  2  0  0  0  0
 44 45  1  0  0  0  0
 44 54  1  0  0  0  0
 45 55  1  0  0  0  0
 46 38  1  0  0  0  0
 46 45  2  0  0  0  0
 48 39  1  0  0  0  0
 49 39  1  0  0  0  0
 50 40  1  0  0  0  0
 52 42  1  0  0  0  0
 53 43  1  0  0  0  0
M  END
>  <MODEL>
6

>  <REMARK>
 VINA RESULT:    -7.303      6.291     10.069
 INTER + INTRA:         -10.938
 INTER:                 -10.337
 INTRA:                  -0.601
 UNBOUND:                -1.286
  Name = 
  6 active torsions:
  status: ('A' for Active; 'I' for Inactive)
    1  A    between atoms: C_1  and  C_2
    2  A    between atoms: C_7  and  C_8
    3  A    between atoms: C_13  and  C_14
    4  A    between atoms: C_14  and  N_15
    5  A    between atoms: N_18  and  C_19
    6  A    between atoms: C_28  and  C_29
                            x       y       z     vdW  Elec       q    Type
                         _______ _______ _______ _____ _____    ______ ____

>  <TORSDO>
F 6

$$$$
=
 OpenBabel07192307433D

 55 58  0  0  1  0  0  0  0  0999 V2000
   -1.6270   11.8910   21.5600 C   0  0  0  0  0  0  0  0  0  0  0  0
   -1.5140   11.1310   22.7330 C   0  0  0  0  0  0  0  0  0  0  0  0
   -2.3340   11.3660   23.7700 F   0  0  0  0  0  0  0  0  0  0  0  0
   -0.5580   10.1300   22.8760 C   0  0  0  0  0  0  0  0  0  0  0  0
    0.3200    9.8590   21.8300 C   0  0  0  0  0  0  0  0  0  0  0  0
    0.2430   10.5770   20.6230 C   0  0  0  0  0  0  0  0  0  0  0  0
   -0.7260   11.6030   20.5060 C   0  0  0  0  0  0  0  0  0  0  0  0
   -0.4970    9.5780   23.8090 H   0  0  0  0  0  0  0  0  0  0  0  0
    1.0760    9.0860   21.9620 H   0  0  0  0  0  0  0  0  0  0  0  0
   -2.3710   14.2860   21.9390 C   0  0  0  0  0  0  0  0  0  0  0  0
   -3.3720   15.2670   21.8300 C   0  0  0  0  0  0  0  0  0  0  0  0
   -4.6250   14.9560   21.3030 C   0  0  0  0  0  0  0  0  0  0  0  0
   -4.8930   13.6640   20.8680 C   0  0  0  0  0  0  0  0  0  0  0  0
   -3.9050   12.6830   20.9550 C   0  0  0  0  0  0  0  0  0  0  0  0
   -2.6330   12.9700   21.4880 C   0  0  0  0  0  0  0  0  0  0  0  0
   -3.1800   16.2870   22.1540 H   0  0  0  0  0  0  0  0  0  0  0  0
   -5.3890   15.7250   21.2260 H   0  0  0  0  0  0  0  0  0  0  0  0
   -5.8680   13.4160   20.4530 H   0  0  0  0  0  0  0  0  0  0  0  0
   -4.1370   11.6770   20.6040 H   0  0  0  0  0  0  0  0  0  0  0  0
   -1.0300   14.6900   22.4940 C   0  0  0  0  0  0  0  0  0  0  0  0
   -0.3110   14.8290   21.6800 H   0  0  0  0  0  0  0  0  0  0  0  0
   -0.6500   13.9400   23.1940 H   0  0  0  0  0  0  0  0  0  0  0  0
   -1.1010   15.6310   23.0500 H   0  0  0  0  0  0  0  0  0  0  0  0
   -0.7480   12.4180   19.2690 C   0  0  0  0  0  0  0  0  0  0  0  0
   -1.5570   11.9800   18.2610 N   0  0  0  0  0  0  0  0  0  0  0  0
   -0.0480   13.4160   19.1620 O   0  0  0  0  0  0  0  0  0  0  0  0
   -1.6770   12.6110   17.4780 H   0  0  0  0  0  0  0  0  0  0  0  0
   -2.2860   11.2990   18.4200 H   0  0  0  0  0  0  0  0  0  0  0  0
    1.2280   10.2580   19.5180 C   0  0  0  0  0  0  0  0  0  0  0  0
    2.0500   10.9820   19.5410 H   0  0  0  0  0  0  0  0  0  0  0  0
    0.7760   10.2920   18.5230 H   0  0  0  0  0  0  0  0  0  0  0  0
    1.7590    8.9140   19.6610 N   0  0  0  0  0  0  0  0  0  0  0  0
    1.9710    8.1520   18.5390 C   0  0  0  0  0  0  0  0  0  0  0  0
    1.8330    8.5560   17.3950 O   0  0  0  0  0  0  0  0  0  0  0  0
    2.3550    6.8820   18.8820 N   0  0  0  0  0  0  0  0  0  0  0  0
    1.3980    8.3840   20.4410 H   0  0  0  0  0  0  0  0  0  0  0  0
    2.8710    6.8260   19.7470 H   0  0  0  0  0  0  0  0  0  0  0  0
    2.7440    5.9300   17.8630 C   0  0  2  0  0  0  0  0  0  0  0  0
    2.5420    4.4820   18.3550 C   0  0  0  0  0  0  0  0  0  0  0  0
    3.6070    3.6270   17.6590 C   0  0  0  0  0  0  0  0  0  0  0  0
    4.7110    4.6220   17.4860 C   0  0  0  0  0  0  0  0  0  0  0  0
    6.0420    4.3710   17.1990 C   0  0  0  0  0  0  0  0  0  0  0  0
    6.9000    5.4590   17.0250 C   0  0  0  0  0  0  0  0  0  0  0  0
    6.4160    6.7730   17.1190 C   0  0  0  0  0  0  0  0  0  0  0  0
    5.0690    7.0170   17.3960 C   0  0  0  0  0  0  0  0  0  0  0  0
    4.2260    5.9320   17.5920 C   0  0  0  0  0  0  0  0  0  0  0  0
    2.1980    6.1020   16.9280 H   0  0  0  0  0  0  0  0  0  0  0  0
    1.5260    4.1180   18.1610 H   0  0  0  0  0  0  0  0  0  0  0  0
    2.6940    4.4240   19.4430 H   0  0  0  0  0  0  0  0  0  0  0  0
    3.9040    2.7760   18.2800 H   0  0  0  0  0  0  0  0  0  0  0  0
    3.2600    3.2760   16.6820 H   0  0  0  0  0  0  0  0  0  0  0  0
    6.4130    3.3560   17.1030 H   0  0  0  0  0  0  0  0  0  0  0  0
    7.9490    5.2890   16.7970 H   0  0  0  0  0  0  0  0  0  0  0  0
    7.0930    7.6090   16.9610 H   0  0  0  0  0  0  0  0  0  0  0  0
    4.6900    8.0340   17.4400 H   0  0  0  0  0  0  0  0  0  0  0  0
  1  2  1  0  0  0  0
  2  4  2  0  0  0  0
  2  3  1  0  0  0  0
  4  8  1  0  0  0  0
  5  9  1  0  0  0  0
  5  4  1  0  0  0  0
  6  5  2  0  0  0  0
  7  6  1  0  0  0  0
  7  1  2  0  0  0  0
 10 20  1  0  0  0  0
 11 10  1  0  0  0  0
 11 16  1  0  0  0  0
 12 11  2  0  0  0  0
 13 14  2  0  0  0  0
 13 12  1  0  0  0  0
 14 15  1  0  0  0  0
 15  1  1  0  0  0  0
 15 10  2  0  0  0  0
 17 12  1  0  0  0  0
 18 13  1  0  0  0  0
 19 14  1  0  0  0  0
 20 23  1  0  0  0  0
 20 22  1  0  0  0  0
 21 20  1  0  0  0  0
 24  7  1  0  0  0  0
 25 28  1  0  0  0  0
 25 24  1  0  0  0  0
 26 24  2  0  0  0  0
 27 25  1  0  0  0  0
 29 30  1  0  0  0  0
 29 32  1  0  0  0  0
 29  6  1  0  0  0  0
 31 29  1  0  0  0  0
 32 36  1  0  0  0  0
 33 35  1  0  0  0  0
 33 32  1  0  0  0  0
 34 33  2  0  0  0  0
 35 37  1  0  0  0  0
 38 47  1  6  0  0  0
 38 39  1  0  0  0  0
 38 35  1  0  0  0  0
 39 49  1  0  0  0  0
 40 50  1  0  0  0  0
 40 39  1  0  0  0  0
 41 46  1  0  0  0  0
 41 40  1  0  0  0  0
 42 41  2  0  0  0  0
 43 44  2  0  0  0  0
 43 42  1  0  0  0  0
 44 45  1  0  0  0  0
 45 55  1  0  0  0  0
 45 46  2  0  0  0  0
 46 38  1  0  0  0  0
 48 39  1  0  0  0  0
 51 40  1  0  0  0  0
 52 42  1  0  0  0  0
 53 43  1  0  0  0  0
 54 44  1  0  0  0  0
M  END
>  <MODEL>
7

>  <REMARK>
 VINA RESULT:    -7.285      6.662      9.514
 INTER + INTRA:         -10.913
 INTER:                  -9.643
 INTRA:                  -1.271
 UNBOUND:                -1.286
  Name = 
  6 active torsions:
  status: ('A' for Active; 'I' for Inactive)
    1  A    between atoms: C_1  and  C_2
    2  A    between atoms: C_7  and  C_8
    3  A    between atoms: C_13  and  C_14
    4  A    between atoms: C_14  and  N_15
    5  A    between atoms: N_18  and  C_19
    6  A    between atoms: C_28  and  C_29
                            x       y       z     vdW  Elec       q    Type
                         _______ _______ _______ _____ _____    ______ ____

>  <TORSDO>
F 6

$$$$
=
 OpenBabel07192307433D

 55 58  0  0  1  0  0  0  0  0999 V2000
   -0.3350   13.2300   20.9730 C   0  0  0  0  0  0  0  0  0  0  0  0
    0.7210   13.9660   21.5310 C   0  0  0  0  0  0  0  0  0  0  0  0
    0.5480   14.6180   22.6920 F   0  0  0  0  0  0  0  0  0  0  0  0
    1.9640   14.0600   20.9140 C   0  0  0  0  0  0  0  0  0  0  0  0
    2.1860   13.4070   19.7040 C   0  0  0  0  0  0  0  0  0  0  0  0
    1.1710   12.6400   19.1040 C   0  0  0  0  0  0  0  0  0  0  0  0
   -0.0920   12.5730   19.7410 C   0  0  0  0  0  0  0  0  0  0  0  0
    2.7480   14.6530   21.3760 H   0  0  0  0  0  0  0  0  0  0  0  0
    3.1580   13.5050   19.2220 H   0  0  0  0  0  0  0  0  0  0  0  0
   -1.9970   12.2070   22.5920 C   0  0  0  0  0  0  0  0  0  0  0  0
   -3.2580   12.2520   23.2110 C   0  0  0  0  0  0  0  0  0  0  0  0
   -4.1730   13.2560   22.8980 C   0  0  0  0  0  0  0  0  0  0  0  0
   -3.8380   14.2360   21.9710 C   0  0  0  0  0  0  0  0  0  0  0  0
   -2.5850   14.2130   21.3590 C   0  0  0  0  0  0  0  0  0  0  0  0
   -1.6440   13.2070   21.6540 C   0  0  0  0  0  0  0  0  0  0  0  0
   -3.5360   11.5020   23.9480 H   0  0  0  0  0  0  0  0  0  0  0  0
   -5.1450   13.2780   23.3850 H   0  0  0  0  0  0  0  0  0  0  0  0
   -4.5470   15.0240   21.7260 H   0  0  0  0  0  0  0  0  0  0  0  0
   -2.3430   14.9940   20.6380 H   0  0  0  0  0  0  0  0  0  0  0  0
   -1.0430   11.1110   22.9900 C   0  0  0  0  0  0  0  0  0  0  0  0
   -1.1630   10.8730   24.0510 H   0  0  0  0  0  0  0  0  0  0  0  0
   -0.0050   11.3990   22.7950 H   0  0  0  0  0  0  0  0  0  0  0  0
   -1.2290   10.1980   22.4130 H   0  0  0  0  0  0  0  0  0  0  0  0
   -1.1870   11.8400   19.0650 C   0  0  0  0  0  0  0  0  0  0  0  0
   -1.8950   12.5260   18.1220 N   0  0  0  0  0  0  0  0  0  0  0  0
   -1.4500   10.6840   19.3700 O   0  0  0  0  0  0  0  0  0  0  0  0
   -2.5440   11.9830   17.5660 H   0  0  0  0  0  0  0  0  0  0  0  0
   -1.5500   13.3860   17.7180 H   0  0  0  0  0  0  0  0  0  0  0  0
    1.4530   11.9600   17.7810 C   0  0  0  0  0  0  0  0  0  0  0  0
    1.8840   12.6860   17.0820 H   0  0  0  0  0  0  0  0  0  0  0  0
    0.5550   11.5400   17.3200 H   0  0  0  0  0  0  0  0  0  0  0  0
    2.3670   10.8440   17.9490 N   0  0  0  0  0  0  0  0  0  0  0  0
    1.8730    9.5640   17.9310 C   0  0  0  0  0  0  0  0  0  0  0  0
    0.7120    9.2750   17.6870 O   0  0  0  0  0  0  0  0  0  0  0  0
    2.8610    8.6610   18.2270 N   0  0  0  0  0  0  0  0  0  0  0  0
    3.0990   10.9800   18.6300 H   0  0  0  0  0  0  0  0  0  0  0  0
    3.7830    8.9480   17.9370 H   0  0  0  0  0  0  0  0  0  0  0  0
    2.6030    7.2370   18.1560 C   0  0  2  0  0  0  0  0  0  0  0  0
    2.3670    6.6500   19.5620 C   0  0  0  0  0  0  0  0  0  0  0  0
    2.8630    5.1990   19.5220 C   0  0  0  0  0  0  0  0  0  0  0  0
    3.9520    5.2930   18.5000 C   0  0  0  0  0  0  0  0  0  0  0  0
    4.9670    4.3830   18.2560 C   0  0  0  0  0  0  0  0  0  0  0  0
    5.8530    4.6430   17.2080 C   0  0  0  0  0  0  0  0  0  0  0  0
    5.7020    5.7890   16.4120 C   0  0  0  0  0  0  0  0  0  0  0  0
    4.6680    6.6940   16.6570 C   0  0  0  0  0  0  0  0  0  0  0  0
    3.8040    6.4440   17.7140 C   0  0  0  0  0  0  0  0  0  0  0  0
    1.7540    7.0190   17.4970 H   0  0  0  0  0  0  0  0  0  0  0  0
    1.3170    6.7200   19.8680 H   0  0  0  0  0  0  0  0  0  0  0  0
    2.9510    7.2050   20.3110 H   0  0  0  0  0  0  0  0  0  0  0  0
    3.2340    4.8780   20.5000 H   0  0  0  0  0  0  0  0  0  0  0  0
    2.0780    4.5200   19.1750 H   0  0  0  0  0  0  0  0  0  0  0  0
    5.0710    3.4840   18.8560 H   0  0  0  0  0  0  0  0  0  0  0  0
    6.6570    3.9440   16.9950 H   0  0  0  0  0  0  0  0  0  0  0  0
    6.3890    5.9660   15.5880 H   0  0  0  0  0  0  0  0  0  0  0  0
    4.5350    7.5660   16.0220 H   0  0  0  0  0  0  0  0  0  0  0  0
  1  2  1  0  0  0  0
  1 15  1  0  0  0  0
  2  3  1  0  0  0  0
  4  8  1  0  0  0  0
  4  2  2  0  0  0  0
  5  4  1  0  0  0  0
  6  5  2  0  0  0  0
  6  7  1  0  0  0  0
  7  1  2  0  0  0  0
  9  5  1  0  0  0  0
 10 20  1  0  0  0  0
 10 11  1  0  0  0  0
 11 16  1  0  0  0  0
 12 11  2  0  0  0  0
 12 17  1  0  0  0  0
 13 12  1  0  0  0  0
 14 15  1  0  0  0  0
 14 13  2  0  0  0  0
 15 10  2  0  0  0  0
 18 13  1  0  0  0  0
 19 14  1  0  0  0  0
 20 21  1  0  0  0  0
 22 20  1  0  0  0  0
 23 20  1  0  0  0  0
 24 26  2  0  0  0  0
 24  7  1  0  0  0  0
 25 24  1  0  0  0  0
 27 25  1  0  0  0  0
 28 25  1  0  0  0  0
 29 32  1  0  0  0  0
 29  6  1  0  0  0  0
 30 29  1  0  0  0  0
 31 29  1  0  0  0  0
 32 36  1  0  0  0  0
 33 32  1  0  0  0  0
 33 35  1  0  0  0  0
 34 33  2  0  0  0  0
 37 35  1  0  0  0  0
 38 47  1  6  0  0  0
 38 35  1  0  0  0  0
 38 39  1  0  0  0  0
 39 48  1  0  0  0  0
 39 49  1  0  0  0  0
 40 39  1  0  0  0  0
 40 50  1  0  0  0  0
 41 40  1  0  0  0  0
 42 41  1  0  0  0  0
 42 52  1  0  0  0  0
 43 42  2  0  0  0  0
 44 45  2  0  0  0  0
 44 43  1  0  0  0  0
 45 46  1  0  0  0  0
 46 38  1  0  0  0  0
 46 41  2  0  0  0  0
 51 40  1  0  0  0  0
 53 43  1  0  0  0  0
 54 44  1  0  0  0  0
 55 45  1  0  0  0  0
M  END
>  <MODEL>
8

>  <REMARK>
 VINA RESULT:    -7.261      6.574      9.216
 INTER + INTRA:         -10.882
 INTER:                  -9.344
 INTRA:                  -1.538
 UNBOUND:                -1.286
  Name = 
  6 active torsions:
  status: ('A' for Active; 'I' for Inactive)
    1  A    between atoms: C_1  and  C_2
    2  A    between atoms: C_7  and  C_8
    3  A    between atoms: C_13  and  C_14
    4  A    between atoms: C_14  and  N_15
    5  A    between atoms: N_18  and  C_19
    6  A    between atoms: C_28  and  C_29
                            x       y       z     vdW  Elec       q    Type
                         _______ _______ _______ _____ _____    ______ ____

>  <TORSDO>
F 6

$$$$
=
 OpenBabel07192307433D

 55 58  0  0  1  0  0  0  0  0999 V2000
   -0.6980   11.4200   20.8910 C   0  0  0  0  0  0  0  0  0  0  0  0
   -0.5540   10.5500   21.9830 C   0  0  0  0  0  0  0  0  0  0  0  0
   -1.1820   10.8110   23.1400 F   0  0  0  0  0  0  0  0  0  0  0  0
    0.2390    9.4090   21.9190 C   0  0  0  0  0  0  0  0  0  0  0  0
    0.9170    9.1040   20.7420 C   0  0  0  0  0  0  0  0  0  0  0  0
    0.7970    9.9290   19.6090 C   0  0  0  0  0  0  0  0  0  0  0  0
   -0.0010   11.0940   19.7020 C   0  0  0  0  0  0  0  0  0  0  0  0
    0.3340    8.7730   22.7940 H   0  0  0  0  0  0  0  0  0  0  0  0
    1.5510    8.2180   20.7110 H   0  0  0  0  0  0  0  0  0  0  0  0
   -0.9840   13.8650   21.4980 C   0  0  0  0  0  0  0  0  0  0  0  0
   -1.8210   14.9890   21.6030 C   0  0  0  0  0  0  0  0  0  0  0  0
   -3.1750   14.9070   21.2790 C   0  0  0  0  0  0  0  0  0  0  0  0
   -3.7090   13.7030   20.8350 C   0  0  0  0  0  0  0  0  0  0  0  0
   -2.8880   12.5820   20.7120 C   0  0  0  0  0  0  0  0  0  0  0  0
   -1.5180   12.6390   21.0370 C   0  0  0  0  0  0  0  0  0  0  0  0
   -1.4210   15.9440   21.9370 H   0  0  0  0  0  0  0  0  0  0  0  0
   -3.8100   15.7850   21.3650 H   0  0  0  0  0  0  0  0  0  0  0  0
   -4.7640   13.6340   20.5770 H   0  0  0  0  0  0  0  0  0  0  0  0
   -3.3290   11.6500   20.3580 H   0  0  0  0  0  0  0  0  0  0  0  0
    0.4740   14.0250   21.8400 C   0  0  0  0  0  0  0  0  0  0  0  0
    0.6670   13.6560   22.8530 H   0  0  0  0  0  0  0  0  0  0  0  0
    0.7860   15.0710   21.7670 H   0  0  0  0  0  0  0  0  0  0  0  0
    1.1060   13.4600   21.1460 H   0  0  0  0  0  0  0  0  0  0  0  0
   -0.0560   12.0100   18.5380 C   0  0  0  0  0  0  0  0  0  0  0  0
   -1.0440   11.7820   17.6250 N   0  0  0  0  0  0  0  0  0  0  0  0
    0.7690   12.9030   18.4030 O   0  0  0  0  0  0  0  0  0  0  0  0
   -1.1650   12.4900   16.9110 H   0  0  0  0  0  0  0  0  0  0  0  0
   -1.8420   11.2010   17.8370 H   0  0  0  0  0  0  0  0  0  0  0  0
    1.5650    9.5660   18.3540 C   0  0  0  0  0  0  0  0  0  0  0  0
    2.6320    9.7580   18.5100 H   0  0  0  0  0  0  0  0  0  0  0  0
    1.2430   10.1370   17.4790 H   0  0  0  0  0  0  0  0  0  0  0  0
    1.3680    8.1700   18.0050 N   0  0  0  0  0  0  0  0  0  0  0  0
    2.3670    7.2660   18.2640 C   0  0  0  0  0  0  0  0  0  0  0  0
    3.3980    7.5280   18.8640 O   0  0  0  0  0  0  0  0  0  0  0  0
    2.0470    6.0330   17.7560 N   0  0  0  0  0  0  0  0  0  0  0  0
    0.8960    8.0020   17.1290 H   0  0  0  0  0  0  0  0  0  0  0  0
    1.0580    5.8380   17.7360 H   0  0  0  0  0  0  0  0  0  0  0  0
    2.9000    4.8900   18.0060 C   0  0  2  0  0  0  0  0  0  0  0  0
    2.6560    3.7810   16.9620 C   0  0  0  0  0  0  0  0  0  0  0  0
    2.9350    2.4460   17.6640 C   0  0  0  0  0  0  0  0  0  0  0  0
    2.5630    2.7770   19.0750 C   0  0  0  0  0  0  0  0  0  0  0  0
    2.3100    1.8970   20.1140 C   0  0  0  0  0  0  0  0  0  0  0  0
    2.0310    2.4240   21.3770 C   0  0  0  0  0  0  0  0  0  0  0  0
    2.0290    3.8120   21.5870 C   0  0  0  0  0  0  0  0  0  0  0  0
    2.2980    4.6910   20.5370 C   0  0  0  0  0  0  0  0  0  0  0  0
    2.5510    4.1630   19.2780 C   0  0  0  0  0  0  0  0  0  0  0  0
    3.9580    5.1790   18.0250 H   0  0  0  0  0  0  0  0  0  0  0  0
    3.2730    3.9150   16.0660 H   0  0  0  0  0  0  0  0  0  0  0  0
    1.6080    3.7960   16.6280 H   0  0  0  0  0  0  0  0  0  0  0  0
    2.3210    1.6420   17.2470 H   0  0  0  0  0  0  0  0  0  0  0  0
    3.9950    2.1800   17.6060 H   0  0  0  0  0  0  0  0  0  0  0  0
    2.3340    0.8230   19.9580 H   0  0  0  0  0  0  0  0  0  0  0  0
    1.8310    1.7550   22.2090 H   0  0  0  0  0  0  0  0  0  0  0  0
    1.8300    4.2050   22.5810 H   0  0  0  0  0  0  0  0  0  0  0  0
    2.3240    5.7640   20.7080 H   0  0  0  0  0  0  0  0  0  0  0  0
  1 15  1  0  0  0  0
  1  2  1  0  0  0  0
  2  3  1  0  0  0  0
  4  2  2  0  0  0  0
  4  8  1  0  0  0  0
  5  4  1  0  0  0  0
  6  7  1  0  0  0  0
  6  5  2  0  0  0  0
  7  1  2  0  0  0  0
  9  5  1  0  0  0  0
 10 11  1  0  0  0  0
 10 20  1  0  0  0  0
 11 16  1  0  0  0  0
 12 17  1  0  0  0  0
 12 11  2  0  0  0  0
 13 12  1  0  0  0  0
 14 13  2  0  0  0  0
 14 15  1  0  0  0  0
 15 10  2  0  0  0  0
 18 13  1  0  0  0  0
 19 14  1  0  0  0  0
 20 21  1  0  0  0  0
 22 20  1  0  0  0  0
 23 20  1  0  0  0  0
 24  7  1  0  0  0  0
 25 28  1  0  0  0  0
 25 24  1  0  0  0  0
 26 24  2  0  0  0  0
 27 25  1  0  0  0  0
 29 30  1  0  0  0  0
 29  6  1  0  0  0  0
 31 29  1  0  0  0  0
 32 33  1  0  0  0  0
 32 29  1  0  0  0  0
 33 34  2  0  0  0  0
 35 38  1  0  0  0  0
 35 33  1  0  0  0  0
 36 32  1  0  0  0  0
 37 35  1  0  0  0  0
 38 47  1  1  0  0  0
 38 46  1  0  0  0  0
 39 40  1  0  0  0  0
 39 38  1  0  0  0  0
 40 41  1  0  0  0  0
 41 46  2  0  0  0  0
 41 42  1  0  0  0  0
 42 43  2  0  0  0  0
 43 44  1  0  0  0  0
 43 53  1  0  0  0  0
 44 54  1  0  0  0  0
 45 55  1  0  0  0  0
 45 44  2  0  0  0  0
 46 45  1  0  0  0  0
 48 39  1  0  0  0  0
 49 39  1  0  0  0  0
 50 40  1  0  0  0  0
 51 40  1  0  0  0  0
 52 42  1  0  0  0  0
M  END
>  <MODEL>
9

>  <REMARK>
 VINA RESULT:    -7.160      5.827      9.877
 INTER + INTRA:         -10.749
 INTER:                  -9.476
 INTRA:                  -1.273
 UNBOUND:                -1.286
  Name = 
  6 active torsions:
  status: ('A' for Active; 'I' for Inactive)
    1  A    between atoms: C_1  and  C_2
    2  A    between atoms: C_7  and  C_8
    3  A    between atoms: C_13  and  C_14
    4  A    between atoms: C_14  and  N_15
    5  A    between atoms: N_18  and  C_19
    6  A    between atoms: C_28  and  C_29
                            x       y       z     vdW  Elec       q    Type
                         _______ _______ _______ _____ _____    ______ ____

>  <TORSDO>
F 6

$$$$
=
 OpenBabel07192307433D

 55 58  0  0  1  0  0  0  0  0999 V2000
    3.9400    4.0180   19.3230 C   0  0  0  0  0  0  0  0  0  0  0  0
    3.9190    2.8660   20.1240 C   0  0  0  0  0  0  0  0  0  0  0  0
    4.8320    1.8990   19.9370 F   0  0  0  0  0  0  0  0  0  0  0  0
    2.9640    2.6730   21.1170 C   0  0  0  0  0  0  0  0  0  0  0  0
    1.9920    3.6450   21.3390 C   0  0  0  0  0  0  0  0  0  0  0  0
    1.9730    4.8290   20.5800 C   0  0  0  0  0  0  0  0  0  0  0  0
    2.9430    4.9960   19.5620 C   0  0  0  0  0  0  0  0  0  0  0  0
    2.9780    1.7580   21.7020 H   0  0  0  0  0  0  0  0  0  0  0  0
    1.2390    3.4730   22.1070 H   0  0  0  0  0  0  0  0  0  0  0  0
    4.7150    3.7100   16.9280 C   0  0  0  0  0  0  0  0  0  0  0  0
    5.7200    3.8700   15.9590 C   0  0  0  0  0  0  0  0  0  0  0  0
    6.9540    4.4270   16.2920 C   0  0  0  0  0  0  0  0  0  0  0  0
    7.1970    4.8440   17.5950 C   0  0  0  0  0  0  0  0  0  0  0  0
    6.2050    4.7070   18.5650 C   0  0  0  0  0  0  0  0  0  0  0  0
    4.9520    4.1420   18.2550 C   0  0  0  0  0  0  0  0  0  0  0  0
    5.5460    3.5600   14.9300 H   0  0  0  0  0  0  0  0  0  0  0  0
    7.7220    4.5430   15.5310 H   0  0  0  0  0  0  0  0  0  0  0  0
    8.1570    5.2840   17.8590 H   0  0  0  0  0  0  0  0  0  0  0  0
    6.4170    5.0450   19.5800 H   0  0  0  0  0  0  0  0  0  0  0  0
    3.3950    3.1230   16.5010 C   0  0  0  0  0  0  0  0  0  0  0  0
    2.6310    3.3220   17.2580 H   0  0  0  0  0  0  0  0  0  0  0  0
    3.4760    2.0440   16.3380 H   0  0  0  0  0  0  0  0  0  0  0  0
    3.0580    3.5590   15.5540 H   0  0  0  0  0  0  0  0  0  0  0  0
    2.8690    6.2010   18.7040 C   0  0  0  0  0  0  0  0  0  0  0  0
    2.0370    6.1350   17.6240 N   0  0  0  0  0  0  0  0  0  0  0  0
    3.5470    7.1890   18.9490 O   0  0  0  0  0  0  0  0  0  0  0  0
    1.8820    7.0020   17.1250 H   0  0  0  0  0  0  0  0  0  0  0  0
    1.3250    5.4220   17.5430 H   0  0  0  0  0  0  0  0  0  0  0  0
    0.8880    5.8510   20.8460 C   0  0  0  0  0  0  0  0  0  0  0  0
    0.2530    5.5040   21.6700 H   0  0  0  0  0  0  0  0  0  0  0  0
    0.2480    6.0280   19.9780 H   0  0  0  0  0  0  0  0  0  0  0  0
    1.4580    7.1440   21.1830 N   0  0  0  0  0  0  0  0  0  0  0  0
    0.6210    8.2020   21.4340 C   0  0  0  0  0  0  0  0  0  0  0  0
   -0.5970    8.1210   21.4890 O   0  0  0  0  0  0  0  0  0  0  0  0
    1.3390    9.3560   21.6100 N   0  0  0  0  0  0  0  0  0  0  0  0
    2.2850    7.4040   20.6650 H   0  0  0  0  0  0  0  0  0  0  0  0
    2.2560    9.2160   22.0050 H   0  0  0  0  0  0  0  0  0  0  0  0
    0.6760   10.5840   22.0000 C   0  0  2  0  0  0  0  0  0  0  0  0
   -0.4360   10.3060   23.0310 C   0  0  0  0  0  0  0  0  0  0  0  0
   -1.5160   11.3720   22.8120 C   0  0  0  0  0  0  0  0  0  0  0  0
   -1.3680   11.6390   21.3470 C   0  0  0  0  0  0  0  0  0  0  0  0
   -2.2640   12.2770   20.5060 C   0  0  0  0  0  0  0  0  0  0  0  0
   -1.9000   12.4700   19.1720 C   0  0  0  0  0  0  0  0  0  0  0  0
   -0.6480   12.0430   18.7040 C   0  0  0  0  0  0  0  0  0  0  0  0
    0.2550   11.4120   19.5620 C   0  0  0  0  0  0  0  0  0  0  0  0
   -0.1210   11.2010   20.8810 C   0  0  0  0  0  0  0  0  0  0  0  0
    1.3930   11.3160   22.3890 H   0  0  0  0  0  0  0  0  0  0  0  0
   -0.0550   10.3060   24.0590 H   0  0  0  0  0  0  0  0  0  0  0  0
   -0.8760    9.3130   22.8590 H   0  0  0  0  0  0  0  0  0  0  0  0
   -2.5090   10.9930   23.0710 H   0  0  0  0  0  0  0  0  0  0  0  0
   -1.3000   12.2810   23.3840 H   0  0  0  0  0  0  0  0  0  0  0  0
   -3.2240   12.6280   20.8720 H   0  0  0  0  0  0  0  0  0  0  0  0
   -2.5850   12.9700   18.4920 H   0  0  0  0  0  0  0  0  0  0  0  0
   -0.3720   12.2190   17.6670 H   0  0  0  0  0  0  0  0  0  0  0  0
    1.2350   11.1080   19.2050 H   0  0  0  0  0  0  0  0  0  0  0  0
  1  7  2  0  0  0  0
  1  2  1  0  0  0  0
  2  4  2  0  0  0  0
  3  2  1  0  0  0  0
  4  5  1  0  0  0  0
  4  8  1  0  0  0  0
  5  9  1  0  0  0  0
  6 29  1  0  0  0  0
  6  5  2  0  0  0  0
  7  6  1  0  0  0  0
 10 15  1  0  0  0  0
 11 12  1  0  0  0  0
 11 10  2  0  0  0  0
 12 13  2  0  0  0  0
 13 18  1  0  0  0  0
 13 14  1  0  0  0  0
 14 19  1  0  0  0  0
 15 14  2  0  0  0  0
 15  1  1  0  0  0  0
 16 11  1  0  0  0  0
 17 12  1  0  0  0  0
 20 10  1  0  0  0  0
 20 21  1  0  0  0  0
 22 20  1  0  0  0  0
 23 20  1  0  0  0  0
 24 26  2  0  0  0  0
 24  7  1  0  0  0  0
 25 24  1  0  0  0  0
 27 25  1  0  0  0  0
 28 25  1  0  0  0  0
 29 32  1  0  0  0  0
 29 30  1  0  0  0  0
 31 29  1  0  0  0  0
 32 33  1  0  0  0  0
 33 34  2  0  0  0  0
 33 35  1  0  0  0  0
 35 38  1  0  0  0  0
 35 37  1  0  0  0  0
 36 32  1  0  0  0  0
 38 47  1  1  0  0  0
 38 39  1  0  0  0  0
 39 48  1  0  0  0  0
 40 39  1  0  0  0  0
 40 50  1  0  0  0  0
 40 51  1  0  0  0  0
 41 40  1  0  0  0  0
 42 52  1  0  0  0  0
 42 41  2  0  0  0  0
 43 42  1  0  0  0  0
 44 43  2  0  0  0  0
 44 45  1  0  0  0  0
 45 46  2  0  0  0  0
 46 41  1  0  0  0  0
 46 38  1  0  0  0  0
 49 39  1  0  0  0  0
 53 43  1  0  0  0  0
 54 44  1  0  0  0  0
 55 45  1  0  0  0  0
M  END
>  <MODEL>
10

>  <REMARK>
 VINA RESULT:    -7.136      5.360      7.519
 INTER + INTRA:         -10.717
 INTER:                 -10.195
 INTRA:                  -0.522
 UNBOUND:                -1.286
  Name = 
  6 active torsions:
  status: ('A' for Active; 'I' for Inactive)
    1  A    between atoms: C_1  and  C_2
    2  A    between atoms: C_7  and  C_8
    3  A    between atoms: C_13  and  C_14
    4  A    between atoms: C_14  and  N_15
    5  A    between atoms: N_18  and  C_19
    6  A    between atoms: C_28  and  C_29
                            x       y       z     vdW  Elec       q    Type
                         _______ _______ _______ _____ _____    ______ ____

>  <TORSDO>
F 6

$$$$
=
 OpenBabel07192307433D

 55 58  0  0  1  0  0  0  0  0999 V2000
   -0.5150   12.6900   20.2930 C   0  0  0  0  0  0  0  0  0  0  0  0
    0.3500   13.7940   20.3420 C   0  0  0  0  0  0  0  0  0  0  0  0
   -0.0020   14.8950   21.0250 F   0  0  0  0  0  0  0  0  0  0  0  0
    1.5780   13.8000   19.6890 C   0  0  0  0  0  0  0  0  0  0  0  0
    1.9790   12.6830   18.9610 C   0  0  0  0  0  0  0  0  0  0  0  0
    1.1620   11.5400   18.8900 C   0  0  0  0  0  0  0  0  0  0  0  0
   -0.0920   11.5630   19.5480 C   0  0  0  0  0  0  0  0  0  0  0  0
    2.2080   14.6830   19.7420 H   0  0  0  0  0  0  0  0  0  0  0  0
    2.9340   12.7080   18.4380 H   0  0  0  0  0  0  0  0  0  0  0  0
   -2.0490   12.2160   22.2560 C   0  0  0  0  0  0  0  0  0  0  0  0
   -3.3200   12.3310   22.8450 C   0  0  0  0  0  0  0  0  0  0  0  0
   -4.3680   12.9580   22.1720 C   0  0  0  0  0  0  0  0  0  0  0  0
   -4.1580   13.4890   20.9050 C   0  0  0  0  0  0  0  0  0  0  0  0
   -2.8990   13.3960   20.3120 C   0  0  0  0  0  0  0  0  0  0  0  0
   -1.8250   12.7630   20.9700 C   0  0  0  0  0  0  0  0  0  0  0  0
   -3.5030   11.9330   23.8410 H   0  0  0  0  0  0  0  0  0  0  0  0
   -5.3450   13.0390   22.6410 H   0  0  0  0  0  0  0  0  0  0  0  0
   -4.9710   13.9830   20.3760 H   0  0  0  0  0  0  0  0  0  0  0  0
   -2.7570   13.8240   19.3190 H   0  0  0  0  0  0  0  0  0  0  0  0
   -0.9530   11.5490   23.0440 C   0  0  0  0  0  0  0  0  0  0  0  0
   -0.6310   10.6320   22.5410 H   0  0  0  0  0  0  0  0  0  0  0  0
   -1.2830   11.3110   24.0600 H   0  0  0  0  0  0  0  0  0  0  0  0
   -0.0830   12.2060   23.1430 H   0  0  0  0  0  0  0  0  0  0  0  0
   -0.9900   10.3940   19.3990 C   0  0  0  0  0  0  0  0  0  0  0  0
   -1.8850   10.4350   18.3690 N   0  0  0  0  0  0  0  0  0  0  0  0
   -0.9390    9.4590   20.1860 O   0  0  0  0  0  0  0  0  0  0  0  0
   -2.3960    9.5800   18.1860 H   0  0  0  0  0  0  0  0  0  0  0  0
   -1.7850   11.0860   17.6020 H   0  0  0  0  0  0  0  0  0  0  0  0
    1.6320   10.3540   18.0740 C   0  0  0  0  0  0  0  0  0  0  0  0
    2.6110   10.5790   17.6340 H   0  0  0  0  0  0  0  0  0  0  0  0
    0.9470   10.0990   17.2620 H   0  0  0  0  0  0  0  0  0  0  0  0
    1.7310    9.1600   18.8940 N   0  0  0  0  0  0  0  0  0  0  0  0
    2.5120    8.1150   18.4680 C   0  0  0  0  0  0  0  0  0  0  0  0
    3.2240    8.1450   17.4770 O   0  0  0  0  0  0  0  0  0  0  0  0
    2.3810    7.0390   19.3080 N   0  0  0  0  0  0  0  0  0  0  0  0
    0.8720    8.8620   19.3340 H   0  0  0  0  0  0  0  0  0  0  0  0
    2.1850    7.2850   20.2660 H   0  0  0  0  0  0  0  0  0  0  0  0
    3.1990    5.8580   19.1240 C   0  0  2  0  0  0  0  0  0  0  0  0
    3.1700    5.3920   17.6550 C   0  0  0  0  0  0  0  0  0  0  0  0
    3.3450    3.8680   17.6720 C   0  0  0  0  0  0  0  0  0  0  0  0
    2.7180    3.5200   18.9860 C   0  0  0  0  0  0  0  0  0  0  0  0
    2.3000    2.2740   19.4210 C   0  0  0  0  0  0  0  0  0  0  0  0
    1.7870    2.1610   20.7160 C   0  0  0  0  0  0  0  0  0  0  0  0
    1.7170    3.2830   21.5570 C   0  0  0  0  0  0  0  0  0  0  0  0
    2.1540    4.5330   21.1130 C   0  0  0  0  0  0  0  0  0  0  0  0
    2.6410    4.6440   19.8180 C   0  0  0  0  0  0  0  0  0  0  0  0
    4.2290    6.0320   19.4560 H   0  0  0  0  0  0  0  0  0  0  0  0
    3.9350    5.8900   17.0480 H   0  0  0  0  0  0  0  0  0  0  0  0
    2.1990    5.6330   17.1960 H   0  0  0  0  0  0  0  0  0  0  0  0
    2.8340    3.3990   16.8270 H   0  0  0  0  0  0  0  0  0  0  0  0
    4.4030    3.5890   17.6740 H   0  0  0  0  0  0  0  0  0  0  0  0
    2.3740    1.4010   18.7800 H   0  0  0  0  0  0  0  0  0  0  0  0
    1.4530    1.1940   21.0820 H   0  0  0  0  0  0  0  0  0  0  0  0
    1.3340    3.1740   22.5680 H   0  0  0  0  0  0  0  0  0  0  0  0
    2.1260    5.3940   21.7750 H   0  0  0  0  0  0  0  0  0  0  0  0
  1  2  1  0  0  0  0
  1 15  1  0  0  0  0
  2  3  1  0  0  0  0
  4  8  1  0  0  0  0
  4  2  2  0  0  0  0
  5  4  1  0  0  0  0
  6  5  2  0  0  0  0
  6  7  1  0  0  0  0
  7  1  2  0  0  0  0
  9  5  1  0  0  0  0
 10 11  1  0  0  0  0
 10 20  1  0  0  0  0
 11 16  1  0  0  0  0
 12 17  1  0  0  0  0
 12 11  2  0  0  0  0
 13 12  1  0  0  0  0
 14 13  2  0  0  0  0
 14 15  1  0  0  0  0
 15 10  2  0  0  0  0
 18 13  1  0  0  0  0
 19 14  1  0  0  0  0
 20 23  1  0  0  0  0
 20 22  1  0  0  0  0
 21 20  1  0  0  0  0
 24  7  1  0  0  0  0
 24 26  2  0  0  0  0
 25 24  1  0  0  0  0
 27 25  1  0  0  0  0
 28 25  1  0  0  0  0
 29  6  1  0  0  0  0
 29 32  1  0  0  0  0
 30 29  1  0  0  0  0
 31 29  1  0  0  0  0
 32 36  1  0  0  0  0
 33 32  1  0  0  0  0
 33 35  1  0  0  0  0
 34 33  2  0  0  0  0
 35 37  1  0  0  0  0
 38 35  1  0  0  0  0
 38 47  1  1  0  0  0
 38 46  1  0  0  0  0
 39 40  1  0  0  0  0
 39 38  1  0  0  0  0
 40 51  1  0  0  0  0
 40 41  1  0  0  0  0
 41 42  2  0  0  0  0
 41 46  1  0  0  0  0
 42 43  1  0  0  0  0
 43 53  1  0  0  0  0
 43 44  2  0  0  0  0
 44 54  1  0  0  0  0
 45 44  1  0  0  0  0
 45 55  1  0  0  0  0
 46 45  2  0  0  0  0
 48 39  1  0  0  0  0
 49 39  1  0  0  0  0
 50 40  1  0  0  0  0
 52 42  1  0  0  0  0
M  END
>  <MODEL>
11

>  <REMARK>
 VINA RESULT:    -7.111      6.074      9.669
 INTER + INTRA:         -10.683
 INTER:                 -10.054
 INTRA:                  -0.630
 UNBOUND:                -1.286
  Name = 
  6 active torsions:
  status: ('A' for Active; 'I' for Inactive)
    1  A    between atoms: C_1  and  C_2
    2  A    between atoms: C_7  and  C_8
    3  A    between atoms: C_13  and  C_14
    4  A    between atoms: C_14  and  N_15
    5  A    between atoms: N_18  and  C_19
    6  A    between atoms: C_28  and  C_29
                            x       y       z     vdW  Elec       q    Type
                         _______ _______ _______ _____ _____    ______ ____

>  <TORSDO>
F 6

$$$$
=
 OpenBabel07192307433D

 55 58  0  0  1  0  0  0  0  0999 V2000
   -1.0280   11.9300   21.8540 C   0  0  0  0  0  0  0  0  0  0  0  0
   -0.9400   10.6980   22.5200 C   0  0  0  0  0  0  0  0  0  0  0  0
   -1.5150   10.5400   23.7220 F   0  0  0  0  0  0  0  0  0  0  0  0
   -0.2560    9.6140   21.9800 C   0  0  0  0  0  0  0  0  0  0  0  0
    0.3640    9.7360   20.7390 C   0  0  0  0  0  0  0  0  0  0  0  0
    0.2950   10.9410   20.0170 C   0  0  0  0  0  0  0  0  0  0  0  0
   -0.3910   12.0370   20.5940 C   0  0  0  0  0  0  0  0  0  0  0  0
   -0.2010    8.6840   22.5380 H   0  0  0  0  0  0  0  0  0  0  0  0
    0.9130    8.8850   20.3370 H   0  0  0  0  0  0  0  0  0  0  0  0
   -3.0830   13.3700   22.2260 C   0  0  0  0  0  0  0  0  0  0  0  0
   -3.6900   14.4510   22.8870 C   0  0  0  0  0  0  0  0  0  0  0  0
   -2.9740   15.2320   23.7930 C   0  0  0  0  0  0  0  0  0  0  0  0
   -1.6420   14.9360   24.0600 C   0  0  0  0  0  0  0  0  0  0  0  0
   -1.0290   13.8580   23.4240 C   0  0  0  0  0  0  0  0  0  0  0  0
   -1.7300   13.0570   22.5010 C   0  0  0  0  0  0  0  0  0  0  0  0
   -4.7350   14.6930   22.7010 H   0  0  0  0  0  0  0  0  0  0  0  0
   -3.4580   16.0650   24.2960 H   0  0  0  0  0  0  0  0  0  0  0  0
   -1.0790   15.5400   24.7700 H   0  0  0  0  0  0  0  0  0  0  0  0
    0.0160   13.6430   23.6530 H   0  0  0  0  0  0  0  0  0  0  0  0
   -3.9170   12.5510   21.2760 C   0  0  0  0  0  0  0  0  0  0  0  0
   -3.5330   12.6480   20.2560 H   0  0  0  0  0  0  0  0  0  0  0  0
   -4.9660   12.8600   21.3030 H   0  0  0  0  0  0  0  0  0  0  0  0
   -3.8960   11.4900   21.5480 H   0  0  0  0  0  0  0  0  0  0  0  0
   -0.3880   13.3320   19.8740 C   0  0  0  0  0  0  0  0  0  0  0  0
   -1.3540   13.5100   18.9270 N   0  0  0  0  0  0  0  0  0  0  0  0
    0.4640   14.1790   20.1080 O   0  0  0  0  0  0  0  0  0  0  0  0
   -1.4360   14.4420   18.5410 H   0  0  0  0  0  0  0  0  0  0  0  0
   -2.1740   12.9210   18.8850 H   0  0  0  0  0  0  0  0  0  0  0  0
    0.9970   11.0330   18.6780 C   0  0  0  0  0  0  0  0  0  0  0  0
    1.3370   12.0620   18.5140 H   0  0  0  0  0  0  0  0  0  0  0  0
    0.3530   10.7520   17.8410 H   0  0  0  0  0  0  0  0  0  0  0  0
    2.1330   10.1290   18.6190 N   0  0  0  0  0  0  0  0  0  0  0  0
    2.0010    8.9270   17.9700 C   0  0  0  0  0  0  0  0  0  0  0  0
    1.0110    8.5860   17.3430 O   0  0  0  0  0  0  0  0  0  0  0  0
    3.1320    8.1670   18.1260 N   0  0  0  0  0  0  0  0  0  0  0  0
    2.6860   10.0690   19.4610 H   0  0  0  0  0  0  0  0  0  0  0  0
    3.9800    8.7030   18.2210 H   0  0  0  0  0  0  0  0  0  0  0  0
    3.2700    6.9020   17.4350 C   0  0  2  0  0  0  0  0  0  0  0  0
    2.5770    5.7680   18.2170 C   0  0  0  0  0  0  0  0  0  0  0  0
    3.3610    4.4840   17.9170 C   0  0  0  0  0  0  0  0  0  0  0  0
    4.7350    5.0300   17.6890 C   0  0  0  0  0  0  0  0  0  0  0  0
    5.9330    4.3350   17.6810 C   0  0  0  0  0  0  0  0  0  0  0  0
    7.1060    5.0370   17.3900 C   0  0  0  0  0  0  0  0  0  0  0  0
    7.0630    6.4080   17.0950 C   0  0  0  0  0  0  0  0  0  0  0  0
    5.8480    7.0980   17.0920 C   0  0  0  0  0  0  0  0  0  0  0  0
    4.6900    6.4010   17.4050 C   0  0  0  0  0  0  0  0  0  0  0  0
    2.8790    6.9640   16.4120 H   0  0  0  0  0  0  0  0  0  0  0  0
    1.5160    5.6760   17.9580 H   0  0  0  0  0  0  0  0  0  0  0  0
    2.6210    5.9680   19.2980 H   0  0  0  0  0  0  0  0  0  0  0  0
    3.3220    3.7880   18.7600 H   0  0  0  0  0  0  0  0  0  0  0  0
    2.9930    3.9970   17.0090 H   0  0  0  0  0  0  0  0  0  0  0  0
    5.9650    3.2700   17.8860 H   0  0  0  0  0  0  0  0  0  0  0  0
    8.0580    4.5140   17.3760 H   0  0  0  0  0  0  0  0  0  0  0  0
    7.9820    6.9350   16.8510 H   0  0  0  0  0  0  0  0  0  0  0  0
    5.8140    8.1530   16.8360 H   0  0  0  0  0  0  0  0  0  0  0  0
  1 15  1  0  0  0  0
  1  2  1  0  0  0  0
  2  3  1  0  0  0  0
  4  2  2  0  0  0  0
  4  8  1  0  0  0  0
  5  4  1  0  0  0  0
  6  7  1  0  0  0  0
  6  5  2  0  0  0  0
  7  1  2  0  0  0  0
  9  5  1  0  0  0  0
 10 15  2  0  0  0  0
 10 11  1  0  0  0  0
 11 12  2  0  0  0  0
 12 13  1  0  0  0  0
 12 17  1  0  0  0  0
 13 18  1  0  0  0  0
 14 19  1  0  0  0  0
 14 13  2  0  0  0  0
 15 14  1  0  0  0  0
 16 11  1  0  0  0  0
 20 22  1  0  0  0  0
 20 23  1  0  0  0  0
 20 10  1  0  0  0  0
 21 20  1  0  0  0  0
 24 26  2  0  0  0  0
 24  7  1  0  0  0  0
 25 24  1  0  0  0  0
 27 25  1  0  0  0  0
 28 25  1  0  0  0  0
 29  6  1  0  0  0  0
 30 29  1  0  0  0  0
 31 29  1  0  0  0  0
 32 29  1  0  0  0  0
 32 36  1  0  0  0  0
 33 35  1  0  0  0  0
 33 32  1  0  0  0  0
 34 33  2  0  0  0  0
 35 37  1  0  0  0  0
 38 47  1  6  0  0  0
 38 35  1  0  0  0  0
 38 39  1  0  0  0  0
 39 49  1  0  0  0  0
 40 39  1  0  0  0  0
 40 50  1  0  0  0  0
 41 40  1  0  0  0  0
 42 41  1  0  0  0  0
 42 52  1  0  0  0  0
 43 42  2  0  0  0  0
 44 43  1  0  0  0  0
 45 44  2  0  0  0  0
 45 46  1  0  0  0  0
 46 38  1  0  0  0  0
 46 41  2  0  0  0  0
 48 39  1  0  0  0  0
 51 40  1  0  0  0  0
 53 43  1  0  0  0  0
 54 44  1  0  0  0  0
 55 45  1  0  0  0  0
M  END
>  <MODEL>
12

>  <REMARK>
 VINA RESULT:    -7.034      6.658      9.304
 INTER + INTRA:         -10.581
 INTER:                  -9.442
 INTRA:                  -1.140
 UNBOUND:                -1.286
  Name = 
  6 active torsions:
  status: ('A' for Active; 'I' for Inactive)
    1  A    between atoms: C_1  and  C_2
    2  A    between atoms: C_7  and  C_8
    3  A    between atoms: C_13  and  C_14
    4  A    between atoms: C_14  and  N_15
    5  A    between atoms: N_18  and  C_19
    6  A    between atoms: C_28  and  C_29
                            x       y       z     vdW  Elec       q    Type
                         _______ _______ _______ _____ _____    ______ ____

>  <TORSDO>
F 6

$$$$
=
 OpenBabel07192307433D

 55 58  0  0  1  0  0  0  0  0999 V2000
   -0.5630   11.2940   21.1960 C   0  0  0  0  0  0  0  0  0  0  0  0
   -0.7160   10.2830   22.1560 C   0  0  0  0  0  0  0  0  0  0  0  0
   -1.3400   10.5440   23.3160 F   0  0  0  0  0  0  0  0  0  0  0  0
   -0.2290    8.9950   21.9580 C   0  0  0  0  0  0  0  0  0  0  0  0
    0.4320    8.6810   20.7740 C   0  0  0  0  0  0  0  0  0  0  0  0
    0.6020    9.6500   19.7670 C   0  0  0  0  0  0  0  0  0  0  0  0
    0.1140   10.9580   19.9980 C   0  0  0  0  0  0  0  0  0  0  0  0
   -0.3580    8.2480   22.7360 H   0  0  0  0  0  0  0  0  0  0  0  0
    0.8260    7.6750   20.6390 H   0  0  0  0  0  0  0  0  0  0  0  0
   -2.3060   13.1260   21.0030 C   0  0  0  0  0  0  0  0  0  0  0  0
   -2.7240   14.4280   21.3280 C   0  0  0  0  0  0  0  0  0  0  0  0
   -1.9210   15.2670   22.1000 C   0  0  0  0  0  0  0  0  0  0  0  0
   -0.6940   14.8130   22.5680 C   0  0  0  0  0  0  0  0  0  0  0  0
   -0.2720   13.5180   22.2690 C   0  0  0  0  0  0  0  0  0  0  0  0
   -1.0620   12.6530   21.4860 C   0  0  0  0  0  0  0  0  0  0  0  0
   -3.6860   14.7990   20.9800 H   0  0  0  0  0  0  0  0  0  0  0  0
   -2.2580   16.2720   22.3410 H   0  0  0  0  0  0  0  0  0  0  0  0
   -0.0660   15.4620   23.1750 H   0  0  0  0  0  0  0  0  0  0  0  0
    0.6930   13.1830   22.6510 H   0  0  0  0  0  0  0  0  0  0  0  0
   -3.2290   12.2610   20.1860 C   0  0  0  0  0  0  0  0  0  0  0  0
   -3.9410   12.8830   19.6360 H   0  0  0  0  0  0  0  0  0  0  0  0
   -3.7740   11.5540   20.8200 H   0  0  0  0  0  0  0  0  0  0  0  0
   -2.6680   11.6620   19.4600 H   0  0  0  0  0  0  0  0  0  0  0  0
    0.3700   12.0000   18.9760 C   0  0  0  0  0  0  0  0  0  0  0  0
   -0.5490   12.1170   17.9750 N   0  0  0  0  0  0  0  0  0  0  0  0
    1.3770   12.6940   19.0260 O   0  0  0  0  0  0  0  0  0  0  0  0
   -0.4450   12.9170   17.3630 H   0  0  0  0  0  0  0  0  0  0  0  0
   -1.4710   11.7090   18.0480 H   0  0  0  0  0  0  0  0  0  0  0  0
    1.3410    9.2680   18.5020 C   0  0  0  0  0  0  0  0  0  0  0  0
    1.6350   10.1750   17.9620 H   0  0  0  0  0  0  0  0  0  0  0  0
    0.7380    8.6540   17.8260 H   0  0  0  0  0  0  0  0  0  0  0  0
    2.5210    8.4760   18.8020 N   0  0  0  0  0  0  0  0  0  0  0  0
    2.5110    7.1290   18.5370 C   0  0  0  0  0  0  0  0  0  0  0  0
    1.6030    6.5440   17.9680 O   0  0  0  0  0  0  0  0  0  0  0  0
    3.6580    6.5370   18.9990 N   0  0  0  0  0  0  0  0  0  0  0  0
    2.9940    8.7090   19.6630 H   0  0  0  0  0  0  0  0  0  0  0  0
    4.4660    7.1400   18.9920 H   0  0  0  0  0  0  0  0  0  0  0  0
    3.9240    5.1390   18.7310 C   0  0  2  0  0  0  0  0  0  0  0  0
    3.8780    4.8490   17.2180 C   0  0  0  0  0  0  0  0  0  0  0  0
    3.3980    3.4010   17.0610 C   0  0  0  0  0  0  0  0  0  0  0  0
    2.5330    3.2490   18.2720 C   0  0  0  0  0  0  0  0  0  0  0  0
    1.5850    2.2700   18.5190 C   0  0  0  0  0  0  0  0  0  0  0  0
    0.9220    2.2840   19.7490 C   0  0  0  0  0  0  0  0  0  0  0  0
    1.2280    3.2560   20.7140 C   0  0  0  0  0  0  0  0  0  0  0  0
    2.1950    4.2310   20.4610 C   0  0  0  0  0  0  0  0  0  0  0  0
    2.8330    4.2280   19.2280 C   0  0  0  0  0  0  0  0  0  0  0  0
    4.8860    4.8280   19.1570 H   0  0  0  0  0  0  0  0  0  0  0  0
    4.8470    5.0200   16.7340 H   0  0  0  0  0  0  0  0  0  0  0  0
    3.1580    5.5180   16.7230 H   0  0  0  0  0  0  0  0  0  0  0  0
    2.8420    3.2650   16.1280 H   0  0  0  0  0  0  0  0  0  0  0  0
    4.2360    2.6980   17.1050 H   0  0  0  0  0  0  0  0  0  0  0  0
    1.3640    1.5040   17.7830 H   0  0  0  0  0  0  0  0  0  0  0  0
    0.1760    1.5260   19.9690 H   0  0  0  0  0  0  0  0  0  0  0  0
    0.7180    3.2400   21.6740 H   0  0  0  0  0  0  0  0  0  0  0  0
    2.4500    4.9650   21.2200 H   0  0  0  0  0  0  0  0  0  0  0  0
  1 15  1  0  0  0  0
  1  2  1  0  0  0  0
  2  3  1  0  0  0  0
  4  2  2  0  0  0  0
  4  8  1  0  0  0  0
  5  4  1  0  0  0  0
  6  7  1  0  0  0  0
  6  5  2  0  0  0  0
  7  1  2  0  0  0  0
  9  5  1  0  0  0  0
 10 11  2  0  0  0  0
 10 15  1  0  0  0  0
 11 12  1  0  0  0  0
 12 17  1  0  0  0  0
 12 13  2  0  0  0  0
 13 18  1  0  0  0  0
 14 13  1  0  0  0  0
 14 19  1  0  0  0  0
 15 14  2  0  0  0  0
 16 11  1  0  0  0  0
 20 22  1  0  0  0  0
 20 10  1  0  0  0  0
 21 20  1  0  0  0  0
 23 20  1  0  0  0  0
 24 26  2  0  0  0  0
 24  7  1  0  0  0  0
 25 28  1  0  0  0  0
 25 24  1  0  0  0  0
 27 25  1  0  0  0  0
 29 32  1  0  0  0  0
 29  6  1  0  0  0  0
 30 29  1  0  0  0  0
 31 29  1  0  0  0  0
 32 36  1  0  0  0  0
 33 32  1  0  0  0  0
 33 35  1  0  0  0  0
 34 33  2  0  0  0  0
 37 35  1  0  0  0  0
 38 35  1  0  0  0  0
 38 47  1  1  0  0  0
 38 46  1  0  0  0  0
 39 38  1  0  0  0  0
 40 51  1  0  0  0  0
 40 39  1  0  0  0  0
 40 41  1  0  0  0  0
 41 42  2  0  0  0  0
 41 46  1  0  0  0  0
 42 43  1  0  0  0  0
 43 53  1  0  0  0  0
 43 44  2  0  0  0  0
 44 54  1  0  0  0  0
 45 44  1  0  0  0  0
 45 55  1  0  0  0  0
 46 45  2  0  0  0  0
 48 39  1  0  0  0  0
 49 39  1  0  0  0  0
 50 40  1  0  0  0  0
 52 42  1  0  0  0  0
M  END
>  <MODEL>
13

>  <REMARK>
 VINA RESULT:    -6.992      5.724      9.735
 INTER + INTRA:         -10.526
 INTER:                  -9.975
 INTRA:                  -0.551
 UNBOUND:                -1.286
  Name = 
  6 active torsions:
  status: ('A' for Active; 'I' for Inactive)
    1  A    between atoms: C_1  and  C_2
    2  A    between atoms: C_7  and  C_8
    3  A    between atoms: C_13  and  C_14
    4  A    between atoms: C_14  and  N_15
    5  A    between atoms: N_18  and  C_19
    6  A    between atoms: C_28  and  C_29
                            x       y       z     vdW  Elec       q    Type
                         _______ _______ _______ _____ _____    ______ ____

>  <TORSDO>
F 6

$$$$
=
 OpenBabel07192307433D

 55 58  0  0  1  0  0  0  0  0999 V2000
    3.0040    5.6470   18.3570 C   0  0  0  0  0  0  0  0  0  0  0  0
    3.5960    6.4440   17.3660 C   0  0  0  0  0  0  0  0  0  0  0  0
    4.3390    5.8780   16.4010 F   0  0  0  0  0  0  0  0  0  0  0  0
    3.4530    7.8270   17.3460 C   0  0  0  0  0  0  0  0  0  0  0  0
    2.6990    8.4580   18.3330 C   0  0  0  0  0  0  0  0  0  0  0  0
    2.0680    7.7090   19.3430 C   0  0  0  0  0  0  0  0  0  0  0  0
    2.2420    6.3040   19.3530 C   0  0  0  0  0  0  0  0  0  0  0  0
    3.9420    8.4050   16.5680 H   0  0  0  0  0  0  0  0  0  0  0  0
    2.6110    9.5430   18.3180 H   0  0  0  0  0  0  0  0  0  0  0  0
    4.4100    3.5980   18.8660 C   0  0  0  0  0  0  0  0  0  0  0  0
    4.5550    2.2000   18.8350 C   0  0  0  0  0  0  0  0  0  0  0  0
    3.5640    1.3890   18.2820 C   0  0  0  0  0  0  0  0  0  0  0  0
    2.4100    1.9620   17.7620 C   0  0  0  0  0  0  0  0  0  0  0  0
    2.2440    3.3460   17.7990 C   0  0  0  0  0  0  0  0  0  0  0  0
    3.2320    4.1880   18.3480 C   0  0  0  0  0  0  0  0  0  0  0  0
    5.4460    1.7310   19.2460 H   0  0  0  0  0  0  0  0  0  0  0  0
    3.6920    0.3100   18.2650 H   0  0  0  0  0  0  0  0  0  0  0  0
    1.6320    1.3340   17.3330 H   0  0  0  0  0  0  0  0  0  0  0  0
    1.3280    3.7730   17.3900 H   0  0  0  0  0  0  0  0  0  0  0  0
    5.5040    4.4170   19.4980 C   0  0  0  0  0  0  0  0  0  0  0  0
    6.2230    4.7370   18.7370 H   0  0  0  0  0  0  0  0  0  0  0  0
    6.0240    3.8500   20.2760 H   0  0  0  0  0  0  0  0  0  0  0  0
    5.0980    5.3120   19.9800 H   0  0  0  0  0  0  0  0  0  0  0  0
    1.6510    5.5260   20.4670 C   0  0  0  0  0  0  0  0  0  0  0  0
    2.4760    5.2280   21.5120 N   0  0  0  0  0  0  0  0  0  0  0  0
    0.4870    5.1520   20.4230 O   0  0  0  0  0  0  0  0  0  0  0  0
    2.0350    4.8220   22.3290 H   0  0  0  0  0  0  0  0  0  0  0  0
    3.3530    5.7100   21.6540 H   0  0  0  0  0  0  0  0  0  0  0  0
    1.2710    8.4390   20.4040 C   0  0  0  0  0  0  0  0  0  0  0  0
    1.7780    8.3460   21.3710 H   0  0  0  0  0  0  0  0  0  0  0  0
    0.2560    8.0490   20.5160 H   0  0  0  0  0  0  0  0  0  0  0  0
    1.1160    9.8440   20.0700 N   0  0  0  0  0  0  0  0  0  0  0  0
   -0.1420   10.3470   19.8500 C   0  0  0  0  0  0  0  0  0  0  0  0
   -1.1750    9.7150   20.0070 O   0  0  0  0  0  0  0  0  0  0  0  0
   -0.0750   11.6500   19.4290 N   0  0  0  0  0  0  0  0  0  0  0  0
    1.8120   10.2220   19.4430 H   0  0  0  0  0  0  0  0  0  0  0  0
    0.7160   12.1600   19.7900 H   0  0  0  0  0  0  0  0  0  0  0  0
   -1.2830   12.4270   19.2440 C   0  0  2  0  0  0  0  0  0  0  0  0
   -2.1530   12.4050   20.5160 C   0  0  0  0  0  0  0  0  0  0  0  0
   -3.6110   12.5240   20.0560 C   0  0  0  0  0  0  0  0  0  0  0  0
   -3.5460   11.8640   18.7140 C   0  0  0  0  0  0  0  0  0  0  0  0
   -4.6000   11.3940   17.9490 C   0  0  0  0  0  0  0  0  0  0  0  0
   -4.3180   10.8560   16.6910 C   0  0  0  0  0  0  0  0  0  0  0  0
   -3.0000   10.8150   16.2110 C   0  0  0  0  0  0  0  0  0  0  0  0
   -1.9450   11.3030   16.9850 C   0  0  0  0  0  0  0  0  0  0  0  0
   -2.2280   11.8140   18.2440 C   0  0  0  0  0  0  0  0  0  0  0  0
   -1.0520   13.4570   18.9490 H   0  0  0  0  0  0  0  0  0  0  0  0
   -1.8750   13.1970   21.2210 H   0  0  0  0  0  0  0  0  0  0  0  0
   -2.0260   11.4510   21.0500 H   0  0  0  0  0  0  0  0  0  0  0  0
   -4.2890   12.0090   20.7430 H   0  0  0  0  0  0  0  0  0  0  0  0
   -3.9100   13.5710   19.9460 H   0  0  0  0  0  0  0  0  0  0  0  0
   -5.6230   11.4470   18.3090 H   0  0  0  0  0  0  0  0  0  0  0  0
   -5.1270   10.4830   16.0690 H   0  0  0  0  0  0  0  0  0  0  0  0
   -2.8000   10.4120   15.2210 H   0  0  0  0  0  0  0  0  0  0  0  0
   -0.9290   11.2960   16.6000 H   0  0  0  0  0  0  0  0  0  0  0  0
  1  7  1  0  0  0  0
  2  1  2  0  0  0  0
  3  2  1  0  0  0  0
  4  2  1  0  0  0  0
  4  5  2  0  0  0  0
  5  6  1  0  0  0  0
  6  7  2  0  0  0  0
  6 29  1  0  0  0  0
  7 24  1  0  0  0  0
  8  4  1  0  0  0  0
  9  5  1  0  0  0  0
 10 20  1  0  0  0  0
 11 10  1  0  0  0  0
 11 16  1  0  0  0  0
 12 11  2  0  0  0  0
 13 14  2  0  0  0  0
 13 12  1  0  0  0  0
 14 15  1  0  0  0  0
 15  1  1  0  0  0  0
 15 10  2  0  0  0  0
 17 12  1  0  0  0  0
 18 13  1  0  0  0  0
 19 14  1  0  0  0  0
 20 23  1  0  0  0  0
 20 22  1  0  0  0  0
 21 20  1  0  0  0  0
 24 25  1  0  0  0  0
 25 28  1  0  0  0  0
 25 27  1  0  0  0  0
 26 24  2  0  0  0  0
 29 31  1  0  0  0  0
 29 30  1  0  0  0  0
 32 29  1  0  0  0  0
 33 34  2  0  0  0  0
 33 32  1  0  0  0  0
 35 37  1  0  0  0  0
 35 33  1  0  0  0  0
 36 32  1  0  0  0  0
 38 47  1  6  0  0  0
 38 35  1  0  0  0  0
 38 39  1  0  0  0  0
 39 49  1  0  0  0  0
 39 48  1  0  0  0  0
 40 39  1  0  0  0  0
 40 50  1  0  0  0  0
 41 40  1  0  0  0  0
 42 52  1  0  0  0  0
 42 41  2  0  0  0  0
 43 42  1  0  0  0  0
 44 43  2  0  0  0  0
 44 45  1  0  0  0  0
 45 46  2  0  0  0  0
 46 41  1  0  0  0  0
 46 38  1  0  0  0  0
 51 40  1  0  0  0  0
 53 43  1  0  0  0  0
 54 44  1  0  0  0  0
 55 45  1  0  0  0  0
M  END
>  <MODEL>
14

>  <REMARK>
 VINA RESULT:    -6.965      5.454      8.103
 INTER + INTRA:         -10.491
 INTER:                  -9.838
 INTRA:                  -0.653
 UNBOUND:                -1.286
  Name = 
  6 active torsions:
  status: ('A' for Active; 'I' for Inactive)
    1  A    between atoms: C_1  and  C_2
    2  A    between atoms: C_7  and  C_8
    3  A    between atoms: C_13  and  C_14
    4  A    between atoms: C_14  and  N_15
    5  A    between atoms: N_18  and  C_19
    6  A    between atoms: C_28  and  C_29
                            x       y       z     vdW  Elec       q    Type
                         _______ _______ _______ _____ _____    ______ ____

>  <TORSDO>
F 6

$$$$
=
 OpenBabel07192307433D

 55 58  0  0  1  0  0  0  0  0999 V2000
   -0.1760   13.1950   21.0550 C   0  0  0  0  0  0  0  0  0  0  0  0
    0.8680   14.0100   21.5160 C   0  0  0  0  0  0  0  0  0  0  0  0
    0.7430   14.6720   22.6770 F   0  0  0  0  0  0  0  0  0  0  0  0
    2.0480   14.1750   20.7990 C   0  0  0  0  0  0  0  0  0  0  0  0
    2.2180   13.5150   19.5850 C   0  0  0  0  0  0  0  0  0  0  0  0
    1.2120   12.6700   19.0800 C   0  0  0  0  0  0  0  0  0  0  0  0
    0.0120   12.5310   19.8180 C   0  0  0  0  0  0  0  0  0  0  0  0
    2.8240   14.8280   21.1870 H   0  0  0  0  0  0  0  0  0  0  0  0
    3.1390   13.6680   19.0240 H   0  0  0  0  0  0  0  0  0  0  0  0
   -2.4780   14.0330   21.7140 C   0  0  0  0  0  0  0  0  0  0  0  0
   -3.6410   13.8720   22.4860 C   0  0  0  0  0  0  0  0  0  0  0  0
   -3.7610   12.8170   23.3900 C   0  0  0  0  0  0  0  0  0  0  0  0
   -2.7260   11.9010   23.5260 C   0  0  0  0  0  0  0  0  0  0  0  0
   -1.5710   12.0370   22.7570 C   0  0  0  0  0  0  0  0  0  0  0  0
   -1.4230   13.0970   21.8410 C   0  0  0  0  0  0  0  0  0  0  0  0
   -4.4680   14.5720   22.3860 H   0  0  0  0  0  0  0  0  0  0  0  0
   -4.6670   12.7070   23.9800 H   0  0  0  0  0  0  0  0  0  0  0  0
   -2.8160   11.0730   24.2270 H   0  0  0  0  0  0  0  0  0  0  0  0
   -0.7740   11.3030   22.8790 H   0  0  0  0  0  0  0  0  0  0  0  0
   -2.4180   15.1790   20.7390 C   0  0  0  0  0  0  0  0  0  0  0  0
   -3.2690   15.1350   20.0520 H   0  0  0  0  0  0  0  0  0  0  0  0
   -1.4850   15.1640   20.1670 H   0  0  0  0  0  0  0  0  0  0  0  0
   -2.4500   16.1420   21.2600 H   0  0  0  0  0  0  0  0  0  0  0  0
   -1.0810   11.7130   19.2440 C   0  0  0  0  0  0  0  0  0  0  0  0
   -1.1110   10.3950   19.5950 N   0  0  0  0  0  0  0  0  0  0  0  0
   -1.8930   12.2030   18.4700 O   0  0  0  0  0  0  0  0  0  0  0  0
   -1.9340    9.8750   19.3160 H   0  0  0  0  0  0  0  0  0  0  0  0
   -0.5900   10.0420   20.3860 H   0  0  0  0  0  0  0  0  0  0  0  0
    1.4330   11.9840   17.7480 C   0  0  0  0  0  0  0  0  0  0  0  0
    1.8270   12.7080   17.0250 H   0  0  0  0  0  0  0  0  0  0  0  0
    0.5170   11.5580   17.3330 H   0  0  0  0  0  0  0  0  0  0  0  0
    2.3600   10.8730   17.8780 N   0  0  0  0  0  0  0  0  0  0  0  0
    1.8700    9.5910   17.9030 C   0  0  0  0  0  0  0  0  0  0  0  0
    0.6990    9.2950   17.7270 O   0  0  0  0  0  0  0  0  0  0  0  0
    2.8770    8.6940   18.1530 N   0  0  0  0  0  0  0  0  0  0  0  0
    3.1280   11.0190   18.5160 H   0  0  0  0  0  0  0  0  0  0  0  0
    3.7800    8.9810   17.8090 H   0  0  0  0  0  0  0  0  0  0  0  0
    2.6200    7.2700   18.1140 C   0  0  2  0  0  0  0  0  0  0  0  0
    2.3910    6.7120   19.5330 C   0  0  0  0  0  0  0  0  0  0  0  0
    2.8890    5.2610   19.5210 C   0  0  0  0  0  0  0  0  0  0  0  0
    3.9730    5.3340   18.4930 C   0  0  0  0  0  0  0  0  0  0  0  0
    4.9890    4.4210   18.2640 C   0  0  0  0  0  0  0  0  0  0  0  0
    5.8700    4.6600   17.2070 C   0  0  0  0  0  0  0  0  0  0  0  0
    5.7150    5.7890   16.3880 C   0  0  0  0  0  0  0  0  0  0  0  0
    4.6800    6.6980   16.6180 C   0  0  0  0  0  0  0  0  0  0  0  0
    3.8210    6.4680   17.6840 C   0  0  0  0  0  0  0  0  0  0  0  0
    1.7690    7.0370   17.4630 H   0  0  0  0  0  0  0  0  0  0  0  0
    1.3430    6.7870   19.8420 H   0  0  0  0  0  0  0  0  0  0  0  0
    2.9780    7.2830   20.2670 H   0  0  0  0  0  0  0  0  0  0  0  0
    3.2640    4.9610   20.5050 H   0  0  0  0  0  0  0  0  0  0  0  0
    2.1040    4.5730   19.1930 H   0  0  0  0  0  0  0  0  0  0  0  0
    5.0960    3.5360   18.8830 H   0  0  0  0  0  0  0  0  0  0  0  0
    6.6750    3.9570   17.0060 H   0  0  0  0  0  0  0  0  0  0  0  0
    6.3970    5.9490   15.5570 H   0  0  0  0  0  0  0  0  0  0  0  0
    4.5440    7.5550   15.9660 H   0  0  0  0  0  0  0  0  0  0  0  0
  1  2  1  0  0  0  0
  1 15  1  0  0  0  0
  2  3  1  0  0  0  0
  4  8  1  0  0  0  0
  4  2  2  0  0  0  0
  5  4  1  0  0  0  0
  6  5  2  0  0  0  0
  6  7  1  0  0  0  0
  7  1  2  0  0  0  0
  9  5  1  0  0  0  0
 10 15  2  0  0  0  0
 10 11  1  0  0  0  0
 11 12  2  0  0  0  0
 12 13  1  0  0  0  0
 12 17  1  0  0  0  0
 13 18  1  0  0  0  0
 14 19  1  0  0  0  0
 14 13  2  0  0  0  0
 15 14  1  0  0  0  0
 16 11  1  0  0  0  0
 20 23  1  0  0  0  0
 20 10  1  0  0  0  0
 21 20  1  0  0  0  0
 22 20  1  0  0  0  0
 24 25  1  0  0  0  0
 24  7  1  0  0  0  0
 25 28  1  0  0  0  0
 26 24  2  0  0  0  0
 27 25  1  0  0  0  0
 29 32  1  0  0  0  0
 29  6  1  0  0  0  0
 30 29  1  0  0  0  0
 31 29  1  0  0  0  0
 32 33  1  0  0  0  0
 32 36  1  0  0  0  0
 33 35  1  0  0  0  0
 34 33  2  0  0  0  0
 37 35  1  0  0  0  0
 38 47  1  6  0  0  0
 38 35  1  0  0  0  0
 38 39  1  0  0  0  0
 39 48  1  0  0  0  0
 39 49  1  0  0  0  0
 40 39  1  0  0  0  0
 40 50  1  0  0  0  0
 41 40  1  0  0  0  0
 42 41  1  0  0  0  0
 42 52  1  0  0  0  0
 43 42  2  0  0  0  0
 44 45  2  0  0  0  0
 44 43  1  0  0  0  0
 45 46  1  0  0  0  0
 46 38  1  0  0  0  0
 46 41  2  0  0  0  0
 51 40  1  0  0  0  0
 53 43  1  0  0  0  0
 54 44  1  0  0  0  0
 55 45  1  0  0  0  0
M  END
>  <MODEL>
15

>  <REMARK>
 VINA RESULT:    -6.961      6.634      9.226
 INTER + INTRA:         -10.486
 INTER:                  -8.758
 INTRA:                  -1.728
 UNBOUND:                -1.286
  Name = 
  6 active torsions:
  status: ('A' for Active; 'I' for Inactive)
    1  A    between atoms: C_1  and  C_2
    2  A    between atoms: C_7  and  C_8
    3  A    between atoms: C_13  and  C_14
    4  A    between atoms: C_14  and  N_15
    5  A    between atoms: N_18  and  C_19
    6  A    between atoms: C_28  and  C_29
                            x       y       z     vdW  Elec       q    Type
                         _______ _______ _______ _____ _____    ______ ____

>  <TORSDO>
F 6

$$$$
=
 OpenBabel07192307433D

 55 58  0  0  1  0  0  0  0  0999 V2000
    3.5670    5.1450   18.3920 C   0  0  0  0  0  0  0  0  0  0  0  0
    4.3310    5.7840   17.4040 C   0  0  0  0  0  0  0  0  0  0  0  0
    5.2280    5.0850   16.6900 F   0  0  0  0  0  0  0  0  0  0  0  0
    4.2040    7.1420   17.1350 C   0  0  0  0  0  0  0  0  0  0  0  0
    3.2930    7.9080   17.8570 C   0  0  0  0  0  0  0  0  0  0  0  0
    2.4870    7.3190   18.8490 C   0  0  0  0  0  0  0  0  0  0  0  0
    2.6450    5.9380   19.1180 C   0  0  0  0  0  0  0  0  0  0  0  0
    4.8280    7.5980   16.3720 H   0  0  0  0  0  0  0  0  0  0  0  0
    3.2180    8.9750   17.6510 H   0  0  0  0  0  0  0  0  0  0  0  0
    3.1790    2.6910   17.8820 C   0  0  0  0  0  0  0  0  0  0  0  0
    3.4350    1.3430   18.1890 C   0  0  0  0  0  0  0  0  0  0  0  0
    4.2570    0.9960   19.2600 C   0  0  0  0  0  0  0  0  0  0  0  0
    4.8430    1.9900   20.0350 C   0  0  0  0  0  0  0  0  0  0  0  0
    4.6110    3.3320   19.7350 C   0  0  0  0  0  0  0  0  0  0  0  0
    3.7810    3.7090   18.6600 C   0  0  0  0  0  0  0  0  0  0  0  0
    2.9960    0.5500   17.5880 H   0  0  0  0  0  0  0  0  0  0  0  0
    4.4450   -0.0510   19.4850 H   0  0  0  0  0  0  0  0  0  0  0  0
    5.4880    1.7250   20.8700 H   0  0  0  0  0  0  0  0  0  0  0  0
    5.0840    4.0940   20.3540 H   0  0  0  0  0  0  0  0  0  0  0  0
    2.3020    3.0020   16.6980 C   0  0  0  0  0  0  0  0  0  0  0  0
    2.4330    4.0450   16.3950 H   0  0  0  0  0  0  0  0  0  0  0  0
    1.2480    2.8160   16.9260 H   0  0  0  0  0  0  0  0  0  0  0  0
    2.5550    2.3650   15.8430 H   0  0  0  0  0  0  0  0  0  0  0  0
    1.8600    5.3380   20.2220 C   0  0  0  0  0  0  0  0  0  0  0  0
    2.3530    5.4990   21.4830 N   0  0  0  0  0  0  0  0  0  0  0  0
    0.8370    4.7070   19.9930 O   0  0  0  0  0  0  0  0  0  0  0  0
    1.7460    5.2120   22.2410 H   0  0  0  0  0  0  0  0  0  0  0  0
    3.0610    6.1890   21.6950 H   0  0  0  0  0  0  0  0  0  0  0  0
    1.5200    8.1940   19.6200 C   0  0  0  0  0  0  0  0  0  0  0  0
    1.9180    8.3810   20.6240 H   0  0  0  0  0  0  0  0  0  0  0  0
    0.5310    7.7410   19.7280 H   0  0  0  0  0  0  0  0  0  0  0  0
    1.3000    9.4580   18.9400 N   0  0  0  0  0  0  0  0  0  0  0  0
    0.1410   10.1540   19.1750 C   0  0  0  0  0  0  0  0  0  0  0  0
   -0.7010    9.8350   20.0000 O   0  0  0  0  0  0  0  0  0  0  0  0
    0.0600   11.2500   18.3560 N   0  0  0  0  0  0  0  0  0  0  0  0
    1.5970    9.4910   17.9760 H   0  0  0  0  0  0  0  0  0  0  0  0
    0.9540   11.6470   18.1080 H   0  0  0  0  0  0  0  0  0  0  0  0
   -1.0230   12.2010   18.5010 C   0  0  2  0  0  0  0  0  0  0  0  0
   -1.4050   12.3770   19.9850 C   0  0  0  0  0  0  0  0  0  0  0  0
   -2.9020   12.7060   20.0180 C   0  0  0  0  0  0  0  0  0  0  0  0
   -3.3850   11.9830   18.8010 C   0  0  0  0  0  0  0  0  0  0  0  0
   -4.6890   11.6520   18.4730 C   0  0  0  0  0  0  0  0  0  0  0  0
   -4.9260   11.0190   17.2500 C   0  0  0  0  0  0  0  0  0  0  0  0
   -3.8660   10.7440   16.3710 C   0  0  0  0  0  0  0  0  0  0  0  0
   -2.5560   11.0940   16.7050 C   0  0  0  0  0  0  0  0  0  0  0  0
   -2.3240   11.7010   17.9310 C   0  0  0  0  0  0  0  0  0  0  0  0
   -0.7680   13.1660   18.0490 H   0  0  0  0  0  0  0  0  0  0  0  0
   -0.8000   13.1470   20.4790 H   0  0  0  0  0  0  0  0  0  0  0  0
   -1.2330   11.4410   20.5370 H   0  0  0  0  0  0  0  0  0  0  0  0
   -3.3700   12.3390   20.9370 H   0  0  0  0  0  0  0  0  0  0  0  0
   -3.0750   13.7820   19.9110 H   0  0  0  0  0  0  0  0  0  0  0  0
   -5.5120   11.8850   19.1410 H   0  0  0  0  0  0  0  0  0  0  0  0
   -5.9400   10.7510   16.9680 H   0  0  0  0  0  0  0  0  0  0  0  0
   -4.0700   10.2690   15.4150 H   0  0  0  0  0  0  0  0  0  0  0  0
   -1.7420   10.9060   16.0110 H   0  0  0  0  0  0  0  0  0  0  0  0
  1 15  1  0  0  0  0
  1  7  1  0  0  0  0
  2  1  2  0  0  0  0
  3  2  1  0  0  0  0
  4  2  1  0  0  0  0
  4  5  2  0  0  0  0
  5  6  1  0  0  0  0
  6  7  2  0  0  0  0
  6 29  1  0  0  0  0
  7 24  1  0  0  0  0
  8  4  1  0  0  0  0
  9  5  1  0  0  0  0
 10 11  2  0  0  0  0
 10 15  1  0  0  0  0
 11 12  1  0  0  0  0
 12 17  1  0  0  0  0
 12 13  2  0  0  0  0
 13 18  1  0  0  0  0
 14 13  1  0  0  0  0
 14 19  1  0  0  0  0
 15 14  2  0  0  0  0
 16 11  1  0  0  0  0
 20 22  1  0  0  0  0
 20 10  1  0  0  0  0
 21 20  1  0  0  0  0
 23 20  1  0  0  0  0
 24 25  1  0  0  0  0
 25 28  1  0  0  0  0
 25 27  1  0  0  0  0
 26 24  2  0  0  0  0
 29 31  1  0  0  0  0
 29 30  1  0  0  0  0
 32 33  1  0  0  0  0
 32 29  1  0  0  0  0
 33 34  2  0  0  0  0
 35 38  1  0  0  0  0
 35 33  1  0  0  0  0
 36 32  1  0  0  0  0
 37 35  1  0  0  0  0
 38 47  1  6  0  0  0
 38 39  1  0  0  0  0
 39 40  1  0  0  0  0
 39 48  1  0  0  0  0
 39 49  1  0  0  0  0
 40 50  1  0  0  0  0
 41 40  1  0  0  0  0
 42 41  1  0  0  0  0
 42 52  1  0  0  0  0
 43 42  2  0  0  0  0
 44 45  2  0  0  0  0
 44 43  1  0  0  0  0
 45 46  1  0  0  0  0
 46 38  1  0  0  0  0
 46 41  2  0  0  0  0
 51 40  1  0  0  0  0
 53 43  1  0  0  0  0
 54 44  1  0  0  0  0
 55 45  1  0  0  0  0
M  END
>  <MODEL>
16

>  <REMARK>
 VINA RESULT:    -6.912      5.347      7.975
 INTER + INTRA:         -10.421
 INTER:                  -9.981
 INTRA:                  -0.440
 UNBOUND:                -1.286
  Name = 
  6 active torsions:
  status: ('A' for Active; 'I' for Inactive)
    1  A    between atoms: C_1  and  C_2
    2  A    between atoms: C_7  and  C_8
    3  A    between atoms: C_13  and  C_14
    4  A    between atoms: C_14  and  N_15
    5  A    between atoms: N_18  and  C_19
    6  A    between atoms: C_28  and  C_29
                            x       y       z     vdW  Elec       q    Type
                         _______ _______ _______ _____ _____    ______ ____

>  <TORSDO>
F 6

$$$$
=
 OpenBabel07192307433D

 55 58  0  0  1  0  0  0  0  0999 V2000
   -0.4720   11.1420   20.7220 C   0  0  0  0  0  0  0  0  0  0  0  0
   -0.6810   11.4430   19.3680 C   0  0  0  0  0  0  0  0  0  0  0  0
   -1.3260   12.5680   19.0200 F   0  0  0  0  0  0  0  0  0  0  0  0
   -0.2500   10.6010   18.3480 C   0  0  0  0  0  0  0  0  0  0  0  0
    0.4150    9.4190   18.6630 C   0  0  0  0  0  0  0  0  0  0  0  0
    0.6690    9.0720   20.0020 C   0  0  0  0  0  0  0  0  0  0  0  0
    0.2050    9.9350   21.0240 C   0  0  0  0  0  0  0  0  0  0  0  0
   -0.4470   10.8670   17.3140 H   0  0  0  0  0  0  0  0  0  0  0  0
    0.7300    8.7590   17.8560 H   0  0  0  0  0  0  0  0  0  0  0  0
   -0.3130   13.2320   22.1500 C   0  0  0  0  0  0  0  0  0  0  0  0
   -0.8750   14.0600   23.1360 C   0  0  0  0  0  0  0  0  0  0  0  0
   -2.0820   13.7270   23.7490 C   0  0  0  0  0  0  0  0  0  0  0  0
   -2.7510   12.5680   23.3780 C   0  0  0  0  0  0  0  0  0  0  0  0
   -2.2150   11.7420   22.3890 C   0  0  0  0  0  0  0  0  0  0  0  0
   -0.9940   12.0540   21.7580 C   0  0  0  0  0  0  0  0  0  0  0  0
   -0.3730   14.9790   23.4340 H   0  0  0  0  0  0  0  0  0  0  0  0
   -2.5030   14.3780   24.5110 H   0  0  0  0  0  0  0  0  0  0  0  0
   -3.6960   12.3050   23.8500 H   0  0  0  0  0  0  0  0  0  0  0  0
   -2.7600   10.8400   22.1120 H   0  0  0  0  0  0  0  0  0  0  0  0
    0.9810   13.6580   21.5080 C   0  0  0  0  0  0  0  0  0  0  0  0
    1.6640   12.8060   21.4320 H   0  0  0  0  0  0  0  0  0  0  0  0
    1.4600   14.4600   22.0780 H   0  0  0  0  0  0  0  0  0  0  0  0
    0.8110   14.0490   20.4990 H   0  0  0  0  0  0  0  0  0  0  0  0
    0.3940    9.5260   22.4360 C   0  0  0  0  0  0  0  0  0  0  0  0
   -0.6730    8.9410   23.0530 N   0  0  0  0  0  0  0  0  0  0  0  0
    1.4520    9.7350   23.0140 O   0  0  0  0  0  0  0  0  0  0  0  0
   -0.4970    8.5370   23.9650 H   0  0  0  0  0  0  0  0  0  0  0  0
   -1.4560    8.5730   22.5300 H   0  0  0  0  0  0  0  0  0  0  0  0
    1.3820    7.7690   20.2980 C   0  0  0  0  0  0  0  0  0  0  0  0
    0.6490    6.9560   20.3600 H   0  0  0  0  0  0  0  0  0  0  0  0
    1.9390    7.7930   21.2390 H   0  0  0  0  0  0  0  0  0  0  0  0
    2.3620    7.4630   19.2700 N   0  0  0  0  0  0  0  0  0  0  0  0
    3.1780    6.3700   19.4250 C   0  0  0  0  0  0  0  0  0  0  0  0
    3.0830    5.5600   20.3340 O   0  0  0  0  0  0  0  0  0  0  0  0
    4.1110    6.3170   18.4220 N   0  0  0  0  0  0  0  0  0  0  0  0
    2.8340    8.2590   18.8680 H   0  0  0  0  0  0  0  0  0  0  0  0
    3.7990    6.7090   17.5470 H   0  0  0  0  0  0  0  0  0  0  0  0
    5.0100    5.1880   18.3120 C   0  0  2  0  0  0  0  0  0  0  0  0
    6.3700    5.5000   18.9690 C   0  0  0  0  0  0  0  0  0  0  0  0
    7.4270    4.7000   18.1970 C   0  0  0  0  0  0  0  0  0  0  0  0
    6.8110    4.6460   16.8340 C   0  0  0  0  0  0  0  0  0  0  0  0
    7.4290    4.3250   15.6370 C   0  0  0  0  0  0  0  0  0  0  0  0
    6.6490    4.2810   14.4790 C   0  0  0  0  0  0  0  0  0  0  0  0
    5.2700    4.5380   14.5360 C   0  0  0  0  0  0  0  0  0  0  0  0
    4.6530    4.8470   15.7500 C   0  0  0  0  0  0  0  0  0  0  0  0
    5.4370    4.9130   16.8940 C   0  0  0  0  0  0  0  0  0  0  0  0
    4.5680    4.2830   18.7460 H   0  0  0  0  0  0  0  0  0  0  0  0
    6.3750    5.2680   20.0390 H   0  0  0  0  0  0  0  0  0  0  0  0
    6.6000    6.5730   18.8790 H   0  0  0  0  0  0  0  0  0  0  0  0
    8.3940    5.2120   18.1990 H   0  0  0  0  0  0  0  0  0  0  0  0
    7.5350    3.6890   18.6020 H   0  0  0  0  0  0  0  0  0  0  0  0
    8.4900    4.1040   15.5950 H   0  0  0  0  0  0  0  0  0  0  0  0
    7.1090    4.0300   13.5270 H   0  0  0  0  0  0  0  0  0  0  0  0
    4.6740    4.4790   13.6290 H   0  0  0  0  0  0  0  0  0  0  0  0
    3.5810    5.0170   15.7970 H   0  0  0  0  0  0  0  0  0  0  0  0
  1  7  1  0  0  0  0
  1 15  1  0  0  0  0
  2  1  2  0  0  0  0
  3  2  1  0  0  0  0
  4  5  2  0  0  0  0
  4  2  1  0  0  0  0
  5  6  1  0  0  0  0
  6 29  1  0  0  0  0
  6  7  2  0  0  0  0
  7 24  1  0  0  0  0
  8  4  1  0  0  0  0
  9  5  1  0  0  0  0
 10 11  1  0  0  0  0
 11 16  1  0  0  0  0
 11 12  2  0  0  0  0
 12 17  1  0  0  0  0
 13 12  1  0  0  0  0
 13 18  1  0  0  0  0
 14 13  2  0  0  0  0
 15 10  2  0  0  0  0
 15 14  1  0  0  0  0
 19 14  1  0  0  0  0
 20 22  1  0  0  0  0
 20 10  1  0  0  0  0
 21 20  1  0  0  0  0
 23 20  1  0  0  0  0
 24 26  2  0  0  0  0
 24 25  1  0  0  0  0
 25 27  1  0  0  0  0
 28 25  1  0  0  0  0
 29 30  1  0  0  0  0
 29 31  1  0  0  0  0
 32 33  1  0  0  0  0
 32 29  1  0  0  0  0
 33 34  2  0  0  0  0
 35 33  1  0  0  0  0
 36 32  1  0  0  0  0
 37 35  1  0  0  0  0
 38 35  1  0  0  0  0
 38 47  1  1  0  0  0
 38 39  1  0  0  0  0
 39 48  1  0  0  0  0
 40 50  1  0  0  0  0
 40 51  1  0  0  0  0
 40 39  1  0  0  0  0
 41 46  1  0  0  0  0
 41 40  1  0  0  0  0
 42 41  2  0  0  0  0
 43 44  2  0  0  0  0
 43 42  1  0  0  0  0
 44 45  1  0  0  0  0
 45 55  1  0  0  0  0
 45 46  2  0  0  0  0
 46 38  1  0  0  0  0
 49 39  1  0  0  0  0
 52 42  1  0  0  0  0
 53 43  1  0  0  0  0
 54 44  1  0  0  0  0
M  END
>  <MODEL>
17

>  <REMARK>
 VINA RESULT:    -6.868      5.648      8.453
 INTER + INTRA:         -10.363
 INTER:                  -9.432
 INTRA:                  -0.931
 UNBOUND:                -1.286
  Name = 
  6 active torsions:
  status: ('A' for Active; 'I' for Inactive)
    1  A    between atoms: C_1  and  C_2
    2  A    between atoms: C_7  and  C_8
    3  A    between atoms: C_13  and  C_14
    4  A    between atoms: C_14  and  N_15
    5  A    between atoms: N_18  and  C_19
    6  A    between atoms: C_28  and  C_29
                            x       y       z     vdW  Elec       q    Type
                         _______ _______ _______ _____ _____    ______ ____

>  <TORSDO>
F 6

$$$$
=
 OpenBabel07192307433D

 55 58  0  0  1  0  0  0  0  0999 V2000
    0.0550   11.3010   20.9800 C   0  0  0  0  0  0  0  0  0  0  0  0
   -0.3660   11.3120   22.3190 C   0  0  0  0  0  0  0  0  0  0  0  0
   -0.6590   12.4740   22.9230 F   0  0  0  0  0  0  0  0  0  0  0  0
   -0.4830   10.1450   23.0660 C   0  0  0  0  0  0  0  0  0  0  0  0
   -0.1800    8.9170   22.4840 C   0  0  0  0  0  0  0  0  0  0  0  0
    0.2310    8.8420   21.1400 C   0  0  0  0  0  0  0  0  0  0  0  0
    0.3600   10.0440   20.4030 C   0  0  0  0  0  0  0  0  0  0  0  0
   -0.7970   10.2030   24.1040 H   0  0  0  0  0  0  0  0  0  0  0  0
   -0.2560    8.0130   23.0860 H   0  0  0  0  0  0  0  0  0  0  0  0
   -0.8630   13.1730   19.5370 C   0  0  0  0  0  0  0  0  0  0  0  0
   -0.6540   14.3970   18.8780 C   0  0  0  0  0  0  0  0  0  0  0  0
    0.5930   15.0210   18.9030 C   0  0  0  0  0  0  0  0  0  0  0  0
    1.6460   14.4370   19.5970 C   0  0  0  0  0  0  0  0  0  0  0  0
    1.4510   13.2310   20.2690 C   0  0  0  0  0  0  0  0  0  0  0  0
    0.2020   12.5780   20.2550 C   0  0  0  0  0  0  0  0  0  0  0  0
   -1.4680   14.8770   18.3380 H   0  0  0  0  0  0  0  0  0  0  0  0
    0.7390   15.9660   18.3870 H   0  0  0  0  0  0  0  0  0  0  0  0
    2.6200   14.9210   19.6230 H   0  0  0  0  0  0  0  0  0  0  0  0
    2.2910   12.7940   20.8100 H   0  0  0  0  0  0  0  0  0  0  0  0
   -2.2380   12.5620   19.4920 C   0  0  0  0  0  0  0  0  0  0  0  0
   -2.5640   12.2900   20.5020 H   0  0  0  0  0  0  0  0  0  0  0  0
   -2.2560   11.6740   18.8520 H   0  0  0  0  0  0  0  0  0  0  0  0
   -2.9690   13.2640   19.0760 H   0  0  0  0  0  0  0  0  0  0  0  0
    0.8770    9.9720   19.0170 C   0  0  0  0  0  0  0  0  0  0  0  0
   -0.0490   10.0010   18.0150 N   0  0  0  0  0  0  0  0  0  0  0  0
    2.0760    9.8630   18.7990 O   0  0  0  0  0  0  0  0  0  0  0  0
    0.3130   10.0940   17.0730 H   0  0  0  0  0  0  0  0  0  0  0  0
   -0.9990   10.3060   18.1750 H   0  0  0  0  0  0  0  0  0  0  0  0
    0.5640    7.4860   20.5520 C   0  0  0  0  0  0  0  0  0  0  0  0
    0.2050    7.4380   19.5180 H   0  0  0  0  0  0  0  0  0  0  0  0
    0.1110    6.6600   21.1060 H   0  0  0  0  0  0  0  0  0  0  0  0
    1.9950    7.2400   20.5820 N   0  0  0  0  0  0  0  0  0  0  0  0
    2.5480    6.3840   19.6630 C   0  0  0  0  0  0  0  0  0  0  0  0
    1.9350    5.8710   18.7400 O   0  0  0  0  0  0  0  0  0  0  0  0
    3.8790    6.1850   19.9270 N   0  0  0  0  0  0  0  0  0  0  0  0
    2.4040    7.1560   21.5010 H   0  0  0  0  0  0  0  0  0  0  0  0
    4.3370    6.9730   20.3580 H   0  0  0  0  0  0  0  0  0  0  0  0
    4.7010    5.4080   19.0220 C   0  0  2  0  0  0  0  0  0  0  0  0
    4.5440    5.9040   17.5710 C   0  0  0  0  0  0  0  0  0  0  0  0
    4.7530    4.6860   16.6640 C   0  0  0  0  0  0  0  0  0  0  0  0
    4.2600    3.5800   17.5440 C   0  0  0  0  0  0  0  0  0  0  0  0
    3.9120    2.2930   17.1730 C   0  0  0  0  0  0  0  0  0  0  0  0
    3.5250    1.3960   18.1730 C   0  0  0  0  0  0  0  0  0  0  0  0
    3.5110    1.7910   19.5200 C   0  0  0  0  0  0  0  0  0  0  0  0
    3.8770    3.0880   19.8850 C   0  0  0  0  0  0  0  0  0  0  0  0
    4.2370    3.9810   18.8860 C   0  0  0  0  0  0  0  0  0  0  0  0
    5.7540    5.4250   19.3270 H   0  0  0  0  0  0  0  0  0  0  0  0
    5.2380    6.7190   17.3360 H   0  0  0  0  0  0  0  0  0  0  0  0
    3.5300    6.2980   17.4100 H   0  0  0  0  0  0  0  0  0  0  0  0
    4.1750    4.7740   15.7390 H   0  0  0  0  0  0  0  0  0  0  0  0
    5.8130    4.5390   16.4320 H   0  0  0  0  0  0  0  0  0  0  0  0
    3.9440    1.9790   16.1350 H   0  0  0  0  0  0  0  0  0  0  0  0
    3.2490    0.3790   17.9090 H   0  0  0  0  0  0  0  0  0  0  0  0
    3.2270    1.0750   20.2870 H   0  0  0  0  0  0  0  0  0  0  0  0
    3.8930    3.3830   20.9310 H   0  0  0  0  0  0  0  0  0  0  0  0
  1  2  1  0  0  0  0
  2  3  1  0  0  0  0
  2  4  2  0  0  0  0
  4  8  1  0  0  0  0
  5  4  1  0  0  0  0
  5  9  1  0  0  0  0
  6  5  2  0  0  0  0
  7  1  2  0  0  0  0
  7  6  1  0  0  0  0
 10 15  1  0  0  0  0
 11 12  1  0  0  0  0
 11 10  2  0  0  0  0
 12 13  2  0  0  0  0
 13 18  1  0  0  0  0
 13 14  1  0  0  0  0
 14 19  1  0  0  0  0
 15 14  2  0  0  0  0
 15  1  1  0  0  0  0
 16 11  1  0  0  0  0
 17 12  1  0  0  0  0
 20 10  1  0  0  0  0
 20 21  1  0  0  0  0
 22 20  1  0  0  0  0
 23 20  1  0  0  0  0
 24  7  1  0  0  0  0
 25 28  1  0  0  0  0
 25 24  1  0  0  0  0
 26 24  2  0  0  0  0
 27 25  1  0  0  0  0
 29 32  1  0  0  0  0
 29 31  1  0  0  0  0
 29  6  1  0  0  0  0
 30 29  1  0  0  0  0
 32 36  1  0  0  0  0
 33 35  1  0  0  0  0
 33 32  1  0  0  0  0
 34 33  2  0  0  0  0
 35 37  1  0  0  0  0
 38 47  1  1  0  0  0
 38 35  1  0  0  0  0
 39 38  1  0  0  0  0
 40 41  1  0  0  0  0
 40 39  1  0  0  0  0
 41 46  1  0  0  0  0
 42 41  2  0  0  0  0
 42 43  1  0  0  0  0
 43 44  2  0  0  0  0
 44 45  1  0  0  0  0
 44 54  1  0  0  0  0
 45 55  1  0  0  0  0
 46 38  1  0  0  0  0
 46 45  2  0  0  0  0
 48 39  1  0  0  0  0
 49 39  1  0  0  0  0
 50 40  1  0  0  0  0
 51 40  1  0  0  0  0
 52 42  1  0  0  0  0
 53 43  1  0  0  0  0
M  END
>  <MODEL>
18

>  <REMARK>
 VINA RESULT:    -6.814      5.197      9.261
 INTER + INTRA:         -10.292
 INTER:                  -9.465
 INTRA:                  -0.826
 UNBOUND:                -1.286
  Name = 
  6 active torsions:
  status: ('A' for Active; 'I' for Inactive)
    1  A    between atoms: C_1  and  C_2
    2  A    between atoms: C_7  and  C_8
    3  A    between atoms: C_13  and  C_14
    4  A    between atoms: C_14  and  N_15
    5  A    between atoms: N_18  and  C_19
    6  A    between atoms: C_28  and  C_29
                            x       y       z     vdW  Elec       q    Type
                         _______ _______ _______ _____ _____    ______ ____

>  <TORSDO>
F 6

$$$$
=
 OpenBabel07192307433D

 55 58  0  0  1  0  0  0  0  0999 V2000
   -1.6650   11.8460   19.4880 C   0  0  0  0  0  0  0  0  0  0  0  0
   -2.2850   11.4670   18.2880 C   0  0  0  0  0  0  0  0  0  0  0  0
   -3.3870   12.1090   17.8670 F   0  0  0  0  0  0  0  0  0  0  0  0
   -1.8040   10.4250   17.5030 C   0  0  0  0  0  0  0  0  0  0  0  0
   -0.6690    9.7240   17.9050 C   0  0  0  0  0  0  0  0  0  0  0  0
    0.0050   10.0690   19.0910 C   0  0  0  0  0  0  0  0  0  0  0  0
   -0.5130   11.1220   19.8820 C   0  0  0  0  0  0  0  0  0  0  0  0
   -2.3260   10.1570   16.5900 H   0  0  0  0  0  0  0  0  0  0  0  0
   -0.3140    8.8970   17.2920 H   0  0  0  0  0  0  0  0  0  0  0  0
   -1.7750   14.2630   20.2460 C   0  0  0  0  0  0  0  0  0  0  0  0
   -2.3880   15.2490   21.0380 C   0  0  0  0  0  0  0  0  0  0  0  0
   -3.4460   14.9290   21.8890 C   0  0  0  0  0  0  0  0  0  0  0  0
   -3.9120   13.6220   21.9520 C   0  0  0  0  0  0  0  0  0  0  0  0
   -3.3240   12.6350   21.1620 C   0  0  0  0  0  0  0  0  0  0  0  0
   -2.2520   12.9320   20.2980 C   0  0  0  0  0  0  0  0  0  0  0  0
   -2.0460   16.2810   20.9940 H   0  0  0  0  0  0  0  0  0  0  0  0
   -3.9090   15.7030   22.4950 H   0  0  0  0  0  0  0  0  0  0  0  0
   -4.7400   13.3680   22.6120 H   0  0  0  0  0  0  0  0  0  0  0  0
   -3.7100   11.6170   21.2270 H   0  0  0  0  0  0  0  0  0  0  0  0
   -0.6530   14.6770   19.3290 C   0  0  0  0  0  0  0  0  0  0  0  0
    0.0290   13.8360   19.1650 H   0  0  0  0  0  0  0  0  0  0  0  0
   -0.0970   15.5240   19.7420 H   0  0  0  0  0  0  0  0  0  0  0  0
   -1.0380   14.9980   18.3560 H   0  0  0  0  0  0  0  0  0  0  0  0
    0.1460   11.4270   21.1740 C   0  0  0  0  0  0  0  0  0  0  0  0
    1.1960   12.2970   21.1370 N   0  0  0  0  0  0  0  0  0  0  0  0
   -0.2280   10.8940   22.2100 O   0  0  0  0  0  0  0  0  0  0  0  0
    1.5500   12.6100   22.0330 H   0  0  0  0  0  0  0  0  0  0  0  0
    1.3640   12.8960   20.3410 H   0  0  0  0  0  0  0  0  0  0  0  0
    1.2260    9.2700   19.4960 C   0  0  0  0  0  0  0  0  0  0  0  0
    0.9480    8.5440   20.2690 H   0  0  0  0  0  0  0  0  0  0  0  0
    2.0300    9.8950   19.8950 H   0  0  0  0  0  0  0  0  0  0  0  0
    1.8000    8.5740   18.3580 N   0  0  0  0  0  0  0  0  0  0  0  0
    2.6100    7.4880   18.5730 C   0  0  0  0  0  0  0  0  0  0  0  0
    2.8190    6.9890   19.6680 O   0  0  0  0  0  0  0  0  0  0  0  0
    3.1490    7.0450   17.3930 N   0  0  0  0  0  0  0  0  0  0  0  0
    2.1150    9.1630   17.6010 H   0  0  0  0  0  0  0  0  0  0  0  0
    2.5640    7.2010   16.5870 H   0  0  0  0  0  0  0  0  0  0  0  0
    3.9480    5.8380   17.3560 C   0  0  2  0  0  0  0  0  0  0  0  0
    3.4930    4.8420   18.4420 C   0  0  0  0  0  0  0  0  0  0  0  0
    4.7350    4.0450   18.8580 C   0  0  0  0  0  0  0  0  0  0  0  0
    5.8170    5.0520   18.6240 C   0  0  0  0  0  0  0  0  0  0  0  0
    7.1160    5.0270   19.1030 C   0  0  0  0  0  0  0  0  0  0  0  0
    7.9860    6.0490   18.7150 C   0  0  0  0  0  0  0  0  0  0  0  0
    7.5540    7.0630   17.8460 C   0  0  0  0  0  0  0  0  0  0  0  0
    6.2460    7.0720   17.3570 C   0  0  0  0  0  0  0  0  0  0  0  0
    5.3790    6.0670   17.7650 C   0  0  0  0  0  0  0  0  0  0  0  0
    3.9180    5.3710   16.3640 H   0  0  0  0  0  0  0  0  0  0  0  0
    2.6820    4.1930   18.0930 H   0  0  0  0  0  0  0  0  0  0  0  0
    3.1070    5.3830   19.3180 H   0  0  0  0  0  0  0  0  0  0  0  0
    4.6740    3.7310   19.9040 H   0  0  0  0  0  0  0  0  0  0  0  0
    4.8840    3.1740   18.2110 H   0  0  0  0  0  0  0  0  0  0  0  0
    7.4580    4.2310   19.7570 H   0  0  0  0  0  0  0  0  0  0  0  0
    9.0110    6.0520   19.0760 H   0  0  0  0  0  0  0  0  0  0  0  0
    8.2500    7.8390   17.5380 H   0  0  0  0  0  0  0  0  0  0  0  0
    5.9220    7.8410   16.6620 H   0  0  0  0  0  0  0  0  0  0  0  0
  1  7  1  0  0  0  0
  1 15  1  0  0  0  0
  2  1  2  0  0  0  0
  3  2  1  0  0  0  0
  4  5  2  0  0  0  0
  4  2  1  0  0  0  0
  5  6  1  0  0  0  0
  6 29  1  0  0  0  0
  6  7  2  0  0  0  0
  7 24  1  0  0  0  0
  8  4  1  0  0  0  0
  9  5  1  0  0  0  0
 10 15  2  0  0  0  0
 10 11  1  0  0  0  0
 11 12  2  0  0  0  0
 12 13  1  0  0  0  0
 12 17  1  0  0  0  0
 13 18  1  0  0  0  0
 14 19  1  0  0  0  0
 14 13  2  0  0  0  0
 15 14  1  0  0  0  0
 16 11  1  0  0  0  0
 20 22  1  0  0  0  0
 20 10  1  0  0  0  0
 21 20  1  0  0  0  0
 23 20  1  0  0  0  0
 24 26  2  0  0  0  0
 25 24  1  0  0  0  0
 25 27  1  0  0  0  0
 28 25  1  0  0  0  0
 29 31  1  0  0  0  0
 29 30  1  0  0  0  0
 32 33  1  0  0  0  0
 32 29  1  0  0  0  0
 33 34  2  0  0  0  0
 35 33  1  0  0  0  0
 36 32  1  0  0  0  0
 37 35  1  0  0  0  0
 38 47  1  6  0  0  0
 38 35  1  0  0  0  0
 38 46  1  0  0  0  0
 38 39  1  0  0  0  0
 39 40  1  0  0  0  0
 39 49  1  0  0  0  0
 40 50  1  0  0  0  0
 41 40  1  0  0  0  0
 41 42  1  0  0  0  0
 42 52  1  0  0  0  0
 43 53  1  0  0  0  0
 43 42  2  0  0  0  0
 44 43  1  0  0  0  0
 45 46  1  0  0  0  0
 45 44  2  0  0  0  0
 46 41  2  0  0  0  0
 48 39  1  0  0  0  0
 51 40  1  0  0  0  0
 54 44  1  0  0  0  0
 55 45  1  0  0  0  0
M  END
>  <MODEL>
19

>  <REMARK>
 VINA RESULT:    -6.756      6.038      8.719
 INTER + INTRA:         -10.214
 INTER:                  -9.781
 INTRA:                  -0.434
 UNBOUND:                -1.286
  Name = 
  6 active torsions:
  status: ('A' for Active; 'I' for Inactive)
    1  A    between atoms: C_1  and  C_2
    2  A    between atoms: C_7  and  C_8
    3  A    between atoms: C_13  and  C_14
    4  A    between atoms: C_14  and  N_15
    5  A    between atoms: N_18  and  C_19
    6  A    between atoms: C_28  and  C_29
                            x       y       z     vdW  Elec       q    Type
                         _______ _______ _______ _____ _____    ______ ____

>  <TORSDO>
F 6

$$$$
=
 OpenBabel07192307433D

 55 58  0  0  1  0  0  0  0  0999 V2000
   -2.0730   12.2910   20.3700 C   0  0  0  0  0  0  0  0  0  0  0  0
   -3.0180   11.9350   19.3960 C   0  0  0  0  0  0  0  0  0  0  0  0
   -4.3240   12.1570   19.6130 F   0  0  0  0  0  0  0  0  0  0  0  0
   -2.6530   11.3380   18.1940 C   0  0  0  0  0  0  0  0  0  0  0  0
   -1.3100   11.0800   17.9310 C   0  0  0  0  0  0  0  0  0  0  0  0
   -0.3150   11.4300   18.8620 C   0  0  0  0  0  0  0  0  0  0  0  0
   -0.7120   12.0210   20.0860 C   0  0  0  0  0  0  0  0  0  0  0  0
   -3.4210   11.0660   17.4770 H   0  0  0  0  0  0  0  0  0  0  0  0
   -1.0390   10.5950   16.9940 H   0  0  0  0  0  0  0  0  0  0  0  0
   -2.6290   14.2780   21.8450 C   0  0  0  0  0  0  0  0  0  0  0  0
   -3.0810   14.7690   23.0810 C   0  0  0  0  0  0  0  0  0  0  0  0
   -3.4120   13.8990   24.1200 C   0  0  0  0  0  0  0  0  0  0  0  0
   -3.3050   12.5260   23.9340 C   0  0  0  0  0  0  0  0  0  0  0  0
   -2.8730   12.0220   22.7080 C   0  0  0  0  0  0  0  0  0  0  0  0
   -2.5290   12.8800   21.6450 C   0  0  0  0  0  0  0  0  0  0  0  0
   -3.1830   15.8400   23.2440 H   0  0  0  0  0  0  0  0  0  0  0  0
   -3.7590   14.2940   25.0710 H   0  0  0  0  0  0  0  0  0  0  0  0
   -3.5660   11.8420   24.7400 H   0  0  0  0  0  0  0  0  0  0  0  0
   -2.8020   10.9410   22.5850 H   0  0  0  0  0  0  0  0  0  0  0  0
   -2.3110   15.2670   20.7550 C   0  0  0  0  0  0  0  0  0  0  0  0
   -2.4720   14.8110   19.7720 H   0  0  0  0  0  0  0  0  0  0  0  0
   -1.2780   15.6190   20.8290 H   0  0  0  0  0  0  0  0  0  0  0  0
   -2.9510   16.1530   20.8270 H   0  0  0  0  0  0  0  0  0  0  0  0
    0.3270   12.3070   21.1020 C   0  0  0  0  0  0  0  0  0  0  0  0
    0.8930   13.5490   21.0690 N   0  0  0  0  0  0  0  0  0  0  0  0
    0.6710   11.4520   21.9080 O   0  0  0  0  0  0  0  0  0  0  0  0
    1.4950   13.7880   21.8470 H   0  0  0  0  0  0  0  0  0  0  0  0
    0.4690   14.3140   20.5630 H   0  0  0  0  0  0  0  0  0  0  0  0
    1.1310   11.1170   18.5390 C   0  0  0  0  0  0  0  0  0  0  0  0
    1.7530   11.9920   18.7620 H   0  0  0  0  0  0  0  0  0  0  0  0
    1.2840   10.8530   17.4890 H   0  0  0  0  0  0  0  0  0  0  0  0
    1.6040    9.9760   19.3030 N   0  0  0  0  0  0  0  0  0  0  0  0
    1.6020    8.7330   18.7230 C   0  0  0  0  0  0  0  0  0  0  0  0
    1.3150    8.5150   17.5560 O   0  0  0  0  0  0  0  0  0  0  0  0
    1.9630    7.7740   19.6340 N   0  0  0  0  0  0  0  0  0  0  0  0
    1.3360    9.9630   20.2770 H   0  0  0  0  0  0  0  0  0  0  0  0
    2.6000    8.0990   20.3450 H   0  0  0  0  0  0  0  0  0  0  0  0
    2.1420    6.3970   19.2220 C   0  0  2  0  0  0  0  0  0  0  0  0
    2.0330    5.4430   20.4290 C   0  0  0  0  0  0  0  0  0  0  0  0
    2.9380    4.2430   20.1250 C   0  0  0  0  0  0  0  0  0  0  0  0
    3.9920    4.8820   19.2760 C   0  0  0  0  0  0  0  0  0  0  0  0
    5.2400    4.3780   18.9520 C   0  0  0  0  0  0  0  0  0  0  0  0
    6.0530    5.1220   18.0930 C   0  0  0  0  0  0  0  0  0  0  0  0
    5.6020    6.3390   17.5580 C   0  0  0  0  0  0  0  0  0  0  0  0
    4.3360    6.8320   17.8800 C   0  0  0  0  0  0  0  0  0  0  0  0
    3.5420    6.1010   18.7530 C   0  0  0  0  0  0  0  0  0  0  0  0
    1.4250    6.1190   18.4410 H   0  0  0  0  0  0  0  0  0  0  0  0
    0.9970    5.1410   20.6240 H   0  0  0  0  0  0  0  0  0  0  0  0
    2.3940    5.9390   21.3420 H   0  0  0  0  0  0  0  0  0  0  0  0
    3.3460    3.8090   21.0430 H   0  0  0  0  0  0  0  0  0  0  0  0
    2.4050    3.4770   19.5510 H   0  0  0  0  0  0  0  0  0  0  0  0
    5.5810    3.4260   19.3460 H   0  0  0  0  0  0  0  0  0  0  0  0
    7.0360    4.7480   17.8210 H   0  0  0  0  0  0  0  0  0  0  0  0
    6.2390    6.8950   16.8750 H   0  0  0  0  0  0  0  0  0  0  0  0
    3.9780    7.7600   17.4430 H   0  0  0  0  0  0  0  0  0  0  0  0
  1 15  1  0  0  0  0
  2  3  1  0  0  0  0
  2  1  2  0  0  0  0
  4  2  1  0  0  0  0
  5  4  2  0  0  0  0
  5  6  1  0  0  0  0
  6  7  2  0  0  0  0
  7  1  1  0  0  0  0
  7 24  1  0  0  0  0
  8  4  1  0  0  0  0
  9  5  1  0  0  0  0
 10 11  1  0  0  0  0
 11 16  1  0  0  0  0
 11 12  2  0  0  0  0
 12 17  1  0  0  0  0
 13 12  1  0  0  0  0
 13 18  1  0  0  0  0
 14 13  2  0  0  0  0
 15 10  2  0  0  0  0
 15 14  1  0  0  0  0
 19 14  1  0  0  0  0
 20 23  1  0  0  0  0
 20 22  1  0  0  0  0
 20 10  1  0  0  0  0
 21 20  1  0  0  0  0
 24 26  2  0  0  0  0
 25 24  1  0  0  0  0
 25 27  1  0  0  0  0
 28 25  1  0  0  0  0
 29 30  1  0  0  0  0
 29  6  1  0  0  0  0
 29 32  1  0  0  0  0
 31 29  1  0  0  0  0
 32 36  1  0  0  0  0
 33 32  1  0  0  0  0
 33 35  1  0  0  0  0
 34 33  2  0  0  0  0
 35 37  1  0  0  0  0
 38 47  1  6  0  0  0
 38 35  1  0  0  0  0
 38 39  1  0  0  0  0
 39 48  1  0  0  0  0
 39 49  1  0  0  0  0
 40 39  1  0  0  0  0
 40 50  1  0  0  0  0
 41 40  1  0  0  0  0
 42 41  1  0  0  0  0
 42 52  1  0  0  0  0
 43 42  2  0  0  0  0
 44 45  2  0  0  0  0
 44 43  1  0  0  0  0
 45 46  1  0  0  0  0
 46 38  1  0  0  0  0
 46 41  2  0  0  0  0
 51 40  1  0  0  0  0
 53 43  1  0  0  0  0
 54 44  1  0  0  0  0
 55 45  1  0  0  0  0
M  END
>  <MODEL>
20

>  <REMARK>
 VINA RESULT:    -6.692      6.607      9.379
 INTER + INTRA:         -10.129
 INTER:                  -8.699
 INTRA:                  -1.430
 UNBOUND:                -1.286
  Name = 
  6 active torsions:
  status: ('A' for Active; 'I' for Inactive)
    1  A    between atoms: C_1  and  C_2
    2  A    between atoms: C_7  and  C_8
    3  A    between atoms: C_13  and  C_14
    4  A    between atoms: C_14  and  N_15
    5  A    between atoms: N_18  and  C_19
    6  A    between atoms: C_28  and  C_29
                            x       y       z     vdW  Elec       q    Type
                         _______ _______ _______ _____ _____    ______ ____

>  <TORSDO>
F 6

$$$$
=
 OpenBabel07192307433D

 55 58  0  0  1  0  0  0  0  0999 V2000
    0.0760   12.2830   20.0830 C   0  0  0  0  0  0  0  0  0  0  0  0
    0.8840   13.3240   19.6010 C   0  0  0  0  0  0  0  0  0  0  0  0
    0.7040   14.5780   20.0470 F   0  0  0  0  0  0  0  0  0  0  0  0
    1.8770   13.1100   18.6510 C   0  0  0  0  0  0  0  0  0  0  0  0
    2.0920   11.8280   18.1530 C   0  0  0  0  0  0  0  0  0  0  0  0
    1.3260   10.7410   18.6120 C   0  0  0  0  0  0  0  0  0  0  0  0
    0.3080   10.9860   19.5660 C   0  0  0  0  0  0  0  0  0  0  0  0
    2.4670   13.9490   18.2950 H   0  0  0  0  0  0  0  0  0  0  0  0
    2.8600   11.6770   17.3950 H   0  0  0  0  0  0  0  0  0  0  0  0
   -2.3420   12.7690   20.6750 C   0  0  0  0  0  0  0  0  0  0  0  0
   -3.3080   13.0420   21.6580 C   0  0  0  0  0  0  0  0  0  0  0  0
   -2.9520   13.1530   23.0020 C   0  0  0  0  0  0  0  0  0  0  0  0
   -1.6270   12.9830   23.3830 C   0  0  0  0  0  0  0  0  0  0  0  0
   -0.6580   12.6970   22.4220 C   0  0  0  0  0  0  0  0  0  0  0  0
   -0.9910   12.5840   21.0580 C   0  0  0  0  0  0  0  0  0  0  0  0
   -4.3530   13.1670   21.3820 H   0  0  0  0  0  0  0  0  0  0  0  0
   -3.7110   13.3650   23.7500 H   0  0  0  0  0  0  0  0  0  0  0  0
   -1.3430   13.0650   24.4310 H   0  0  0  0  0  0  0  0  0  0  0  0
    0.3750   12.5630   22.7460 H   0  0  0  0  0  0  0  0  0  0  0  0
   -2.7930   12.6370   19.2440 C   0  0  0  0  0  0  0  0  0  0  0  0
   -3.3260   11.6910   19.1020 H   0  0  0  0  0  0  0  0  0  0  0  0
   -1.9440   12.6850   18.5550 H   0  0  0  0  0  0  0  0  0  0  0  0
   -3.4690   13.4530   18.9670 H   0  0  0  0  0  0  0  0  0  0  0  0
   -0.5570    9.8570   19.9820 C   0  0  0  0  0  0  0  0  0  0  0  0
   -0.2140    9.2140   21.1350 N   0  0  0  0  0  0  0  0  0  0  0  0
   -1.5130    9.5140   19.2990 O   0  0  0  0  0  0  0  0  0  0  0  0
   -0.8830    8.5410   21.4880 H   0  0  0  0  0  0  0  0  0  0  0  0
    0.4250    9.6210   21.8030 H   0  0  0  0  0  0  0  0  0  0  0  0
    1.5850    9.3660   18.0320 C   0  0  0  0  0  0  0  0  0  0  0  0
    2.1000    9.4670   17.0690 H   0  0  0  0  0  0  0  0  0  0  0  0
    0.6680    8.7950   17.8650 H   0  0  0  0  0  0  0  0  0  0  0  0
    2.3910    8.5610   18.9320 N   0  0  0  0  0  0  0  0  0  0  0  0
    2.6570    7.2540   18.6080 C   0  0  0  0  0  0  0  0  0  0  0  0
    2.3420    6.7270   17.5520 O   0  0  0  0  0  0  0  0  0  0  0  0
    3.3210    6.6280   19.6300 N   0  0  0  0  0  0  0  0  0  0  0  0
    2.2140    8.6990   19.9160 H   0  0  0  0  0  0  0  0  0  0  0  0
    3.9100    7.2380   20.1760 H   0  0  0  0  0  0  0  0  0  0  0  0
    3.8090    5.2740   19.4710 C   0  0  2  0  0  0  0  0  0  0  0  0
    4.5030    5.0950   18.1060 C   0  0  0  0  0  0  0  0  0  0  0  0
    4.2890    3.6350   17.6900 C   0  0  0  0  0  0  0  0  0  0  0  0
    2.9760    3.3370   18.3420 C   0  0  0  0  0  0  0  0  0  0  0  0
    2.1170    2.2830   18.0780 C   0  0  0  0  0  0  0  0  0  0  0  0
    0.9590    2.1620   18.8480 C   0  0  0  0  0  0  0  0  0  0  0  0
    0.6860    3.0770   19.8770 C   0  0  0  0  0  0  0  0  0  0  0  0
    1.5640    4.1290   20.1450 C   0  0  0  0  0  0  0  0  0  0  0  0
    2.7020    4.2590   19.3610 C   0  0  0  0  0  0  0  0  0  0  0  0
    4.4840    4.9950   20.2890 H   0  0  0  0  0  0  0  0  0  0  0  0
    5.5650    5.3640   18.1440 H   0  0  0  0  0  0  0  0  0  0  0  0
    4.0400    5.7510   17.3530 H   0  0  0  0  0  0  0  0  0  0  0  0
    4.2490    3.5330   16.6010 H   0  0  0  0  0  0  0  0  0  0  0  0
    5.0690    2.9860   18.1000 H   0  0  0  0  0  0  0  0  0  0  0  0
    2.3380    1.5620   17.2980 H   0  0  0  0  0  0  0  0  0  0  0  0
    0.2690    1.3430   18.6620 H   0  0  0  0  0  0  0  0  0  0  0  0
   -0.2100    2.9570   20.4810 H   0  0  0  0  0  0  0  0  0  0  0  0
    1.3660    4.8190   20.9600 H   0  0  0  0  0  0  0  0  0  0  0  0
  1 15  1  0  0  0  0
  2  3  1  0  0  0  0
  2  1  1  0  0  0  0
  4  2  2  0  0  0  0
  5  6  2  0  0  0  0
  5  4  1  0  0  0  0
  6  7  1  0  0  0  0
  7 24  1  0  0  0  0
  7  1  2  0  0  0  0
  8  4  1  0  0  0  0
  9  5  1  0  0  0  0
 10 15  2  0  0  0  0
 10 11  1  0  0  0  0
 11 12  2  0  0  0  0
 12 13  1  0  0  0  0
 12 17  1  0  0  0  0
 13 18  1  0  0  0  0
 14 19  1  0  0  0  0
 14 13  2  0  0  0  0
 15 14  1  0  0  0  0
 16 11  1  0  0  0  0
 20 10  1  0  0  0  0
 21 20  1  0  0  0  0
 22 20  1  0  0  0  0
 23 20  1  0  0  0  0
 24 25  1  0  0  0  0
 25 27  1  0  0  0  0
 25 28  1  0  0  0  0
 26 24  2  0  0  0  0
 29  6  1  0  0  0  0
 29 32  1  0  0  0  0
 30 29  1  0  0  0  0
 31 29  1  0  0  0  0
 32 36  1  0  0  0  0
 33 32  1  0  0  0  0
 33 35  1  0  0  0  0
 34 33  2  0  0  0  0
 35 37  1  0  0  0  0
 38 35  1  0  0  0  0
 38 47  1  1  0  0  0
 39 48  1  0  0  0  0
 39 38  1  0  0  0  0
 40 51  1  0  0  0  0
 40 39  1  0  0  0  0
 40 41  1  0  0  0  0
 41 46  1  0  0  0  0
 42 41  2  0  0  0  0
 42 43  1  0  0  0  0
 43 44  2  0  0  0  0
 44 45  1  0  0  0  0
 44 54  1  0  0  0  0
 45 55  1  0  0  0  0
 46 38  1  0  0  0  0
 46 45  2  0  0  0  0
 49 39  1  0  0  0  0
 50 40  1  0  0  0  0
 52 42  1  0  0  0  0
 53 43  1  0  0  0  0
M  END
>  <MODEL>
21

>  <REMARK>
 VINA RESULT:    -6.676      5.650      9.393
 INTER + INTRA:         -10.109
 INTER:                  -9.586
 INTRA:                  -0.522
 UNBOUND:                -1.286
  Name = 
  6 active torsions:
  status: ('A' for Active; 'I' for Inactive)
    1  A    between atoms: C_1  and  C_2
    2  A    between atoms: C_7  and  C_8
    3  A    between atoms: C_13  and  C_14
    4  A    between atoms: C_14  and  N_15
    5  A    between atoms: N_18  and  C_19
    6  A    between atoms: C_28  and  C_29
                            x       y       z     vdW  Elec       q    Type
                         _______ _______ _______ _____ _____    ______ ____

>  <TORSDO>
F 6

$$$$
=
 OpenBabel07192307433D

 55 58  0  0  1  0  0  0  0  0999 V2000
    4.2760    4.6940   17.6360 C   0  0  0  0  0  0  0  0  0  0  0  0
    3.7790    3.5380   18.2560 C   0  0  0  0  0  0  0  0  0  0  0  0
    4.1560    2.3250   17.8200 F   0  0  0  0  0  0  0  0  0  0  0  0
    2.8830    3.5950   19.3180 C   0  0  0  0  0  0  0  0  0  0  0  0
    2.4570    4.8310   19.7960 C   0  0  0  0  0  0  0  0  0  0  0  0
    2.9340    6.0260   19.2260 C   0  0  0  0  0  0  0  0  0  0  0  0
    3.8310    5.9430   18.1350 C   0  0  0  0  0  0  0  0  0  0  0  0
    2.5130    2.6740   19.7560 H   0  0  0  0  0  0  0  0  0  0  0  0
    1.7400    4.8620   20.6160 H   0  0  0  0  0  0  0  0  0  0  0  0
    6.5980    4.5980   16.6210 C   0  0  0  0  0  0  0  0  0  0  0  0
    7.4080    4.4590   15.4810 C   0  0  0  0  0  0  0  0  0  0  0  0
    6.8430    4.3110   14.2140 C   0  0  0  0  0  0  0  0  0  0  0  0
    5.4610    4.2890   14.0710 C   0  0  0  0  0  0  0  0  0  0  0  0
    4.6430    4.4100   15.1940 C   0  0  0  0  0  0  0  0  0  0  0  0
    5.1890    4.5660   16.4830 C   0  0  0  0  0  0  0  0  0  0  0  0
    8.4920    4.4620   15.5720 H   0  0  0  0  0  0  0  0  0  0  0  0
    7.4820    4.2050   13.3420 H   0  0  0  0  0  0  0  0  0  0  0  0
    5.0140    4.1690   13.0850 H   0  0  0  0  0  0  0  0  0  0  0  0
    3.5620    4.3860   15.0560 H   0  0  0  0  0  0  0  0  0  0  0  0
    7.2680    4.7300   17.9630 C   0  0  0  0  0  0  0  0  0  0  0  0
    8.0040    5.5400   17.9390 H   0  0  0  0  0  0  0  0  0  0  0  0
    7.7610    3.7970   18.2530 H   0  0  0  0  0  0  0  0  0  0  0  0
    6.5380    4.9560   18.7470 H   0  0  0  0  0  0  0  0  0  0  0  0
    4.2640    7.1990   17.4780 C   0  0  0  0  0  0  0  0  0  0  0  0
    5.4910    7.6820   17.8260 N   0  0  0  0  0  0  0  0  0  0  0  0
    3.5320    7.7770   16.6850 O   0  0  0  0  0  0  0  0  0  0  0  0
    5.8410    8.4560   17.2750 H   0  0  0  0  0  0  0  0  0  0  0  0
    6.1750    7.1080   18.2990 H   0  0  0  0  0  0  0  0  0  0  0  0
    2.4310    7.3470   19.7700 C   0  0  0  0  0  0  0  0  0  0  0  0
    3.2830    8.0020   19.9840 H   0  0  0  0  0  0  0  0  0  0  0  0
    1.8510    7.2350   20.6900 H   0  0  0  0  0  0  0  0  0  0  0  0
    1.5420    7.9990   18.8230 N   0  0  0  0  0  0  0  0  0  0  0  0
    0.9440    9.1840   19.1710 C   0  0  0  0  0  0  0  0  0  0  0  0
    1.1740    9.7980   20.2010 O   0  0  0  0  0  0  0  0  0  0  0  0
    0.0530    9.5780   18.2060 N   0  0  0  0  0  0  0  0  0  0  0  0
    0.9360    7.3840   18.3000 H   0  0  0  0  0  0  0  0  0  0  0  0
    0.3000    9.2860   17.2730 H   0  0  0  0  0  0  0  0  0  0  0  0
   -0.6170   10.8580   18.3000 C   0  0  2  0  0  0  0  0  0  0  0  0
   -1.0850   11.1300   19.7440 C   0  0  0  0  0  0  0  0  0  0  0  0
   -2.3510   11.9890   19.6430 C   0  0  0  0  0  0  0  0  0  0  0  0
   -2.9130   11.5240   18.3370 C   0  0  0  0  0  0  0  0  0  0  0  0
   -4.1980   11.7080   17.8530 C   0  0  0  0  0  0  0  0  0  0  0  0
   -4.4990   11.2350   16.5740 C   0  0  0  0  0  0  0  0  0  0  0  0
   -3.5150   10.6070   15.7940 C   0  0  0  0  0  0  0  0  0  0  0  0
   -2.2190   10.4380   16.2850 C   0  0  0  0  0  0  0  0  0  0  0  0
   -1.9310   10.8890   17.5660 C   0  0  0  0  0  0  0  0  0  0  0  0
    0.0260   11.6700   17.9410 H   0  0  0  0  0  0  0  0  0  0  0  0
   -0.3050   11.6090   20.3480 H   0  0  0  0  0  0  0  0  0  0  0  0
   -1.3360   10.1850   20.2490 H   0  0  0  0  0  0  0  0  0  0  0  0
   -3.0280   11.8010   20.4810 H   0  0  0  0  0  0  0  0  0  0  0  0
   -2.1050   13.0550   19.5890 H   0  0  0  0  0  0  0  0  0  0  0  0
   -4.9530   12.2130   18.4460 H   0  0  0  0  0  0  0  0  0  0  0  0
   -5.4990   11.3680   16.1700 H   0  0  0  0  0  0  0  0  0  0  0  0
   -3.7610   10.2630   14.7920 H   0  0  0  0  0  0  0  0  0  0  0  0
   -1.4510    9.9780   15.6690 H   0  0  0  0  0  0  0  0  0  0  0  0
  1  7  2  0  0  0  0
  1  2  1  0  0  0  0
  2  4  2  0  0  0  0
  3  2  1  0  0  0  0
  4  8  1  0  0  0  0
  4  5  1  0  0  0  0
  5  9  1  0  0  0  0
  6 29  1  0  0  0  0
  6  5  2  0  0  0  0
  7  6  1  0  0  0  0
 10 20  1  0  0  0  0
 11 16  1  0  0  0  0
 11 10  2  0  0  0  0
 12 11  1  0  0  0  0
 13 12  2  0  0  0  0
 13 14  1  0  0  0  0
 14 15  2  0  0  0  0
 15 10  1  0  0  0  0
 15  1  1  0  0  0  0
 17 12  1  0  0  0  0
 18 13  1  0  0  0  0
 19 14  1  0  0  0  0
 20 22  1  0  0  0  0
 20 23  1  0  0  0  0
 21 20  1  0  0  0  0
 24 25  1  0  0  0  0
 24  7  1  0  0  0  0
 25 28  1  0  0  0  0
 26 24  2  0  0  0  0
 27 25  1  0  0  0  0
 29 30  1  0  0  0  0
 29 31  1  0  0  0  0
 32 33  1  0  0  0  0
 32 29  1  0  0  0  0
 33 34  2  0  0  0  0
 35 38  1  0  0  0  0
 35 33  1  0  0  0  0
 36 32  1  0  0  0  0
 37 35  1  0  0  0  0
 38 47  1  6  0  0  0
 38 39  1  0  0  0  0
 39 49  1  0  0  0  0
 39 48  1  0  0  0  0
 40 39  1  0  0  0  0
 40 50  1  0  0  0  0
 41 40  1  0  0  0  0
 42 41  1  0  0  0  0
 42 52  1  0  0  0  0
 43 42  2  0  0  0  0
 44 45  2  0  0  0  0
 44 43  1  0  0  0  0
 45 46  1  0  0  0  0
 46 38  1  0  0  0  0
 46 41  2  0  0  0  0
 51 40  1  0  0  0  0
 53 43  1  0  0  0  0
 54 44  1  0  0  0  0
 55 45  1  0  0  0  0
M  END
>  <MODEL>
22

>  <REMARK>
 VINA RESULT:    -6.674      4.879      8.246
 INTER + INTRA:         -10.106
 INTER:                  -9.683
 INTRA:                  -0.424
 UNBOUND:                -1.286
  Name = 
  6 active torsions:
  status: ('A' for Active; 'I' for Inactive)
    1  A    between atoms: C_1  and  C_2
    2  A    between atoms: C_7  and  C_8
    3  A    between atoms: C_13  and  C_14
    4  A    between atoms: C_14  and  N_15
    5  A    between atoms: N_18  and  C_19
    6  A    between atoms: C_28  and  C_29
                            x       y       z     vdW  Elec       q    Type
                         _______ _______ _______ _____ _____    ______ ____

>  <TORSDO>
F 6

$$$$
=
 OpenBabel07192307433D

 55 58  0  0  1  0  0  0  0  0999 V2000
    3.8240    4.8530   17.4690 C   0  0  0  0  0  0  0  0  0  0  0  0
    4.7760    4.7040   16.4490 C   0  0  0  0  0  0  0  0  0  0  0  0
    5.1910    3.4790   16.0900 F   0  0  0  0  0  0  0  0  0  0  0  0
    5.3300    5.7950   15.7890 C   0  0  0  0  0  0  0  0  0  0  0  0
    4.9360    7.0850   16.1360 C   0  0  0  0  0  0  0  0  0  0  0  0
    3.9730    7.2970   17.1390 C   0  0  0  0  0  0  0  0  0  0  0  0
    3.4360    6.1720   17.8100 C   0  0  0  0  0  0  0  0  0  0  0  0
    6.0750    5.6330   15.0170 H   0  0  0  0  0  0  0  0  0  0  0  0
    5.3920    7.9320   15.6250 H   0  0  0  0  0  0  0  0  0  0  0  0
    4.0170    3.0180   19.2090 C   0  0  0  0  0  0  0  0  0  0  0  0
    3.4600    1.8880   19.8330 C   0  0  0  0  0  0  0  0  0  0  0  0
    2.2320    1.3750   19.4200 C   0  0  0  0  0  0  0  0  0  0  0  0
    1.5360    1.9890   18.3860 C   0  0  0  0  0  0  0  0  0  0  0  0
    2.0670    3.1210   17.7670 C   0  0  0  0  0  0  0  0  0  0  0  0
    3.3090    3.6560   18.1630 C   0  0  0  0  0  0  0  0  0  0  0  0
    3.9830    1.3990   20.6520 H   0  0  0  0  0  0  0  0  0  0  0  0
    1.8150    0.4990   19.9120 H   0  0  0  0  0  0  0  0  0  0  0  0
    0.5740    1.5950   18.0630 H   0  0  0  0  0  0  0  0  0  0  0  0
    1.5000    3.5880   16.9610 H   0  0  0  0  0  0  0  0  0  0  0  0
    5.3360    3.5390   19.7170 C   0  0  0  0  0  0  0  0  0  0  0  0
    5.3860    4.6250   19.5920 H   0  0  0  0  0  0  0  0  0  0  0  0
    6.1740    3.0720   19.1910 H   0  0  0  0  0  0  0  0  0  0  0  0
    5.4670    3.3120   20.7800 H   0  0  0  0  0  0  0  0  0  0  0  0
    2.4880    6.3990   18.9260 C   0  0  0  0  0  0  0  0  0  0  0  0
    3.0180    6.4450   20.1820 N   0  0  0  0  0  0  0  0  0  0  0  0
    1.2870    6.5090   18.7170 O   0  0  0  0  0  0  0  0  0  0  0  0
    2.3930    6.7390   20.9220 H   0  0  0  0  0  0  0  0  0  0  0  0
    4.0090    6.5730   20.3380 H   0  0  0  0  0  0  0  0  0  0  0  0
    3.5860    8.7180   17.4940 C   0  0  0  0  0  0  0  0  0  0  0  0
    4.0610    9.4120   16.7910 H   0  0  0  0  0  0  0  0  0  0  0  0
    3.8890    9.0010   18.5050 H   0  0  0  0  0  0  0  0  0  0  0  0
    2.1450    8.8950   17.4520 N   0  0  0  0  0  0  0  0  0  0  0  0
    1.6020   10.0830   17.8730 C   0  0  0  0  0  0  0  0  0  0  0  0
    2.2540   11.0620   18.2010 O   0  0  0  0  0  0  0  0  0  0  0  0
    0.2330   10.0150   17.8760 N   0  0  0  0  0  0  0  0  0  0  0  0
    1.5990    8.0890   17.7220 H   0  0  0  0  0  0  0  0  0  0  0  0
   -0.1510    9.3990   17.1760 H   0  0  0  0  0  0  0  0  0  0  0  0
   -0.5620   11.1880   18.1750 C   0  0  2  0  0  0  0  0  0  0  0  0
   -0.8750   11.2720   19.6830 C   0  0  0  0  0  0  0  0  0  0  0  0
   -2.2330   11.9710   19.8130 C   0  0  0  0  0  0  0  0  0  0  0  0
   -2.8970   11.5550   18.5380 C   0  0  0  0  0  0  0  0  0  0  0  0
   -4.2440   11.6170   18.2240 C   0  0  0  0  0  0  0  0  0  0  0  0
   -4.6460   11.2240   16.9450 C   0  0  0  0  0  0  0  0  0  0  0  0
   -3.7020   10.7950   16.0000 C   0  0  0  0  0  0  0  0  0  0  0  0
   -2.3440   10.7480   16.3210 C   0  0  0  0  0  0  0  0  0  0  0  0
   -1.9520   11.1180   17.6010 C   0  0  0  0  0  0  0  0  0  0  0  0
   -0.0660   12.1030   17.8300 H   0  0  0  0  0  0  0  0  0  0  0  0
   -0.0860   11.7910   20.2400 H   0  0  0  0  0  0  0  0  0  0  0  0
   -0.9510   10.2620   20.1130 H   0  0  0  0  0  0  0  0  0  0  0  0
   -2.7750   11.6270   20.6990 H   0  0  0  0  0  0  0  0  0  0  0  0
   -2.1190   13.0600   19.8410 H   0  0  0  0  0  0  0  0  0  0  0  0
   -4.9730   11.9700   18.9470 H   0  0  0  0  0  0  0  0  0  0  0  0
   -5.6970   11.2650   16.6730 H   0  0  0  0  0  0  0  0  0  0  0  0
   -4.0290   10.5120   15.0020 H   0  0  0  0  0  0  0  0  0  0  0  0
   -1.6110   10.4440   15.5790 H   0  0  0  0  0  0  0  0  0  0  0  0
  1  7  1  0  0  0  0
  1 15  1  0  0  0  0
  2  1  2  0  0  0  0
  3  2  1  0  0  0  0
  4  5  2  0  0  0  0
  4  2  1  0  0  0  0
  5  6  1  0  0  0  0
  6 29  1  0  0  0  0
  6  7  2  0  0  0  0
  7 24  1  0  0  0  0
  8  4  1  0  0  0  0
  9  5  1  0  0  0  0
 10 20  1  0  0  0  0
 10 11  1  0  0  0  0
 11 16  1  0  0  0  0
 12 11  2  0  0  0  0
 12 17  1  0  0  0  0
 13 12  1  0  0  0  0
 14 15  1  0  0  0  0
 14 13  2  0  0  0  0
 15 10  2  0  0  0  0
 18 13  1  0  0  0  0
 19 14  1  0  0  0  0
 20 23  1  0  0  0  0
 21 20  1  0  0  0  0
 22 20  1  0  0  0  0
 24 25  1  0  0  0  0
 25 28  1  0  0  0  0
 25 27  1  0  0  0  0
 26 24  2  0  0  0  0
 29 31  1  0  0  0  0
 30 29  1  0  0  0  0
 32 29  1  0  0  0  0
 32 36  1  0  0  0  0
 32 33  1  0  0  0  0
 33 35  1  0  0  0  0
 33 34  2  0  0  0  0
 35 38  1  0  0  0  0
 37 35  1  0  0  0  0
 38 47  1  6  0  0  0
 38 39  1  0  0  0  0
 39 40  1  0  0  0  0
 39 49  1  0  0  0  0
 39 48  1  0  0  0  0
 40 51  1  0  0  0  0
 40 50  1  0  0  0  0
 41 40  1  0  0  0  0
 42 41  1  0  0  0  0
 42 52  1  0  0  0  0
 43 42  2  0  0  0  0
 44 45  2  0  0  0  0
 44 43  1  0  0  0  0
 45 46  1  0  0  0  0
 46 38  1  0  0  0  0
 46 41  2  0  0  0  0
 53 43  1  0  0  0  0
 54 44  1  0  0  0  0
 55 45  1  0  0  0  0
M  END
>  <MODEL>
23

>  <REMARK>
 VINA RESULT:    -6.640      4.981      7.619
 INTER + INTRA:         -10.062
 INTER:                  -8.963
 INTRA:                  -1.099
 UNBOUND:                -1.286
  Name = 
  6 active torsions:
  status: ('A' for Active; 'I' for Inactive)
    1  A    between atoms: C_1  and  C_2
    2  A    between atoms: C_7  and  C_8
    3  A    between atoms: C_13  and  C_14
    4  A    between atoms: C_14  and  N_15
    5  A    between atoms: N_18  and  C_19
    6  A    between atoms: C_28  and  C_29
                            x       y       z     vdW  Elec       q    Type
                         _______ _______ _______ _____ _____    ______ ____

>  <TORSDO>
F 6

$$$$
=
 OpenBabel07192307433D

 55 58  0  0  1  0  0  0  0  0999 V2000
    2.9510    5.7500   18.3690 C   0  0  0  0  0  0  0  0  0  0  0  0
    3.5040    6.6100   17.4080 C   0  0  0  0  0  0  0  0  0  0  0  0
    4.2480    6.1120   16.4070 F   0  0  0  0  0  0  0  0  0  0  0  0
    3.3190    7.9870   17.4550 C   0  0  0  0  0  0  0  0  0  0  0  0
    2.5620    8.5480   18.4800 C   0  0  0  0  0  0  0  0  0  0  0  0
    1.9680    7.7350   19.4630 C   0  0  0  0  0  0  0  0  0  0  0  0
    2.1850    6.3370   19.4050 C   0  0  0  0  0  0  0  0  0  0  0  0
    3.7780    8.6160   16.6980 H   0  0  0  0  0  0  0  0  0  0  0  0
    2.4410    9.6300   18.5170 H   0  0  0  0  0  0  0  0  0  0  0  0
    4.4320    3.7260   18.7470 C   0  0  0  0  0  0  0  0  0  0  0  0
    4.6180    2.3360   18.6490 C   0  0  0  0  0  0  0  0  0  0  0  0
    3.6370    1.5200   18.0880 C   0  0  0  0  0  0  0  0  0  0  0  0
    2.4510    2.0780   17.6270 C   0  0  0  0  0  0  0  0  0  0  0  0
    2.2450    3.4530   17.7300 C   0  0  0  0  0  0  0  0  0  0  0  0
    3.2220    4.3010   18.2890 C   0  0  0  0  0  0  0  0  0  0  0  0
    5.5350    1.8770   19.0140 H   0  0  0  0  0  0  0  0  0  0  0  0
    3.7960    0.4470   18.0190 H   0  0  0  0  0  0  0  0  0  0  0  0
    1.6800    1.4450   17.1920 H   0  0  0  0  0  0  0  0  0  0  0  0
    1.3040    3.8680   17.3650 H   0  0  0  0  0  0  0  0  0  0  0  0
    5.5190    4.5510   19.3840 C   0  0  0  0  0  0  0  0  0  0  0  0
    5.6270    4.2830   20.4400 H   0  0  0  0  0  0  0  0  0  0  0  0
    5.3060    5.6210   19.2980 H   0  0  0  0  0  0  0  0  0  0  0  0
    6.4820    4.3830   18.8900 H   0  0  0  0  0  0  0  0  0  0  0  0
    1.6350    5.4900   20.4890 C   0  0  0  0  0  0  0  0  0  0  0  0
    2.4760    5.1920   21.5210 N   0  0  0  0  0  0  0  0  0  0  0  0
    0.4890    5.0640   20.4330 O   0  0  0  0  0  0  0  0  0  0  0  0
    2.0570    4.7350   22.3220 H   0  0  0  0  0  0  0  0  0  0  0  0
    3.3290    5.7090   21.6800 H   0  0  0  0  0  0  0  0  0  0  0  0
    1.1660    8.3900   20.5680 C   0  0  0  0  0  0  0  0  0  0  0  0
    1.6750    8.2420   21.5270 H   0  0  0  0  0  0  0  0  0  0  0  0
    0.1550    7.9840   20.6560 H   0  0  0  0  0  0  0  0  0  0  0  0
    0.9970    9.8110   20.3210 N   0  0  0  0  0  0  0  0  0  0  0  0
    0.0580   10.5100   21.0380 C   0  0  0  0  0  0  0  0  0  0  0  0
   -0.5990   10.0430   21.9550 O   0  0  0  0  0  0  0  0  0  0  0  0
   -0.0380   11.7990   20.5810 N   0  0  0  0  0  0  0  0  0  0  0  0
    1.0530   10.0950   19.3530 H   0  0  0  0  0  0  0  0  0  0  0  0
    0.8210   12.1690   20.2040 H   0  0  0  0  0  0  0  0  0  0  0  0
   -0.8840   12.7590   21.2590 C   0  0  2  0  0  0  0  0  0  0  0  0
   -0.9130   12.4920   22.7770 C   0  0  0  0  0  0  0  0  0  0  0  0
   -2.2890   12.9460   23.2780 C   0  0  0  0  0  0  0  0  0  0  0  0
   -3.1340   12.7020   22.0670 C   0  0  0  0  0  0  0  0  0  0  0  0
   -4.5150   12.6290   21.9970 C   0  0  0  0  0  0  0  0  0  0  0  0
   -5.1070   12.4460   20.7450 C   0  0  0  0  0  0  0  0  0  0  0  0
   -4.3170   12.3590   19.5870 C   0  0  0  0  0  0  0  0  0  0  0  0
   -2.9260   12.4460   19.6670 C   0  0  0  0  0  0  0  0  0  0  0  0
   -2.3420   12.6040   20.9160 C   0  0  0  0  0  0  0  0  0  0  0  0
   -0.5640   13.7870   21.0510 H   0  0  0  0  0  0  0  0  0  0  0  0
   -0.0940   12.9980   23.3010 H   0  0  0  0  0  0  0  0  0  0  0  0
   -0.7980   11.4170   22.9780 H   0  0  0  0  0  0  0  0  0  0  0  0
   -2.6130   12.3560   24.1400 H   0  0  0  0  0  0  0  0  0  0  0  0
   -2.2900   14.0110   23.5300 H   0  0  0  0  0  0  0  0  0  0  0  0
   -5.1270   12.7200   22.8880 H   0  0  0  0  0  0  0  0  0  0  0  0
   -6.1880   12.3880   20.6620 H   0  0  0  0  0  0  0  0  0  0  0  0
   -4.7950   12.2370   18.6180 H   0  0  0  0  0  0  0  0  0  0  0  0
   -2.3190   12.4070   18.7670 H   0  0  0  0  0  0  0  0  0  0  0  0
  1  7  1  0  0  0  0
  2  4  1  0  0  0  0
  2  1  2  0  0  0  0
  3  2  1  0  0  0  0
  4  5  2  0  0  0  0
  5  9  1  0  0  0  0
  5  6  1  0  0  0  0
  6 29  1  0  0  0  0
  7  6  2  0  0  0  0
  7 24  1  0  0  0  0
  8  4  1  0  0  0  0
 10 20  1  0  0  0  0
 11 10  1  0  0  0  0
 11 16  1  0  0  0  0
 12 11  2  0  0  0  0
 13 14  2  0  0  0  0
 13 12  1  0  0  0  0
 14 15  1  0  0  0  0
 15  1  1  0  0  0  0
 15 10  2  0  0  0  0
 17 12  1  0  0  0  0
 18 13  1  0  0  0  0
 19 14  1  0  0  0  0
 20 21  1  0  0  0  0
 22 20  1  0  0  0  0
 23 20  1  0  0  0  0
 24 25  1  0  0  0  0
 25 28  1  0  0  0  0
 25 27  1  0  0  0  0
 26 24  2  0  0  0  0
 29 31  1  0  0  0  0
 29 30  1  0  0  0  0
 32 29  1  0  0  0  0
 32 33  1  0  0  0  0
 33 34  2  0  0  0  0
 35 33  1  0  0  0  0
 35 38  1  0  0  0  0
 36 32  1  0  0  0  0
 37 35  1  0  0  0  0
 38 47  1  6  0  0  0
 38 39  1  0  0  0  0
 39 49  1  0  0  0  0
 39 40  1  0  0  0  0
 39 48  1  0  0  0  0
 40 51  1  0  0  0  0
 40 50  1  0  0  0  0
 41 40  1  0  0  0  0
 42 41  1  0  0  0  0
 42 52  1  0  0  0  0
 43 42  2  0  0  0  0
 44 45  2  0  0  0  0
 44 43  1  0  0  0  0
 45 46  1  0  0  0  0
 46 38  1  0  0  0  0
 46 41  2  0  0  0  0
 53 43  1  0  0  0  0
 54 44  1  0  0  0  0
 55 45  1  0  0  0  0
M  END
>  <MODEL>
24

>  <REMARK>
 VINA RESULT:    -6.639      5.852      8.140
 INTER + INTRA:         -10.060
 INTER:                  -9.597
 INTRA:                  -0.463
 UNBOUND:                -1.286
  Name = 
  6 active torsions:
  status: ('A' for Active; 'I' for Inactive)
    1  A    between atoms: C_1  and  C_2
    2  A    between atoms: C_7  and  C_8
    3  A    between atoms: C_13  and  C_14
    4  A    between atoms: C_14  and  N_15
    5  A    between atoms: N_18  and  C_19
    6  A    between atoms: C_28  and  C_29
                            x       y       z     vdW  Elec       q    Type
                         _______ _______ _______ _____ _____    ______ ____

>  <TORSDO>
F 6

$$$$
=
 OpenBabel07192307433D

 55 58  0  0  1  0  0  0  0  0999 V2000
    4.4570    4.3700   17.3840 C   0  0  0  0  0  0  0  0  0  0  0  0
    3.9600    3.1620   17.8970 C   0  0  0  0  0  0  0  0  0  0  0  0
    4.2320    2.0040   17.2750 F   0  0  0  0  0  0  0  0  0  0  0  0
    3.1720    3.1140   19.0410 C   0  0  0  0  0  0  0  0  0  0  0  0
    2.8560    4.2920   19.7140 C   0  0  0  0  0  0  0  0  0  0  0  0
    3.3390    5.5310   19.2560 C   0  0  0  0  0  0  0  0  0  0  0  0
    4.1260    5.5580   18.0790 C   0  0  0  0  0  0  0  0  0  0  0  0
    2.7970    2.1580   19.3930 H   0  0  0  0  0  0  0  0  0  0  0  0
    2.2210    4.2420   20.5970 H   0  0  0  0  0  0  0  0  0  0  0  0
    6.6650    4.4360   16.1370 C   0  0  0  0  0  0  0  0  0  0  0  0
    7.3570    4.4090   14.9150 C   0  0  0  0  0  0  0  0  0  0  0  0
    6.6700    4.3290   13.7040 C   0  0  0  0  0  0  0  0  0  0  0  0
    5.2820    4.2640   13.6980 C   0  0  0  0  0  0  0  0  0  0  0  0
    4.5810    4.2740   14.9030 C   0  0  0  0  0  0  0  0  0  0  0  0
    5.2510    4.3590   16.1390 C   0  0  0  0  0  0  0  0  0  0  0  0
    8.4440    4.4480   14.8980 H   0  0  0  0  0  0  0  0  0  0  0  0
    7.2200    4.3100   12.7670 H   0  0  0  0  0  0  0  0  0  0  0  0
    4.7410    4.1970   12.7560 H   0  0  0  0  0  0  0  0  0  0  0  0
    3.4920    4.2170   14.8730 H   0  0  0  0  0  0  0  0  0  0  0  0
    7.4640    4.4990   17.4120 C   0  0  0  0  0  0  0  0  0  0  0  0
    6.8170    4.3040   18.2740 H   0  0  0  0  0  0  0  0  0  0  0  0
    7.9450    5.4750   17.5300 H   0  0  0  0  0  0  0  0  0  0  0  0
    8.2650    3.7520   17.4120 H   0  0  0  0  0  0  0  0  0  0  0  0
    4.5600    6.8720   17.5480 C   0  0  0  0  0  0  0  0  0  0  0  0
    5.8090    7.2940   17.9010 N   0  0  0  0  0  0  0  0  0  0  0  0
    3.8120    7.5460   16.8530 O   0  0  0  0  0  0  0  0  0  0  0  0
    6.1530    8.1180   17.4250 H   0  0  0  0  0  0  0  0  0  0  0  0
    6.4970    6.6600   18.2820 H   0  0  0  0  0  0  0  0  0  0  0  0
    2.9590    6.7880   20.0110 C   0  0  0  0  0  0  0  0  0  0  0  0
    3.8650    7.2830   20.3780 H   0  0  0  0  0  0  0  0  0  0  0  0
    2.3120    6.5890   20.8690 H   0  0  0  0  0  0  0  0  0  0  0  0
    2.2140    7.7030   19.1630 N   0  0  0  0  0  0  0  0  0  0  0  0
    1.3170    8.5700   19.7360 C   0  0  0  0  0  0  0  0  0  0  0  0
    1.1570    8.7020   20.9390 O   0  0  0  0  0  0  0  0  0  0  0  0
    0.6290    9.2600   18.7720 N   0  0  0  0  0  0  0  0  0  0  0  0
    1.8950    7.3210   18.2850 H   0  0  0  0  0  0  0  0  0  0  0  0
    1.1520    9.4180   17.9240 H   0  0  0  0  0  0  0  0  0  0  0  0
   -0.2930   10.3150   19.1390 C   0  0  2  0  0  0  0  0  0  0  0  0
   -1.4080   10.4630   18.0850 C   0  0  0  0  0  0  0  0  0  0  0  0
   -1.8220   11.9400   18.0850 C   0  0  0  0  0  0  0  0  0  0  0  0
   -0.5380   12.6010   18.4780 C   0  0  0  0  0  0  0  0  0  0  0  0
   -0.1990   13.9370   18.3510 C   0  0  0  0  0  0  0  0  0  0  0  0
    1.0420   14.3550   18.8360 C   0  0  0  0  0  0  0  0  0  0  0  0
    1.9120   13.4430   19.4560 C   0  0  0  0  0  0  0  0  0  0  0  0
    1.5550   12.1000   19.5920 C   0  0  0  0  0  0  0  0  0  0  0  0
    0.3310   11.6850   19.0860 C   0  0  0  0  0  0  0  0  0  0  0  0
   -0.7190   10.1430   20.1340 H   0  0  0  0  0  0  0  0  0  0  0  0
   -2.2550    9.7960   18.2830 H   0  0  0  0  0  0  0  0  0  0  0  0
   -1.0280   10.2000   17.0860 H   0  0  0  0  0  0  0  0  0  0  0  0
   -2.1700   12.2560   17.0970 H   0  0  0  0  0  0  0  0  0  0  0  0
   -2.5930   12.1370   18.8360 H   0  0  0  0  0  0  0  0  0  0  0  0
   -0.8790   14.6470   17.8930 H   0  0  0  0  0  0  0  0  0  0  0  0
    1.3320   15.3990   18.7500 H   0  0  0  0  0  0  0  0  0  0  0  0
    2.8650   13.7900   19.8460 H   0  0  0  0  0  0  0  0  0  0  0  0
    2.2160   11.4020   20.0960 H   0  0  0  0  0  0  0  0  0  0  0  0
  1  2  2  0  0  0  0
  1  7  1  0  0  0  0
  2  4  1  0  0  0  0
  3  2  1  0  0  0  0
  4  8  1  0  0  0  0
  4  5  2  0  0  0  0
  5  9  1  0  0  0  0
  6  5  1  0  0  0  0
  6 29  1  0  0  0  0
  7  6  2  0  0  0  0
 10 15  1  0  0  0  0
 10 20  1  0  0  0  0
 11 10  2  0  0  0  0
 12 11  1  0  0  0  0
 13 12  2  0  0  0  0
 13 14  1  0  0  0  0
 14 15  2  0  0  0  0
 15  1  1  0  0  0  0
 16 11  1  0  0  0  0
 17 12  1  0  0  0  0
 18 13  1  0  0  0  0
 19 14  1  0  0  0  0
 20 23  1  0  0  0  0
 20 22  1  0  0  0  0
 20 21  1  0  0  0  0
 24 25  1  0  0  0  0
 24  7  1  0  0  0  0
 25 28  1  0  0  0  0
 26 24  2  0  0  0  0
 27 25  1  0  0  0  0
 29 30  1  0  0  0  0
 29 31  1  0  0  0  0
 32 33  1  0  0  0  0
 32 29  1  0  0  0  0
 33 34  2  0  0  0  0
 35 38  1  0  0  0  0
 35 33  1  0  0  0  0
 36 32  1  0  0  0  0
 37 35  1  0  0  0  0
 38 47  1  1  0  0  0
 39 40  1  0  0  0  0
 39 48  1  0  0  0  0
 39 38  1  0  0  0  0
 40 41  1  0  0  0  0
 40 51  1  0  0  0  0
 41 46  1  0  0  0  0
 42 41  2  0  0  0  0
 42 43  1  0  0  0  0
 43 44  2  0  0  0  0
 44 45  1  0  0  0  0
 44 54  1  0  0  0  0
 45 55  1  0  0  0  0
 46 38  1  0  0  0  0
 46 45  2  0  0  0  0
 49 39  1  0  0  0  0
 50 40  1  0  0  0  0
 52 42  1  0  0  0  0
 53 43  1  0  0  0  0
M  END
>  <MODEL>
25

>  <REMARK>
 VINA RESULT:    -6.523      4.654      7.076
 INTER + INTRA:          -9.907
 INTER:                  -9.034
 INTRA:                  -0.873
 UNBOUND:                -1.286
  Name = 
  6 active torsions:
  status: ('A' for Active; 'I' for Inactive)
    1  A    between atoms: C_1  and  C_2
    2  A    between atoms: C_7  and  C_8
    3  A    between atoms: C_13  and  C_14
    4  A    between atoms: C_14  and  N_15
    5  A    between atoms: N_18  and  C_19
    6  A    between atoms: C_28  and  C_29
                            x       y       z     vdW  Elec       q    Type
                         _______ _______ _______ _____ _____    ______ ____

>  <TORSDO>
F 6

$$$$
=
 OpenBabel07192307433D

 55 58  0  0  1  0  0  0  0  0999 V2000
    2.7550    6.1480   18.5370 C   0  0  0  0  0  0  0  0  0  0  0  0
    3.1070    7.2310   17.7170 C   0  0  0  0  0  0  0  0  0  0  0  0
    3.8270    7.0250   16.6030 F   0  0  0  0  0  0  0  0  0  0  0  0
    2.7450    8.5380   18.0230 C   0  0  0  0  0  0  0  0  0  0  0  0
    2.0070    8.8000   19.1740 C   0  0  0  0  0  0  0  0  0  0  0  0
    1.6090    7.7530   20.0260 C   0  0  0  0  0  0  0  0  0  0  0  0
    2.0050    6.4320   19.7040 C   0  0  0  0  0  0  0  0  0  0  0  0
    3.0530    9.3470   17.3670 H   0  0  0  0  0  0  0  0  0  0  0  0
    1.7460    9.8300   19.4120 H   0  0  0  0  0  0  0  0  0  0  0  0
    4.5140    4.3230   18.4690 C   0  0  0  0  0  0  0  0  0  0  0  0
    4.8750    3.0130   18.1110 C   0  0  0  0  0  0  0  0  0  0  0  0
    3.9720    2.1740   17.4580 C   0  0  0  0  0  0  0  0  0  0  0  0
    2.6930    2.6290   17.1630 C   0  0  0  0  0  0  0  0  0  0  0  0
    2.3140    3.9210   17.5250 C   0  0  0  0  0  0  0  0  0  0  0  0
    3.2090    4.7890   18.1810 C   0  0  0  0  0  0  0  0  0  0  0  0
    5.8680    2.6330   18.3430 H   0  0  0  0  0  0  0  0  0  0  0  0
    4.2670    1.1630   17.1870 H   0  0  0  0  0  0  0  0  0  0  0  0
    1.9830    1.9770   16.6570 H   0  0  0  0  0  0  0  0  0  0  0  0
    1.3030    4.2540   17.2860 H   0  0  0  0  0  0  0  0  0  0  0  0
    5.5250    5.1710   19.1940 C   0  0  0  0  0  0  0  0  0  0  0  0
    6.5070    5.0770   18.7200 H   0  0  0  0  0  0  0  0  0  0  0  0
    5.6000    4.8850   20.2480 H   0  0  0  0  0  0  0  0  0  0  0  0
    5.2380    6.2280   19.1760 H   0  0  0  0  0  0  0  0  0  0  0  0
    1.6620    5.3420   20.6480 C   0  0  0  0  0  0  0  0  0  0  0  0
    2.5960    5.0330   21.5940 N   0  0  0  0  0  0  0  0  0  0  0  0
    0.6020    4.7380   20.5520 O   0  0  0  0  0  0  0  0  0  0  0  0
    2.3030    4.3900   22.3190 H   0  0  0  0  0  0  0  0  0  0  0  0
    3.3590    5.6590   21.8130 H   0  0  0  0  0  0  0  0  0  0  0  0
    0.8200    8.0860   21.2750 C   0  0  0  0  0  0  0  0  0  0  0  0
    1.1820    7.4760   22.1100 H   0  0  0  0  0  0  0  0  0  0  0  0
   -0.2520    7.9010   21.1620 H   0  0  0  0  0  0  0  0  0  0  0  0
    0.9420    9.4940   21.6120 N   0  0  0  0  0  0  0  0  0  0  0  0
    0.0240   10.3850   21.1150 C   0  0  0  0  0  0  0  0  0  0  0  0
   -0.9660   10.0710   20.4720 O   0  0  0  0  0  0  0  0  0  0  0  0
    0.3730   11.6700   21.4400 N   0  0  0  0  0  0  0  0  0  0  0  0
    1.8830    9.8580   21.6280 H   0  0  0  0  0  0  0  0  0  0  0  0
    0.8750   11.7550   22.3100 H   0  0  0  0  0  0  0  0  0  0  0  0
   -0.5060   12.7750   21.1200 C   0  0  2  0  0  0  0  0  0  0  0  0
    0.2670   14.1100   21.1110 C   0  0  0  0  0  0  0  0  0  0  0  0
   -0.7270   15.1970   21.5380 C   0  0  0  0  0  0  0  0  0  0  0  0
   -1.6400   14.4210   22.4340 C   0  0  0  0  0  0  0  0  0  0  0  0
   -2.5460   14.9160   23.3560 C   0  0  0  0  0  0  0  0  0  0  0  0
   -3.3460   14.0080   24.0550 C   0  0  0  0  0  0  0  0  0  0  0  0
   -3.2420   12.6300   23.8100 C   0  0  0  0  0  0  0  0  0  0  0  0
   -2.3340   12.1400   22.8690 C   0  0  0  0  0  0  0  0  0  0  0  0
   -1.5260   13.0450   22.1950 C   0  0  0  0  0  0  0  0  0  0  0  0
   -1.0140   12.6150   20.1620 H   0  0  0  0  0  0  0  0  0  0  0  0
    0.7170   14.3200   20.1350 H   0  0  0  0  0  0  0  0  0  0  0  0
    1.0920   14.0770   21.8380 H   0  0  0  0  0  0  0  0  0  0  0  0
   -0.2220   16.0150   22.0620 H   0  0  0  0  0  0  0  0  0  0  0  0
   -1.2830   15.5870   20.6790 H   0  0  0  0  0  0  0  0  0  0  0  0
   -2.6440   15.9830   23.5290 H   0  0  0  0  0  0  0  0  0  0  0  0
   -4.0660   14.3710   24.7820 H   0  0  0  0  0  0  0  0  0  0  0  0
   -3.8860   11.9380   24.3480 H   0  0  0  0  0  0  0  0  0  0  0  0
   -2.2760   11.0760   22.6610 H   0  0  0  0  0  0  0  0  0  0  0  0
  1  7  1  0  0  0  0
  2  4  1  0  0  0  0
  2  1  2  0  0  0  0
  3  2  1  0  0  0  0
  4  5  2  0  0  0  0
  5  9  1  0  0  0  0
  5  6  1  0  0  0  0
  6 29  1  0  0  0  0
  7  6  2  0  0  0  0
  7 24  1  0  0  0  0
  8  4  1  0  0  0  0
 10 20  1  0  0  0  0
 11 16  1  0  0  0  0
 11 10  2  0  0  0  0
 12 11  1  0  0  0  0
 13 12  2  0  0  0  0
 13 14  1  0  0  0  0
 14 15  2  0  0  0  0
 15 10  1  0  0  0  0
 15  1  1  0  0  0  0
 17 12  1  0  0  0  0
 18 13  1  0  0  0  0
 19 14  1  0  0  0  0
 20 22  1  0  0  0  0
 21 20  1  0  0  0  0
 23 20  1  0  0  0  0
 24 25  1  0  0  0  0
 25 28  1  0  0  0  0
 25 27  1  0  0  0  0
 26 24  2  0  0  0  0
 29 32  1  0  0  0  0
 29 30  1  0  0  0  0
 31 29  1  0  0  0  0
 32 36  1  0  0  0  0
 33 35  1  0  0  0  0
 33 32  1  0  0  0  0
 34 33  2  0  0  0  0
 35 37  1  0  0  0  0
 38 47  1  6  0  0  0
 38 35  1  0  0  0  0
 38 46  1  0  0  0  0
 39 38  1  0  0  0  0
 39 40  1  0  0  0  0
 39 49  1  0  0  0  0
 40 50  1  0  0  0  0
 40 41  1  0  0  0  0
 41 42  1  0  0  0  0
 42 52  1  0  0  0  0
 42 43  2  0  0  0  0
 43 53  1  0  0  0  0
 44 43  1  0  0  0  0
 44 54  1  0  0  0  0
 45 44  2  0  0  0  0
 46 41  2  0  0  0  0
 46 45  1  0  0  0  0
 48 39  1  0  0  0  0
 51 40  1  0  0  0  0
 55 45  1  0  0  0  0
M  END
>  <MODEL>
26

>  <REMARK>
 VINA RESULT:    -6.491      6.060      7.888
 INTER + INTRA:          -9.864
 INTER:                  -8.932
 INTRA:                  -0.932
 UNBOUND:                -1.286
  Name = 
  6 active torsions:
  status: ('A' for Active; 'I' for Inactive)
    1  A    between atoms: C_1  and  C_2
    2  A    between atoms: C_7  and  C_8
    3  A    between atoms: C_13  and  C_14
    4  A    between atoms: C_14  and  N_15
    5  A    between atoms: N_18  and  C_19
    6  A    between atoms: C_28  and  C_29
                            x       y       z     vdW  Elec       q    Type
                         _______ _______ _______ _____ _____    ______ ____

>  <TORSDO>
F 6

$$$$
=
 OpenBabel07192307433D

 55 58  0  0  1  0  0  0  0  0999 V2000
   -1.1800   12.7690   21.4220 C   0  0  0  0  0  0  0  0  0  0  0  0
   -0.9660   13.3070   20.1440 C   0  0  0  0  0  0  0  0  0  0  0  0
   -1.3160   14.5760   19.8800 F   0  0  0  0  0  0  0  0  0  0  0  0
   -0.4060   12.5620   19.1120 C   0  0  0  0  0  0  0  0  0  0  0  0
   -0.0370   11.2380   19.3370 C   0  0  0  0  0  0  0  0  0  0  0  0
   -0.2120   10.6490   20.6030 C   0  0  0  0  0  0  0  0  0  0  0  0
   -0.8000   11.4210   21.6330 C   0  0  0  0  0  0  0  0  0  0  0  0
   -0.2730   13.0150   18.1350 H   0  0  0  0  0  0  0  0  0  0  0  0
    0.3830   10.6590   18.5160 H   0  0  0  0  0  0  0  0  0  0  0  0
   -3.2240   13.7660   22.5440 C   0  0  0  0  0  0  0  0  0  0  0  0
   -3.7670   14.5620   23.5670 C   0  0  0  0  0  0  0  0  0  0  0  0
   -2.9410   15.2060   24.4880 C   0  0  0  0  0  0  0  0  0  0  0  0
   -1.5630   15.0550   24.4070 C   0  0  0  0  0  0  0  0  0  0  0  0
   -1.0090   14.2560   23.4070 C   0  0  0  0  0  0  0  0  0  0  0  0
   -1.8210   13.5990   22.4610 C   0  0  0  0  0  0  0  0  0  0  0  0
   -4.8450   14.6850   23.6550 H   0  0  0  0  0  0  0  0  0  0  0  0
   -3.3760   15.8190   25.2730 H   0  0  0  0  0  0  0  0  0  0  0  0
   -0.9140   15.5520   25.1260 H   0  0  0  0  0  0  0  0  0  0  0  0
    0.0750   14.1490   23.3660 H   0  0  0  0  0  0  0  0  0  0  0  0
   -4.1700   13.0780   21.5940 C   0  0  0  0  0  0  0  0  0  0  0  0
   -3.7110   12.9880   20.6050 H   0  0  0  0  0  0  0  0  0  0  0  0
   -5.1140   13.6250   21.5110 H   0  0  0  0  0  0  0  0  0  0  0  0
   -4.4200   12.0720   21.9470 H   0  0  0  0  0  0  0  0  0  0  0  0
   -1.0650   10.7740   22.9390 C   0  0  0  0  0  0  0  0  0  0  0  0
   -0.0330   10.0830   23.5030 N   0  0  0  0  0  0  0  0  0  0  0  0
   -2.1700   10.8420   23.4610 O   0  0  0  0  0  0  0  0  0  0  0  0
   -0.1730    9.7640   24.4540 H   0  0  0  0  0  0  0  0  0  0  0  0
    0.9220   10.2050   23.1940 H   0  0  0  0  0  0  0  0  0  0  0  0
    0.1900    9.2020   20.7980 C   0  0  0  0  0  0  0  0  0  0  0  0
   -0.7070    8.5900   20.9460 H   0  0  0  0  0  0  0  0  0  0  0  0
    0.8440    9.0550   21.6620 H   0  0  0  0  0  0  0  0  0  0  0  0
    0.9350    8.7060   19.6540 N   0  0  0  0  0  0  0  0  0  0  0  0
    1.8930    7.7410   19.8440 C   0  0  0  0  0  0  0  0  0  0  0  0
    2.1110    7.1850   20.9090 O   0  0  0  0  0  0  0  0  0  0  0  0
    2.5670    7.4930   18.6760 N   0  0  0  0  0  0  0  0  0  0  0  0
    1.1990    9.4010   18.9720 H   0  0  0  0  0  0  0  0  0  0  0  0
    2.0140    7.6290   17.8430 H   0  0  0  0  0  0  0  0  0  0  0  0
    3.5480    6.4310   18.6040 C   0  0  2  0  0  0  0  0  0  0  0  0
    4.4200    6.5710   17.3390 C   0  0  0  0  0  0  0  0  0  0  0  0
    4.8290    5.1520   16.9270 C   0  0  0  0  0  0  0  0  0  0  0  0
    3.6580    4.3580   17.4150 C   0  0  0  0  0  0  0  0  0  0  0  0
    3.3040    3.0660   17.0650 C   0  0  0  0  0  0  0  0  0  0  0  0
    2.1930    2.4910   17.6870 C   0  0  0  0  0  0  0  0  0  0  0  0
    1.4690    3.2030   18.6570 C   0  0  0  0  0  0  0  0  0  0  0  0
    1.8420    4.5010   19.0130 C   0  0  0  0  0  0  0  0  0  0  0  0
    2.9320    5.0760   18.3750 C   0  0  0  0  0  0  0  0  0  0  0  0
    4.1730    6.4040   19.5050 H   0  0  0  0  0  0  0  0  0  0  0  0
    5.2860    7.2210   17.5050 H   0  0  0  0  0  0  0  0  0  0  0  0
    3.8380    7.0250   16.5230 H   0  0  0  0  0  0  0  0  0  0  0  0
    4.9640    5.0750   15.8440 H   0  0  0  0  0  0  0  0  0  0  0  0
    5.7410    4.8350   17.4430 H   0  0  0  0  0  0  0  0  0  0  0  0
    3.8760    2.5070   16.3320 H   0  0  0  0  0  0  0  0  0  0  0  0
    1.8950    1.4780   17.4320 H   0  0  0  0  0  0  0  0  0  0  0  0
    0.6190    2.7330   19.1460 H   0  0  0  0  0  0  0  0  0  0  0  0
    1.2980    5.0390   19.7840 H   0  0  0  0  0  0  0  0  0  0  0  0
  1  7  1  0  0  0  0
  1 15  1  0  0  0  0
  2  1  2  0  0  0  0
  3  2  1  0  0  0  0
  4  5  2  0  0  0  0
  4  2  1  0  0  0  0
  5  6  1  0  0  0  0
  6 29  1  0  0  0  0
  6  7  2  0  0  0  0
  7 24  1  0  0  0  0
  8  4  1  0  0  0  0
  9  5  1  0  0  0  0
 10 11  1  0  0  0  0
 11 16  1  0  0  0  0
 11 12  2  0  0  0  0
 12 17  1  0  0  0  0
 13 12  1  0  0  0  0
 13 18  1  0  0  0  0
 14 13  2  0  0  0  0
 15 10  2  0  0  0  0
 15 14  1  0  0  0  0
 19 14  1  0  0  0  0
 20 23  1  0  0  0  0
 20 10  1  0  0  0  0
 21 20  1  0  0  0  0
 22 20  1  0  0  0  0
 24 26  2  0  0  0  0
 24 25  1  0  0  0  0
 25 27  1  0  0  0  0
 28 25  1  0  0  0  0
 29 30  1  0  0  0  0
 29 31  1  0  0  0  0
 32 33  1  0  0  0  0
 32 29  1  0  0  0  0
 33 34  2  0  0  0  0
 35 33  1  0  0  0  0
 36 32  1  0  0  0  0
 37 35  1  0  0  0  0
 38 35  1  0  0  0  0
 38 47  1  1  0  0  0
 39 48  1  0  0  0  0
 39 38  1  0  0  0  0
 40 39  1  0  0  0  0
 40 41  1  0  0  0  0
 40 51  1  0  0  0  0
 41 46  1  0  0  0  0
 42 41  2  0  0  0  0
 42 43  1  0  0  0  0
 43 44  2  0  0  0  0
 44 45  1  0  0  0  0
 44 54  1  0  0  0  0
 45 55  1  0  0  0  0
 46 38  1  0  0  0  0
 46 45  2  0  0  0  0
 49 39  1  0  0  0  0
 50 40  1  0  0  0  0
 52 42  1  0  0  0  0
 53 43  1  0  0  0  0
M  END
>  <MODEL>
27

>  <REMARK>
 VINA RESULT:    -6.451      6.980     10.073
 INTER + INTRA:          -9.812
 INTER:                  -9.821
 INTRA:                   0.009
 UNBOUND:                -1.286
  Name = 
  6 active torsions:
  status: ('A' for Active; 'I' for Inactive)
    1  A    between atoms: C_1  and  C_2
    2  A    between atoms: C_7  and  C_8
    3  A    between atoms: C_13  and  C_14
    4  A    between atoms: C_14  and  N_15
    5  A    between atoms: N_18  and  C_19
    6  A    between atoms: C_28  and  C_29
                            x       y       z     vdW  Elec       q    Type
                         _______ _______ _______ _____ _____    ______ ____

>  <TORSDO>
F 6

$$$$
=
 OpenBabel07192307433D

 55 58  0  0  1  0  0  0  0  0999 V2000
    2.7970    4.8340   19.7900 C   0  0  0  0  0  0  0  0  0  0  0  0
    1.8500    5.0300   20.8060 C   0  0  0  0  0  0  0  0  0  0  0  0
    1.4950    4.0090   21.6030 F   0  0  0  0  0  0  0  0  0  0  0  0
    1.2400    6.2610   21.0210 C   0  0  0  0  0  0  0  0  0  0  0  0
    1.5700    7.3460   20.2120 C   0  0  0  0  0  0  0  0  0  0  0  0
    2.5260    7.2140   19.1880 C   0  0  0  0  0  0  0  0  0  0  0  0
    3.1200    5.9470   18.9770 C   0  0  0  0  0  0  0  0  0  0  0  0
    0.5000    6.3620   21.8090 H   0  0  0  0  0  0  0  0  0  0  0  0
    1.0710    8.3000   20.3780 H   0  0  0  0  0  0  0  0  0  0  0  0
    2.8640    2.5800   18.6280 C   0  0  0  0  0  0  0  0  0  0  0  0
    3.4710    1.3220   18.4790 C   0  0  0  0  0  0  0  0  0  0  0  0
    4.5540    0.9490   19.2740 C   0  0  0  0  0  0  0  0  0  0  0  0
    5.0530    1.8330   20.2220 C   0  0  0  0  0  0  0  0  0  0  0  0
    4.4730    3.0920   20.3730 C   0  0  0  0  0  0  0  0  0  0  0  0
    3.3750    3.4900   19.5850 C   0  0  0  0  0  0  0  0  0  0  0  0
    3.1020    0.6190   17.7340 H   0  0  0  0  0  0  0  0  0  0  0  0
    5.0120   -0.0290   19.1470 H   0  0  0  0  0  0  0  0  0  0  0  0
    5.9010    1.5490   20.8430 H   0  0  0  0  0  0  0  0  0  0  0  0
    4.8850    3.7700   21.1210 H   0  0  0  0  0  0  0  0  0  0  0  0
    1.7130    2.9330   17.7230 C   0  0  0  0  0  0  0  0  0  0  0  0
    1.1960    2.0240   17.3990 H   0  0  0  0  0  0  0  0  0  0  0  0
    2.0560    3.4910   16.8460 H   0  0  0  0  0  0  0  0  0  0  0  0
    0.9890    3.5720   18.2380 H   0  0  0  0  0  0  0  0  0  0  0  0
    4.0600    5.7870   17.8430 C   0  0  0  0  0  0  0  0  0  0  0  0
    5.3800    6.0130   18.1030 N   0  0  0  0  0  0  0  0  0  0  0  0
    3.6530    5.4940   16.7260 O   0  0  0  0  0  0  0  0  0  0  0  0
    6.0300    5.7660   17.3670 H   0  0  0  0  0  0  0  0  0  0  0  0
    5.7410    6.0370   19.0470 H   0  0  0  0  0  0  0  0  0  0  0  0
    2.8420    8.4170   18.3240 C   0  0  0  0  0  0  0  0  0  0  0  0
    3.5360    8.1230   17.5290 H   0  0  0  0  0  0  0  0  0  0  0  0
    3.3010    9.2350   18.8870 H   0  0  0  0  0  0  0  0  0  0  0  0
    1.6360    8.9730   17.7370 N   0  0  0  0  0  0  0  0  0  0  0  0
    1.0110   10.0250   18.3580 C   0  0  0  0  0  0  0  0  0  0  0  0
    1.4480   10.6080   19.3380 O   0  0  0  0  0  0  0  0  0  0  0  0
   -0.1690   10.3280   17.7270 N   0  0  0  0  0  0  0  0  0  0  0  0
    0.9920    8.3010   17.3470 H   0  0  0  0  0  0  0  0  0  0  0  0
   -0.1690   10.1340   16.7370 H   0  0  0  0  0  0  0  0  0  0  0  0
   -0.9480   11.4780   18.1350 C   0  0  2  0  0  0  0  0  0  0  0  0
   -1.1420   11.4980   19.6650 C   0  0  0  0  0  0  0  0  0  0  0  0
   -2.4920   12.1740   19.9300 C   0  0  0  0  0  0  0  0  0  0  0  0
   -3.2510   11.8010   18.6950 C   0  0  0  0  0  0  0  0  0  0  0  0
   -4.6190   11.8590   18.4910 C   0  0  0  0  0  0  0  0  0  0  0  0
   -5.1170   11.5110   17.2320 C   0  0  0  0  0  0  0  0  0  0  0  0
   -4.2460   11.1330   16.1990 C   0  0  0  0  0  0  0  0  0  0  0  0
   -2.8660   11.0900   16.4110 C   0  0  0  0  0  0  0  0  0  0  0  0
   -2.3790   11.4130   17.6690 C   0  0  0  0  0  0  0  0  0  0  0  0
   -0.4900   12.4120   17.7900 H   0  0  0  0  0  0  0  0  0  0  0  0
   -0.3170   12.0040   20.1790 H   0  0  0  0  0  0  0  0  0  0  0  0
   -1.1750   10.4710   20.0590 H   0  0  0  0  0  0  0  0  0  0  0  0
   -2.9590   11.7880   20.8410 H   0  0  0  0  0  0  0  0  0  0  0  0
   -2.3870   13.2620   19.9920 H   0  0  0  0  0  0  0  0  0  0  0  0
   -5.2920   12.1730   19.2820 H   0  0  0  0  0  0  0  0  0  0  0  0
   -6.1870   11.5500   17.0460 H   0  0  0  0  0  0  0  0  0  0  0  0
   -4.6490   10.8850   15.2200 H   0  0  0  0  0  0  0  0  0  0  0  0
   -2.1920   10.8250   15.6010 H   0  0  0  0  0  0  0  0  0  0  0  0
  1  2  1  0  0  0  0
  2  4  2  0  0  0  0
  2  3  1  0  0  0  0
  4  8  1  0  0  0  0
  5  9  1  0  0  0  0
  5  4  1  0  0  0  0
  6  5  2  0  0  0  0
  7  6  1  0  0  0  0
  7  1  2  0  0  0  0
 10 15  1  0  0  0  0
 11 10  2  0  0  0  0
 11 12  1  0  0  0  0
 12 13  2  0  0  0  0
 13 14  1  0  0  0  0
 13 18  1  0  0  0  0
 14 19  1  0  0  0  0
 15  1  1  0  0  0  0
 15 14  2  0  0  0  0
 16 11  1  0  0  0  0
 17 12  1  0  0  0  0
 20 23  1  0  0  0  0
 20 10  1  0  0  0  0
 21 20  1  0  0  0  0
 22 20  1  0  0  0  0
 24 25  1  0  0  0  0
 24  7  1  0  0  0  0
 25 28  1  0  0  0  0
 26 24  2  0  0  0  0
 27 25  1  0  0  0  0
 29 31  1  0  0  0  0
 29  6  1  0  0  0  0
 30 29  1  0  0  0  0
 32 29  1  0  0  0  0
 32 33  1  0  0  0  0
 33 34  2  0  0  0  0
 35 38  1  0  0  0  0
 35 33  1  0  0  0  0
 36 32  1  0  0  0  0
 37 35  1  0  0  0  0
 38 47  1  6  0  0  0
 38 39  1  0  0  0  0
 39 40  1  0  0  0  0
 39 49  1  0  0  0  0
 39 48  1  0  0  0  0
 40 51  1  0  0  0  0
 40 50  1  0  0  0  0
 41 40  1  0  0  0  0
 42 41  1  0  0  0  0
 42 52  1  0  0  0  0
 43 42  2  0  0  0  0
 44 45  2  0  0  0  0
 44 43  1  0  0  0  0
 45 46  1  0  0  0  0
 46 38  1  0  0  0  0
 46 41  2  0  0  0  0
 53 43  1  0  0  0  0
 54 44  1  0  0  0  0
 55 45  1  0  0  0  0
M  END
>  <MODEL>
28

>  <REMARK>
 VINA RESULT:    -6.356      4.987      7.799
 INTER + INTRA:          -9.686
 INTER:                  -9.187
 INTRA:                  -0.499
 UNBOUND:                -1.286
  Name = 
  6 active torsions:
  status: ('A' for Active; 'I' for Inactive)
    1  A    between atoms: C_1  and  C_2
    2  A    between atoms: C_7  and  C_8
    3  A    between atoms: C_13  and  C_14
    4  A    between atoms: C_14  and  N_15
    5  A    between atoms: N_18  and  C_19
    6  A    between atoms: C_28  and  C_29
                            x       y       z     vdW  Elec       q    Type
                         _______ _______ _______ _____ _____    ______ ____

>  <TORSDO>
F 6

$$$$
=
 OpenBabel07192307433D

 55 58  0  0  1  0  0  0  0  0999 V2000
    0.1330   11.1330   20.9470 C   0  0  0  0  0  0  0  0  0  0  0  0
   -0.3370   11.2230   22.2660 C   0  0  0  0  0  0  0  0  0  0  0  0
   -0.6150   12.4230   22.8010 F   0  0  0  0  0  0  0  0  0  0  0  0
   -0.5190   10.0990   23.0640 C   0  0  0  0  0  0  0  0  0  0  0  0
   -0.2340    8.8350   22.5540 C   0  0  0  0  0  0  0  0  0  0  0  0
    0.2240    8.6800   21.2330 C   0  0  0  0  0  0  0  0  0  0  0  0
    0.4190    9.8400   20.4440 C   0  0  0  0  0  0  0  0  0  0  0  0
   -0.8700   10.2190   24.0850 H   0  0  0  0  0  0  0  0  0  0  0  0
   -0.3620    7.9650   23.1960 H   0  0  0  0  0  0  0  0  0  0  0  0
   -0.6630   12.9470   19.3630 C   0  0  0  0  0  0  0  0  0  0  0  0
   -0.3900   14.1300   18.6550 C   0  0  0  0  0  0  0  0  0  0  0  0
    0.8680   14.7270   18.7140 C   0  0  0  0  0  0  0  0  0  0  0  0
    1.8690   14.1580   19.4920 C   0  0  0  0  0  0  0  0  0  0  0  0
    1.6110   12.9930   20.2130 C   0  0  0  0  0  0  0  0  0  0  0  0
    0.3490   12.3670   20.1660 C   0  0  0  0  0  0  0  0  0  0  0  0
   -1.1630   14.5980   18.0490 H   0  0  0  0  0  0  0  0  0  0  0  0
    1.0630   15.6410   18.1600 H   0  0  0  0  0  0  0  0  0  0  0  0
    2.8520   14.6220   19.5460 H   0  0  0  0  0  0  0  0  0  0  0  0
    2.4110   12.5670   20.8200 H   0  0  0  0  0  0  0  0  0  0  0  0
   -2.0480   12.3630   19.2770 C   0  0  0  0  0  0  0  0  0  0  0  0
   -2.5880   12.5320   20.2140 H   0  0  0  0  0  0  0  0  0  0  0  0
   -2.0130   11.2900   19.0640 H   0  0  0  0  0  0  0  0  0  0  0  0
   -2.6210   12.8260   18.4660 H   0  0  0  0  0  0  0  0  0  0  0  0
    0.9850    9.6830   19.0840 C   0  0  0  0  0  0  0  0  0  0  0  0
    0.1010    9.7080   18.0450 N   0  0  0  0  0  0  0  0  0  0  0  0
    2.1850    9.5120   18.9190 O   0  0  0  0  0  0  0  0  0  0  0  0
    0.5030    9.7430   17.1160 H   0  0  0  0  0  0  0  0  0  0  0  0
   -0.8400   10.0610   18.1540 H   0  0  0  0  0  0  0  0  0  0  0  0
    0.5350    7.2880   20.7250 C   0  0  0  0  0  0  0  0  0  0  0  0
    0.0480    7.1350   19.7560 H   0  0  0  0  0  0  0  0  0  0  0  0
    0.1920    6.5020   21.4030 H   0  0  0  0  0  0  0  0  0  0  0  0
    1.9670    7.0880   20.5880 N   0  0  0  0  0  0  0  0  0  0  0  0
    2.4290    6.0720   19.7900 C   0  0  0  0  0  0  0  0  0  0  0  0
    1.7190    5.3620   19.0950 O   0  0  0  0  0  0  0  0  0  0  0  0
    3.7930    5.9660   19.8830 N   0  0  0  0  0  0  0  0  0  0  0  0
    2.5070    7.2100   21.4320 H   0  0  0  0  0  0  0  0  0  0  0  0
    4.2630    6.8380   20.0700 H   0  0  0  0  0  0  0  0  0  0  0  0
    4.5190    5.0360   19.0430 C   0  0  2  0  0  0  0  0  0  0  0  0
    5.8950    4.7010   19.6530 C   0  0  0  0  0  0  0  0  0  0  0  0
    6.8390    4.4130   18.4790 C   0  0  0  0  0  0  0  0  0  0  0  0
    6.2520    5.2850   17.4140 C   0  0  0  0  0  0  0  0  0  0  0  0
    6.8410    5.6880   16.2280 C   0  0  0  0  0  0  0  0  0  0  0  0
    6.0890    6.4640   15.3430 C   0  0  0  0  0  0  0  0  0  0  0  0
    4.7620    6.8080   15.6450 C   0  0  0  0  0  0  0  0  0  0  0  0
    4.1710    6.3860   16.8380 C   0  0  0  0  0  0  0  0  0  0  0  0
    4.9310    5.6350   17.7240 C   0  0  0  0  0  0  0  0  0  0  0  0
    3.9390    4.1220   18.8680 H   0  0  0  0  0  0  0  0  0  0  0  0
    5.8420    3.8630   20.3570 H   0  0  0  0  0  0  0  0  0  0  0  0
    6.2820    5.5630   20.2180 H   0  0  0  0  0  0  0  0  0  0  0  0
    7.8710    4.6850   18.7210 H   0  0  0  0  0  0  0  0  0  0  0  0
    6.7880    3.3620   18.1760 H   0  0  0  0  0  0  0  0  0  0  0  0
    7.8600    5.4040   15.9820 H   0  0  0  0  0  0  0  0  0  0  0  0
    6.5280    6.7920   14.4040 H   0  0  0  0  0  0  0  0  0  0  0  0
    4.1840    7.3950   14.9360 H   0  0  0  0  0  0  0  0  0  0  0  0
    3.1350    6.6280   17.0570 H   0  0  0  0  0  0  0  0  0  0  0  0
  1  2  1  0  0  0  0
  2  3  1  0  0  0  0
  2  4  2  0  0  0  0
  4  8  1  0  0  0  0
  5  4  1  0  0  0  0
  5  9  1  0  0  0  0
  6  5  2  0  0  0  0
  7  1  2  0  0  0  0
  7  6  1  0  0  0  0
 10 15  1  0  0  0  0
 11 12  1  0  0  0  0
 11 10  2  0  0  0  0
 12 13  2  0  0  0  0
 13 18  1  0  0  0  0
 13 14  1  0  0  0  0
 14 19  1  0  0  0  0
 15 14  2  0  0  0  0
 15  1  1  0  0  0  0
 16 11  1  0  0  0  0
 17 12  1  0  0  0  0
 20 10  1  0  0  0  0
 20 21  1  0  0  0  0
 22 20  1  0  0  0  0
 23 20  1  0  0  0  0
 24  7  1  0  0  0  0
 25 28  1  0  0  0  0
 25 24  1  0  0  0  0
 26 24  2  0  0  0  0
 27 25  1  0  0  0  0
 29  6  1  0  0  0  0
 29 31  1  0  0  0  0
 30 29  1  0  0  0  0
 32 29  1  0  0  0  0
 32 36  1  0  0  0  0
 33 35  1  0  0  0  0
 33 32  1  0  0  0  0
 34 33  2  0  0  0  0
 35 37  1  0  0  0  0
 38 47  1  6  0  0  0
 38 39  1  0  0  0  0
 38 35  1  0  0  0  0
 39 49  1  0  0  0  0
 39 48  1  0  0  0  0
 40 50  1  0  0  0  0
 40 39  1  0  0  0  0
 41 46  1  0  0  0  0
 41 40  1  0  0  0  0
 42 41  2  0  0  0  0
 43 44  2  0  0  0  0
 43 42  1  0  0  0  0
 44 45  1  0  0  0  0
 45 55  1  0  0  0  0
 45 46  2  0  0  0  0
 46 38  1  0  0  0  0
 51 40  1  0  0  0  0
 52 42  1  0  0  0  0
 53 43  1  0  0  0  0
 54 44  1  0  0  0  0
M  END
>  <MODEL>
29

>  <REMARK>
 VINA RESULT:    -6.245      5.077      8.282
 INTER + INTRA:          -9.539
 INTER:                  -8.205
 INTRA:                  -1.334
 UNBOUND:                -1.286
  Name = 
  6 active torsions:
  status: ('A' for Active; 'I' for Inactive)
    1  A    between atoms: C_1  and  C_2
    2  A    between atoms: C_7  and  C_8
    3  A    between atoms: C_13  and  C_14
    4  A    between atoms: C_14  and  N_15
    5  A    between atoms: N_18  and  C_19
    6  A    between atoms: C_28  and  C_29
                            x       y       z     vdW  Elec       q    Type
                         _______ _______ _______ _____ _____    ______ ____

>  <TORSDO>
F 6

$$$$
=
 OpenBabel07192307433D

 55 58  0  0  1  0  0  0  0  0999 V2000
   -1.0680   11.7080   19.3360 C   0  0  0  0  0  0  0  0  0  0  0  0
   -2.1810   11.1580   18.6810 C   0  0  0  0  0  0  0  0  0  0  0  0
   -3.4110   11.6380   18.9250 F   0  0  0  0  0  0  0  0  0  0  0  0
   -2.0620   10.1060   17.7790 C   0  0  0  0  0  0  0  0  0  0  0  0
   -0.8070    9.5710   17.5030 C   0  0  0  0  0  0  0  0  0  0  0  0
    0.3470   10.0920   18.1160 C   0  0  0  0  0  0  0  0  0  0  0  0
    0.2010   11.1510   19.0440 C   0  0  0  0  0  0  0  0  0  0  0  0
   -2.9520    9.7020   17.3070 H   0  0  0  0  0  0  0  0  0  0  0  0
   -0.7290    8.7340   16.8100 H   0  0  0  0  0  0  0  0  0  0  0  0
   -1.4280   12.5490   21.7010 C   0  0  0  0  0  0  0  0  0  0  0  0
   -1.6010   13.6320   22.5800 C   0  0  0  0  0  0  0  0  0  0  0  0
   -1.6370   14.9420   22.1040 C   0  0  0  0  0  0  0  0  0  0  0  0
   -1.4900   15.1890   20.7440 C   0  0  0  0  0  0  0  0  0  0  0  0
   -1.3020   14.1270   19.8610 C   0  0  0  0  0  0  0  0  0  0  0  0
   -1.2660   12.7940   20.3170 C   0  0  0  0  0  0  0  0  0  0  0  0
   -1.7070   13.4610   23.6490 H   0  0  0  0  0  0  0  0  0  0  0  0
   -1.7730   15.7690   22.7960 H   0  0  0  0  0  0  0  0  0  0  0  0
   -1.5140   16.2100   20.3680 H   0  0  0  0  0  0  0  0  0  0  0  0
   -1.1840   14.3460   18.7990 H   0  0  0  0  0  0  0  0  0  0  0  0
   -1.3730   11.1590   22.2800 C   0  0  0  0  0  0  0  0  0  0  0  0
   -1.6670   10.4240   21.5240 H   0  0  0  0  0  0  0  0  0  0  0  0
   -2.0270   11.0680   23.1530 H   0  0  0  0  0  0  0  0  0  0  0  0
   -0.3610   10.9130   22.6190 H   0  0  0  0  0  0  0  0  0  0  0  0
    1.4050   11.6400   19.7560 C   0  0  0  0  0  0  0  0  0  0  0  0
    2.1270   12.6200   19.1390 N   0  0  0  0  0  0  0  0  0  0  0  0
    1.7380   11.1590   20.8310 O   0  0  0  0  0  0  0  0  0  0  0  0
    2.8620   13.0470   19.6880 H   0  0  0  0  0  0  0  0  0  0  0  0
    1.7450   13.1630   18.3770 H   0  0  0  0  0  0  0  0  0  0  0  0
    1.6900    9.4690   17.7970 C   0  0  0  0  0  0  0  0  0  0  0  0
    2.4390    9.8280   18.5120 H   0  0  0  0  0  0  0  0  0  0  0  0
    2.0420    9.7090   16.7910 H   0  0  0  0  0  0  0  0  0  0  0  0
    1.6210    8.0190   17.8520 N   0  0  0  0  0  0  0  0  0  0  0  0
    2.7760    7.2980   18.0290 C   0  0  0  0  0  0  0  0  0  0  0  0
    3.8720    7.7920   18.2430 O   0  0  0  0  0  0  0  0  0  0  0  0
    2.5260    5.9540   17.9310 N   0  0  0  0  0  0  0  0  0  0  0  0
    0.9780    7.5890   17.2040 H   0  0  0  0  0  0  0  0  0  0  0  0
    1.6020    5.6820   18.2310 H   0  0  0  0  0  0  0  0  0  0  0  0
    3.5740    4.9890   18.1960 C   0  0  2  0  0  0  0  0  0  0  0  0
    4.3260    5.3370   19.4970 C   0  0  0  0  0  0  0  0  0  0  0  0
    5.7660    4.8410   19.3180 C   0  0  0  0  0  0  0  0  0  0  0  0
    5.9380    4.9750   17.8380 C   0  0  0  0  0  0  0  0  0  0  0  0
    7.1210    4.9720   17.1180 C   0  0  0  0  0  0  0  0  0  0  0  0
    7.0500    5.0560   15.7250 C   0  0  0  0  0  0  0  0  0  0  0  0
    5.8070    5.1210   15.0760 C   0  0  0  0  0  0  0  0  0  0  0  0
    4.6190    5.1100   15.8100 C   0  0  0  0  0  0  0  0  0  0  0  0
    4.6960    5.0500   17.1940 C   0  0  0  0  0  0  0  0  0  0  0  0
    3.1730    3.9690   18.2400 H   0  0  0  0  0  0  0  0  0  0  0  0
    3.8450    4.9030   20.3810 H   0  0  0  0  0  0  0  0  0  0  0  0
    4.3420    6.4260   19.6490 H   0  0  0  0  0  0  0  0  0  0  0  0
    6.4730    5.4590   19.8790 H   0  0  0  0  0  0  0  0  0  0  0  0
    5.8660    3.7920   19.6160 H   0  0  0  0  0  0  0  0  0  0  0  0
    8.0810    4.8990   17.6170 H   0  0  0  0  0  0  0  0  0  0  0  0
    7.9630    5.0540   15.1360 H   0  0  0  0  0  0  0  0  0  0  0  0
    5.7690    5.1650   13.9900 H   0  0  0  0  0  0  0  0  0  0  0  0
    3.6580    5.1310   15.3040 H   0  0  0  0  0  0  0  0  0  0  0  0
  1 15  1  0  0  0  0
  2  3  1  0  0  0  0
  2  1  2  0  0  0  0
  4  2  1  0  0  0  0
  5  4  2  0  0  0  0
  5  6  1  0  0  0  0
  6  7  2  0  0  0  0
  7  1  1  0  0  0  0
  7 24  1  0  0  0  0
  8  4  1  0  0  0  0
  9  5  1  0  0  0  0
 10 20  1  0  0  0  0
 10 11  1  0  0  0  0
 11 16  1  0  0  0  0
 12 11  2  0  0  0  0
 12 17  1  0  0  0  0
 13 12  1  0  0  0  0
 14 15  1  0  0  0  0
 14 13  2  0  0  0  0
 15 10  2  0  0  0  0
 18 13  1  0  0  0  0
 19 14  1  0  0  0  0
 20 23  1  0  0  0  0
 20 22  1  0  0  0  0
 21 20  1  0  0  0  0
 24 26  2  0  0  0  0
 25 27  1  0  0  0  0
 25 24  1  0  0  0  0
 28 25  1  0  0  0  0
 29 32  1  0  0  0  0
 29  6  1  0  0  0  0
 29 30  1  0  0  0  0
 31 29  1  0  0  0  0
 32 33  1  0  0  0  0
 33 34  2  0  0  0  0
 35 33  1  0  0  0  0
 35 38  1  0  0  0  0
 35 37  1  0  0  0  0
 36 32  1  0  0  0  0
 38 47  1  1  0  0  0
 38 39  1  0  0  0  0
 39 49  1  0  0  0  0
 39 48  1  0  0  0  0
 40 39  1  0  0  0  0
 40 51  1  0  0  0  0
 40 50  1  0  0  0  0
 41 40  1  0  0  0  0
 42 52  1  0  0  0  0
 42 41  2  0  0  0  0
 43 42  1  0  0  0  0
 44 43  2  0  0  0  0
 44 45  1  0  0  0  0
 45 46  2  0  0  0  0
 46 41  1  0  0  0  0
 46 38  1  0  0  0  0
 53 43  1  0  0  0  0
 54 44  1  0  0  0  0
 55 45  1  0  0  0  0
M  END
>  <MODEL>
30

>  <REMARK>
 VINA RESULT:    -6.239      5.527      8.586
 INTER + INTRA:          -9.532
 INTER:                  -8.911
 INTRA:                  -0.621
 UNBOUND:                -1.286
  Name = 
  6 active torsions:
  status: ('A' for Active; 'I' for Inactive)
    1  A    between atoms: C_1  and  C_2
    2  A    between atoms: C_7  and  C_8
    3  A    between atoms: C_13  and  C_14
    4  A    between atoms: C_14  and  N_15
    5  A    between atoms: N_18  and  C_19
    6  A    between atoms: C_28  and  C_29
                            x       y       z     vdW  Elec       q    Type
                         _______ _______ _______ _____ _____    ______ ____

>  <TORSDO>
F 6

$$$$
=
 OpenBabel07192307433D

 55 58  0  0  1  0  0  0  0  0999 V2000
   -0.5630   12.0230   21.1740 C   0  0  0  0  0  0  0  0  0  0  0  0
   -0.1420   12.3150   19.8680 C   0  0  0  0  0  0  0  0  0  0  0  0
   -0.4110   13.5140   19.3260 F   0  0  0  0  0  0  0  0  0  0  0  0
    0.5480   11.3920   19.0900 C   0  0  0  0  0  0  0  0  0  0  0  0
    0.8400   10.1330   19.6070 C   0  0  0  0  0  0  0  0  0  0  0  0
    0.4580    9.7880   20.9170 C   0  0  0  0  0  0  0  0  0  0  0  0
   -0.2580   10.7380   21.6840 C   0  0  0  0  0  0  0  0  0  0  0  0
    0.8410   11.6570   18.0780 H   0  0  0  0  0  0  0  0  0  0  0  0
    1.3640    9.4120   18.9810 H   0  0  0  0  0  0  0  0  0  0  0  0
   -2.6960   13.3010   21.6720 C   0  0  0  0  0  0  0  0  0  0  0  0
   -3.3690   14.2660   22.4410 C   0  0  0  0  0  0  0  0  0  0  0  0
   -2.7040   14.9760   23.4410 C   0  0  0  0  0  0  0  0  0  0  0  0
   -1.3620   14.7230   23.6940 C   0  0  0  0  0  0  0  0  0  0  0  0
   -0.6840   13.7580   22.9510 C   0  0  0  0  0  0  0  0  0  0  0  0
   -1.3310   13.0310   21.9320 C   0  0  0  0  0  0  0  0  0  0  0  0
   -4.4230   14.4720   22.2670 H   0  0  0  0  0  0  0  0  0  0  0  0
   -3.2380   15.7200   24.0260 H   0  0  0  0  0  0  0  0  0  0  0  0
   -0.8390   15.2710   24.4760 H   0  0  0  0  0  0  0  0  0  0  0  0
    0.3680   13.5740   23.1700 H   0  0  0  0  0  0  0  0  0  0  0  0
   -3.4750   12.5510   20.6240 C   0  0  0  0  0  0  0  0  0  0  0  0
   -4.3110   12.0150   21.0850 H   0  0  0  0  0  0  0  0  0  0  0  0
   -2.8370   11.8420   20.0880 H   0  0  0  0  0  0  0  0  0  0  0  0
   -3.8830   13.2360   19.8720 H   0  0  0  0  0  0  0  0  0  0  0  0
   -0.7380   10.3430   23.0300 C   0  0  0  0  0  0  0  0  0  0  0  0
    0.1410    9.6600   23.8180 N   0  0  0  0  0  0  0  0  0  0  0  0
   -1.8790   10.6000   23.3900 O   0  0  0  0  0  0  0  0  0  0  0  0
   -0.1380    9.5180   24.7810 H   0  0  0  0  0  0  0  0  0  0  0  0
    1.1320    9.6390   23.6180 H   0  0  0  0  0  0  0  0  0  0  0  0
    0.7840    8.4020   21.4330 C   0  0  0  0  0  0  0  0  0  0  0  0
   -0.0600    7.7310   21.2370 H   0  0  0  0  0  0  0  0  0  0  0  0
    0.9860    8.3860   22.5070 H   0  0  0  0  0  0  0  0  0  0  0  0
    1.9820    7.8760   20.8020 N   0  0  0  0  0  0  0  0  0  0  0  0
    1.9330    6.6500   20.1880 C   0  0  0  0  0  0  0  0  0  0  0  0
    0.9170    5.9890   20.0440 O   0  0  0  0  0  0  0  0  0  0  0  0
    3.1810    6.2720   19.7620 N   0  0  0  0  0  0  0  0  0  0  0  0
    2.8450    8.0390   21.3000 H   0  0  0  0  0  0  0  0  0  0  0  0
    3.7810    7.0420   19.5090 H   0  0  0  0  0  0  0  0  0  0  0  0
    3.3590    5.0640   18.9840 C   0  0  2  0  0  0  0  0  0  0  0  0
    4.1200    3.9950   19.7950 C   0  0  0  0  0  0  0  0  0  0  0  0
    4.9130    3.1580   18.7840 C   0  0  0  0  0  0  0  0  0  0  0  0
    5.1760    4.1690   17.7130 C   0  0  0  0  0  0  0  0  0  0  0  0
    6.1040    4.0960   16.6880 C   0  0  0  0  0  0  0  0  0  0  0  0
    6.1460    5.1360   15.7560 C   0  0  0  0  0  0  0  0  0  0  0  0
    5.2540    6.2160   15.8490 C   0  0  0  0  0  0  0  0  0  0  0  0
    4.3120    6.2730   16.8790 C   0  0  0  0  0  0  0  0  0  0  0  0
    4.2910    5.2490   17.8160 C   0  0  0  0  0  0  0  0  0  0  0  0
    2.3980    4.6720   18.6310 H   0  0  0  0  0  0  0  0  0  0  0  0
    3.4460    3.3810   20.4030 H   0  0  0  0  0  0  0  0  0  0  0  0
    4.8240    4.4730   20.4910 H   0  0  0  0  0  0  0  0  0  0  0  0
    5.8350    2.7670   19.2260 H   0  0  0  0  0  0  0  0  0  0  0  0
    4.3090    2.3360   18.3870 H   0  0  0  0  0  0  0  0  0  0  0  0
    6.7800    3.2510   16.6010 H   0  0  0  0  0  0  0  0  0  0  0  0
    6.8640    5.1030   14.9410 H   0  0  0  0  0  0  0  0  0  0  0  0
    5.2860    7.0060   15.1040 H   0  0  0  0  0  0  0  0  0  0  0  0
    3.6040    7.0950   16.9330 H   0  0  0  0  0  0  0  0  0  0  0  0
  1  7  1  0  0  0  0
  1 15  1  0  0  0  0
  2  1  2  0  0  0  0
  3  2  1  0  0  0  0
  4  5  2  0  0  0  0
  4  2  1  0  0  0  0
  5  6  1  0  0  0  0
  6 29  1  0  0  0  0
  6  7  2  0  0  0  0
  7 24  1  0  0  0  0
  8  4  1  0  0  0  0
  9  5  1  0  0  0  0
 10 15  2  0  0  0  0
 10 11  1  0  0  0  0
 11 12  2  0  0  0  0
 12 13  1  0  0  0  0
 12 17  1  0  0  0  0
 13 18  1  0  0  0  0
 14 19  1  0  0  0  0
 14 13  2  0  0  0  0
 15 14  1  0  0  0  0
 16 11  1  0  0  0  0
 20 21  1  0  0  0  0
 20 10  1  0  0  0  0
 22 20  1  0  0  0  0
 23 20  1  0  0  0  0
 24 26  2  0  0  0  0
 24 25  1  0  0  0  0
 25 27  1  0  0  0  0
 28 25  1  0  0  0  0
 29 31  1  0  0  0  0
 30 29  1  0  0  0  0
 32 36  1  0  0  0  0
 32 29  1  0  0  0  0
 33 32  1  0  0  0  0
 34 33  2  0  0  0  0
 35 33  1  0  0  0  0
 37 35  1  0  0  0  0
 38 47  1  6  0  0  0
 38 35  1  0  0  0  0
 38 39  1  0  0  0  0
 39 48  1  0  0  0  0
 39 49  1  0  0  0  0
 40 50  1  0  0  0  0
 40 39  1  0  0  0  0
 41 46  1  0  0  0  0
 41 40  1  0  0  0  0
 42 41  2  0  0  0  0
 43 44  2  0  0  0  0
 43 42  1  0  0  0  0
 44 45  1  0  0  0  0
 45 55  1  0  0  0  0
 45 46  2  0  0  0  0
 46 38  1  0  0  0  0
 51 40  1  0  0  0  0
 52 42  1  0  0  0  0
 53 43  1  0  0  0  0
 54 44  1  0  0  0  0
M  END
>  <MODEL>
31

>  <REMARK>
 VINA RESULT:    -6.211      6.357      9.198
 INTER + INTRA:          -9.494
 INTER:                  -9.521
 INTRA:                   0.027
 UNBOUND:                -1.286
  Name = 
  6 active torsions:
  status: ('A' for Active; 'I' for Inactive)
    1  A    between atoms: C_1  and  C_2
    2  A    between atoms: C_7  and  C_8
    3  A    between atoms: C_13  and  C_14
    4  A    between atoms: C_14  and  N_15
    5  A    between atoms: N_18  and  C_19
    6  A    between atoms: C_28  and  C_29
                            x       y       z     vdW  Elec       q    Type
                         _______ _______ _______ _____ _____    ______ ____

>  <TORSDO>
F 6

$$$$
=
 OpenBabel07192307433D

 55 58  0  0  1  0  0  0  0  0999 V2000
    2.7350    5.7650   18.6490 C   0  0  0  0  0  0  0  0  0  0  0  0
    3.0900    6.8300   17.8080 C   0  0  0  0  0  0  0  0  0  0  0  0
    3.7800    6.5970   16.6800 F   0  0  0  0  0  0  0  0  0  0  0  0
    2.7610    8.1480   18.1050 C   0  0  0  0  0  0  0  0  0  0  0  0
    2.0540    8.4380   19.2700 C   0  0  0  0  0  0  0  0  0  0  0  0
    1.6550    7.4100   20.1430 C   0  0  0  0  0  0  0  0  0  0  0  0
    2.0170    6.0780   19.8290 C   0  0  0  0  0  0  0  0  0  0  0  0
    3.0710    8.9430   17.4330 H   0  0  0  0  0  0  0  0  0  0  0  0
    1.8200    9.4770   19.5010 H   0  0  0  0  0  0  0  0  0  0  0  0
    4.4610    3.9100   18.5460 C   0  0  0  0  0  0  0  0  0  0  0  0
    4.7880    2.5880   18.1970 C   0  0  0  0  0  0  0  0  0  0  0  0
    3.8480    1.7540   17.5930 C   0  0  0  0  0  0  0  0  0  0  0  0
    2.5660    2.2240   17.3380 C   0  0  0  0  0  0  0  0  0  0  0  0
    2.2210    3.5290   17.6920 C   0  0  0  0  0  0  0  0  0  0  0  0
    3.1540    4.3930   18.2990 C   0  0  0  0  0  0  0  0  0  0  0  0
    5.7830    2.1960   18.3980 H   0  0  0  0  0  0  0  0  0  0  0  0
    4.1160    0.7340   17.3280 H   0  0  0  0  0  0  0  0  0  0  0  0
    1.8270    1.5760   16.8700 H   0  0  0  0  0  0  0  0  0  0  0  0
    1.2080    3.8740   17.4860 H   0  0  0  0  0  0  0  0  0  0  0  0
    5.5120    4.7540   19.2180 C   0  0  0  0  0  0  0  0  0  0  0  0
    6.0250    4.1730   19.9910 H   0  0  0  0  0  0  0  0  0  0  0  0
    5.0730    5.6510   19.6660 H   0  0  0  0  0  0  0  0  0  0  0  0
    6.2620    5.0980   18.4970 H   0  0  0  0  0  0  0  0  0  0  0  0
    1.6740    5.0060   20.7920 C   0  0  0  0  0  0  0  0  0  0  0  0
    2.6060    4.7180   21.7470 N   0  0  0  0  0  0  0  0  0  0  0  0
    0.6160    4.3980   20.7060 O   0  0  0  0  0  0  0  0  0  0  0  0
    2.3130    4.0880   22.4840 H   0  0  0  0  0  0  0  0  0  0  0  0
    3.3680    5.3490   21.9560 H   0  0  0  0  0  0  0  0  0  0  0  0
    0.9010    7.7730   21.4050 C   0  0  0  0  0  0  0  0  0  0  0  0
    1.6090    8.1230   22.1660 H   0  0  0  0  0  0  0  0  0  0  0  0
    0.3440    6.9320   21.8240 H   0  0  0  0  0  0  0  0  0  0  0  0
   -0.0860    8.8070   21.1460 N   0  0  0  0  0  0  0  0  0  0  0  0
    0.1060   10.0630   21.6650 C   0  0  0  0  0  0  0  0  0  0  0  0
    1.1100   10.4170   22.2640 O   0  0  0  0  0  0  0  0  0  0  0  0
   -0.9830   10.8590   21.4190 N   0  0  0  0  0  0  0  0  0  0  0  0
   -1.0490    8.5060   21.1750 H   0  0  0  0  0  0  0  0  0  0  0  0
   -1.4750   10.6340   20.5680 H   0  0  0  0  0  0  0  0  0  0  0  0
   -0.9640   12.2630   21.7740 C   0  0  2  0  0  0  0  0  0  0  0  0
   -2.3960   12.8030   21.9650 C   0  0  0  0  0  0  0  0  0  0  0  0
   -2.3650   14.2840   21.5680 C   0  0  0  0  0  0  0  0  0  0  0  0
   -1.2800   14.2860   20.5370 C   0  0  0  0  0  0  0  0  0  0  0  0
   -1.0030   15.2660   19.6000 C   0  0  0  0  0  0  0  0  0  0  0  0
    0.1000   15.0890   18.7610 C   0  0  0  0  0  0  0  0  0  0  0  0
    0.9150   13.9530   18.8830 C   0  0  0  0  0  0  0  0  0  0  0  0
    0.6350   12.9760   19.8400 C   0  0  0  0  0  0  0  0  0  0  0  0
   -0.4760   13.1450   20.6550 C   0  0  0  0  0  0  0  0  0  0  0  0
   -0.3600   12.4390   22.6720 H   0  0  0  0  0  0  0  0  0  0  0  0
   -2.7590   12.6550   22.9880 H   0  0  0  0  0  0  0  0  0  0  0  0
   -3.0950   12.2710   21.3030 H   0  0  0  0  0  0  0  0  0  0  0  0
   -3.3290   14.6070   21.1630 H   0  0  0  0  0  0  0  0  0  0  0  0
   -2.0810   14.9170   22.4150 H   0  0  0  0  0  0  0  0  0  0  0  0
   -1.6190   16.1560   19.5200 H   0  0  0  0  0  0  0  0  0  0  0  0
    0.3400   15.8450   18.0180 H   0  0  0  0  0  0  0  0  0  0  0  0
    1.7820   13.8410   18.2360 H   0  0  0  0  0  0  0  0  0  0  0  0
    1.2840   12.1120   19.9520 H   0  0  0  0  0  0  0  0  0  0  0  0
  1  7  1  0  0  0  0
  2  4  1  0  0  0  0
  2  1  2  0  0  0  0
  3  2  1  0  0  0  0
  4  5  2  0  0  0  0
  5  9  1  0  0  0  0
  5  6  1  0  0  0  0
  6 29  1  0  0  0  0
  7  6  2  0  0  0  0
  7 24  1  0  0  0  0
  8  4  1  0  0  0  0
 10 20  1  0  0  0  0
 11 16  1  0  0  0  0
 11 10  2  0  0  0  0
 12 11  1  0  0  0  0
 13 12  2  0  0  0  0
 13 14  1  0  0  0  0
 14 15  2  0  0  0  0
 15 10  1  0  0  0  0
 15  1  1  0  0  0  0
 17 12  1  0  0  0  0
 18 13  1  0  0  0  0
 19 14  1  0  0  0  0
 20 22  1  0  0  0  0
 20 21  1  0  0  0  0
 23 20  1  0  0  0  0
 24 25  1  0  0  0  0
 25 28  1  0  0  0  0
 25 27  1  0  0  0  0
 26 24  2  0  0  0  0
 29 31  1  0  0  0  0
 29 30  1  0  0  0  0
 32 36  1  0  0  0  0
 32 29  1  0  0  0  0
 32 33  1  0  0  0  0
 33 34  2  0  0  0  0
 35 33  1  0  0  0  0
 35 38  1  0  0  0  0
 37 35  1  0  0  0  0
 38 39  1  0  0  0  0
 38 47  1  1  0  0  0
 39 48  1  0  0  0  0
 40 39  1  0  0  0  0
 40 51  1  0  0  0  0
 41 46  1  0  0  0  0
 41 40  1  0  0  0  0
 42 41  2  0  0  0  0
 43 44  2  0  0  0  0
 43 42  1  0  0  0  0
 44 45  1  0  0  0  0
 45 55  1  0  0  0  0
 45 46  2  0  0  0  0
 46 38  1  0  0  0  0
 49 39  1  0  0  0  0
 50 40  1  0  0  0  0
 52 42  1  0  0  0  0
 53 43  1  0  0  0  0
 54 44  1  0  0  0  0
M  END
>  <MODEL>
32

>  <REMARK>
 VINA RESULT:    -6.111      5.499      7.204
 INTER + INTRA:          -9.362
 INTER:                  -8.095
 INTRA:                  -1.267
 UNBOUND:                -1.286
  Name = 
  6 active torsions:
  status: ('A' for Active; 'I' for Inactive)
    1  A    between atoms: C_1  and  C_2
    2  A    between atoms: C_7  and  C_8
    3  A    between atoms: C_13  and  C_14
    4  A    between atoms: C_14  and  N_15
    5  A    between atoms: N_18  and  C_19
    6  A    between atoms: C_28  and  C_29
                            x       y       z     vdW  Elec       q    Type
                         _______ _______ _______ _____ _____    ______ ____

>  <TORSDO>
F 6

$$$$
=
 OpenBabel07192307433D

 55 58  0  0  1  0  0  0  0  0999 V2000
   -1.3000   13.6270   21.4960 C   0  0  0  0  0  0  0  0  0  0  0  0
   -0.2200   14.4310   21.8890 C   0  0  0  0  0  0  0  0  0  0  0  0
   -0.2720   15.1110   23.0460 F   0  0  0  0  0  0  0  0  0  0  0  0
    0.9240   14.5650   21.1090 C   0  0  0  0  0  0  0  0  0  0  0  0
    1.0170   13.8860   19.8970 C   0  0  0  0  0  0  0  0  0  0  0  0
   -0.0280   13.0520   19.4590 C   0  0  0  0  0  0  0  0  0  0  0  0
   -1.1890   12.9440   20.2610 C   0  0  0  0  0  0  0  0  0  0  0  0
    1.7290   15.2110   21.4460 H   0  0  0  0  0  0  0  0  0  0  0  0
    1.9090   14.0150   19.2860 H   0  0  0  0  0  0  0  0  0  0  0  0
   -2.7720   12.4680   23.2060 C   0  0  0  0  0  0  0  0  0  0  0  0
   -3.9340   12.4780   23.9970 C   0  0  0  0  0  0  0  0  0  0  0  0
   -4.8360   13.5390   23.9330 C   0  0  0  0  0  0  0  0  0  0  0  0
   -4.5850   14.6110   23.0850 C   0  0  0  0  0  0  0  0  0  0  0  0
   -3.4290   14.6240   22.3040 C   0  0  0  0  0  0  0  0  0  0  0  0
   -2.5050   13.5620   22.3480 C   0  0  0  0  0  0  0  0  0  0  0  0
   -4.1440   11.6540   24.6760 H   0  0  0  0  0  0  0  0  0  0  0  0
   -5.7300   13.5320   24.5500 H   0  0  0  0  0  0  0  0  0  0  0  0
   -5.2840   15.4440   23.0330 H   0  0  0  0  0  0  0  0  0  0  0  0
   -3.2520   15.4780   21.6500 H   0  0  0  0  0  0  0  0  0  0  0  0
   -1.8250   11.3050   23.3390 C   0  0  0  0  0  0  0  0  0  0  0  0
   -0.9010   11.5060   22.7880 H   0  0  0  0  0  0  0  0  0  0  0  0
   -2.2790   10.3810   22.9660 H   0  0  0  0  0  0  0  0  0  0  0  0
   -1.5650   11.1260   24.3870 H   0  0  0  0  0  0  0  0  0  0  0  0
   -2.3250   12.1360   19.7570 C   0  0  0  0  0  0  0  0  0  0  0  0
   -3.3940   12.8230   19.2600 N   0  0  0  0  0  0  0  0  0  0  0  0
   -2.3010   10.9140   19.8170 O   0  0  0  0  0  0  0  0  0  0  0  0
   -4.1010   12.2720   18.7910 H   0  0  0  0  0  0  0  0  0  0  0  0
   -3.3300   13.8000   19.0100 H   0  0  0  0  0  0  0  0  0  0  0  0
    0.1110   12.3440   18.1270 C   0  0  0  0  0  0  0  0  0  0  0  0
    0.9770   12.7460   17.5880 H   0  0  0  0  0  0  0  0  0  0  0  0
   -0.7680   12.4630   17.4890 H   0  0  0  0  0  0  0  0  0  0  0  0
    0.2730   10.9120   18.3090 N   0  0  0  0  0  0  0  0  0  0  0  0
    1.5360   10.3760   18.3270 C   0  0  0  0  0  0  0  0  0  0  0  0
    2.5650   11.0320   18.2940 O   0  0  0  0  0  0  0  0  0  0  0  0
    1.4800    9.0070   18.3840 N   0  0  0  0  0  0  0  0  0  0  0  0
   -0.3990   10.3330   17.8260 H   0  0  0  0  0  0  0  0  0  0  0  0
    0.6720    8.6470   18.8690 H   0  0  0  0  0  0  0  0  0  0  0  0
    2.6900    8.2260   18.5270 C   0  0  2  0  0  0  0  0  0  0  0  0
    3.2220    7.7760   17.1510 C   0  0  0  0  0  0  0  0  0  0  0  0
    3.9320    6.4340   17.3690 C   0  0  0  0  0  0  0  0  0  0  0  0
    3.1550    5.8800   18.5220 C   0  0  0  0  0  0  0  0  0  0  0  0
    3.1240    4.5710   18.9720 C   0  0  0  0  0  0  0  0  0  0  0  0
    2.3670    4.2770   20.1090 C   0  0  0  0  0  0  0  0  0  0  0  0
    1.6730    5.2920   20.7860 C   0  0  0  0  0  0  0  0  0  0  0  0
    1.7210    6.6120   20.3330 C   0  0  0  0  0  0  0  0  0  0  0  0
    2.4550    6.8940   19.1890 C   0  0  0  0  0  0  0  0  0  0  0  0
    3.4590    8.7800   19.0770 H   0  0  0  0  0  0  0  0  0  0  0  0
    3.8820    8.5250   16.6980 H   0  0  0  0  0  0  0  0  0  0  0  0
    2.3870    7.6270   16.4490 H   0  0  0  0  0  0  0  0  0  0  0  0
    3.8700    5.8010   16.4790 H   0  0  0  0  0  0  0  0  0  0  0  0
    4.9780    6.5800   17.6550 H   0  0  0  0  0  0  0  0  0  0  0  0
    3.6790    3.7890   18.4620 H   0  0  0  0  0  0  0  0  0  0  0  0
    2.3280    3.2580   20.4840 H   0  0  0  0  0  0  0  0  0  0  0  0
    1.1060    5.0500   21.6820 H   0  0  0  0  0  0  0  0  0  0  0  0
    1.2070    7.4010   20.8750 H   0  0  0  0  0  0  0  0  0  0  0  0
  1  2  1  0  0  0  0
  1 15  1  0  0  0  0
  2  3  1  0  0  0  0
  4  8  1  0  0  0  0
  4  2  2  0  0  0  0
  5  4  1  0  0  0  0
  6  5  2  0  0  0  0
  6  7  1  0  0  0  0
  7  1  2  0  0  0  0
  9  5  1  0  0  0  0
 10 20  1  0  0  0  0
 10 11  1  0  0  0  0
 11 16  1  0  0  0  0
 12 11  2  0  0  0  0
 12 17  1  0  0  0  0
 13 12  1  0  0  0  0
 14 15  1  0  0  0  0
 14 13  2  0  0  0  0
 15 10  2  0  0  0  0
 18 13  1  0  0  0  0
 19 14  1  0  0  0  0
 20 23  1  0  0  0  0
 21 20  1  0  0  0  0
 22 20  1  0  0  0  0
 24 26  2  0  0  0  0
 24  7  1  0  0  0  0
 25 24  1  0  0  0  0
 27 25  1  0  0  0  0
 28 25  1  0  0  0  0
 29 32  1  0  0  0  0
 29  6  1  0  0  0  0
 30 29  1  0  0  0  0
 31 29  1  0  0  0  0
 32 33  1  0  0  0  0
 33 35  1  0  0  0  0
 34 33  2  0  0  0  0
 35 38  1  0  0  0  0
 35 37  1  0  0  0  0
 36 32  1  0  0  0  0
 38 47  1  1  0  0  0
 38 46  1  0  0  0  0
 39 40  1  0  0  0  0
 39 38  1  0  0  0  0
 40 51  1  0  0  0  0
 40 41  1  0  0  0  0
 41 42  2  0  0  0  0
 41 46  1  0  0  0  0
 42 43  1  0  0  0  0
 43 53  1  0  0  0  0
 43 44  2  0  0  0  0
 44 54  1  0  0  0  0
 45 44  1  0  0  0  0
 45 55  1  0  0  0  0
 46 45  2  0  0  0  0
 48 39  1  0  0  0  0
 49 39  1  0  0  0  0
 50 40  1  0  0  0  0
 52 42  1  0  0  0  0
M  END
>  <MODEL>
33

>  <REMARK>
 VINA RESULT:    -6.050      7.383     10.058
 INTER + INTRA:          -9.281
 INTER:                  -7.995
 INTRA:                  -1.286
 UNBOUND:                -1.286
  Name = 
  6 active torsions:
  status: ('A' for Active; 'I' for Inactive)
    1  A    between atoms: C_1  and  C_2
    2  A    between atoms: C_7  and  C_8
    3  A    between atoms: C_13  and  C_14
    4  A    between atoms: C_14  and  N_15
    5  A    between atoms: N_18  and  C_19
    6  A    between atoms: C_28  and  C_29
                            x       y       z     vdW  Elec       q    Type
                         _______ _______ _______ _____ _____    ______ ____

>  <TORSDO>
F 6

$$$$
