=
 OpenBabel07192307433D

 44 47  0  0  0  0  0  0  0  0999 V2000
    1.6040    9.3010   18.6160 C   0  0  0  0  0  0  0  0  0  0  0  0
    2.4050    9.8120   17.8430 O   0  0  0  0  0  0  0  0  0  0  0  0
    1.6560    8.0430   19.1690 N   0  0  0  0  0  0  0  0  0  0  0  0
    2.6430    7.1490   18.8550 C   0  0  0  0  0  0  0  0  0  0  0  0
    3.6220    7.2590   17.9990 N   0  0  0  0  0  0  0  0  0  0  0  0
    4.3830    6.1050   18.0060 C   0  0  0  0  0  0  0  0  0  0  0  0
    3.9450    5.1300   18.8830 C   0  0  0  0  0  0  0  0  0  0  0  0
    2.5480    5.6790   19.7160 S   0  0  0  0  0  0  0  0  0  0  0  0
    1.0070    7.7520   19.8820 H   0  0  0  0  0  0  0  0  0  0  0  0
    4.3620    4.1520   19.0720 H   0  0  0  0  0  0  0  0  0  0  0  0
    5.5490    6.0050   17.1180 C   0  0  0  0  0  0  0  0  0  0  0  0
    6.7750    6.6130   17.3010 C   0  0  0  0  0  0  0  0  0  0  0  0
    7.5810    6.2640   16.2510 N   0  0  0  0  0  0  0  0  0  0  0  0
    6.9050    5.4400   15.3830 C   0  0  0  0  0  0  0  0  0  0  0  0
    7.3380    4.8490   14.1880 C   0  0  0  0  0  0  0  0  0  0  0  0
    6.4310    4.0450   13.4930 C   0  0  0  0  0  0  0  0  0  0  0  0
    5.1420    3.8390   13.9770 C   0  0  0  0  0  0  0  0  0  0  0  0
    4.7270    4.4360   15.1740 C   0  0  0  0  0  0  0  0  0  0  0  0
    5.6190    5.2550   15.9010 C   0  0  0  0  0  0  0  0  0  0  0  0
    7.1470    7.2620   18.0830 H   0  0  0  0  0  0  0  0  0  0  0  0
    8.5370    6.5660   16.1230 H   0  0  0  0  0  0  0  0  0  0  0  0
    8.3410    5.0080   13.8080 H   0  0  0  0  0  0  0  0  0  0  0  0
    6.7360    3.5720   12.5630 H   0  0  0  0  0  0  0  0  0  0  0  0
    4.4480    3.2100   13.4280 H   0  0  0  0  0  0  0  0  0  0  0  0
    3.7160    4.2640   15.5360 H   0  0  0  0  0  0  0  0  0  0  0  0
   -1.5110   11.4100   18.4430 C   0  0  0  0  0  0  0  0  0  0  0  0
   -1.7610   11.6700   19.7890 C   0  0  0  0  0  0  0  0  0  0  0  0
   -0.9180   11.1480   20.7730 C   0  0  0  0  0  0  0  0  0  0  0  0
    0.1840   10.3720   20.4130 C   0  0  0  0  0  0  0  0  0  0  0  0
    0.4500   10.1310   19.0580 C   0  0  0  0  0  0  0  0  0  0  0  0
   -0.4060   10.6450   18.0740 C   0  0  0  0  0  0  0  0  0  0  0  0
   -2.6110   12.2800   20.0870 H   0  0  0  0  0  0  0  0  0  0  0  0
   -1.1340   11.3410   21.8230 H   0  0  0  0  0  0  0  0  0  0  0  0
    0.8000    9.9420   21.1970 H   0  0  0  0  0  0  0  0  0  0  0  0
   -0.2010   10.4340   17.0270 H   0  0  0  0  0  0  0  0  0  0  0  0
   -2.3730   11.9050   17.4230 N   0  0  0  0  0  0  0  0  0  0  0  0
   -1.9520   12.4800   16.6920 H   0  0  0  0  0  0  0  0  0  0  0  0
   -3.5950   10.9140   16.8150 S   0  0  0  0  0  0  0  0  0  0  0  0
   -3.6500    9.6820   17.5700 O   0  0  0  0  0  0  0  0  0  0  0  0
   -4.7580   11.7660   16.6830 O   0  0  0  0  0  0  0  0  0  0  0  0
   -3.0090   10.5510   15.1710 C   0  0  0  0  0  0  0  0  0  0  0  0
   -3.8780   10.5080   14.5090 H   0  0  0  0  0  0  0  0  0  0  0  0
   -2.3400   11.3500   14.8470 H   0  0  0  0  0  0  0  0  0  0  0  0
   -2.5020    9.5850   15.1710 H   0  0  0  0  0  0  0  0  0  0  0  0
  1 30  1  0  0  0  0
  1  3  1  0  0  0  0
  2  1  2  0  0  0  0
  3  9  1  0  0  0  0
  4  3  1  0  0  0  0
  4  8  1  0  0  0  0
  5  6  1  0  0  0  0
  5  4  2  0  0  0  0
  6  7  2  0  0  0  0
  7 10  1  0  0  0  0
  7  8  1  0  0  0  0
 11 12  2  0  0  0  0
 11  6  1  0  0  0  0
 12 20  1  0  0  0  0
 13 12  1  0  0  0  0
 14 19  1  0  0  0  0
 14 13  1  0  0  0  0
 15 14  2  0  0  0  0
 16 17  2  0  0  0  0
 16 15  1  0  0  0  0
 17 18  1  0  0  0  0
 18 25  1  0  0  0  0
 18 19  2  0  0  0  0
 19 11  1  0  0  0  0
 21 13  1  0  0  0  0
 22 15  1  0  0  0  0
 23 16  1  0  0  0  0
 24 17  1  0  0  0  0
 26 27  1  0  0  0  0
 27 32  1  0  0  0  0
 27 28  2  0  0  0  0
 28 33  1  0  0  0  0
 29 28  1  0  0  0  0
 29 34  1  0  0  0  0
 30 29  2  0  0  0  0
 31 26  2  0  0  0  0
 31 30  1  0  0  0  0
 35 31  1  0  0  0  0
 36 26  1  0  0  0  0
 37 36  1  0  0  0  0
 38 36  1  0  0  0  0
 38 39  2  0  0  0  0
 40 38  2  0  0  0  0
 41 38  1  0  0  0  0
 42 41  1  0  0  0  0
 43 41  1  0  0  0  0
 44 41  1  0  0  0  0
M  END
>  <MODEL>
1

>  <REMARK>
 VINA RESULT:    -8.246      0.000      0.000
 INTER + INTRA:         -11.070
 INTER:                 -10.455
 INTRA:                  -0.615
 UNBOUND:                -0.655
  Name = 
  5 active torsions:
  status: ('A' for Active; 'I' for Inactive)
    1  A    between atoms: C_1  and  S_2
    2  A    between atoms: S_2  and  N_5
    3  A    between atoms: N_5  and  C_6
    4  A    between atoms: C_10  and  C_11
    5  A    between atoms: C_16  and  C_17
                            x       y       z     vdW  Elec       q    Type
                         _______ _______ _______ _____ _____    ______ ____

>  <TORSDO>
F 5

$$$$
=
 OpenBabel07192307433D

 44 47  0  0  0  0  0  0  0  0999 V2000
    2.0950    8.4260   18.3660 C   0  0  0  0  0  0  0  0  0  0  0  0
    2.9670    9.0090   17.7330 O   0  0  0  0  0  0  0  0  0  0  0  0
    1.9910    7.0750   18.6030 N   0  0  0  0  0  0  0  0  0  0  0  0
    2.8770    6.1740   18.0830 C   0  0  0  0  0  0  0  0  0  0  0  0
    3.8830    6.3680   17.2740 N   0  0  0  0  0  0  0  0  0  0  0  0
    4.5080    5.1660   17.0050 C   0  0  0  0  0  0  0  0  0  0  0  0
    3.9410    4.0680   17.6260 C   0  0  0  0  0  0  0  0  0  0  0  0
    2.5950    4.5620   18.5700 S   0  0  0  0  0  0  0  0  0  0  0  0
    1.2960    6.7010   19.2300 H   0  0  0  0  0  0  0  0  0  0  0  0
    4.2400    3.0320   17.5750 H   0  0  0  0  0  0  0  0  0  0  0  0
    5.6760    5.1440   16.1140 C   0  0  0  0  0  0  0  0  0  0  0  0
    6.9300    5.6490   16.3940 C   0  0  0  0  0  0  0  0  0  0  0  0
    7.7280    5.4270   15.3030 N   0  0  0  0  0  0  0  0  0  0  0  0
    7.0190    4.7870   14.3140 C   0  0  0  0  0  0  0  0  0  0  0  0
    7.4330    4.3690   13.0420 C   0  0  0  0  0  0  0  0  0  0  0  0
    6.4920    3.7340   12.2280 C   0  0  0  0  0  0  0  0  0  0  0  0
    5.1890    3.5230   12.6710 C   0  0  0  0  0  0  0  0  0  0  0  0
    4.7940    3.9460   13.9450 C   0  0  0  0  0  0  0  0  0  0  0  0
    5.7200    4.5920   14.7940 C   0  0  0  0  0  0  0  0  0  0  0  0
    7.3280    6.1460   17.2680 H   0  0  0  0  0  0  0  0  0  0  0  0
    8.7000    5.6940   15.2260 H   0  0  0  0  0  0  0  0  0  0  0  0
    8.4470    4.5310   12.6940 H   0  0  0  0  0  0  0  0  0  0  0  0
    6.7820    3.3970   11.2350 H   0  0  0  0  0  0  0  0  0  0  0  0
    4.4690    3.0270   12.0280 H   0  0  0  0  0  0  0  0  0  0  0  0
    3.7710    3.7740   14.2740 H   0  0  0  0  0  0  0  0  0  0  0  0
   -0.8300   10.7750   18.7010 C   0  0  0  0  0  0  0  0  0  0  0  0
   -1.0130   10.8150   20.0820 C   0  0  0  0  0  0  0  0  0  0  0  0
   -0.1880   10.0650   20.9220 C   0  0  0  0  0  0  0  0  0  0  0  0
    0.8310    9.2780   20.3830 C   0  0  0  0  0  0  0  0  0  0  0  0
    1.0320    9.2560   18.9960 C   0  0  0  0  0  0  0  0  0  0  0  0
    0.1920    9.9990   18.1560 C   0  0  0  0  0  0  0  0  0  0  0  0
   -1.7980   11.4300   20.5190 H   0  0  0  0  0  0  0  0  0  0  0  0
   -0.3520   10.0880   21.9980 H   0  0  0  0  0  0  0  0  0  0  0  0
    1.4330    8.6700   21.0540 H   0  0  0  0  0  0  0  0  0  0  0  0
    0.3440    9.9580   17.0800 H   0  0  0  0  0  0  0  0  0  0  0  0
   -1.6790   11.5060   17.8220 N   0  0  0  0  0  0  0  0  0  0  0  0
   -1.2290   12.0780   17.1060 H   0  0  0  0  0  0  0  0  0  0  0  0
   -3.1000   10.7960   17.2570 S   0  0  0  0  0  0  0  0  0  0  0  0
   -3.1740    9.4230   17.7030 O   0  0  0  0  0  0  0  0  0  0  0  0
   -4.1550   11.7410   17.5580 O   0  0  0  0  0  0  0  0  0  0  0  0
   -2.8580   10.8100   15.4900 C   0  0  0  0  0  0  0  0  0  0  0  0
   -3.5020   11.5880   15.0720 H   0  0  0  0  0  0  0  0  0  0  0  0
   -1.8130   11.0430   15.2770 H   0  0  0  0  0  0  0  0  0  0  0  0
   -3.1400    9.8410   15.0770 H   0  0  0  0  0  0  0  0  0  0  0  0
  1  3  1  0  0  0  0
  1 30  1  0  0  0  0
  2  1  2  0  0  0  0
  3  9  1  0  0  0  0
  4  8  1  0  0  0  0
  4  3  1  0  0  0  0
  5  4  2  0  0  0  0
  6  5  1  0  0  0  0
  6  7  2  0  0  0  0
  7  8  1  0  0  0  0
 10  7  1  0  0  0  0
 11 12  2  0  0  0  0
 11  6  1  0  0  0  0
 12 20  1  0  0  0  0
 13 12  1  0  0  0  0
 14 19  1  0  0  0  0
 14 13  1  0  0  0  0
 15 14  2  0  0  0  0
 16 17  2  0  0  0  0
 16 15  1  0  0  0  0
 17 18  1  0  0  0  0
 18 25  1  0  0  0  0
 18 19  2  0  0  0  0
 19 11  1  0  0  0  0
 21 13  1  0  0  0  0
 22 15  1  0  0  0  0
 23 16  1  0  0  0  0
 24 17  1  0  0  0  0
 26 27  1  0  0  0  0
 27 32  1  0  0  0  0
 27 28  2  0  0  0  0
 28 33  1  0  0  0  0
 29 28  1  0  0  0  0
 29 34  1  0  0  0  0
 30 29  2  0  0  0  0
 31 26  2  0  0  0  0
 31 30  1  0  0  0  0
 35 31  1  0  0  0  0
 36 26  1  0  0  0  0
 37 36  1  0  0  0  0
 38 40  2  0  0  0  0
 38 39  2  0  0  0  0
 38 36  1  0  0  0  0
 41 38  1  0  0  0  0
 42 41  1  0  0  0  0
 43 41  1  0  0  0  0
 44 41  1  0  0  0  0
M  END
>  <MODEL>
2

>  <REMARK>
 VINA RESULT:    -8.146      1.033      1.184
 INTER + INTRA:         -10.944
 INTER:                 -10.343
 INTRA:                  -0.601
 UNBOUND:                -0.655
  Name = 
  5 active torsions:
  status: ('A' for Active; 'I' for Inactive)
    1  A    between atoms: C_1  and  S_2
    2  A    between atoms: S_2  and  N_5
    3  A    between atoms: N_5  and  C_6
    4  A    between atoms: C_10  and  C_11
    5  A    between atoms: C_16  and  C_17
                            x       y       z     vdW  Elec       q    Type
                         _______ _______ _______ _____ _____    ______ ____

>  <TORSDO>
F 5

$$$$
=
 OpenBabel07192307433D

 44 47  0  0  0  0  0  0  0  0999 V2000
    2.5110    7.6320   18.3270 C   0  0  0  0  0  0  0  0  0  0  0  0
    1.8640    8.0080   17.3580 O   0  0  0  0  0  0  0  0  0  0  0  0
    2.2730    7.9050   19.6540 N   0  0  0  0  0  0  0  0  0  0  0  0
    1.2530    8.7230   20.0570 C   0  0  0  0  0  0  0  0  0  0  0  0
    0.4030    9.4060   19.3410 N   0  0  0  0  0  0  0  0  0  0  0  0
   -0.4580   10.1000   20.1700 C   0  0  0  0  0  0  0  0  0  0  0  0
   -0.2260    9.9220   21.5210 C   0  0  0  0  0  0  0  0  0  0  0  0
    1.1020    8.8600   21.7520 S   0  0  0  0  0  0  0  0  0  0  0  0
    2.7970    7.4580   20.3880 H   0  0  0  0  0  0  0  0  0  0  0  0
   -0.7530   10.3510   22.3610 H   0  0  0  0  0  0  0  0  0  0  0  0
   -1.5090   10.9390   19.5790 C   0  0  0  0  0  0  0  0  0  0  0  0
   -2.0100   12.1160   20.1000 C   0  0  0  0  0  0  0  0  0  0  0  0
   -2.9710   12.5810   19.2440 N   0  0  0  0  0  0  0  0  0  0  0  0
   -3.1110   11.7300   18.1730 C   0  0  0  0  0  0  0  0  0  0  0  0
   -3.9690   11.8150   17.0680 C   0  0  0  0  0  0  0  0  0  0  0  0
   -3.9020   10.7970   16.1130 C   0  0  0  0  0  0  0  0  0  0  0  0
   -3.0100    9.7380   16.2580 C   0  0  0  0  0  0  0  0  0  0  0  0
   -2.1600    9.6710   17.3680 C   0  0  0  0  0  0  0  0  0  0  0  0
   -2.2020   10.6830   18.3520 C   0  0  0  0  0  0  0  0  0  0  0  0
   -1.7690   12.6640   21.0010 H   0  0  0  0  0  0  0  0  0  0  0  0
   -3.5090   13.4280   19.3740 H   0  0  0  0  0  0  0  0  0  0  0  0
   -4.6650   12.6380   16.9510 H   0  0  0  0  0  0  0  0  0  0  0  0
   -4.5550   10.8330   15.2440 H   0  0  0  0  0  0  0  0  0  0  0  0
   -2.9680    8.9550   15.5080 H   0  0  0  0  0  0  0  0  0  0  0  0
   -1.4700    8.8360   17.4650 H   0  0  0  0  0  0  0  0  0  0  0  0
    4.9810    4.8230   18.7720 C   0  0  0  0  0  0  0  0  0  0  0  0
    5.8080    4.9870   17.6620 C   0  0  0  0  0  0  0  0  0  0  0  0
    5.5620    6.0120   16.7460 C   0  0  0  0  0  0  0  0  0  0  0  0
    4.4910    6.8850   16.9440 C   0  0  0  0  0  0  0  0  0  0  0  0
    3.6740    6.7380   18.0720 C   0  0  0  0  0  0  0  0  0  0  0  0
    3.9160    5.6980   18.9810 C   0  0  0  0  0  0  0  0  0  0  0  0
    6.6530    4.3190   17.4980 H   0  0  0  0  0  0  0  0  0  0  0  0
    6.2020    6.1180   15.8720 H   0  0  0  0  0  0  0  0  0  0  0  0
    4.2940    7.6480   16.1960 H   0  0  0  0  0  0  0  0  0  0  0  0
    3.2630    5.5810   19.8430 H   0  0  0  0  0  0  0  0  0  0  0  0
    5.1940    3.7670   19.7020 N   0  0  0  0  0  0  0  0  0  0  0  0
    5.4390    4.0270   20.6580 H   0  0  0  0  0  0  0  0  0  0  0  0
    4.1960    2.4080   19.6580 S   0  0  0  0  0  0  0  0  0  0  0  0
    3.6430    2.2470   18.3320 O   0  0  0  0  0  0  0  0  0  0  0  0
    4.9530    1.3470   20.2890 O   0  0  0  0  0  0  0  0  0  0  0  0
    2.8820    2.8640   20.7740 C   0  0  0  0  0  0  0  0  0  0  0  0
    3.2100    3.7420   21.3340 H   0  0  0  0  0  0  0  0  0  0  0  0
    1.9910    3.1090   20.1930 H   0  0  0  0  0  0  0  0  0  0  0  0
    2.6900    2.0410   21.4640 H   0  0  0  0  0  0  0  0  0  0  0  0
  1  3  1  0  0  0  0
  2  1  2  0  0  0  0
  3  4  1  0  0  0  0
  3  9  1  0  0  0  0
  4  8  1  0  0  0  0
  5  4  2  0  0  0  0
  5  6  1  0  0  0  0
  6  7  2  0  0  0  0
  7  8  1  0  0  0  0
  7 10  1  0  0  0  0
 11 12  2  0  0  0  0
 11  6  1  0  0  0  0
 12 20  1  0  0  0  0
 13 21  1  0  0  0  0
 13 12  1  0  0  0  0
 14 19  1  0  0  0  0
 14 13  1  0  0  0  0
 15 14  2  0  0  0  0
 16 17  2  0  0  0  0
 16 15  1  0  0  0  0
 17 18  1  0  0  0  0
 18 25  1  0  0  0  0
 18 19  2  0  0  0  0
 19 11  1  0  0  0  0
 22 15  1  0  0  0  0
 23 16  1  0  0  0  0
 24 17  1  0  0  0  0
 26 31  1  0  0  0  0
 26 36  1  0  0  0  0
 27 26  2  0  0  0  0
 28 29  2  0  0  0  0
 28 27  1  0  0  0  0
 29 30  1  0  0  0  0
 30  1  1  0  0  0  0
 30 31  2  0  0  0  0
 31 35  1  0  0  0  0
 32 27  1  0  0  0  0
 33 28  1  0  0  0  0
 34 29  1  0  0  0  0
 36 37  1  0  0  0  0
 38 36  1  0  0  0  0
 38 40  2  0  0  0  0
 38 41  1  0  0  0  0
 39 38  2  0  0  0  0
 41 42  1  0  0  0  0
 41 44  1  0  0  0  0
 43 41  1  0  0  0  0
M  END
>  <MODEL>
3

>  <REMARK>
 VINA RESULT:    -7.855      3.048      9.209
 INTER + INTRA:         -10.577
 INTER:                 -10.136
 INTRA:                  -0.441
 UNBOUND:                -0.655
  Name = 
  5 active torsions:
  status: ('A' for Active; 'I' for Inactive)
    1  A    between atoms: C_1  and  S_2
    2  A    between atoms: S_2  and  N_5
    3  A    between atoms: N_5  and  C_6
    4  A    between atoms: C_10  and  C_11
    5  A    between atoms: C_16  and  C_17
                            x       y       z     vdW  Elec       q    Type
                         _______ _______ _______ _____ _____    ______ ____

>  <TORSDO>
F 5

$$$$
=
 OpenBabel07192307433D

 44 47  0  0  0  0  0  0  0  0999 V2000
    2.0120    6.5430   19.3650 C   0  0  0  0  0  0  0  0  0  0  0  0
    1.5050    6.3610   20.4650 O   0  0  0  0  0  0  0  0  0  0  0  0
    2.0870    7.7210   18.6590 N   0  0  0  0  0  0  0  0  0  0  0  0
    1.5220    8.8800   19.1140 C   0  0  0  0  0  0  0  0  0  0  0  0
    0.8040    9.0910   20.1830 N   0  0  0  0  0  0  0  0  0  0  0  0
    0.4370   10.4220   20.2470 C   0  0  0  0  0  0  0  0  0  0  0  0
    0.8940   11.1970   19.1970 C   0  0  0  0  0  0  0  0  0  0  0  0
    1.8040   10.2300   18.1090 S   0  0  0  0  0  0  0  0  0  0  0  0
    2.6220    7.7940   17.8090 H   0  0  0  0  0  0  0  0  0  0  0  0
    0.7430   12.2510   19.0190 H   0  0  0  0  0  0  0  0  0  0  0  0
   -0.3770   10.8920   21.3760 C   0  0  0  0  0  0  0  0  0  0  0  0
   -0.2170   10.5460   22.7030 C   0  0  0  0  0  0  0  0  0  0  0  0
   -1.1760   11.2000   23.4280 N   0  0  0  0  0  0  0  0  0  0  0  0
   -1.9620   11.9680   22.6010 C   0  0  0  0  0  0  0  0  0  0  0  0
   -3.0500   12.7940   22.9120 C   0  0  0  0  0  0  0  0  0  0  0  0
   -3.6760   13.4680   21.8610 C   0  0  0  0  0  0  0  0  0  0  0  0
   -3.2290   13.3220   20.5510 C   0  0  0  0  0  0  0  0  0  0  0  0
   -2.1390   12.4930   20.2590 C   0  0  0  0  0  0  0  0  0  0  0  0
   -1.4830   11.7970   21.2980 C   0  0  0  0  0  0  0  0  0  0  0  0
    0.4910    9.8940   23.1970 H   0  0  0  0  0  0  0  0  0  0  0  0
   -1.2980   11.1330   24.4300 H   0  0  0  0  0  0  0  0  0  0  0  0
   -3.4010   12.9100   23.9310 H   0  0  0  0  0  0  0  0  0  0  0  0
   -4.5230   14.1170   22.0690 H   0  0  0  0  0  0  0  0  0  0  0  0
   -3.7240   13.8530   19.7430 H   0  0  0  0  0  0  0  0  0  0  0  0
   -1.8040   12.3910   19.2290 H   0  0  0  0  0  0  0  0  0  0  0  0
    4.6920    4.1020   18.3420 C   0  0  0  0  0  0  0  0  0  0  0  0
    3.9790    3.2030   17.5520 C   0  0  0  0  0  0  0  0  0  0  0  0
    2.6080    3.3760   17.3520 C   0  0  0  0  0  0  0  0  0  0  0  0
    1.9460    4.4580   17.9350 C   0  0  0  0  0  0  0  0  0  0  0  0
    2.6670    5.3780   18.7090 C   0  0  0  0  0  0  0  0  0  0  0  0
    4.0400    5.1910   18.9190 C   0  0  0  0  0  0  0  0  0  0  0  0
    4.4810    2.3580   17.0840 H   0  0  0  0  0  0  0  0  0  0  0  0
    2.0570    2.6570   16.7490 H   0  0  0  0  0  0  0  0  0  0  0  0
    0.8720    4.5490   17.8000 H   0  0  0  0  0  0  0  0  0  0  0  0
    4.5850    5.8990   19.5390 H   0  0  0  0  0  0  0  0  0  0  0  0
    6.0840    3.9280   18.5860 N   0  0  0  0  0  0  0  0  0  0  0  0
    6.4170    2.9750   18.7350 H   0  0  0  0  0  0  0  0  0  0  0  0
    7.2000    4.8560   17.7280 S   0  0  0  0  0  0  0  0  0  0  0  0
    6.9380    6.2620   17.9410 O   0  0  0  0  0  0  0  0  0  0  0  0
    8.4950    4.2810   18.0250 O   0  0  0  0  0  0  0  0  0  0  0  0
    6.8110    4.4520   16.0350 C   0  0  0  0  0  0  0  0  0  0  0  0
    6.2100    5.2680   15.6270 H   0  0  0  0  0  0  0  0  0  0  0  0
    7.7400    4.3610   15.4690 H   0  0  0  0  0  0  0  0  0  0  0  0
    6.2370    3.5250   16.0060 H   0  0  0  0  0  0  0  0  0  0  0  0
  1  2  2  0  0  0  0
  3  4  1  0  0  0  0
  3  1  1  0  0  0  0
  4  5  2  0  0  0  0
  5  6  1  0  0  0  0
  6 11  1  0  0  0  0
  7  6  2  0  0  0  0
  8  4  1  0  0  0  0
  8  7  1  0  0  0  0
  9  3  1  0  0  0  0
 10  7  1  0  0  0  0
 11 12  2  0  0  0  0
 12 20  1  0  0  0  0
 12 13  1  0  0  0  0
 13 21  1  0  0  0  0
 14 15  1  0  0  0  0
 14 13  1  0  0  0  0
 15 22  1  0  0  0  0
 16 23  1  0  0  0  0
 16 15  2  0  0  0  0
 17 16  1  0  0  0  0
 18 17  2  0  0  0  0
 18 19  1  0  0  0  0
 19 11  1  0  0  0  0
 19 14  2  0  0  0  0
 24 17  1  0  0  0  0
 25 18  1  0  0  0  0
 26 36  1  0  0  0  0
 26 31  1  0  0  0  0
 27 26  2  0  0  0  0
 28 27  1  0  0  0  0
 28 29  2  0  0  0  0
 29 30  1  0  0  0  0
 30 31  2  0  0  0  0
 30  1  1  0  0  0  0
 31 35  1  0  0  0  0
 32 27  1  0  0  0  0
 33 28  1  0  0  0  0
 34 29  1  0  0  0  0
 36 37  1  0  0  0  0
 38 39  2  0  0  0  0
 38 40  2  0  0  0  0
 38 36  1  0  0  0  0
 41 38  1  0  0  0  0
 42 41  1  0  0  0  0
 43 41  1  0  0  0  0
 44 41  1  0  0  0  0
M  END
>  <MODEL>
4

>  <REMARK>
 VINA RESULT:    -7.798      3.427     10.030
 INTER + INTRA:         -10.504
 INTER:                 -10.225
 INTRA:                  -0.279
 UNBOUND:                -0.655
  Name = 
  5 active torsions:
  status: ('A' for Active; 'I' for Inactive)
    1  A    between atoms: C_1  and  S_2
    2  A    between atoms: S_2  and  N_5
    3  A    between atoms: N_5  and  C_6
    4  A    between atoms: C_10  and  C_11
    5  A    between atoms: C_16  and  C_17
                            x       y       z     vdW  Elec       q    Type
                         _______ _______ _______ _____ _____    ______ ____

>  <TORSDO>
F 5

$$$$
=
 OpenBabel07192307433D

 44 47  0  0  0  0  0  0  0  0999 V2000
    2.4970    7.8040   18.7420 C   0  0  0  0  0  0  0  0  0  0  0  0
    3.3100    8.4860   18.1310 O   0  0  0  0  0  0  0  0  0  0  0  0
    2.4130    6.4320   18.7830 N   0  0  0  0  0  0  0  0  0  0  0  0
    3.2490    5.6290   18.0570 C   0  0  0  0  0  0  0  0  0  0  0  0
    4.1790    5.9550   17.2020 N   0  0  0  0  0  0  0  0  0  0  0  0
    4.7760    4.8140   16.7010 C   0  0  0  0  0  0  0  0  0  0  0  0
    4.2650    3.6290   17.1980 C   0  0  0  0  0  0  0  0  0  0  0  0
    3.0090    3.9600   18.3200 S   0  0  0  0  0  0  0  0  0  0  0  0
    1.7760    5.9600   19.4040 H   0  0  0  0  0  0  0  0  0  0  0  0
    4.5580    2.6160   16.9660 H   0  0  0  0  0  0  0  0  0  0  0  0
    5.8610    4.9400   15.7180 C   0  0  0  0  0  0  0  0  0  0  0  0
    7.0570    5.6060   15.8970 C   0  0  0  0  0  0  0  0  0  0  0  0
    7.7850    5.4840   14.7440 N   0  0  0  0  0  0  0  0  0  0  0  0
    7.0880    4.7510   13.8130 C   0  0  0  0  0  0  0  0  0  0  0  0
    7.4480    4.3840   12.5100 C   0  0  0  0  0  0  0  0  0  0  0  0
    6.5350    3.6270   11.7710 C   0  0  0  0  0  0  0  0  0  0  0  0
    5.3110    3.2510   12.3170 C   0  0  0  0  0  0  0  0  0  0  0  0
    4.9690    3.6260   13.6220 C   0  0  0  0  0  0  0  0  0  0  0  0
    5.8690    4.3920   14.3960 C   0  0  0  0  0  0  0  0  0  0  0  0
    7.4560    6.1550   16.7390 H   0  0  0  0  0  0  0  0  0  0  0  0
    8.7050    5.8750   14.5900 H   0  0  0  0  0  0  0  0  0  0  0  0
    8.4010    4.6760   12.0800 H   0  0  0  0  0  0  0  0  0  0  0  0
    6.7850    3.3260   10.7560 H   0  0  0  0  0  0  0  0  0  0  0  0
    4.6120    2.6620   11.7320 H   0  0  0  0  0  0  0  0  0  0  0  0
    4.0080    3.3230   14.0320 H   0  0  0  0  0  0  0  0  0  0  0  0
   -0.1260   10.3070   19.7640 C   0  0  0  0  0  0  0  0  0  0  0  0
   -0.4260    9.8980   21.0620 C   0  0  0  0  0  0  0  0  0  0  0  0
    0.2180    8.7910   21.6170 C   0  0  0  0  0  0  0  0  0  0  0  0
    1.1740    8.0930   20.8780 C   0  0  0  0  0  0  0  0  0  0  0  0
    1.4950    8.5170   19.5810 C   0  0  0  0  0  0  0  0  0  0  0  0
    0.8350    9.6210   19.0230 C   0  0  0  0  0  0  0  0  0  0  0  0
   -1.1630   10.4370   21.6550 H   0  0  0  0  0  0  0  0  0  0  0  0
   -0.0380    8.4690   22.6250 H   0  0  0  0  0  0  0  0  0  0  0  0
    1.6310    7.2090   21.3150 H   0  0  0  0  0  0  0  0  0  0  0  0
    1.0780    9.9290   18.0080 H   0  0  0  0  0  0  0  0  0  0  0  0
   -0.7920   11.4140   19.1650 N   0  0  0  0  0  0  0  0  0  0  0  0
   -1.8120   11.3950   19.1530 H   0  0  0  0  0  0  0  0  0  0  0  0
   -0.1960   12.9730   19.4100 S   0  0  0  0  0  0  0  0  0  0  0  0
    1.0160   12.9180   20.1960 O   0  0  0  0  0  0  0  0  0  0  0  0
   -0.2180   13.6070   18.1080 O   0  0  0  0  0  0  0  0  0  0  0  0
   -1.4820   13.7230   20.3910 C   0  0  0  0  0  0  0  0  0  0  0  0
   -2.2790   12.9860   20.5170 H   0  0  0  0  0  0  0  0  0  0  0  0
   -1.0730   13.9920   21.3670 H   0  0  0  0  0  0  0  0  0  0  0  0
   -1.8720   14.5990   19.8700 H   0  0  0  0  0  0  0  0  0  0  0  0
  1  3  1  0  0  0  0
  1 30  1  0  0  0  0
  2  1  2  0  0  0  0
  3  9  1  0  0  0  0
  4  8  1  0  0  0  0
  4  3  1  0  0  0  0
  5  4  2  0  0  0  0
  6  7  2  0  0  0  0
  6  5  1  0  0  0  0
  7  8  1  0  0  0  0
 10  7  1  0  0  0  0
 11 12  2  0  0  0  0
 11  6  1  0  0  0  0
 12 20  1  0  0  0  0
 13 12  1  0  0  0  0
 14 19  1  0  0  0  0
 14 13  1  0  0  0  0
 15 14  2  0  0  0  0
 16 17  2  0  0  0  0
 16 15  1  0  0  0  0
 17 18  1  0  0  0  0
 18 25  1  0  0  0  0
 18 19  2  0  0  0  0
 19 11  1  0  0  0  0
 21 13  1  0  0  0  0
 22 15  1  0  0  0  0
 23 16  1  0  0  0  0
 24 17  1  0  0  0  0
 26 27  1  0  0  0  0
 27 28  2  0  0  0  0
 27 32  1  0  0  0  0
 28 33  1  0  0  0  0
 29 34  1  0  0  0  0
 29 28  1  0  0  0  0
 30 29  2  0  0  0  0
 31 30  1  0  0  0  0
 31 26  2  0  0  0  0
 35 31  1  0  0  0  0
 36 38  1  0  0  0  0
 36 26  1  0  0  0  0
 37 36  1  0  0  0  0
 38 39  2  0  0  0  0
 38 41  1  0  0  0  0
 40 38  2  0  0  0  0
 41 42  1  0  0  0  0
 41 43  1  0  0  0  0
 44 41  1  0  0  0  0
M  END
>  <MODEL>
5

>  <REMARK>
 VINA RESULT:    -7.724      2.364      2.819
 INTER + INTRA:         -10.412
 INTER:                  -9.854
 INTRA:                  -0.558
 UNBOUND:                -0.655
  Name = 
  5 active torsions:
  status: ('A' for Active; 'I' for Inactive)
    1  A    between atoms: C_1  and  S_2
    2  A    between atoms: S_2  and  N_5
    3  A    between atoms: N_5  and  C_6
    4  A    between atoms: C_10  and  C_11
    5  A    between atoms: C_16  and  C_17
                            x       y       z     vdW  Elec       q    Type
                         _______ _______ _______ _____ _____    ______ ____

>  <TORSDO>
F 5

$$$$
=
 OpenBabel07192307433D

 44 47  0  0  0  0  0  0  0  0999 V2000
    2.8840    7.6360   18.0970 C   0  0  0  0  0  0  0  0  0  0  0  0
    2.6550    8.5190   17.2790 O   0  0  0  0  0  0  0  0  0  0  0  0
    2.3440    7.4950   19.3530 N   0  0  0  0  0  0  0  0  0  0  0  0
    1.4760    8.4120   19.8800 C   0  0  0  0  0  0  0  0  0  0  0  0
    1.0580    9.5430   19.3820 N   0  0  0  0  0  0  0  0  0  0  0  0
    0.1850   10.1500   20.2640 C   0  0  0  0  0  0  0  0  0  0  0  0
   -0.0340    9.4480   21.4350 C   0  0  0  0  0  0  0  0  0  0  0  0
    0.8770    7.9930   21.4230 S   0  0  0  0  0  0  0  0  0  0  0  0
    2.5110    6.6730   19.9110 H   0  0  0  0  0  0  0  0  0  0  0  0
   -0.6640    9.7080   22.2730 H   0  0  0  0  0  0  0  0  0  0  0  0
   -0.4180   11.4420   19.9080 C   0  0  0  0  0  0  0  0  0  0  0  0
   -1.7680   11.7220   19.8230 C   0  0  0  0  0  0  0  0  0  0  0  0
   -1.9040   13.0360   19.4640 N   0  0  0  0  0  0  0  0  0  0  0  0
   -0.6690   13.6210   19.3120 C   0  0  0  0  0  0  0  0  0  0  0  0
   -0.3390   14.9360   18.9560 C   0  0  0  0  0  0  0  0  0  0  0  0
    1.0150   15.2670   18.8730 C   0  0  0  0  0  0  0  0  0  0  0  0
    2.0000   14.3190   19.1370 C   0  0  0  0  0  0  0  0  0  0  0  0
    1.6510   13.0100   19.4920 C   0  0  0  0  0  0  0  0  0  0  0  0
    0.2910   12.6430   19.5850 C   0  0  0  0  0  0  0  0  0  0  0  0
   -2.6420   11.1060   19.9840 H   0  0  0  0  0  0  0  0  0  0  0  0
   -2.7840   13.5150   19.3270 H   0  0  0  0  0  0  0  0  0  0  0  0
   -1.1040   15.6770   18.7490 H   0  0  0  0  0  0  0  0  0  0  0  0
    1.3050   16.2790   18.5990 H   0  0  0  0  0  0  0  0  0  0  0  0
    3.0490   14.5900   19.0690 H   0  0  0  0  0  0  0  0  0  0  0  0
    2.4350   12.2830   19.6940 H   0  0  0  0  0  0  0  0  0  0  0  0
    4.6410    4.3050   18.0660 C   0  0  0  0  0  0  0  0  0  0  0  0
    5.5200    4.4510   16.9940 C   0  0  0  0  0  0  0  0  0  0  0  0
    5.5420    5.6380   16.2590 C   0  0  0  0  0  0  0  0  0  0  0  0
    4.6900    6.6890   16.6020 C   0  0  0  0  0  0  0  0  0  0  0  0
    3.8230    6.5530   17.6940 C   0  0  0  0  0  0  0  0  0  0  0  0
    3.7940    5.3540   18.4200 C   0  0  0  0  0  0  0  0  0  0  0  0
    6.1970    3.6440   16.7200 H   0  0  0  0  0  0  0  0  0  0  0  0
    6.2190    5.7340   15.4130 H   0  0  0  0  0  0  0  0  0  0  0  0
    4.6950    7.5870   15.9890 H   0  0  0  0  0  0  0  0  0  0  0  0
    3.1030    5.2520   19.2530 H   0  0  0  0  0  0  0  0  0  0  0  0
    4.5780    3.0920   18.8100 N   0  0  0  0  0  0  0  0  0  0  0  0
    4.8480    3.1330   19.7940 H   0  0  0  0  0  0  0  0  0  0  0  0
    3.2980    2.0260   18.5530 S   0  0  0  0  0  0  0  0  0  0  0  0
    2.6060    2.3730   17.3320 O   0  0  0  0  0  0  0  0  0  0  0  0
    3.8480    0.7010   18.7520 O   0  0  0  0  0  0  0  0  0  0  0  0
    2.2280    2.3730   19.9360 C   0  0  0  0  0  0  0  0  0  0  0  0
    2.7910    2.1740   20.8510 H   0  0  0  0  0  0  0  0  0  0  0  0
    1.9360    3.4240   19.9050 H   0  0  0  0  0  0  0  0  0  0  0  0
    1.3560    1.7190   19.8940 H   0  0  0  0  0  0  0  0  0  0  0  0
  1  3  1  0  0  0  0
  2  1  2  0  0  0  0
  3  4  1  0  0  0  0
  3  9  1  0  0  0  0
  4  8  1  0  0  0  0
  5  4  2  0  0  0  0
  5  6  1  0  0  0  0
  6  7  2  0  0  0  0
  7 10  1  0  0  0  0
  8  7  1  0  0  0  0
 11  6  1  0  0  0  0
 12 11  2  0  0  0  0
 12 20  1  0  0  0  0
 13 12  1  0  0  0  0
 14 13  1  0  0  0  0
 14 19  1  0  0  0  0
 15 14  2  0  0  0  0
 16 15  1  0  0  0  0
 16 17  2  0  0  0  0
 17 18  1  0  0  0  0
 18 19  2  0  0  0  0
 18 25  1  0  0  0  0
 19 11  1  0  0  0  0
 21 13  1  0  0  0  0
 22 15  1  0  0  0  0
 23 16  1  0  0  0  0
 24 17  1  0  0  0  0
 26 31  1  0  0  0  0
 26 36  1  0  0  0  0
 27 26  2  0  0  0  0
 28 29  2  0  0  0  0
 28 27  1  0  0  0  0
 29 30  1  0  0  0  0
 30  1  1  0  0  0  0
 30 31  2  0  0  0  0
 31 35  1  0  0  0  0
 32 27  1  0  0  0  0
 33 28  1  0  0  0  0
 34 29  1  0  0  0  0
 36 37  1  0  0  0  0
 38 40  2  0  0  0  0
 38 36  1  0  0  0  0
 38 41  1  0  0  0  0
 39 38  2  0  0  0  0
 41 42  1  0  0  0  0
 43 41  1  0  0  0  0
 44 41  1  0  0  0  0
M  END
>  <MODEL>
6

>  <REMARK>
 VINA RESULT:    -7.704      3.259      9.209
 INTER + INTRA:         -10.385
 INTER:                  -9.758
 INTRA:                  -0.627
 UNBOUND:                -0.655
  Name = 
  5 active torsions:
  status: ('A' for Active; 'I' for Inactive)
    1  A    between atoms: C_1  and  S_2
    2  A    between atoms: S_2  and  N_5
    3  A    between atoms: N_5  and  C_6
    4  A    between atoms: C_10  and  C_11
    5  A    between atoms: C_16  and  C_17
                            x       y       z     vdW  Elec       q    Type
                         _______ _______ _______ _____ _____    ______ ____

>  <TORSDO>
F 5

$$$$
=
 OpenBabel07192307433D

 44 47  0  0  0  0  0  0  0  0999 V2000
    1.5180    9.3590   18.4180 C   0  0  0  0  0  0  0  0  0  0  0  0
    2.1590    9.1450   17.3960 O   0  0  0  0  0  0  0  0  0  0  0  0
    1.3730    8.5320   19.5070 N   0  0  0  0  0  0  0  0  0  0  0  0
    1.9190    7.2790   19.5490 C   0  0  0  0  0  0  0  0  0  0  0  0
    2.5820    6.6300   18.6300 N   0  0  0  0  0  0  0  0  0  0  0  0
    2.9460    5.3850   19.1060 C   0  0  0  0  0  0  0  0  0  0  0  0
    2.5340    5.1170   20.3980 C   0  0  0  0  0  0  0  0  0  0  0  0
    1.6720    6.4620   21.0270 S   0  0  0  0  0  0  0  0  0  0  0  0
    0.9150    8.8420   20.3490 H   0  0  0  0  0  0  0  0  0  0  0  0
    2.6900    4.2260   20.9880 H   0  0  0  0  0  0  0  0  0  0  0  0
    3.7090    4.4760   18.2390 C   0  0  0  0  0  0  0  0  0  0  0  0
    3.7740    3.1010   18.3460 C   0  0  0  0  0  0  0  0  0  0  0  0
    4.5890    2.6390   17.3480 N   0  0  0  0  0  0  0  0  0  0  0  0
    5.0600    3.6850   16.5900 C   0  0  0  0  0  0  0  0  0  0  0  0
    5.9130    3.6730   15.4790 C   0  0  0  0  0  0  0  0  0  0  0  0
    6.2340    4.8990   14.8920 C   0  0  0  0  0  0  0  0  0  0  0  0
    5.7200    6.0900   15.3970 C   0  0  0  0  0  0  0  0  0  0  0  0
    4.8680    6.0820   16.5080 C   0  0  0  0  0  0  0  0  0  0  0  0
    4.5230    4.8600   17.1250 C   0  0  0  0  0  0  0  0  0  0  0  0
    3.3150    2.4110   19.0410 H   0  0  0  0  0  0  0  0  0  0  0  0
    4.8190    1.6670   17.1850 H   0  0  0  0  0  0  0  0  0  0  0  0
    6.3160    2.7470   15.0830 H   0  0  0  0  0  0  0  0  0  0  0  0
    6.8950    4.9240   14.0280 H   0  0  0  0  0  0  0  0  0  0  0  0
    5.9770    7.0360   14.9300 H   0  0  0  0  0  0  0  0  0  0  0  0
    4.4760    7.0230   16.8890 H   0  0  0  0  0  0  0  0  0  0  0  0
   -1.2350   11.9260   18.5500 C   0  0  0  0  0  0  0  0  0  0  0  0
   -0.5250   13.1000   18.7900 C   0  0  0  0  0  0  0  0  0  0  0  0
    0.8650   13.0670   18.9230 C   0  0  0  0  0  0  0  0  0  0  0  0
    1.5510   11.8570   18.8060 C   0  0  0  0  0  0  0  0  0  0  0  0
    0.8410   10.6790   18.5400 C   0  0  0  0  0  0  0  0  0  0  0  0
   -0.5560   10.7150   18.4220 C   0  0  0  0  0  0  0  0  0  0  0  0
   -1.0440   14.0530   18.8750 H   0  0  0  0  0  0  0  0  0  0  0  0
    1.4070   13.9870   19.1300 H   0  0  0  0  0  0  0  0  0  0  0  0
    2.6270   11.8500   18.9560 H   0  0  0  0  0  0  0  0  0  0  0  0
   -1.0990    9.7910   18.2360 H   0  0  0  0  0  0  0  0  0  0  0  0
   -2.6550   11.9300   18.4410 N   0  0  0  0  0  0  0  0  0  0  0  0
   -3.1350   12.8110   18.6260 H   0  0  0  0  0  0  0  0  0  0  0  0
   -3.3960   11.0600   17.2010 S   0  0  0  0  0  0  0  0  0  0  0  0
   -2.6790   11.2630   15.9620 O   0  0  0  0  0  0  0  0  0  0  0  0
   -3.6110    9.7300   17.7340 O   0  0  0  0  0  0  0  0  0  0  0  0
   -4.9890   11.8510   17.0780 C   0  0  0  0  0  0  0  0  0  0  0  0
   -5.7380   11.1540   17.4610 H   0  0  0  0  0  0  0  0  0  0  0  0
   -4.9840   12.7570   17.6870 H   0  0  0  0  0  0  0  0  0  0  0  0
   -5.2010   12.0780   16.0320 H   0  0  0  0  0  0  0  0  0  0  0  0
  1 30  1  0  0  0  0
  1  3  1  0  0  0  0
  2  1  2  0  0  0  0
  3  4  1  0  0  0  0
  3  9  1  0  0  0  0
  4  8  1  0  0  0  0
  5  6  1  0  0  0  0
  5  4  2  0  0  0  0
  6  7  2  0  0  0  0
  7 10  1  0  0  0  0
  7  8  1  0  0  0  0
 11 12  2  0  0  0  0
 11  6  1  0  0  0  0
 12 20  1  0  0  0  0
 13 12  1  0  0  0  0
 14 19  1  0  0  0  0
 14 13  1  0  0  0  0
 15 14  2  0  0  0  0
 16 17  2  0  0  0  0
 16 15  1  0  0  0  0
 17 18  1  0  0  0  0
 18 25  1  0  0  0  0
 18 19  2  0  0  0  0
 19 11  1  0  0  0  0
 21 13  1  0  0  0  0
 22 15  1  0  0  0  0
 23 16  1  0  0  0  0
 24 17  1  0  0  0  0
 26 27  1  0  0  0  0
 27 32  1  0  0  0  0
 27 28  2  0  0  0  0
 28 33  1  0  0  0  0
 29 28  1  0  0  0  0
 29 34  1  0  0  0  0
 30 29  2  0  0  0  0
 31 30  1  0  0  0  0
 31 26  2  0  0  0  0
 35 31  1  0  0  0  0
 36 26  1  0  0  0  0
 36 37  1  0  0  0  0
 38 40  2  0  0  0  0
 38 36  1  0  0  0  0
 39 38  2  0  0  0  0
 41 38  1  0  0  0  0
 41 42  1  0  0  0  0
 41 43  1  0  0  0  0
 44 41  1  0  0  0  0
M  END
>  <MODEL>
7

>  <REMARK>
 VINA RESULT:    -7.692      1.730      2.271
 INTER + INTRA:         -10.370
 INTER:                 -10.120
 INTRA:                  -0.250
 UNBOUND:                -0.655
  Name = 
  5 active torsions:
  status: ('A' for Active; 'I' for Inactive)
    1  A    between atoms: C_1  and  S_2
    2  A    between atoms: S_2  and  N_5
    3  A    between atoms: N_5  and  C_6
    4  A    between atoms: C_10  and  C_11
    5  A    between atoms: C_16  and  C_17
                            x       y       z     vdW  Elec       q    Type
                         _______ _______ _______ _____ _____    ______ ____

>  <TORSDO>
F 5

$$$$
=
 OpenBabel07192307433D

 44 47  0  0  0  0  0  0  0  0999 V2000
    1.9880    7.4630   19.7140 C   0  0  0  0  0  0  0  0  0  0  0  0
    2.0000    8.1590   18.7060 O   0  0  0  0  0  0  0  0  0  0  0  0
    1.4040    7.7490   20.9260 N   0  0  0  0  0  0  0  0  0  0  0  0
    0.7770    8.9400   21.1690 C   0  0  0  0  0  0  0  0  0  0  0  0
    0.6600    9.9900   20.4020 N   0  0  0  0  0  0  0  0  0  0  0  0
   -0.0560   10.9730   21.0590 C   0  0  0  0  0  0  0  0  0  0  0  0
   -0.4640   10.6340   22.3350 C   0  0  0  0  0  0  0  0  0  0  0  0
    0.0630    9.0450   22.7150 S   0  0  0  0  0  0  0  0  0  0  0  0
    1.3530    7.0640   21.6630 H   0  0  0  0  0  0  0  0  0  0  0  0
   -1.0280   11.2220   23.0440 H   0  0  0  0  0  0  0  0  0  0  0  0
   -0.3160   12.2500   20.3800 C   0  0  0  0  0  0  0  0  0  0  0  0
   -1.5490   12.8390   20.1850 C   0  0  0  0  0  0  0  0  0  0  0  0
   -1.3530   14.0160   19.5150 N   0  0  0  0  0  0  0  0  0  0  0  0
   -0.0140   14.2090   19.2660 C   0  0  0  0  0  0  0  0  0  0  0  0
    0.6330   15.2670   18.6140 C   0  0  0  0  0  0  0  0  0  0  0  0
    2.0240   15.2070   18.4990 C   0  0  0  0  0  0  0  0  0  0  0  0
    2.7380   14.1310   19.0170 C   0  0  0  0  0  0  0  0  0  0  0  0
    2.0750   13.0830   19.6660 C   0  0  0  0  0  0  0  0  0  0  0  0
    0.6690   13.1120   19.8000 C   0  0  0  0  0  0  0  0  0  0  0  0
   -2.5470   12.5280   20.4620 H   0  0  0  0  0  0  0  0  0  0  0  0
   -2.0830   14.6590   19.2360 H   0  0  0  0  0  0  0  0  0  0  0  0
    0.0800   16.1070   18.2090 H   0  0  0  0  0  0  0  0  0  0  0  0
    2.5560   16.0130   17.9980 H   0  0  0  0  0  0  0  0  0  0  0  0
    3.8190   14.0970   18.9210 H   0  0  0  0  0  0  0  0  0  0  0  0
    2.6500   12.2490   20.0650 H   0  0  0  0  0  0  0  0  0  0  0  0
    4.3760    4.7470   18.6600 C   0  0  0  0  0  0  0  0  0  0  0  0
    3.9530    3.6710   19.4390 C   0  0  0  0  0  0  0  0  0  0  0  0
    2.8880    3.8240   20.3290 C   0  0  0  0  0  0  0  0  0  0  0  0
    2.2340    5.0520   20.4350 C   0  0  0  0  0  0  0  0  0  0  0  0
    2.6410    6.1270   19.6340 C   0  0  0  0  0  0  0  0  0  0  0  0
    3.7200    5.9740   18.7530 C   0  0  0  0  0  0  0  0  0  0  0  0
    4.4470    2.7040   19.3620 H   0  0  0  0  0  0  0  0  0  0  0  0
    2.5790    2.9820   20.9470 H   0  0  0  0  0  0  0  0  0  0  0  0
    1.4350    5.1580   21.1650 H   0  0  0  0  0  0  0  0  0  0  0  0
    4.0410    6.8210   18.1510 H   0  0  0  0  0  0  0  0  0  0  0  0
    5.4790    4.6250   17.7690 N   0  0  0  0  0  0  0  0  0  0  0  0
    5.2970    4.7740   16.7750 H   0  0  0  0  0  0  0  0  0  0  0  0
    6.9870    5.2250   18.2270 S   0  0  0  0  0  0  0  0  0  0  0  0
    7.0010    5.4850   19.6490 O   0  0  0  0  0  0  0  0  0  0  0  0
    7.9600    4.3430   17.6160 O   0  0  0  0  0  0  0  0  0  0  0  0
    7.0590    6.7810   17.3600 C   0  0  0  0  0  0  0  0  0  0  0  0
    8.1030    6.9700   17.1000 H   0  0  0  0  0  0  0  0  0  0  0  0
    6.4600    6.7090   16.4500 H   0  0  0  0  0  0  0  0  0  0  0  0
    6.6950    7.5770   18.0120 H   0  0  0  0  0  0  0  0  0  0  0  0
  1  3  1  0  0  0  0
  2  1  2  0  0  0  0
  3  4  1  0  0  0  0
  3  9  1  0  0  0  0
  4  8  1  0  0  0  0
  5  6  1  0  0  0  0
  5  4  2  0  0  0  0
  6  7  2  0  0  0  0
  7  8  1  0  0  0  0
  7 10  1  0  0  0  0
 11  6  1  0  0  0  0
 12 11  2  0  0  0  0
 12 20  1  0  0  0  0
 13 12  1  0  0  0  0
 14 13  1  0  0  0  0
 14 19  1  0  0  0  0
 15 14  2  0  0  0  0
 16 15  1  0  0  0  0
 16 17  2  0  0  0  0
 17 18  1  0  0  0  0
 18 19  2  0  0  0  0
 18 25  1  0  0  0  0
 19 11  1  0  0  0  0
 21 13  1  0  0  0  0
 22 15  1  0  0  0  0
 23 16  1  0  0  0  0
 24 17  1  0  0  0  0
 26 31  2  0  0  0  0
 26 27  1  0  0  0  0
 27 28  2  0  0  0  0
 28 29  1  0  0  0  0
 28 33  1  0  0  0  0
 29 34  1  0  0  0  0
 30  1  1  0  0  0  0
 30 29  2  0  0  0  0
 31 30  1  0  0  0  0
 32 27  1  0  0  0  0
 35 31  1  0  0  0  0
 36 38  1  0  0  0  0
 36 26  1  0  0  0  0
 37 36  1  0  0  0  0
 38 39  2  0  0  0  0
 40 38  2  0  0  0  0
 41 44  1  0  0  0  0
 41 38  1  0  0  0  0
 42 41  1  0  0  0  0
 43 41  1  0  0  0  0
M  END
>  <MODEL>
8

>  <REMARK>
 VINA RESULT:    -7.677      3.574      9.319
 INTER + INTRA:         -10.352
 INTER:                  -9.759
 INTRA:                  -0.593
 UNBOUND:                -0.655
  Name = 
  5 active torsions:
  status: ('A' for Active; 'I' for Inactive)
    1  A    between atoms: C_1  and  S_2
    2  A    between atoms: S_2  and  N_5
    3  A    between atoms: N_5  and  C_6
    4  A    between atoms: C_10  and  C_11
    5  A    between atoms: C_16  and  C_17
                            x       y       z     vdW  Elec       q    Type
                         _______ _______ _______ _____ _____    ______ ____

>  <TORSDO>
F 5

$$$$
=
 OpenBabel07192307433D

 44 47  0  0  0  0  0  0  0  0999 V2000
    2.2670    5.9750   19.6420 C   0  0  0  0  0  0  0  0  0  0  0  0
    1.8030    5.8720   20.7700 O   0  0  0  0  0  0  0  0  0  0  0  0
    2.2970    7.0950   18.8450 N   0  0  0  0  0  0  0  0  0  0  0  0
    1.7300    8.2780   19.2300 C   0  0  0  0  0  0  0  0  0  0  0  0
    1.0460    8.5620   20.3050 N   0  0  0  0  0  0  0  0  0  0  0  0
    0.6600    9.8880   20.2790 C   0  0  0  0  0  0  0  0  0  0  0  0
    1.0660   10.5860   19.1570 C   0  0  0  0  0  0  0  0  0  0  0  0
    1.9530    9.5510   18.1140 S   0  0  0  0  0  0  0  0  0  0  0  0
    2.8010    7.1100   17.9730 H   0  0  0  0  0  0  0  0  0  0  0  0
    0.8910   11.6210   18.9030 H   0  0  0  0  0  0  0  0  0  0  0  0
   -0.1210   10.4330   21.3980 C   0  0  0  0  0  0  0  0  0  0  0  0
   -0.0450   10.0420   22.7200 C   0  0  0  0  0  0  0  0  0  0  0  0
   -0.9350   10.7960   23.4350 N   0  0  0  0  0  0  0  0  0  0  0  0
   -1.5950   11.6730   22.6070 C   0  0  0  0  0  0  0  0  0  0  0  0
   -2.5800   12.6230   22.9090 C   0  0  0  0  0  0  0  0  0  0  0  0
   -3.0860   13.3920   21.8590 C   0  0  0  0  0  0  0  0  0  0  0  0
   -2.6230   13.2180   20.5580 C   0  0  0  0  0  0  0  0  0  0  0  0
   -1.6370   12.2660   20.2740 C   0  0  0  0  0  0  0  0  0  0  0  0
   -1.1040   11.4710   21.3130 C   0  0  0  0  0  0  0  0  0  0  0  0
    0.5610    9.2960   23.2160 H   0  0  0  0  0  0  0  0  0  0  0  0
   -1.0940   10.7240   24.4320 H   0  0  0  0  0  0  0  0  0  0  0  0
   -2.9430   12.7610   23.9210 H   0  0  0  0  0  0  0  0  0  0  0  0
   -3.8510   14.1380   22.0600 H   0  0  0  0  0  0  0  0  0  0  0  0
   -3.0240   13.8240   19.7510 H   0  0  0  0  0  0  0  0  0  0  0  0
   -1.2880   12.1440   19.2510 H   0  0  0  0  0  0  0  0  0  0  0  0
    4.2440    3.8260   17.2620 C   0  0  0  0  0  0  0  0  0  0  0  0
    4.2020    2.5830   17.8910 C   0  0  0  0  0  0  0  0  0  0  0  0
    3.5350    2.4340   19.1090 C   0  0  0  0  0  0  0  0  0  0  0  0
    2.8980    3.5270   19.6970 C   0  0  0  0  0  0  0  0  0  0  0  0
    2.9190    4.7720   19.0540 C   0  0  0  0  0  0  0  0  0  0  0  0
    3.6020    4.9210   17.8390 C   0  0  0  0  0  0  0  0  0  0  0  0
    4.6860    1.7190   17.4410 H   0  0  0  0  0  0  0  0  0  0  0  0
    3.5250    1.4630   19.6000 H   0  0  0  0  0  0  0  0  0  0  0  0
    2.4220    3.3960   20.6650 H   0  0  0  0  0  0  0  0  0  0  0  0
    3.6280    5.8960   17.3590 H   0  0  0  0  0  0  0  0  0  0  0  0
    4.9440    4.0100   16.0360 N   0  0  0  0  0  0  0  0  0  0  0  0
    4.3840    4.1190   15.1890 H   0  0  0  0  0  0  0  0  0  0  0  0
    6.3240    4.9800   16.0050 S   0  0  0  0  0  0  0  0  0  0  0  0
    5.9530    6.3670   16.1750 O   0  0  0  0  0  0  0  0  0  0  0  0
    7.2690    4.3410   16.8970 O   0  0  0  0  0  0  0  0  0  0  0  0
    6.9180    4.7460   14.3400 C   0  0  0  0  0  0  0  0  0  0  0  0
    7.3990    5.6750   14.0250 H   0  0  0  0  0  0  0  0  0  0  0  0
    7.6460    3.9330   14.3330 H   0  0  0  0  0  0  0  0  0  0  0  0
    6.0750    4.5300   13.6810 H   0  0  0  0  0  0  0  0  0  0  0  0
  1  2  2  0  0  0  0
  3  4  1  0  0  0  0
  3  1  1  0  0  0  0
  4  5  2  0  0  0  0
  6  5  1  0  0  0  0
  6 11  1  0  0  0  0
  7  6  2  0  0  0  0
  8  7  1  0  0  0  0
  8  4  1  0  0  0  0
  9  3  1  0  0  0  0
 10  7  1  0  0  0  0
 11 12  2  0  0  0  0
 12 20  1  0  0  0  0
 12 13  1  0  0  0  0
 13 21  1  0  0  0  0
 14 15  1  0  0  0  0
 14 13  1  0  0  0  0
 15 22  1  0  0  0  0
 16 23  1  0  0  0  0
 16 15  2  0  0  0  0
 17 16  1  0  0  0  0
 18 17  2  0  0  0  0
 18 19  1  0  0  0  0
 19 11  1  0  0  0  0
 19 14  2  0  0  0  0
 24 17  1  0  0  0  0
 25 18  1  0  0  0  0
 26 31  2  0  0  0  0
 26 27  1  0  0  0  0
 27 28  2  0  0  0  0
 28 33  1  0  0  0  0
 28 29  1  0  0  0  0
 29 34  1  0  0  0  0
 30  1  1  0  0  0  0
 30 29  2  0  0  0  0
 31 30  1  0  0  0  0
 32 27  1  0  0  0  0
 35 31  1  0  0  0  0
 36 26  1  0  0  0  0
 37 36  1  0  0  0  0
 38 36  1  0  0  0  0
 38 39  2  0  0  0  0
 38 40  2  0  0  0  0
 41 38  1  0  0  0  0
 42 41  1  0  0  0  0
 43 41  1  0  0  0  0
 44 41  1  0  0  0  0
M  END
>  <MODEL>
9

>  <REMARK>
 VINA RESULT:    -7.659      3.558      9.757
 INTER + INTRA:         -10.330
 INTER:                  -9.966
 INTRA:                  -0.363
 UNBOUND:                -0.655
  Name = 
  5 active torsions:
  status: ('A' for Active; 'I' for Inactive)
    1  A    between atoms: C_1  and  S_2
    2  A    between atoms: S_2  and  N_5
    3  A    between atoms: N_5  and  C_6
    4  A    between atoms: C_10  and  C_11
    5  A    between atoms: C_16  and  C_17
                            x       y       z     vdW  Elec       q    Type
                         _______ _______ _______ _____ _____    ______ ____

>  <TORSDO>
F 5

$$$$
=
 OpenBabel07192307433D

 44 47  0  0  0  0  0  0  0  0999 V2000
    1.3340    9.3130   18.2330 C   0  0  0  0  0  0  0  0  0  0  0  0
    2.1200    9.7730   17.4150 O   0  0  0  0  0  0  0  0  0  0  0  0
    1.4500    8.1410   18.9440 N   0  0  0  0  0  0  0  0  0  0  0  0
    2.4980    7.2820   18.7650 C   0  0  0  0  0  0  0  0  0  0  0  0
    3.4900    7.3450   17.9190 N   0  0  0  0  0  0  0  0  0  0  0  0
    4.3210    6.2540   18.0880 C   0  0  0  0  0  0  0  0  0  0  0  0
    3.9220    5.3720   19.0750 C   0  0  0  0  0  0  0  0  0  0  0  0
    2.4730    5.9290   19.8060 S   0  0  0  0  0  0  0  0  0  0  0  0
    0.8020    7.9020   19.6780 H   0  0  0  0  0  0  0  0  0  0  0  0
    4.3950    4.4550   19.3940 H   0  0  0  0  0  0  0  0  0  0  0  0
    5.5140    6.1180   17.2400 C   0  0  0  0  0  0  0  0  0  0  0  0
    6.7400    6.7190   17.4470 C   0  0  0  0  0  0  0  0  0  0  0  0
    7.5750    6.3330   16.4330 N   0  0  0  0  0  0  0  0  0  0  0  0
    6.9180    5.4930   15.5650 C   0  0  0  0  0  0  0  0  0  0  0  0
    7.3820    4.8660   14.4010 C   0  0  0  0  0  0  0  0  0  0  0  0
    6.4890    4.0530   13.6990 C   0  0  0  0  0  0  0  0  0  0  0  0
    5.1840    3.8730   14.1470 C   0  0  0  0  0  0  0  0  0  0  0  0
    4.7370    4.5060   15.3130 C   0  0  0  0  0  0  0  0  0  0  0  0
    5.6150    5.3350   16.0460 C   0  0  0  0  0  0  0  0  0  0  0  0
    7.0940    7.3840   18.2220 H   0  0  0  0  0  0  0  0  0  0  0  0
    8.5380    6.6220   16.3280 H   0  0  0  0  0  0  0  0  0  0  0  0
    8.3990    5.0040   14.0490 H   0  0  0  0  0  0  0  0  0  0  0  0
    6.8190    3.5520   12.7920 H   0  0  0  0  0  0  0  0  0  0  0  0
    4.5000    3.2370   13.5920 H   0  0  0  0  0  0  0  0  0  0  0  0
    3.7130    4.3540   15.6470 H   0  0  0  0  0  0  0  0  0  0  0  0
   -0.9260   11.7980   19.9380 C   0  0  0  0  0  0  0  0  0  0  0  0
   -2.0940   11.6910   19.1860 C   0  0  0  0  0  0  0  0  0  0  0  0
   -2.1550   10.8110   18.1030 C   0  0  0  0  0  0  0  0  0  0  0  0
   -1.0490   10.0270   17.7750 C   0  0  0  0  0  0  0  0  0  0  0  0
    0.1190   10.1160   18.5450 C   0  0  0  0  0  0  0  0  0  0  0  0
    0.1800   11.0100   19.6230 C   0  0  0  0  0  0  0  0  0  0  0  0
   -2.9690   12.2890   19.4350 H   0  0  0  0  0  0  0  0  0  0  0  0
   -3.0660   10.7500   17.5110 H   0  0  0  0  0  0  0  0  0  0  0  0
   -1.1050    9.3810   16.9030 H   0  0  0  0  0  0  0  0  0  0  0  0
    1.0980   11.0860   20.2010 H   0  0  0  0  0  0  0  0  0  0  0  0
   -0.8290   12.7100   21.0270 N   0  0  0  0  0  0  0  0  0  0  0  0
   -0.8600   13.7070   20.8070 H   0  0  0  0  0  0  0  0  0  0  0  0
   -1.6230   12.3630   22.4740 S   0  0  0  0  0  0  0  0  0  0  0  0
   -3.0520   12.3330   22.2560 O   0  0  0  0  0  0  0  0  0  0  0  0
   -0.9260   11.2250   23.0370 O   0  0  0  0  0  0  0  0  0  0  0  0
   -1.2270   13.7820   23.4780 C   0  0  0  0  0  0  0  0  0  0  0  0
   -0.9860   14.6090   22.8050 H   0  0  0  0  0  0  0  0  0  0  0  0
   -2.0960   14.0430   24.0840 H   0  0  0  0  0  0  0  0  0  0  0  0
   -0.3620   13.5550   24.1020 H   0  0  0  0  0  0  0  0  0  0  0  0
  1 30  1  0  0  0  0
  1  3  1  0  0  0  0
  2  1  2  0  0  0  0
  3  9  1  0  0  0  0
  4  3  1  0  0  0  0
  4  8  1  0  0  0  0
  5  6  1  0  0  0  0
  5  4  2  0  0  0  0
  6  7  2  0  0  0  0
  7 10  1  0  0  0  0
  7  8  1  0  0  0  0
 11 12  2  0  0  0  0
 11  6  1  0  0  0  0
 12 20  1  0  0  0  0
 13 12  1  0  0  0  0
 14 19  1  0  0  0  0
 14 13  1  0  0  0  0
 15 14  2  0  0  0  0
 16 17  2  0  0  0  0
 16 15  1  0  0  0  0
 17 18  1  0  0  0  0
 18 25  1  0  0  0  0
 18 19  2  0  0  0  0
 19 11  1  0  0  0  0
 21 13  1  0  0  0  0
 22 15  1  0  0  0  0
 23 16  1  0  0  0  0
 24 17  1  0  0  0  0
 26 36  1  0  0  0  0
 27 32  1  0  0  0  0
 27 26  2  0  0  0  0
 28 27  1  0  0  0  0
 29 28  2  0  0  0  0
 29 30  1  0  0  0  0
 30 31  2  0  0  0  0
 31 26  1  0  0  0  0
 31 35  1  0  0  0  0
 33 28  1  0  0  0  0
 34 29  1  0  0  0  0
 36 38  1  0  0  0  0
 37 36  1  0  0  0  0
 38 40  2  0  0  0  0
 38 41  1  0  0  0  0
 39 38  2  0  0  0  0
 41 43  1  0  0  0  0
 41 44  1  0  0  0  0
 42 41  1  0  0  0  0
M  END
>  <MODEL>
10

>  <REMARK>
 VINA RESULT:    -7.627      2.260      2.966
 INTER + INTRA:         -10.289
 INTER:                  -9.767
 INTRA:                  -0.522
 UNBOUND:                -0.655
  Name = 
  5 active torsions:
  status: ('A' for Active; 'I' for Inactive)
    1  A    between atoms: C_1  and  S_2
    2  A    between atoms: S_2  and  N_5
    3  A    between atoms: N_5  and  C_6
    4  A    between atoms: C_10  and  C_11
    5  A    between atoms: C_16  and  C_17
                            x       y       z     vdW  Elec       q    Type
                         _______ _______ _______ _____ _____    ______ ____

>  <TORSDO>
F 5

$$$$
=
 OpenBabel07192307433D

 44 47  0  0  0  0  0  0  0  0999 V2000
    2.0000    8.0330   18.5120 C   0  0  0  0  0  0  0  0  0  0  0  0
    1.3490    8.6710   17.6940 O   0  0  0  0  0  0  0  0  0  0  0  0
    1.9370    8.1150   19.8830 N   0  0  0  0  0  0  0  0  0  0  0  0
    1.1270    9.0130   20.5230 C   0  0  0  0  0  0  0  0  0  0  0  0
    0.3570    9.9410   20.0240 N   0  0  0  0  0  0  0  0  0  0  0  0
   -0.2820   10.6190   21.0440 C   0  0  0  0  0  0  0  0  0  0  0  0
    0.0340   10.1800   22.3160 C   0  0  0  0  0  0  0  0  0  0  0  0
    1.1570    8.8850   22.2250 S   0  0  0  0  0  0  0  0  0  0  0  0
    2.4330    7.4690   20.4750 H   0  0  0  0  0  0  0  0  0  0  0  0
   -0.3270   10.5430   23.2670 H   0  0  0  0  0  0  0  0  0  0  0  0
   -1.2080   11.7110   20.7140 C   0  0  0  0  0  0  0  0  0  0  0  0
   -1.3020   12.3710   19.5040 C   0  0  0  0  0  0  0  0  0  0  0  0
   -2.2860   13.3160   19.6140 N   0  0  0  0  0  0  0  0  0  0  0  0
   -2.8380   13.2890   20.8730 C   0  0  0  0  0  0  0  0  0  0  0  0
   -3.8630   14.0720   21.4190 C   0  0  0  0  0  0  0  0  0  0  0  0
   -4.2320   13.8310   22.7450 C   0  0  0  0  0  0  0  0  0  0  0  0
   -3.6000   12.8420   23.4930 C   0  0  0  0  0  0  0  0  0  0  0  0
   -2.5780   12.0680   22.9310 C   0  0  0  0  0  0  0  0  0  0  0  0
   -2.1810   12.2860   21.5930 C   0  0  0  0  0  0  0  0  0  0  0  0
   -0.7590   12.2530   18.5770 H   0  0  0  0  0  0  0  0  0  0  0  0
   -2.5720   13.9490   18.8790 H   0  0  0  0  0  0  0  0  0  0  0  0
   -4.3580   14.8440   20.8390 H   0  0  0  0  0  0  0  0  0  0  0  0
   -5.0250   14.4220   23.1980 H   0  0  0  0  0  0  0  0  0  0  0  0
   -3.8970   12.6640   24.5220 H   0  0  0  0  0  0  0  0  0  0  0  0
   -2.0950   11.3000   23.5310 H   0  0  0  0  0  0  0  0  0  0  0  0
    3.4150    4.6750   17.5590 C   0  0  0  0  0  0  0  0  0  0  0  0
    4.6440    5.0260   17.0030 C   0  0  0  0  0  0  0  0  0  0  0  0
    5.0220    6.3680   16.9230 C   0  0  0  0  0  0  0  0  0  0  0  0
    4.1740    7.3650   17.4080 C   0  0  0  0  0  0  0  0  0  0  0  0
    2.9490    7.0120   17.9900 C   0  0  0  0  0  0  0  0  0  0  0  0
    2.5680    5.6650   18.0560 C   0  0  0  0  0  0  0  0  0  0  0  0
    5.3210    4.2600   16.6280 H   0  0  0  0  0  0  0  0  0  0  0  0
    5.9750    6.6320   16.4690 H   0  0  0  0  0  0  0  0  0  0  0  0
    4.4710    8.4040   17.2960 H   0  0  0  0  0  0  0  0  0  0  0  0
    1.6050    5.4040   18.4900 H   0  0  0  0  0  0  0  0  0  0  0  0
    2.9950    3.3170   17.6240 N   0  0  0  0  0  0  0  0  0  0  0  0
    3.0210    2.7770   16.7580 H   0  0  0  0  0  0  0  0  0  0  0  0
    3.4190    2.3790   18.9600 S   0  0  0  0  0  0  0  0  0  0  0  0
    3.6790    1.0190   18.5440 O   0  0  0  0  0  0  0  0  0  0  0  0
    4.4150    3.1490   19.6760 O   0  0  0  0  0  0  0  0  0  0  0  0
    1.9250    2.4030   19.9330 C   0  0  0  0  0  0  0  0  0  0  0  0
    1.1960    1.7540   19.4420 H   0  0  0  0  0  0  0  0  0  0  0  0
    2.1450    2.0200   20.9320 H   0  0  0  0  0  0  0  0  0  0  0  0
    1.5370    3.4220   19.9770 H   0  0  0  0  0  0  0  0  0  0  0  0
  1  3  1  0  0  0  0
  2  1  2  0  0  0  0
  3  9  1  0  0  0  0
  3  4  1  0  0  0  0
  4  8  1  0  0  0  0
  5  4  2  0  0  0  0
  5  6  1  0  0  0  0
  6  7  2  0  0  0  0
  7 10  1  0  0  0  0
  8  7  1  0  0  0  0
 11  6  1  0  0  0  0
 11 19  1  0  0  0  0
 12 13  1  0  0  0  0
 12 11  2  0  0  0  0
 13 14  1  0  0  0  0
 14 15  2  0  0  0  0
 14 19  1  0  0  0  0
 15 16  1  0  0  0  0
 16 23  1  0  0  0  0
 16 17  2  0  0  0  0
 17 24  1  0  0  0  0
 18 17  1  0  0  0  0
 18 25  1  0  0  0  0
 19 18  2  0  0  0  0
 20 12  1  0  0  0  0
 21 13  1  0  0  0  0
 22 15  1  0  0  0  0
 26 36  1  0  0  0  0
 26 31  1  0  0  0  0
 27 26  2  0  0  0  0
 28 27  1  0  0  0  0
 28 29  2  0  0  0  0
 29 30  1  0  0  0  0
 30 31  2  0  0  0  0
 30  1  1  0  0  0  0
 31 35  1  0  0  0  0
 32 27  1  0  0  0  0
 33 28  1  0  0  0  0
 34 29  1  0  0  0  0
 36 38  1  0  0  0  0
 37 36  1  0  0  0  0
 38 40  2  0  0  0  0
 38 41  1  0  0  0  0
 39 38  2  0  0  0  0
 41 44  1  0  0  0  0
 41 43  1  0  0  0  0
 42 41  1  0  0  0  0
M  END
>  <MODEL>
11

>  <REMARK>
 VINA RESULT:    -7.611      3.244      9.961
 INTER + INTRA:         -10.268
 INTER:                  -9.988
 INTRA:                  -0.280
 UNBOUND:                -0.655
  Name = 
  5 active torsions:
  status: ('A' for Active; 'I' for Inactive)
    1  A    between atoms: C_1  and  S_2
    2  A    between atoms: S_2  and  N_5
    3  A    between atoms: N_5  and  C_6
    4  A    between atoms: C_10  and  C_11
    5  A    between atoms: C_16  and  C_17
                            x       y       z     vdW  Elec       q    Type
                         _______ _______ _______ _____ _____    ______ ____

>  <TORSDO>
F 5

$$$$
=
 OpenBabel07192307433D

 44 47  0  0  0  0  0  0  0  0999 V2000
    1.4160    8.7460   19.3810 C   0  0  0  0  0  0  0  0  0  0  0  0
    0.9400    9.4860   18.5290 O   0  0  0  0  0  0  0  0  0  0  0  0
    1.1540    8.7410   20.7310 N   0  0  0  0  0  0  0  0  0  0  0  0
    0.3200    9.6540   21.3150 C   0  0  0  0  0  0  0  0  0  0  0  0
   -0.3020   10.6710   20.7840 N   0  0  0  0  0  0  0  0  0  0  0  0
   -1.0390   11.3270   21.7500 C   0  0  0  0  0  0  0  0  0  0  0  0
   -0.9470   10.7800   23.0170 C   0  0  0  0  0  0  0  0  0  0  0  0
    0.0870    9.4110   22.9880 S   0  0  0  0  0  0  0  0  0  0  0  0
    1.5120    8.0190   21.3360 H   0  0  0  0  0  0  0  0  0  0  0  0
   -1.4210   11.1060   23.9310 H   0  0  0  0  0  0  0  0  0  0  0  0
   -1.8300   12.5080   21.3760 C   0  0  0  0  0  0  0  0  0  0  0  0
   -1.6310   13.3120   20.2720 C   0  0  0  0  0  0  0  0  0  0  0  0
   -2.5800   14.2990   20.2920 N   0  0  0  0  0  0  0  0  0  0  0  0
   -3.3960   14.1560   21.3890 C   0  0  0  0  0  0  0  0  0  0  0  0
   -4.4870   14.9320   21.8010 C   0  0  0  0  0  0  0  0  0  0  0  0
   -5.1470   14.5570   22.9740 C   0  0  0  0  0  0  0  0  0  0  0  0
   -4.7310   13.4480   23.7040 C   0  0  0  0  0  0  0  0  0  0  0  0
   -3.6390   12.6830   23.2770 C   0  0  0  0  0  0  0  0  0  0  0  0
   -2.9500   13.0340   22.0950 C   0  0  0  0  0  0  0  0  0  0  0  0
   -0.9010   13.2730   19.4740 H   0  0  0  0  0  0  0  0  0  0  0  0
   -2.6740   15.0330   19.6020 H   0  0  0  0  0  0  0  0  0  0  0  0
   -4.8140   15.7980   21.2350 H   0  0  0  0  0  0  0  0  0  0  0  0
   -5.9980   15.1390   23.3210 H   0  0  0  0  0  0  0  0  0  0  0  0
   -5.2540   13.1670   24.6140 H   0  0  0  0  0  0  0  0  0  0  0  0
   -3.3290   11.8190   23.8610 H   0  0  0  0  0  0  0  0  0  0  0  0
    3.2980    5.4850   19.2700 C   0  0  0  0  0  0  0  0  0  0  0  0
    4.0780    5.6400   18.1250 C   0  0  0  0  0  0  0  0  0  0  0  0
    3.9900    6.8090   17.3670 C   0  0  0  0  0  0  0  0  0  0  0  0
    3.1280    7.8340   17.7590 C   0  0  0  0  0  0  0  0  0  0  0  0
    2.3610    7.6910   18.9230 C   0  0  0  0  0  0  0  0  0  0  0  0
    2.4420    6.5090   19.6730 C   0  0  0  0  0  0  0  0  0  0  0  0
    4.7620    4.8530   17.8110 H   0  0  0  0  0  0  0  0  0  0  0  0
    4.5900    6.9110   16.4650 H   0  0  0  0  0  0  0  0  0  0  0  0
    3.0450    8.7170   17.1300 H   0  0  0  0  0  0  0  0  0  0  0  0
    1.8270    6.4000   20.5630 H   0  0  0  0  0  0  0  0  0  0  0  0
    3.3470    4.2890   20.0410 N   0  0  0  0  0  0  0  0  0  0  0  0
    3.4770    4.3880   21.0490 H   0  0  0  0  0  0  0  0  0  0  0  0
    2.3100    3.0150   19.6630 S   0  0  0  0  0  0  0  0  0  0  0  0
    1.2460    3.4840   18.8050 O   0  0  0  0  0  0  0  0  0  0  0  0
    3.1690    1.9190   19.2630 O   0  0  0  0  0  0  0  0  0  0  0  0
    1.6200    2.5990   21.2540 C   0  0  0  0  0  0  0  0  0  0  0  0
    1.5930    1.5090   21.3310 H   0  0  0  0  0  0  0  0  0  0  0  0
    2.2620    3.0070   22.0370 H   0  0  0  0  0  0  0  0  0  0  0  0
    0.6070    2.9950   21.3250 H   0  0  0  0  0  0  0  0  0  0  0  0
  1  3  1  0  0  0  0
  2  1  2  0  0  0  0
  3  4  1  0  0  0  0
  3  9  1  0  0  0  0
  4  8  1  0  0  0  0
  5  4  2  0  0  0  0
  5  6  1  0  0  0  0
  6  7  2  0  0  0  0
  7 10  1  0  0  0  0
  8  7  1  0  0  0  0
 11  6  1  0  0  0  0
 11 19  1  0  0  0  0
 12 13  1  0  0  0  0
 12 11  2  0  0  0  0
 13 14  1  0  0  0  0
 14 15  2  0  0  0  0
 14 19  1  0  0  0  0
 15 16  1  0  0  0  0
 16 23  1  0  0  0  0
 16 17  2  0  0  0  0
 17 24  1  0  0  0  0
 18 17  1  0  0  0  0
 18 25  1  0  0  0  0
 19 18  2  0  0  0  0
 20 12  1  0  0  0  0
 21 13  1  0  0  0  0
 22 15  1  0  0  0  0
 26 31  1  0  0  0  0
 26 36  1  0  0  0  0
 27 26  2  0  0  0  0
 28 29  2  0  0  0  0
 28 27  1  0  0  0  0
 29 30  1  0  0  0  0
 30  1  1  0  0  0  0
 30 31  2  0  0  0  0
 31 35  1  0  0  0  0
 32 27  1  0  0  0  0
 33 28  1  0  0  0  0
 34 29  1  0  0  0  0
 36 37  1  0  0  0  0
 38 36  1  0  0  0  0
 38 41  1  0  0  0  0
 39 38  2  0  0  0  0
 40 38  2  0  0  0  0
 41 44  1  0  0  0  0
 41 42  1  0  0  0  0
 41 43  1  0  0  0  0
M  END
>  <MODEL>
12

>  <REMARK>
 VINA RESULT:    -7.482      3.652     10.300
 INTER + INTRA:         -10.106
 INTER:                  -9.730
 INTRA:                  -0.376
 UNBOUND:                -0.655
  Name = 
  5 active torsions:
  status: ('A' for Active; 'I' for Inactive)
    1  A    between atoms: C_1  and  S_2
    2  A    between atoms: S_2  and  N_5
    3  A    between atoms: N_5  and  C_6
    4  A    between atoms: C_10  and  C_11
    5  A    between atoms: C_16  and  C_17
                            x       y       z     vdW  Elec       q    Type
                         _______ _______ _______ _____ _____    ______ ____

>  <TORSDO>
F 5

$$$$
=
 OpenBabel07192307433D

 44 47  0  0  0  0  0  0  0  0999 V2000
    1.5350    7.9040   20.3820 C   0  0  0  0  0  0  0  0  0  0  0  0
    2.2070    8.2610   19.4230 O   0  0  0  0  0  0  0  0  0  0  0  0
    1.4690    6.6500   20.9420 N   0  0  0  0  0  0  0  0  0  0  0  0
    2.1500    5.5840   20.4230 C   0  0  0  0  0  0  0  0  0  0  0  0
    2.8910    5.5130   19.3510 N   0  0  0  0  0  0  0  0  0  0  0  0
    3.3850    4.2310   19.2060 C   0  0  0  0  0  0  0  0  0  0  0  0
    2.9900    3.3450   20.1910 C   0  0  0  0  0  0  0  0  0  0  0  0
    1.9770    4.1440   21.3230 S   0  0  0  0  0  0  0  0  0  0  0  0
    0.9700    6.4800   21.8010 H   0  0  0  0  0  0  0  0  0  0  0  0
    3.2360    2.2990   20.3000 H   0  0  0  0  0  0  0  0  0  0  0  0
    4.2540    3.9170   18.0630 C   0  0  0  0  0  0  0  0  0  0  0  0
    4.2310    2.7620   17.3070 C   0  0  0  0  0  0  0  0  0  0  0  0
    5.1970    2.8690   16.3430 N   0  0  0  0  0  0  0  0  0  0  0  0
    5.8540    4.0720   16.4550 C   0  0  0  0  0  0  0  0  0  0  0  0
    6.9010    4.5960   15.6850 C   0  0  0  0  0  0  0  0  0  0  0  0
    7.3870    5.8610   16.0230 C   0  0  0  0  0  0  0  0  0  0  0  0
    6.8440    6.5740   17.0880 C   0  0  0  0  0  0  0  0  0  0  0  0
    5.7970    6.0360   17.8450 C   0  0  0  0  0  0  0  0  0  0  0  0
    5.2820    4.7590   17.5300 C   0  0  0  0  0  0  0  0  0  0  0  0
    3.6160    1.8750   17.3670 H   0  0  0  0  0  0  0  0  0  0  0  0
    5.4070    2.1680   15.6460 H   0  0  0  0  0  0  0  0  0  0  0  0
    7.3270    4.0430   14.8550 H   0  0  0  0  0  0  0  0  0  0  0  0
    8.2000    6.2960   15.4460 H   0  0  0  0  0  0  0  0  0  0  0  0
    7.2310    7.5580   17.3390 H   0  0  0  0  0  0  0  0  0  0  0  0
    5.3860    6.6080   18.6740 H   0  0  0  0  0  0  0  0  0  0  0  0
   -0.6740   10.9140   20.8790 C   0  0  0  0  0  0  0  0  0  0  0  0
   -0.8720   10.9040   22.2580 C   0  0  0  0  0  0  0  0  0  0  0  0
   -0.2950    9.9040   23.0440 C   0  0  0  0  0  0  0  0  0  0  0  0
    0.4930    8.9160   22.4520 C   0  0  0  0  0  0  0  0  0  0  0  0
    0.7140    8.9390   21.0690 C   0  0  0  0  0  0  0  0  0  0  0  0
    0.1210    9.9370   20.2820 C   0  0  0  0  0  0  0  0  0  0  0  0
   -1.4770   11.6720   22.7360 H   0  0  0  0  0  0  0  0  0  0  0  0
   -0.4730    9.8940   24.1180 H   0  0  0  0  0  0  0  0  0  0  0  0
    0.8970    8.1240   23.0780 H   0  0  0  0  0  0  0  0  0  0  0  0
    0.2820    9.9330   19.2070 H   0  0  0  0  0  0  0  0  0  0  0  0
   -1.2770   11.9050   20.0530 N   0  0  0  0  0  0  0  0  0  0  0  0
   -2.2520   12.1420   20.2430 H   0  0  0  0  0  0  0  0  0  0  0  0
   -0.3830   13.2570   19.5890 S   0  0  0  0  0  0  0  0  0  0  0  0
    0.9250   13.2160   20.2050 O   0  0  0  0  0  0  0  0  0  0  0  0
   -0.5330   13.3490   18.1520 O   0  0  0  0  0  0  0  0  0  0  0  0
   -1.3130   14.5970   20.3100 C   0  0  0  0  0  0  0  0  0  0  0  0
   -0.9700   14.7240   21.3400 H   0  0  0  0  0  0  0  0  0  0  0  0
   -1.1190   15.5090   19.7430 H   0  0  0  0  0  0  0  0  0  0  0  0
   -2.3740   14.3450   20.3060 H   0  0  0  0  0  0  0  0  0  0  0  0
  1  3  1  0  0  0  0
  1 30  1  0  0  0  0
  2  1  2  0  0  0  0
  3  9  1  0  0  0  0
  4  3  1  0  0  0  0
  4  8  1  0  0  0  0
  5  4  2  0  0  0  0
  6  5  1  0  0  0  0
  6  7  2  0  0  0  0
  7 10  1  0  0  0  0
  7  8  1  0  0  0  0
 11  6  1  0  0  0  0
 12 20  1  0  0  0  0
 12 11  2  0  0  0  0
 13 14  1  0  0  0  0
 13 12  1  0  0  0  0
 14 19  1  0  0  0  0
 15 16  1  0  0  0  0
 15 14  2  0  0  0  0
 16 17  2  0  0  0  0
 17 24  1  0  0  0  0
 17 18  1  0  0  0  0
 18 25  1  0  0  0  0
 19 18  2  0  0  0  0
 19 11  1  0  0  0  0
 21 13  1  0  0  0  0
 22 15  1  0  0  0  0
 23 16  1  0  0  0  0
 26 27  1  0  0  0  0
 27 32  1  0  0  0  0
 27 28  2  0  0  0  0
 28 33  1  0  0  0  0
 29 28  1  0  0  0  0
 29 34  1  0  0  0  0
 30 29  2  0  0  0  0
 31 26  2  0  0  0  0
 31 30  1  0  0  0  0
 35 31  1  0  0  0  0
 36 37  1  0  0  0  0
 36 26  1  0  0  0  0
 38 36  1  0  0  0  0
 38 39  2  0  0  0  0
 38 41  1  0  0  0  0
 40 38  2  0  0  0  0
 41 42  1  0  0  0  0
 43 41  1  0  0  0  0
 44 41  1  0  0  0  0
M  END
>  <MODEL>
13

>  <REMARK>
 VINA RESULT:    -7.422      2.689      3.373
 INTER + INTRA:         -10.030
 INTER:                  -9.551
 INTRA:                  -0.479
 UNBOUND:                -0.655
  Name = 
  5 active torsions:
  status: ('A' for Active; 'I' for Inactive)
    1  A    between atoms: C_1  and  S_2
    2  A    between atoms: S_2  and  N_5
    3  A    between atoms: N_5  and  C_6
    4  A    between atoms: C_10  and  C_11
    5  A    between atoms: C_16  and  C_17
                            x       y       z     vdW  Elec       q    Type
                         _______ _______ _______ _____ _____    ______ ____

>  <TORSDO>
F 5

$$$$
=
 OpenBabel07192307433D

 44 47  0  0  0  0  0  0  0  0999 V2000
    2.3980    7.6560   18.8610 C   0  0  0  0  0  0  0  0  0  0  0  0
    1.8990    7.2500   19.9030 O   0  0  0  0  0  0  0  0  0  0  0  0
    2.3240    8.9240   18.3330 N   0  0  0  0  0  0  0  0  0  0  0  0
    1.5970    9.9180   18.9260 C   0  0  0  0  0  0  0  0  0  0  0  0
    0.8360    9.8740   19.9850 N   0  0  0  0  0  0  0  0  0  0  0  0
    0.2890   11.1200   20.2230 C   0  0  0  0  0  0  0  0  0  0  0  0
    0.6550   12.0940   19.3130 C   0  0  0  0  0  0  0  0  0  0  0  0
    1.7100   11.4270   18.1350 S   0  0  0  0  0  0  0  0  0  0  0  0
    2.8610    9.1910   17.5240 H   0  0  0  0  0  0  0  0  0  0  0  0
    0.3640   13.1340   19.2810 H   0  0  0  0  0  0  0  0  0  0  0  0
   -0.6040   11.3080   21.3750 C   0  0  0  0  0  0  0  0  0  0  0  0
   -0.4370   10.7750   22.6380 C   0  0  0  0  0  0  0  0  0  0  0  0
   -1.4860   11.1910   23.4130 N   0  0  0  0  0  0  0  0  0  0  0  0
   -2.3370   11.9850   22.6810 C   0  0  0  0  0  0  0  0  0  0  0  0
   -3.5240   12.6210   23.0690 C   0  0  0  0  0  0  0  0  0  0  0  0
   -4.2010   13.3780   22.1090 C   0  0  0  0  0  0  0  0  0  0  0  0
   -3.7060   13.4940   20.8130 C   0  0  0  0  0  0  0  0  0  0  0  0
   -2.5180   12.8530   20.4440 C   0  0  0  0  0  0  0  0  0  0  0  0
   -1.8090   12.0800   21.3900 C   0  0  0  0  0  0  0  0  0  0  0  0
    0.3310   10.1380   23.0550 H   0  0  0  0  0  0  0  0  0  0  0  0
   -1.6240   10.9510   24.3860 H   0  0  0  0  0  0  0  0  0  0  0  0
   -3.9130   12.5320   24.0780 H   0  0  0  0  0  0  0  0  0  0  0  0
   -5.1250   13.8830   22.3780 H   0  0  0  0  0  0  0  0  0  0  0  0
   -4.2420   14.0870   20.0770 H   0  0  0  0  0  0  0  0  0  0  0  0
   -2.1470   12.9550   19.4260 H   0  0  0  0  0  0  0  0  0  0  0  0
    3.6070    4.4070   17.3890 C   0  0  0  0  0  0  0  0  0  0  0  0
    4.6780    4.8260   16.6020 C   0  0  0  0  0  0  0  0  0  0  0  0
    5.0120    6.1800   16.5320 C   0  0  0  0  0  0  0  0  0  0  0  0
    4.2810    7.1200   17.2600 C   0  0  0  0  0  0  0  0  0  0  0  0
    3.2200    6.6970   18.0720 C   0  0  0  0  0  0  0  0  0  0  0  0
    2.8790    5.3380   18.1280 C   0  0  0  0  0  0  0  0  0  0  0  0
    5.2630    4.1050   16.0340 H   0  0  0  0  0  0  0  0  0  0  0  0
    5.8370    6.4980   15.8990 H   0  0  0  0  0  0  0  0  0  0  0  0
    4.5320    8.1720   17.1580 H   0  0  0  0  0  0  0  0  0  0  0  0
    2.0410    5.0240   18.7450 H   0  0  0  0  0  0  0  0  0  0  0  0
    3.2290    3.0360   17.4510 N   0  0  0  0  0  0  0  0  0  0  0  0
    3.3700    2.4730   16.6120 H   0  0  0  0  0  0  0  0  0  0  0  0
    3.5310    2.1530   18.8570 S   0  0  0  0  0  0  0  0  0  0  0  0
    3.8560    0.7860   18.5180 O   0  0  0  0  0  0  0  0  0  0  0  0
    4.4350    2.9680   19.6410 O   0  0  0  0  0  0  0  0  0  0  0  0
    1.9450    2.1790   19.6720 C   0  0  0  0  0  0  0  0  0  0  0  0
    2.1230    2.1300   20.7490 H   0  0  0  0  0  0  0  0  0  0  0  0
    1.4340    3.1110   19.4260 H   0  0  0  0  0  0  0  0  0  0  0  0
    1.3620    1.3120   19.3580 H   0  0  0  0  0  0  0  0  0  0  0  0
  1  2  2  0  0  0  0
  3  1  1  0  0  0  0
  3  4  1  0  0  0  0
  4  5  2  0  0  0  0
  5  6  1  0  0  0  0
  6 11  1  0  0  0  0
  7  6  2  0  0  0  0
  8  4  1  0  0  0  0
  8  7  1  0  0  0  0
  9  3  1  0  0  0  0
 10  7  1  0  0  0  0
 11 19  1  0  0  0  0
 11 12  2  0  0  0  0
 12 20  1  0  0  0  0
 12 13  1  0  0  0  0
 13 21  1  0  0  0  0
 14 15  1  0  0  0  0
 14 13  1  0  0  0  0
 15 22  1  0  0  0  0
 16 23  1  0  0  0  0
 16 15  2  0  0  0  0
 17 16  1  0  0  0  0
 18 17  2  0  0  0  0
 18 19  1  0  0  0  0
 19 14  2  0  0  0  0
 24 17  1  0  0  0  0
 25 18  1  0  0  0  0
 26 36  1  0  0  0  0
 26 31  1  0  0  0  0
 27 26  2  0  0  0  0
 28 27  1  0  0  0  0
 28 29  2  0  0  0  0
 29 30  1  0  0  0  0
 30 31  2  0  0  0  0
 30  1  1  0  0  0  0
 31 35  1  0  0  0  0
 32 27  1  0  0  0  0
 33 28  1  0  0  0  0
 34 29  1  0  0  0  0
 36 38  1  0  0  0  0
 37 36  1  0  0  0  0
 38 40  2  0  0  0  0
 38 41  1  0  0  0  0
 39 38  2  0  0  0  0
 41 42  1  0  0  0  0
 43 41  1  0  0  0  0
 44 41  1  0  0  0  0
M  END
>  <MODEL>
14

>  <REMARK>
 VINA RESULT:    -7.372      3.463      9.916
 INTER + INTRA:          -9.967
 INTER:                  -9.624
 INTRA:                  -0.343
 UNBOUND:                -0.655
  Name = 
  5 active torsions:
  status: ('A' for Active; 'I' for Inactive)
    1  A    between atoms: C_1  and  S_2
    2  A    between atoms: S_2  and  N_5
    3  A    between atoms: N_5  and  C_6
    4  A    between atoms: C_10  and  C_11
    5  A    between atoms: C_16  and  C_17
                            x       y       z     vdW  Elec       q    Type
                         _______ _______ _______ _____ _____    ______ ____

>  <TORSDO>
F 5

$$$$
=
 OpenBabel07192307433D

 44 47  0  0  0  0  0  0  0  0999 V2000
    1.5220    9.2380   18.6780 C   0  0  0  0  0  0  0  0  0  0  0  0
    1.1320    8.5130   19.5850 O   0  0  0  0  0  0  0  0  0  0  0  0
    2.4630    8.9490   17.7180 N   0  0  0  0  0  0  0  0  0  0  0  0
    3.1470    7.7650   17.7010 C   0  0  0  0  0  0  0  0  0  0  0  0
    3.1080    6.7700   18.5450 N   0  0  0  0  0  0  0  0  0  0  0  0
    3.9720    5.7730   18.1350 C   0  0  0  0  0  0  0  0  0  0  0  0
    4.6610    6.0500   16.9690 C   0  0  0  0  0  0  0  0  0  0  0  0
    4.2100    7.5960   16.3770 S   0  0  0  0  0  0  0  0  0  0  0  0
    2.6370    9.5710   16.9440 H   0  0  0  0  0  0  0  0  0  0  0  0
    5.3860    5.4400   16.4500 H   0  0  0  0  0  0  0  0  0  0  0  0
    4.0900    4.5470   18.9360 C   0  0  0  0  0  0  0  0  0  0  0  0
    5.1780    3.6980   18.9820 C   0  0  0  0  0  0  0  0  0  0  0  0
    4.8820    2.6790   19.8470 N   0  0  0  0  0  0  0  0  0  0  0  0
    3.6200    2.8440   20.3680 C   0  0  0  0  0  0  0  0  0  0  0  0
    2.9180    2.0480   21.2820 C   0  0  0  0  0  0  0  0  0  0  0  0
    1.6310    2.4540   21.6440 C   0  0  0  0  0  0  0  0  0  0  0  0
    1.0710    3.6120   21.1120 C   0  0  0  0  0  0  0  0  0  0  0  0
    1.7890    4.3960   20.2010 C   0  0  0  0  0  0  0  0  0  0  0  0
    3.0920    4.0140   19.8140 C   0  0  0  0  0  0  0  0  0  0  0  0
    6.1350    3.7270   18.4790 H   0  0  0  0  0  0  0  0  0  0  0  0
    5.4980    1.9100   20.0760 H   0  0  0  0  0  0  0  0  0  0  0  0
    3.3500    1.1450   21.6980 H   0  0  0  0  0  0  0  0  0  0  0  0
    1.0590    1.8580   22.3510 H   0  0  0  0  0  0  0  0  0  0  0  0
    0.0700    3.9170   21.4030 H   0  0  0  0  0  0  0  0  0  0  0  0
    1.3350    5.2980   19.7960 H   0  0  0  0  0  0  0  0  0  0  0  0
   -1.1420   11.8800   18.3490 C   0  0  0  0  0  0  0  0  0  0  0  0
   -0.3880   13.0530   18.3460 C   0  0  0  0  0  0  0  0  0  0  0  0
    1.0020   12.9950   18.4630 C   0  0  0  0  0  0  0  0  0  0  0  0
    1.6450   11.7620   18.5730 C   0  0  0  0  0  0  0  0  0  0  0  0
    0.8910   10.5800   18.5510 C   0  0  0  0  0  0  0  0  0  0  0  0
   -0.5060   10.6440   18.4480 C   0  0  0  0  0  0  0  0  0  0  0  0
   -0.8740   14.0230   18.2520 H   0  0  0  0  0  0  0  0  0  0  0  0
    1.5790   13.9180   18.4800 H   0  0  0  0  0  0  0  0  0  0  0  0
    2.7240   11.7440   18.7060 H   0  0  0  0  0  0  0  0  0  0  0  0
   -1.0820    9.7220   18.4530 H   0  0  0  0  0  0  0  0  0  0  0  0
   -2.5630   11.9150   18.2620 N   0  0  0  0  0  0  0  0  0  0  0  0
   -3.0180   12.8190   18.3990 H   0  0  0  0  0  0  0  0  0  0  0  0
   -3.3460   10.9890   17.0910 S   0  0  0  0  0  0  0  0  0  0  0  0
   -2.6510   11.1030   15.8280 O   0  0  0  0  0  0  0  0  0  0  0  0
   -3.5790    9.6990   17.7060 O   0  0  0  0  0  0  0  0  0  0  0  0
   -4.9250   11.8070   16.9500 C   0  0  0  0  0  0  0  0  0  0  0  0
   -5.4080   11.7690   17.9300 H   0  0  0  0  0  0  0  0  0  0  0  0
   -4.7620   12.8460   16.6590 H   0  0  0  0  0  0  0  0  0  0  0  0
   -5.5410   11.2820   16.2190 H   0  0  0  0  0  0  0  0  0  0  0  0
  1  2  2  0  0  0  0
  3  1  1  0  0  0  0
  4  3  1  0  0  0  0
  4  5  2  0  0  0  0
  6  5  1  0  0  0  0
  6 11  1  0  0  0  0
  7  6  2  0  0  0  0
  8  7  1  0  0  0  0
  8  4  1  0  0  0  0
  9  3  1  0  0  0  0
 10  7  1  0  0  0  0
 11 12  2  0  0  0  0
 11 19  1  0  0  0  0
 12 13  1  0  0  0  0
 13 21  1  0  0  0  0
 13 14  1  0  0  0  0
 14 15  1  0  0  0  0
 15 16  2  0  0  0  0
 15 22  1  0  0  0  0
 16 23  1  0  0  0  0
 17 24  1  0  0  0  0
 17 16  1  0  0  0  0
 18 17  2  0  0  0  0
 19 18  1  0  0  0  0
 19 14  2  0  0  0  0
 20 12  1  0  0  0  0
 25 18  1  0  0  0  0
 26 31  1  0  0  0  0
 27 26  2  0  0  0  0
 27 28  1  0  0  0  0
 28 33  1  0  0  0  0
 28 29  2  0  0  0  0
 29 34  1  0  0  0  0
 30 29  1  0  0  0  0
 30  1  1  0  0  0  0
 31 35  1  0  0  0  0
 31 30  2  0  0  0  0
 32 27  1  0  0  0  0
 36 26  1  0  0  0  0
 36 37  1  0  0  0  0
 38 40  2  0  0  0  0
 38 36  1  0  0  0  0
 39 38  2  0  0  0  0
 41 38  1  0  0  0  0
 41 42  1  0  0  0  0
 43 41  1  0  0  0  0
 44 41  1  0  0  0  0
M  END
>  <MODEL>
15

>  <REMARK>
 VINA RESULT:    -7.365      2.410      4.122
 INTER + INTRA:          -9.958
 INTER:                  -9.631
 INTRA:                  -0.327
 UNBOUND:                -0.655
  Name = 
  5 active torsions:
  status: ('A' for Active; 'I' for Inactive)
    1  A    between atoms: C_1  and  S_2
    2  A    between atoms: S_2  and  N_5
    3  A    between atoms: N_5  and  C_6
    4  A    between atoms: C_10  and  C_11
    5  A    between atoms: C_16  and  C_17
                            x       y       z     vdW  Elec       q    Type
                         _______ _______ _______ _____ _____    ______ ____

>  <TORSDO>
F 5

$$$$
=
 OpenBabel07192307433D

 44 47  0  0  0  0  0  0  0  0999 V2000
    0.1280    9.4270   21.0530 C   0  0  0  0  0  0  0  0  0  0  0  0
    0.1590    8.3830   21.6920 O   0  0  0  0  0  0  0  0  0  0  0  0
    0.7570    9.7010   19.8620 N   0  0  0  0  0  0  0  0  0  0  0  0
    1.5820    8.7990   19.2490 C   0  0  0  0  0  0  0  0  0  0  0  0
    1.9660    7.6180   19.6490 N   0  0  0  0  0  0  0  0  0  0  0  0
    2.8070    7.0540   18.7090 C   0  0  0  0  0  0  0  0  0  0  0  0
    3.0470    7.8450   17.6010 C   0  0  0  0  0  0  0  0  0  0  0  0
    2.1940    9.3280   17.7460 S   0  0  0  0  0  0  0  0  0  0  0  0
    0.5810   10.5540   19.3550 H   0  0  0  0  0  0  0  0  0  0  0  0
    3.6620    7.6340   16.7390 H   0  0  0  0  0  0  0  0  0  0  0  0
    3.3620    5.7140   18.9490 C   0  0  0  0  0  0  0  0  0  0  0  0
    4.6770    5.4110   19.2370 C   0  0  0  0  0  0  0  0  0  0  0  0
    4.7730    4.0530   19.3880 N   0  0  0  0  0  0  0  0  0  0  0  0
    3.5460    3.4630   19.2040 C   0  0  0  0  0  0  0  0  0  0  0  0
    3.1840    2.1100   19.2650 C   0  0  0  0  0  0  0  0  0  0  0  0
    1.8460    1.7830   19.0320 C   0  0  0  0  0  0  0  0  0  0  0  0
    0.9070    2.7720   18.7500 C   0  0  0  0  0  0  0  0  0  0  0  0
    1.2870    4.1180   18.6940 C   0  0  0  0  0  0  0  0  0  0  0  0
    2.6310    4.4830   18.9250 C   0  0  0  0  0  0  0  0  0  0  0  0
    5.5530    6.0360   19.3470 H   0  0  0  0  0  0  0  0  0  0  0  0
    5.6230    3.5490   19.6040 H   0  0  0  0  0  0  0  0  0  0  0  0
    3.9120    1.3370   19.4840 H   0  0  0  0  0  0  0  0  0  0  0  0
    1.5330    0.7430   19.0720 H   0  0  0  0  0  0  0  0  0  0  0  0
   -0.1300    2.5040   18.5720 H   0  0  0  0  0  0  0  0  0  0  0  0
    0.5390    4.8770   18.4730 H   0  0  0  0  0  0  0  0  0  0  0  0
   -2.2480   12.3490   21.1170 C   0  0  0  0  0  0  0  0  0  0  0  0
   -2.3560   12.6050   22.4820 C   0  0  0  0  0  0  0  0  0  0  0  0
   -1.6600   11.8180   23.4020 C   0  0  0  0  0  0  0  0  0  0  0  0
   -0.8460   10.7760   22.9580 C   0  0  0  0  0  0  0  0  0  0  0  0
   -0.7170   10.5320   21.5830 C   0  0  0  0  0  0  0  0  0  0  0  0
   -1.4280   11.3160   20.6640 C   0  0  0  0  0  0  0  0  0  0  0  0
   -2.9800   13.4200   22.8450 H   0  0  0  0  0  0  0  0  0  0  0  0
   -1.7670   12.0140   24.4670 H   0  0  0  0  0  0  0  0  0  0  0  0
   -0.3480   10.1500   23.6940 H   0  0  0  0  0  0  0  0  0  0  0  0
   -1.3370   11.1050   19.6010 H   0  0  0  0  0  0  0  0  0  0  0  0
   -2.9720   13.1180   20.1620 N   0  0  0  0  0  0  0  0  0  0  0  0
   -2.5450   13.2450   19.2430 H   0  0  0  0  0  0  0  0  0  0  0  0
   -4.6470   12.9500   20.0570 S   0  0  0  0  0  0  0  0  0  0  0  0
   -5.1450   12.2630   21.2270 O   0  0  0  0  0  0  0  0  0  0  0  0
   -5.1470   14.2570   19.6840 O   0  0  0  0  0  0  0  0  0  0  0  0
   -4.8360   11.8820   18.6420 C   0  0  0  0  0  0  0  0  0  0  0  0
   -4.4390   10.9000   18.9100 H   0  0  0  0  0  0  0  0  0  0  0  0
   -5.8970   11.7970   18.4010 H   0  0  0  0  0  0  0  0  0  0  0  0
   -4.2700   12.2880   17.8020 H   0  0  0  0  0  0  0  0  0  0  0  0
  1 30  1  0  0  0  0
  1  2  2  0  0  0  0
  3  1  1  0  0  0  0
  4  5  2  0  0  0  0
  4  3  1  0  0  0  0
  6 11  1  0  0  0  0
  6  5  1  0  0  0  0
  7  8  1  0  0  0  0
  7  6  2  0  0  0  0
  8  4  1  0  0  0  0
  9  3  1  0  0  0  0
 10  7  1  0  0  0  0
 11 12  2  0  0  0  0
 12 20  1  0  0  0  0
 12 13  1  0  0  0  0
 13 21  1  0  0  0  0
 14 15  1  0  0  0  0
 14 13  1  0  0  0  0
 15 22  1  0  0  0  0
 16 23  1  0  0  0  0
 16 15  2  0  0  0  0
 17 16  1  0  0  0  0
 18 17  2  0  0  0  0
 18 19  1  0  0  0  0
 19 11  1  0  0  0  0
 19 14  2  0  0  0  0
 24 17  1  0  0  0  0
 25 18  1  0  0  0  0
 26 27  1  0  0  0  0
 27 32  1  0  0  0  0
 27 28  2  0  0  0  0
 28 33  1  0  0  0  0
 29 28  1  0  0  0  0
 29 34  1  0  0  0  0
 30 29  2  0  0  0  0
 31 26  2  0  0  0  0
 31 30  1  0  0  0  0
 35 31  1  0  0  0  0
 36 26  1  0  0  0  0
 37 36  1  0  0  0  0
 38 36  1  0  0  0  0
 38 39  2  0  0  0  0
 40 38  2  0  0  0  0
 41 42  1  0  0  0  0
 41 38  1  0  0  0  0
 43 41  1  0  0  0  0
 44 41  1  0  0  0  0
M  END
>  <MODEL>
16

>  <REMARK>
 VINA RESULT:    -7.329      3.461      4.079
 INTER + INTRA:          -9.912
 INTER:                  -9.489
 INTRA:                  -0.422
 UNBOUND:                -0.655
  Name = 
  5 active torsions:
  status: ('A' for Active; 'I' for Inactive)
    1  A    between atoms: C_1  and  S_2
    2  A    between atoms: S_2  and  N_5
    3  A    between atoms: N_5  and  C_6
    4  A    between atoms: C_10  and  C_11
    5  A    between atoms: C_16  and  C_17
                            x       y       z     vdW  Elec       q    Type
                         _______ _______ _______ _____ _____    ______ ____

>  <TORSDO>
F 5

$$$$
=
 OpenBabel07192307433D

 44 47  0  0  0  0  0  0  0  0999 V2000
    0.7250    9.3890   20.1300 C   0  0  0  0  0  0  0  0  0  0  0  0
    0.4010    9.1770   21.2920 O   0  0  0  0  0  0  0  0  0  0  0  0
    0.3700   10.4570   19.3410 N   0  0  0  0  0  0  0  0  0  0  0  0
   -0.4800   11.4350   19.7780 C   0  0  0  0  0  0  0  0  0  0  0  0
   -1.1270   11.5310   20.9080 N   0  0  0  0  0  0  0  0  0  0  0  0
   -1.8770   12.6910   20.9230 C   0  0  0  0  0  0  0  0  0  0  0  0
   -1.7790   13.4560   19.7760 C   0  0  0  0  0  0  0  0  0  0  0  0
   -0.7200   12.7000   18.6570 S   0  0  0  0  0  0  0  0  0  0  0  0
    0.7770   10.6010   18.4300 H   0  0  0  0  0  0  0  0  0  0  0  0
   -2.2620   14.3940   19.5440 H   0  0  0  0  0  0  0  0  0  0  0  0
   -2.6890   13.0090   22.1050 C   0  0  0  0  0  0  0  0  0  0  0  0
   -3.9790   12.5830   22.3540 C   0  0  0  0  0  0  0  0  0  0  0  0
   -4.3690   13.1010   23.5590 N   0  0  0  0  0  0  0  0  0  0  0  0
   -3.3600   13.8590   24.1050 C   0  0  0  0  0  0  0  0  0  0  0  0
   -3.3240   14.5660   25.3140 C   0  0  0  0  0  0  0  0  0  0  0  0
   -2.1540   15.2620   25.6260 C   0  0  0  0  0  0  0  0  0  0  0  0
   -1.0630   15.2490   24.7620 C   0  0  0  0  0  0  0  0  0  0  0  0
   -1.1160   14.5360   23.5580 C   0  0  0  0  0  0  0  0  0  0  0  0
   -2.2840   13.8210   23.2120 C   0  0  0  0  0  0  0  0  0  0  0  0
   -4.6540   11.9600   21.7830 H   0  0  0  0  0  0  0  0  0  0  0  0
   -5.2700   12.9530   23.9940 H   0  0  0  0  0  0  0  0  0  0  0  0
   -4.1720   14.5780   25.9900 H   0  0  0  0  0  0  0  0  0  0  0  0
   -2.0940   15.8210   26.5570 H   0  0  0  0  0  0  0  0  0  0  0  0
   -0.1590   15.7940   25.0170 H   0  0  0  0  0  0  0  0  0  0  0  0
   -0.2540   14.5380   22.8950 H   0  0  0  0  0  0  0  0  0  0  0  0
    2.8150    6.2970   19.6200 C   0  0  0  0  0  0  0  0  0  0  0  0
    3.3300    6.5030   18.3420 C   0  0  0  0  0  0  0  0  0  0  0  0
    2.9910    7.6520   17.6240 C   0  0  0  0  0  0  0  0  0  0  0  0
    2.1420    8.6050   18.1880 C   0  0  0  0  0  0  0  0  0  0  0  0
    1.6430    8.4120   19.4830 C   0  0  0  0  0  0  0  0  0  0  0  0
    1.9750    7.2500   20.1950 C   0  0  0  0  0  0  0  0  0  0  0  0
    4.0000    5.7730   17.8910 H   0  0  0  0  0  0  0  0  0  0  0  0
    3.3830    7.7920   16.6190 H   0  0  0  0  0  0  0  0  0  0  0  0
    1.8590    9.4700   17.5940 H   0  0  0  0  0  0  0  0  0  0  0  0
    1.5660    7.1010   21.1910 H   0  0  0  0  0  0  0  0  0  0  0  0
    3.1210    5.1190   20.3590 N   0  0  0  0  0  0  0  0  0  0  0  0
    3.2110    5.2120   21.3720 H   0  0  0  0  0  0  0  0  0  0  0  0
    2.4040    3.6560   19.9240 S   0  0  0  0  0  0  0  0  0  0  0  0
    1.1280    3.9030   19.2910 O   0  0  0  0  0  0  0  0  0  0  0  0
    3.4400    2.8990   19.2530 O   0  0  0  0  0  0  0  0  0  0  0  0
    2.1180    2.8850   21.5060 C   0  0  0  0  0  0  0  0  0  0  0  0
    3.0640    2.8840   22.0530 H   0  0  0  0  0  0  0  0  0  0  0  0
    1.3760    3.4670   22.0560 H   0  0  0  0  0  0  0  0  0  0  0  0
    1.7830    1.8580   21.3540 H   0  0  0  0  0  0  0  0  0  0  0  0
  1  2  2  0  0  0  0
  3  4  1  0  0  0  0
  3  1  1  0  0  0  0
  4  5  2  0  0  0  0
  5  6  1  0  0  0  0
  6 11  1  0  0  0  0
  7  6  2  0  0  0  0
  8  7  1  0  0  0  0
  8  4  1  0  0  0  0
  9  3  1  0  0  0  0
 10  7  1  0  0  0  0
 11 12  2  0  0  0  0
 11 19  1  0  0  0  0
 12 13  1  0  0  0  0
 13 21  1  0  0  0  0
 13 14  1  0  0  0  0
 14 15  1  0  0  0  0
 15 16  2  0  0  0  0
 15 22  1  0  0  0  0
 16 23  1  0  0  0  0
 17 24  1  0  0  0  0
 17 16  1  0  0  0  0
 18 17  2  0  0  0  0
 19 18  1  0  0  0  0
 19 14  2  0  0  0  0
 20 12  1  0  0  0  0
 25 18  1  0  0  0  0
 26 31  1  0  0  0  0
 26 36  1  0  0  0  0
 27 26  2  0  0  0  0
 28 29  2  0  0  0  0
 28 27  1  0  0  0  0
 29 30  1  0  0  0  0
 30  1  1  0  0  0  0
 30 31  2  0  0  0  0
 31 35  1  0  0  0  0
 32 27  1  0  0  0  0
 33 28  1  0  0  0  0
 34 29  1  0  0  0  0
 36 37  1  0  0  0  0
 38 36  1  0  0  0  0
 38 41  1  0  0  0  0
 39 38  2  0  0  0  0
 40 38  2  0  0  0  0
 41 42  1  0  0  0  0
 41 43  1  0  0  0  0
 44 41  1  0  0  0  0
M  END
>  <MODEL>
17

>  <REMARK>
 VINA RESULT:    -7.281      3.891     10.740
 INTER + INTRA:          -9.851
 INTER:                  -9.208
 INTRA:                  -0.643
 UNBOUND:                -0.655
  Name = 
  5 active torsions:
  status: ('A' for Active; 'I' for Inactive)
    1  A    between atoms: C_1  and  S_2
    2  A    between atoms: S_2  and  N_5
    3  A    between atoms: N_5  and  C_6
    4  A    between atoms: C_10  and  C_11
    5  A    between atoms: C_16  and  C_17
                            x       y       z     vdW  Elec       q    Type
                         _______ _______ _______ _____ _____    ______ ____

>  <TORSDO>
F 5

$$$$
=
 OpenBabel07192307433D

 44 47  0  0  0  0  0  0  0  0999 V2000
    1.6010    9.8990   18.5580 C   0  0  0  0  0  0  0  0  0  0  0  0
    2.3290    9.6570   17.6030 O   0  0  0  0  0  0  0  0  0  0  0  0
    1.2890    9.0690   19.6080 N   0  0  0  0  0  0  0  0  0  0  0  0
    1.7430    7.7810   19.6790 C   0  0  0  0  0  0  0  0  0  0  0  0
    2.4530    7.1010   18.8200 N   0  0  0  0  0  0  0  0  0  0  0  0
    2.6820    5.8280   19.3030 C   0  0  0  0  0  0  0  0  0  0  0  0
    2.1210    5.5700   20.5400 C   0  0  0  0  0  0  0  0  0  0  0  0
    1.2910    6.9620   21.1060 S   0  0  0  0  0  0  0  0  0  0  0  0
    0.7690    9.3980   20.4060 H   0  0  0  0  0  0  0  0  0  0  0  0
    2.1550    4.6620   21.1230 H   0  0  0  0  0  0  0  0  0  0  0  0
    3.4680    4.8820   18.4990 C   0  0  0  0  0  0  0  0  0  0  0  0
    3.5800    3.5220   18.7090 C   0  0  0  0  0  0  0  0  0  0  0  0
    4.4020    3.0110   17.7410 N   0  0  0  0  0  0  0  0  0  0  0  0
    4.8330    4.0120   16.9020 C   0  0  0  0  0  0  0  0  0  0  0  0
    5.6780    3.9440   15.7870 C   0  0  0  0  0  0  0  0  0  0  0  0
    5.9540    5.1320   15.1060 C   0  0  0  0  0  0  0  0  0  0  0  0
    5.4040    6.3400   15.5250 C   0  0  0  0  0  0  0  0  0  0  0  0
    4.5610    6.3890   16.6410 C   0  0  0  0  0  0  0  0  0  0  0  0
    4.2610    5.2060   17.3520 C   0  0  0  0  0  0  0  0  0  0  0  0
    3.1490    2.8710   19.4580 H   0  0  0  0  0  0  0  0  0  0  0  0
    4.6630    2.0380   17.6490 H   0  0  0  0  0  0  0  0  0  0  0  0
    6.1090    3.0050   15.4570 H   0  0  0  0  0  0  0  0  0  0  0  0
    6.6070    5.1130   14.2360 H   0  0  0  0  0  0  0  0  0  0  0  0
    5.6270    7.2560   14.9860 H   0  0  0  0  0  0  0  0  0  0  0  0
    4.1400    7.3420   16.9540 H   0  0  0  0  0  0  0  0  0  0  0  0
   -0.9810   12.6160   18.9300 C   0  0  0  0  0  0  0  0  0  0  0  0
   -0.2040   13.7690   18.8370 C   0  0  0  0  0  0  0  0  0  0  0  0
    1.1780   13.6730   18.6620 C   0  0  0  0  0  0  0  0  0  0  0  0
    1.7870   12.4210   18.5700 C   0  0  0  0  0  0  0  0  0  0  0  0
    1.0040   11.2610   18.6380 C   0  0  0  0  0  0  0  0  0  0  0  0
   -0.3810   11.3620   18.8280 C   0  0  0  0  0  0  0  0  0  0  0  0
   -0.6650   14.7530   18.8990 H   0  0  0  0  0  0  0  0  0  0  0  0
    1.7770   14.5800   18.6100 H   0  0  0  0  0  0  0  0  0  0  0  0
    2.8690   12.3710   18.4760 H   0  0  0  0  0  0  0  0  0  0  0  0
   -0.9760   10.4540   18.9000 H   0  0  0  0  0  0  0  0  0  0  0  0
   -2.3880   12.6880   19.1390 N   0  0  0  0  0  0  0  0  0  0  0  0
   -2.9660   11.9830   18.6800 H   0  0  0  0  0  0  0  0  0  0  0  0
   -2.9800   13.0870   20.6670 S   0  0  0  0  0  0  0  0  0  0  0  0
   -2.3560   12.2540   21.6700 O   0  0  0  0  0  0  0  0  0  0  0  0
   -2.9150   14.5320   20.7450 O   0  0  0  0  0  0  0  0  0  0  0  0
   -4.7010   12.6360   20.5390 C   0  0  0  0  0  0  0  0  0  0  0  0
   -5.0700   12.4420   21.5490 H   0  0  0  0  0  0  0  0  0  0  0  0
   -5.2540   13.4680   20.0990 H   0  0  0  0  0  0  0  0  0  0  0  0
   -4.7950   11.7330   19.9350 H   0  0  0  0  0  0  0  0  0  0  0  0
  1 30  1  0  0  0  0
  1  3  1  0  0  0  0
  2  1  2  0  0  0  0
  3  4  1  0  0  0  0
  3  9  1  0  0  0  0
  4  8  1  0  0  0  0
  5  6  1  0  0  0  0
  5  4  2  0  0  0  0
  6  7  2  0  0  0  0
  7  8  1  0  0  0  0
  7 10  1  0  0  0  0
 11 12  2  0  0  0  0
 11  6  1  0  0  0  0
 12 20  1  0  0  0  0
 13 12  1  0  0  0  0
 14 19  1  0  0  0  0
 14 13  1  0  0  0  0
 15 14  2  0  0  0  0
 16 17  2  0  0  0  0
 16 15  1  0  0  0  0
 17 18  1  0  0  0  0
 18 25  1  0  0  0  0
 18 19  2  0  0  0  0
 19 11  1  0  0  0  0
 21 13  1  0  0  0  0
 22 15  1  0  0  0  0
 23 16  1  0  0  0  0
 24 17  1  0  0  0  0
 26 36  1  0  0  0  0
 27 32  1  0  0  0  0
 27 26  1  0  0  0  0
 28 27  2  0  0  0  0
 29 30  2  0  0  0  0
 29 28  1  0  0  0  0
 30 31  1  0  0  0  0
 31 35  1  0  0  0  0
 31 26  2  0  0  0  0
 33 28  1  0  0  0  0
 34 29  1  0  0  0  0
 36 38  1  0  0  0  0
 37 36  1  0  0  0  0
 38 40  2  0  0  0  0
 38 39  2  0  0  0  0
 41 38  1  0  0  0  0
 41 42  1  0  0  0  0
 43 41  1  0  0  0  0
 44 41  1  0  0  0  0
M  END
>  <MODEL>
18

>  <REMARK>
 VINA RESULT:    -7.257      2.444      3.056
 INTER + INTRA:          -9.821
 INTER:                  -9.470
 INTRA:                  -0.351
 UNBOUND:                -0.655
  Name = 
  5 active torsions:
  status: ('A' for Active; 'I' for Inactive)
    1  A    between atoms: C_1  and  S_2
    2  A    between atoms: S_2  and  N_5
    3  A    between atoms: N_5  and  C_6
    4  A    between atoms: C_10  and  C_11
    5  A    between atoms: C_16  and  C_17
                            x       y       z     vdW  Elec       q    Type
                         _______ _______ _______ _____ _____    ______ ____

>  <TORSDO>
F 5

$$$$
=
 OpenBabel07192307433D

 44 47  0  0  0  0  0  0  0  0999 V2000
    2.3900    7.5450   18.4970 C   0  0  0  0  0  0  0  0  0  0  0  0
    1.7160    7.7660   17.4980 O   0  0  0  0  0  0  0  0  0  0  0  0
    2.1810    8.0180   19.7710 N   0  0  0  0  0  0  0  0  0  0  0  0
    1.1640    8.8820   20.0700 C   0  0  0  0  0  0  0  0  0  0  0  0
    0.2900    9.4430   19.2800 N   0  0  0  0  0  0  0  0  0  0  0  0
   -0.5560   10.2500   20.0150 C   0  0  0  0  0  0  0  0  0  0  0  0
   -0.2900   10.2840   21.3710 C   0  0  0  0  0  0  0  0  0  0  0  0
    1.0530    9.2760   21.7270 S   0  0  0  0  0  0  0  0  0  0  0  0
    2.7280    7.6910   20.5520 H   0  0  0  0  0  0  0  0  0  0  0  0
   -0.8000   10.8320   22.1490 H   0  0  0  0  0  0  0  0  0  0  0  0
   -1.6290   10.9840   19.3290 C   0  0  0  0  0  0  0  0  0  0  0  0
   -2.2980   12.0940   19.8050 C   0  0  0  0  0  0  0  0  0  0  0  0
   -3.2180   12.4680   18.8630 N   0  0  0  0  0  0  0  0  0  0  0  0
   -3.1650   11.6230   17.7800 C   0  0  0  0  0  0  0  0  0  0  0  0
   -3.9180   11.6330   16.5980 C   0  0  0  0  0  0  0  0  0  0  0  0
   -3.6540   10.6420   15.6490 C   0  0  0  0  0  0  0  0  0  0  0  0
   -2.6730    9.6800   15.8750 C   0  0  0  0  0  0  0  0  0  0  0  0
   -1.9300    9.6870   17.0610 C   0  0  0  0  0  0  0  0  0  0  0  0
   -2.1720   10.6750   18.0410 C   0  0  0  0  0  0  0  0  0  0  0  0
   -2.2040   12.6510   20.7270 H   0  0  0  0  0  0  0  0  0  0  0  0
   -3.8520   13.2520   18.9440 H   0  0  0  0  0  0  0  0  0  0  0  0
   -4.6830   12.3810   16.4190 H   0  0  0  0  0  0  0  0  0  0  0  0
   -4.2210   10.6220   14.7220 H   0  0  0  0  0  0  0  0  0  0  0  0
   -2.4770    8.9160   15.1290 H   0  0  0  0  0  0  0  0  0  0  0  0
   -1.1680    8.9270   17.2200 H   0  0  0  0  0  0  0  0  0  0  0  0
    5.3920    5.8480   16.9820 C   0  0  0  0  0  0  0  0  0  0  0  0
    5.7750    4.9750   17.9990 C   0  0  0  0  0  0  0  0  0  0  0  0
    5.0620    4.9380   19.1990 C   0  0  0  0  0  0  0  0  0  0  0  0
    3.9560    5.7690   19.3830 C   0  0  0  0  0  0  0  0  0  0  0  0
    3.5540    6.6290   18.3520 C   0  0  0  0  0  0  0  0  0  0  0  0
    4.2810    6.6730   17.1540 C   0  0  0  0  0  0  0  0  0  0  0  0
    6.6300    4.3150   17.8680 H   0  0  0  0  0  0  0  0  0  0  0  0
    5.3820    4.2670   19.9930 H   0  0  0  0  0  0  0  0  0  0  0  0
    3.4430    5.7520   20.3400 H   0  0  0  0  0  0  0  0  0  0  0  0
    3.9730    7.3600   16.3690 H   0  0  0  0  0  0  0  0  0  0  0  0
    6.1210    5.9270   15.7620 N   0  0  0  0  0  0  0  0  0  0  0  0
    6.9800    6.4790   15.7640 H   0  0  0  0  0  0  0  0  0  0  0  0
    6.2600    4.5570   14.7880 S   0  0  0  0  0  0  0  0  0  0  0  0
    6.7980    3.4580   15.5580 O   0  0  0  0  0  0  0  0  0  0  0  0
    4.9910    4.4390   14.0990 O   0  0  0  0  0  0  0  0  0  0  0  0
    7.4750    5.0630   13.5860 C   0  0  0  0  0  0  0  0  0  0  0  0
    7.6920    6.1210   13.7560 H   0  0  0  0  0  0  0  0  0  0  0  0
    8.3830    4.4740   13.7280 H   0  0  0  0  0  0  0  0  0  0  0  0
    7.0700    4.9310   12.5820 H   0  0  0  0  0  0  0  0  0  0  0  0
  1  3  1  0  0  0  0
  2  1  2  0  0  0  0
  3  4  1  0  0  0  0
  3  9  1  0  0  0  0
  4  8  1  0  0  0  0
  5  6  1  0  0  0  0
  5  4  2  0  0  0  0
  6  7  2  0  0  0  0
  7  8  1  0  0  0  0
  7 10  1  0  0  0  0
 11 12  2  0  0  0  0
 11  6  1  0  0  0  0
 12 20  1  0  0  0  0
 13 21  1  0  0  0  0
 13 12  1  0  0  0  0
 14 19  1  0  0  0  0
 14 13  1  0  0  0  0
 15 14  2  0  0  0  0
 16 17  2  0  0  0  0
 16 15  1  0  0  0  0
 17 18  1  0  0  0  0
 18 25  1  0  0  0  0
 18 19  2  0  0  0  0
 19 11  1  0  0  0  0
 22 15  1  0  0  0  0
 23 16  1  0  0  0  0
 24 17  1  0  0  0  0
 26 31  2  0  0  0  0
 26 27  1  0  0  0  0
 27 28  2  0  0  0  0
 28 29  1  0  0  0  0
 28 33  1  0  0  0  0
 29 34  1  0  0  0  0
 30  1  1  0  0  0  0
 30 29  2  0  0  0  0
 31 30  1  0  0  0  0
 32 27  1  0  0  0  0
 35 31  1  0  0  0  0
 36 37  1  0  0  0  0
 36 26  1  0  0  0  0
 38 39  2  0  0  0  0
 38 36  1  0  0  0  0
 40 38  2  0  0  0  0
 41 43  1  0  0  0  0
 41 42  1  0  0  0  0
 41 38  1  0  0  0  0
 44 41  1  0  0  0  0
M  END
>  <MODEL>
19

>  <REMARK>
 VINA RESULT:    -7.221      2.771      9.093
 INTER + INTRA:          -9.775
 INTER:                  -9.665
 INTRA:                  -0.111
 UNBOUND:                -0.655
  Name = 
  5 active torsions:
  status: ('A' for Active; 'I' for Inactive)
    1  A    between atoms: C_1  and  S_2
    2  A    between atoms: S_2  and  N_5
    3  A    between atoms: N_5  and  C_6
    4  A    between atoms: C_10  and  C_11
    5  A    between atoms: C_16  and  C_17
                            x       y       z     vdW  Elec       q    Type
                         _______ _______ _______ _____ _____    ______ ____

>  <TORSDO>
F 5

$$$$
=
 OpenBabel07192307433D

 44 47  0  0  0  0  0  0  0  0999 V2000
    2.1920    6.4790   19.4370 C   0  0  0  0  0  0  0  0  0  0  0  0
    1.7570    6.6910   18.3120 O   0  0  0  0  0  0  0  0  0  0  0  0
    2.0110    7.2450   20.5650 N   0  0  0  0  0  0  0  0  0  0  0  0
    1.3260    8.4280   20.5400 C   0  0  0  0  0  0  0  0  0  0  0  0
    0.7980    9.0620   19.5300 N   0  0  0  0  0  0  0  0  0  0  0  0
    0.2010   10.2290   19.9670 C   0  0  0  0  0  0  0  0  0  0  0  0
    0.3020   10.4540   21.3270 C   0  0  0  0  0  0  0  0  0  0  0  0
    1.1650    9.1690   22.0700 S   0  0  0  0  0  0  0  0  0  0  0  0
    2.3170    6.9300   21.4720 H   0  0  0  0  0  0  0  0  0  0  0  0
   -0.0750   11.2840   21.9060 H   0  0  0  0  0  0  0  0  0  0  0  0
   -0.4660   11.1060   18.9950 C   0  0  0  0  0  0  0  0  0  0  0  0
   -0.1770   12.4350   18.7570 C   0  0  0  0  0  0  0  0  0  0  0  0
   -1.0250   12.8820   17.7790 N   0  0  0  0  0  0  0  0  0  0  0  0
   -1.8630   11.8710   17.3730 C   0  0  0  0  0  0  0  0  0  0  0  0
   -2.8760   11.8820   16.4050 C   0  0  0  0  0  0  0  0  0  0  0  0
   -3.5850   10.6970   16.1910 C   0  0  0  0  0  0  0  0  0  0  0  0
   -3.2890    9.5470   16.9170 C   0  0  0  0  0  0  0  0  0  0  0  0
   -2.2720    9.5540   17.8800 C   0  0  0  0  0  0  0  0  0  0  0  0
   -1.5370   10.7360   18.1210 C   0  0  0  0  0  0  0  0  0  0  0  0
    0.5530   13.1030   19.1940 H   0  0  0  0  0  0  0  0  0  0  0  0
   -1.0400   13.8210   17.4030 H   0  0  0  0  0  0  0  0  0  0  0  0
   -3.1100   12.7760   15.8380 H   0  0  0  0  0  0  0  0  0  0  0  0
   -4.3780   10.6720   15.4470 H   0  0  0  0  0  0  0  0  0  0  0  0
   -3.8470    8.6320   16.7400 H   0  0  0  0  0  0  0  0  0  0  0  0
   -2.0550    8.6460   18.4370 H   0  0  0  0  0  0  0  0  0  0  0  0
    5.0330    4.0130   19.2550 C   0  0  0  0  0  0  0  0  0  0  0  0
    4.5430    2.9510   20.0120 C   0  0  0  0  0  0  0  0  0  0  0  0
    3.2800    3.0310   20.6030 C   0  0  0  0  0  0  0  0  0  0  0  0
    2.4970    4.1730   20.4280 C   0  0  0  0  0  0  0  0  0  0  0  0
    2.9780    5.2320   19.6470 C   0  0  0  0  0  0  0  0  0  0  0  0
    4.2520    5.1530   19.0680 C   0  0  0  0  0  0  0  0  0  0  0  0
    5.1380    2.0490   20.1500 H   0  0  0  0  0  0  0  0  0  0  0  0
    2.9160    2.2030   21.2080 H   0  0  0  0  0  0  0  0  0  0  0  0
    1.5360    4.2300   20.9320 H   0  0  0  0  0  0  0  0  0  0  0  0
    4.6230    5.9900   18.4810 H   0  0  0  0  0  0  0  0  0  0  0  0
    6.3300    3.9670   18.6690 N   0  0  0  0  0  0  0  0  0  0  0  0
    6.8450    3.0890   18.7420 H   0  0  0  0  0  0  0  0  0  0  0  0
    6.6020    4.7340   17.1930 S   0  0  0  0  0  0  0  0  0  0  0  0
    6.2660    6.1360   17.2980 O   0  0  0  0  0  0  0  0  0  0  0  0
    7.9200    4.3090   16.7690 O   0  0  0  0  0  0  0  0  0  0  0  0
    5.4160    3.9400   16.1250 C   0  0  0  0  0  0  0  0  0  0  0  0
    4.5160    4.5600   16.1060 H   0  0  0  0  0  0  0  0  0  0  0  0
    5.8340    3.8690   15.1190 H   0  0  0  0  0  0  0  0  0  0  0  0
    5.1720    2.9540   16.5230 H   0  0  0  0  0  0  0  0  0  0  0  0
  1 30  1  0  0  0  0
  1  3  1  0  0  0  0
  2  1  2  0  0  0  0
  3  9  1  0  0  0  0
  4  3  1  0  0  0  0
  4  8  1  0  0  0  0
  5  6  1  0  0  0  0
  5  4  2  0  0  0  0
  6  7  2  0  0  0  0
  7 10  1  0  0  0  0
  7  8  1  0  0  0  0
 11  6  1  0  0  0  0
 12 11  2  0  0  0  0
 12 20  1  0  0  0  0
 13 12  1  0  0  0  0
 14 13  1  0  0  0  0
 14 19  1  0  0  0  0
 15 14  2  0  0  0  0
 16 15  1  0  0  0  0
 16 17  2  0  0  0  0
 17 18  1  0  0  0  0
 18 19  2  0  0  0  0
 18 25  1  0  0  0  0
 19 11  1  0  0  0  0
 21 13  1  0  0  0  0
 22 15  1  0  0  0  0
 23 16  1  0  0  0  0
 24 17  1  0  0  0  0
 26 27  1  0  0  0  0
 27 32  1  0  0  0  0
 27 28  2  0  0  0  0
 28 33  1  0  0  0  0
 29 28  1  0  0  0  0
 29 34  1  0  0  0  0
 30 29  2  0  0  0  0
 31 26  2  0  0  0  0
 31 30  1  0  0  0  0
 35 31  1  0  0  0  0
 36 37  1  0  0  0  0
 36 26  1  0  0  0  0
 38 39  2  0  0  0  0
 38 36  1  0  0  0  0
 40 38  2  0  0  0  0
 41 44  1  0  0  0  0
 41 38  1  0  0  0  0
 42 41  1  0  0  0  0
 43 41  1  0  0  0  0
M  END
>  <MODEL>
20

>  <REMARK>
 VINA RESULT:    -7.174      3.170      9.027
 INTER + INTRA:          -9.717
 INTER:                  -9.732
 INTRA:                   0.015
 UNBOUND:                -0.655
  Name = 
  5 active torsions:
  status: ('A' for Active; 'I' for Inactive)
    1  A    between atoms: C_1  and  S_2
    2  A    between atoms: S_2  and  N_5
    3  A    between atoms: N_5  and  C_6
    4  A    between atoms: C_10  and  C_11
    5  A    between atoms: C_16  and  C_17
                            x       y       z     vdW  Elec       q    Type
                         _______ _______ _______ _____ _____    ______ ____

>  <TORSDO>
F 5

$$$$
=
 OpenBabel07192307433D

 44 47  0  0  0  0  0  0  0  0999 V2000
    1.7330    6.5550   20.2170 C   0  0  0  0  0  0  0  0  0  0  0  0
    0.8570    6.7860   21.0410 O   0  0  0  0  0  0  0  0  0  0  0  0
    2.2090    7.3960   19.2390 N   0  0  0  0  0  0  0  0  0  0  0  0
    1.6860    8.6420   19.0310 C   0  0  0  0  0  0  0  0  0  0  0  0
    0.6780    9.2290   19.6170 N   0  0  0  0  0  0  0  0  0  0  0  0
    0.4980   10.4920   19.0880 C   0  0  0  0  0  0  0  0  0  0  0  0
    1.3920   10.8320   18.0890 C   0  0  0  0  0  0  0  0  0  0  0  0
    2.4810    9.5350   17.8130 S   0  0  0  0  0  0  0  0  0  0  0  0
    3.0110    7.1540   18.6780 H   0  0  0  0  0  0  0  0  0  0  0  0
    1.4580   11.7500   17.5240 H   0  0  0  0  0  0  0  0  0  0  0  0
   -0.5840   11.3420   19.6030 C   0  0  0  0  0  0  0  0  0  0  0  0
   -1.3350   12.2440   18.8760 C   0  0  0  0  0  0  0  0  0  0  0  0
   -2.2340   12.8280   19.7270 N   0  0  0  0  0  0  0  0  0  0  0  0
   -2.0850   12.3260   20.9980 C   0  0  0  0  0  0  0  0  0  0  0  0
   -2.7870   12.6350   22.1710 C   0  0  0  0  0  0  0  0  0  0  0  0
   -2.4230   11.9660   23.3430 C   0  0  0  0  0  0  0  0  0  0  0  0
   -1.3990   11.0230   23.3380 C   0  0  0  0  0  0  0  0  0  0  0  0
   -0.7100   10.7260   22.1560 C   0  0  0  0  0  0  0  0  0  0  0  0
   -1.0520   11.3850   20.9550 C   0  0  0  0  0  0  0  0  0  0  0  0
   -1.3120   12.5240   17.8310 H   0  0  0  0  0  0  0  0  0  0  0  0
   -2.9140   13.5300   19.4670 H   0  0  0  0  0  0  0  0  0  0  0  0
   -3.5850   13.3690   22.1790 H   0  0  0  0  0  0  0  0  0  0  0  0
   -2.9480   12.1830   24.2700 H   0  0  0  0  0  0  0  0  0  0  0  0
   -1.1270   10.5090   24.2560 H   0  0  0  0  0  0  0  0  0  0  0  0
    0.0890    9.9870   22.1730 H   0  0  0  0  0  0  0  0  0  0  0  0
    4.2830    3.8460   19.6260 C   0  0  0  0  0  0  0  0  0  0  0  0
    3.7690    2.7950   20.3830 C   0  0  0  0  0  0  0  0  0  0  0  0
    2.5870    2.9620   21.1060 C   0  0  0  0  0  0  0  0  0  0  0  0
    1.9070    4.1800   21.0670 C   0  0  0  0  0  0  0  0  0  0  0  0
    2.4090    5.2300   20.2870 C   0  0  0  0  0  0  0  0  0  0  0  0
    3.6040    5.0630   19.5730 C   0  0  0  0  0  0  0  0  0  0  0  0
    4.2820    1.8350   20.4170 H   0  0  0  0  0  0  0  0  0  0  0  0
    2.2050    2.1400   21.7090 H   0  0  0  0  0  0  0  0  0  0  0  0
    1.0120    4.3000   21.6720 H   0  0  0  0  0  0  0  0  0  0  0  0
    3.9950    5.8920   18.9880 H   0  0  0  0  0  0  0  0  0  0  0  0
    5.5030    3.7100   18.9050 N   0  0  0  0  0  0  0  0  0  0  0  0
    5.5480    2.9770   18.1960 H   0  0  0  0  0  0  0  0  0  0  0  0
    6.3480    5.0920   18.4340 S   0  0  0  0  0  0  0  0  0  0  0  0
    5.4960    5.9390   17.6310 O   0  0  0  0  0  0  0  0  0  0  0  0
    6.9820    5.5890   19.6380 O   0  0  0  0  0  0  0  0  0  0  0  0
    7.6310    4.4190   17.3940 C   0  0  0  0  0  0  0  0  0  0  0  0
    7.1530    3.7800   16.6480 H   0  0  0  0  0  0  0  0  0  0  0  0
    8.1510    5.2400   16.8960 H   0  0  0  0  0  0  0  0  0  0  0  0
    8.3160    3.8250   18.0000 H   0  0  0  0  0  0  0  0  0  0  0  0
  1 30  1  0  0  0  0
  1  2  2  0  0  0  0
  3  1  1  0  0  0  0
  4  3  1  0  0  0  0
  4  5  2  0  0  0  0
  6 11  1  0  0  0  0
  6  5  1  0  0  0  0
  7  6  2  0  0  0  0
  8  7  1  0  0  0  0
  8  4  1  0  0  0  0
  9  3  1  0  0  0  0
 10  7  1  0  0  0  0
 11 19  1  0  0  0  0
 12 11  2  0  0  0  0
 12 13  1  0  0  0  0
 13 14  1  0  0  0  0
 14 15  1  0  0  0  0
 15 22  1  0  0  0  0
 15 16  2  0  0  0  0
 16 23  1  0  0  0  0
 17 16  1  0  0  0  0
 17 24  1  0  0  0  0
 18 25  1  0  0  0  0
 18 17  2  0  0  0  0
 19 14  2  0  0  0  0
 19 18  1  0  0  0  0
 20 12  1  0  0  0  0
 21 13  1  0  0  0  0
 26 27  1  0  0  0  0
 27 32  1  0  0  0  0
 27 28  2  0  0  0  0
 28 33  1  0  0  0  0
 29 28  1  0  0  0  0
 29 34  1  0  0  0  0
 30 29  2  0  0  0  0
 31 26  2  0  0  0  0
 31 30  1  0  0  0  0
 35 31  1  0  0  0  0
 36 26  1  0  0  0  0
 37 36  1  0  0  0  0
 38 36  1  0  0  0  0
 38 40  2  0  0  0  0
 39 38  2  0  0  0  0
 41 44  1  0  0  0  0
 41 38  1  0  0  0  0
 42 41  1  0  0  0  0
 43 41  1  0  0  0  0
M  END
>  <MODEL>
21

>  <REMARK>
 VINA RESULT:    -7.160      3.487      9.650
 INTER + INTRA:          -9.698
 INTER:                  -9.663
 INTRA:                  -0.035
 UNBOUND:                -0.655
  Name = 
  5 active torsions:
  status: ('A' for Active; 'I' for Inactive)
    1  A    between atoms: C_1  and  S_2
    2  A    between atoms: S_2  and  N_5
    3  A    between atoms: N_5  and  C_6
    4  A    between atoms: C_10  and  C_11
    5  A    between atoms: C_16  and  C_17
                            x       y       z     vdW  Elec       q    Type
                         _______ _______ _______ _____ _____    ______ ____

>  <TORSDO>
F 5

$$$$
=
 OpenBabel07192307433D

 44 47  0  0  0  0  0  0  0  0999 V2000
    0.1450   10.3980   21.4070 C   0  0  0  0  0  0  0  0  0  0  0  0
   -0.0850    9.4820   22.1860 O   0  0  0  0  0  0  0  0  0  0  0  0
    0.7800   10.3260   20.1900 N   0  0  0  0  0  0  0  0  0  0  0  0
    1.3040    9.1580   19.7100 C   0  0  0  0  0  0  0  0  0  0  0  0
    1.3660    7.9820   20.2710 N   0  0  0  0  0  0  0  0  0  0  0  0
    1.9860    7.0870   19.4200 C   0  0  0  0  0  0  0  0  0  0  0  0
    2.3910    7.6250   18.2130 C   0  0  0  0  0  0  0  0  0  0  0  0
    1.9800    9.2900   18.1480 S   0  0  0  0  0  0  0  0  0  0  0  0
    0.8240   11.1180   19.5690 H   0  0  0  0  0  0  0  0  0  0  0  0
    2.8930    7.1390   17.3890 H   0  0  0  0  0  0  0  0  0  0  0  0
    2.1640    5.6920   19.8450 C   0  0  0  0  0  0  0  0  0  0  0  0
    2.1440    5.2200   21.1430 C   0  0  0  0  0  0  0  0  0  0  0  0
    2.3470    3.8670   21.1030 N   0  0  0  0  0  0  0  0  0  0  0  0
    2.5010    3.4440   19.8040 C   0  0  0  0  0  0  0  0  0  0  0  0
    2.7260    2.1550   19.3030 C   0  0  0  0  0  0  0  0  0  0  0  0
    2.8470    2.0060   17.9190 C   0  0  0  0  0  0  0  0  0  0  0  0
    2.7440    3.1050   17.0710 C   0  0  0  0  0  0  0  0  0  0  0  0
    2.5170    4.3860   17.5900 C   0  0  0  0  0  0  0  0  0  0  0  0
    2.3900    4.5710   18.9840 C   0  0  0  0  0  0  0  0  0  0  0  0
    2.0030    5.7240   22.0900 H   0  0  0  0  0  0  0  0  0  0  0  0
    2.3810    3.2580   21.9100 H   0  0  0  0  0  0  0  0  0  0  0  0
    2.8080    1.2960   19.9610 H   0  0  0  0  0  0  0  0  0  0  0  0
    3.0220    1.0190   17.4990 H   0  0  0  0  0  0  0  0  0  0  0  0
    2.8380    2.9760   15.9970 H   0  0  0  0  0  0  0  0  0  0  0  0
    2.4390    5.2330   16.9110 H   0  0  0  0  0  0  0  0  0  0  0  0
   -1.8470   13.0950   23.1240 C   0  0  0  0  0  0  0  0  0  0  0  0
   -1.3100   14.2530   22.5630 C   0  0  0  0  0  0  0  0  0  0  0  0
   -0.2810   14.1670   21.6230 C   0  0  0  0  0  0  0  0  0  0  0  0
    0.2090   12.9200   21.2320 C   0  0  0  0  0  0  0  0  0  0  0  0
   -0.3470   11.7540   21.7770 C   0  0  0  0  0  0  0  0  0  0  0  0
   -1.3700   11.8460   22.7310 C   0  0  0  0  0  0  0  0  0  0  0  0
   -1.6870   15.2330   22.8500 H   0  0  0  0  0  0  0  0  0  0  0  0
    0.1440   15.0780   21.2060 H   0  0  0  0  0  0  0  0  0  0  0  0
    1.0380   12.8800   20.5310 H   0  0  0  0  0  0  0  0  0  0  0  0
   -1.7790   10.9350   23.1620 H   0  0  0  0  0  0  0  0  0  0  0  0
   -2.8750   13.1590   24.1070 N   0  0  0  0  0  0  0  0  0  0  0  0
   -2.7540   13.8300   24.8670 H   0  0  0  0  0  0  0  0  0  0  0  0
   -4.4870   13.0320   23.6310 S   0  0  0  0  0  0  0  0  0  0  0  0
   -4.5610   12.6310   22.2440 O   0  0  0  0  0  0  0  0  0  0  0  0
   -5.1410   12.2630   24.6700 O   0  0  0  0  0  0  0  0  0  0  0  0
   -5.0610   14.7150   23.7710 C   0  0  0  0  0  0  0  0  0  0  0  0
   -5.9960   14.7020   24.3350 H   0  0  0  0  0  0  0  0  0  0  0  0
   -4.3140   15.3010   24.3110 H   0  0  0  0  0  0  0  0  0  0  0  0
   -5.2390   15.1220   22.7750 H   0  0  0  0  0  0  0  0  0  0  0  0
  1 30  1  0  0  0  0
  1  2  2  0  0  0  0
  3  1  1  0  0  0  0
  4  3  1  0  0  0  0
  4  5  2  0  0  0  0
  6 11  1  0  0  0  0
  6  5  1  0  0  0  0
  7  6  2  0  0  0  0
  8  7  1  0  0  0  0
  8  4  1  0  0  0  0
  9  3  1  0  0  0  0
 10  7  1  0  0  0  0
 11 12  2  0  0  0  0
 12 20  1  0  0  0  0
 13 12  1  0  0  0  0
 13 21  1  0  0  0  0
 14 13  1  0  0  0  0
 15 14  1  0  0  0  0
 15 22  1  0  0  0  0
 16 15  2  0  0  0  0
 17 18  2  0  0  0  0
 17 16  1  0  0  0  0
 18 19  1  0  0  0  0
 19 14  2  0  0  0  0
 19 11  1  0  0  0  0
 23 16  1  0  0  0  0
 24 17  1  0  0  0  0
 25 18  1  0  0  0  0
 26 36  1  0  0  0  0
 27 32  1  0  0  0  0
 27 26  2  0  0  0  0
 28 27  1  0  0  0  0
 29 28  2  0  0  0  0
 29 30  1  0  0  0  0
 30 31  2  0  0  0  0
 31 26  1  0  0  0  0
 31 35  1  0  0  0  0
 33 28  1  0  0  0  0
 34 29  1  0  0  0  0
 36 37  1  0  0  0  0
 38 41  1  0  0  0  0
 38 36  1  0  0  0  0
 38 40  2  0  0  0  0
 39 38  2  0  0  0  0
 41 43  1  0  0  0  0
 41 42  1  0  0  0  0
 44 41  1  0  0  0  0
M  END
>  <MODEL>
22

>  <REMARK>
 VINA RESULT:    -7.047      4.089      5.245
 INTER + INTRA:          -9.556
 INTER:                  -9.233
 INTRA:                  -0.322
 UNBOUND:                -0.655
  Name = 
  5 active torsions:
  status: ('A' for Active; 'I' for Inactive)
    1  A    between atoms: C_1  and  S_2
    2  A    between atoms: S_2  and  N_5
    3  A    between atoms: N_5  and  C_6
    4  A    between atoms: C_10  and  C_11
    5  A    between atoms: C_16  and  C_17
                            x       y       z     vdW  Elec       q    Type
                         _______ _______ _______ _____ _____    ______ ____

>  <TORSDO>
F 5

$$$$
=
 OpenBabel07192307433D

 44 47  0  0  0  0  0  0  0  0999 V2000
    1.8770    7.8590   18.5200 C   0  0  0  0  0  0  0  0  0  0  0  0
    1.5160    8.6390   17.6470 O   0  0  0  0  0  0  0  0  0  0  0  0
    1.6960    7.9780   19.8780 N   0  0  0  0  0  0  0  0  0  0  0  0
    1.1020    9.0740   20.4410 C   0  0  0  0  0  0  0  0  0  0  0  0
    0.6740   10.1700   19.8760 N   0  0  0  0  0  0  0  0  0  0  0  0
    0.1430   11.0140   20.8320 C   0  0  0  0  0  0  0  0  0  0  0  0
    0.1910   10.5260   22.1250 C   0  0  0  0  0  0  0  0  0  0  0  0
    0.9180    8.9700   22.1350 S   0  0  0  0  0  0  0  0  0  0  0  0
    1.9300    7.2290   20.5100 H   0  0  0  0  0  0  0  0  0  0  0  0
   -0.1530   10.9890   23.0370 H   0  0  0  0  0  0  0  0  0  0  0  0
   -0.4060   12.3140   20.4220 C   0  0  0  0  0  0  0  0  0  0  0  0
   -0.0650   13.0290   19.2910 C   0  0  0  0  0  0  0  0  0  0  0  0
   -0.8040   14.1800   19.2810 N   0  0  0  0  0  0  0  0  0  0  0  0
   -1.6230   14.2340   20.3840 C   0  0  0  0  0  0  0  0  0  0  0  0
   -2.5390   15.2200   20.7730 C   0  0  0  0  0  0  0  0  0  0  0  0
   -3.2490   15.0180   21.9590 C   0  0  0  0  0  0  0  0  0  0  0  0
   -3.0500   13.8720   22.7240 C   0  0  0  0  0  0  0  0  0  0  0  0
   -2.1320   12.8960   22.3200 C   0  0  0  0  0  0  0  0  0  0  0  0
   -1.3970   13.0700   21.1260 C   0  0  0  0  0  0  0  0  0  0  0  0
    0.6360   12.8230   18.4940 H   0  0  0  0  0  0  0  0  0  0  0  0
   -0.7600   14.8970   18.5680 H   0  0  0  0  0  0  0  0  0  0  0  0
   -2.6970   16.1140   20.1800 H   0  0  0  0  0  0  0  0  0  0  0  0
   -3.9680   15.7640   22.2890 H   0  0  0  0  0  0  0  0  0  0  0  0
   -3.6100   13.7270   23.6440 H   0  0  0  0  0  0  0  0  0  0  0  0
   -1.9890   12.0080   22.9310 H   0  0  0  0  0  0  0  0  0  0  0  0
    4.6010    5.5300   17.3640 C   0  0  0  0  0  0  0  0  0  0  0  0
    3.9300    4.3100   17.2970 C   0  0  0  0  0  0  0  0  0  0  0  0
    2.5790    4.2310   17.6400 C   0  0  0  0  0  0  0  0  0  0  0  0
    1.8900    5.3760   18.0420 C   0  0  0  0  0  0  0  0  0  0  0  0
    2.5570    6.6080   18.0870 C   0  0  0  0  0  0  0  0  0  0  0  0
    3.9170    6.6800   17.7550 C   0  0  0  0  0  0  0  0  0  0  0  0
    4.4500    3.4090   16.9770 H   0  0  0  0  0  0  0  0  0  0  0  0
    2.0700    3.2700   17.6030 H   0  0  0  0  0  0  0  0  0  0  0  0
    0.8510    5.2830   18.3450 H   0  0  0  0  0  0  0  0  0  0  0  0
    4.4300    7.6370   17.8130 H   0  0  0  0  0  0  0  0  0  0  0  0
    5.9860    5.6290   17.0490 N   0  0  0  0  0  0  0  0  0  0  0  0
    6.2630    6.3450   16.3760 H   0  0  0  0  0  0  0  0  0  0  0  0
    7.1310    5.4420   18.2730 S   0  0  0  0  0  0  0  0  0  0  0  0
    6.4670    5.2820   19.5470 O   0  0  0  0  0  0  0  0  0  0  0  0
    8.0650    4.4490   17.7840 O   0  0  0  0  0  0  0  0  0  0  0  0
    7.9680    7.0160   18.2570 C   0  0  0  0  0  0  0  0  0  0  0  0
    8.9290    6.8780   17.7570 H   0  0  0  0  0  0  0  0  0  0  0  0
    7.3630    7.7340   17.7000 H   0  0  0  0  0  0  0  0  0  0  0  0
    8.1340    7.3490   19.2820 H   0  0  0  0  0  0  0  0  0  0  0  0
  1  3  1  0  0  0  0
  2  1  2  0  0  0  0
  3  4  1  0  0  0  0
  3  9  1  0  0  0  0
  4  8  1  0  0  0  0
  5  4  2  0  0  0  0
  5  6  1  0  0  0  0
  6  7  2  0  0  0  0
  7  8  1  0  0  0  0
  7 10  1  0  0  0  0
 11  6  1  0  0  0  0
 11 19  1  0  0  0  0
 12 11  2  0  0  0  0
 13 12  1  0  0  0  0
 13 14  1  0  0  0  0
 14 15  2  0  0  0  0
 14 19  1  0  0  0  0
 15 16  1  0  0  0  0
 16 23  1  0  0  0  0
 16 17  2  0  0  0  0
 17 24  1  0  0  0  0
 18 17  1  0  0  0  0
 18 25  1  0  0  0  0
 19 18  2  0  0  0  0
 20 12  1  0  0  0  0
 21 13  1  0  0  0  0
 22 15  1  0  0  0  0
 26 31  1  0  0  0  0
 27 26  2  0  0  0  0
 27 28  1  0  0  0  0
 28 29  2  0  0  0  0
 29 30  1  0  0  0  0
 29 34  1  0  0  0  0
 30  1  1  0  0  0  0
 31 35  1  0  0  0  0
 31 30  2  0  0  0  0
 32 27  1  0  0  0  0
 33 28  1  0  0  0  0
 36 26  1  0  0  0  0
 36 38  1  0  0  0  0
 37 36  1  0  0  0  0
 38 39  2  0  0  0  0
 40 38  2  0  0  0  0
 41 38  1  0  0  0  0
 41 44  1  0  0  0  0
 42 41  1  0  0  0  0
 43 41  1  0  0  0  0
M  END
>  <MODEL>
23

>  <REMARK>
 VINA RESULT:    -7.044      3.308     10.007
 INTER + INTRA:          -9.553
 INTER:                  -9.180
 INTRA:                  -0.373
 UNBOUND:                -0.655
  Name = 
  5 active torsions:
  status: ('A' for Active; 'I' for Inactive)
    1  A    between atoms: C_1  and  S_2
    2  A    between atoms: S_2  and  N_5
    3  A    between atoms: N_5  and  C_6
    4  A    between atoms: C_10  and  C_11
    5  A    between atoms: C_16  and  C_17
                            x       y       z     vdW  Elec       q    Type
                         _______ _______ _______ _____ _____    ______ ____

>  <TORSDO>
F 5

$$$$
=
 OpenBabel07192307433D

 44 47  0  0  0  0  0  0  0  0999 V2000
    0.5900    8.8230   20.9370 C   0  0  0  0  0  0  0  0  0  0  0  0
    0.5970    7.7250   21.4810 O   0  0  0  0  0  0  0  0  0  0  0  0
    1.2340    9.1910   19.7790 N   0  0  0  0  0  0  0  0  0  0  0  0
    2.0470    8.3320   19.0930 C   0  0  0  0  0  0  0  0  0  0  0  0
    2.4050    7.1120   19.3870 N   0  0  0  0  0  0  0  0  0  0  0  0
    3.2430    6.6190   18.4060 C   0  0  0  0  0  0  0  0  0  0  0  0
    3.5070    7.5020   17.3750 C   0  0  0  0  0  0  0  0  0  0  0  0
    2.6800    8.9820   17.6470 S   0  0  0  0  0  0  0  0  0  0  0  0
    1.0780   10.0900   19.3510 H   0  0  0  0  0  0  0  0  0  0  0  0
    4.1240    7.3570   16.5010 H   0  0  0  0  0  0  0  0  0  0  0  0
    3.7700    5.2530   18.5270 C   0  0  0  0  0  0  0  0  0  0  0  0
    5.1010    4.8890   18.5760 C   0  0  0  0  0  0  0  0  0  0  0  0
    5.1620    3.5260   18.6910 N   0  0  0  0  0  0  0  0  0  0  0  0
    3.8960    2.9910   18.7180 C   0  0  0  0  0  0  0  0  0  0  0  0
    3.4900    1.6540   18.8240 C   0  0  0  0  0  0  0  0  0  0  0  0
    2.1190    1.3880   18.8260 C   0  0  0  0  0  0  0  0  0  0  0  0
    1.1910    2.4200   18.7260 C   0  0  0  0  0  0  0  0  0  0  0  0
    1.6140    3.7500   18.6210 C   0  0  0  0  0  0  0  0  0  0  0  0
    2.9930    4.0540   18.6170 C   0  0  0  0  0  0  0  0  0  0  0  0
    6.0100    5.4750   18.5390 H   0  0  0  0  0  0  0  0  0  0  0  0
    6.0120    2.9820   18.7480 H   0  0  0  0  0  0  0  0  0  0  0  0
    4.2110    0.8470   18.9020 H   0  0  0  0  0  0  0  0  0  0  0  0
    1.7710    0.3600   18.9070 H   0  0  0  0  0  0  0  0  0  0  0  0
    0.1270    2.1990   18.7290 H   0  0  0  0  0  0  0  0  0  0  0  0
    0.8740    4.5440   18.5440 H   0  0  0  0  0  0  0  0  0  0  0  0
   -1.4040   11.9980   21.2970 C   0  0  0  0  0  0  0  0  0  0  0  0
   -1.8190   11.9310   22.6260 C   0  0  0  0  0  0  0  0  0  0  0  0
   -1.4610   10.8390   23.4190 C   0  0  0  0  0  0  0  0  0  0  0  0
   -0.6770    9.8140   22.8890 C   0  0  0  0  0  0  0  0  0  0  0  0
   -0.2380    9.8930   21.5600 C   0  0  0  0  0  0  0  0  0  0  0  0
   -0.6120   10.9840   20.7630 C   0  0  0  0  0  0  0  0  0  0  0  0
   -2.4240   12.7260   23.0580 H   0  0  0  0  0  0  0  0  0  0  0  0
   -1.8070   10.7870   24.4500 H   0  0  0  0  0  0  0  0  0  0  0  0
   -0.4460    8.9550   23.5120 H   0  0  0  0  0  0  0  0  0  0  0  0
   -0.2820   11.0240   19.7270 H   0  0  0  0  0  0  0  0  0  0  0  0
   -1.7820   13.0860   20.4600 N   0  0  0  0  0  0  0  0  0  0  0  0
   -2.7720   13.1750   20.2270 H   0  0  0  0  0  0  0  0  0  0  0  0
   -1.0500   14.5900   20.6700 S   0  0  0  0  0  0  0  0  0  0  0  0
   -0.8190   15.2090   19.3840 O   0  0  0  0  0  0  0  0  0  0  0  0
   -1.8220   15.2590   21.6970 O   0  0  0  0  0  0  0  0  0  0  0  0
    0.5240   14.1520   21.3850 C   0  0  0  0  0  0  0  0  0  0  0  0
    0.3290   13.6080   22.3120 H   0  0  0  0  0  0  0  0  0  0  0  0
    1.0640   13.5090   20.6880 H   0  0  0  0  0  0  0  0  0  0  0  0
    1.0880   15.0600   21.6060 H   0  0  0  0  0  0  0  0  0  0  0  0
  1  2  2  0  0  0  0
  1 30  1  0  0  0  0
  3  1  1  0  0  0  0
  4  5  2  0  0  0  0
  4  3  1  0  0  0  0
  6 11  1  0  0  0  0
  6  5  1  0  0  0  0
  7  8  1  0  0  0  0
  7  6  2  0  0  0  0
  8  4  1  0  0  0  0
  9  3  1  0  0  0  0
 10  7  1  0  0  0  0
 11 12  2  0  0  0  0
 11 19  1  0  0  0  0
 12 13  1  0  0  0  0
 13 14  1  0  0  0  0
 13 21  1  0  0  0  0
 14 15  1  0  0  0  0
 15 16  2  0  0  0  0
 15 22  1  0  0  0  0
 16 23  1  0  0  0  0
 17 24  1  0  0  0  0
 17 16  1  0  0  0  0
 18 17  2  0  0  0  0
 19 18  1  0  0  0  0
 19 14  2  0  0  0  0
 20 12  1  0  0  0  0
 25 18  1  0  0  0  0
 26 27  1  0  0  0  0
 27 32  1  0  0  0  0
 27 28  2  0  0  0  0
 28 33  1  0  0  0  0
 29 28  1  0  0  0  0
 29 34  1  0  0  0  0
 30 29  2  0  0  0  0
 31 26  2  0  0  0  0
 31 30  1  0  0  0  0
 35 31  1  0  0  0  0
 36 38  1  0  0  0  0
 36 26  1  0  0  0  0
 37 36  1  0  0  0  0
 38 41  1  0  0  0  0
 38 40  2  0  0  0  0
 39 38  2  0  0  0  0
 41 44  1  0  0  0  0
 41 42  1  0  0  0  0
 43 41  1  0  0  0  0
M  END
>  <MODEL>
24

>  <REMARK>
 VINA RESULT:    -6.999      3.587      4.391
 INTER + INTRA:          -9.495
 INTER:                  -9.069
 INTRA:                  -0.426
 UNBOUND:                -0.655
  Name = 
  5 active torsions:
  status: ('A' for Active; 'I' for Inactive)
    1  A    between atoms: C_1  and  S_2
    2  A    between atoms: S_2  and  N_5
    3  A    between atoms: N_5  and  C_6
    4  A    between atoms: C_10  and  C_11
    5  A    between atoms: C_16  and  C_17
                            x       y       z     vdW  Elec       q    Type
                         _______ _______ _______ _____ _____    ______ ____

>  <TORSDO>
F 5

$$$$
=
 OpenBabel07192307433D

 44 47  0  0  0  0  0  0  0  0999 V2000
    2.3110    7.2410   18.6470 C   0  0  0  0  0  0  0  0  0  0  0  0
    2.3090    8.0640   17.7390 O   0  0  0  0  0  0  0  0  0  0  0  0
    1.8630    7.4110   19.9360 N   0  0  0  0  0  0  0  0  0  0  0  0
    1.3820    8.6090   20.3880 C   0  0  0  0  0  0  0  0  0  0  0  0
    1.3080    9.7590   19.7760 N   0  0  0  0  0  0  0  0  0  0  0  0
    0.7540   10.7040   20.6180 C   0  0  0  0  0  0  0  0  0  0  0  0
    0.4210   10.2330   21.8740 C   0  0  0  0  0  0  0  0  0  0  0  0
    0.8140    8.5660   21.9960 S   0  0  0  0  0  0  0  0  0  0  0  0
    1.8040    6.6390   20.5810 H   0  0  0  0  0  0  0  0  0  0  0  0
   -0.0190   10.7670   22.7030 H   0  0  0  0  0  0  0  0  0  0  0  0
    0.5690   12.0800   20.1360 C   0  0  0  0  0  0  0  0  0  0  0  0
    1.3900   12.7590   19.2580 C   0  0  0  0  0  0  0  0  0  0  0  0
    0.8650   14.0090   19.0710 N   0  0  0  0  0  0  0  0  0  0  0  0
   -0.2840   14.1620   19.8110 C   0  0  0  0  0  0  0  0  0  0  0  0
   -1.1390   15.2670   19.9190 C   0  0  0  0  0  0  0  0  0  0  0  0
   -2.2520   15.1490   20.7560 C   0  0  0  0  0  0  0  0  0  0  0  0
   -2.4990   13.9700   21.4540 C   0  0  0  0  0  0  0  0  0  0  0  0
   -1.6340   12.8760   21.3320 C   0  0  0  0  0  0  0  0  0  0  0  0
   -0.5000   12.9620   20.4950 C   0  0  0  0  0  0  0  0  0  0  0  0
    2.2990   12.4670   18.7500 H   0  0  0  0  0  0  0  0  0  0  0  0
    1.2600   14.7250   18.4760 H   0  0  0  0  0  0  0  0  0  0  0  0
   -0.9500   16.1870   19.3770 H   0  0  0  0  0  0  0  0  0  0  0  0
   -2.9350   15.9880   20.8620 H   0  0  0  0  0  0  0  0  0  0  0  0
   -3.3680   13.8910   22.1000 H   0  0  0  0  0  0  0  0  0  0  0  0
   -1.8430   11.9630   21.8860 H   0  0  0  0  0  0  0  0  0  0  0  0
    4.6810    4.3310   18.3250 C   0  0  0  0  0  0  0  0  0  0  0  0
    3.8490    3.3350   17.8170 C   0  0  0  0  0  0  0  0  0  0  0  0
    2.4980    3.5990   17.5830 C   0  0  0  0  0  0  0  0  0  0  0  0
    1.9760    4.8660   17.8480 C   0  0  0  0  0  0  0  0  0  0  0  0
    2.8160    5.8760   18.3350 C   0  0  0  0  0  0  0  0  0  0  0  0
    4.1690    5.6020   18.5820 C   0  0  0  0  0  0  0  0  0  0  0  0
    4.2430    2.3440   17.5970 H   0  0  0  0  0  0  0  0  0  0  0  0
    1.8540    2.8080   17.2050 H   0  0  0  0  0  0  0  0  0  0  0  0
    0.9130    5.0350   17.6980 H   0  0  0  0  0  0  0  0  0  0  0  0
    4.8070    6.3870   18.9800 H   0  0  0  0  0  0  0  0  0  0  0  0
    6.0550    4.0770   18.6010 N   0  0  0  0  0  0  0  0  0  0  0  0
    6.3250    3.1080   18.7770 H   0  0  0  0  0  0  0  0  0  0  0  0
    7.2420    4.9140   17.7450 S   0  0  0  0  0  0  0  0  0  0  0  0
    7.1630    6.3250   18.0480 O   0  0  0  0  0  0  0  0  0  0  0  0
    8.4680    4.1700   17.9500 O   0  0  0  0  0  0  0  0  0  0  0  0
    6.7420    4.6630   16.0520 C   0  0  0  0  0  0  0  0  0  0  0  0
    7.5740    4.9650   15.4100 H   0  0  0  0  0  0  0  0  0  0  0  0
    6.5250    3.6040   15.8990 H   0  0  0  0  0  0  0  0  0  0  0  0
    5.8700    5.2820   15.8360 H   0  0  0  0  0  0  0  0  0  0  0  0
  1  3  1  0  0  0  0
  2  1  2  0  0  0  0
  3  4  1  0  0  0  0
  3  9  1  0  0  0  0
  4  8  1  0  0  0  0
  5  4  2  0  0  0  0
  5  6  1  0  0  0  0
  6  7  2  0  0  0  0
  7  8  1  0  0  0  0
  7 10  1  0  0  0  0
 11 19  1  0  0  0  0
 11  6  1  0  0  0  0
 12 11  2  0  0  0  0
 13 12  1  0  0  0  0
 13 14  1  0  0  0  0
 14 15  2  0  0  0  0
 14 19  1  0  0  0  0
 15 16  1  0  0  0  0
 16 23  1  0  0  0  0
 16 17  2  0  0  0  0
 17 24  1  0  0  0  0
 18 17  1  0  0  0  0
 18 25  1  0  0  0  0
 19 18  2  0  0  0  0
 20 12  1  0  0  0  0
 21 13  1  0  0  0  0
 22 15  1  0  0  0  0
 26 31  1  0  0  0  0
 26 36  1  0  0  0  0
 27 26  2  0  0  0  0
 28 27  1  0  0  0  0
 28 29  2  0  0  0  0
 29 30  1  0  0  0  0
 30 31  2  0  0  0  0
 30  1  1  0  0  0  0
 31 35  1  0  0  0  0
 32 27  1  0  0  0  0
 33 28  1  0  0  0  0
 34 29  1  0  0  0  0
 36 37  1  0  0  0  0
 38 40  2  0  0  0  0
 38 39  2  0  0  0  0
 38 36  1  0  0  0  0
 41 38  1  0  0  0  0
 42 41  1  0  0  0  0
 43 41  1  0  0  0  0
 44 41  1  0  0  0  0
M  END
>  <MODEL>
25

>  <REMARK>
 VINA RESULT:    -6.971      3.369      9.728
 INTER + INTRA:          -9.460
 INTER:                  -9.237
 INTRA:                  -0.223
 UNBOUND:                -0.655
  Name = 
  5 active torsions:
  status: ('A' for Active; 'I' for Inactive)
    1  A    between atoms: C_1  and  S_2
    2  A    between atoms: S_2  and  N_5
    3  A    between atoms: N_5  and  C_6
    4  A    between atoms: C_10  and  C_11
    5  A    between atoms: C_16  and  C_17
                            x       y       z     vdW  Elec       q    Type
                         _______ _______ _______ _____ _____    ______ ____

>  <TORSDO>
F 5

$$$$
=
 OpenBabel07192307433D

 44 47  0  0  0  0  0  0  0  0999 V2000
    1.3630    8.3690   20.6040 C   0  0  0  0  0  0  0  0  0  0  0  0
    1.6100    8.7560   21.7400 O   0  0  0  0  0  0  0  0  0  0  0  0
    0.6650    9.0340   19.6230 N   0  0  0  0  0  0  0  0  0  0  0  0
    0.0880   10.2550   19.8400 C   0  0  0  0  0  0  0  0  0  0  0  0
    0.0260   10.9620   20.9350 N   0  0  0  0  0  0  0  0  0  0  0  0
   -0.6590   12.1380   20.6950 C   0  0  0  0  0  0  0  0  0  0  0  0
   -1.1110   12.2890   19.3980 C   0  0  0  0  0  0  0  0  0  0  0  0
   -0.6630   10.9220   18.4610 S   0  0  0  0  0  0  0  0  0  0  0  0
    0.6090    8.6790   18.6820 H   0  0  0  0  0  0  0  0  0  0  0  0
   -1.6660   13.1080   18.9650 H   0  0  0  0  0  0  0  0  0  0  0  0
   -0.8490   13.0980   21.7920 C   0  0  0  0  0  0  0  0  0  0  0  0
   -0.0150   14.1500   22.1140 C   0  0  0  0  0  0  0  0  0  0  0  0
   -0.5510   14.7970   23.1960 N   0  0  0  0  0  0  0  0  0  0  0  0
   -1.7190   14.1870   23.5880 C   0  0  0  0  0  0  0  0  0  0  0  0
   -2.5900   14.5100   24.6360 C   0  0  0  0  0  0  0  0  0  0  0  0
   -3.7220   13.7100   24.8130 C   0  0  0  0  0  0  0  0  0  0  0  0
   -3.9710   12.6300   23.9710 C   0  0  0  0  0  0  0  0  0  0  0  0
   -3.0900   12.3220   22.9280 C   0  0  0  0  0  0  0  0  0  0  0  0
   -1.9370   13.1110   22.7220 C   0  0  0  0  0  0  0  0  0  0  0  0
    0.9100   14.4970   21.6740 H   0  0  0  0  0  0  0  0  0  0  0  0
   -0.1500   15.6070   23.6490 H   0  0  0  0  0  0  0  0  0  0  0  0
   -2.3990   15.3510   25.2940 H   0  0  0  0  0  0  0  0  0  0  0  0
   -4.4180   13.9350   25.6180 H   0  0  0  0  0  0  0  0  0  0  0  0
   -4.8550   12.0170   24.1190 H   0  0  0  0  0  0  0  0  0  0  0  0
   -3.3020   11.4740   22.2800 H   0  0  0  0  0  0  0  0  0  0  0  0
    3.3870    5.7920   18.7470 C   0  0  0  0  0  0  0  0  0  0  0  0
    3.0080    4.6120   19.3830 C   0  0  0  0  0  0  0  0  0  0  0  0
    2.0930    4.6450   20.4380 C   0  0  0  0  0  0  0  0  0  0  0  0
    1.5450    5.8590   20.8520 C   0  0  0  0  0  0  0  0  0  0  0  0
    1.9060    7.0440   20.1960 C   0  0  0  0  0  0  0  0  0  0  0  0
    2.8360    7.0080   19.1480 C   0  0  0  0  0  0  0  0  0  0  0  0
    3.4190    3.6550   19.0670 H   0  0  0  0  0  0  0  0  0  0  0  0
    1.8180    3.7190   20.9400 H   0  0  0  0  0  0  0  0  0  0  0  0
    0.8670    5.8650   21.7010 H   0  0  0  0  0  0  0  0  0  0  0  0
    3.1250    7.9360   18.6600 H   0  0  0  0  0  0  0  0  0  0  0  0
    4.3420    5.7870   17.6910 N   0  0  0  0  0  0  0  0  0  0  0  0
    4.2530    6.5110   16.9760 H   0  0  0  0  0  0  0  0  0  0  0  0
    5.9570    5.4390   18.0320 S   0  0  0  0  0  0  0  0  0  0  0  0
    6.1580    5.3980   19.4630 O   0  0  0  0  0  0  0  0  0  0  0  0
    6.2970    4.3090   17.1940 O   0  0  0  0  0  0  0  0  0  0  0  0
    6.8020    6.8650   17.3760 C   0  0  0  0  0  0  0  0  0  0  0  0
    7.2060    6.5920   16.3980 H   0  0  0  0  0  0  0  0  0  0  0  0
    6.0870    7.6820   17.2630 H   0  0  0  0  0  0  0  0  0  0  0  0
    7.6180    7.1430   18.0440 H   0  0  0  0  0  0  0  0  0  0  0  0
  1  2  2  0  0  0  0
  3  4  1  0  0  0  0
  3  1  1  0  0  0  0
  4  5  2  0  0  0  0
  6  5  1  0  0  0  0
  6 11  1  0  0  0  0
  7  6  2  0  0  0  0
  8  7  1  0  0  0  0
  8  4  1  0  0  0  0
  9  3  1  0  0  0  0
 10  7  1  0  0  0  0
 11 12  2  0  0  0  0
 11 19  1  0  0  0  0
 12 13  1  0  0  0  0
 13 14  1  0  0  0  0
 13 21  1  0  0  0  0
 14 15  1  0  0  0  0
 15 16  2  0  0  0  0
 15 22  1  0  0  0  0
 16 23  1  0  0  0  0
 17 24  1  0  0  0  0
 17 16  1  0  0  0  0
 18 17  2  0  0  0  0
 19 18  1  0  0  0  0
 19 14  2  0  0  0  0
 20 12  1  0  0  0  0
 25 18  1  0  0  0  0
 26 31  2  0  0  0  0
 26 27  1  0  0  0  0
 27 28  2  0  0  0  0
 28 29  1  0  0  0  0
 28 33  1  0  0  0  0
 29 34  1  0  0  0  0
 30  1  1  0  0  0  0
 30 29  2  0  0  0  0
 31 30  1  0  0  0  0
 32 27  1  0  0  0  0
 35 31  1  0  0  0  0
 36 38  1  0  0  0  0
 36 26  1  0  0  0  0
 37 36  1  0  0  0  0
 38 39  2  0  0  0  0
 40 38  2  0  0  0  0
 41 38  1  0  0  0  0
 41 44  1  0  0  0  0
 42 41  1  0  0  0  0
 43 41  1  0  0  0  0
M  END
>  <MODEL>
26

>  <REMARK>
 VINA RESULT:    -6.968      3.531     10.347
 INTER + INTRA:          -9.456
 INTER:                  -8.921
 INTRA:                  -0.535
 UNBOUND:                -0.655
  Name = 
  5 active torsions:
  status: ('A' for Active; 'I' for Inactive)
    1  A    between atoms: C_1  and  S_2
    2  A    between atoms: S_2  and  N_5
    3  A    between atoms: N_5  and  C_6
    4  A    between atoms: C_10  and  C_11
    5  A    between atoms: C_16  and  C_17
                            x       y       z     vdW  Elec       q    Type
                         _______ _______ _______ _____ _____    ______ ____

>  <TORSDO>
F 5

$$$$
=
 OpenBabel07192307433D

 44 47  0  0  0  0  0  0  0  0999 V2000
    1.2340   11.3320   18.9560 C   0  0  0  0  0  0  0  0  0  0  0  0
    1.9490   11.0940   17.9900 O   0  0  0  0  0  0  0  0  0  0  0  0
    0.8890   10.4780   19.9760 N   0  0  0  0  0  0  0  0  0  0  0  0
    1.2880    9.1700   19.9980 C   0  0  0  0  0  0  0  0  0  0  0  0
    1.9670    8.4930   19.1120 N   0  0  0  0  0  0  0  0  0  0  0  0
    2.1420    7.1940   19.5480 C   0  0  0  0  0  0  0  0  0  0  0  0
    1.5730    6.9150   20.7770 C   0  0  0  0  0  0  0  0  0  0  0  0
    0.8040    8.3200   21.3960 S   0  0  0  0  0  0  0  0  0  0  0  0
    0.3850   10.7990   20.7870 H   0  0  0  0  0  0  0  0  0  0  0  0
    1.5700    5.9860   21.3270 H   0  0  0  0  0  0  0  0  0  0  0  0
    2.8860    6.2450   18.7080 C   0  0  0  0  0  0  0  0  0  0  0  0
    3.9980    6.5270   17.9390 C   0  0  0  0  0  0  0  0  0  0  0  0
    4.3820    5.3720   17.3140 N   0  0  0  0  0  0  0  0  0  0  0  0
    3.5430    4.3390   17.6580 C   0  0  0  0  0  0  0  0  0  0  0  0
    3.5640    2.9960   17.2580 C   0  0  0  0  0  0  0  0  0  0  0  0
    2.5760    2.1490   17.7680 C   0  0  0  0  0  0  0  0  0  0  0  0
    1.6070    2.6280   18.6440 C   0  0  0  0  0  0  0  0  0  0  0  0
    1.6030    3.9730   19.0340 C   0  0  0  0  0  0  0  0  0  0  0  0
    2.5870    4.8560   18.5380 C   0  0  0  0  0  0  0  0  0  0  0  0
    4.5490    7.4440   17.7800 H   0  0  0  0  0  0  0  0  0  0  0  0
    5.1700    5.2820   16.6860 H   0  0  0  0  0  0  0  0  0  0  0  0
    4.3170    2.6190   16.5750 H   0  0  0  0  0  0  0  0  0  0  0  0
    2.5650    1.1020   17.4760 H   0  0  0  0  0  0  0  0  0  0  0  0
    0.8460    1.9590   19.0340 H   0  0  0  0  0  0  0  0  0  0  0  0
    0.8370    4.3290   19.7200 H   0  0  0  0  0  0  0  0  0  0  0  0
   -1.1280   14.1470   19.7830 C   0  0  0  0  0  0  0  0  0  0  0  0
   -0.3870   15.2670   19.4070 C   0  0  0  0  0  0  0  0  0  0  0  0
    0.9000   15.1160   18.8880 C   0  0  0  0  0  0  0  0  0  0  0  0
    1.4480   13.8420   18.7330 C   0  0  0  0  0  0  0  0  0  0  0  0
    0.6960   12.7140   19.0880 C   0  0  0  0  0  0  0  0  0  0  0  0
   -0.5910   12.8710   19.6220 C   0  0  0  0  0  0  0  0  0  0  0  0
   -0.8040   16.2670   19.5140 H   0  0  0  0  0  0  0  0  0  0  0  0
    1.4760   15.9980   18.6160 H   0  0  0  0  0  0  0  0  0  0  0  0
    2.4670   13.7520   18.3670 H   0  0  0  0  0  0  0  0  0  0  0  0
   -1.1580   11.9890   19.9130 H   0  0  0  0  0  0  0  0  0  0  0  0
   -2.4300   14.2770   20.3440 N   0  0  0  0  0  0  0  0  0  0  0  0
   -3.2210   14.0070   19.7580 H   0  0  0  0  0  0  0  0  0  0  0  0
   -2.6810   13.8740   21.9620 S   0  0  0  0  0  0  0  0  0  0  0  0
   -3.0750   12.4870   22.0680 O   0  0  0  0  0  0  0  0  0  0  0  0
   -1.5270   14.3820   22.6740 O   0  0  0  0  0  0  0  0  0  0  0  0
   -4.0730   14.8990   22.4000 C   0  0  0  0  0  0  0  0  0  0  0  0
   -4.1550   15.6880   21.6480 H   0  0  0  0  0  0  0  0  0  0  0  0
   -4.9790   14.2900   22.3950 H   0  0  0  0  0  0  0  0  0  0  0  0
   -3.9010   15.3450   23.3800 H   0  0  0  0  0  0  0  0  0  0  0  0
  1 30  1  0  0  0  0
  1  3  1  0  0  0  0
  2  1  2  0  0  0  0
  3  4  1  0  0  0  0
  3  9  1  0  0  0  0
  4  8  1  0  0  0  0
  5  6  1  0  0  0  0
  5  4  2  0  0  0  0
  6  7  2  0  0  0  0
  7 10  1  0  0  0  0
  7  8  1  0  0  0  0
 11  6  1  0  0  0  0
 12 11  2  0  0  0  0
 13 14  1  0  0  0  0
 13 12  1  0  0  0  0
 14 19  1  0  0  0  0
 15 14  2  0  0  0  0
 15 16  1  0  0  0  0
 16 17  2  0  0  0  0
 17 24  1  0  0  0  0
 17 18  1  0  0  0  0
 18 25  1  0  0  0  0
 19 11  1  0  0  0  0
 19 18  2  0  0  0  0
 20 12  1  0  0  0  0
 21 13  1  0  0  0  0
 22 15  1  0  0  0  0
 23 16  1  0  0  0  0
 26 36  1  0  0  0  0
 27 32  1  0  0  0  0
 27 26  2  0  0  0  0
 28 27  1  0  0  0  0
 29 28  2  0  0  0  0
 29 30  1  0  0  0  0
 30 31  2  0  0  0  0
 31 26  1  0  0  0  0
 31 35  1  0  0  0  0
 33 28  1  0  0  0  0
 34 29  1  0  0  0  0
 36 38  1  0  0  0  0
 37 36  1  0  0  0  0
 38 39  2  0  0  0  0
 38 41  1  0  0  0  0
 38 40  2  0  0  0  0
 41 44  1  0  0  0  0
 42 41  1  0  0  0  0
 43 41  1  0  0  0  0
M  END
>  <MODEL>
27

>  <REMARK>
 VINA RESULT:    -6.812      3.312      4.351
 INTER + INTRA:          -9.259
 INTER:                  -8.746
 INTRA:                  -0.513
 UNBOUND:                -0.655
  Name = 
  5 active torsions:
  status: ('A' for Active; 'I' for Inactive)
    1  A    between atoms: C_1  and  S_2
    2  A    between atoms: S_2  and  N_5
    3  A    between atoms: N_5  and  C_6
    4  A    between atoms: C_10  and  C_11
    5  A    between atoms: C_16  and  C_17
                            x       y       z     vdW  Elec       q    Type
                         _______ _______ _______ _____ _____    ______ ____

>  <TORSDO>
F 5

$$$$
=
 OpenBabel07192307433D

 44 47  0  0  0  0  0  0  0  0999 V2000
    0.8380    9.7190   21.0850 C   0  0  0  0  0  0  0  0  0  0  0  0
    0.9690    8.8250   21.9110 O   0  0  0  0  0  0  0  0  0  0  0  0
    1.2220    9.7060   19.7650 N   0  0  0  0  0  0  0  0  0  0  0  0
    1.8820    8.6460   19.2080 C   0  0  0  0  0  0  0  0  0  0  0  0
    2.3070    7.5450   19.7660 N   0  0  0  0  0  0  0  0  0  0  0  0
    2.9260    6.7490   18.8230 C   0  0  0  0  0  0  0  0  0  0  0  0
    2.9590    7.2840   17.5480 C   0  0  0  0  0  0  0  0  0  0  0  0
    2.1930    8.8200   17.5390 S   0  0  0  0  0  0  0  0  0  0  0  0
    0.9710   10.4510   19.1340 H   0  0  0  0  0  0  0  0  0  0  0  0
    3.3830    6.8630   16.6480 H   0  0  0  0  0  0  0  0  0  0  0  0
    3.4810    5.4500   19.2270 C   0  0  0  0  0  0  0  0  0  0  0  0
    4.7300    4.9550   18.9060 C   0  0  0  0  0  0  0  0  0  0  0  0
    4.8530    3.7170   19.4780 N   0  0  0  0  0  0  0  0  0  0  0  0
    3.7080    3.3920   20.1660 C   0  0  0  0  0  0  0  0  0  0  0  0
    3.4000    2.2350   20.8950 C   0  0  0  0  0  0  0  0  0  0  0  0
    2.1440    2.1650   21.5030 C   0  0  0  0  0  0  0  0  0  0  0  0
    1.2350    3.2120   21.3870 C   0  0  0  0  0  0  0  0  0  0  0  0
    1.5610    4.3610   20.6560 C   0  0  0  0  0  0  0  0  0  0  0  0
    2.8220    4.4640   20.0290 C   0  0  0  0  0  0  0  0  0  0  0  0
    5.5400    5.3710   18.3230 H   0  0  0  0  0  0  0  0  0  0  0  0
    5.6660    3.1200   19.4080 H   0  0  0  0  0  0  0  0  0  0  0  0
    4.1060    1.4170   20.9870 H   0  0  0  0  0  0  0  0  0  0  0  0
    1.8740    1.2810   22.0750 H   0  0  0  0  0  0  0  0  0  0  0  0
    0.2620    3.1450   21.8660 H   0  0  0  0  0  0  0  0  0  0  0  0
    0.8370    5.1690   20.5770 H   0  0  0  0  0  0  0  0  0  0  0  0
   -1.6320   11.9740   22.8180 C   0  0  0  0  0  0  0  0  0  0  0  0
   -1.1930   13.2380   22.4280 C   0  0  0  0  0  0  0  0  0  0  0  0
   -0.0750   13.3700   21.6020 C   0  0  0  0  0  0  0  0  0  0  0  0
    0.6020   12.2360   21.1530 C   0  0  0  0  0  0  0  0  0  0  0  0
    0.1470   10.9630   21.5230 C   0  0  0  0  0  0  0  0  0  0  0  0
   -0.9660   10.8360   22.3650 C   0  0  0  0  0  0  0  0  0  0  0  0
   -1.7150   14.1330   22.7630 H   0  0  0  0  0  0  0  0  0  0  0  0
    0.2700   14.3630   21.3190 H   0  0  0  0  0  0  0  0  0  0  0  0
    1.4940   12.3650   20.5450 H   0  0  0  0  0  0  0  0  0  0  0  0
   -1.2980    9.8440   22.6630 H   0  0  0  0  0  0  0  0  0  0  0  0
   -2.7490   11.8150   23.6860 N   0  0  0  0  0  0  0  0  0  0  0  0
   -2.5640   11.4720   24.6290 H   0  0  0  0  0  0  0  0  0  0  0  0
   -3.9850   12.9630   23.6670 S   0  0  0  0  0  0  0  0  0  0  0  0
   -3.4900   14.2260   24.1670 O   0  0  0  0  0  0  0  0  0  0  0  0
   -4.5910   12.8610   22.3560 O   0  0  0  0  0  0  0  0  0  0  0  0
   -5.1440   12.2960   24.8460 C   0  0  0  0  0  0  0  0  0  0  0  0
   -5.0830   11.2060   24.7940 H   0  0  0  0  0  0  0  0  0  0  0  0
   -4.8670   12.6330   25.8460 H   0  0  0  0  0  0  0  0  0  0  0  0
   -6.1530   12.6180   24.5840 H   0  0  0  0  0  0  0  0  0  0  0  0
  1 30  1  0  0  0  0
  1  2  2  0  0  0  0
  3  1  1  0  0  0  0
  4  3  1  0  0  0  0
  4  5  2  0  0  0  0
  6 11  1  0  0  0  0
  6  5  1  0  0  0  0
  7  6  2  0  0  0  0
  8  7  1  0  0  0  0
  8  4  1  0  0  0  0
  9  3  1  0  0  0  0
 10  7  1  0  0  0  0
 11 19  1  0  0  0  0
 12 11  2  0  0  0  0
 12 13  1  0  0  0  0
 13 14  1  0  0  0  0
 14 15  1  0  0  0  0
 15 22  1  0  0  0  0
 15 16  2  0  0  0  0
 16 23  1  0  0  0  0
 17 16  1  0  0  0  0
 17 24  1  0  0  0  0
 18 17  2  0  0  0  0
 19 14  2  0  0  0  0
 19 18  1  0  0  0  0
 20 12  1  0  0  0  0
 21 13  1  0  0  0  0
 25 18  1  0  0  0  0
 26 36  1  0  0  0  0
 27 32  1  0  0  0  0
 27 26  1  0  0  0  0
 28 27  2  0  0  0  0
 29 30  2  0  0  0  0
 29 28  1  0  0  0  0
 30 31  1  0  0  0  0
 31 35  1  0  0  0  0
 31 26  2  0  0  0  0
 33 28  1  0  0  0  0
 34 29  1  0  0  0  0
 36 37  1  0  0  0  0
 38 36  1  0  0  0  0
 38 39  2  0  0  0  0
 38 41  1  0  0  0  0
 40 38  2  0  0  0  0
 41 43  1  0  0  0  0
 42 41  1  0  0  0  0
 44 41  1  0  0  0  0
M  END
>  <MODEL>
28

>  <REMARK>
 VINA RESULT:    -6.808      3.884      5.303
 INTER + INTRA:          -9.254
 INTER:                  -9.016
 INTRA:                  -0.238
 UNBOUND:                -0.655
  Name = 
  5 active torsions:
  status: ('A' for Active; 'I' for Inactive)
    1  A    between atoms: C_1  and  S_2
    2  A    between atoms: S_2  and  N_5
    3  A    between atoms: N_5  and  C_6
    4  A    between atoms: C_10  and  C_11
    5  A    between atoms: C_16  and  C_17
                            x       y       z     vdW  Elec       q    Type
                         _______ _______ _______ _____ _____    ______ ____

>  <TORSDO>
F 5

$$$$
=
 OpenBabel07192307433D

 44 47  0  0  0  0  0  0  0  0999 V2000
    1.2280    9.1310   20.2600 C   0  0  0  0  0  0  0  0  0  0  0  0
    0.8040    9.0180   21.4040 O   0  0  0  0  0  0  0  0  0  0  0  0
    1.2160   10.2540   19.4670 N   0  0  0  0  0  0  0  0  0  0  0  0
    0.6450   11.4280   19.8750 C   0  0  0  0  0  0  0  0  0  0  0  0
   -0.0040   11.6990   20.9740 N   0  0  0  0  0  0  0  0  0  0  0  0
   -0.4090   13.0200   20.9660 C   0  0  0  0  0  0  0  0  0  0  0  0
   -0.0520   13.7270   19.8330 C   0  0  0  0  0  0  0  0  0  0  0  0
    0.8130   12.7060   18.7560 S   0  0  0  0  0  0  0  0  0  0  0  0
    1.6890   10.2780   18.5780 H   0  0  0  0  0  0  0  0  0  0  0  0
   -0.2490   14.7600   19.5890 H   0  0  0  0  0  0  0  0  0  0  0  0
   -1.1590   13.5510   22.1130 C   0  0  0  0  0  0  0  0  0  0  0  0
   -0.6560   14.3410   23.1270 C   0  0  0  0  0  0  0  0  0  0  0  0
   -1.6790   14.6180   23.9930 N   0  0  0  0  0  0  0  0  0  0  0  0
   -2.8420   14.0230   23.5660 C   0  0  0  0  0  0  0  0  0  0  0  0
   -4.1210   14.0410   24.1390 C   0  0  0  0  0  0  0  0  0  0  0  0
   -5.1370   13.3390   23.4860 C   0  0  0  0  0  0  0  0  0  0  0  0
   -4.8830   12.6490   22.3050 C   0  0  0  0  0  0  0  0  0  0  0  0
   -3.6000   12.6430   21.7460 C   0  0  0  0  0  0  0  0  0  0  0  0
   -2.5490   13.3420   22.3810 C   0  0  0  0  0  0  0  0  0  0  0  0
    0.3360   14.7310   23.3110 H   0  0  0  0  0  0  0  0  0  0  0  0
   -1.5990   15.1780   24.8320 H   0  0  0  0  0  0  0  0  0  0  0  0
   -4.3230   14.5780   25.0600 H   0  0  0  0  0  0  0  0  0  0  0  0
   -6.1410   13.3340   23.9050 H   0  0  0  0  0  0  0  0  0  0  0  0
   -5.6830   12.1080   21.8060 H   0  0  0  0  0  0  0  0  0  0  0  0
   -3.4200   12.0970   20.8220 H   0  0  0  0  0  0  0  0  0  0  0  0
    2.5920    5.6390   19.8950 C   0  0  0  0  0  0  0  0  0  0  0  0
    3.0420    5.6410   18.5760 C   0  0  0  0  0  0  0  0  0  0  0  0
    2.8960    6.7810   17.7840 C   0  0  0  0  0  0  0  0  0  0  0  0
    2.3060    7.9300   18.3130 C   0  0  0  0  0  0  0  0  0  0  0  0
    1.8750    7.9390   19.6470 C   0  0  0  0  0  0  0  0  0  0  0  0
    2.0110    6.7860   20.4340 C   0  0  0  0  0  0  0  0  0  0  0  0
    3.5120    4.7550   18.1510 H   0  0  0  0  0  0  0  0  0  0  0  0
    3.2340    6.7650   16.7500 H   0  0  0  0  0  0  0  0  0  0  0  0
    2.1650    8.7910   17.6660 H   0  0  0  0  0  0  0  0  0  0  0  0
    1.6540    6.7970   21.4610 H   0  0  0  0  0  0  0  0  0  0  0  0
    2.7020    4.4780   20.7110 N   0  0  0  0  0  0  0  0  0  0  0  0
    2.9430    4.6180   21.6930 H   0  0  0  0  0  0  0  0  0  0  0  0
    1.6050    3.2130   20.5090 S   0  0  0  0  0  0  0  0  0  0  0  0
    1.4200    2.5170   21.7620 O   0  0  0  0  0  0  0  0  0  0  0  0
    0.4810    3.7830   19.7940 O   0  0  0  0  0  0  0  0  0  0  0  0
    2.4670    2.1370   19.3780 C   0  0  0  0  0  0  0  0  0  0  0  0
    3.4270    2.6020   19.1420 H   0  0  0  0  0  0  0  0  0  0  0  0
    2.6340    1.1730   19.8630 H   0  0  0  0  0  0  0  0  0  0  0  0
    1.8800    2.0250   18.4650 H   0  0  0  0  0  0  0  0  0  0  0  0
  1  2  2  0  0  0  0
  3  4  1  0  0  0  0
  3  1  1  0  0  0  0
  4  5  2  0  0  0  0
  6  5  1  0  0  0  0
  6 11  1  0  0  0  0
  7  6  2  0  0  0  0
  8  7  1  0  0  0  0
  8  4  1  0  0  0  0
  9  3  1  0  0  0  0
 10  7  1  0  0  0  0
 11 19  1  0  0  0  0
 11 12  2  0  0  0  0
 12 20  1  0  0  0  0
 12 13  1  0  0  0  0
 13 21  1  0  0  0  0
 14 13  1  0  0  0  0
 14 15  1  0  0  0  0
 15 22  1  0  0  0  0
 16 23  1  0  0  0  0
 16 15  2  0  0  0  0
 17 16  1  0  0  0  0
 18 17  2  0  0  0  0
 18 19  1  0  0  0  0
 19 14  2  0  0  0  0
 24 17  1  0  0  0  0
 25 18  1  0  0  0  0
 26 31  1  0  0  0  0
 26 36  1  0  0  0  0
 27 26  2  0  0  0  0
 28 29  2  0  0  0  0
 28 27  1  0  0  0  0
 29 30  1  0  0  0  0
 30  1  1  0  0  0  0
 30 31  2  0  0  0  0
 31 35  1  0  0  0  0
 32 27  1  0  0  0  0
 33 28  1  0  0  0  0
 34 29  1  0  0  0  0
 36 37  1  0  0  0  0
 38 36  1  0  0  0  0
 38 39  2  0  0  0  0
 40 38  2  0  0  0  0
 41 43  1  0  0  0  0
 41 38  1  0  0  0  0
 42 41  1  0  0  0  0
 44 41  1  0  0  0  0
M  END
>  <MODEL>
29

>  <REMARK>
 VINA RESULT:    -6.722      4.132     10.326
 INTER + INTRA:          -9.145
 INTER:                  -8.591
 INTRA:                  -0.554
 UNBOUND:                -0.655
  Name = 
  5 active torsions:
  status: ('A' for Active; 'I' for Inactive)
    1  A    between atoms: C_1  and  S_2
    2  A    between atoms: S_2  and  N_5
    3  A    between atoms: N_5  and  C_6
    4  A    between atoms: C_10  and  C_11
    5  A    between atoms: C_16  and  C_17
                            x       y       z     vdW  Elec       q    Type
                         _______ _______ _______ _____ _____    ______ ____

>  <TORSDO>
F 5

$$$$
=
 OpenBabel07192307433D

 44 47  0  0  0  0  0  0  0  0999 V2000
    2.1690    7.6710   19.1130 C   0  0  0  0  0  0  0  0  0  0  0  0
    1.6650    8.2730   18.1730 O   0  0  0  0  0  0  0  0  0  0  0  0
    1.9600    7.8820   20.4560 N   0  0  0  0  0  0  0  0  0  0  0  0
    1.1540    8.8850   20.9180 C   0  0  0  0  0  0  0  0  0  0  0  0
    0.5160    9.8120   20.2560 N   0  0  0  0  0  0  0  0  0  0  0  0
   -0.1800   10.6210   21.1330 C   0  0  0  0  0  0  0  0  0  0  0  0
   -0.0420   10.2800   22.4660 C   0  0  0  0  0  0  0  0  0  0  0  0
    0.9830    8.9110   22.6160 S   0  0  0  0  0  0  0  0  0  0  0  0
    2.3370    7.2610   21.1530 H   0  0  0  0  0  0  0  0  0  0  0  0
   -0.4790   10.7510   23.3340 H   0  0  0  0  0  0  0  0  0  0  0  0
   -0.9780   11.7360   20.6070 C   0  0  0  0  0  0  0  0  0  0  0  0
   -0.8360   12.3350   19.3710 C   0  0  0  0  0  0  0  0  0  0  0  0
   -1.7710   13.3300   19.2740 N   0  0  0  0  0  0  0  0  0  0  0  0
   -2.5220   13.3950   20.4240 C   0  0  0  0  0  0  0  0  0  0  0  0
   -3.5780   14.2540   20.7580 C   0  0  0  0  0  0  0  0  0  0  0  0
   -4.1700   14.1000   22.0130 C   0  0  0  0  0  0  0  0  0  0  0  0
   -3.7240   13.1230   22.8990 C   0  0  0  0  0  0  0  0  0  0  0  0
   -2.6690   12.2730   22.5480 C   0  0  0  0  0  0  0  0  0  0  0  0
   -2.0470   12.4020   21.2870 C   0  0  0  0  0  0  0  0  0  0  0  0
   -0.1560   12.1430   18.5520 H   0  0  0  0  0  0  0  0  0  0  0  0
   -1.8980   13.9370   18.4750 H   0  0  0  0  0  0  0  0  0  0  0  0
   -3.9280   15.0160   20.0700 H   0  0  0  0  0  0  0  0  0  0  0  0
   -4.9920   14.7510   22.3020 H   0  0  0  0  0  0  0  0  0  0  0  0
   -4.1950   13.0140   23.8710 H   0  0  0  0  0  0  0  0  0  0  0  0
   -2.3330   11.5160   23.2540 H   0  0  0  0  0  0  0  0  0  0  0  0
    4.6680    5.5650   17.2390 C   0  0  0  0  0  0  0  0  0  0  0  0
    4.8680    4.5020   18.1180 C   0  0  0  0  0  0  0  0  0  0  0  0
    4.1970    4.4660   19.3420 C   0  0  0  0  0  0  0  0  0  0  0  0
    3.3130    5.4890   19.6860 C   0  0  0  0  0  0  0  0  0  0  0  0
    3.0910    6.5460   18.7930 C   0  0  0  0  0  0  0  0  0  0  0  0
    3.7790    6.5860   17.5720 C   0  0  0  0  0  0  0  0  0  0  0  0
    5.5480    3.6920   17.8600 H   0  0  0  0  0  0  0  0  0  0  0  0
    4.3750    3.6410   20.0280 H   0  0  0  0  0  0  0  0  0  0  0  0
    2.8340    5.4600   20.6610 H   0  0  0  0  0  0  0  0  0  0  0  0
    3.6150    7.4220   16.8960 H   0  0  0  0  0  0  0  0  0  0  0  0
    5.3660    5.6410   16.0000 N   0  0  0  0  0  0  0  0  0  0  0  0
    5.6030    6.5710   15.6530 H   0  0  0  0  0  0  0  0  0  0  0  0
    6.5740    4.5150   15.6580 S   0  0  0  0  0  0  0  0  0  0  0  0
    7.6200    4.5990   16.6520 O   0  0  0  0  0  0  0  0  0  0  0  0
    5.8830    3.2690   15.3980 O   0  0  0  0  0  0  0  0  0  0  0  0
    7.2150    5.1050   14.1020 C   0  0  0  0  0  0  0  0  0  0  0  0
    6.3790    5.5140   13.5300 H   0  0  0  0  0  0  0  0  0  0  0  0
    7.9480    5.8900   14.2950 H   0  0  0  0  0  0  0  0  0  0  0  0
    7.6610    4.2730   13.5540 H   0  0  0  0  0  0  0  0  0  0  0  0
  1  3  1  0  0  0  0
  2  1  2  0  0  0  0
  3  4  1  0  0  0  0
  3  9  1  0  0  0  0
  4  8  1  0  0  0  0
  5  4  2  0  0  0  0
  5  6  1  0  0  0  0
  6  7  2  0  0  0  0
  7  8  1  0  0  0  0
  7 10  1  0  0  0  0
 11  6  1  0  0  0  0
 11 19  1  0  0  0  0
 12 11  2  0  0  0  0
 13 12  1  0  0  0  0
 13 14  1  0  0  0  0
 14 15  2  0  0  0  0
 14 19  1  0  0  0  0
 15 16  1  0  0  0  0
 16 23  1  0  0  0  0
 16 17  2  0  0  0  0
 17 24  1  0  0  0  0
 18 17  1  0  0  0  0
 18 25  1  0  0  0  0
 19 18  2  0  0  0  0
 20 12  1  0  0  0  0
 21 13  1  0  0  0  0
 22 15  1  0  0  0  0
 26 31  2  0  0  0  0
 26 27  1  0  0  0  0
 27 28  2  0  0  0  0
 28 29  1  0  0  0  0
 28 33  1  0  0  0  0
 29 34  1  0  0  0  0
 30  1  1  0  0  0  0
 30 29  2  0  0  0  0
 31 30  1  0  0  0  0
 32 27  1  0  0  0  0
 35 31  1  0  0  0  0
 36 26  1  0  0  0  0
 37 36  1  0  0  0  0
 38 36  1  0  0  0  0
 38 39  2  0  0  0  0
 40 38  2  0  0  0  0
 41 43  1  0  0  0  0
 41 38  1  0  0  0  0
 42 41  1  0  0  0  0
 44 41  1  0  0  0  0
M  END
>  <MODEL>
30

>  <REMARK>
 VINA RESULT:    -6.689      3.094     10.035
 INTER + INTRA:          -9.104
 INTER:                  -9.146
 INTRA:                   0.042
 UNBOUND:                -0.655
  Name = 
  5 active torsions:
  status: ('A' for Active; 'I' for Inactive)
    1  A    between atoms: C_1  and  S_2
    2  A    between atoms: S_2  and  N_5
    3  A    between atoms: N_5  and  C_6
    4  A    between atoms: C_10  and  C_11
    5  A    between atoms: C_16  and  C_17
                            x       y       z     vdW  Elec       q    Type
                         _______ _______ _______ _____ _____    ______ ____

>  <TORSDO>
F 5

$$$$
=
 OpenBabel07192307433D

 44 47  0  0  0  0  0  0  0  0999 V2000
    2.2270    7.9810   18.1300 C   0  0  0  0  0  0  0  0  0  0  0  0
    1.1940    7.6050   18.6710 O   0  0  0  0  0  0  0  0  0  0  0  0
    2.6250    9.2750   17.8900 N   0  0  0  0  0  0  0  0  0  0  0  0
    1.8390   10.3490   18.2020 C   0  0  0  0  0  0  0  0  0  0  0  0
    0.6290   10.3810   18.6910 N   0  0  0  0  0  0  0  0  0  0  0  0
    0.2190   11.6910   18.8460 C   0  0  0  0  0  0  0  0  0  0  0  0
    1.1480   12.6370   18.4540 C   0  0  0  0  0  0  0  0  0  0  0  0
    2.5670   11.8590   17.8820 S   0  0  0  0  0  0  0  0  0  0  0  0
    3.5450    9.4880   17.5380 H   0  0  0  0  0  0  0  0  0  0  0  0
    1.0680   13.7130   18.4750 H   0  0  0  0  0  0  0  0  0  0  0  0
   -1.1180   11.9680   19.3890 C   0  0  0  0  0  0  0  0  0  0  0  0
   -2.2940   12.0570   18.6700 C   0  0  0  0  0  0  0  0  0  0  0  0
   -3.3070   12.3280   19.5500 N   0  0  0  0  0  0  0  0  0  0  0  0
   -2.8170   12.4200   20.8310 C   0  0  0  0  0  0  0  0  0  0  0  0
   -3.4910   12.6800   22.0310 C   0  0  0  0  0  0  0  0  0  0  0  0
   -2.7370   12.7180   23.2070 C   0  0  0  0  0  0  0  0  0  0  0  0
   -1.3620   12.5020   23.1800 C   0  0  0  0  0  0  0  0  0  0  0  0
   -0.7050   12.2420   21.9710 C   0  0  0  0  0  0  0  0  0  0  0  0
   -1.4380   12.1970   20.7650 C   0  0  0  0  0  0  0  0  0  0  0  0
   -2.5010   11.9530   17.6130 H   0  0  0  0  0  0  0  0  0  0  0  0
   -4.2800   12.4470   19.3010 H   0  0  0  0  0  0  0  0  0  0  0  0
   -4.5620   12.8490   22.0560 H   0  0  0  0  0  0  0  0  0  0  0  0
   -3.2300   12.9170   24.1550 H   0  0  0  0  0  0  0  0  0  0  0  0
   -0.7880   12.5330   24.1010 H   0  0  0  0  0  0  0  0  0  0  0  0
    0.3700   12.0770   21.9710 H   0  0  0  0  0  0  0  0  0  0  0  0
    3.6810    4.5850   17.3980 C   0  0  0  0  0  0  0  0  0  0  0  0
    4.9460    4.9100   16.9120 C   0  0  0  0  0  0  0  0  0  0  0  0
    5.3370    6.2470   16.8070 C   0  0  0  0  0  0  0  0  0  0  0  0
    4.4650    7.2640   17.1980 C   0  0  0  0  0  0  0  0  0  0  0  0
    3.2020    6.9380   17.7100 C   0  0  0  0  0  0  0  0  0  0  0  0
    2.8090    5.5950   17.8000 C   0  0  0  0  0  0  0  0  0  0  0  0
    5.6410    4.1280   16.6110 H   0  0  0  0  0  0  0  0  0  0  0  0
    6.3200    6.4900   16.4080 H   0  0  0  0  0  0  0  0  0  0  0  0
    4.7750    8.2970   17.0670 H   0  0  0  0  0  0  0  0  0  0  0  0
    1.8180    5.3550   18.1790 H   0  0  0  0  0  0  0  0  0  0  0  0
    3.2490    3.2310   17.4840 N   0  0  0  0  0  0  0  0  0  0  0  0
    3.3620    2.6500   16.6530 H   0  0  0  0  0  0  0  0  0  0  0  0
    3.5260    2.3600   18.9020 S   0  0  0  0  0  0  0  0  0  0  0  0
    3.7950    0.9760   18.5830 O   0  0  0  0  0  0  0  0  0  0  0  0
    4.4680    3.1510   19.6670 O   0  0  0  0  0  0  0  0  0  0  0  0
    1.9490    2.4610   19.7270 C   0  0  0  0  0  0  0  0  0  0  0  0
    1.7640    3.5120   19.9650 H   0  0  0  0  0  0  0  0  0  0  0  0
    1.1720    2.0940   19.0540 H   0  0  0  0  0  0  0  0  0  0  0  0
    1.9830    1.8780   20.6490 H   0  0  0  0  0  0  0  0  0  0  0  0
  1  2  2  0  0  0  0
  3  1  1  0  0  0  0
  3  4  1  0  0  0  0
  4  5  2  0  0  0  0
  5  6  1  0  0  0  0
  6 11  1  0  0  0  0
  7 10  1  0  0  0  0
  7  6  2  0  0  0  0
  8  4  1  0  0  0  0
  8  7  1  0  0  0  0
  9  3  1  0  0  0  0
 11 19  1  0  0  0  0
 12 11  2  0  0  0  0
 12 13  1  0  0  0  0
 13 14  1  0  0  0  0
 14 15  1  0  0  0  0
 15 22  1  0  0  0  0
 15 16  2  0  0  0  0
 16 23  1  0  0  0  0
 17 16  1  0  0  0  0
 17 24  1  0  0  0  0
 18 17  2  0  0  0  0
 19 14  2  0  0  0  0
 19 18  1  0  0  0  0
 20 12  1  0  0  0  0
 21 13  1  0  0  0  0
 25 18  1  0  0  0  0
 26 36  1  0  0  0  0
 26 31  1  0  0  0  0
 27 26  2  0  0  0  0
 28 27  1  0  0  0  0
 28 29  2  0  0  0  0
 29 30  1  0  0  0  0
 30 31  2  0  0  0  0
 30  1  1  0  0  0  0
 31 35  1  0  0  0  0
 32 27  1  0  0  0  0
 33 28  1  0  0  0  0
 34 29  1  0  0  0  0
 36 38  1  0  0  0  0
 37 36  1  0  0  0  0
 38 40  2  0  0  0  0
 38 41  1  0  0  0  0
 39 38  2  0  0  0  0
 41 42  1  0  0  0  0
 41 44  1  0  0  0  0
 43 41  1  0  0  0  0
M  END
>  <MODEL>
31

>  <REMARK>
 VINA RESULT:    -6.677      3.252      9.790
 INTER + INTRA:          -9.089
 INTER:                  -8.532
 INTRA:                  -0.557
 UNBOUND:                -0.655
  Name = 
  5 active torsions:
  status: ('A' for Active; 'I' for Inactive)
    1  A    between atoms: C_1  and  S_2
    2  A    between atoms: S_2  and  N_5
    3  A    between atoms: N_5  and  C_6
    4  A    between atoms: C_10  and  C_11
    5  A    between atoms: C_16  and  C_17
                            x       y       z     vdW  Elec       q    Type
                         _______ _______ _______ _____ _____    ______ ____

>  <TORSDO>
F 5

$$$$
=
 OpenBabel07192307433D

 44 47  0  0  0  0  0  0  0  0999 V2000
    1.9870    6.6970   20.1610 C   0  0  0  0  0  0  0  0  0  0  0  0
    1.4430    6.8720   21.2440 O   0  0  0  0  0  0  0  0  0  0  0  0
    2.1500    7.6110   19.1460 N   0  0  0  0  0  0  0  0  0  0  0  0
    1.6450    8.8790   19.2200 C   0  0  0  0  0  0  0  0  0  0  0  0
    0.9150    9.4310   20.1510 N   0  0  0  0  0  0  0  0  0  0  0  0
    0.6280   10.7380   19.8090 C   0  0  0  0  0  0  0  0  0  0  0  0
    1.1560   11.1480   18.5980 C   0  0  0  0  0  0  0  0  0  0  0  0
    2.0320    9.8600   17.8770 S   0  0  0  0  0  0  0  0  0  0  0  0
    2.7100    7.4040   18.3340 H   0  0  0  0  0  0  0  0  0  0  0  0
    1.0730   12.1090   18.1140 H   0  0  0  0  0  0  0  0  0  0  0  0
   -0.1840   11.5600   20.7170 C   0  0  0  0  0  0  0  0  0  0  0  0
   -1.4430   11.2560   21.1940 C   0  0  0  0  0  0  0  0  0  0  0  0
   -1.8450   12.2800   22.0090 N   0  0  0  0  0  0  0  0  0  0  0  0
   -0.8720   13.2490   22.0740 C   0  0  0  0  0  0  0  0  0  0  0  0
   -0.8580   14.4580   22.7820 C   0  0  0  0  0  0  0  0  0  0  0  0
    0.2750   15.2670   22.6680 C   0  0  0  0  0  0  0  0  0  0  0  0
    1.3520   14.8790   21.8760 C   0  0  0  0  0  0  0  0  0  0  0  0
    1.3220   13.6670   21.1760 C   0  0  0  0  0  0  0  0  0  0  0  0
    0.1910   12.8260   21.2710 C   0  0  0  0  0  0  0  0  0  0  0  0
   -2.0900   10.4050   21.0270 H   0  0  0  0  0  0  0  0  0  0  0  0
   -2.7290   12.3250   22.4970 H   0  0  0  0  0  0  0  0  0  0  0  0
   -1.6960   14.7640   23.4000 H   0  0  0  0  0  0  0  0  0  0  0  0
    0.3170   16.2120   23.2050 H   0  0  0  0  0  0  0  0  0  0  0  0
    2.2270   15.5170   21.7960 H   0  0  0  0  0  0  0  0  0  0  0  0
    2.1730   13.3810   20.5620 H   0  0  0  0  0  0  0  0  0  0  0  0
    4.5190    4.0790   19.1980 C   0  0  0  0  0  0  0  0  0  0  0  0
    3.8120    2.8980   19.4180 C   0  0  0  0  0  0  0  0  0  0  0  0
    2.5000    2.9420   19.8950 C   0  0  0  0  0  0  0  0  0  0  0  0
    1.8870    4.1700   20.1450 C   0  0  0  0  0  0  0  0  0  0  0  0
    2.5870    5.3590   19.9010 C   0  0  0  0  0  0  0  0  0  0  0  0
    3.9090    5.3100   19.4350 C   0  0  0  0  0  0  0  0  0  0  0  0
    4.2730    1.9320   19.2200 H   0  0  0  0  0  0  0  0  0  0  0  0
    1.9650    2.0130   20.0820 H   0  0  0  0  0  0  0  0  0  0  0  0
    0.8810    4.1790   20.5560 H   0  0  0  0  0  0  0  0  0  0  0  0
    4.4500    6.2390   19.2690 H   0  0  0  0  0  0  0  0  0  0  0  0
    5.8670    4.0590   18.7420 N   0  0  0  0  0  0  0  0  0  0  0  0
    6.4280    3.2380   18.9750 H   0  0  0  0  0  0  0  0  0  0  0  0
    6.2330    4.6540   17.2070 S   0  0  0  0  0  0  0  0  0  0  0  0
    7.6110    4.3610   16.8820 O   0  0  0  0  0  0  0  0  0  0  0  0
    5.1510    4.2140   16.3500 O   0  0  0  0  0  0  0  0  0  0  0  0
    6.0590    6.4140   17.4270 C   0  0  0  0  0  0  0  0  0  0  0  0
    6.8840    6.9000   16.9010 H   0  0  0  0  0  0  0  0  0  0  0  0
    5.1080    6.7340   16.9950 H   0  0  0  0  0  0  0  0  0  0  0  0
    6.1110    6.6540   18.4900 H   0  0  0  0  0  0  0  0  0  0  0  0
  1  2  2  0  0  0  0
  3  4  1  0  0  0  0
  3  1  1  0  0  0  0
  4  5  2  0  0  0  0
  6  5  1  0  0  0  0
  6 11  1  0  0  0  0
  7  6  2  0  0  0  0
  8  7  1  0  0  0  0
  8  4  1  0  0  0  0
  9  3  1  0  0  0  0
 10  7  1  0  0  0  0
 11 12  2  0  0  0  0
 11 19  1  0  0  0  0
 12 13  1  0  0  0  0
 13 14  1  0  0  0  0
 13 21  1  0  0  0  0
 14 15  1  0  0  0  0
 15 22  1  0  0  0  0
 16 15  2  0  0  0  0
 16 23  1  0  0  0  0
 17 16  1  0  0  0  0
 18 19  1  0  0  0  0
 18 17  2  0  0  0  0
 19 14  2  0  0  0  0
 20 12  1  0  0  0  0
 24 17  1  0  0  0  0
 25 18  1  0  0  0  0
 26 27  2  0  0  0  0
 26 31  1  0  0  0  0
 27 28  1  0  0  0  0
 28 33  1  0  0  0  0
 28 29  2  0  0  0  0
 29 34  1  0  0  0  0
 30 29  1  0  0  0  0
 30  1  1  0  0  0  0
 31 30  2  0  0  0  0
 32 27  1  0  0  0  0
 35 31  1  0  0  0  0
 36 37  1  0  0  0  0
 36 26  1  0  0  0  0
 38 41  1  0  0  0  0
 38 36  1  0  0  0  0
 39 38  2  0  0  0  0
 40 38  2  0  0  0  0
 41 44  1  0  0  0  0
 42 41  1  0  0  0  0
 43 41  1  0  0  0  0
M  END
>  <MODEL>
32

>  <REMARK>
 VINA RESULT:    -6.641      3.648      9.763
 INTER + INTRA:          -9.044
 INTER:                  -8.807
 INTRA:                  -0.237
 UNBOUND:                -0.655
  Name = 
  5 active torsions:
  status: ('A' for Active; 'I' for Inactive)
    1  A    between atoms: C_1  and  S_2
    2  A    between atoms: S_2  and  N_5
    3  A    between atoms: N_5  and  C_6
    4  A    between atoms: C_10  and  C_11
    5  A    between atoms: C_16  and  C_17
                            x       y       z     vdW  Elec       q    Type
                         _______ _______ _______ _____ _____    ______ ____

>  <TORSDO>
F 5

$$$$
=
 OpenBabel07192307433D

 44 47  0  0  0  0  0  0  0  0999 V2000
    1.5980    7.4670   20.1750 C   0  0  0  0  0  0  0  0  0  0  0  0
    1.0550    7.7050   21.2470 O   0  0  0  0  0  0  0  0  0  0  0  0
    1.8760    8.3520   19.1600 N   0  0  0  0  0  0  0  0  0  0  0  0
    1.5060    9.6680   19.2180 C   0  0  0  0  0  0  0  0  0  0  0  0
    0.8210   10.2990   20.1320 N   0  0  0  0  0  0  0  0  0  0  0  0
    0.6810   11.6270   19.7800 C   0  0  0  0  0  0  0  0  0  0  0  0
    1.2710   11.9710   18.5780 C   0  0  0  0  0  0  0  0  0  0  0  0
    2.0200   10.5930   17.8800 S   0  0  0  0  0  0  0  0  0  0  0  0
    2.4260    8.0830   18.3600 H   0  0  0  0  0  0  0  0  0  0  0  0
    1.3000   12.9330   18.0880 H   0  0  0  0  0  0  0  0  0  0  0  0
   -0.0570   12.5350   20.6690 C   0  0  0  0  0  0  0  0  0  0  0  0
    0.4830   13.3310   21.6600 C   0  0  0  0  0  0  0  0  0  0  0  0
   -0.5410   14.0200   22.2520 N   0  0  0  0  0  0  0  0  0  0  0  0
   -1.7410   13.6910   21.6680 C   0  0  0  0  0  0  0  0  0  0  0  0
   -3.0330   14.1520   21.9530 C   0  0  0  0  0  0  0  0  0  0  0  0
   -4.0890   13.6420   21.1940 C   0  0  0  0  0  0  0  0  0  0  0  0
   -3.8590   12.7090   20.1870 C   0  0  0  0  0  0  0  0  0  0  0  0
   -2.5610   12.2610   19.9140 C   0  0  0  0  0  0  0  0  0  0  0  0
   -1.4710   12.7560   20.6640 C   0  0  0  0  0  0  0  0  0  0  0  0
    1.5010   13.4680   21.9980 H   0  0  0  0  0  0  0  0  0  0  0  0
   -0.4380   14.6790   23.0120 H   0  0  0  0  0  0  0  0  0  0  0  0
   -3.2160   14.8790   22.7380 H   0  0  0  0  0  0  0  0  0  0  0  0
   -5.1040   13.9800   21.3910 H   0  0  0  0  0  0  0  0  0  0  0  0
   -4.6890   12.3220   19.6030 H   0  0  0  0  0  0  0  0  0  0  0  0
   -2.4010   11.5310   19.1230 H   0  0  0  0  0  0  0  0  0  0  0  0
    3.1460    4.5010   18.4450 C   0  0  0  0  0  0  0  0  0  0  0  0
    2.9870    3.4950   19.3970 C   0  0  0  0  0  0  0  0  0  0  0  0
    2.3810    3.7770   20.6230 C   0  0  0  0  0  0  0  0  0  0  0  0
    1.9210    5.0660   20.8980 C   0  0  0  0  0  0  0  0  0  0  0  0
    2.0580    6.0720   19.9320 C   0  0  0  0  0  0  0  0  0  0  0  0
    2.6800    5.7880   18.7080 C   0  0  0  0  0  0  0  0  0  0  0  0
    3.3320    2.4820   19.1950 H   0  0  0  0  0  0  0  0  0  0  0  0
    2.2790    2.9890   21.3670 H   0  0  0  0  0  0  0  0  0  0  0  0
    1.4910    5.2710   21.8740 H   0  0  0  0  0  0  0  0  0  0  0  0
    2.7990    6.5820   17.9740 H   0  0  0  0  0  0  0  0  0  0  0  0
    3.7890    4.2450   17.2010 N   0  0  0  0  0  0  0  0  0  0  0  0
    3.2420    4.3950   16.3520 H   0  0  0  0  0  0  0  0  0  0  0  0
    5.4030    4.6870   16.9940 S   0  0  0  0  0  0  0  0  0  0  0  0
    6.0440    4.8250   18.2820 O   0  0  0  0  0  0  0  0  0  0  0  0
    5.9270    3.7860   15.9880 O   0  0  0  0  0  0  0  0  0  0  0  0
    5.2650    6.3000   16.2470 C   0  0  0  0  0  0  0  0  0  0  0  0
    4.3380    6.7550   16.6060 H   0  0  0  0  0  0  0  0  0  0  0  0
    6.1170    6.9080   16.5550 H   0  0  0  0  0  0  0  0  0  0  0  0
    5.2240    6.1950   15.1620 H   0  0  0  0  0  0  0  0  0  0  0  0
  1  2  2  0  0  0  0
  3  4  1  0  0  0  0
  3  1  1  0  0  0  0
  4  5  2  0  0  0  0
  6  5  1  0  0  0  0
  6 11  1  0  0  0  0
  7  6  2  0  0  0  0
  8  7  1  0  0  0  0
  8  4  1  0  0  0  0
  9  3  1  0  0  0  0
 10  7  1  0  0  0  0
 11 12  2  0  0  0  0
 12 20  1  0  0  0  0
 12 13  1  0  0  0  0
 13 21  1  0  0  0  0
 14 15  1  0  0  0  0
 14 13  1  0  0  0  0
 15 22  1  0  0  0  0
 16 23  1  0  0  0  0
 16 15  2  0  0  0  0
 17 16  1  0  0  0  0
 18 17  2  0  0  0  0
 18 19  1  0  0  0  0
 19 11  1  0  0  0  0
 19 14  2  0  0  0  0
 24 17  1  0  0  0  0
 25 18  1  0  0  0  0
 26 31  2  0  0  0  0
 26 27  1  0  0  0  0
 27 28  2  0  0  0  0
 28 29  1  0  0  0  0
 28 33  1  0  0  0  0
 29 34  1  0  0  0  0
 30  1  1  0  0  0  0
 30 29  2  0  0  0  0
 31 30  1  0  0  0  0
 32 27  1  0  0  0  0
 35 31  1  0  0  0  0
 36 26  1  0  0  0  0
 37 36  1  0  0  0  0
 38 36  1  0  0  0  0
 38 39  2  0  0  0  0
 40 38  2  0  0  0  0
 41 43  1  0  0  0  0
 41 42  1  0  0  0  0
 41 38  1  0  0  0  0
 44 41  1  0  0  0  0
M  END
>  <MODEL>
33

>  <REMARK>
 VINA RESULT:    -6.495      3.394      9.650
 INTER + INTRA:          -8.859
 INTER:                  -8.204
 INTRA:                  -0.655
 UNBOUND:                -0.655
  Name = 
  5 active torsions:
  status: ('A' for Active; 'I' for Inactive)
    1  A    between atoms: C_1  and  S_2
    2  A    between atoms: S_2  and  N_5
    3  A    between atoms: N_5  and  C_6
    4  A    between atoms: C_10  and  C_11
    5  A    between atoms: C_16  and  C_17
                            x       y       z     vdW  Elec       q    Type
                         _______ _______ _______ _____ _____    ______ ____

>  <TORSDO>
F 5

$$$$
