=
 OpenBabel07192307433D

 47 51  0  0  1  0  0  0  0  0999 V2000
   -0.6400   11.2090   21.3190 C   0  0  0  0  0  0  0  0  0  0  0  0
    0.1220   10.3790   21.8040 O   0  0  0  0  0  0  0  0  0  0  0  0
   -0.9940   11.2190   19.9830 N   0  0  0  0  0  0  0  0  0  0  0  0
   -2.0810   11.9800   19.3760 C   0  0  0  0  0  0  0  0  0  0  0  0
   -1.9650   11.6940   17.8890 C   0  0  0  0  0  0  0  0  0  0  0  0
   -1.4220   10.2710   17.8470 C   0  0  0  0  0  0  0  0  0  0  0  0
   -0.5120   10.1690   19.0790 C   0  0  1  0  0  0  0  0  0  0  0  0
   -3.0250   11.6000   19.7840 H   0  0  0  0  0  0  0  0  0  0  0  0
   -2.0020   13.0470   19.5930 H   0  0  0  0  0  0  0  0  0  0  0  0
   -1.2540   12.3860   17.4270 H   0  0  0  0  0  0  0  0  0  0  0  0
   -2.9210   11.7970   17.3680 H   0  0  0  0  0  0  0  0  0  0  0  0
   -0.9210   10.0330   16.9040 H   0  0  0  0  0  0  0  0  0  0  0  0
   -2.2590    9.5700   17.9580 H   0  0  0  0  0  0  0  0  0  0  0  0
   -0.6960    9.2000   19.5630 H   0  0  0  0  0  0  0  0  0  0  0  0
   -3.8360   13.1430   24.4970 C   0  0  0  0  0  0  0  0  0  0  0  0
   -3.7190   14.3820   25.0820 N   0  0  0  0  0  0  0  0  0  0  0  0
   -2.6300   15.0810   24.7090 N   0  0  0  0  0  0  0  0  0  0  0  0
   -2.0050   14.2700   23.8580 C   0  0  0  0  0  0  0  0  0  0  0  0
   -0.8370   14.5060   23.2040 N   0  0  0  0  0  0  0  0  0  0  0  0
   -0.4840   13.4480   22.4060 C   0  0  0  0  0  0  0  0  0  0  0  0
   -1.2000   12.2410   22.2070 C   0  0  0  0  0  0  0  0  0  0  0  0
   -2.3970   11.9640   22.8850 C   0  0  0  0  0  0  0  0  0  0  0  0
   -2.7290   13.0450   23.6890 C   0  0  0  0  0  0  0  0  0  0  0  0
   -4.3510   14.8140   25.7490 H   0  0  0  0  0  0  0  0  0  0  0  0
    0.4630   13.6000   21.8890 H   0  0  0  0  0  0  0  0  0  0  0  0
   -2.9500   11.0410   22.7830 H   0  0  0  0  0  0  0  0  0  0  0  0
   -4.9660   12.2320   24.7840 C   0  0  0  0  0  0  0  0  0  0  0  0
   -5.3740   11.7930   23.8670 H   0  0  0  0  0  0  0  0  0  0  0  0
   -4.6410   11.4130   25.4340 H   0  0  0  0  0  0  0  0  0  0  0  0
   -5.7730   12.7720   25.2880 H   0  0  0  0  0  0  0  0  0  0  0  0
    0.9950   10.2360   18.7750 C   0  0  0  0  0  0  0  0  0  0  0  0
    1.4990   10.8920   19.4930 H   0  0  0  0  0  0  0  0  0  0  0  0
    1.1660   10.6640   17.7810 H   0  0  0  0  0  0  0  0  0  0  0  0
    1.6720    8.9610   18.7980 N   0  0  0  0  0  0  0  0  0  0  0  0
    2.4050    8.3830   17.8060 C   0  0  0  0  0  0  0  0  0  0  0  0
    2.8170    7.1960   18.3600 C   0  0  0  0  0  0  0  0  0  0  0  0
    2.3530    7.1000   19.6420 N   0  0  0  0  0  0  0  0  0  0  0  0
    1.6650    8.2030   19.9100 N   0  0  0  0  0  0  0  0  0  0  0  0
    2.5570    8.8440   16.8420 H   0  0  0  0  0  0  0  0  0  0  0  0
    3.6780    6.0980   17.6900 C   0  0  0  0  0  0  0  0  0  0  0  0
    5.1550    6.3110   17.4810 C   0  0  0  0  0  0  0  0  0  0  0  0
    4.6780    5.3140   18.4990 C   0  0  0  0  0  0  0  0  0  0  0  0
    3.1500    5.5560   16.9110 H   0  0  0  0  0  0  0  0  0  0  0  0
    5.6140    7.2240   17.8400 H   0  0  0  0  0  0  0  0  0  0  0  0
    5.5920    5.9330   16.5640 H   0  0  0  0  0  0  0  0  0  0  0  0
    4.7920    4.2610   18.2710 H   0  0  0  0  0  0  0  0  0  0  0  0
    4.8100    5.5520   19.5480 H   0  0  0  0  0  0  0  0  0  0  0  0
  1  2  2  0  0  0  0
  1 21  1  0  0  0  0
  3  1  1  0  0  0  0
  4  9  1  0  0  0  0
  4  8  1  0  0  0  0
  4  3  1  0  0  0  0
  5  4  1  0  0  0  0
  6  5  1  0  0  0  0
  6 13  1  0  0  0  0
  6  7  1  0  0  0  0
  7 14  1  1  0  0  0
  7  3  1  0  0  0  0
 10  5  1  0  0  0  0
 11  5  1  0  0  0  0
 12  6  1  0  0  0  0
 15 27  1  0  0  0  0
 15 16  1  0  0  0  0
 16 24  1  0  0  0  0
 17 16  1  0  0  0  0
 18 17  2  0  0  0  0
 19 18  1  0  0  0  0
 20 19  2  0  0  0  0
 21 20  1  0  0  0  0
 21 22  2  0  0  0  0
 22 23  1  0  0  0  0
 23 18  1  0  0  0  0
 23 15  2  0  0  0  0
 25 20  1  0  0  0  0
 26 22  1  0  0  0  0
 27 30  1  0  0  0  0
 27 29  1  0  0  0  0
 28 27  1  0  0  0  0
 31 34  1  0  0  0  0
 31  7  1  0  0  0  0
 31 32  1  0  0  0  0
 33 31  1  0  0  0  0
 34 38  1  0  0  0  0
 35 36  2  0  0  0  0
 35 34  1  0  0  0  0
 36 37  1  0  0  0  0
 37 38  2  0  0  0  0
 39 35  1  0  0  0  0
 40 36  1  0  0  0  0
 40 42  1  0  0  0  0
 41 40  1  0  0  0  0
 41 44  1  0  0  0  0
 41 42  1  0  0  0  0
 42 47  1  0  0  0  0
 43 40  1  0  0  0  0
 45 41  1  0  0  0  0
 46 42  1  0  0  0  0
M  END
>  <MODEL>
1

>  <REMARK>
 VINA RESULT:    -7.506      0.000      0.000
 INTER + INTRA:          -9.589
 INTER:                  -9.070
 INTRA:                  -0.519
 UNBOUND:                -0.108
  Name = 
  5 active torsions:
  status: ('A' for Active; 'I' for Inactive)
    1  A    between atoms: C_1  and  C_2
    2  A    between atoms: C_8  and  C_9
    3  A    between atoms: C_15  and  C_16
    4  A    between atoms: C_16  and  N_17
    5  A    between atoms: C_19  and  C_20
                            x       y       z     vdW  Elec       q    Type
                         _______ _______ _______ _____ _____    ______ ____

>  <TORSDO>
F 5

$$$$
=
 OpenBabel07192307433D

 47 51  0  0  1  0  0  0  0  0999 V2000
   -0.6480   11.2170   21.3840 C   0  0  0  0  0  0  0  0  0  0  0  0
    0.0410   10.3420   21.9020 O   0  0  0  0  0  0  0  0  0  0  0  0
   -0.9310   11.2530   20.0320 N   0  0  0  0  0  0  0  0  0  0  0  0
   -1.9410   12.0770   19.3770 C   0  0  0  0  0  0  0  0  0  0  0  0
   -1.7640   11.7930   17.8950 C   0  0  0  0  0  0  0  0  0  0  0  0
   -1.2990   10.3420   17.8690 C   0  0  0  0  0  0  0  0  0  0  0  0
   -0.4610   10.1820   19.1450 C   0  0  1  0  0  0  0  0  0  0  0  0
   -2.9240   11.7480   19.7320 H   0  0  0  0  0  0  0  0  0  0  0  0
   -1.8150   13.1370   19.6070 H   0  0  0  0  0  0  0  0  0  0  0  0
   -0.9930   12.4470   17.4760 H   0  0  0  0  0  0  0  0  0  0  0  0
   -2.6850   11.9520   17.3260 H   0  0  0  0  0  0  0  0  0  0  0  0
   -0.7640   10.0810   16.9510 H   0  0  0  0  0  0  0  0  0  0  0  0
   -2.1790    9.6880   17.9310 H   0  0  0  0  0  0  0  0  0  0  0  0
   -0.7240    9.2230   19.6120 H   0  0  0  0  0  0  0  0  0  0  0  0
   -3.8080   13.2470   24.5370 C   0  0  0  0  0  0  0  0  0  0  0  0
   -3.6800   14.4990   25.0920 N   0  0  0  0  0  0  0  0  0  0  0  0
   -2.5890   15.1820   24.6940 N   0  0  0  0  0  0  0  0  0  0  0  0
   -1.9750   14.3460   23.8580 C   0  0  0  0  0  0  0  0  0  0  0  0
   -0.8100   14.5590   23.1900 N   0  0  0  0  0  0  0  0  0  0  0  0
   -0.4700   13.4800   22.4160 C   0  0  0  0  0  0  0  0  0  0  0  0
   -1.1950   12.2730   22.2510 C   0  0  0  0  0  0  0  0  0  0  0  0
   -2.3880   12.0200   22.9440 C   0  0  0  0  0  0  0  0  0  0  0  0
   -2.7080   13.1220   23.7240 C   0  0  0  0  0  0  0  0  0  0  0  0
   -4.3040   14.9510   25.7520 H   0  0  0  0  0  0  0  0  0  0  0  0
    0.4750   13.6130   21.8880 H   0  0  0  0  0  0  0  0  0  0  0  0
   -2.9480   11.0990   22.8680 H   0  0  0  0  0  0  0  0  0  0  0  0
   -4.9420   12.3500   24.8540 C   0  0  0  0  0  0  0  0  0  0  0  0
   -4.7910   11.3470   24.4410 H   0  0  0  0  0  0  0  0  0  0  0  0
   -5.0620   12.2540   25.9380 H   0  0  0  0  0  0  0  0  0  0  0  0
   -5.8720   12.7500   24.4390 H   0  0  0  0  0  0  0  0  0  0  0  0
    1.0600   10.1680   18.9200 C   0  0  0  0  0  0  0  0  0  0  0  0
    1.5640   10.7740   19.6810 H   0  0  0  0  0  0  0  0  0  0  0  0
    1.3080   10.6100   17.9480 H   0  0  0  0  0  0  0  0  0  0  0  0
    1.6600    8.8540   18.9400 N   0  0  0  0  0  0  0  0  0  0  0  0
    1.7010    7.9680   19.9750 C   0  0  0  0  0  0  0  0  0  0  0  0
    2.3770    6.8930   19.4510 C   0  0  0  0  0  0  0  0  0  0  0  0
    2.6990    7.1440   18.1460 N   0  0  0  0  0  0  0  0  0  0  0  0
    2.2340    8.3470   17.8340 N   0  0  0  0  0  0  0  0  0  0  0  0
    1.2700    8.1730   20.9430 H   0  0  0  0  0  0  0  0  0  0  0  0
    2.7440    5.5740   20.1720 C   0  0  0  0  0  0  0  0  0  0  0  0
    1.6910    4.5280   20.4270 C   0  0  0  0  0  0  0  0  0  0  0  0
    2.7710    4.2730   19.4140 C   0  0  0  0  0  0  0  0  0  0  0  0
    3.4980    5.7040   20.9430 H   0  0  0  0  0  0  0  0  0  0  0  0
    0.6830    4.6920   20.0650 H   0  0  0  0  0  0  0  0  0  0  0  0
    1.7360    3.9890   21.3670 H   0  0  0  0  0  0  0  0  0  0  0  0
    3.5470    3.5610   19.6680 H   0  0  0  0  0  0  0  0  0  0  0  0
    2.4970    4.2680   18.3660 H   0  0  0  0  0  0  0  0  0  0  0  0
  1  2  2  0  0  0  0
  1 21  1  0  0  0  0
  3  1  1  0  0  0  0
  4  9  1  0  0  0  0
  4  8  1  0  0  0  0
  4  3  1  0  0  0  0
  5  4  1  0  0  0  0
  6  5  1  0  0  0  0
  6 13  1  0  0  0  0
  6  7  1  0  0  0  0
  7 14  1  1  0  0  0
  7  3  1  0  0  0  0
 10  5  1  0  0  0  0
 11  5  1  0  0  0  0
 12  6  1  0  0  0  0
 15 27  1  0  0  0  0
 15 16  1  0  0  0  0
 16 24  1  0  0  0  0
 17 16  1  0  0  0  0
 18 17  2  0  0  0  0
 19 18  1  0  0  0  0
 20 19  2  0  0  0  0
 21 20  1  0  0  0  0
 21 22  2  0  0  0  0
 22 23  1  0  0  0  0
 23 18  1  0  0  0  0
 23 15  2  0  0  0  0
 25 20  1  0  0  0  0
 26 22  1  0  0  0  0
 27 29  1  0  0  0  0
 28 27  1  0  0  0  0
 30 27  1  0  0  0  0
 31 34  1  0  0  0  0
 31  7  1  0  0  0  0
 31 32  1  0  0  0  0
 33 31  1  0  0  0  0
 34 35  1  0  0  0  0
 35 39  1  0  0  0  0
 36 35  2  0  0  0  0
 36 40  1  0  0  0  0
 37 36  1  0  0  0  0
 38 37  2  0  0  0  0
 38 34  1  0  0  0  0
 40 41  1  0  0  0  0
 40 43  1  0  0  0  0
 41 45  1  0  0  0  0
 42 46  1  0  0  0  0
 42 40  1  0  0  0  0
 42 41  1  0  0  0  0
 44 41  1  0  0  0  0
 47 42  1  0  0  0  0
M  END
>  <MODEL>
2

>  <REMARK>
 VINA RESULT:    -7.417      1.149      1.399
 INTER + INTRA:          -9.477
 INTER:                  -8.895
 INTRA:                  -0.582
 UNBOUND:                -0.108
  Name = 
  5 active torsions:
  status: ('A' for Active; 'I' for Inactive)
    1  A    between atoms: C_1  and  C_2
    2  A    between atoms: C_8  and  C_9
    3  A    between atoms: C_15  and  C_16
    4  A    between atoms: C_16  and  N_17
    5  A    between atoms: C_19  and  C_20
                            x       y       z     vdW  Elec       q    Type
                         _______ _______ _______ _____ _____    ______ ____

>  <TORSDO>
F 5

$$$$
=
 OpenBabel07192307433D

 47 51  0  0  1  0  0  0  0  0999 V2000
    3.6420    5.9110   19.1650 C   0  0  0  0  0  0  0  0  0  0  0  0
    4.6320    5.9810   19.8870 O   0  0  0  0  0  0  0  0  0  0  0  0
    3.3240    4.7870   18.4250 N   0  0  0  0  0  0  0  0  0  0  0  0
    2.0540    4.5110   17.7630 C   0  0  0  0  0  0  0  0  0  0  0  0
    2.2820    3.2000   17.0300 C   0  0  0  0  0  0  0  0  0  0  0  0
    3.2720    2.4650   17.9240 C   0  0  0  0  0  0  0  0  0  0  0  0
    4.1460    3.5750   18.5260 C   0  0  1  0  0  0  0  0  0  0  0  0
    1.2870    4.4070   18.5400 H   0  0  0  0  0  0  0  0  0  0  0  0
    1.7660    5.3140   17.0830 H   0  0  0  0  0  0  0  0  0  0  0  0
    2.7240    3.3910   16.0470 H   0  0  0  0  0  0  0  0  0  0  0  0
    1.3550    2.6410   16.8770 H   0  0  0  0  0  0  0  0  0  0  0  0
    3.8380    1.6950   17.3910 H   0  0  0  0  0  0  0  0  0  0  0  0
    2.7180    1.9660   18.7290 H   0  0  0  0  0  0  0  0  0  0  0  0
    4.2910    3.3580   19.5930 H   0  0  0  0  0  0  0  0  0  0  0  0
    0.3600    9.1710   20.7940 C   0  0  0  0  0  0  0  0  0  0  0  0
   -0.1010   10.2530   20.0830 N   0  0  0  0  0  0  0  0  0  0  0  0
    0.4120   10.3740   18.8430 N   0  0  0  0  0  0  0  0  0  0  0  0
    1.2470    9.3410   18.7410 C   0  0  0  0  0  0  0  0  0  0  0  0
    2.0290    9.0170   17.6780 N   0  0  0  0  0  0  0  0  0  0  0  0
    2.7660    7.8870   17.9200 C   0  0  0  0  0  0  0  0  0  0  0  0
    2.7540    7.0820   19.0880 C   0  0  0  0  0  0  0  0  0  0  0  0
    1.9720    7.4050   20.2070 C   0  0  0  0  0  0  0  0  0  0  0  0
    1.2410    8.5540   19.9400 C   0  0  0  0  0  0  0  0  0  0  0  0
   -0.7710   10.9540   20.3850 H   0  0  0  0  0  0  0  0  0  0  0  0
    3.4230    7.6180   17.0930 H   0  0  0  0  0  0  0  0  0  0  0  0
    1.9640    6.8350   21.1240 H   0  0  0  0  0  0  0  0  0  0  0  0
   -0.0910    8.8740   22.1720 C   0  0  0  0  0  0  0  0  0  0  0  0
    0.7050    8.4160   22.7680 H   0  0  0  0  0  0  0  0  0  0  0  0
   -0.4050    9.7940   22.6770 H   0  0  0  0  0  0  0  0  0  0  0  0
   -0.9410    8.1840   22.1560 H   0  0  0  0  0  0  0  0  0  0  0  0
    5.5460    3.7040   17.9020 C   0  0  0  0  0  0  0  0  0  0  0  0
    6.0670    2.7410   17.9330 H   0  0  0  0  0  0  0  0  0  0  0  0
    6.1560    4.4120   18.4730 H   0  0  0  0  0  0  0  0  0  0  0  0
    5.5560    4.1610   16.5330 N   0  0  0  0  0  0  0  0  0  0  0  0
    5.6230    3.4090   15.3980 C   0  0  0  0  0  0  0  0  0  0  0  0
    5.5930    4.3430   14.3910 C   0  0  0  0  0  0  0  0  0  0  0  0
    5.4900    5.5950   14.9280 N   0  0  0  0  0  0  0  0  0  0  0  0
    5.4470    5.4720   16.2480 N   0  0  0  0  0  0  0  0  0  0  0  0
    5.6880    2.3320   15.4100 H   0  0  0  0  0  0  0  0  0  0  0  0
    5.6570    4.0800   12.8670 C   0  0  0  0  0  0  0  0  0  0  0  0
    6.9880    3.9560   12.1720 C   0  0  0  0  0  0  0  0  0  0  0  0
    6.1150    2.7440   12.3430 C   0  0  0  0  0  0  0  0  0  0  0  0
    4.8630    4.5740   12.3150 H   0  0  0  0  0  0  0  0  0  0  0  0
    7.8980    4.0130   12.7560 H   0  0  0  0  0  0  0  0  0  0  0  0
    7.0780    4.3830   11.1790 H   0  0  0  0  0  0  0  0  0  0  0  0
    5.6140    2.3520   11.4660 H   0  0  0  0  0  0  0  0  0  0  0  0
    6.4310    1.9830   13.0450 H   0  0  0  0  0  0  0  0  0  0  0  0
  1  2  2  0  0  0  0
  3  7  1  0  0  0  0
  3  1  1  0  0  0  0
  4  3  1  0  0  0  0
  4  8  1  0  0  0  0
  5  4  1  0  0  0  0
  5  6  1  0  0  0  0
  6  7  1  0  0  0  0
  6 13  1  0  0  0  0
  7 14  1  1  0  0  0
  9  4  1  0  0  0  0
 10  5  1  0  0  0  0
 11  5  1  0  0  0  0
 12  6  1  0  0  0  0
 15 27  1  0  0  0  0
 16 24  1  0  0  0  0
 16 15  1  0  0  0  0
 17 16  1  0  0  0  0
 18 17  2  0  0  0  0
 18 23  1  0  0  0  0
 19 20  2  0  0  0  0
 19 18  1  0  0  0  0
 20 21  1  0  0  0  0
 21  1  1  0  0  0  0
 21 22  2  0  0  0  0
 22 26  1  0  0  0  0
 23 22  1  0  0  0  0
 23 15  2  0  0  0  0
 25 20  1  0  0  0  0
 27 29  1  0  0  0  0
 27 28  1  0  0  0  0
 30 27  1  0  0  0  0
 31 32  1  0  0  0  0
 31 33  1  0  0  0  0
 31  7  1  0  0  0  0
 34 31  1  0  0  0  0
 35 39  1  0  0  0  0
 35 34  1  0  0  0  0
 36 37  1  0  0  0  0
 36 35  2  0  0  0  0
 37 38  2  0  0  0  0
 38 34  1  0  0  0  0
 40 36  1  0  0  0  0
 41 42  1  0  0  0  0
 41 44  1  0  0  0  0
 41 40  1  0  0  0  0
 42 40  1  0  0  0  0
 42 47  1  0  0  0  0
 43 40  1  0  0  0  0
 45 41  1  0  0  0  0
 46 42  1  0  0  0  0
M  END
>  <MODEL>
3

>  <REMARK>
 VINA RESULT:    -7.417      4.147      7.302
 INTER + INTRA:          -9.476
 INTER:                  -8.961
 INTRA:                  -0.516
 UNBOUND:                -0.108
  Name = 
  5 active torsions:
  status: ('A' for Active; 'I' for Inactive)
    1  A    between atoms: C_1  and  C_2
    2  A    between atoms: C_8  and  C_9
    3  A    between atoms: C_15  and  C_16
    4  A    between atoms: C_16  and  N_17
    5  A    between atoms: C_19  and  C_20
                            x       y       z     vdW  Elec       q    Type
                         _______ _______ _______ _____ _____    ______ ____

>  <TORSDO>
F 5

$$$$
=
 OpenBabel07192307433D

 47 51  0  0  1  0  0  0  0  0999 V2000
    2.3080    5.4650   20.2420 C   0  0  0  0  0  0  0  0  0  0  0  0
    2.7380    5.1360   21.3430 O   0  0  0  0  0  0  0  0  0  0  0  0
    2.2230    4.5930   19.1730 N   0  0  0  0  0  0  0  0  0  0  0  0
    1.4890    4.8070   17.9300 C   0  0  0  0  0  0  0  0  0  0  0  0
    1.8070    3.5880   17.0830 C   0  0  0  0  0  0  0  0  0  0  0  0
    1.9820    2.4800   18.1130 C   0  0  0  0  0  0  0  0  0  0  0  0
    2.5930    3.1820   19.3340 C   0  0  1  0  0  0  0  0  0  0  0  0
    0.4220    4.8570   18.1750 H   0  0  0  0  0  0  0  0  0  0  0  0
    1.7850    5.7360   17.4380 H   0  0  0  0  0  0  0  0  0  0  0  0
    2.7390    3.7460   16.5310 H   0  0  0  0  0  0  0  0  0  0  0  0
    1.0210    3.3680   16.3550 H   0  0  0  0  0  0  0  0  0  0  0  0
    2.5770    1.6400   17.7400 H   0  0  0  0  0  0  0  0  0  0  0  0
    0.9930    2.0870   18.3810 H   0  0  0  0  0  0  0  0  0  0  0  0
    2.0890    2.8050   20.2350 H   0  0  0  0  0  0  0  0  0  0  0  0
    0.1770    9.7000   21.4980 C   0  0  0  0  0  0  0  0  0  0  0  0
    0.1470   10.8330   20.7190 N   0  0  0  0  0  0  0  0  0  0  0  0
    0.7550   10.7110   19.5230 N   0  0  0  0  0  0  0  0  0  0  0  0
    1.2090    9.4590   19.5210 C   0  0  0  0  0  0  0  0  0  0  0  0
    1.9120    8.8400   18.5360 N   0  0  0  0  0  0  0  0  0  0  0  0
    2.2180    7.5460   18.8720 C   0  0  0  0  0  0  0  0  0  0  0  0
    1.8620    6.8550   20.0570 C   0  0  0  0  0  0  0  0  0  0  0  0
    1.1550    7.4760   21.0980 C   0  0  0  0  0  0  0  0  0  0  0  0
    0.8630    8.7840   20.7370 C   0  0  0  0  0  0  0  0  0  0  0  0
   -0.2740   11.7290   20.9440 H   0  0  0  0  0  0  0  0  0  0  0  0
    2.8050    7.0340   18.1100 H   0  0  0  0  0  0  0  0  0  0  0  0
    0.8980    6.9910   22.0280 H   0  0  0  0  0  0  0  0  0  0  0  0
   -0.4400    9.6430   22.8410 C   0  0  0  0  0  0  0  0  0  0  0  0
   -0.9370   10.5840   23.0990 H   0  0  0  0  0  0  0  0  0  0  0  0
   -1.1870    8.8430   22.8850 H   0  0  0  0  0  0  0  0  0  0  0  0
    0.3210    9.4440   23.6030 H   0  0  0  0  0  0  0  0  0  0  0  0
    4.0990    2.9400   19.5310 C   0  0  0  0  0  0  0  0  0  0  0  0
    4.3330    1.8760   19.4130 H   0  0  0  0  0  0  0  0  0  0  0  0
    4.4030    3.2190   20.5460 H   0  0  0  0  0  0  0  0  0  0  0  0
    4.9510    3.6770   18.6280 N   0  0  0  0  0  0  0  0  0  0  0  0
    5.8630    4.6420   18.9360 C   0  0  0  0  0  0  0  0  0  0  0  0
    6.3850    4.9930   17.7150 C   0  0  0  0  0  0  0  0  0  0  0  0
    5.8060    4.2380   16.7330 N   0  0  0  0  0  0  0  0  0  0  0  0
    4.9380    3.4150   17.3080 N   0  0  0  0  0  0  0  0  0  0  0  0
    6.0460    4.9770   19.9460 H   0  0  0  0  0  0  0  0  0  0  0  0
    7.4650    6.0640   17.4300 C   0  0  0  0  0  0  0  0  0  0  0  0
    7.1060    7.5270   17.4360 C   0  0  0  0  0  0  0  0  0  0  0  0
    7.9600    6.9600   18.5350 C   0  0  0  0  0  0  0  0  0  0  0  0
    8.1990    5.7450   16.6960 H   0  0  0  0  0  0  0  0  0  0  0  0
    6.0930    7.8220   17.6800 H   0  0  0  0  0  0  0  0  0  0  0  0
    7.5820    8.1640   16.6980 H   0  0  0  0  0  0  0  0  0  0  0  0
    9.0140    7.2130   18.5410 H   0  0  0  0  0  0  0  0  0  0  0  0
    7.5250    6.8680   19.5230 H   0  0  0  0  0  0  0  0  0  0  0  0
  1  2  2  0  0  0  0
  3  7  1  0  0  0  0
  3  1  1  0  0  0  0
  4  8  1  0  0  0  0
  4  3  1  0  0  0  0
  5  4  1  0  0  0  0
  5  6  1  0  0  0  0
  6 13  1  0  0  0  0
  6  7  1  0  0  0  0
  7 31  1  0  0  0  0
  7 14  1  1  0  0  0
  9  4  1  0  0  0  0
 10  5  1  0  0  0  0
 11  5  1  0  0  0  0
 12  6  1  0  0  0  0
 15 27  1  0  0  0  0
 16 24  1  0  0  0  0
 16 15  1  0  0  0  0
 17 16  1  0  0  0  0
 18 17  2  0  0  0  0
 18 23  1  0  0  0  0
 19 20  2  0  0  0  0
 19 18  1  0  0  0  0
 20 21  1  0  0  0  0
 21  1  1  0  0  0  0
 21 22  2  0  0  0  0
 22 26  1  0  0  0  0
 23 22  1  0  0  0  0
 23 15  2  0  0  0  0
 25 20  1  0  0  0  0
 27 29  1  0  0  0  0
 27 28  1  0  0  0  0
 27 30  1  0  0  0  0
 31 33  1  0  0  0  0
 32 31  1  0  0  0  0
 34 35  1  0  0  0  0
 34 31  1  0  0  0  0
 35 39  1  0  0  0  0
 36 35  2  0  0  0  0
 37 38  2  0  0  0  0
 37 36  1  0  0  0  0
 38 34  1  0  0  0  0
 40 41  1  0  0  0  0
 40 36  1  0  0  0  0
 40 42  1  0  0  0  0
 41 44  1  0  0  0  0
 41 42  1  0  0  0  0
 42 46  1  0  0  0  0
 42 47  1  0  0  0  0
 43 40  1  0  0  0  0
 45 41  1  0  0  0  0
M  END
>  <MODEL>
4

>  <REMARK>
 VINA RESULT:    -7.335      3.660      6.559
 INTER + INTRA:          -9.373
 INTER:                  -9.478
 INTRA:                   0.105
 UNBOUND:                -0.108
  Name = 
  5 active torsions:
  status: ('A' for Active; 'I' for Inactive)
    1  A    between atoms: C_1  and  C_2
    2  A    between atoms: C_8  and  C_9
    3  A    between atoms: C_15  and  C_16
    4  A    between atoms: C_16  and  N_17
    5  A    between atoms: C_19  and  C_20
                            x       y       z     vdW  Elec       q    Type
                         _______ _______ _______ _____ _____    ______ ____

>  <TORSDO>
F 5

$$$$
=
 OpenBabel07192307433D

 47 51  0  0  1  0  0  0  0  0999 V2000
    2.8210    6.5180   19.1780 C   0  0  0  0  0  0  0  0  0  0  0  0
    3.8590    6.6330   18.5330 O   0  0  0  0  0  0  0  0  0  0  0  0
    2.4070    5.3230   19.7350 N   0  0  0  0  0  0  0  0  0  0  0  0
    1.3530    5.1450   20.7270 C   0  0  0  0  0  0  0  0  0  0  0  0
    1.2560    3.6410   20.9170 C   0  0  0  0  0  0  0  0  0  0  0  0
    2.6850    3.1660   20.6910 C   0  0  0  0  0  0  0  0  0  0  0  0
    3.2480    4.1250   19.6320 C   0  0  1  0  0  0  0  0  0  0  0  0
    1.6720    5.6450   21.6490 H   0  0  0  0  0  0  0  0  0  0  0  0
    0.4060    5.5770   20.3970 H   0  0  0  0  0  0  0  0  0  0  0  0
    0.5870    3.2100   20.1640 H   0  0  0  0  0  0  0  0  0  0  0  0
    0.8700    3.3680   21.9030 H   0  0  0  0  0  0  0  0  0  0  0  0
    2.7450    2.1100   20.4100 H   0  0  0  0  0  0  0  0  0  0  0  0
    3.2500    3.2880   21.6250 H   0  0  0  0  0  0  0  0  0  0  0  0
    4.2670    4.4060   19.9300 H   0  0  0  0  0  0  0  0  0  0  0  0
    0.1790    9.8060   21.6800 C   0  0  0  0  0  0  0  0  0  0  0  0
   -0.4150   10.9210   21.1400 N   0  0  0  0  0  0  0  0  0  0  0  0
   -0.2350   11.0680   19.8130 N   0  0  0  0  0  0  0  0  0  0  0  0
    0.5110   10.0190   19.4720 C   0  0  0  0  0  0  0  0  0  0  0  0
    0.9810    9.7090   18.2350 N   0  0  0  0  0  0  0  0  0  0  0  0
    1.7190    8.5540   18.2510 C   0  0  0  0  0  0  0  0  0  0  0  0
    1.9820    7.7130   19.3620 C   0  0  0  0  0  0  0  0  0  0  0  0
    1.5270    8.0200   20.6530 C   0  0  0  0  0  0  0  0  0  0  0  0
    0.7890    9.1950   20.6120 C   0  0  0  0  0  0  0  0  0  0  0  0
   -0.9610   11.6290   21.6220 H   0  0  0  0  0  0  0  0  0  0  0  0
    2.1300    8.2960   17.2750 H   0  0  0  0  0  0  0  0  0  0  0  0
    1.7380    7.4210   21.5270 H   0  0  0  0  0  0  0  0  0  0  0  0
    0.0890    9.4770   23.1200 C   0  0  0  0  0  0  0  0  0  0  0  0
   -0.9510    9.3860   23.4510 H   0  0  0  0  0  0  0  0  0  0  0  0
    0.5930    8.5270   23.3270 H   0  0  0  0  0  0  0  0  0  0  0  0
    0.5670   10.2570   23.7210 H   0  0  0  0  0  0  0  0  0  0  0  0
    3.3420    3.5360   18.2140 C   0  0  0  0  0  0  0  0  0  0  0  0
    2.5150    3.9000   17.5950 H   0  0  0  0  0  0  0  0  0  0  0  0
    3.2580    2.4440   18.2460 H   0  0  0  0  0  0  0  0  0  0  0  0
    4.5720    3.8350   17.5190 N   0  0  0  0  0  0  0  0  0  0  0  0
    4.7740    3.9210   16.1740 C   0  0  0  0  0  0  0  0  0  0  0  0
    6.1080    4.2310   16.0690 C   0  0  0  0  0  0  0  0  0  0  0  0
    6.6550    4.3410   17.3160 N   0  0  0  0  0  0  0  0  0  0  0  0
    5.6950    4.1150   18.2050 N   0  0  0  0  0  0  0  0  0  0  0  0
    3.9910    3.7590   15.4490 H   0  0  0  0  0  0  0  0  0  0  0  0
    6.9220    4.4420   14.7690 C   0  0  0  0  0  0  0  0  0  0  0  0
    6.4960    3.7730   13.4880 C   0  0  0  0  0  0  0  0  0  0  0  0
    6.3550    5.2610   13.6400 C   0  0  0  0  0  0  0  0  0  0  0  0
    7.9900    4.5250   14.9430 H   0  0  0  0  0  0  0  0  0  0  0  0
    5.5930    3.1750   13.4780 H   0  0  0  0  0  0  0  0  0  0  0  0
    7.2760    3.3990   12.8340 H   0  0  0  0  0  0  0  0  0  0  0  0
    7.0400    5.8950   13.0870 H   0  0  0  0  0  0  0  0  0  0  0  0
    5.3580    5.6730   13.7350 H   0  0  0  0  0  0  0  0  0  0  0  0
  1 21  1  0  0  0  0
  1  3  1  0  0  0  0
  2  1  2  0  0  0  0
  3  4  1  0  0  0  0
  4  5  1  0  0  0  0
  4  8  1  0  0  0  0
  5 11  1  0  0  0  0
  6  5  1  0  0  0  0
  6 13  1  0  0  0  0
  7  3  1  0  0  0  0
  7 14  1  1  0  0  0
  7  6  1  0  0  0  0
  9  4  1  0  0  0  0
 10  5  1  0  0  0  0
 12  6  1  0  0  0  0
 15 27  1  0  0  0  0
 16 24  1  0  0  0  0
 16 15  1  0  0  0  0
 17 16  1  0  0  0  0
 18 17  2  0  0  0  0
 18 23  1  0  0  0  0
 19 20  2  0  0  0  0
 19 18  1  0  0  0  0
 20 21  1  0  0  0  0
 21 22  2  0  0  0  0
 22 26  1  0  0  0  0
 23 22  1  0  0  0  0
 23 15  2  0  0  0  0
 25 20  1  0  0  0  0
 27 29  1  0  0  0  0
 27 28  1  0  0  0  0
 27 30  1  0  0  0  0
 31 33  1  0  0  0  0
 31  7  1  0  0  0  0
 32 31  1  0  0  0  0
 34 38  1  0  0  0  0
 34 31  1  0  0  0  0
 35 34  1  0  0  0  0
 36 35  2  0  0  0  0
 36 37  1  0  0  0  0
 37 38  2  0  0  0  0
 39 35  1  0  0  0  0
 40 43  1  0  0  0  0
 40 36  1  0  0  0  0
 41 42  1  0  0  0  0
 41 40  1  0  0  0  0
 42 47  1  0  0  0  0
 42 40  1  0  0  0  0
 44 41  1  0  0  0  0
 45 41  1  0  0  0  0
 46 42  1  0  0  0  0
M  END
>  <MODEL>
5

>  <REMARK>
 VINA RESULT:    -7.281      3.619      6.451
 INTER + INTRA:          -9.305
 INTER:                  -9.709
 INTRA:                   0.404
 UNBOUND:                -0.108
  Name = 
  5 active torsions:
  status: ('A' for Active; 'I' for Inactive)
    1  A    between atoms: C_1  and  C_2
    2  A    between atoms: C_8  and  C_9
    3  A    between atoms: C_15  and  C_16
    4  A    between atoms: C_16  and  N_17
    5  A    between atoms: C_19  and  C_20
                            x       y       z     vdW  Elec       q    Type
                         _______ _______ _______ _____ _____    ______ ____

>  <TORSDO>
F 5

$$$$
=
 OpenBabel07192307433D

 47 51  0  0  1  0  0  0  0  0999 V2000
    2.0960    8.4090   18.3240 C   0  0  0  0  0  0  0  0  0  0  0  0
    2.9060    8.5290   17.4100 O   0  0  0  0  0  0  0  0  0  0  0  0
    2.0780    7.3240   19.1800 N   0  0  0  0  0  0  0  0  0  0  0  0
    1.3470    7.2190   20.4370 C   0  0  0  0  0  0  0  0  0  0  0  0
    1.6070    5.8010   20.9140 C   0  0  0  0  0  0  0  0  0  0  0  0
    3.0090    5.5080   20.3960 C   0  0  0  0  0  0  0  0  0  0  0  0
    3.0980    6.2740   19.0690 C   0  0  1  0  0  0  0  0  0  0  0  0
    1.7660    7.9580   21.1310 H   0  0  0  0  0  0  0  0  0  0  0  0
    0.2810    7.4180   20.3070 H   0  0  0  0  0  0  0  0  0  0  0  0
    0.8830    5.1150   20.4640 H   0  0  0  0  0  0  0  0  0  0  0  0
    1.5290    5.7050   22.0010 H   0  0  0  0  0  0  0  0  0  0  0  0
    3.2150    4.4370   20.3050 H   0  0  0  0  0  0  0  0  0  0  0  0
    3.7410    5.9230   21.1010 H   0  0  0  0  0  0  0  0  0  0  0  0
    4.0790    6.7650   19.0200 H   0  0  0  0  0  0  0  0  0  0  0  0
   -2.1680   10.7360   17.6490 C   0  0  0  0  0  0  0  0  0  0  0  0
   -2.5510   11.8900   18.2900 N   0  0  0  0  0  0  0  0  0  0  0  0
   -1.6410   12.3840   19.1520 N   0  0  0  0  0  0  0  0  0  0  0  0
   -0.6310   11.5190   19.0810 C   0  0  0  0  0  0  0  0  0  0  0  0
    0.5380   11.5600   19.7740 N   0  0  0  0  0  0  0  0  0  0  0  0
    1.3510   10.5040   19.4530 C   0  0  0  0  0  0  0  0  0  0  0  0
    1.0980    9.4750   18.5110 C   0  0  0  0  0  0  0  0  0  0  0  0
   -0.1080    9.3970   17.7990 C   0  0  0  0  0  0  0  0  0  0  0  0
   -0.9150   10.4720   18.1450 C   0  0  0  0  0  0  0  0  0  0  0  0
   -3.4240   12.3970   18.1870 H   0  0  0  0  0  0  0  0  0  0  0  0
    2.2860   10.4980   20.0140 H   0  0  0  0  0  0  0  0  0  0  0  0
   -0.3480    8.6090   17.1000 H   0  0  0  0  0  0  0  0  0  0  0  0
   -3.0350   10.0490   16.6660 C   0  0  0  0  0  0  0  0  0  0  0  0
   -3.5360   10.7600   16.0010 H   0  0  0  0  0  0  0  0  0  0  0  0
   -2.4440    9.3660   16.0470 H   0  0  0  0  0  0  0  0  0  0  0  0
   -3.8080    9.4670   17.1790 H   0  0  0  0  0  0  0  0  0  0  0  0
    2.9730    5.4000   17.8090 C   0  0  0  0  0  0  0  0  0  0  0  0
    2.1800    5.7830   17.1560 H   0  0  0  0  0  0  0  0  0  0  0  0
    2.6910    4.3760   18.0800 H   0  0  0  0  0  0  0  0  0  0  0  0
    4.1790    5.3020   17.0210 N   0  0  0  0  0  0  0  0  0  0  0  0
    4.5070    4.3470   16.1070 C   0  0  0  0  0  0  0  0  0  0  0  0
    5.7450    4.7400   15.6610 C   0  0  0  0  0  0  0  0  0  0  0  0
    6.1120    5.8990   16.2860 N   0  0  0  0  0  0  0  0  0  0  0  0
    5.1310    6.2490   17.1080 N   0  0  0  0  0  0  0  0  0  0  0  0
    3.8630    3.5140   15.8690 H   0  0  0  0  0  0  0  0  0  0  0  0
    6.6350    4.0270   14.6140 C   0  0  0  0  0  0  0  0  0  0  0  0
    6.1060    3.7480   13.2320 C   0  0  0  0  0  0  0  0  0  0  0  0
    7.1740    4.7860   13.4300 C   0  0  0  0  0  0  0  0  0  0  0  0
    7.2860    3.2740   15.0480 H   0  0  0  0  0  0  0  0  0  0  0  0
    5.1120    4.0850   12.9660 H   0  0  0  0  0  0  0  0  0  0  0  0
    6.3880    2.8090   12.7660 H   0  0  0  0  0  0  0  0  0  0  0  0
    8.1790    4.5500   13.0990 H   0  0  0  0  0  0  0  0  0  0  0  0
    6.9040    5.8270   13.3030 H   0  0  0  0  0  0  0  0  0  0  0  0
  1 21  1  0  0  0  0
  1  3  1  0  0  0  0
  2  1  2  0  0  0  0
  3  4  1  0  0  0  0
  4  5  1  0  0  0  0
  4  8  1  0  0  0  0
  5 11  1  0  0  0  0
  6  5  1  0  0  0  0
  6 13  1  0  0  0  0
  7 14  1  6  0  0  0
  7  3  1  0  0  0  0
  7  6  1  0  0  0  0
  9  4  1  0  0  0  0
 10  5  1  0  0  0  0
 12  6  1  0  0  0  0
 15 23  2  0  0  0  0
 15 16  1  0  0  0  0
 16 17  1  0  0  0  0
 18 17  2  0  0  0  0
 18 19  1  0  0  0  0
 20 19  2  0  0  0  0
 20 25  1  0  0  0  0
 21 20  1  0  0  0  0
 22 23  1  0  0  0  0
 22 21  2  0  0  0  0
 23 18  1  0  0  0  0
 24 16  1  0  0  0  0
 26 22  1  0  0  0  0
 27 30  1  0  0  0  0
 27 15  1  0  0  0  0
 28 27  1  0  0  0  0
 29 27  1  0  0  0  0
 31 33  1  0  0  0  0
 31  7  1  0  0  0  0
 32 31  1  0  0  0  0
 34 38  1  0  0  0  0
 34 31  1  0  0  0  0
 35 34  1  0  0  0  0
 36 35  2  0  0  0  0
 36 37  1  0  0  0  0
 37 38  2  0  0  0  0
 39 35  1  0  0  0  0
 40 43  1  0  0  0  0
 40 36  1  0  0  0  0
 41 42  1  0  0  0  0
 41 40  1  0  0  0  0
 42 40  1  0  0  0  0
 44 41  1  0  0  0  0
 45 41  1  0  0  0  0
 46 42  1  0  0  0  0
 47 42  1  0  0  0  0
M  END
>  <MODEL>
6

>  <REMARK>
 VINA RESULT:    -7.158      3.731      5.816
 INTER + INTRA:          -9.149
 INTER:                  -8.758
 INTRA:                  -0.391
 UNBOUND:                -0.108
  Name = 
  5 active torsions:
  status: ('A' for Active; 'I' for Inactive)
    1  A    between atoms: C_1  and  C_2
    2  A    between atoms: C_8  and  C_9
    3  A    between atoms: C_15  and  C_16
    4  A    between atoms: C_16  and  N_17
    5  A    between atoms: C_19  and  C_20
                            x       y       z     vdW  Elec       q    Type
                         _______ _______ _______ _____ _____    ______ ____

>  <TORSDO>
F 5

$$$$
=
 OpenBabel07192307433D

 47 51  0  0  1  0  0  0  0  0999 V2000
    1.6220    7.2680   20.4710 C   0  0  0  0  0  0  0  0  0  0  0  0
    1.2040    7.4830   21.6050 O   0  0  0  0  0  0  0  0  0  0  0  0
    1.6610    8.2360   19.4840 N   0  0  0  0  0  0  0  0  0  0  0  0
    2.3750    8.1560   18.2150 C   0  0  0  0  0  0  0  0  0  0  0  0
    2.0080    9.4370   17.4880 C   0  0  0  0  0  0  0  0  0  0  0  0
    1.8230   10.4420   18.6180 C   0  0  0  0  0  0  0  0  0  0  0  0
    1.2560    9.6150   19.7800 C   0  0  1  0  0  0  0  0  0  0  0  0
    3.4490    8.1160   18.4360 H   0  0  0  0  0  0  0  0  0  0  0  0
    2.0960    7.2680   17.6450 H   0  0  0  0  0  0  0  0  0  0  0  0
    1.0690    9.3030   16.9400 H   0  0  0  0  0  0  0  0  0  0  0  0
    2.7730    9.7450   16.7700 H   0  0  0  0  0  0  0  0  0  0  0  0
    1.1980   11.2940   18.3340 H   0  0  0  0  0  0  0  0  0  0  0  0
    2.8060   10.8380   18.9030 H   0  0  0  0  0  0  0  0  0  0  0  0
    1.7670    9.9220   20.7030 H   0  0  0  0  0  0  0  0  0  0  0  0
    4.8140    3.8880   18.9110 C   0  0  0  0  0  0  0  0  0  0  0  0
    4.5980    2.5300   18.9210 N   0  0  0  0  0  0  0  0  0  0  0  0
    3.3950    2.1540   19.3960 N   0  0  0  0  0  0  0  0  0  0  0  0
    2.8050    3.3040   19.7170 C   0  0  0  0  0  0  0  0  0  0  0  0
    1.5680    3.4720   20.2560 N   0  0  0  0  0  0  0  0  0  0  0  0
    1.2830    4.7970   20.4600 C   0  0  0  0  0  0  0  0  0  0  0  0
    2.1010    5.9130   20.1520 C   0  0  0  0  0  0  0  0  0  0  0  0
    3.3890    5.7680   19.6160 C   0  0  0  0  0  0  0  0  0  0  0  0
    3.6560    4.4190   19.4240 C   0  0  0  0  0  0  0  0  0  0  0  0
    5.2330    1.7990   18.6170 H   0  0  0  0  0  0  0  0  0  0  0  0
    0.3060    4.9600   20.9160 H   0  0  0  0  0  0  0  0  0  0  0  0
    4.0520    6.5930   19.4010 H   0  0  0  0  0  0  0  0  0  0  0  0
    6.0760    4.4880   18.4240 C   0  0  0  0  0  0  0  0  0  0  0  0
    6.1380    5.5540   18.6680 H   0  0  0  0  0  0  0  0  0  0  0  0
    6.9380    3.9870   18.8790 H   0  0  0  0  0  0  0  0  0  0  0  0
    6.1540    4.3860   17.3370 H   0  0  0  0  0  0  0  0  0  0  0  0
   -0.2520    9.7940   20.0240 C   0  0  0  0  0  0  0  0  0  0  0  0
   -0.4260   10.3110   20.9740 H   0  0  0  0  0  0  0  0  0  0  0  0
   -0.7460    8.8180   20.1010 H   0  0  0  0  0  0  0  0  0  0  0  0
   -0.9470   10.5290   18.9940 N   0  0  0  0  0  0  0  0  0  0  0  0
   -1.5630   10.0350   17.8830 C   0  0  0  0  0  0  0  0  0  0  0  0
   -2.0570   11.1570   17.2640 C   0  0  0  0  0  0  0  0  0  0  0  0
   -1.7530   12.2640   18.0060 N   0  0  0  0  0  0  0  0  0  0  0  0
   -1.0860   11.8640   19.0810 N   0  0  0  0  0  0  0  0  0  0  0  0
   -1.5890    8.9830   17.6430 H   0  0  0  0  0  0  0  0  0  0  0  0
   -2.8470   11.2230   15.9350 C   0  0  0  0  0  0  0  0  0  0  0  0
   -2.8220   10.0610   14.9760 C   0  0  0  0  0  0  0  0  0  0  0  0
   -4.0780   10.3790   15.7380 C   0  0  0  0  0  0  0  0  0  0  0  0
   -2.8620   12.2160   15.4950 H   0  0  0  0  0  0  0  0  0  0  0  0
   -2.2780    9.1650   15.2450 H   0  0  0  0  0  0  0  0  0  0  0  0
   -2.7990   10.2850   13.9150 H   0  0  0  0  0  0  0  0  0  0  0  0
   -4.9060   10.8180   15.1920 H   0  0  0  0  0  0  0  0  0  0  0  0
   -4.3840    9.7010   16.5240 H   0  0  0  0  0  0  0  0  0  0  0  0
  1  2  2  0  0  0  0
  3  7  1  0  0  0  0
  3  1  1  0  0  0  0
  4  8  1  0  0  0  0
  4  3  1  0  0  0  0
  5  4  1  0  0  0  0
  5  6  1  0  0  0  0
  6 13  1  0  0  0  0
  6  7  1  0  0  0  0
  7 31  1  0  0  0  0
  7 14  1  1  0  0  0
  9  4  1  0  0  0  0
 10  5  1  0  0  0  0
 11  5  1  0  0  0  0
 12  6  1  0  0  0  0
 15 16  1  0  0  0  0
 15 23  2  0  0  0  0
 16 17  1  0  0  0  0
 17 18  2  0  0  0  0
 18 19  1  0  0  0  0
 19 20  2  0  0  0  0
 20 25  1  0  0  0  0
 21 20  1  0  0  0  0
 21  1  1  0  0  0  0
 22 21  2  0  0  0  0
 23 22  1  0  0  0  0
 23 18  1  0  0  0  0
 24 16  1  0  0  0  0
 26 22  1  0  0  0  0
 27 28  1  0  0  0  0
 27 29  1  0  0  0  0
 27 15  1  0  0  0  0
 30 27  1  0  0  0  0
 31 33  1  0  0  0  0
 31 32  1  0  0  0  0
 34 38  1  0  0  0  0
 34 31  1  0  0  0  0
 35 34  1  0  0  0  0
 36 35  2  0  0  0  0
 36 37  1  0  0  0  0
 37 38  2  0  0  0  0
 39 35  1  0  0  0  0
 40 36  1  0  0  0  0
 41 44  1  0  0  0  0
 41 42  1  0  0  0  0
 41 40  1  0  0  0  0
 42 40  1  0  0  0  0
 42 47  1  0  0  0  0
 43 40  1  0  0  0  0
 45 41  1  0  0  0  0
 46 42  1  0  0  0  0
M  END
>  <MODEL>
7

>  <REMARK>
 VINA RESULT:    -7.004      3.756      8.917
 INTER + INTRA:          -8.955
 INTER:                  -9.366
 INTRA:                   0.411
 UNBOUND:                -0.108
  Name = 
  5 active torsions:
  status: ('A' for Active; 'I' for Inactive)
    1  A    between atoms: C_1  and  C_2
    2  A    between atoms: C_8  and  C_9
    3  A    between atoms: C_15  and  C_16
    4  A    between atoms: C_16  and  N_17
    5  A    between atoms: C_19  and  C_20
                            x       y       z     vdW  Elec       q    Type
                         _______ _______ _______ _____ _____    ______ ____

>  <TORSDO>
F 5

$$$$
=
 OpenBabel07192307433D

 47 51  0  0  1  0  0  0  0  0999 V2000
    1.6590    7.3060   20.4450 C   0  0  0  0  0  0  0  0  0  0  0  0
    1.2470    7.5040   21.5840 O   0  0  0  0  0  0  0  0  0  0  0  0
    1.6170    8.2640   19.4500 N   0  0  0  0  0  0  0  0  0  0  0  0
    2.3140    8.2200   18.1690 C   0  0  0  0  0  0  0  0  0  0  0  0
    1.8490    9.4660   17.4370 C   0  0  0  0  0  0  0  0  0  0  0  0
    1.6160   10.4670   18.5610 C   0  0  0  0  0  0  0  0  0  0  0  0
    1.1260    9.6160   19.7410 C   0  0  1  0  0  0  0  0  0  0  0  0
    3.3910    8.2530   18.3710 H   0  0  0  0  0  0  0  0  0  0  0  0
    2.0840    7.3090   17.6110 H   0  0  0  0  0  0  0  0  0  0  0  0
    0.9120    9.2640   16.9070 H   0  0  0  0  0  0  0  0  0  0  0  0
    2.5800    9.8170   16.7030 H   0  0  0  0  0  0  0  0  0  0  0  0
    0.9320   11.2740   18.2810 H   0  0  0  0  0  0  0  0  0  0  0  0
    2.5760   10.9310   18.8260 H   0  0  0  0  0  0  0  0  0  0  0  0
    1.6310    9.9660   20.6510 H   0  0  0  0  0  0  0  0  0  0  0  0
    5.0850    4.1210   18.9690 C   0  0  0  0  0  0  0  0  0  0  0  0
    4.9420    2.7540   18.9570 N   0  0  0  0  0  0  0  0  0  0  0  0
    3.7440    2.3090   19.3820 N   0  0  0  0  0  0  0  0  0  0  0  0
    3.0810    3.4210   19.6940 C   0  0  0  0  0  0  0  0  0  0  0  0
    1.8180    3.5160   20.1870 N   0  0  0  0  0  0  0  0  0  0  0  0
    1.4550    4.8210   20.3950 C   0  0  0  0  0  0  0  0  0  0  0  0
    2.2230    5.9830   20.1300 C   0  0  0  0  0  0  0  0  0  0  0  0
    3.5350    5.9130   19.6410 C   0  0  0  0  0  0  0  0  0  0  0  0
    3.8820    4.5830   19.4440 C   0  0  0  0  0  0  0  0  0  0  0  0
    5.6270    2.0620   18.6690 H   0  0  0  0  0  0  0  0  0  0  0  0
    0.4550    4.9250   20.8150 H   0  0  0  0  0  0  0  0  0  0  0  0
    4.1600    6.7760   19.4600 H   0  0  0  0  0  0  0  0  0  0  0  0
    6.3300    4.7940   18.5370 C   0  0  0  0  0  0  0  0  0  0  0  0
    7.0280    4.0920   18.0710 H   0  0  0  0  0  0  0  0  0  0  0  0
    6.1060    5.5810   17.8090 H   0  0  0  0  0  0  0  0  0  0  0  0
    6.8340    5.2520   19.3940 H   0  0  0  0  0  0  0  0  0  0  0  0
   -0.3860    9.6970   20.0100 C   0  0  0  0  0  0  0  0  0  0  0  0
   -0.8100    8.6910   20.1070 H   0  0  0  0  0  0  0  0  0  0  0  0
   -0.9000   10.1760   19.1680 H   0  0  0  0  0  0  0  0  0  0  0  0
   -0.7490   10.4410   21.1920 N   0  0  0  0  0  0  0  0  0  0  0  0
   -1.2360   11.7120   21.2670 C   0  0  0  0  0  0  0  0  0  0  0  0
   -1.4100   11.9110   22.6140 C   0  0  0  0  0  0  0  0  0  0  0  0
   -1.0550   10.7810   23.2970 N   0  0  0  0  0  0  0  0  0  0  0  0
   -0.6680    9.8730   22.4100 N   0  0  0  0  0  0  0  0  0  0  0  0
   -1.4020   12.3300   20.3980 H   0  0  0  0  0  0  0  0  0  0  0  0
   -1.9300   13.1900   23.3130 C   0  0  0  0  0  0  0  0  0  0  0  0
   -1.0260   14.3830   23.4860 C   0  0  0  0  0  0  0  0  0  0  0  0
   -2.1740   14.4460   22.5190 C   0  0  0  0  0  0  0  0  0  0  0  0
   -2.6230   12.9830   24.1230 H   0  0  0  0  0  0  0  0  0  0  0  0
   -0.0220   14.3490   23.0820 H   0  0  0  0  0  0  0  0  0  0  0  0
   -1.1060   14.9440   24.4110 H   0  0  0  0  0  0  0  0  0  0  0  0
   -3.0320   15.0510   22.7890 H   0  0  0  0  0  0  0  0  0  0  0  0
   -1.9500   14.4530   21.4600 H   0  0  0  0  0  0  0  0  0  0  0  0
  1  2  2  0  0  0  0
  3  7  1  0  0  0  0
  3  1  1  0  0  0  0
  4  8  1  0  0  0  0
  4  3  1  0  0  0  0
  5  4  1  0  0  0  0
  5  6  1  0  0  0  0
  6 13  1  0  0  0  0
  6  7  1  0  0  0  0
  7 31  1  0  0  0  0
  7 14  1  1  0  0  0
  9  4  1  0  0  0  0
 10  5  1  0  0  0  0
 11  5  1  0  0  0  0
 12  6  1  0  0  0  0
 15 23  2  0  0  0  0
 16 15  1  0  0  0  0
 16 17  1  0  0  0  0
 17 18  2  0  0  0  0
 18 19  1  0  0  0  0
 19 20  2  0  0  0  0
 20 25  1  0  0  0  0
 21 20  1  0  0  0  0
 21  1  1  0  0  0  0
 22 21  2  0  0  0  0
 23 22  1  0  0  0  0
 23 18  1  0  0  0  0
 24 16  1  0  0  0  0
 26 22  1  0  0  0  0
 27 15  1  0  0  0  0
 27 30  1  0  0  0  0
 28 27  1  0  0  0  0
 29 27  1  0  0  0  0
 31 32  1  0  0  0  0
 31 34  1  0  0  0  0
 33 31  1  0  0  0  0
 34 35  1  0  0  0  0
 34 38  1  0  0  0  0
 35 36  2  0  0  0  0
 36 37  1  0  0  0  0
 36 40  1  0  0  0  0
 38 37  2  0  0  0  0
 39 35  1  0  0  0  0
 40 41  1  0  0  0  0
 40 43  1  0  0  0  0
 41 45  1  0  0  0  0
 42 46  1  0  0  0  0
 42 40  1  0  0  0  0
 42 41  1  0  0  0  0
 44 41  1  0  0  0  0
 47 42  1  0  0  0  0
M  END
>  <MODEL>
8

>  <REMARK>
 VINA RESULT:    -6.852      2.357      9.247
 INTER + INTRA:          -8.763
 INTER:                  -8.718
 INTRA:                  -0.045
 UNBOUND:                -0.108
  Name = 
  5 active torsions:
  status: ('A' for Active; 'I' for Inactive)
    1  A    between atoms: C_1  and  C_2
    2  A    between atoms: C_8  and  C_9
    3  A    between atoms: C_15  and  C_16
    4  A    between atoms: C_16  and  N_17
    5  A    between atoms: C_19  and  C_20
                            x       y       z     vdW  Elec       q    Type
                         _______ _______ _______ _____ _____    ______ ____

>  <TORSDO>
F 5

$$$$
=
 OpenBabel07192307433D

 47 51  0  0  1  0  0  0  0  0999 V2000
    1.8650    7.4740   20.1460 C   0  0  0  0  0  0  0  0  0  0  0  0
    1.5960    7.4240   21.3420 O   0  0  0  0  0  0  0  0  0  0  0  0
    1.6620    8.6020   19.3730 N   0  0  0  0  0  0  0  0  0  0  0  0
    2.1900    8.8470   18.0350 C   0  0  0  0  0  0  0  0  0  0  0  0
    1.5910   10.1810   17.6260 C   0  0  0  0  0  0  0  0  0  0  0  0
    1.4670   10.9310   18.9460 C   0  0  0  0  0  0  0  0  0  0  0  0
    1.1630    9.8400   19.9820 C   0  0  1  0  0  0  0  0  0  0  0  0
    3.2820    8.9060   18.1120 H   0  0  0  0  0  0  0  0  0  0  0  0
    1.9240    8.0490   17.3400 H   0  0  0  0  0  0  0  0  0  0  0  0
    0.6020   10.0280   17.1810 H   0  0  0  0  0  0  0  0  0  0  0  0
    2.2090   10.7100   16.8950 H   0  0  0  0  0  0  0  0  0  0  0  0
    0.7240   11.7330   18.9140 H   0  0  0  0  0  0  0  0  0  0  0  0
    2.4350   11.3920   19.1820 H   0  0  0  0  0  0  0  0  0  0  0  0
    1.7670   10.0390   20.8780 H   0  0  0  0  0  0  0  0  0  0  0  0
    1.8900    2.8550   18.4970 C   0  0  0  0  0  0  0  0  0  0  0  0
    2.9350    2.2570   17.8350 N   0  0  0  0  0  0  0  0  0  0  0  0
    4.0170    3.0410   17.6630 N   0  0  0  0  0  0  0  0  0  0  0  0
    3.6650    4.1980   18.2220 C   0  0  0  0  0  0  0  0  0  0  0  0
    4.4090    5.3330   18.3020 N   0  0  0  0  0  0  0  0  0  0  0  0
    3.7300    6.3360   18.9450 C   0  0  0  0  0  0  0  0  0  0  0  0
    2.4320    6.2740   19.5110 C   0  0  0  0  0  0  0  0  0  0  0  0
    1.6360    5.1220   19.4250 C   0  0  0  0  0  0  0  0  0  0  0  0
    2.3410    4.1250   18.7650 C   0  0  0  0  0  0  0  0  0  0  0  0
    2.9780    1.3100   17.4710 H   0  0  0  0  0  0  0  0  0  0  0  0
    4.2940    7.2670   19.0000 H   0  0  0  0  0  0  0  0  0  0  0  0
    0.6310    5.0510   19.8140 H   0  0  0  0  0  0  0  0  0  0  0  0
    0.6200    2.1510   18.7800 C   0  0  0  0  0  0  0  0  0  0  0  0
    0.7200    1.0680   18.6470 H   0  0  0  0  0  0  0  0  0  0  0  0
    0.3010    2.3360   19.8110 H   0  0  0  0  0  0  0  0  0  0  0  0
   -0.1700    2.5010   18.1080 H   0  0  0  0  0  0  0  0  0  0  0  0
   -0.3050    9.7760   20.4380 C   0  0  0  0  0  0  0  0  0  0  0  0
   -0.4360   10.3230   21.3790 H   0  0  0  0  0  0  0  0  0  0  0  0
   -0.6000    8.7380   20.6320 H   0  0  0  0  0  0  0  0  0  0  0  0
   -1.2550   10.3050   19.4890 N   0  0  0  0  0  0  0  0  0  0  0  0
   -1.7930    9.6800   18.4050 C   0  0  0  0  0  0  0  0  0  0  0  0
   -2.6280   10.6290   17.8670 C   0  0  0  0  0  0  0  0  0  0  0  0
   -2.5890   11.7620   18.6310 N   0  0  0  0  0  0  0  0  0  0  0  0
   -1.7550   11.5460   19.6410 N   0  0  0  0  0  0  0  0  0  0  0  0
   -1.5430    8.6680   18.1250 H   0  0  0  0  0  0  0  0  0  0  0  0
   -3.5060   10.4960   16.6000 C   0  0  0  0  0  0  0  0  0  0  0  0
   -3.0560   11.0990   15.2950 C   0  0  0  0  0  0  0  0  0  0  0  0
   -3.0760    9.6060   15.4650 C   0  0  0  0  0  0  0  0  0  0  0  0
   -4.5710   10.5340   16.8120 H   0  0  0  0  0  0  0  0  0  0  0  0
   -2.0930   11.5920   15.2440 H   0  0  0  0  0  0  0  0  0  0  0  0
   -3.8120   11.5500   14.6620 H   0  0  0  0  0  0  0  0  0  0  0  0
   -3.8460    9.0460   14.9460 H   0  0  0  0  0  0  0  0  0  0  0  0
   -2.1270    9.0870   15.5320 H   0  0  0  0  0  0  0  0  0  0  0  0
  1  2  2  0  0  0  0
  3  7  1  0  0  0  0
  3  1  1  0  0  0  0
  4  8  1  0  0  0  0
  4  3  1  0  0  0  0
  5  4  1  0  0  0  0
  5  6  1  0  0  0  0
  6 13  1  0  0  0  0
  6  7  1  0  0  0  0
  7 31  1  0  0  0  0
  7 14  1  1  0  0  0
  9  4  1  0  0  0  0
 10  5  1  0  0  0  0
 11  5  1  0  0  0  0
 12  6  1  0  0  0  0
 15 23  2  0  0  0  0
 15 27  1  0  0  0  0
 16 15  1  0  0  0  0
 17 16  1  0  0  0  0
 17 18  2  0  0  0  0
 18 19  1  0  0  0  0
 18 23  1  0  0  0  0
 19 20  2  0  0  0  0
 20 25  1  0  0  0  0
 20 21  1  0  0  0  0
 21  1  1  0  0  0  0
 22 21  2  0  0  0  0
 22 26  1  0  0  0  0
 23 22  1  0  0  0  0
 24 16  1  0  0  0  0
 27 29  1  0  0  0  0
 28 27  1  0  0  0  0
 30 27  1  0  0  0  0
 31 33  1  0  0  0  0
 31 32  1  0  0  0  0
 34 38  1  0  0  0  0
 34 31  1  0  0  0  0
 35 34  1  0  0  0  0
 36 35  2  0  0  0  0
 36 37  1  0  0  0  0
 37 38  2  0  0  0  0
 39 35  1  0  0  0  0
 40 43  1  0  0  0  0
 40 36  1  0  0  0  0
 41 42  1  0  0  0  0
 41 40  1  0  0  0  0
 42 47  1  0  0  0  0
 42 40  1  0  0  0  0
 44 41  1  0  0  0  0
 45 41  1  0  0  0  0
 46 42  1  0  0  0  0
M  END
>  <MODEL>
9

>  <REMARK>
 VINA RESULT:    -6.794      3.576      8.717
 INTER + INTRA:          -8.690
 INTER:                  -8.628
 INTRA:                  -0.062
 UNBOUND:                -0.108
  Name = 
  5 active torsions:
  status: ('A' for Active; 'I' for Inactive)
    1  A    between atoms: C_1  and  C_2
    2  A    between atoms: C_8  and  C_9
    3  A    between atoms: C_15  and  C_16
    4  A    between atoms: C_16  and  N_17
    5  A    between atoms: C_19  and  C_20
                            x       y       z     vdW  Elec       q    Type
                         _______ _______ _______ _____ _____    ______ ____

>  <TORSDO>
F 5

$$$$
=
 OpenBabel07192307433D

 47 51  0  0  1  0  0  0  0  0999 V2000
    1.9350    8.2810   18.3210 C   0  0  0  0  0  0  0  0  0  0  0  0
    1.5880    8.9510   17.3520 O   0  0  0  0  0  0  0  0  0  0  0  0
    1.5200    8.5490   19.6120 N   0  0  0  0  0  0  0  0  0  0  0  0
    1.6530    7.6710   20.7690 C   0  0  0  0  0  0  0  0  0  0  0  0
    1.1210    8.4880   21.9330 C   0  0  0  0  0  0  0  0  0  0  0  0
    0.0440    9.3540   21.2910 C   0  0  0  0  0  0  0  0  0  0  0  0
    0.5690    9.6350   19.8760 C   0  0  1  0  0  0  0  0  0  0  0  0
    1.0360    6.7830   20.5880 H   0  0  0  0  0  0  0  0  0  0  0  0
    2.6870    7.3600   20.9270 H   0  0  0  0  0  0  0  0  0  0  0  0
    1.9170    9.1150   22.3480 H   0  0  0  0  0  0  0  0  0  0  0  0
    0.7330    7.8610   22.7410 H   0  0  0  0  0  0  0  0  0  0  0  0
   -0.1790   10.2560   21.8690 H   0  0  0  0  0  0  0  0  0  0  0  0
   -0.8840    8.7720   21.2230 H   0  0  0  0  0  0  0  0  0  0  0  0
   -0.2670    9.5260   19.1710 H   0  0  0  0  0  0  0  0  0  0  0  0
    3.1620    3.5580   17.8320 C   0  0  0  0  0  0  0  0  0  0  0  0
    4.4170    3.0950   17.5130 N   0  0  0  0  0  0  0  0  0  0  0  0
    5.3460    4.0550   17.3450 N   0  0  0  0  0  0  0  0  0  0  0  0
    4.6760    5.1880   17.5500 C   0  0  0  0  0  0  0  0  0  0  0  0
    5.1630    6.4560   17.4840 N   0  0  0  0  0  0  0  0  0  0  0  0
    4.1900    7.3840   17.7510 C   0  0  0  0  0  0  0  0  0  0  0  0
    2.8350    7.1400   18.0900 C   0  0  0  0  0  0  0  0  0  0  0  0
    2.3020    5.8440   18.1450 C   0  0  0  0  0  0  0  0  0  0  0  0
    3.3030    4.9240   17.8650 C   0  0  0  0  0  0  0  0  0  0  0  0
    4.7090    2.1300   17.3940 H   0  0  0  0  0  0  0  0  0  0  0  0
    4.5480    8.4110   17.6790 H   0  0  0  0  0  0  0  0  0  0  0  0
    1.2680    5.6240   18.3660 H   0  0  0  0  0  0  0  0  0  0  0  0
    2.0140    2.6530   18.0550 C   0  0  0  0  0  0  0  0  0  0  0  0
    2.3200    1.7250   18.5510 H   0  0  0  0  0  0  0  0  0  0  0  0
    1.2610    3.1390   18.6850 H   0  0  0  0  0  0  0  0  0  0  0  0
    1.5450    2.3870   17.1020 H   0  0  0  0  0  0  0  0  0  0  0  0
    1.1450   11.0470   19.6700 C   0  0  0  0  0  0  0  0  0  0  0  0
    1.4100   11.2000   18.6180 H   0  0  0  0  0  0  0  0  0  0  0  0
    2.0660   11.1730   20.2500 H   0  0  0  0  0  0  0  0  0  0  0  0
    0.2620   12.1210   20.0580 N   0  0  0  0  0  0  0  0  0  0  0  0
    0.3310   12.9010   21.1730 C   0  0  0  0  0  0  0  0  0  0  0  0
   -0.7380   13.7530   21.0370 C   0  0  0  0  0  0  0  0  0  0  0  0
   -1.3930   13.4860   19.8680 N   0  0  0  0  0  0  0  0  0  0  0  0
   -0.7570   12.4910   19.2610 N   0  0  0  0  0  0  0  0  0  0  0  0
    1.0950   12.7830   21.9270 H   0  0  0  0  0  0  0  0  0  0  0  0
   -1.1810   14.8650   22.0170 C   0  0  0  0  0  0  0  0  0  0  0  0
   -2.3790   14.6620   22.9080 C   0  0  0  0  0  0  0  0  0  0  0  0
   -0.9990   14.6900   23.5020 C   0  0  0  0  0  0  0  0  0  0  0  0
   -1.0310   15.8660   21.6230 H   0  0  0  0  0  0  0  0  0  0  0  0
   -2.9030   13.7150   22.8830 H   0  0  0  0  0  0  0  0  0  0  0  0
   -3.0260   15.5150   23.0820 H   0  0  0  0  0  0  0  0  0  0  0  0
   -0.7120   15.5620   24.0780 H   0  0  0  0  0  0  0  0  0  0  0  0
   -0.5860   13.7620   23.8760 H   0  0  0  0  0  0  0  0  0  0  0  0
  1  3  1  0  0  0  0
  2  1  2  0  0  0  0
  3  7  1  0  0  0  0
  3  4  1  0  0  0  0
  4  9  1  0  0  0  0
  4  5  1  0  0  0  0
  5 10  1  0  0  0  0
  5 11  1  0  0  0  0
  6 12  1  0  0  0  0
  6  5  1  0  0  0  0
  7 14  1  6  0  0  0
  7  6  1  0  0  0  0
  8  4  1  0  0  0  0
 13  6  1  0  0  0  0
 15 23  2  0  0  0  0
 15 27  1  0  0  0  0
 16 15  1  0  0  0  0
 17 16  1  0  0  0  0
 17 18  2  0  0  0  0
 18 23  1  0  0  0  0
 19 18  1  0  0  0  0
 19 20  2  0  0  0  0
 20 21  1  0  0  0  0
 21 22  2  0  0  0  0
 21  1  1  0  0  0  0
 22 26  1  0  0  0  0
 23 22  1  0  0  0  0
 24 16  1  0  0  0  0
 25 20  1  0  0  0  0
 27 28  1  0  0  0  0
 27 29  1  0  0  0  0
 30 27  1  0  0  0  0
 31  7  1  0  0  0  0
 31 34  1  0  0  0  0
 31 33  1  0  0  0  0
 32 31  1  0  0  0  0
 34 35  1  0  0  0  0
 35 39  1  0  0  0  0
 36 35  2  0  0  0  0
 36 40  1  0  0  0  0
 37 36  1  0  0  0  0
 38 37  2  0  0  0  0
 38 34  1  0  0  0  0
 40 41  1  0  0  0  0
 40 42  1  0  0  0  0
 41 45  1  0  0  0  0
 41 42  1  0  0  0  0
 42 47  1  0  0  0  0
 42 46  1  0  0  0  0
 43 40  1  0  0  0  0
 44 41  1  0  0  0  0
M  END
>  <MODEL>
10

>  <REMARK>
 VINA RESULT:    -6.755      2.672      9.370
 INTER + INTRA:          -8.640
 INTER:                  -8.339
 INTRA:                  -0.301
 UNBOUND:                -0.108
  Name = 
  5 active torsions:
  status: ('A' for Active; 'I' for Inactive)
    1  A    between atoms: C_1  and  C_2
    2  A    between atoms: C_8  and  C_9
    3  A    between atoms: C_15  and  C_16
    4  A    between atoms: C_16  and  N_17
    5  A    between atoms: C_19  and  C_20
                            x       y       z     vdW  Elec       q    Type
                         _______ _______ _______ _____ _____    ______ ____

>  <TORSDO>
F 5

$$$$
=
 OpenBabel07192307433D

 47 51  0  0  1  0  0  0  0  0999 V2000
    4.0600    5.1490   17.0590 C   0  0  0  0  0  0  0  0  0  0  0  0
    3.6260    6.2880   17.1990 O   0  0  0  0  0  0  0  0  0  0  0  0
    3.6500    4.0830   17.8380 N   0  0  0  0  0  0  0  0  0  0  0  0
    3.8970    2.6690   17.5790 C   0  0  0  0  0  0  0  0  0  0  0  0
    3.3140    1.9510   18.7830 C   0  0  0  0  0  0  0  0  0  0  0  0
    2.1420    2.8370   19.1860 C   0  0  0  0  0  0  0  0  0  0  0  0
    2.6020    4.2630   18.8500 C   0  0  1  0  0  0  0  0  0  0  0  0
    3.3680    2.4000   16.6570 H   0  0  0  0  0  0  0  0  0  0  0  0
    4.9610    2.4580   17.4530 H   0  0  0  0  0  0  0  0  0  0  0  0
    4.0530    1.9080   19.5890 H   0  0  0  0  0  0  0  0  0  0  0  0
    3.0090    0.9270   18.5520 H   0  0  0  0  0  0  0  0  0  0  0  0
    1.8430    2.7020   20.2300 H   0  0  0  0  0  0  0  0  0  0  0  0
    1.2750    2.5820   18.5630 H   0  0  0  0  0  0  0  0  0  0  0  0
    1.7650    4.7910   18.3740 H   0  0  0  0  0  0  0  0  0  0  0  0
    5.7080    3.7520   12.6560 C   0  0  0  0  0  0  0  0  0  0  0  0
    7.0100    3.8590   12.2270 N   0  0  0  0  0  0  0  0  0  0  0  0
    7.8590    4.3840   13.1310 N   0  0  0  0  0  0  0  0  0  0  0  0
    7.0870    4.6400   14.1850 C   0  0  0  0  0  0  0  0  0  0  0  0
    7.4650    5.1930   15.3680 N   0  0  0  0  0  0  0  0  0  0  0  0
    6.4060    5.3140   16.2300 C   0  0  0  0  0  0  0  0  0  0  0  0
    5.0640    4.9130   16.0090 C   0  0  0  0  0  0  0  0  0  0  0  0
    4.6420    4.3590   14.7910 C   0  0  0  0  0  0  0  0  0  0  0  0
    5.7300    4.2530   13.9350 C   0  0  0  0  0  0  0  0  0  0  0  0
    7.3890    3.5910   11.3250 H   0  0  0  0  0  0  0  0  0  0  0  0
    6.6760    5.7780   17.1780 H   0  0  0  0  0  0  0  0  0  0  0  0
    3.6230    4.0740   14.5770 H   0  0  0  0  0  0  0  0  0  0  0  0
    4.6330    3.1980   11.8030 C   0  0  0  0  0  0  0  0  0  0  0  0
    4.2420    2.2570   12.2050 H   0  0  0  0  0  0  0  0  0  0  0  0
    3.8010    3.9050   11.7290 H   0  0  0  0  0  0  0  0  0  0  0  0
    5.0090    3.0020   10.7930 H   0  0  0  0  0  0  0  0  0  0  0  0
    3.0300    5.1050   20.0640 C   0  0  0  0  0  0  0  0  0  0  0  0
    4.0860    5.3850   19.9800 H   0  0  0  0  0  0  0  0  0  0  0  0
    2.9290    4.5250   20.9880 H   0  0  0  0  0  0  0  0  0  0  0  0
    2.2700    6.3180   20.2530 N   0  0  0  0  0  0  0  0  0  0  0  0
    1.2960    6.5620   21.1740 C   0  0  0  0  0  0  0  0  0  0  0  0
    0.9230    7.8580   20.9130 C   0  0  0  0  0  0  0  0  0  0  0  0
    1.6740    8.3550   19.8860 N   0  0  0  0  0  0  0  0  0  0  0  0
    2.5160    7.4050   19.4980 N   0  0  0  0  0  0  0  0  0  0  0  0
    0.9690    5.8260   21.8940 H   0  0  0  0  0  0  0  0  0  0  0  0
   -0.1670    8.6840   21.6380 C   0  0  0  0  0  0  0  0  0  0  0  0
    0.1430    9.3740   22.9410 C   0  0  0  0  0  0  0  0  0  0  0  0
   -0.0730   10.1860   21.6950 C   0  0  0  0  0  0  0  0  0  0  0  0
   -1.1620    8.2620   21.5360 H   0  0  0  0  0  0  0  0  0  0  0  0
    1.1470    9.3190   23.3440 H   0  0  0  0  0  0  0  0  0  0  0  0
   -0.6330    9.3880   23.6990 H   0  0  0  0  0  0  0  0  0  0  0  0
   -0.9950   10.7500   21.6090 H   0  0  0  0  0  0  0  0  0  0  0  0
    0.7840   10.6780   21.2510 H   0  0  0  0  0  0  0  0  0  0  0  0
  1  2  2  0  0  0  0
  1  3  1  0  0  0  0
  3  7  1  0  0  0  0
  4  3  1  0  0  0  0
  4  5  1  0  0  0  0
  5  6  1  0  0  0  0
  5 10  1  0  0  0  0
  6 12  1  0  0  0  0
  7 14  1  6  0  0  0
  7  6  1  0  0  0  0
  7 31  1  0  0  0  0
  8  4  1  0  0  0  0
  9  4  1  0  0  0  0
 11  5  1  0  0  0  0
 13  6  1  0  0  0  0
 15 23  2  0  0  0  0
 16 15  1  0  0  0  0
 16 17  1  0  0  0  0
 17 18  2  0  0  0  0
 18 19  1  0  0  0  0
 19 20  2  0  0  0  0
 20 25  1  0  0  0  0
 21 20  1  0  0  0  0
 21  1  1  0  0  0  0
 22 21  2  0  0  0  0
 23 18  1  0  0  0  0
 23 22  1  0  0  0  0
 24 16  1  0  0  0  0
 26 22  1  0  0  0  0
 27 28  1  0  0  0  0
 27 15  1  0  0  0  0
 29 27  1  0  0  0  0
 30 27  1  0  0  0  0
 31 34  1  0  0  0  0
 31 33  1  0  0  0  0
 32 31  1  0  0  0  0
 34 35  1  0  0  0  0
 35 39  1  0  0  0  0
 36 35  2  0  0  0  0
 36 40  1  0  0  0  0
 37 36  1  0  0  0  0
 38 37  2  0  0  0  0
 38 34  1  0  0  0  0
 40 42  1  0  0  0  0
 40 41  1  0  0  0  0
 41 44  1  0  0  0  0
 41 45  1  0  0  0  0
 42 41  1  0  0  0  0
 43 40  1  0  0  0  0
 46 42  1  0  0  0  0
 47 42  1  0  0  0  0
M  END
>  <MODEL>
11

>  <REMARK>
 VINA RESULT:    -6.686      4.539     11.427
 INTER + INTRA:          -8.553
 INTER:                  -8.483
 INTRA:                  -0.070
 UNBOUND:                -0.108
  Name = 
  5 active torsions:
  status: ('A' for Active; 'I' for Inactive)
    1  A    between atoms: C_1  and  C_2
    2  A    between atoms: C_8  and  C_9
    3  A    between atoms: C_15  and  C_16
    4  A    between atoms: C_16  and  N_17
    5  A    between atoms: C_19  and  C_20
                            x       y       z     vdW  Elec       q    Type
                         _______ _______ _______ _____ _____    ______ ____

>  <TORSDO>
F 5

$$$$
=
 OpenBabel07192307433D

 47 51  0  0  1  0  0  0  0  0999 V2000
    1.8040    7.2280   20.2940 C   0  0  0  0  0  0  0  0  0  0  0  0
    1.4050    7.3060   21.4520 O   0  0  0  0  0  0  0  0  0  0  0  0
    1.7160    8.2720   19.3930 N   0  0  0  0  0  0  0  0  0  0  0  0
    2.3920    8.3690   18.1040 C   0  0  0  0  0  0  0  0  0  0  0  0
    1.8780    9.6630   17.4980 C   0  0  0  0  0  0  0  0  0  0  0  0
    1.6330   10.5470   18.7130 C   0  0  0  0  0  0  0  0  0  0  0  0
    1.1880    9.5750   19.8150 C   0  0  1  0  0  0  0  0  0  0  0  0
    3.4710    8.4180   18.2940 H   0  0  0  0  0  0  0  0  0  0  0  0
    2.1810    7.5070   17.4670 H   0  0  0  0  0  0  0  0  0  0  0  0
    0.9390    9.4810   16.9640 H   0  0  0  0  0  0  0  0  0  0  0  0
    2.5850   10.1030   16.7900 H   0  0  0  0  0  0  0  0  0  0  0  0
    0.9200   11.3540   18.5180 H   0  0  0  0  0  0  0  0  0  0  0  0
    2.5820   11.0150   19.0070 H   0  0  0  0  0  0  0  0  0  0  0  0
    1.6970    9.8550   20.7470 H   0  0  0  0  0  0  0  0  0  0  0  0
    1.8280    2.5610   18.7860 C   0  0  0  0  0  0  0  0  0  0  0  0
    2.9490    1.8490   18.4310 N   0  0  0  0  0  0  0  0  0  0  0  0
    4.1060    2.5310   18.5360 N   0  0  0  0  0  0  0  0  0  0  0  0
    3.7300    3.7350   18.9650 C   0  0  0  0  0  0  0  0  0  0  0  0
    4.5300    4.8050   19.2180 N   0  0  0  0  0  0  0  0  0  0  0  0
    3.8030    5.8870   19.6440 C   0  0  0  0  0  0  0  0  0  0  0  0
    2.4020    5.9590   19.8500 C   0  0  0  0  0  0  0  0  0  0  0  0
    1.5520    4.8770   19.5760 C   0  0  0  0  0  0  0  0  0  0  0  0
    2.3090    3.7970   19.1410 C   0  0  0  0  0  0  0  0  0  0  0  0
    2.9970    0.8880   18.1070 H   0  0  0  0  0  0  0  0  0  0  0  0
    4.4170    6.7680   19.8300 H   0  0  0  0  0  0  0  0  0  0  0  0
    0.4780    4.9070   19.6890 H   0  0  0  0  0  0  0  0  0  0  0  0
    0.4690    1.9790   18.7360 C   0  0  0  0  0  0  0  0  0  0  0  0
   -0.2430    2.5620   19.3300 H   0  0  0  0  0  0  0  0  0  0  0  0
    0.1030    1.9490   17.7040 H   0  0  0  0  0  0  0  0  0  0  0  0
    0.4760    0.9560   19.1270 H   0  0  0  0  0  0  0  0  0  0  0  0
   -0.3210    9.5820   20.1110 C   0  0  0  0  0  0  0  0  0  0  0  0
   -0.6860    8.5590   20.2550 H   0  0  0  0  0  0  0  0  0  0  0  0
   -0.8760    9.9990   19.2620 H   0  0  0  0  0  0  0  0  0  0  0  0
   -0.7040   10.3500   21.2720 N   0  0  0  0  0  0  0  0  0  0  0  0
   -1.2040   11.6170   21.3110 C   0  0  0  0  0  0  0  0  0  0  0  0
   -1.3950   11.8470   22.6510 C   0  0  0  0  0  0  0  0  0  0  0  0
   -1.0360   10.7370   23.3640 N   0  0  0  0  0  0  0  0  0  0  0  0
   -0.6300    9.8120   22.5030 N   0  0  0  0  0  0  0  0  0  0  0  0
   -1.3660   12.2130   20.4250 H   0  0  0  0  0  0  0  0  0  0  0  0
   -1.9340   13.1370   23.3140 C   0  0  0  0  0  0  0  0  0  0  0  0
   -1.0430   14.3420   23.4710 C   0  0  0  0  0  0  0  0  0  0  0  0
   -2.1800   14.3720   22.4880 C   0  0  0  0  0  0  0  0  0  0  0  0
   -2.6360   12.9420   24.1200 H   0  0  0  0  0  0  0  0  0  0  0  0
   -0.0340   14.3080   23.0800 H   0  0  0  0  0  0  0  0  0  0  0  0
   -1.1400   14.9230   24.3810 H   0  0  0  0  0  0  0  0  0  0  0  0
   -3.0470   14.9750   22.7340 H   0  0  0  0  0  0  0  0  0  0  0  0
   -1.9420   14.3560   21.4320 H   0  0  0  0  0  0  0  0  0  0  0  0
  1  2  2  0  0  0  0
  3  7  1  0  0  0  0
  3  1  1  0  0  0  0
  4  8  1  0  0  0  0
  4  3  1  0  0  0  0
  5  4  1  0  0  0  0
  5  6  1  0  0  0  0
  6 13  1  0  0  0  0
  6  7  1  0  0  0  0
  7 31  1  0  0  0  0
  7 14  1  1  0  0  0
  9  4  1  0  0  0  0
 10  5  1  0  0  0  0
 11  5  1  0  0  0  0
 12  6  1  0  0  0  0
 15 23  2  0  0  0  0
 16 17  1  0  0  0  0
 16 15  1  0  0  0  0
 17 18  2  0  0  0  0
 18 23  1  0  0  0  0
 18 19  1  0  0  0  0
 19 20  2  0  0  0  0
 20 25  1  0  0  0  0
 20 21  1  0  0  0  0
 21  1  1  0  0  0  0
 22 26  1  0  0  0  0
 22 21  2  0  0  0  0
 23 22  1  0  0  0  0
 24 16  1  0  0  0  0
 27 15  1  0  0  0  0
 27 30  1  0  0  0  0
 27 28  1  0  0  0  0
 29 27  1  0  0  0  0
 31 32  1  0  0  0  0
 31 34  1  0  0  0  0
 33 31  1  0  0  0  0
 34 35  1  0  0  0  0
 34 38  1  0  0  0  0
 35 36  2  0  0  0  0
 36 40  1  0  0  0  0
 36 37  1  0  0  0  0
 38 37  2  0  0  0  0
 39 35  1  0  0  0  0
 40 41  1  0  0  0  0
 40 43  1  0  0  0  0
 41 45  1  0  0  0  0
 42 46  1  0  0  0  0
 42 40  1  0  0  0  0
 42 41  1  0  0  0  0
 44 41  1  0  0  0  0
 47 42  1  0  0  0  0
M  END
>  <MODEL>
12

>  <REMARK>
 VINA RESULT:    -6.646      2.666      9.135
 INTER + INTRA:          -8.503
 INTER:                  -8.141
 INTRA:                  -0.362
 UNBOUND:                -0.108
  Name = 
  5 active torsions:
  status: ('A' for Active; 'I' for Inactive)
    1  A    between atoms: C_1  and  C_2
    2  A    between atoms: C_8  and  C_9
    3  A    between atoms: C_15  and  C_16
    4  A    between atoms: C_16  and  N_17
    5  A    between atoms: C_19  and  C_20
                            x       y       z     vdW  Elec       q    Type
                         _______ _______ _______ _____ _____    ______ ____

>  <TORSDO>
F 5

$$$$
=
 OpenBabel07192307433D

 47 51  0  0  1  0  0  0  0  0999 V2000
    1.8490    8.0100   18.7610 C   0  0  0  0  0  0  0  0  0  0  0  0
    1.2780    8.3970   17.7460 O   0  0  0  0  0  0  0  0  0  0  0  0
    1.5200    8.4540   20.0280 N   0  0  0  0  0  0  0  0  0  0  0  0
    1.9440    7.8660   21.2940 C   0  0  0  0  0  0  0  0  0  0  0  0
    1.3770    8.7920   22.3550 C   0  0  0  0  0  0  0  0  0  0  0  0
    0.0880    9.3030   21.7230 C   0  0  0  0  0  0  0  0  0  0  0  0
    0.4000    9.3820   20.2220 C   0  0  1  0  0  0  0  0  0  0  0  0
    1.5050    6.8640   21.3620 H   0  0  0  0  0  0  0  0  0  0  0  0
    3.0310    7.7850   21.3610 H   0  0  0  0  0  0  0  0  0  0  0  0
    2.0670    9.6220   22.5370 H   0  0  0  0  0  0  0  0  0  0  0  0
    1.2070    8.2820   23.3080 H   0  0  0  0  0  0  0  0  0  0  0  0
   -0.2540   10.2480   22.1560 H   0  0  0  0  0  0  0  0  0  0  0  0
   -0.7040    8.5620   21.8890 H   0  0  0  0  0  0  0  0  0  0  0  0
   -0.4630    8.9850   19.6710 H   0  0  0  0  0  0  0  0  0  0  0  0
    4.1330    3.7180   19.4010 C   0  0  0  0  0  0  0  0  0  0  0  0
    5.3440    3.3750   18.8480 N   0  0  0  0  0  0  0  0  0  0  0  0
    5.9090    4.3350   18.0900 N   0  0  0  0  0  0  0  0  0  0  0  0
    5.0340    5.3380   18.1390 C   0  0  0  0  0  0  0  0  0  0  0  0
    5.1310    6.5450   17.5210 N   0  0  0  0  0  0  0  0  0  0  0  0
    4.0440    7.3360   17.7890 C   0  0  0  0  0  0  0  0  0  0  0  0
    2.9340    7.0270   18.6150 C   0  0  0  0  0  0  0  0  0  0  0  0
    2.7990    5.7820   19.2470 C   0  0  0  0  0  0  0  0  0  0  0  0
    3.9070    4.9970   18.9560 C   0  0  0  0  0  0  0  0  0  0  0  0
    5.8460    2.4980   18.9480 H   0  0  0  0  0  0  0  0  0  0  0  0
    4.0830    8.3020   17.2860 H   0  0  0  0  0  0  0  0  0  0  0  0
    1.9520    5.5000   19.8550 H   0  0  0  0  0  0  0  0  0  0  0  0
    3.3640    2.7940   20.2640 C   0  0  0  0  0  0  0  0  0  0  0  0
    3.8590    1.8220   20.3580 H   0  0  0  0  0  0  0  0  0  0  0  0
    3.2520    3.2140   21.2690 H   0  0  0  0  0  0  0  0  0  0  0  0
    2.3650    2.6260   19.8490 H   0  0  0  0  0  0  0  0  0  0  0  0
    0.6530   10.8030   19.6900 C   0  0  0  0  0  0  0  0  0  0  0  0
    1.6390   10.8610   19.2140 H   0  0  0  0  0  0  0  0  0  0  0  0
    0.6580   11.5260   20.5140 H   0  0  0  0  0  0  0  0  0  0  0  0
   -0.3220   11.2720   18.7350 N   0  0  0  0  0  0  0  0  0  0  0  0
   -1.2970   10.5530   18.1110 C   0  0  0  0  0  0  0  0  0  0  0  0
   -1.9300   11.4840   17.3240 C   0  0  0  0  0  0  0  0  0  0  0  0
   -1.3510   12.7090   17.5050 N   0  0  0  0  0  0  0  0  0  0  0  0
   -0.3730   12.5720   18.3920 N   0  0  0  0  0  0  0  0  0  0  0  0
   -1.4430    9.4960   18.2720 H   0  0  0  0  0  0  0  0  0  0  0  0
   -3.1220   11.2480   16.3660 C   0  0  0  0  0  0  0  0  0  0  0  0
   -2.9060   10.5810   15.0330 C   0  0  0  0  0  0  0  0  0  0  0  0
   -3.6400    9.8540   16.1240 C   0  0  0  0  0  0  0  0  0  0  0  0
   -3.8610   12.0430   16.3990 H   0  0  0  0  0  0  0  0  0  0  0  0
   -1.9140   10.2350   14.7690 H   0  0  0  0  0  0  0  0  0  0  0  0
   -3.4800   10.9480   14.1890 H   0  0  0  0  0  0  0  0  0  0  0  0
   -4.7110    9.7290   16.0180 H   0  0  0  0  0  0  0  0  0  0  0  0
   -3.1450    9.0180   16.6020 H   0  0  0  0  0  0  0  0  0  0  0  0
  1  3  1  0  0  0  0
  2  1  2  0  0  0  0
  3  7  1  0  0  0  0
  3  4  1  0  0  0  0
  4  9  1  0  0  0  0
  4  8  1  0  0  0  0
  4  5  1  0  0  0  0
  5 10  1  0  0  0  0
  5 11  1  0  0  0  0
  6 13  1  0  0  0  0
  6 12  1  0  0  0  0
  6  5  1  0  0  0  0
  7 14  1  6  0  0  0
  7  6  1  0  0  0  0
 15 27  1  0  0  0  0
 16 24  1  0  0  0  0
 16 15  1  0  0  0  0
 17 18  2  0  0  0  0
 17 16  1  0  0  0  0
 18 23  1  0  0  0  0
 19 20  2  0  0  0  0
 19 18  1  0  0  0  0
 20 21  1  0  0  0  0
 21  1  1  0  0  0  0
 21 22  2  0  0  0  0
 22 26  1  0  0  0  0
 23 22  1  0  0  0  0
 23 15  2  0  0  0  0
 25 20  1  0  0  0  0
 27 28  1  0  0  0  0
 27 29  1  0  0  0  0
 30 27  1  0  0  0  0
 31  7  1  0  0  0  0
 31 33  1  0  0  0  0
 32 31  1  0  0  0  0
 34 31  1  0  0  0  0
 35 39  1  0  0  0  0
 35 34  1  0  0  0  0
 36 37  1  0  0  0  0
 36 35  2  0  0  0  0
 37 38  2  0  0  0  0
 38 34  1  0  0  0  0
 40 43  1  0  0  0  0
 40 36  1  0  0  0  0
 41 42  1  0  0  0  0
 41 40  1  0  0  0  0
 42 40  1  0  0  0  0
 42 47  1  0  0  0  0
 44 41  1  0  0  0  0
 45 41  1  0  0  0  0
 46 42  1  0  0  0  0
M  END
>  <MODEL>
13

>  <REMARK>
 VINA RESULT:    -6.617      3.744      8.841
 INTER + INTRA:          -8.466
 INTER:                  -8.257
 INTRA:                  -0.209
 UNBOUND:                -0.108
  Name = 
  5 active torsions:
  status: ('A' for Active; 'I' for Inactive)
    1  A    between atoms: C_1  and  C_2
    2  A    between atoms: C_8  and  C_9
    3  A    between atoms: C_15  and  C_16
    4  A    between atoms: C_16  and  N_17
    5  A    between atoms: C_19  and  C_20
                            x       y       z     vdW  Elec       q    Type
                         _______ _______ _______ _____ _____    ______ ____

>  <TORSDO>
F 5

$$$$
=
 OpenBabel07192307433D

 47 51  0  0  1  0  0  0  0  0999 V2000
    1.9370    8.2890   18.3200 C   0  0  0  0  0  0  0  0  0  0  0  0
    1.6270    8.9760   17.3510 O   0  0  0  0  0  0  0  0  0  0  0  0
    1.5250    8.5700   19.6090 N   0  0  0  0  0  0  0  0  0  0  0  0
    1.6110    7.6830   20.7630 C   0  0  0  0  0  0  0  0  0  0  0  0
    1.1060    8.5180   21.9270 C   0  0  0  0  0  0  0  0  0  0  0  0
    0.0730    9.4320   21.2800 C   0  0  0  0  0  0  0  0  0  0  0  0
    0.6200    9.6960   19.8700 C   0  0  1  0  0  0  0  0  0  0  0  0
    0.9580    6.8230   20.5750 H   0  0  0  0  0  0  0  0  0  0  0  0
    2.6300    7.3270   20.9280 H   0  0  0  0  0  0  0  0  0  0  0  0
    1.9260    9.1080   22.3490 H   0  0  0  0  0  0  0  0  0  0  0  0
    0.6860    7.9060   22.7290 H   0  0  0  0  0  0  0  0  0  0  0  0
   -0.1150   10.3410   21.8600 H   0  0  0  0  0  0  0  0  0  0  0  0
   -0.8790    8.8910   21.2030 H   0  0  0  0  0  0  0  0  0  0  0  0
   -0.2150    9.6250   19.1590 H   0  0  0  0  0  0  0  0  0  0  0  0
    6.1280    5.8610   17.5480 C   0  0  0  0  0  0  0  0  0  0  0  0
    6.2450    4.4950   17.4470 N   0  0  0  0  0  0  0  0  0  0  0  0
    5.0850    3.8200   17.5660 N   0  0  0  0  0  0  0  0  0  0  0  0
    4.1780    4.7750   17.7610 C   0  0  0  0  0  0  0  0  0  0  0  0
    2.8410    4.6140   17.9520 N   0  0  0  0  0  0  0  0  0  0  0  0
    2.2080    5.8180   18.1240 C   0  0  0  0  0  0  0  0  0  0  0  0
    2.7890    7.1110   18.0910 C   0  0  0  0  0  0  0  0  0  0  0  0
    4.1670    7.3040   17.9150 C   0  0  0  0  0  0  0  0  0  0  0  0
    4.7860    6.0730   17.7510 C   0  0  0  0  0  0  0  0  0  0  0  0
    7.0910    3.9550   17.2980 H   0  0  0  0  0  0  0  0  0  0  0  0
    1.1380    5.7170   18.3050 H   0  0  0  0  0  0  0  0  0  0  0  0
    4.6480    8.2720   17.9190 H   0  0  0  0  0  0  0  0  0  0  0  0
    7.2920    6.7680   17.4430 C   0  0  0  0  0  0  0  0  0  0  0  0
    8.0610    6.3640   16.7750 H   0  0  0  0  0  0  0  0  0  0  0  0
    6.9830    7.7430   17.0500 H   0  0  0  0  0  0  0  0  0  0  0  0
    7.7470    6.9230   18.4260 H   0  0  0  0  0  0  0  0  0  0  0  0
    1.2580   11.0810   19.6740 C   0  0  0  0  0  0  0  0  0  0  0  0
    1.5700   11.2130   18.6320 H   0  0  0  0  0  0  0  0  0  0  0  0
    2.1600   11.1780   20.2880 H   0  0  0  0  0  0  0  0  0  0  0  0
    0.4030   12.1930   20.0170 N   0  0  0  0  0  0  0  0  0  0  0  0
    0.3990   12.9230   21.1680 C   0  0  0  0  0  0  0  0  0  0  0  0
   -0.5970   13.8450   20.9610 C   0  0  0  0  0  0  0  0  0  0  0  0
   -1.1390   13.6660   19.7190 N   0  0  0  0  0  0  0  0  0  0  0  0
   -0.5020   12.6580   19.1360 N   0  0  0  0  0  0  0  0  0  0  0  0
    1.0710   12.7280   21.9900 H   0  0  0  0  0  0  0  0  0  0  0  0
   -1.0760   14.9440   21.9400 C   0  0  0  0  0  0  0  0  0  0  0  0
   -2.3370   14.7520   22.7410 C   0  0  0  0  0  0  0  0  0  0  0  0
   -1.0000   14.7250   23.4280 C   0  0  0  0  0  0  0  0  0  0  0  0
   -0.8730   15.9500   21.5850 H   0  0  0  0  0  0  0  0  0  0  0  0
   -2.8830   13.8210   22.6550 H   0  0  0  0  0  0  0  0  0  0  0  0
   -2.9710   15.6190   22.8950 H   0  0  0  0  0  0  0  0  0  0  0  0
   -0.7290   15.5730   24.0460 H   0  0  0  0  0  0  0  0  0  0  0  0
   -0.6390   13.7750   23.8030 H   0  0  0  0  0  0  0  0  0  0  0  0
  1  3  1  0  0  0  0
  2  1  2  0  0  0  0
  3  7  1  0  0  0  0
  3  4  1  0  0  0  0
  4  9  1  0  0  0  0
  4  5  1  0  0  0  0
  5 10  1  0  0  0  0
  5 11  1  0  0  0  0
  6 12  1  0  0  0  0
  6  5  1  0  0  0  0
  7 14  1  6  0  0  0
  7  6  1  0  0  0  0
  8  4  1  0  0  0  0
 13  6  1  0  0  0  0
 15 23  2  0  0  0  0
 16 15  1  0  0  0  0
 16 17  1  0  0  0  0
 17 18  2  0  0  0  0
 18 19  1  0  0  0  0
 19 20  2  0  0  0  0
 20 25  1  0  0  0  0
 21 20  1  0  0  0  0
 21  1  1  0  0  0  0
 22 26  1  0  0  0  0
 22 21  2  0  0  0  0
 23 18  1  0  0  0  0
 23 22  1  0  0  0  0
 24 16  1  0  0  0  0
 27 15  1  0  0  0  0
 27 30  1  0  0  0  0
 28 27  1  0  0  0  0
 29 27  1  0  0  0  0
 31  7  1  0  0  0  0
 31 34  1  0  0  0  0
 31 33  1  0  0  0  0
 32 31  1  0  0  0  0
 34 35  1  0  0  0  0
 35 39  1  0  0  0  0
 36 35  2  0  0  0  0
 36 40  1  0  0  0  0
 37 36  1  0  0  0  0
 38 37  2  0  0  0  0
 38 34  1  0  0  0  0
 40 41  1  0  0  0  0
 40 42  1  0  0  0  0
 41 45  1  0  0  0  0
 41 42  1  0  0  0  0
 42 47  1  0  0  0  0
 42 46  1  0  0  0  0
 43 40  1  0  0  0  0
 44 41  1  0  0  0  0
M  END
>  <MODEL>
14

>  <REMARK>
 VINA RESULT:    -6.529      2.739      9.540
 INTER + INTRA:          -8.355
 INTER:                  -8.081
 INTRA:                  -0.274
 UNBOUND:                -0.108
  Name = 
  5 active torsions:
  status: ('A' for Active; 'I' for Inactive)
    1  A    between atoms: C_1  and  C_2
    2  A    between atoms: C_8  and  C_9
    3  A    between atoms: C_15  and  C_16
    4  A    between atoms: C_16  and  N_17
    5  A    between atoms: C_19  and  C_20
                            x       y       z     vdW  Elec       q    Type
                         _______ _______ _______ _____ _____    ______ ____

>  <TORSDO>
F 5

$$$$
=
 OpenBabel07192307433D

 47 51  0  0  1  0  0  0  0  0999 V2000
    1.9830    7.3150   19.8380 C   0  0  0  0  0  0  0  0  0  0  0  0
    1.6390    7.0560   20.9880 O   0  0  0  0  0  0  0  0  0  0  0  0
    1.7690    8.5450   19.2440 N   0  0  0  0  0  0  0  0  0  0  0  0
    2.3690    9.0300   18.0060 C   0  0  0  0  0  0  0  0  0  0  0  0
    1.7250   10.3850   17.7740 C   0  0  0  0  0  0  0  0  0  0  0  0
    1.4750   10.9010   19.1850 C   0  0  0  0  0  0  0  0  0  0  0  0
    1.1640    9.6430   20.0070 C   0  0  1  0  0  0  0  0  0  0  0  0
    3.4490    9.1230   18.1710 H   0  0  0  0  0  0  0  0  0  0  0  0
    2.1940    8.3460   17.1740 H   0  0  0  0  0  0  0  0  0  0  0  0
    0.7780   10.2640   17.2390 H   0  0  0  0  0  0  0  0  0  0  0  0
    2.3600   11.0540   17.1860 H   0  0  0  0  0  0  0  0  0  0  0  0
    0.6920   11.6640   19.2280 H   0  0  0  0  0  0  0  0  0  0  0  0
    2.3980   11.3590   19.5630 H   0  0  0  0  0  0  0  0  0  0  0  0
    1.6960    9.7170   20.9650 H   0  0  0  0  0  0  0  0  0  0  0  0
    5.7900    4.8020   18.0380 C   0  0  0  0  0  0  0  0  0  0  0  0
    5.6970    3.6730   17.2580 N   0  0  0  0  0  0  0  0  0  0  0  0
    4.4370    3.2780   16.9880 N   0  0  0  0  0  0  0  0  0  0  0  0
    3.6790    4.1710   17.6210 C   0  0  0  0  0  0  0  0  0  0  0  0
    2.3210    4.2090   17.6710 N   0  0  0  0  0  0  0  0  0  0  0  0
    1.8740    5.2690   18.4170 C   0  0  0  0  0  0  0  0  0  0  0  0
    2.6550    6.2610   19.0610 C   0  0  0  0  0  0  0  0  0  0  0  0
    4.0580    6.2340   19.0420 C   0  0  0  0  0  0  0  0  0  0  0  0
    4.4850    5.1500   18.2870 C   0  0  0  0  0  0  0  0  0  0  0  0
    6.4560    3.1200   16.8730 H   0  0  0  0  0  0  0  0  0  0  0  0
    0.7880    5.3090   18.4960 H   0  0  0  0  0  0  0  0  0  0  0  0
    4.6840    6.9530   19.5500 H   0  0  0  0  0  0  0  0  0  0  0  0
    7.0900    5.3860   18.4370 C   0  0  0  0  0  0  0  0  0  0  0  0
    7.0090    5.9520   19.3710 H   0  0  0  0  0  0  0  0  0  0  0  0
    7.8350    4.5970   18.5830 H   0  0  0  0  0  0  0  0  0  0  0  0
    7.4570    6.0660   17.6610 H   0  0  0  0  0  0  0  0  0  0  0  0
   -0.3250    9.4400   20.3380 C   0  0  0  0  0  0  0  0  0  0  0  0
   -0.5110    8.4020   20.6380 H   0  0  0  0  0  0  0  0  0  0  0  0
   -0.9430    9.6280   19.4530 H   0  0  0  0  0  0  0  0  0  0  0  0
   -0.8320   10.2950   21.3850 N   0  0  0  0  0  0  0  0  0  0  0  0
   -1.5300   11.4570   21.2530 C   0  0  0  0  0  0  0  0  0  0  0  0
   -1.7610   11.8430   22.5510 C   0  0  0  0  0  0  0  0  0  0  0  0
   -1.2290   10.9200   23.4070 N   0  0  0  0  0  0  0  0  0  0  0  0
   -0.6760    9.9580   22.6790 N   0  0  0  0  0  0  0  0  0  0  0  0
   -1.7850   11.8850   20.2960 H   0  0  0  0  0  0  0  0  0  0  0  0
   -2.5050   13.1110   23.0340 C   0  0  0  0  0  0  0  0  0  0  0  0
   -3.9700   13.2930   22.7360 C   0  0  0  0  0  0  0  0  0  0  0  0
   -3.5190   13.0230   24.1440 C   0  0  0  0  0  0  0  0  0  0  0  0
   -1.8880   14.0050   23.0080 H   0  0  0  0  0  0  0  0  0  0  0  0
   -4.5060   12.5100   22.2140 H   0  0  0  0  0  0  0  0  0  0  0  0
   -4.3130   14.2930   22.4940 H   0  0  0  0  0  0  0  0  0  0  0  0
   -3.5570   13.8410   24.8550 H   0  0  0  0  0  0  0  0  0  0  0  0
   -3.7460   12.0560   24.5760 H   0  0  0  0  0  0  0  0  0  0  0  0
  1  2  2  0  0  0  0
  3  1  1  0  0  0  0
  3  7  1  0  0  0  0
  4  8  1  0  0  0  0
  4  3  1  0  0  0  0
  5  4  1  0  0  0  0
  5  6  1  0  0  0  0
  6 12  1  0  0  0  0
  6 13  1  0  0  0  0
  6  7  1  0  0  0  0
  7 31  1  0  0  0  0
  7 14  1  1  0  0  0
  9  4  1  0  0  0  0
 10  5  1  0  0  0  0
 11  5  1  0  0  0  0
 15 23  2  0  0  0  0
 15 27  1  0  0  0  0
 16 15  1  0  0  0  0
 17 16  1  0  0  0  0
 17 18  2  0  0  0  0
 18 19  1  0  0  0  0
 18 23  1  0  0  0  0
 19 20  2  0  0  0  0
 20 25  1  0  0  0  0
 20 21  1  0  0  0  0
 21  1  1  0  0  0  0
 22 21  2  0  0  0  0
 22 26  1  0  0  0  0
 23 22  1  0  0  0  0
 24 16  1  0  0  0  0
 27 29  1  0  0  0  0
 27 28  1  0  0  0  0
 30 27  1  0  0  0  0
 31 32  1  0  0  0  0
 31 34  1  0  0  0  0
 33 31  1  0  0  0  0
 34 38  1  0  0  0  0
 35 34  1  0  0  0  0
 35 36  2  0  0  0  0
 36 40  1  0  0  0  0
 36 37  1  0  0  0  0
 38 37  2  0  0  0  0
 39 35  1  0  0  0  0
 40 42  1  0  0  0  0
 41 40  1  0  0  0  0
 41 42  1  0  0  0  0
 42 47  1  0  0  0  0
 42 46  1  0  0  0  0
 43 40  1  0  0  0  0
 44 41  1  0  0  0  0
 45 41  1  0  0  0  0
M  END
>  <MODEL>
15

>  <REMARK>
 VINA RESULT:    -6.480      2.297      9.555
 INTER + INTRA:          -8.293
 INTER:                  -7.916
 INTRA:                  -0.377
 UNBOUND:                -0.108
  Name = 
  5 active torsions:
  status: ('A' for Active; 'I' for Inactive)
    1  A    between atoms: C_1  and  C_2
    2  A    between atoms: C_8  and  C_9
    3  A    between atoms: C_15  and  C_16
    4  A    between atoms: C_16  and  N_17
    5  A    between atoms: C_19  and  C_20
                            x       y       z     vdW  Elec       q    Type
                         _______ _______ _______ _____ _____    ______ ____

>  <TORSDO>
F 5

$$$$
=
 OpenBabel07192307433D

 47 51  0  0  1  0  0  0  0  0999 V2000
    1.3550    8.6330   20.9200 C   0  0  0  0  0  0  0  0  0  0  0  0
    1.7160    8.7790   22.0840 O   0  0  0  0  0  0  0  0  0  0  0  0
    0.5500    9.5420   20.2590 N   0  0  0  0  0  0  0  0  0  0  0  0
    0.2950    9.5960   18.8240 C   0  0  0  0  0  0  0  0  0  0  0  0
   -0.7170   10.7150   18.6570 C   0  0  0  0  0  0  0  0  0  0  0  0
   -0.3580   11.6830   19.7770 C   0  0  0  0  0  0  0  0  0  0  0  0
    0.1360   10.7850   20.9200 C   0  0  1  0  0  0  0  0  0  0  0  0
    1.2410    9.8340   18.3240 H   0  0  0  0  0  0  0  0  0  0  0  0
   -0.0800    8.6450   18.4410 H   0  0  0  0  0  0  0  0  0  0  0  0
   -1.7310   10.3290   18.7980 H   0  0  0  0  0  0  0  0  0  0  0  0
   -0.6690   11.1780   17.6670 H   0  0  0  0  0  0  0  0  0  0  0  0
   -1.1870   12.3400   20.0560 H   0  0  0  0  0  0  0  0  0  0  0  0
    0.4670   12.3240   19.4400 H   0  0  0  0  0  0  0  0  0  0  0  0
    1.0330   11.2460   21.3560 H   0  0  0  0  0  0  0  0  0  0  0  0
    1.9030    3.8270   20.1080 C   0  0  0  0  0  0  0  0  0  0  0  0
    2.5100    3.2750   19.0050 N   0  0  0  0  0  0  0  0  0  0  0  0
    2.9840    4.1680   18.1150 N   0  0  0  0  0  0  0  0  0  0  0  0
    2.6680    5.3480   18.6480 C   0  0  0  0  0  0  0  0  0  0  0  0
    2.9170    6.5790   18.1270 N   0  0  0  0  0  0  0  0  0  0  0  0
    2.4500    7.5750   18.9450 C   0  0  0  0  0  0  0  0  0  0  0  0
    1.8060    7.4310   20.1990 C   0  0  0  0  0  0  0  0  0  0  0  0
    1.5180    6.1730   20.7490 C   0  0  0  0  0  0  0  0  0  0  0  0
    1.9940    5.1820   19.9020 C   0  0  0  0  0  0  0  0  0  0  0  0
    2.6350    2.2890   18.7950 H   0  0  0  0  0  0  0  0  0  0  0  0
    2.6130    8.5730   18.5390 H   0  0  0  0  0  0  0  0  0  0  0  0
    0.9990    6.0260   21.6850 H   0  0  0  0  0  0  0  0  0  0  0  0
    1.3240    3.0040   21.1920 C   0  0  0  0  0  0  0  0  0  0  0  0
    0.2420    3.1540   21.2810 H   0  0  0  0  0  0  0  0  0  0  0  0
    1.5020    1.9400   21.0020 H   0  0  0  0  0  0  0  0  0  0  0  0
    1.7800    3.2620   22.1540 H   0  0  0  0  0  0  0  0  0  0  0  0
   -0.8690   10.5890   22.0670 C   0  0  0  0  0  0  0  0  0  0  0  0
   -0.4130   10.0130   22.8800 H   0  0  0  0  0  0  0  0  0  0  0  0
   -1.7370   10.0160   21.7220 H   0  0  0  0  0  0  0  0  0  0  0  0
   -1.3820   11.8130   22.6350 N   0  0  0  0  0  0  0  0  0  0  0  0
   -2.6310   12.0510   23.1250 C   0  0  0  0  0  0  0  0  0  0  0  0
   -2.5710   13.3600   23.5370 C   0  0  0  0  0  0  0  0  0  0  0  0
   -1.3180   13.8570   23.3120 N   0  0  0  0  0  0  0  0  0  0  0  0
   -0.5860   12.8890   22.7740 N   0  0  0  0  0  0  0  0  0  0  0  0
   -3.4120   11.3060   23.1320 H   0  0  0  0  0  0  0  0  0  0  0  0
   -3.7090   14.1960   24.1710 C   0  0  0  0  0  0  0  0  0  0  0  0
   -4.4950   15.1700   23.3330 C   0  0  0  0  0  0  0  0  0  0  0  0
   -5.1470   13.9100   23.8290 C   0  0  0  0  0  0  0  0  0  0  0  0
   -3.5020   14.4920   25.1960 H   0  0  0  0  0  0  0  0  0  0  0  0
   -4.2820   15.2500   22.2750 H   0  0  0  0  0  0  0  0  0  0  0  0
   -4.7850   16.1080   23.7930 H   0  0  0  0  0  0  0  0  0  0  0  0
   -5.8790   13.9950   24.6240 H   0  0  0  0  0  0  0  0  0  0  0  0
   -5.3730   13.1340   23.1070 H   0  0  0  0  0  0  0  0  0  0  0  0
  1  2  2  0  0  0  0
  3  1  1  0  0  0  0
  3  7  1  0  0  0  0
  4  3  1  0  0  0  0
  5 10  1  0  0  0  0
  5  4  1  0  0  0  0
  5  6  1  0  0  0  0
  6 12  1  0  0  0  0
  6  7  1  0  0  0  0
  7 14  1  1  0  0  0
  7 31  1  0  0  0  0
  8  4  1  0  0  0  0
  9  4  1  0  0  0  0
 11  5  1  0  0  0  0
 13  6  1  0  0  0  0
 15 27  1  0  0  0  0
 16 15  1  0  0  0  0
 17 18  2  0  0  0  0
 17 16  1  0  0  0  0
 18 23  1  0  0  0  0
 19 18  1  0  0  0  0
 19 20  2  0  0  0  0
 20 21  1  0  0  0  0
 21 22  2  0  0  0  0
 21  1  1  0  0  0  0
 22 26  1  0  0  0  0
 23 15  2  0  0  0  0
 23 22  1  0  0  0  0
 24 16  1  0  0  0  0
 25 20  1  0  0  0  0
 27 28  1  0  0  0  0
 27 30  1  0  0  0  0
 29 27  1  0  0  0  0
 31 34  1  0  0  0  0
 31 32  1  0  0  0  0
 33 31  1  0  0  0  0
 34 38  1  0  0  0  0
 34 35  1  0  0  0  0
 35 39  1  0  0  0  0
 35 36  2  0  0  0  0
 36 40  1  0  0  0  0
 37 36  1  0  0  0  0
 38 37  2  0  0  0  0
 40 43  1  0  0  0  0
 41 45  1  0  0  0  0
 41 42  1  0  0  0  0
 41 40  1  0  0  0  0
 42 40  1  0  0  0  0
 42 46  1  0  0  0  0
 44 41  1  0  0  0  0
 47 42  1  0  0  0  0
M  END
>  <MODEL>
16

>  <REMARK>
 VINA RESULT:    -6.447      2.250      8.930
 INTER + INTRA:          -8.251
 INTER:                  -8.484
 INTRA:                   0.233
 UNBOUND:                -0.108
  Name = 
  5 active torsions:
  status: ('A' for Active; 'I' for Inactive)
    1  A    between atoms: C_1  and  C_2
    2  A    between atoms: C_8  and  C_9
    3  A    between atoms: C_15  and  C_16
    4  A    between atoms: C_16  and  N_17
    5  A    between atoms: C_19  and  C_20
                            x       y       z     vdW  Elec       q    Type
                         _______ _______ _______ _____ _____    ______ ____

>  <TORSDO>
F 5

$$$$
=
 OpenBabel07192307433D

 47 51  0  0  1  0  0  0  0  0999 V2000
    3.5310    6.5430   18.0790 C   0  0  0  0  0  0  0  0  0  0  0  0
    3.0460    7.6400   17.8210 O   0  0  0  0  0  0  0  0  0  0  0  0
    3.0360    5.7120   19.0670 N   0  0  0  0  0  0  0  0  0  0  0  0
    3.3640    4.3040   19.2650 C   0  0  0  0  0  0  0  0  0  0  0  0
    2.6210    3.9120   20.5300 C   0  0  0  0  0  0  0  0  0  0  0  0
    1.3740    4.7870   20.4890 C   0  0  0  0  0  0  0  0  0  0  0  0
    1.8380    6.0900   19.8240 C   0  0  1  0  0  0  0  0  0  0  0  0
    2.9940    3.7480   18.3950 H   0  0  0  0  0  0  0  0  0  0  0  0
    4.4400    4.1450   19.3580 H   0  0  0  0  0  0  0  0  0  0  0  0
    3.2250    4.1520   21.4100 H   0  0  0  0  0  0  0  0  0  0  0  0
    2.3870    2.8450   20.5640 H   0  0  0  0  0  0  0  0  0  0  0  0
    0.9190    4.9280   21.4740 H   0  0  0  0  0  0  0  0  0  0  0  0
    0.6240    4.3030   19.8500 H   0  0  0  0  0  0  0  0  0  0  0  0
    1.0700    6.4000   19.1020 H   0  0  0  0  0  0  0  0  0  0  0  0
    5.8680    4.4160   14.3290 C   0  0  0  0  0  0  0  0  0  0  0  0
    7.2330    4.3830   14.1620 N   0  0  0  0  0  0  0  0  0  0  0  0
    7.9350    4.9870   15.1410 N   0  0  0  0  0  0  0  0  0  0  0  0
    6.9990    5.4400   15.9730 C   0  0  0  0  0  0  0  0  0  0  0  0
    7.1890    6.1400   17.1230 N   0  0  0  0  0  0  0  0  0  0  0  0
    5.9980    6.4470   17.7280 C   0  0  0  0  0  0  0  0  0  0  0  0
    4.6940    6.0960   17.2950 C   0  0  0  0  0  0  0  0  0  0  0  0
    4.4680    5.3930   16.1030 C   0  0  0  0  0  0  0  0  0  0  0  0
    5.6870    5.0990   15.5060 C   0  0  0  0  0  0  0  0  0  0  0  0
    7.7540    3.9630   13.3990 H   0  0  0  0  0  0  0  0  0  0  0  0
    6.1200    7.0310   18.6400 H   0  0  0  0  0  0  0  0  0  0  0  0
    3.4880    5.1390   15.7260 H   0  0  0  0  0  0  0  0  0  0  0  0
    4.9340    3.8040   13.3580 C   0  0  0  0  0  0  0  0  0  0  0  0
    3.9250    3.7090   13.7720 H   0  0  0  0  0  0  0  0  0  0  0  0
    4.8710    4.4160   12.4510 H   0  0  0  0  0  0  0  0  0  0  0  0
    5.2780    2.8040   13.0740 H   0  0  0  0  0  0  0  0  0  0  0  0
    2.0440    7.2690   20.7900 C   0  0  0  0  0  0  0  0  0  0  0  0
    3.0540    7.6790   20.6820 H   0  0  0  0  0  0  0  0  0  0  0  0
    1.9480    6.9340   21.8300 H   0  0  0  0  0  0  0  0  0  0  0  0
    1.1100    8.3580   20.6200 N   0  0  0  0  0  0  0  0  0  0  0  0
    1.0440    9.2520   19.5940 C   0  0  0  0  0  0  0  0  0  0  0  0
   -0.0200   10.0530   19.9340 C   0  0  0  0  0  0  0  0  0  0  0  0
   -0.5640    9.6200   21.1110 N   0  0  0  0  0  0  0  0  0  0  0  0
    0.1270    8.5620   21.5160 N   0  0  0  0  0  0  0  0  0  0  0  0
    1.7270    9.2410   18.7590 H   0  0  0  0  0  0  0  0  0  0  0  0
   -0.5680   11.2660   19.1460 C   0  0  0  0  0  0  0  0  0  0  0  0
   -1.6620   11.0800   18.1270 C   0  0  0  0  0  0  0  0  0  0  0  0
   -1.9540   11.7890   19.4200 C   0  0  0  0  0  0  0  0  0  0  0  0
    0.1940   12.0050   18.9140 H   0  0  0  0  0  0  0  0  0  0  0  0
   -2.0870   10.0950   17.9800 H   0  0  0  0  0  0  0  0  0  0  0  0
   -1.6100   11.6740   17.2210 H   0  0  0  0  0  0  0  0  0  0  0  0
   -2.1000   12.8630   19.3890 H   0  0  0  0  0  0  0  0  0  0  0  0
   -2.5730   11.2840   20.1510 H   0  0  0  0  0  0  0  0  0  0  0  0
  1  3  1  0  0  0  0
  2  1  2  0  0  0  0
  3  4  1  0  0  0  0
  3  7  1  0  0  0  0
  4  9  1  0  0  0  0
  4  5  1  0  0  0  0
  5 11  1  0  0  0  0
  5 10  1  0  0  0  0
  6  5  1  0  0  0  0
  6 12  1  0  0  0  0
  7 14  1  6  0  0  0
  7  6  1  0  0  0  0
  7 31  1  0  0  0  0
  8  4  1  0  0  0  0
 13  6  1  0  0  0  0
 15 23  2  0  0  0  0
 16 15  1  0  0  0  0
 16 17  1  0  0  0  0
 17 18  2  0  0  0  0
 18 19  1  0  0  0  0
 19 20  2  0  0  0  0
 20 25  1  0  0  0  0
 21 20  1  0  0  0  0
 21  1  1  0  0  0  0
 22 21  2  0  0  0  0
 23 18  1  0  0  0  0
 23 22  1  0  0  0  0
 24 16  1  0  0  0  0
 26 22  1  0  0  0  0
 27 28  1  0  0  0  0
 27 15  1  0  0  0  0
 29 27  1  0  0  0  0
 30 27  1  0  0  0  0
 31 33  1  0  0  0  0
 32 31  1  0  0  0  0
 34 31  1  0  0  0  0
 34 38  1  0  0  0  0
 35 36  2  0  0  0  0
 35 34  1  0  0  0  0
 36 37  1  0  0  0  0
 37 38  2  0  0  0  0
 39 35  1  0  0  0  0
 40 42  1  0  0  0  0
 40 36  1  0  0  0  0
 41 40  1  0  0  0  0
 41 42  1  0  0  0  0
 42 47  1  0  0  0  0
 43 40  1  0  0  0  0
 44 41  1  0  0  0  0
 45 41  1  0  0  0  0
 46 42  1  0  0  0  0
M  END
>  <MODEL>
17

>  <REMARK>
 VINA RESULT:    -6.446      3.581     10.375
 INTER + INTRA:          -8.250
 INTER:                  -7.817
 INTRA:                  -0.433
 UNBOUND:                -0.108
  Name = 
  5 active torsions:
  status: ('A' for Active; 'I' for Inactive)
    1  A    between atoms: C_1  and  C_2
    2  A    between atoms: C_8  and  C_9
    3  A    between atoms: C_15  and  C_16
    4  A    between atoms: C_16  and  N_17
    5  A    between atoms: C_19  and  C_20
                            x       y       z     vdW  Elec       q    Type
                         _______ _______ _______ _____ _____    ______ ____

>  <TORSDO>
F 5

$$$$
=
 OpenBabel07192307433D

 47 51  0  0  1  0  0  0  0  0999 V2000
    0.6350   10.4730   19.0970 C   0  0  0  0  0  0  0  0  0  0  0  0
    1.4370   10.9020   18.2730 O   0  0  0  0  0  0  0  0  0  0  0  0
    0.7870    9.2580   19.7370 N   0  0  0  0  0  0  0  0  0  0  0  0
    0.0500    8.7920   20.9060 C   0  0  0  0  0  0  0  0  0  0  0  0
    0.5440    7.3740   21.1310 C   0  0  0  0  0  0  0  0  0  0  0  0
    1.9910    7.4270   20.6550 C   0  0  0  0  0  0  0  0  0  0  0  0
    1.9800    8.4370   19.4990 C   0  0  1  0  0  0  0  0  0  0  0  0
    0.3100    9.4440   21.7480 H   0  0  0  0  0  0  0  0  0  0  0  0
   -1.0300    8.8270   20.7480 H   0  0  0  0  0  0  0  0  0  0  0  0
   -0.0320    6.6730   20.5180 H   0  0  0  0  0  0  0  0  0  0  0  0
    0.4540    7.0590   22.1740 H   0  0  0  0  0  0  0  0  0  0  0  0
    2.3870    6.4440   20.3830 H   0  0  0  0  0  0  0  0  0  0  0  0
    2.6160    7.8170   21.4690 H   0  0  0  0  0  0  0  0  0  0  0  0
    2.8590    9.0870   19.6020 H   0  0  0  0  0  0  0  0  0  0  0  0
   -4.0340   11.9430   18.7850 C   0  0  0  0  0  0  0  0  0  0  0  0
   -4.6020   12.9410   19.5400 N   0  0  0  0  0  0  0  0  0  0  0  0
   -3.7620   13.5370   20.4100 N   0  0  0  0  0  0  0  0  0  0  0  0
   -2.6070   12.9010   20.2260 C   0  0  0  0  0  0  0  0  0  0  0  0
   -1.4340   13.1200   20.8770 N   0  0  0  0  0  0  0  0  0  0  0  0
   -0.4470   12.2780   20.4350 C   0  0  0  0  0  0  0  0  0  0  0  0
   -0.5420   11.2980   19.4150 C   0  0  0  0  0  0  0  0  0  0  0  0
   -1.7440   11.0370   18.7420 C   0  0  0  0  0  0  0  0  0  0  0  0
   -2.7280   11.8970   19.2110 C   0  0  0  0  0  0  0  0  0  0  0  0
   -5.5620   13.2690   19.5130 H   0  0  0  0  0  0  0  0  0  0  0  0
    0.4990   12.4150   20.9590 H   0  0  0  0  0  0  0  0  0  0  0  0
   -1.8610   10.2760   17.9840 H   0  0  0  0  0  0  0  0  0  0  0  0
   -4.7980   11.1760   17.7770 C   0  0  0  0  0  0  0  0  0  0  0  0
   -4.1680   10.8770   16.9320 H   0  0  0  0  0  0  0  0  0  0  0  0
   -5.2170   10.2680   18.2240 H   0  0  0  0  0  0  0  0  0  0  0  0
   -5.6240   11.7780   17.3850 H   0  0  0  0  0  0  0  0  0  0  0  0
    2.0500    7.8110   18.0960 C   0  0  0  0  0  0  0  0  0  0  0  0
    2.4690    8.5270   17.3800 H   0  0  0  0  0  0  0  0  0  0  0  0
    1.0450    7.5590   17.7380 H   0  0  0  0  0  0  0  0  0  0  0  0
    2.8330    6.6010   18.0130 N   0  0  0  0  0  0  0  0  0  0  0  0
    2.3850    5.3160   17.9410 C   0  0  0  0  0  0  0  0  0  0  0  0
    3.5400    4.5760   17.8760 C   0  0  0  0  0  0  0  0  0  0  0  0
    4.6230    5.4100   17.8900 N   0  0  0  0  0  0  0  0  0  0  0  0
    4.1760    6.6580   17.9530 N   0  0  0  0  0  0  0  0  0  0  0  0
    1.3370    5.0570   17.9460 H   0  0  0  0  0  0  0  0  0  0  0  0
    3.6630    3.0360   17.7940 C   0  0  0  0  0  0  0  0  0  0  0  0
    3.6010    2.2000   19.0460 C   0  0  0  0  0  0  0  0  0  0  0  0
    2.4670    2.1600   18.0610 C   0  0  0  0  0  0  0  0  0  0  0  0
    4.3470    2.7020   17.0190 H   0  0  0  0  0  0  0  0  0  0  0  0
    3.4300    2.6850   19.9990 H   0  0  0  0  0  0  0  0  0  0  0  0
    4.2540    1.3360   19.1060 H   0  0  0  0  0  0  0  0  0  0  0  0
    2.3510    1.2700   17.4550 H   0  0  0  0  0  0  0  0  0  0  0  0
    1.5290    2.6220   18.3450 H   0  0  0  0  0  0  0  0  0  0  0  0
  1 21  1  0  0  0  0
  1  3  1  0  0  0  0
  2  1  2  0  0  0  0
  3  4  1  0  0  0  0
  4  5  1  0  0  0  0
  4  8  1  0  0  0  0
  5 11  1  0  0  0  0
  6  5  1  0  0  0  0
  6 13  1  0  0  0  0
  7 14  1  1  0  0  0
  7  3  1  0  0  0  0
  7  6  1  0  0  0  0
  9  4  1  0  0  0  0
 10  5  1  0  0  0  0
 12  6  1  0  0  0  0
 15 23  2  0  0  0  0
 15 16  1  0  0  0  0
 16 17  1  0  0  0  0
 18 17  2  0  0  0  0
 18 19  1  0  0  0  0
 20 19  2  0  0  0  0
 20 25  1  0  0  0  0
 21 20  1  0  0  0  0
 22 23  1  0  0  0  0
 22 21  2  0  0  0  0
 23 18  1  0  0  0  0
 24 16  1  0  0  0  0
 26 22  1  0  0  0  0
 27 29  1  0  0  0  0
 27 15  1  0  0  0  0
 28 27  1  0  0  0  0
 30 27  1  0  0  0  0
 31  7  1  0  0  0  0
 32 31  1  0  0  0  0
 33 31  1  0  0  0  0
 34 31  1  0  0  0  0
 35 39  1  0  0  0  0
 35 34  1  0  0  0  0
 36 37  1  0  0  0  0
 36 35  2  0  0  0  0
 37 38  2  0  0  0  0
 38 34  1  0  0  0  0
 40 36  1  0  0  0  0
 40 42  1  0  0  0  0
 40 41  1  0  0  0  0
 41 45  1  0  0  0  0
 41 44  1  0  0  0  0
 42 47  1  0  0  0  0
 42 41  1  0  0  0  0
 43 40  1  0  0  0  0
 46 42  1  0  0  0  0
M  END
>  <MODEL>
18

>  <REMARK>
 VINA RESULT:    -6.414      2.673      4.101
 INTER + INTRA:          -8.210
 INTER:                  -7.769
 INTRA:                  -0.441
 UNBOUND:                -0.108
  Name = 
  5 active torsions:
  status: ('A' for Active; 'I' for Inactive)
    1  A    between atoms: C_1  and  C_2
    2  A    between atoms: C_8  and  C_9
    3  A    between atoms: C_15  and  C_16
    4  A    between atoms: C_16  and  N_17
    5  A    between atoms: C_19  and  C_20
                            x       y       z     vdW  Elec       q    Type
                         _______ _______ _______ _____ _____    ______ ____

>  <TORSDO>
F 5

$$$$
=
 OpenBabel07192307433D

 47 51  0  0  1  0  0  0  0  0999 V2000
    1.9890    7.8590   18.3190 C   0  0  0  0  0  0  0  0  0  0  0  0
    1.3900    8.3600   17.3720 O   0  0  0  0  0  0  0  0  0  0  0  0
    1.6860    8.1410   19.6380 N   0  0  0  0  0  0  0  0  0  0  0  0
    2.1460    7.4080   20.8120 C   0  0  0  0  0  0  0  0  0  0  0  0
    1.5960    8.1900   21.9920 C   0  0  0  0  0  0  0  0  0  0  0  0
    0.2870    8.7570   21.4570 C   0  0  0  0  0  0  0  0  0  0  0  0
    0.5620    9.0240   19.9700 C   0  0  1  0  0  0  0  0  0  0  0  0
    1.7190    6.3990   20.7670 H   0  0  0  0  0  0  0  0  0  0  0  0
    3.2350    7.3320   20.8450 H   0  0  0  0  0  0  0  0  0  0  0  0
    2.2820    9.0000   22.2590 H   0  0  0  0  0  0  0  0  0  0  0  0
    1.4540    7.5650   22.8780 H   0  0  0  0  0  0  0  0  0  0  0  0
   -0.0540    9.6380   22.0100 H   0  0  0  0  0  0  0  0  0  0  0  0
   -0.4940    7.9910   21.5480 H   0  0  0  0  0  0  0  0  0  0  0  0
   -0.3100    8.6850   19.3940 H   0  0  0  0  0  0  0  0  0  0  0  0
    6.6120    6.4710   17.4550 C   0  0  0  0  0  0  0  0  0  0  0  0
    7.0290    5.1730   17.2730 N   0  0  0  0  0  0  0  0  0  0  0  0
    6.0470    4.2520   17.3350 N   0  0  0  0  0  0  0  0  0  0  0  0
    4.9510    4.9690   17.5760 C   0  0  0  0  0  0  0  0  0  0  0  0
    3.6840    4.5050   17.7400 N   0  0  0  0  0  0  0  0  0  0  0  0
    2.8000    5.5260   17.9760 C   0  0  0  0  0  0  0  0  0  0  0  0
    3.0800    6.9150   18.0300 C   0  0  0  0  0  0  0  0  0  0  0  0
    4.3810    7.4190   17.8840 C   0  0  0  0  0  0  0  0  0  0  0  0
    5.2570    6.3670   17.6530 C   0  0  0  0  0  0  0  0  0  0  0  0
    7.9730    4.8430   17.1010 H   0  0  0  0  0  0  0  0  0  0  0  0
    1.7790    5.1800   18.1380 H   0  0  0  0  0  0  0  0  0  0  0  0
    4.6350    8.4670   17.9530 H   0  0  0  0  0  0  0  0  0  0  0  0
    7.5470    7.6170   17.4200 C   0  0  0  0  0  0  0  0  0  0  0  0
    7.6430    8.0300   16.4100 H   0  0  0  0  0  0  0  0  0  0  0  0
    7.1950    8.4170   18.0800 H   0  0  0  0  0  0  0  0  0  0  0  0
    8.5430    7.3090   17.7540 H   0  0  0  0  0  0  0  0  0  0  0  0
    0.7890   10.5020   19.6110 C   0  0  0  0  0  0  0  0  0  0  0  0
    1.7520   10.6270   19.1050 H   0  0  0  0  0  0  0  0  0  0  0  0
    0.8250   11.1150   20.5180 H   0  0  0  0  0  0  0  0  0  0  0  0
   -0.2280   11.0790   18.7630 N   0  0  0  0  0  0  0  0  0  0  0  0
   -1.2330   10.4370   18.1050 C   0  0  0  0  0  0  0  0  0  0  0  0
   -1.8980   11.4540   17.4630 C   0  0  0  0  0  0  0  0  0  0  0  0
   -1.3060   12.6490   17.7590 N   0  0  0  0  0  0  0  0  0  0  0  0
   -0.2890   12.4110   18.5780 N   0  0  0  0  0  0  0  0  0  0  0  0
   -1.3760    9.3680   18.1470 H   0  0  0  0  0  0  0  0  0  0  0  0
   -3.1340   11.3300   16.5400 C   0  0  0  0  0  0  0  0  0  0  0  0
   -2.9900   10.7730   15.1470 C   0  0  0  0  0  0  0  0  0  0  0  0
   -3.7020    9.9760   16.2040 C   0  0  0  0  0  0  0  0  0  0  0  0
   -3.8470   12.1390   16.6690 H   0  0  0  0  0  0  0  0  0  0  0  0
   -2.0210   10.4240   14.8140 H   0  0  0  0  0  0  0  0  0  0  0  0
   -3.5870   11.2240   14.3620 H   0  0  0  0  0  0  0  0  0  0  0  0
   -4.7800    9.8880   16.1340 H   0  0  0  0  0  0  0  0  0  0  0  0
   -3.2140    9.0890   16.5900 H   0  0  0  0  0  0  0  0  0  0  0  0
  1  3  1  0  0  0  0
  2  1  2  0  0  0  0
  3  7  1  0  0  0  0
  3  4  1  0  0  0  0
  4  9  1  0  0  0  0
  4  5  1  0  0  0  0
  5 10  1  0  0  0  0
  5 11  1  0  0  0  0
  6 13  1  0  0  0  0
  6  5  1  0  0  0  0
  6 12  1  0  0  0  0
  7 14  1  6  0  0  0
  7  6  1  0  0  0  0
  8  4  1  0  0  0  0
 15 23  2  0  0  0  0
 16 17  1  0  0  0  0
 16 15  1  0  0  0  0
 17 18  2  0  0  0  0
 18 23  1  0  0  0  0
 18 19  1  0  0  0  0
 19 20  2  0  0  0  0
 20 21  1  0  0  0  0
 20 25  1  0  0  0  0
 21  1  1  0  0  0  0
 22 26  1  0  0  0  0
 22 21  2  0  0  0  0
 23 22  1  0  0  0  0
 24 16  1  0  0  0  0
 27 15  1  0  0  0  0
 27 30  1  0  0  0  0
 27 29  1  0  0  0  0
 28 27  1  0  0  0  0
 31  7  1  0  0  0  0
 31 33  1  0  0  0  0
 32 31  1  0  0  0  0
 34 31  1  0  0  0  0
 35 39  1  0  0  0  0
 35 34  1  0  0  0  0
 36 37  1  0  0  0  0
 36 35  2  0  0  0  0
 37 38  2  0  0  0  0
 38 34  1  0  0  0  0
 40 43  1  0  0  0  0
 40 36  1  0  0  0  0
 41 42  1  0  0  0  0
 41 40  1  0  0  0  0
 42 40  1  0  0  0  0
 42 47  1  0  0  0  0
 44 41  1  0  0  0  0
 45 41  1  0  0  0  0
 46 42  1  0  0  0  0
M  END
>  <MODEL>
19

>  <REMARK>
 VINA RESULT:    -6.399      3.923      9.278
 INTER + INTRA:          -8.190
 INTER:                  -7.615
 INTRA:                  -0.575
 UNBOUND:                -0.108
  Name = 
  5 active torsions:
  status: ('A' for Active; 'I' for Inactive)
    1  A    between atoms: C_1  and  C_2
    2  A    between atoms: C_8  and  C_9
    3  A    between atoms: C_15  and  C_16
    4  A    between atoms: C_16  and  N_17
    5  A    between atoms: C_19  and  C_20
                            x       y       z     vdW  Elec       q    Type
                         _______ _______ _______ _____ _____    ______ ____

>  <TORSDO>
F 5

$$$$
=
 OpenBabel07192307433D

 47 51  0  0  1  0  0  0  0  0999 V2000
    1.9950    8.4250   18.3240 C   0  0  0  0  0  0  0  0  0  0  0  0
    2.7940    8.5710   17.4030 O   0  0  0  0  0  0  0  0  0  0  0  0
    2.0190    7.3400   19.1790 N   0  0  0  0  0  0  0  0  0  0  0  0
    1.3020    7.2120   20.4430 C   0  0  0  0  0  0  0  0  0  0  0  0
    1.6100    5.8030   20.9170 C   0  0  0  0  0  0  0  0  0  0  0  0
    3.0160    5.5530   20.3870 C   0  0  0  0  0  0  0  0  0  0  0  0
    3.0690    6.3220   19.0590 C   0  0  1  0  0  0  0  0  0  0  0  0
    1.7030    7.9630   21.1340 H   0  0  0  0  0  0  0  0  0  0  0  0
    0.2290    7.3770   20.3220 H   0  0  0  0  0  0  0  0  0  0  0  0
    0.9030    5.0940   20.4730 H   0  0  0  0  0  0  0  0  0  0  0  0
    1.5440    5.7030   22.0040 H   0  0  0  0  0  0  0  0  0  0  0  0
    3.2550    4.4890   20.2930 H   0  0  0  0  0  0  0  0  0  0  0  0
    3.7400    5.9900   21.0860 H   0  0  0  0  0  0  0  0  0  0  0  0
    4.0350    6.8440   19.0030 H   0  0  0  0  0  0  0  0  0  0  0  0
    0.0790   12.5660   20.1230 C   0  0  0  0  0  0  0  0  0  0  0  0
   -1.1610   13.0680   19.8060 N   0  0  0  0  0  0  0  0  0  0  0  0
   -1.8680   12.3180   18.9380 N   0  0  0  0  0  0  0  0  0  0  0  0
   -1.0600   11.2940   18.6680 C   0  0  0  0  0  0  0  0  0  0  0  0
   -1.3020   10.2530   17.8290 N   0  0  0  0  0  0  0  0  0  0  0  0
   -0.2460    9.3800   17.7900 C   0  0  0  0  0  0  0  0  0  0  0  0
    0.9660    9.4590   18.5210 C   0  0  0  0  0  0  0  0  0  0  0  0
    1.2510   10.5330   19.3780 C   0  0  0  0  0  0  0  0  0  0  0  0
    0.1710   11.4050   19.3950 C   0  0  0  0  0  0  0  0  0  0  0  0
   -1.5900   13.9220   20.1470 H   0  0  0  0  0  0  0  0  0  0  0  0
   -0.4030    8.5480   17.1040 H   0  0  0  0  0  0  0  0  0  0  0  0
    2.1770   10.6430   19.9230 H   0  0  0  0  0  0  0  0  0  0  0  0
    0.9970   13.2510   21.0590 C   0  0  0  0  0  0  0  0  0  0  0  0
    2.0400   13.1700   20.7340 H   0  0  0  0  0  0  0  0  0  0  0  0
    0.7470   14.3150   21.1300 H   0  0  0  0  0  0  0  0  0  0  0  0
    0.9210   12.8120   22.0590 H   0  0  0  0  0  0  0  0  0  0  0  0
    2.9610    5.4450   17.8000 C   0  0  0  0  0  0  0  0  0  0  0  0
    2.1710    5.8210   17.1410 H   0  0  0  0  0  0  0  0  0  0  0  0
    2.6860    4.4190   18.0710 H   0  0  0  0  0  0  0  0  0  0  0  0
    4.1740    5.3550   17.0220 N   0  0  0  0  0  0  0  0  0  0  0  0
    4.5340    4.3800   16.1410 C   0  0  0  0  0  0  0  0  0  0  0  0
    5.7640    4.7930   15.6890 C   0  0  0  0  0  0  0  0  0  0  0  0
    6.0950    5.9810   16.2770 N   0  0  0  0  0  0  0  0  0  0  0  0
    5.0990    6.3300   17.0830 N   0  0  0  0  0  0  0  0  0  0  0  0
    3.9150    3.5220   15.9270 H   0  0  0  0  0  0  0  0  0  0  0  0
    6.6790    4.0720   14.6700 C   0  0  0  0  0  0  0  0  0  0  0  0
    6.1920    3.7990   13.2710 C   0  0  0  0  0  0  0  0  0  0  0  0
    7.2640    4.8250   13.5050 C   0  0  0  0  0  0  0  0  0  0  0  0
    7.3070    3.3110   15.1240 H   0  0  0  0  0  0  0  0  0  0  0  0
    5.2100    4.1480   12.9740 H   0  0  0  0  0  0  0  0  0  0  0  0
    6.4780    2.8580   12.8140 H   0  0  0  0  0  0  0  0  0  0  0  0
    8.2770    4.5790   13.2070 H   0  0  0  0  0  0  0  0  0  0  0  0
    7.0100    5.8700   13.3710 H   0  0  0  0  0  0  0  0  0  0  0  0
  1 21  1  0  0  0  0
  1  3  1  0  0  0  0
  2  1  2  0  0  0  0
  3  4  1  0  0  0  0
  4  5  1  0  0  0  0
  4  8  1  0  0  0  0
  5 11  1  0  0  0  0
  6  5  1  0  0  0  0
  6 13  1  0  0  0  0
  7 14  1  6  0  0  0
  7  3  1  0  0  0  0
  7  6  1  0  0  0  0
  9  4  1  0  0  0  0
 10  5  1  0  0  0  0
 12  6  1  0  0  0  0
 15 27  1  0  0  0  0
 16 15  1  0  0  0  0
 16 24  1  0  0  0  0
 17 16  1  0  0  0  0
 18 17  2  0  0  0  0
 18 23  1  0  0  0  0
 19 18  1  0  0  0  0
 20 19  2  0  0  0  0
 20 21  1  0  0  0  0
 21 22  2  0  0  0  0
 22 23  1  0  0  0  0
 22 26  1  0  0  0  0
 23 15  2  0  0  0  0
 25 20  1  0  0  0  0
 27 29  1  0  0  0  0
 27 30  1  0  0  0  0
 28 27  1  0  0  0  0
 31 33  1  0  0  0  0
 31  7  1  0  0  0  0
 32 31  1  0  0  0  0
 34 38  1  0  0  0  0
 34 31  1  0  0  0  0
 35 34  1  0  0  0  0
 36 35  2  0  0  0  0
 36 37  1  0  0  0  0
 37 38  2  0  0  0  0
 39 35  1  0  0  0  0
 40 43  1  0  0  0  0
 40 36  1  0  0  0  0
 41 42  1  0  0  0  0
 41 40  1  0  0  0  0
 42 40  1  0  0  0  0
 44 41  1  0  0  0  0
 45 41  1  0  0  0  0
 46 42  1  0  0  0  0
 47 42  1  0  0  0  0
M  END
>  <MODEL>
20

>  <REMARK>
 VINA RESULT:    -6.398      3.316      5.678
 INTER + INTRA:          -8.189
 INTER:                  -7.722
 INTRA:                  -0.467
 UNBOUND:                -0.108
  Name = 
  5 active torsions:
  status: ('A' for Active; 'I' for Inactive)
    1  A    between atoms: C_1  and  C_2
    2  A    between atoms: C_8  and  C_9
    3  A    between atoms: C_15  and  C_16
    4  A    between atoms: C_16  and  N_17
    5  A    between atoms: C_19  and  C_20
                            x       y       z     vdW  Elec       q    Type
                         _______ _______ _______ _____ _____    ______ ____

>  <TORSDO>
F 5

$$$$
=
 OpenBabel07192307433D

 47 51  0  0  1  0  0  0  0  0999 V2000
   -0.6890   10.4720   21.9560 C   0  0  0  0  0  0  0  0  0  0  0  0
   -0.6740    9.4390   22.6190 O   0  0  0  0  0  0  0  0  0  0  0  0
   -0.2180   10.5440   20.6590 N   0  0  0  0  0  0  0  0  0  0  0  0
   -0.4360   11.6330   19.7130 C   0  0  0  0  0  0  0  0  0  0  0  0
    0.3690   11.2410   18.4860 C   0  0  0  0  0  0  0  0  0  0  0  0
    0.2990    9.7190   18.4920 C   0  0  0  0  0  0  0  0  0  0  0  0
    0.2730    9.3400   19.9790 C   0  0  1  0  0  0  0  0  0  0  0  0
   -1.5090   11.6740   19.4910 H   0  0  0  0  0  0  0  0  0  0  0  0
   -0.1190   12.5950   20.1190 H   0  0  0  0  0  0  0  0  0  0  0  0
    1.4060   11.5750   18.5940 H   0  0  0  0  0  0  0  0  0  0  0  0
   -0.0310   11.6780   17.5670 H   0  0  0  0  0  0  0  0  0  0  0  0
    1.1130    9.2520   17.9290 H   0  0  0  0  0  0  0  0  0  0  0  0
   -0.6440    9.4070   18.0240 H   0  0  0  0  0  0  0  0  0  0  0  0
   -0.4760    8.5480   20.1190 H   0  0  0  0  0  0  0  0  0  0  0  0
   -3.9420   13.1640   24.4510 C   0  0  0  0  0  0  0  0  0  0  0  0
   -3.7850   14.4890   24.7840 N   0  0  0  0  0  0  0  0  0  0  0  0
   -2.6340   15.0440   24.3560 N   0  0  0  0  0  0  0  0  0  0  0  0
   -2.0110   14.0480   23.7300 C   0  0  0  0  0  0  0  0  0  0  0  0
   -0.7940   14.0880   23.1270 N   0  0  0  0  0  0  0  0  0  0  0  0
   -0.4600   12.8750   22.5830 C   0  0  0  0  0  0  0  0  0  0  0  0
   -1.2360   11.6890   22.5790 C   0  0  0  0  0  0  0  0  0  0  0  0
   -2.4850   11.6130   23.2120 C   0  0  0  0  0  0  0  0  0  0  0  0
   -2.7980   12.8500   23.7590 C   0  0  0  0  0  0  0  0  0  0  0  0
   -4.4270   15.0780   25.3050 H   0  0  0  0  0  0  0  0  0  0  0  0
    0.5240   12.8720   22.1140 H   0  0  0  0  0  0  0  0  0  0  0  0
   -3.0870   10.7170   23.2580 H   0  0  0  0  0  0  0  0  0  0  0  0
   -5.1410   12.3860   24.8330 C   0  0  0  0  0  0  0  0  0  0  0  0
   -5.3520   11.5880   24.1130 H   0  0  0  0  0  0  0  0  0  0  0  0
   -5.0000   11.9240   25.8160 H   0  0  0  0  0  0  0  0  0  0  0  0
   -6.0200   13.0370   24.8830 H   0  0  0  0  0  0  0  0  0  0  0  0
    1.6030    8.7980   20.5300 C   0  0  0  0  0  0  0  0  0  0  0  0
    1.6520    8.9400   21.6150 H   0  0  0  0  0  0  0  0  0  0  0  0
    2.4480    9.3490   20.1010 H   0  0  0  0  0  0  0  0  0  0  0  0
    1.8420    7.4000   20.2610 N   0  0  0  0  0  0  0  0  0  0  0  0
    2.6510    6.8560   19.3090 C   0  0  0  0  0  0  0  0  0  0  0  0
    2.5090    5.5030   19.5010 C   0  0  0  0  0  0  0  0  0  0  0  0
    1.6590    5.2730   20.5460 N   0  0  0  0  0  0  0  0  0  0  0  0
    1.2690    6.4490   21.0220 N   0  0  0  0  0  0  0  0  0  0  0  0
    3.2240    7.4510   18.6140 H   0  0  0  0  0  0  0  0  0  0  0  0
    3.1830    4.3660   18.6950 C   0  0  0  0  0  0  0  0  0  0  0  0
    2.4790    3.7490   17.5150 C   0  0  0  0  0  0  0  0  0  0  0  0
    3.6870    4.6170   17.2980 C   0  0  0  0  0  0  0  0  0  0  0  0
    3.7750    3.6970   19.3140 H   0  0  0  0  0  0  0  0  0  0  0  0
    1.5140    4.1360   17.2120 H   0  0  0  0  0  0  0  0  0  0  0  0
    2.5870    2.6800   17.3680 H   0  0  0  0  0  0  0  0  0  0  0  0
    4.6120    4.1350   17.0050 H   0  0  0  0  0  0  0  0  0  0  0  0
    3.5410    5.5930   16.8530 H   0  0  0  0  0  0  0  0  0  0  0  0
  1 21  1  0  0  0  0
  1  2  2  0  0  0  0
  3  1  1  0  0  0  0
  4  9  1  0  0  0  0
  4  3  1  0  0  0  0
  5  6  1  0  0  0  0
  5 10  1  0  0  0  0
  5  4  1  0  0  0  0
  6  7  1  0  0  0  0
  7 14  1  1  0  0  0
  7 31  1  0  0  0  0
  7  3  1  0  0  0  0
  8  4  1  0  0  0  0
 11  5  1  0  0  0  0
 12  6  1  0  0  0  0
 13  6  1  0  0  0  0
 15 16  1  0  0  0  0
 15 27  1  0  0  0  0
 16 24  1  0  0  0  0
 17 16  1  0  0  0  0
 18 23  1  0  0  0  0
 18 17  2  0  0  0  0
 19 18  1  0  0  0  0
 20 19  2  0  0  0  0
 21 20  1  0  0  0  0
 21 22  2  0  0  0  0
 22 26  1  0  0  0  0
 22 23  1  0  0  0  0
 23 15  2  0  0  0  0
 25 20  1  0  0  0  0
 27 30  1  0  0  0  0
 27 29  1  0  0  0  0
 28 27  1  0  0  0  0
 31 32  1  0  0  0  0
 33 31  1  0  0  0  0
 34 31  1  0  0  0  0
 34 38  1  0  0  0  0
 35 36  2  0  0  0  0
 35 34  1  0  0  0  0
 36 37  1  0  0  0  0
 37 38  2  0  0  0  0
 39 35  1  0  0  0  0
 40 43  1  0  0  0  0
 40 36  1  0  0  0  0
 41 40  1  0  0  0  0
 42 41  1  0  0  0  0
 42 40  1  0  0  0  0
 44 41  1  0  0  0  0
 45 41  1  0  0  0  0
 46 42  1  0  0  0  0
 47 42  1  0  0  0  0
M  END
>  <MODEL>
21

>  <REMARK>
 VINA RESULT:    -6.386      1.323      1.642
 INTER + INTRA:          -8.174
 INTER:                  -7.985
 INTRA:                  -0.189
 UNBOUND:                -0.108
  Name = 
  5 active torsions:
  status: ('A' for Active; 'I' for Inactive)
    1  A    between atoms: C_1  and  C_2
    2  A    between atoms: C_8  and  C_9
    3  A    between atoms: C_15  and  C_16
    4  A    between atoms: C_16  and  N_17
    5  A    between atoms: C_19  and  C_20
                            x       y       z     vdW  Elec       q    Type
                         _______ _______ _______ _____ _____    ______ ____

>  <TORSDO>
F 5

$$$$
=
 OpenBabel07192307433D

 47 51  0  0  1  0  0  0  0  0999 V2000
   -0.2380   10.1630   21.4680 C   0  0  0  0  0  0  0  0  0  0  0  0
   -0.5210    9.1430   22.0910 O   0  0  0  0  0  0  0  0  0  0  0  0
    0.4710   10.1510   20.2820 N   0  0  0  0  0  0  0  0  0  0  0  0
    0.6200   11.2590   19.3450 C   0  0  0  0  0  0  0  0  0  0  0  0
    1.5600   10.7330   18.2760 C   0  0  0  0  0  0  0  0  0  0  0  0
    1.2350    9.2460   18.2220 C   0  0  0  0  0  0  0  0  0  0  0  0
    0.8690    8.8790   19.6670 C   0  0  1  0  0  0  0  0  0  0  0  0
   -0.3700   11.4830   18.9320 H   0  0  0  0  0  0  0  0  0  0  0  0
    1.0140   12.1530   19.8320 H   0  0  0  0  0  0  0  0  0  0  0  0
    2.6010   10.8840   18.5820 H   0  0  0  0  0  0  0  0  0  0  0  0
    1.4190   11.2310   17.3120 H   0  0  0  0  0  0  0  0  0  0  0  0
    2.0480    8.6450   17.8040 H   0  0  0  0  0  0  0  0  0  0  0  0
    0.3570    9.0990   17.5800 H   0  0  0  0  0  0  0  0  0  0  0  0
   -0.0150    8.2280   19.6440 H   0  0  0  0  0  0  0  0  0  0  0  0
   -3.1120   13.2160   24.0120 C   0  0  0  0  0  0  0  0  0  0  0  0
   -2.8830   14.5600   24.1850 N   0  0  0  0  0  0  0  0  0  0  0  0
   -1.7750   15.0250   23.5760 N   0  0  0  0  0  0  0  0  0  0  0  0
   -1.2540   13.9470   22.9920 C   0  0  0  0  0  0  0  0  0  0  0  0
   -0.1130   13.8800   22.2560 N   0  0  0  0  0  0  0  0  0  0  0  0
    0.1240   12.6060   21.8090 C   0  0  0  0  0  0  0  0  0  0  0  0
   -0.6780   11.4560   22.0160 C   0  0  0  0  0  0  0  0  0  0  0  0
   -1.8480   11.4930   22.7890 C   0  0  0  0  0  0  0  0  0  0  0  0
   -2.0630   12.7900   23.2340 C   0  0  0  0  0  0  0  0  0  0  0  0
   -3.4450   15.2230   24.7090 H   0  0  0  0  0  0  0  0  0  0  0  0
    1.0470   12.5180   21.2370 H   0  0  0  0  0  0  0  0  0  0  0  0
   -2.4650   10.6300   22.9950 H   0  0  0  0  0  0  0  0  0  0  0  0
   -4.2800   12.5260   24.6050 C   0  0  0  0  0  0  0  0  0  0  0  0
   -4.1430   12.3480   25.6770 H   0  0  0  0  0  0  0  0  0  0  0  0
   -5.1850   13.1290   24.4760 H   0  0  0  0  0  0  0  0  0  0  0  0
   -4.4390   11.5580   24.1200 H   0  0  0  0  0  0  0  0  0  0  0  0
    1.9630    8.1180   20.4360 C   0  0  0  0  0  0  0  0  0  0  0  0
    1.7470    8.1230   21.5100 H   0  0  0  0  0  0  0  0  0  0  0  0
    2.9340    8.6080   20.3060 H   0  0  0  0  0  0  0  0  0  0  0  0
    2.1370    6.7430   20.0320 N   0  0  0  0  0  0  0  0  0  0  0  0
    1.4860    5.6420   20.5020 C   0  0  0  0  0  0  0  0  0  0  0  0
    2.0310    4.6110   19.7760 C   0  0  0  0  0  0  0  0  0  0  0  0
    2.9550    5.1040   18.8990 N   0  0  0  0  0  0  0  0  0  0  0  0
    2.9990    6.4220   19.0500 N   0  0  0  0  0  0  0  0  0  0  0  0
    0.7330    5.6890   21.2740 H   0  0  0  0  0  0  0  0  0  0  0  0
    1.6900    3.1050   19.8850 C   0  0  0  0  0  0  0  0  0  0  0  0
    0.7500    2.4650   18.8970 C   0  0  0  0  0  0  0  0  0  0  0  0
    2.2140    2.1300   18.8650 C   0  0  0  0  0  0  0  0  0  0  0  0
    1.6320    2.7530   20.9110 H   0  0  0  0  0  0  0  0  0  0  0  0
    0.3470    3.0610   18.0870 H   0  0  0  0  0  0  0  0  0  0  0  0
    0.0630    1.7140   19.2710 H   0  0  0  0  0  0  0  0  0  0  0  0
    2.5190    1.1510   19.2170 H   0  0  0  0  0  0  0  0  0  0  0  0
    2.8050    2.5000   18.0360 H   0  0  0  0  0  0  0  0  0  0  0  0
  1 21  1  0  0  0  0
  1  2  2  0  0  0  0
  3  1  1  0  0  0  0
  4  9  1  0  0  0  0
  4  3  1  0  0  0  0
  5 10  1  0  0  0  0
  5  4  1  0  0  0  0
  6  5  1  0  0  0  0
  6  7  1  0  0  0  0
  7 14  1  6  0  0  0
  7  3  1  0  0  0  0
  7 31  1  0  0  0  0
  8  4  1  0  0  0  0
 11  5  1  0  0  0  0
 12  6  1  0  0  0  0
 13  6  1  0  0  0  0
 15 16  1  0  0  0  0
 15 27  1  0  0  0  0
 16 24  1  0  0  0  0
 17 16  1  0  0  0  0
 18 23  1  0  0  0  0
 18 17  2  0  0  0  0
 19 18  1  0  0  0  0
 20 21  1  0  0  0  0
 20 19  2  0  0  0  0
 21 22  2  0  0  0  0
 22 26  1  0  0  0  0
 22 23  1  0  0  0  0
 23 15  2  0  0  0  0
 25 20  1  0  0  0  0
 27 28  1  0  0  0  0
 29 27  1  0  0  0  0
 30 27  1  0  0  0  0
 31 32  1  0  0  0  0
 33 31  1  0  0  0  0
 34 31  1  0  0  0  0
 34 35  1  0  0  0  0
 35 39  1  0  0  0  0
 36 40  1  0  0  0  0
 36 35  2  0  0  0  0
 37 38  2  0  0  0  0
 37 36  1  0  0  0  0
 38 34  1  0  0  0  0
 40 43  1  0  0  0  0
 41 45  1  0  0  0  0
 41 40  1  0  0  0  0
 42 41  1  0  0  0  0
 42 46  1  0  0  0  0
 42 40  1  0  0  0  0
 44 41  1  0  0  0  0
 47 42  1  0  0  0  0
M  END
>  <MODEL>
22

>  <REMARK>
 VINA RESULT:    -6.341      2.034      2.576
 INTER + INTRA:          -8.118
 INTER:                  -8.390
 INTRA:                   0.272
 UNBOUND:                -0.108
  Name = 
  5 active torsions:
  status: ('A' for Active; 'I' for Inactive)
    1  A    between atoms: C_1  and  C_2
    2  A    between atoms: C_8  and  C_9
    3  A    between atoms: C_15  and  C_16
    4  A    between atoms: C_16  and  N_17
    5  A    between atoms: C_19  and  C_20
                            x       y       z     vdW  Elec       q    Type
                         _______ _______ _______ _____ _____    ______ ____

>  <TORSDO>
F 5

$$$$
=
 OpenBabel07192307433D

 47 51  0  0  1  0  0  0  0  0999 V2000
    2.4520    6.9600   19.6660 C   0  0  0  0  0  0  0  0  0  0  0  0
    3.5170    7.2780   19.1450 O   0  0  0  0  0  0  0  0  0  0  0  0
    2.0150    5.6510   19.7520 N   0  0  0  0  0  0  0  0  0  0  0  0
    0.9190    5.1520   20.5740 C   0  0  0  0  0  0  0  0  0  0  0  0
    0.8150    3.6790   20.2200 C   0  0  0  0  0  0  0  0  0  0  0  0
    2.2530    3.2920   19.9000 C   0  0  0  0  0  0  0  0  0  0  0  0
    2.8610    4.5520   19.2690 C   0  0  1  0  0  0  0  0  0  0  0  0
    1.1970    5.2920   21.6250 H   0  0  0  0  0  0  0  0  0  0  0  0
   -0.0130    5.6850   20.3780 H   0  0  0  0  0  0  0  0  0  0  0  0
    0.1800    3.5480   19.3370 H   0  0  0  0  0  0  0  0  0  0  0  0
    0.3870    3.0830   21.0310 H   0  0  0  0  0  0  0  0  0  0  0  0
    2.3260    2.4000   19.2700 H   0  0  0  0  0  0  0  0  0  0  0  0
    2.7770    3.0710   20.8400 H   0  0  0  0  0  0  0  0  0  0  0  0
    3.8660    4.6960   19.6870 H   0  0  0  0  0  0  0  0  0  0  0  0
   -0.7560   10.6670   19.5480 C   0  0  0  0  0  0  0  0  0  0  0  0
   -1.2520   11.3200   20.6510 N   0  0  0  0  0  0  0  0  0  0  0  0
   -0.7780   10.8740   21.8310 N   0  0  0  0  0  0  0  0  0  0  0  0
    0.0500    9.8880   21.4910 C   0  0  0  0  0  0  0  0  0  0  0  0
    0.7790    9.1000   22.3250 N   0  0  0  0  0  0  0  0  0  0  0  0
    1.5230    8.1830   21.6300 C   0  0  0  0  0  0  0  0  0  0  0  0
    1.6050    8.0260   20.2230 C   0  0  0  0  0  0  0  0  0  0  0  0
    0.8490    8.8120   19.3400 C   0  0  0  0  0  0  0  0  0  0  0  0
    0.1000    9.7270   20.0670 C   0  0  0  0  0  0  0  0  0  0  0  0
   -1.9220   12.0830   20.6710 H   0  0  0  0  0  0  0  0  0  0  0  0
    2.0980    7.5200   22.2760 H   0  0  0  0  0  0  0  0  0  0  0  0
    0.8610    8.6970   18.2660 H   0  0  0  0  0  0  0  0  0  0  0  0
   -1.1600   11.0180   18.1690 C   0  0  0  0  0  0  0  0  0  0  0  0
   -0.5510   10.4950   17.4230 H   0  0  0  0  0  0  0  0  0  0  0  0
   -2.2080   10.7490   17.9970 H   0  0  0  0  0  0  0  0  0  0  0  0
   -1.0500   12.0940   18.0000 H   0  0  0  0  0  0  0  0  0  0  0  0
    3.0170    4.4970   17.7400 C   0  0  0  0  0  0  0  0  0  0  0  0
    2.2710    5.1380   17.2570 H   0  0  0  0  0  0  0  0  0  0  0  0
    2.8430    3.4790   17.3740 H   0  0  0  0  0  0  0  0  0  0  0  0
    4.3160    4.8950   17.2520 N   0  0  0  0  0  0  0  0  0  0  0  0
    5.2470    5.6670   17.8800 C   0  0  0  0  0  0  0  0  0  0  0  0
    6.2810    5.7220   16.9780 C   0  0  0  0  0  0  0  0  0  0  0  0
    5.9660    4.9850   15.8710 N   0  0  0  0  0  0  0  0  0  0  0  0
    4.7610    4.4620   16.0580 N   0  0  0  0  0  0  0  0  0  0  0  0
    5.0950    6.0910   18.8610 H   0  0  0  0  0  0  0  0  0  0  0  0
    7.6230    6.4770   17.1350 C   0  0  0  0  0  0  0  0  0  0  0  0
    7.6340    7.9480   17.4610 C   0  0  0  0  0  0  0  0  0  0  0  0
    8.0780    6.9480   18.4910 C   0  0  0  0  0  0  0  0  0  0  0  0
    8.3950    6.1220   16.4580 H   0  0  0  0  0  0  0  0  0  0  0  0
    6.6950    8.4610   17.6230 H   0  0  0  0  0  0  0  0  0  0  0  0
    8.3920    8.5610   16.9870 H   0  0  0  0  0  0  0  0  0  0  0  0
    9.1370    6.8850   18.7150 H   0  0  0  0  0  0  0  0  0  0  0  0
    7.4390    6.7810   19.3500 H   0  0  0  0  0  0  0  0  0  0  0  0
  1  3  1  0  0  0  0
  1 21  1  0  0  0  0
  2  1  2  0  0  0  0
  3  4  1  0  0  0  0
  4  8  1  0  0  0  0
  5  4  1  0  0  0  0
  5 11  1  0  0  0  0
  6  5  1  0  0  0  0
  6 13  1  0  0  0  0
  7 14  1  1  0  0  0
  7  3  1  0  0  0  0
  7  6  1  0  0  0  0
  9  4  1  0  0  0  0
 10  5  1  0  0  0  0
 12  6  1  0  0  0  0
 15 23  2  0  0  0  0
 15 16  1  0  0  0  0
 16 24  1  0  0  0  0
 16 17  1  0  0  0  0
 18 17  2  0  0  0  0
 18 19  1  0  0  0  0
 20 25  1  0  0  0  0
 20 19  2  0  0  0  0
 21 20  1  0  0  0  0
 22 23  1  0  0  0  0
 22 21  2  0  0  0  0
 23 18  1  0  0  0  0
 26 22  1  0  0  0  0
 27 15  1  0  0  0  0
 28 27  1  0  0  0  0
 29 27  1  0  0  0  0
 30 27  1  0  0  0  0
 31  7  1  0  0  0  0
 32 31  1  0  0  0  0
 33 31  1  0  0  0  0
 34 31  1  0  0  0  0
 34 35  1  0  0  0  0
 35 39  1  0  0  0  0
 36 40  1  0  0  0  0
 36 35  2  0  0  0  0
 37 38  2  0  0  0  0
 37 36  1  0  0  0  0
 38 34  1  0  0  0  0
 40 41  1  0  0  0  0
 40 42  1  0  0  0  0
 41 44  1  0  0  0  0
 41 42  1  0  0  0  0
 42 46  1  0  0  0  0
 42 47  1  0  0  0  0
 43 40  1  0  0  0  0
 45 41  1  0  0  0  0
M  END
>  <MODEL>
23

>  <REMARK>
 VINA RESULT:    -6.300      3.443      5.885
 INTER + INTRA:          -8.066
 INTER:                  -8.541
 INTRA:                   0.475
 UNBOUND:                -0.108
  Name = 
  5 active torsions:
  status: ('A' for Active; 'I' for Inactive)
    1  A    between atoms: C_1  and  C_2
    2  A    between atoms: C_8  and  C_9
    3  A    between atoms: C_15  and  C_16
    4  A    between atoms: C_16  and  N_17
    5  A    between atoms: C_19  and  C_20
                            x       y       z     vdW  Elec       q    Type
                         _______ _______ _______ _____ _____    ______ ____

>  <TORSDO>
F 5

$$$$
=
 OpenBabel07192307433D

 47 51  0  0  1  0  0  0  0  0999 V2000
    0.5510   10.4750   19.3380 C   0  0  0  0  0  0  0  0  0  0  0  0
    1.3120   10.9770   18.5160 O   0  0  0  0  0  0  0  0  0  0  0  0
    0.7600    9.2290   19.8990 N   0  0  0  0  0  0  0  0  0  0  0  0
    0.0770    8.6710   21.0610 C   0  0  0  0  0  0  0  0  0  0  0  0
    0.6210    7.2590   21.1840 C   0  0  0  0  0  0  0  0  0  0  0  0
    2.0480    7.3860   20.6670 C   0  0  0  0  0  0  0  0  0  0  0  0
    1.9690    8.4610   19.5750 C   0  0  1  0  0  0  0  0  0  0  0  0
    0.3450    9.2800   21.9320 H   0  0  0  0  0  0  0  0  0  0  0  0
   -1.0080    8.6820   20.9390 H   0  0  0  0  0  0  0  0  0  0  0  0
    0.0450    6.5780   20.5480 H   0  0  0  0  0  0  0  0  0  0  0  0
    0.5750    6.8810   22.2090 H   0  0  0  0  0  0  0  0  0  0  0  0
    2.4650    6.4340   20.3230 H   0  0  0  0  0  0  0  0  0  0  0  0
    2.6880    7.7470   21.4830 H   0  0  0  0  0  0  0  0  0  0  0  0
    2.8310    9.1320   19.6890 H   0  0  0  0  0  0  0  0  0  0  0  0
   -2.1200   13.4540   22.1740 C   0  0  0  0  0  0  0  0  0  0  0  0
   -3.3950   13.8830   21.8920 N   0  0  0  0  0  0  0  0  0  0  0  0
   -3.9080   13.4080   20.7400 N   0  0  0  0  0  0  0  0  0  0  0  0
   -2.9310   12.6490   20.2440 C   0  0  0  0  0  0  0  0  0  0  0  0
   -2.9430   11.9500   19.0780 N   0  0  0  0  0  0  0  0  0  0  0  0
   -1.7640   11.2800   18.8810 C   0  0  0  0  0  0  0  0  0  0  0  0
   -0.6380   11.2420   19.7420 C   0  0  0  0  0  0  0  0  0  0  0  0
   -0.5910   11.9700   20.9400 C   0  0  0  0  0  0  0  0  0  0  0  0
   -1.7930   12.6440   21.1140 C   0  0  0  0  0  0  0  0  0  0  0  0
   -3.9780   14.5040   22.4450 H   0  0  0  0  0  0  0  0  0  0  0  0
   -1.7360   10.7310   17.9400 H   0  0  0  0  0  0  0  0  0  0  0  0
    0.2620   11.9910   21.6020 H   0  0  0  0  0  0  0  0  0  0  0  0
   -1.3940   13.8690   23.3940 C   0  0  0  0  0  0  0  0  0  0  0  0
   -0.4370   14.3440   23.1540 H   0  0  0  0  0  0  0  0  0  0  0  0
   -1.9910   14.5860   23.9690 H   0  0  0  0  0  0  0  0  0  0  0  0
   -1.1900   13.0030   24.0310 H   0  0  0  0  0  0  0  0  0  0  0  0
    2.0100    7.9230   18.1340 C   0  0  0  0  0  0  0  0  0  0  0  0
    2.4210    8.6790   17.4560 H   0  0  0  0  0  0  0  0  0  0  0  0
    0.9980    7.6970   17.7810 H   0  0  0  0  0  0  0  0  0  0  0  0
    2.7860    6.7170   17.9640 N   0  0  0  0  0  0  0  0  0  0  0  0
    2.3370    5.4310   17.9200 C   0  0  0  0  0  0  0  0  0  0  0  0
    3.4830    4.6960   17.7380 C   0  0  0  0  0  0  0  0  0  0  0  0
    4.5600    5.5350   17.6580 N   0  0  0  0  0  0  0  0  0  0  0  0
    4.1170    6.7800   17.7780 N   0  0  0  0  0  0  0  0  0  0  0  0
    1.2950    5.1680   18.0220 H   0  0  0  0  0  0  0  0  0  0  0  0
    3.6030    3.1570   17.6270 C   0  0  0  0  0  0  0  0  0  0  0  0
    3.6460    2.3060   18.8690 C   0  0  0  0  0  0  0  0  0  0  0  0
    2.4350    2.2750   17.9810 C   0  0  0  0  0  0  0  0  0  0  0  0
    4.2210    2.8360   16.7940 H   0  0  0  0  0  0  0  0  0  0  0  0
    3.5530    2.7790   19.8390 H   0  0  0  0  0  0  0  0  0  0  0  0
    4.3040    1.4440   18.8640 H   0  0  0  0  0  0  0  0  0  0  0  0
    2.2720    1.3910   17.3740 H   0  0  0  0  0  0  0  0  0  0  0  0
    1.5220    2.7300   18.3460 H   0  0  0  0  0  0  0  0  0  0  0  0
  1 21  1  0  0  0  0
  1  3  1  0  0  0  0
  2  1  2  0  0  0  0
  3  4  1  0  0  0  0
  4  5  1  0  0  0  0
  4  8  1  0  0  0  0
  5 11  1  0  0  0  0
  6  5  1  0  0  0  0
  6 13  1  0  0  0  0
  7 14  1  1  0  0  0
  7  3  1  0  0  0  0
  7  6  1  0  0  0  0
  9  4  1  0  0  0  0
 10  5  1  0  0  0  0
 12  6  1  0  0  0  0
 15 27  1  0  0  0  0
 16 15  1  0  0  0  0
 16 24  1  0  0  0  0
 17 16  1  0  0  0  0
 18 17  2  0  0  0  0
 18 23  1  0  0  0  0
 19 18  1  0  0  0  0
 20 19  2  0  0  0  0
 20 21  1  0  0  0  0
 21 22  2  0  0  0  0
 22 23  1  0  0  0  0
 22 26  1  0  0  0  0
 23 15  2  0  0  0  0
 25 20  1  0  0  0  0
 27 29  1  0  0  0  0
 27 30  1  0  0  0  0
 28 27  1  0  0  0  0
 31  7  1  0  0  0  0
 32 31  1  0  0  0  0
 33 31  1  0  0  0  0
 34 31  1  0  0  0  0
 35 34  1  0  0  0  0
 35 39  1  0  0  0  0
 36 35  2  0  0  0  0
 37 36  1  0  0  0  0
 37 38  2  0  0  0  0
 38 34  1  0  0  0  0
 40 36  1  0  0  0  0
 40 42  1  0  0  0  0
 40 41  1  0  0  0  0
 41 44  1  0  0  0  0
 42 47  1  0  0  0  0
 42 41  1  0  0  0  0
 43 40  1  0  0  0  0
 45 41  1  0  0  0  0
 46 42  1  0  0  0  0
M  END
>  <MODEL>
24

>  <REMARK>
 VINA RESULT:    -6.111      2.307      3.709
 INTER + INTRA:          -7.827
 INTER:                  -7.497
 INTRA:                  -0.330
 UNBOUND:                -0.108
  Name = 
  5 active torsions:
  status: ('A' for Active; 'I' for Inactive)
    1  A    between atoms: C_1  and  C_2
    2  A    between atoms: C_8  and  C_9
    3  A    between atoms: C_15  and  C_16
    4  A    between atoms: C_16  and  N_17
    5  A    between atoms: C_19  and  C_20
                            x       y       z     vdW  Elec       q    Type
                         _______ _______ _______ _____ _____    ______ ____

>  <TORSDO>
F 5

$$$$
=
 OpenBabel07192307433D

 47 51  0  0  1  0  0  0  0  0999 V2000
   -0.3070   12.4690   21.4840 C   0  0  0  0  0  0  0  0  0  0  0  0
    0.4660   13.2190   20.8950 O   0  0  0  0  0  0  0  0  0  0  0  0
   -0.1240   11.1010   21.5540 N   0  0  0  0  0  0  0  0  0  0  0  0
   -0.8210   10.1740   22.4400 C   0  0  0  0  0  0  0  0  0  0  0  0
   -0.3060    8.8020   22.0390 C   0  0  0  0  0  0  0  0  0  0  0  0
    1.1240    9.0800   21.5940 C   0  0  0  0  0  0  0  0  0  0  0  0
    1.0680   10.4790   20.9660 C   0  0  1  0  0  0  0  0  0  0  0  0
   -0.5410   10.4210   23.4700 H   0  0  0  0  0  0  0  0  0  0  0  0
   -1.9050   10.2490   22.3370 H   0  0  0  0  0  0  0  0  0  0  0  0
   -0.8950    8.4090   21.2040 H   0  0  0  0  0  0  0  0  0  0  0  0
   -0.3620    8.0800   22.8580 H   0  0  0  0  0  0  0  0  0  0  0  0
    1.5210    8.3090   20.9270 H   0  0  0  0  0  0  0  0  0  0  0  0
    1.7710    9.1080   22.4810 H   0  0  0  0  0  0  0  0  0  0  0  0
    1.9440   11.0460   21.3100 H   0  0  0  0  0  0  0  0  0  0  0  0
   -2.7420   14.8790   24.9940 C   0  0  0  0  0  0  0  0  0  0  0  0
   -4.0820   15.1850   24.9600 N   0  0  0  0  0  0  0  0  0  0  0  0
   -4.7310   14.7560   23.8610 N   0  0  0  0  0  0  0  0  0  0  0  0
   -3.7820   14.1560   23.1430 C   0  0  0  0  0  0  0  0  0  0  0  0
   -3.9210   13.5620   21.9280 N   0  0  0  0  0  0  0  0  0  0  0  0
   -2.7320   13.0470   21.4800 C   0  0  0  0  0  0  0  0  0  0  0  0
   -1.4810   13.0610   22.1460 C   0  0  0  0  0  0  0  0  0  0  0  0
   -1.3050   13.6850   23.3900 C   0  0  0  0  0  0  0  0  0  0  0  0
   -2.5190   14.2040   23.8180 C   0  0  0  0  0  0  0  0  0  0  0  0
   -4.6200   15.6880   25.6590 H   0  0  0  0  0  0  0  0  0  0  0  0
   -2.8090   12.5870   20.4960 H   0  0  0  0  0  0  0  0  0  0  0  0
   -0.3590   13.7450   23.9090 H   0  0  0  0  0  0  0  0  0  0  0  0
   -1.8660   15.2670   26.1210 C   0  0  0  0  0  0  0  0  0  0  0  0
   -2.0640   16.2920   26.4530 H   0  0  0  0  0  0  0  0  0  0  0  0
   -2.0240   14.5990   26.9750 H   0  0  0  0  0  0  0  0  0  0  0  0
   -0.8140   15.2060   25.8260 H   0  0  0  0  0  0  0  0  0  0  0  0
    1.1000   10.4980   19.4290 C   0  0  0  0  0  0  0  0  0  0  0  0
    1.4650    9.5390   19.0430 H   0  0  0  0  0  0  0  0  0  0  0  0
    1.7940   11.2670   19.0690 H   0  0  0  0  0  0  0  0  0  0  0  0
   -0.1730   10.7640   18.8020 N   0  0  0  0  0  0  0  0  0  0  0  0
   -1.2450    9.9300   18.6950 C   0  0  0  0  0  0  0  0  0  0  0  0
   -2.1740   10.6860   18.0220 C   0  0  0  0  0  0  0  0  0  0  0  0
   -1.6610   11.9260   17.7670 N   0  0  0  0  0  0  0  0  0  0  0  0
   -0.4340   11.9730   18.2700 N   0  0  0  0  0  0  0  0  0  0  0  0
   -1.2480    8.9230   19.0840 H   0  0  0  0  0  0  0  0  0  0  0  0
   -3.5990   10.2570   17.5960 C   0  0  0  0  0  0  0  0  0  0  0  0
   -4.8060   10.9390   18.1840 C   0  0  0  0  0  0  0  0  0  0  0  0
   -4.4440   11.1660   16.7430 C   0  0  0  0  0  0  0  0  0  0  0  0
   -3.6860    9.1910   17.4060 H   0  0  0  0  0  0  0  0  0  0  0  0
   -4.6660   11.7580   18.8780 H   0  0  0  0  0  0  0  0  0  0  0  0
   -5.6740   10.3260   18.4010 H   0  0  0  0  0  0  0  0  0  0  0  0
   -5.0670   10.7060   15.9850 H   0  0  0  0  0  0  0  0  0  0  0  0
   -4.0560   12.1370   16.4610 H   0  0  0  0  0  0  0  0  0  0  0  0
  1  3  1  0  0  0  0
  1 21  1  0  0  0  0
  2  1  2  0  0  0  0
  3  4  1  0  0  0  0
  4  8  1  0  0  0  0
  5  4  1  0  0  0  0
  5 11  1  0  0  0  0
  6  5  1  0  0  0  0
  6 13  1  0  0  0  0
  7 14  1  1  0  0  0
  7  3  1  0  0  0  0
  7  6  1  0  0  0  0
  9  4  1  0  0  0  0
 10  5  1  0  0  0  0
 12  6  1  0  0  0  0
 15 27  1  0  0  0  0
 16 15  1  0  0  0  0
 16 24  1  0  0  0  0
 17 16  1  0  0  0  0
 18 23  1  0  0  0  0
 18 17  2  0  0  0  0
 19 18  1  0  0  0  0
 20 19  2  0  0  0  0
 20 21  1  0  0  0  0
 21 22  2  0  0  0  0
 22 23  1  0  0  0  0
 22 26  1  0  0  0  0
 23 15  2  0  0  0  0
 25 20  1  0  0  0  0
 27 28  1  0  0  0  0
 27 29  1  0  0  0  0
 30 27  1  0  0  0  0
 31  7  1  0  0  0  0
 32 31  1  0  0  0  0
 33 31  1  0  0  0  0
 34 31  1  0  0  0  0
 35 34  1  0  0  0  0
 35 39  1  0  0  0  0
 36 35  2  0  0  0  0
 37 36  1  0  0  0  0
 37 38  2  0  0  0  0
 38 34  1  0  0  0  0
 40 36  1  0  0  0  0
 40 41  1  0  0  0  0
 41 45  1  0  0  0  0
 41 44  1  0  0  0  0
 42 40  1  0  0  0  0
 42 41  1  0  0  0  0
 43 40  1  0  0  0  0
 46 42  1  0  0  0  0
 47 42  1  0  0  0  0
M  END
>  <MODEL>
25

>  <REMARK>
 VINA RESULT:    -6.077      2.888      4.728
 INTER + INTRA:          -7.784
 INTER:                  -7.511
 INTRA:                  -0.273
 UNBOUND:                -0.108
  Name = 
  5 active torsions:
  status: ('A' for Active; 'I' for Inactive)
    1  A    between atoms: C_1  and  C_2
    2  A    between atoms: C_8  and  C_9
    3  A    between atoms: C_15  and  C_16
    4  A    between atoms: C_16  and  N_17
    5  A    between atoms: C_19  and  C_20
                            x       y       z     vdW  Elec       q    Type
                         _______ _______ _______ _____ _____    ______ ____

>  <TORSDO>
F 5

$$$$
=
 OpenBabel07192307433D

 47 51  0  0  1  0  0  0  0  0999 V2000
    2.9000    6.0550   17.6920 C   0  0  0  0  0  0  0  0  0  0  0  0
    2.1130    5.3120   17.1140 O   0  0  0  0  0  0  0  0  0  0  0  0
    4.2520    6.0920   17.4070 N   0  0  0  0  0  0  0  0  0  0  0  0
    5.2050    7.1090   17.8370 C   0  0  0  0  0  0  0  0  0  0  0  0
    6.5480    6.6160   17.3270 C   0  0  0  0  0  0  0  0  0  0  0  0
    6.1870    5.8770   16.0450 C   0  0  0  0  0  0  0  0  0  0  0  0
    4.8060    5.2680   16.3260 C   0  0  1  0  0  0  0  0  0  0  0  0
    4.9210    8.0560   17.3630 H   0  0  0  0  0  0  0  0  0  0  0  0
    5.2020    7.2380   18.9210 H   0  0  0  0  0  0  0  0  0  0  0  0
    6.9950    5.9270   18.0510 H   0  0  0  0  0  0  0  0  0  0  0  0
    7.2570    7.4310   17.1600 H   0  0  0  0  0  0  0  0  0  0  0  0
    6.9430    5.1440   15.7470 H   0  0  0  0  0  0  0  0  0  0  0  0
    6.1000    6.6070   15.2290 H   0  0  0  0  0  0  0  0  0  0  0  0
    4.1770    5.4160   15.4380 H   0  0  0  0  0  0  0  0  0  0  0  0
    1.0840   10.2170   19.5450 C   0  0  0  0  0  0  0  0  0  0  0  0
    0.6840   10.3960   20.8480 N   0  0  0  0  0  0  0  0  0  0  0  0
    0.8360    9.3140   21.6370 N   0  0  0  0  0  0  0  0  0  0  0  0
    1.3430    8.3920   20.8220 C   0  0  0  0  0  0  0  0  0  0  0  0
    1.6680    7.1090   21.1310 N   0  0  0  0  0  0  0  0  0  0  0  0
    2.1650    6.4380   20.0440 C   0  0  0  0  0  0  0  0  0  0  0  0
    2.3730    6.9480   18.7370 C   0  0  0  0  0  0  0  0  0  0  0  0
    2.0270    8.2610   18.3850 C   0  0  0  0  0  0  0  0  0  0  0  0
    1.5220    8.9160   19.5000 C   0  0  0  0  0  0  0  0  0  0  0  0
    0.2960   11.2350   21.2680 H   0  0  0  0  0  0  0  0  0  0  0  0
    2.4100    5.3980   20.2580 H   0  0  0  0  0  0  0  0  0  0  0  0
    2.1410    8.6710   17.3930 H   0  0  0  0  0  0  0  0  0  0  0  0
    0.9950   11.2920   18.5320 C   0  0  0  0  0  0  0  0  0  0  0  0
    0.1960   11.1000   17.8080 H   0  0  0  0  0  0  0  0  0  0  0  0
    0.7900   12.2540   19.0130 H   0  0  0  0  0  0  0  0  0  0  0  0
    1.9370   11.3770   17.9810 H   0  0  0  0  0  0  0  0  0  0  0  0
    4.8150    3.7580   16.6210 C   0  0  0  0  0  0  0  0  0  0  0  0
    5.8250    3.3510   16.4960 H   0  0  0  0  0  0  0  0  0  0  0  0
    4.1700    3.2260   15.9120 H   0  0  0  0  0  0  0  0  0  0  0  0
    4.3600    3.3990   17.9430 N   0  0  0  0  0  0  0  0  0  0  0  0
    3.1500    2.8860   18.3020 C   0  0  0  0  0  0  0  0  0  0  0  0
    3.2570    2.7310   19.6620 C   0  0  0  0  0  0  0  0  0  0  0  0
    4.5000    3.1220   20.0740 N   0  0  0  0  0  0  0  0  0  0  0  0
    5.1800    3.5140   19.0030 N   0  0  0  0  0  0  0  0  0  0  0  0
    2.3590    2.6910   17.5930 H   0  0  0  0  0  0  0  0  0  0  0  0
    2.1770    2.1950   20.6330 C   0  0  0  0  0  0  0  0  0  0  0  0
    1.8690    2.9320   21.9100 C   0  0  0  0  0  0  0  0  0  0  0  0
    0.8670    2.9210   20.7900 C   0  0  0  0  0  0  0  0  0  0  0  0
    2.1420    1.1110   20.6760 H   0  0  0  0  0  0  0  0  0  0  0  0
    2.3830    3.8620   22.1220 H   0  0  0  0  0  0  0  0  0  0  0  0
    1.6540    2.3400   22.7930 H   0  0  0  0  0  0  0  0  0  0  0  0
   -0.0270    2.3200   20.9150 H   0  0  0  0  0  0  0  0  0  0  0  0
    0.7040    3.8400   20.2410 H   0  0  0  0  0  0  0  0  0  0  0  0
  1 21  1  0  0  0  0
  2  1  2  0  0  0  0
  3  1  1  0  0  0  0
  3  4  1  0  0  0  0
  4  9  1  0  0  0  0
  5  4  1  0  0  0  0
  5 10  1  0  0  0  0
  6  7  1  0  0  0  0
  6  5  1  0  0  0  0
  7 14  1  6  0  0  0
  7 31  1  0  0  0  0
  7  3  1  0  0  0  0
  8  4  1  0  0  0  0
 11  5  1  0  0  0  0
 12  6  1  0  0  0  0
 13  6  1  0  0  0  0
 15 16  1  0  0  0  0
 16 24  1  0  0  0  0
 16 17  1  0  0  0  0
 18 19  1  0  0  0  0
 18 17  2  0  0  0  0
 20 25  1  0  0  0  0
 20 19  2  0  0  0  0
 21 20  1  0  0  0  0
 22 21  2  0  0  0  0
 22 23  1  0  0  0  0
 23 15  2  0  0  0  0
 23 18  1  0  0  0  0
 26 22  1  0  0  0  0
 27 29  1  0  0  0  0
 27 15  1  0  0  0  0
 28 27  1  0  0  0  0
 30 27  1  0  0  0  0
 31 34  1  0  0  0  0
 32 31  1  0  0  0  0
 33 31  1  0  0  0  0
 34 35  1  0  0  0  0
 34 38  1  0  0  0  0
 35 36  2  0  0  0  0
 36 37  1  0  0  0  0
 36 40  1  0  0  0  0
 38 37  2  0  0  0  0
 39 35  1  0  0  0  0
 40 43  1  0  0  0  0
 40 42  1  0  0  0  0
 40 41  1  0  0  0  0
 41 44  1  0  0  0  0
 41 45  1  0  0  0  0
 42 46  1  0  0  0  0
 42 41  1  0  0  0  0
 47 42  1  0  0  0  0
M  END
>  <MODEL>
26

>  <REMARK>
 VINA RESULT:    -6.075      4.437      7.249
 INTER + INTRA:          -7.781
 INTER:                  -8.084
 INTRA:                   0.303
 UNBOUND:                -0.108
  Name = 
  5 active torsions:
  status: ('A' for Active; 'I' for Inactive)
    1  A    between atoms: C_1  and  C_2
    2  A    between atoms: C_8  and  C_9
    3  A    between atoms: C_15  and  C_16
    4  A    between atoms: C_16  and  N_17
    5  A    between atoms: C_19  and  C_20
                            x       y       z     vdW  Elec       q    Type
                         _______ _______ _______ _____ _____    ______ ____

>  <TORSDO>
F 5

$$$$
=
 OpenBabel07192307433D

 47 51  0  0  1  0  0  0  0  0999 V2000
    0.2540   10.1720   18.5210 C   0  0  0  0  0  0  0  0  0  0  0  0
    1.1620   10.5730   17.7980 O   0  0  0  0  0  0  0  0  0  0  0  0
    0.4450    9.2490   19.5310 N   0  0  0  0  0  0  0  0  0  0  0  0
   -0.4930    8.9200   20.5990 C   0  0  0  0  0  0  0  0  0  0  0  0
    0.1770    7.7930   21.3640 C   0  0  0  0  0  0  0  0  0  0  0  0
    1.6610    8.1070   21.2230 C   0  0  0  0  0  0  0  0  0  0  0  0
    1.7900    8.7440   19.8320 C   0  0  1  0  0  0  0  0  0  0  0  0
   -0.6150    9.8120   21.2240 H   0  0  0  0  0  0  0  0  0  0  0  0
   -1.4680    8.6230   20.2070 H   0  0  0  0  0  0  0  0  0  0  0  0
   -0.0540    6.8310   20.8970 H   0  0  0  0  0  0  0  0  0  0  0  0
   -0.1470    7.7460   22.4080 H   0  0  0  0  0  0  0  0  0  0  0  0
    2.3000    7.2300   21.3700 H   0  0  0  0  0  0  0  0  0  0  0  0
    1.9400    8.8460   21.9850 H   0  0  0  0  0  0  0  0  0  0  0  0
    2.4620    9.6100   19.9110 H   0  0  0  0  0  0  0  0  0  0  0  0
   -3.9610   10.8450   16.1060 C   0  0  0  0  0  0  0  0  0  0  0  0
   -5.0340   11.5670   16.5720 N   0  0  0  0  0  0  0  0  0  0  0  0
   -4.8550   12.1220   17.7870 N   0  0  0  0  0  0  0  0  0  0  0  0
   -3.6270   11.7420   18.1340 C   0  0  0  0  0  0  0  0  0  0  0  0
   -2.9720   12.0320   19.2890 N   0  0  0  0  0  0  0  0  0  0  0  0
   -1.7200   11.4740   19.3120 C   0  0  0  0  0  0  0  0  0  0  0  0
   -1.0990   10.7050   18.2960 C   0  0  0  0  0  0  0  0  0  0  0  0
   -1.7600   10.3740   17.1040 C   0  0  0  0  0  0  0  0  0  0  0  0
   -3.0250   10.9440   17.1070 C   0  0  0  0  0  0  0  0  0  0  0  0
   -5.9250   11.7230   16.1100 H   0  0  0  0  0  0  0  0  0  0  0  0
   -1.1810   11.6690   20.2390 H   0  0  0  0  0  0  0  0  0  0  0  0
   -1.3300    9.7630   16.3230 H   0  0  0  0  0  0  0  0  0  0  0  0
   -3.9720   10.1640   14.7920 C   0  0  0  0  0  0  0  0  0  0  0  0
   -3.3100   10.6610   14.0740 H   0  0  0  0  0  0  0  0  0  0  0  0
   -3.6380    9.1260   14.8970 H   0  0  0  0  0  0  0  0  0  0  0  0
   -4.9830   10.1600   14.3720 H   0  0  0  0  0  0  0  0  0  0  0  0
    2.3780    7.8210   18.7520 C   0  0  0  0  0  0  0  0  0  0  0  0
    3.2490    8.2900   18.2820 H   0  0  0  0  0  0  0  0  0  0  0  0
    1.6440    7.6480   17.9550 H   0  0  0  0  0  0  0  0  0  0  0  0
    2.7860    6.5200   19.2270 N   0  0  0  0  0  0  0  0  0  0  0  0
    1.9930    5.4660   19.5690 C   0  0  0  0  0  0  0  0  0  0  0  0
    2.8900    4.4950   19.9400 C   0  0  0  0  0  0  0  0  0  0  0  0
    4.1650    4.9670   19.7970 N   0  0  0  0  0  0  0  0  0  0  0  0
    4.0910    6.2100   19.3370 N   0  0  0  0  0  0  0  0  0  0  0  0
    0.9150    5.5010   19.5220 H   0  0  0  0  0  0  0  0  0  0  0  0
    2.5720    3.0670   20.4450 C   0  0  0  0  0  0  0  0  0  0  0  0
    1.7140    2.8660   21.6670 C   0  0  0  0  0  0  0  0  0  0  0  0
    1.1820    2.5040   20.3090 C   0  0  0  0  0  0  0  0  0  0  0  0
    3.3940    2.3720   20.3080 H   0  0  0  0  0  0  0  0  0  0  0  0
    1.2910    3.7300   22.1650 H   0  0  0  0  0  0  0  0  0  0  0  0
    1.9820    2.0600   22.3420 H   0  0  0  0  0  0  0  0  0  0  0  0
    1.0880    1.4520   20.0650 H   0  0  0  0  0  0  0  0  0  0  0  0
    0.4010    3.1230   19.8850 H   0  0  0  0  0  0  0  0  0  0  0  0
  1  3  1  0  0  0  0
  2  1  2  0  0  0  0
  3  7  1  0  0  0  0
  3  4  1  0  0  0  0
  4  8  1  0  0  0  0
  4  5  1  0  0  0  0
  5 11  1  0  0  0  0
  6  5  1  0  0  0  0
  6 12  1  0  0  0  0
  6 13  1  0  0  0  0
  7 14  1  1  0  0  0
  7  6  1  0  0  0  0
  9  4  1  0  0  0  0
 10  5  1  0  0  0  0
 15 16  1  0  0  0  0
 15 23  2  0  0  0  0
 16 17  1  0  0  0  0
 17 18  2  0  0  0  0
 18 19  1  0  0  0  0
 19 20  2  0  0  0  0
 20 25  1  0  0  0  0
 21  1  1  0  0  0  0
 21 20  1  0  0  0  0
 22 23  1  0  0  0  0
 22 21  2  0  0  0  0
 23 18  1  0  0  0  0
 24 16  1  0  0  0  0
 26 22  1  0  0  0  0
 27 29  1  0  0  0  0
 27 15  1  0  0  0  0
 28 27  1  0  0  0  0
 30 27  1  0  0  0  0
 31 34  1  0  0  0  0
 31  7  1  0  0  0  0
 32 31  1  0  0  0  0
 33 31  1  0  0  0  0
 34 38  1  0  0  0  0
 34 35  1  0  0  0  0
 35 36  2  0  0  0  0
 36 40  1  0  0  0  0
 37 36  1  0  0  0  0
 38 37  2  0  0  0  0
 39 35  1  0  0  0  0
 40 41  1  0  0  0  0
 41 44  1  0  0  0  0
 41 45  1  0  0  0  0
 42 40  1  0  0  0  0
 42 41  1  0  0  0  0
 43 40  1  0  0  0  0
 46 42  1  0  0  0  0
 47 42  1  0  0  0  0
M  END
>  <MODEL>
27

>  <REMARK>
 VINA RESULT:    -6.059      3.569      5.400
 INTER + INTRA:          -7.761
 INTER:                  -8.076
 INTRA:                   0.315
 UNBOUND:                -0.108
  Name = 
  5 active torsions:
  status: ('A' for Active; 'I' for Inactive)
    1  A    between atoms: C_1  and  C_2
    2  A    between atoms: C_8  and  C_9
    3  A    between atoms: C_15  and  C_16
    4  A    between atoms: C_16  and  N_17
    5  A    between atoms: C_19  and  C_20
                            x       y       z     vdW  Elec       q    Type
                         _______ _______ _______ _____ _____    ______ ____

>  <TORSDO>
F 5

$$$$
=
 OpenBabel07192307433D

 47 51  0  0  1  0  0  0  0  0999 V2000
    2.1590    5.4640   20.6070 C   0  0  0  0  0  0  0  0  0  0  0  0
    2.7140    5.1240   21.6480 O   0  0  0  0  0  0  0  0  0  0  0  0
    2.0780    4.6490   19.4930 N   0  0  0  0  0  0  0  0  0  0  0  0
    1.2230    4.8500   18.3280 C   0  0  0  0  0  0  0  0  0  0  0  0
    1.5970    3.7230   17.3810 C   0  0  0  0  0  0  0  0  0  0  0  0
    1.9760    2.5860   18.3200 C   0  0  0  0  0  0  0  0  0  0  0  0
    2.6090    3.2820   19.5330 C   0  0  1  0  0  0  0  0  0  0  0  0
    0.1810    4.7660   18.6580 H   0  0  0  0  0  0  0  0  0  0  0  0
    1.3750    5.8310   17.8760 H   0  0  0  0  0  0  0  0  0  0  0  0
    2.4570    4.0150   16.7700 H   0  0  0  0  0  0  0  0  0  0  0  0
    0.7800    3.4580   16.7040 H   0  0  0  0  0  0  0  0  0  0  0  0
    2.6230    1.8400   17.8490 H   0  0  0  0  0  0  0  0  0  0  0  0
    1.0610    2.0690   18.6380 H   0  0  0  0  0  0  0  0  0  0  0  0
    2.2270    2.8010   20.4440 H   0  0  0  0  0  0  0  0  0  0  0  0
    1.4410    9.9950   18.8710 C   0  0  0  0  0  0  0  0  0  0  0  0
    0.5110   10.8870   19.3480 N   0  0  0  0  0  0  0  0  0  0  0  0
   -0.2260   10.4350   20.3810 N   0  0  0  0  0  0  0  0  0  0  0  0
    0.2290    9.1990   20.5820 C   0  0  0  0  0  0  0  0  0  0  0  0
   -0.1990    8.3060   21.5130 N   0  0  0  0  0  0  0  0  0  0  0  0
    0.4930    7.1250   21.4340 C   0  0  0  0  0  0  0  0  0  0  0  0
    1.5530    6.8040   20.5480 C   0  0  0  0  0  0  0  0  0  0  0  0
    2.0010    7.7000   19.5660 C   0  0  0  0  0  0  0  0  0  0  0  0
    1.2810    8.8830   19.6620 C   0  0  0  0  0  0  0  0  0  0  0  0
    0.3250   11.8270   19.0130 H   0  0  0  0  0  0  0  0  0  0  0  0
    0.1520    6.3800   22.1530 H   0  0  0  0  0  0  0  0  0  0  0  0
    2.7810    7.4760   18.8540 H   0  0  0  0  0  0  0  0  0  0  0  0
    2.3420   10.3140   17.7420 C   0  0  0  0  0  0  0  0  0  0  0  0
    1.8100   10.8220   16.9310 H   0  0  0  0  0  0  0  0  0  0  0  0
    3.1550   10.9680   18.0750 H   0  0  0  0  0  0  0  0  0  0  0  0
    2.7840    9.3980   17.3340 H   0  0  0  0  0  0  0  0  0  0  0  0
    4.1440    3.1990   19.5960 C   0  0  0  0  0  0  0  0  0  0  0  0
    4.4790    2.1750   19.4000 H   0  0  0  0  0  0  0  0  0  0  0  0
    4.5010    3.4620   20.5990 H   0  0  0  0  0  0  0  0  0  0  0  0
    4.8330    4.0690   18.6720 N   0  0  0  0  0  0  0  0  0  0  0  0
    4.8890    3.9720   17.3140 C   0  0  0  0  0  0  0  0  0  0  0  0
    5.6620    5.0460   16.9470 C   0  0  0  0  0  0  0  0  0  0  0  0
    6.0240    5.7540   18.0580 N   0  0  0  0  0  0  0  0  0  0  0  0
    5.4910    5.1550   19.1160 N   0  0  0  0  0  0  0  0  0  0  0  0
    4.4010    3.1850   16.7590 H   0  0  0  0  0  0  0  0  0  0  0  0
    6.0870    5.4490   15.5140 C   0  0  0  0  0  0  0  0  0  0  0  0
    7.2420    4.7550   14.8400 C   0  0  0  0  0  0  0  0  0  0  0  0
    5.8390    4.5190   14.3560 C   0  0  0  0  0  0  0  0  0  0  0  0
    5.9770    6.5120   15.3180 H   0  0  0  0  0  0  0  0  0  0  0  0
    7.7450    3.9450   15.3530 H   0  0  0  0  0  0  0  0  0  0  0  0
    7.8990    5.3580   14.2230 H   0  0  0  0  0  0  0  0  0  0  0  0
    5.5470    4.9630   13.4110 H   0  0  0  0  0  0  0  0  0  0  0  0
    5.3900    3.5520   14.5430 H   0  0  0  0  0  0  0  0  0  0  0  0
  1  2  2  0  0  0  0
  3  7  1  0  0  0  0
  3  1  1  0  0  0  0
  4  8  1  0  0  0  0
  4  3  1  0  0  0  0
  5  6  1  0  0  0  0
  5  4  1  0  0  0  0
  6 13  1  0  0  0  0
  6  7  1  0  0  0  0
  7 31  1  0  0  0  0
  7 14  1  1  0  0  0
  9  4  1  0  0  0  0
 10  5  1  0  0  0  0
 11  5  1  0  0  0  0
 12  6  1  0  0  0  0
 15 16  1  0  0  0  0
 15 23  2  0  0  0  0
 16 17  1  0  0  0  0
 17 18  2  0  0  0  0
 18 19  1  0  0  0  0
 20 19  2  0  0  0  0
 20 25  1  0  0  0  0
 21  1  1  0  0  0  0
 21 20  1  0  0  0  0
 22 23  1  0  0  0  0
 22 21  2  0  0  0  0
 23 18  1  0  0  0  0
 24 16  1  0  0  0  0
 26 22  1  0  0  0  0
 27 29  1  0  0  0  0
 27 15  1  0  0  0  0
 28 27  1  0  0  0  0
 30 27  1  0  0  0  0
 31 33  1  0  0  0  0
 32 31  1  0  0  0  0
 34 38  1  0  0  0  0
 34 31  1  0  0  0  0
 35 34  1  0  0  0  0
 36 35  2  0  0  0  0
 36 37  1  0  0  0  0
 37 38  2  0  0  0  0
 39 35  1  0  0  0  0
 40 36  1  0  0  0  0
 41 44  1  0  0  0  0
 41 40  1  0  0  0  0
 42 47  1  0  0  0  0
 42 41  1  0  0  0  0
 42 40  1  0  0  0  0
 43 40  1  0  0  0  0
 45 41  1  0  0  0  0
 46 42  1  0  0  0  0
M  END
>  <MODEL>
28

>  <REMARK>
 VINA RESULT:    -6.025      4.258      6.694
 INTER + INTRA:          -7.718
 INTER:                  -7.389
 INTRA:                  -0.329
 UNBOUND:                -0.108
  Name = 
  5 active torsions:
  status: ('A' for Active; 'I' for Inactive)
    1  A    between atoms: C_1  and  C_2
    2  A    between atoms: C_8  and  C_9
    3  A    between atoms: C_15  and  C_16
    4  A    between atoms: C_16  and  N_17
    5  A    between atoms: C_19  and  C_20
                            x       y       z     vdW  Elec       q    Type
                         _______ _______ _______ _____ _____    ______ ____

>  <TORSDO>
F 5

$$$$
=
 OpenBabel07192307433D

 47 51  0  0  1  0  0  0  0  0999 V2000
    0.8360    9.5680   20.2620 C   0  0  0  0  0  0  0  0  0  0  0  0
    0.1660    9.3320   21.2630 O   0  0  0  0  0  0  0  0  0  0  0  0
    0.9000   10.8160   19.6730 N   0  0  0  0  0  0  0  0  0  0  0  0
    1.8580   11.2550   18.6640 C   0  0  0  0  0  0  0  0  0  0  0  0
    1.4230   12.6650   18.3090 C   0  0  0  0  0  0  0  0  0  0  0  0
    0.8380   13.1910   19.6140 C   0  0  0  0  0  0  0  0  0  0  0  0
    0.2050   11.9590   20.2770 C   0  0  1  0  0  0  0  0  0  0  0  0
    2.8550   11.2470   19.1220 H   0  0  0  0  0  0  0  0  0  0  0  0
    1.8620   10.5970   17.7930 H   0  0  0  0  0  0  0  0  0  0  0  0
    0.6530   12.6360   17.5310 H   0  0  0  0  0  0  0  0  0  0  0  0
    2.2500   13.2780   17.9400 H   0  0  0  0  0  0  0  0  0  0  0  0
    0.1420   14.0220   19.4660 H   0  0  0  0  0  0  0  0  0  0  0  0
    1.6570   13.5590   20.2460 H   0  0  0  0  0  0  0  0  0  0  0  0
    0.4560   11.9760   21.3460 H   0  0  0  0  0  0  0  0  0  0  0  0
    2.7230    5.0500   19.9810 C   0  0  0  0  0  0  0  0  0  0  0  0
    3.4520    4.5600   18.9230 N   0  0  0  0  0  0  0  0  0  0  0  0
    3.6440    5.4360   17.9170 N   0  0  0  0  0  0  0  0  0  0  0  0
    3.0090    6.5350   18.3240 C   0  0  0  0  0  0  0  0  0  0  0  0
    2.8930    7.7130   17.6570 N   0  0  0  0  0  0  0  0  0  0  0  0
    2.1680    8.6290   18.3750 C   0  0  0  0  0  0  0  0  0  0  0  0
    1.6030    8.4630   19.6640 C   0  0  0  0  0  0  0  0  0  0  0  0
    1.6910    7.2520   20.3660 C   0  0  0  0  0  0  0  0  0  0  0  0
    2.4230    6.3400   19.6170 C   0  0  0  0  0  0  0  0  0  0  0  0
    3.8520    3.6330   18.8210 H   0  0  0  0  0  0  0  0  0  0  0  0
    2.0370    9.5760   17.8510 H   0  0  0  0  0  0  0  0  0  0  0  0
    1.2440    7.0800   21.3340 H   0  0  0  0  0  0  0  0  0  0  0  0
    2.4120    4.2350   21.1760 C   0  0  0  0  0  0  0  0  0  0  0  0
    1.7150    4.7490   21.8460 H   0  0  0  0  0  0  0  0  0  0  0  0
    1.9570    3.2830   20.8820 H   0  0  0  0  0  0  0  0  0  0  0  0
    3.3260    4.0200   21.7400 H   0  0  0  0  0  0  0  0  0  0  0  0
   -1.3290   11.8910   20.1790 C   0  0  0  0  0  0  0  0  0  0  0  0
   -1.7620   12.8940   20.2720 H   0  0  0  0  0  0  0  0  0  0  0  0
   -1.7390   11.2930   21.0020 H   0  0  0  0  0  0  0  0  0  0  0  0
   -1.8300   11.3100   18.9570 N   0  0  0  0  0  0  0  0  0  0  0  0
   -1.9850   11.9120   17.7440 C   0  0  0  0  0  0  0  0  0  0  0  0
   -2.4860   10.9110   16.9490 C   0  0  0  0  0  0  0  0  0  0  0  0
   -2.5970    9.7580   17.6750 N   0  0  0  0  0  0  0  0  0  0  0  0
   -2.1710   10.0090   18.9070 N   0  0  0  0  0  0  0  0  0  0  0  0
   -1.7410   12.9490   17.5670 H   0  0  0  0  0  0  0  0  0  0  0  0
   -2.8770   11.0070   15.4550 C   0  0  0  0  0  0  0  0  0  0  0  0
   -2.6250    9.8490   14.5260 C   0  0  0  0  0  0  0  0  0  0  0  0
   -4.0320   10.2040   14.9160 C   0  0  0  0  0  0  0  0  0  0  0  0
   -2.7410   12.0020   15.0410 H   0  0  0  0  0  0  0  0  0  0  0  0
   -2.2030    8.9340   14.9230 H   0  0  0  0  0  0  0  0  0  0  0  0
   -2.3030   10.0760   13.5150 H   0  0  0  0  0  0  0  0  0  0  0  0
   -4.6630   10.6720   14.1690 H   0  0  0  0  0  0  0  0  0  0  0  0
   -4.5620    9.5330   15.5800 H   0  0  0  0  0  0  0  0  0  0  0  0
  1  2  2  0  0  0  0
  3  1  1  0  0  0  0
  3  7  1  0  0  0  0
  4  8  1  0  0  0  0
  4  3  1  0  0  0  0
  5  4  1  0  0  0  0
  5  6  1  0  0  0  0
  6 13  1  0  0  0  0
  6  7  1  0  0  0  0
  7 14  1  1  0  0  0
  9  4  1  0  0  0  0
 10  5  1  0  0  0  0
 11  5  1  0  0  0  0
 12  6  1  0  0  0  0
 15 27  1  0  0  0  0
 16 15  1  0  0  0  0
 17 18  2  0  0  0  0
 17 16  1  0  0  0  0
 18 23  1  0  0  0  0
 19 18  1  0  0  0  0
 19 20  2  0  0  0  0
 20 21  1  0  0  0  0
 21  1  1  0  0  0  0
 21 22  2  0  0  0  0
 22 26  1  0  0  0  0
 23 15  2  0  0  0  0
 23 22  1  0  0  0  0
 24 16  1  0  0  0  0
 25 20  1  0  0  0  0
 27 30  1  0  0  0  0
 27 28  1  0  0  0  0
 29 27  1  0  0  0  0
 31 32  1  0  0  0  0
 31  7  1  0  0  0  0
 31 33  1  0  0  0  0
 34 31  1  0  0  0  0
 35 34  1  0  0  0  0
 36 37  1  0  0  0  0
 36 35  2  0  0  0  0
 37 38  2  0  0  0  0
 38 34  1  0  0  0  0
 39 35  1  0  0  0  0
 40 36  1  0  0  0  0
 41 42  1  0  0  0  0
 41 44  1  0  0  0  0
 41 40  1  0  0  0  0
 42 40  1  0  0  0  0
 42 47  1  0  0  0  0
 43 40  1  0  0  0  0
 45 41  1  0  0  0  0
 46 42  1  0  0  0  0
M  END
>  <MODEL>
29

>  <REMARK>
 VINA RESULT:    -6.006      3.314      7.662
 INTER + INTRA:          -7.694
 INTER:                  -8.296
 INTRA:                   0.602
 UNBOUND:                -0.108
  Name = 
  5 active torsions:
  status: ('A' for Active; 'I' for Inactive)
    1  A    between atoms: C_1  and  C_2
    2  A    between atoms: C_8  and  C_9
    3  A    between atoms: C_15  and  C_16
    4  A    between atoms: C_16  and  N_17
    5  A    between atoms: C_19  and  C_20
                            x       y       z     vdW  Elec       q    Type
                         _______ _______ _______ _____ _____    ______ ____

>  <TORSDO>
F 5

$$$$
=
 OpenBabel07192307433D

 47 51  0  0  1  0  0  0  0  0999 V2000
    0.1710    9.5440   20.9670 C   0  0  0  0  0  0  0  0  0  0  0  0
   -0.1630    8.4640   21.4460 O   0  0  0  0  0  0  0  0  0  0  0  0
    0.9020    9.6580   19.8000 N   0  0  0  0  0  0  0  0  0  0  0  0
    1.1110   10.8730   19.0190 C   0  0  0  0  0  0  0  0  0  0  0  0
    2.0520   10.4540   17.9030 C   0  0  0  0  0  0  0  0  0  0  0  0
    1.6700    9.0010   17.6500 C   0  0  0  0  0  0  0  0  0  0  0  0
    1.2630    8.4630   19.0290 C   0  0  1  0  0  0  0  0  0  0  0  0
    0.1390   11.1900   18.6250 H   0  0  0  0  0  0  0  0  0  0  0  0
    1.5300   11.6790   19.6240 H   0  0  0  0  0  0  0  0  0  0  0  0
    3.0910   10.5210   18.2410 H   0  0  0  0  0  0  0  0  0  0  0  0
    1.9480   11.0790   17.0120 H   0  0  0  0  0  0  0  0  0  0  0  0
    2.4680    8.4270   17.1680 H   0  0  0  0  0  0  0  0  0  0  0  0
    0.8000    8.9750   16.9810 H   0  0  0  0  0  0  0  0  0  0  0  0
    0.3540    7.8570   18.9070 H   0  0  0  0  0  0  0  0  0  0  0  0
    0.0980   14.3540   21.9240 C   0  0  0  0  0  0  0  0  0  0  0  0
   -0.6780   14.9580   22.8840 N   0  0  0  0  0  0  0  0  0  0  0  0
   -1.4510   14.1160   23.5960 N   0  0  0  0  0  0  0  0  0  0  0  0
   -1.1810   12.9190   23.0790 C   0  0  0  0  0  0  0  0  0  0  0  0
   -1.7170   11.7240   23.4440 N   0  0  0  0  0  0  0  0  0  0  0  0
   -1.2100   10.6940   22.6960 C   0  0  0  0  0  0  0  0  0  0  0  0
   -0.2300   10.7710   21.6740 C   0  0  0  0  0  0  0  0  0  0  0  0
    0.3250   11.9920   21.2640 C   0  0  0  0  0  0  0  0  0  0  0  0
   -0.2090   13.0190   22.0310 C   0  0  0  0  0  0  0  0  0  0  0  0
   -0.7300   15.9470   23.1070 H   0  0  0  0  0  0  0  0  0  0  0  0
   -1.6420    9.7260   22.9500 H   0  0  0  0  0  0  0  0  0  0  0  0
    1.0470   12.0910   20.4670 H   0  0  0  0  0  0  0  0  0  0  0  0
    1.0120   15.1160   21.0440 C   0  0  0  0  0  0  0  0  0  0  0  0
    0.9580   16.1920   21.2410 H   0  0  0  0  0  0  0  0  0  0  0  0
    2.0480   14.7960   21.2010 H   0  0  0  0  0  0  0  0  0  0  0  0
    0.7560   14.9520   19.9930 H   0  0  0  0  0  0  0  0  0  0  0  0
    2.3110    7.5640   19.7060 C   0  0  0  0  0  0  0  0  0  0  0  0
    1.9470    7.2220   20.6810 H   0  0  0  0  0  0  0  0  0  0  0  0
    3.2340    8.1250   19.8920 H   0  0  0  0  0  0  0  0  0  0  0  0
    2.6850    6.3950   18.9450 N   0  0  0  0  0  0  0  0  0  0  0  0
    2.0120    5.2150   18.8370 C   0  0  0  0  0  0  0  0  0  0  0  0
    2.8030    4.4700   17.9970 C   0  0  0  0  0  0  0  0  0  0  0  0
    3.8900    5.2050   17.6150 N   0  0  0  0  0  0  0  0  0  0  0  0
    3.7980    6.3990   18.1880 N   0  0  0  0  0  0  0  0  0  0  0  0
    1.0800    5.0210   19.3450 H   0  0  0  0  0  0  0  0  0  0  0  0
    2.5540    3.0200   17.5170 C   0  0  0  0  0  0  0  0  0  0  0  0
    3.2770    1.8690   18.1660 C   0  0  0  0  0  0  0  0  0  0  0  0
    1.8020    2.0470   18.3860 C   0  0  0  0  0  0  0  0  0  0  0  0
    2.3860    2.9470   16.4460 H   0  0  0  0  0  0  0  0  0  0  0  0
    3.9430    2.0630   18.9980 H   0  0  0  0  0  0  0  0  0  0  0  0
    3.6020    1.0550   17.5270 H   0  0  0  0  0  0  0  0  0  0  0  0
    1.1280    1.3540   17.8970 H   0  0  0  0  0  0  0  0  0  0  0  0
    1.4670    2.3660   19.3660 H   0  0  0  0  0  0  0  0  0  0  0  0
  1  2  2  0  0  0  0
  1 21  1  0  0  0  0
  3  1  1  0  0  0  0
  4  9  1  0  0  0  0
  4  3  1  0  0  0  0
  5 10  1  0  0  0  0
  5  4  1  0  0  0  0
  6  5  1  0  0  0  0
  6  7  1  0  0  0  0
  7 14  1  6  0  0  0
  7 31  1  0  0  0  0
  7  3  1  0  0  0  0
  8  4  1  0  0  0  0
 11  5  1  0  0  0  0
 12  6  1  0  0  0  0
 13  6  1  0  0  0  0
 15 23  2  0  0  0  0
 15 16  1  0  0  0  0
 16 24  1  0  0  0  0
 16 17  1  0  0  0  0
 18 19  1  0  0  0  0
 18 17  2  0  0  0  0
 20 25  1  0  0  0  0
 20 19  2  0  0  0  0
 21 20  1  0  0  0  0
 22 21  2  0  0  0  0
 22 23  1  0  0  0  0
 23 18  1  0  0  0  0
 26 22  1  0  0  0  0
 27 29  1  0  0  0  0
 27 28  1  0  0  0  0
 27 15  1  0  0  0  0
 30 27  1  0  0  0  0
 31 33  1  0  0  0  0
 31 32  1  0  0  0  0
 34 31  1  0  0  0  0
 35 34  1  0  0  0  0
 35 39  1  0  0  0  0
 36 35  2  0  0  0  0
 37 36  1  0  0  0  0
 37 38  2  0  0  0  0
 38 34  1  0  0  0  0
 40 36  1  0  0  0  0
 40 41  1  0  0  0  0
 40 42  1  0  0  0  0
 41 42  1  0  0  0  0
 41 44  1  0  0  0  0
 42 47  1  0  0  0  0
 43 40  1  0  0  0  0
 45 41  1  0  0  0  0
 46 42  1  0  0  0  0
M  END
>  <MODEL>
30

>  <REMARK>
 VINA RESULT:    -5.974      2.124      3.467
 INTER + INTRA:          -7.654
 INTER:                  -8.225
 INTRA:                   0.571
 UNBOUND:                -0.108
  Name = 
  5 active torsions:
  status: ('A' for Active; 'I' for Inactive)
    1  A    between atoms: C_1  and  C_2
    2  A    between atoms: C_8  and  C_9
    3  A    between atoms: C_15  and  C_16
    4  A    between atoms: C_16  and  N_17
    5  A    between atoms: C_19  and  C_20
                            x       y       z     vdW  Elec       q    Type
                         _______ _______ _______ _____ _____    ______ ____

>  <TORSDO>
F 5

$$$$
=
 OpenBabel07192307433D

 47 51  0  0  1  0  0  0  0  0999 V2000
   -0.0470   10.3460   18.9310 C   0  0  0  0  0  0  0  0  0  0  0  0
    0.7590   10.7470   18.0970 O   0  0  0  0  0  0  0  0  0  0  0  0
    0.2620    9.3950   19.8850 N   0  0  0  0  0  0  0  0  0  0  0  0
   -0.5250    9.0580   21.0650 C   0  0  0  0  0  0  0  0  0  0  0  0
    0.2200    7.9000   21.7060 C   0  0  0  0  0  0  0  0  0  0  0  0
    1.6770    8.1890   21.3650 C   0  0  0  0  0  0  0  0  0  0  0  0
    1.6240    8.8580   19.9840 C   0  0  1  0  0  0  0  0  0  0  0  0
   -0.5390    9.9360   21.7210 H   0  0  0  0  0  0  0  0  0  0  0  0
   -1.5520    8.7900   20.8080 H   0  0  0  0  0  0  0  0  0  0  0  0
   -0.0960    6.9540   21.2550 H   0  0  0  0  0  0  0  0  0  0  0  0
    0.0440    7.8340   22.7830 H   0  0  0  0  0  0  0  0  0  0  0  0
    2.3100    7.2970   21.4020 H   0  0  0  0  0  0  0  0  0  0  0  0
    2.0760    8.9040   22.0960 H   0  0  0  0  0  0  0  0  0  0  0  0
    2.3190    9.7080   19.9870 H   0  0  0  0  0  0  0  0  0  0  0  0
   -3.7260   13.2520   20.3730 C   0  0  0  0  0  0  0  0  0  0  0  0
   -4.9630   13.3180   19.7770 N   0  0  0  0  0  0  0  0  0  0  0  0
   -5.1280   12.4900   18.7270 N   0  0  0  0  0  0  0  0  0  0  0  0
   -3.9550   11.8670   18.6240 C   0  0  0  0  0  0  0  0  0  0  0  0
   -3.5980   10.9310   17.7050 N   0  0  0  0  0  0  0  0  0  0  0  0
   -2.3100   10.5040   17.8940 C   0  0  0  0  0  0  0  0  0  0  0  0
   -1.4060   10.9100   18.9090 C   0  0  0  0  0  0  0  0  0  0  0  0
   -1.7410   11.8880   19.8570 C   0  0  0  0  0  0  0  0  0  0  0  0
   -3.0470   12.3090   19.6410 C   0  0  0  0  0  0  0  0  0  0  0  0
   -5.7460   13.9090   20.0370 H   0  0  0  0  0  0  0  0  0  0  0  0
   -1.9880    9.7710   17.1540 H   0  0  0  0  0  0  0  0  0  0  0  0
   -1.0670   12.2460   20.6210 H   0  0  0  0  0  0  0  0  0  0  0  0
   -3.3600   14.0850   21.5390 C   0  0  0  0  0  0  0  0  0  0  0  0
   -2.3630   13.8370   21.9180 H   0  0  0  0  0  0  0  0  0  0  0  0
   -3.3630   15.1460   21.2670 H   0  0  0  0  0  0  0  0  0  0  0  0
   -4.0760   13.9380   22.3540 H   0  0  0  0  0  0  0  0  0  0  0  0
    2.0350    7.9500   18.8120 C   0  0  0  0  0  0  0  0  0  0  0  0
    2.8460    8.4120   18.2380 H   0  0  0  0  0  0  0  0  0  0  0  0
    1.1960    7.8150   18.1200 H   0  0  0  0  0  0  0  0  0  0  0  0
    2.4700    6.6280   19.1970 N   0  0  0  0  0  0  0  0  0  0  0  0
    1.6980    5.5410   19.4800 C   0  0  0  0  0  0  0  0  0  0  0  0
    2.6160    4.5630   19.7760 C   0  0  0  0  0  0  0  0  0  0  0  0
    3.8800    5.0650   19.6470 N   0  0  0  0  0  0  0  0  0  0  0  0
    3.7810    6.3330   19.2690 N   0  0  0  0  0  0  0  0  0  0  0  0
    0.6190    5.5620   19.4510 H   0  0  0  0  0  0  0  0  0  0  0  0
    2.3260    3.1010   20.1920 C   0  0  0  0  0  0  0  0  0  0  0  0
    2.7370    2.6020   21.5520 C   0  0  0  0  0  0  0  0  0  0  0  0
    1.2820    2.7980   21.2340 C   0  0  0  0  0  0  0  0  0  0  0  0
    2.4110    2.3980   19.3690 H   0  0  0  0  0  0  0  0  0  0  0  0
    3.2020    3.2870   22.2500 H   0  0  0  0  0  0  0  0  0  0  0  0
    3.1110    1.5860   21.6230 H   0  0  0  0  0  0  0  0  0  0  0  0
    0.6700    1.9150   21.0890 H   0  0  0  0  0  0  0  0  0  0  0  0
    0.7610    3.6180   21.7120 H   0  0  0  0  0  0  0  0  0  0  0  0
  1  3  1  0  0  0  0
  2  1  2  0  0  0  0
  3  7  1  0  0  0  0
  3  4  1  0  0  0  0
  4  5  1  0  0  0  0
  4  8  1  0  0  0  0
  5 11  1  0  0  0  0
  6 12  1  0  0  0  0
  6  5  1  0  0  0  0
  6 13  1  0  0  0  0
  7 14  1  1  0  0  0
  7  6  1  0  0  0  0
  9  4  1  0  0  0  0
 10  5  1  0  0  0  0
 15 27  1  0  0  0  0
 16 24  1  0  0  0  0
 16 15  1  0  0  0  0
 17 16  1  0  0  0  0
 18 17  2  0  0  0  0
 18 23  1  0  0  0  0
 19 20  2  0  0  0  0
 19 18  1  0  0  0  0
 20 21  1  0  0  0  0
 21  1  1  0  0  0  0
 21 22  2  0  0  0  0
 22 26  1  0  0  0  0
 23 22  1  0  0  0  0
 23 15  2  0  0  0  0
 25 20  1  0  0  0  0
 27 28  1  0  0  0  0
 27 30  1  0  0  0  0
 29 27  1  0  0  0  0
 31 34  1  0  0  0  0
 31  7  1  0  0  0  0
 32 31  1  0  0  0  0
 33 31  1  0  0  0  0
 34 38  1  0  0  0  0
 34 35  1  0  0  0  0
 35 36  2  0  0  0  0
 36 40  1  0  0  0  0
 37 36  1  0  0  0  0
 38 37  2  0  0  0  0
 39 35  1  0  0  0  0
 40 42  1  0  0  0  0
 40 41  1  0  0  0  0
 41 45  1  0  0  0  0
 41 44  1  0  0  0  0
 42 41  1  0  0  0  0
 42 47  1  0  0  0  0
 43 40  1  0  0  0  0
 46 42  1  0  0  0  0
M  END
>  <MODEL>
31

>  <REMARK>
 VINA RESULT:    -5.918      2.917      4.410
 INTER + INTRA:          -7.584
 INTER:                  -7.475
 INTRA:                  -0.108
 UNBOUND:                -0.108
  Name = 
  5 active torsions:
  status: ('A' for Active; 'I' for Inactive)
    1  A    between atoms: C_1  and  C_2
    2  A    between atoms: C_8  and  C_9
    3  A    between atoms: C_15  and  C_16
    4  A    between atoms: C_16  and  N_17
    5  A    between atoms: C_19  and  C_20
                            x       y       z     vdW  Elec       q    Type
                         _______ _______ _______ _____ _____    ______ ____

>  <TORSDO>
F 5

$$$$
