=
 OpenBabel07192307433D

 56 59  0  0  1  0  0  0  0  0999 V2000
   -0.1070   10.8610   21.7540 C   0  0  0  0  0  0  0  0  0  0  0  0
    0.0020    9.7600   22.6080 C   0  0  0  0  0  0  0  0  0  0  0  0
    0.4810    8.5340   22.1410 C   0  0  0  0  0  0  0  0  0  0  0  0
    0.8800    8.3660   20.8010 C   0  0  0  0  0  0  0  0  0  0  0  0
    0.8010    9.4770   19.9390 C   0  0  0  0  0  0  0  0  0  0  0  0
    0.2960   10.7030   20.4180 C   0  0  0  0  0  0  0  0  0  0  0  0
   -0.2820    9.8480   23.6550 H   0  0  0  0  0  0  0  0  0  0  0  0
    0.5550    7.7020   22.8410 H   0  0  0  0  0  0  0  0  0  0  0  0
    0.1790   11.5440   19.7390 H   0  0  0  0  0  0  0  0  0  0  0  0
   -2.2930   13.4150   23.5020 C   0  0  0  0  0  0  0  0  0  0  0  0
   -1.6350   14.5990   23.1660 C   0  0  0  0  0  0  0  0  0  0  0  0
   -0.4860   14.5720   22.3770 C   0  0  0  0  0  0  0  0  0  0  0  0
    0.0100   13.3540   21.9160 C   0  0  0  0  0  0  0  0  0  0  0  0
   -0.6310   12.1470   22.2390 C   0  0  0  0  0  0  0  0  0  0  0  0
   -1.7900   12.1970   23.0380 C   0  0  0  0  0  0  0  0  0  0  0  0
   -2.0210   15.5500   23.5260 H   0  0  0  0  0  0  0  0  0  0  0  0
    0.0210   15.5000   22.1260 H   0  0  0  0  0  0  0  0  0  0  0  0
    0.9160   13.3490   21.3140 H   0  0  0  0  0  0  0  0  0  0  0  0
   -2.2880   11.2620   23.2790 H   0  0  0  0  0  0  0  0  0  0  0  0
   -3.4050   13.5820   24.2810 O   0  0  0  0  0  0  0  0  0  0  0  0
   -4.1950   12.4280   24.5340 C   0  0  0  0  0  0  0  0  0  0  0  0
   -5.2600   12.6370   24.3880 H   0  0  0  0  0  0  0  0  0  0  0  0
   -3.9050   11.6590   23.8110 H   0  0  0  0  0  0  0  0  0  0  0  0
   -4.0030   12.0310   25.5370 H   0  0  0  0  0  0  0  0  0  0  0  0
    1.2340    9.3960   18.5110 C   0  0  0  0  0  0  0  0  0  0  0  0
    0.2890    9.6720   17.5610 N   0  0  0  0  0  0  0  0  0  0  0  0
    2.3850    9.1480   18.1760 O   0  0  0  0  0  0  0  0  0  0  0  0
   -0.5730   10.1490   17.7880 H   0  0  0  0  0  0  0  0  0  0  0  0
    0.6170    9.7360   16.6060 H   0  0  0  0  0  0  0  0  0  0  0  0
    1.3460    6.9920   20.3710 C   0  0  0  0  0  0  0  0  0  0  0  0
    0.7050    6.6230   19.5630 H   0  0  0  0  0  0  0  0  0  0  0  0
    1.2540    6.2760   21.1970 H   0  0  0  0  0  0  0  0  0  0  0  0
    2.7130    6.9610   19.9120 N   0  0  0  0  0  0  0  0  0  0  0  0
    3.4130    5.7930   19.8060 C   0  0  0  0  0  0  0  0  0  0  0  0
    2.9390    4.6830   20.0070 O   0  0  0  0  0  0  0  0  0  0  0  0
    4.7150    6.0300   19.4490 N   0  0  0  0  0  0  0  0  0  0  0  0
    3.2340    7.8170   20.0560 H   0  0  0  0  0  0  0  0  0  0  0  0
    4.8300    6.8510   18.8740 H   0  0  0  0  0  0  0  0  0  0  0  0
    5.5980    4.9230   19.1420 C   0  0  2  0  0  0  0  0  0  0  0  0
    7.0610    5.2450   19.5050 C   0  0  0  0  0  0  0  0  0  0  0  0
    7.6980    5.8980   18.2680 C   0  0  0  0  0  0  0  0  0  0  0  0
    6.9060    5.2710   17.1650 C   0  0  0  0  0  0  0  0  0  0  0  0
    7.2060    5.2340   15.8130 C   0  0  0  0  0  0  0  0  0  0  0  0
    6.2930    4.6230   14.9500 C   0  0  0  0  0  0  0  0  0  0  0  0
    5.1000    4.0710   15.4410 C   0  0  0  0  0  0  0  0  0  0  0  0
    4.8010    4.1230   16.8030 C   0  0  0  0  0  0  0  0  0  0  0  0
    5.7150    4.7210   17.6560 C   0  0  0  0  0  0  0  0  0  0  0  0
    5.2710    4.0090   19.6500 H   0  0  0  0  0  0  0  0  0  0  0  0
    7.5900    4.3050   19.7110 H   0  0  0  0  0  0  0  0  0  0  0  0
    7.1600    5.8720   20.3980 H   0  0  0  0  0  0  0  0  0  0  0  0
    8.7640    5.6690   18.2010 H   0  0  0  0  0  0  0  0  0  0  0  0
    7.5460    6.9820   18.2700 H   0  0  0  0  0  0  0  0  0  0  0  0
    8.1220    5.6690   15.4290 H   0  0  0  0  0  0  0  0  0  0  0  0
    6.5070    4.5780   13.8840 H   0  0  0  0  0  0  0  0  0  0  0  0
    4.3980    3.6040   14.7530 H   0  0  0  0  0  0  0  0  0  0  0  0
    3.8720    3.7080   17.1870 H   0  0  0  0  0  0  0  0  0  0  0  0
  1 14  1  0  0  0  0
  1  2  1  0  0  0  0
  2  7  1  0  0  0  0
  3  2  2  0  0  0  0
  3  8  1  0  0  0  0
  4  3  1  0  0  0  0
  5  6  1  0  0  0  0
  5  4  2  0  0  0  0
  6  1  2  0  0  0  0
  9  6  1  0  0  0  0
 10 20  1  0  0  0  0
 11 10  1  0  0  0  0
 11 16  1  0  0  0  0
 12 11  2  0  0  0  0
 13 14  2  0  0  0  0
 13 12  1  0  0  0  0
 14 15  1  0  0  0  0
 15 19  1  0  0  0  0
 15 10  2  0  0  0  0
 17 12  1  0  0  0  0
 18 13  1  0  0  0  0
 20 21  1  0  0  0  0
 21 24  1  0  0  0  0
 22 21  1  0  0  0  0
 23 21  1  0  0  0  0
 25  5  1  0  0  0  0
 26 28  1  0  0  0  0
 26 25  1  0  0  0  0
 27 25  2  0  0  0  0
 29 26  1  0  0  0  0
 30  4  1  0  0  0  0
 30 32  1  0  0  0  0
 31 30  1  0  0  0  0
 33 37  1  0  0  0  0
 33 30  1  0  0  0  0
 34 33  1  0  0  0  0
 34 35  2  0  0  0  0
 36 34  1  0  0  0  0
 38 36  1  0  0  0  0
 39 36  1  0  0  0  0
 39 40  1  0  0  0  0
 39 48  1  1  0  0  0
 40 49  1  0  0  0  0
 40 50  1  0  0  0  0
 41 52  1  0  0  0  0
 41 40  1  0  0  0  0
 42 47  1  0  0  0  0
 42 41  1  0  0  0  0
 43 42  2  0  0  0  0
 44 45  2  0  0  0  0
 44 43  1  0  0  0  0
 45 46  1  0  0  0  0
 46 56  1  0  0  0  0
 46 47  2  0  0  0  0
 47 39  1  0  0  0  0
 51 41  1  0  0  0  0
 53 43  1  0  0  0  0
 54 44  1  0  0  0  0
 55 45  1  0  0  0  0
M  END
>  <MODEL>
1

>  <REMARK>
 VINA RESULT:    -8.342      0.000      0.000
 INTER + INTRA:         -11.771
 INTER:                 -10.865
 INTRA:                  -0.906
 UNBOUND:                -0.259
  Name = 
  7 active torsions:
  status: ('A' for Active; 'I' for Inactive)
    1  A    between atoms: C_1  and  O_2
    2  A    between atoms: O_2  and  C_3
    3  A    between atoms: C_7  and  C_8
    4  A    between atoms: C_11  and  C_12
    5  A    between atoms: C_12  and  N_13
    6  A    between atoms: N_16  and  C_17
    7  A    between atoms: C_26  and  C_27
                            x       y       z     vdW  Elec       q    Type
                         _______ _______ _______ _____ _____    ______ ____

>  <TORSDO>
F 7

$$$$
=
 OpenBabel07192307433D

 56 59  0  0  1  0  0  0  0  0999 V2000
   -0.7610   12.1480   20.9250 C   0  0  0  0  0  0  0  0  0  0  0  0
    0.5910   11.8050   21.0270 C   0  0  0  0  0  0  0  0  0  0  0  0
    1.2370   11.1190   19.9960 C   0  0  0  0  0  0  0  0  0  0  0  0
    0.5570   10.7580   18.8180 C   0  0  0  0  0  0  0  0  0  0  0  0
   -0.7980   11.1240   18.6930 C   0  0  0  0  0  0  0  0  0  0  0  0
   -1.4430   11.7980   19.7490 C   0  0  0  0  0  0  0  0  0  0  0  0
    1.1600   12.0760   21.9140 H   0  0  0  0  0  0  0  0  0  0  0  0
    2.2930   10.8750   20.1130 H   0  0  0  0  0  0  0  0  0  0  0  0
   -2.5040   12.0290   19.6780 H   0  0  0  0  0  0  0  0  0  0  0  0
   -3.4610   13.2580   23.3400 C   0  0  0  0  0  0  0  0  0  0  0  0
   -2.7640   14.1950   24.1030 C   0  0  0  0  0  0  0  0  0  0  0  0
   -1.4220   14.4670   23.8380 C   0  0  0  0  0  0  0  0  0  0  0  0
   -0.7700   13.8010   22.8010 C   0  0  0  0  0  0  0  0  0  0  0  0
   -1.4480   12.8530   22.0180 C   0  0  0  0  0  0  0  0  0  0  0  0
   -2.8020   12.5920   22.3030 C   0  0  0  0  0  0  0  0  0  0  0  0
   -3.2700   14.7150   24.9130 H   0  0  0  0  0  0  0  0  0  0  0  0
   -0.8870   15.1950   24.4420 H   0  0  0  0  0  0  0  0  0  0  0  0
    0.2800   14.0130   22.6180 H   0  0  0  0  0  0  0  0  0  0  0  0
   -3.3250   11.8640   21.6900 H   0  0  0  0  0  0  0  0  0  0  0  0
   -4.7680   13.0850   23.7050 O   0  0  0  0  0  0  0  0  0  0  0  0
   -5.0180   12.2670   24.8400 C   0  0  0  0  0  0  0  0  0  0  0  0
   -4.7150   11.2310   24.6540 H   0  0  0  0  0  0  0  0  0  0  0  0
   -4.4110   12.6470   25.6670 H   0  0  0  0  0  0  0  0  0  0  0  0
   -6.0680   12.3240   25.1440 H   0  0  0  0  0  0  0  0  0  0  0  0
   -1.5860   10.8100   17.4630 C   0  0  0  0  0  0  0  0  0  0  0  0
   -2.0550   11.8740   16.7400 N   0  0  0  0  0  0  0  0  0  0  0  0
   -1.7760    9.6680   17.0650 O   0  0  0  0  0  0  0  0  0  0  0  0
   -1.6900   12.8070   16.8650 H   0  0  0  0  0  0  0  0  0  0  0  0
   -2.4790   11.6570   15.8460 H   0  0  0  0  0  0  0  0  0  0  0  0
    1.3230    9.9790   17.7710 C   0  0  0  0  0  0  0  0  0  0  0  0
    2.3770   10.2770   17.7900 H   0  0  0  0  0  0  0  0  0  0  0  0
    0.9490   10.2110   16.7660 H   0  0  0  0  0  0  0  0  0  0  0  0
    1.2550    8.5490   17.9460 N   0  0  0  0  0  0  0  0  0  0  0  0
    2.3770    7.7850   18.0900 C   0  0  0  0  0  0  0  0  0  0  0  0
    3.5130    8.2330   18.1620 O   0  0  0  0  0  0  0  0  0  0  0  0
    2.0620    6.4510   18.1390 N   0  0  0  0  0  0  0  0  0  0  0  0
    0.4240    8.1090   17.5710 H   0  0  0  0  0  0  0  0  0  0  0  0
    1.1570    6.2680   18.5450 H   0  0  0  0  0  0  0  0  0  0  0  0
    3.0890    5.4710   18.4310 C   0  0  2  0  0  0  0  0  0  0  0  0
    3.3510    4.5460   17.2250 C   0  0  0  0  0  0  0  0  0  0  0  0
    2.3900    3.3550   17.3560 C   0  0  0  0  0  0  0  0  0  0  0  0
    2.2190    3.2770   18.8400 C   0  0  0  0  0  0  0  0  0  0  0  0
    1.7080    2.2280   19.5870 C   0  0  0  0  0  0  0  0  0  0  0  0
    1.6030    2.3910   20.9700 C   0  0  0  0  0  0  0  0  0  0  0  0
    1.9960    3.5910   21.5830 C   0  0  0  0  0  0  0  0  0  0  0  0
    2.4990    4.6460   20.8210 C   0  0  0  0  0  0  0  0  0  0  0  0
    2.6110    4.4750   19.4500 C   0  0  0  0  0  0  0  0  0  0  0  0
    4.0170    5.9600   18.7460 H   0  0  0  0  0  0  0  0  0  0  0  0
    4.3810    4.1690   17.2860 H   0  0  0  0  0  0  0  0  0  0  0  0
    3.2500    5.0530   16.2590 H   0  0  0  0  0  0  0  0  0  0  0  0
    2.8250    2.4440   16.9350 H   0  0  0  0  0  0  0  0  0  0  0  0
    1.4280    3.5670   16.8780 H   0  0  0  0  0  0  0  0  0  0  0  0
    1.3930    1.3040   19.1150 H   0  0  0  0  0  0  0  0  0  0  0  0
    1.2080    1.5820   21.5790 H   0  0  0  0  0  0  0  0  0  0  0  0
    1.9000    3.7030   22.6610 H   0  0  0  0  0  0  0  0  0  0  0  0
    2.7920    5.5830   21.2890 H   0  0  0  0  0  0  0  0  0  0  0  0
  1  2  1  0  0  0  0
  1 14  1  0  0  0  0
  2  7  1  0  0  0  0
  3  8  1  0  0  0  0
  3  2  2  0  0  0  0
  4  3  1  0  0  0  0
  5  4  2  0  0  0  0
  5  6  1  0  0  0  0
  6  1  2  0  0  0  0
  9  6  1  0  0  0  0
 10 20  1  0  0  0  0
 10 11  1  0  0  0  0
 11 16  1  0  0  0  0
 12 11  2  0  0  0  0
 12 17  1  0  0  0  0
 13 12  1  0  0  0  0
 14 15  1  0  0  0  0
 14 13  2  0  0  0  0
 15 10  2  0  0  0  0
 18 13  1  0  0  0  0
 19 15  1  0  0  0  0
 20 21  1  0  0  0  0
 21 24  1  0  0  0  0
 21 23  1  0  0  0  0
 22 21  1  0  0  0  0
 25  5  1  0  0  0  0
 26 28  1  0  0  0  0
 26 25  1  0  0  0  0
 27 25  2  0  0  0  0
 29 26  1  0  0  0  0
 30 31  1  0  0  0  0
 30 33  1  0  0  0  0
 30  4  1  0  0  0  0
 32 30  1  0  0  0  0
 33 34  1  0  0  0  0
 34 36  1  0  0  0  0
 34 35  2  0  0  0  0
 36 39  1  0  0  0  0
 36 38  1  0  0  0  0
 37 33  1  0  0  0  0
 39 48  1  1  0  0  0
 39 47  1  0  0  0  0
 40 49  1  0  0  0  0
 40 41  1  0  0  0  0
 40 39  1  0  0  0  0
 41 42  1  0  0  0  0
 42 47  2  0  0  0  0
 42 43  1  0  0  0  0
 43 44  2  0  0  0  0
 44 54  1  0  0  0  0
 44 45  1  0  0  0  0
 45 55  1  0  0  0  0
 46 56  1  0  0  0  0
 46 45  2  0  0  0  0
 47 46  1  0  0  0  0
 50 40  1  0  0  0  0
 51 41  1  0  0  0  0
 52 41  1  0  0  0  0
 53 43  1  0  0  0  0
M  END
>  <MODEL>
2

>  <REMARK>
 VINA RESULT:    -8.335      2.486      3.791
 INTER + INTRA:         -11.761
 INTER:                 -10.738
 INTRA:                  -1.023
 UNBOUND:                -0.259
  Name = 
  7 active torsions:
  status: ('A' for Active; 'I' for Inactive)
    1  A    between atoms: C_1  and  O_2
    2  A    between atoms: O_2  and  C_3
    3  A    between atoms: C_7  and  C_8
    4  A    between atoms: C_11  and  C_12
    5  A    between atoms: C_12  and  N_13
    6  A    between atoms: N_16  and  C_17
    7  A    between atoms: C_26  and  C_27
                            x       y       z     vdW  Elec       q    Type
                         _______ _______ _______ _____ _____    ______ ____

>  <TORSDO>
F 7

$$$$
=
 OpenBabel07192307433D

 56 59  0  0  1  0  0  0  0  0999 V2000
    4.0150    5.7690   18.0230 C   0  0  0  0  0  0  0  0  0  0  0  0
    3.6780    7.1250   18.0500 C   0  0  0  0  0  0  0  0  0  0  0  0
    2.7210    7.6090   18.9460 C   0  0  0  0  0  0  0  0  0  0  0  0
    2.0730    6.7540   19.8570 C   0  0  0  0  0  0  0  0  0  0  0  0
    2.4270    5.3910   19.8570 C   0  0  0  0  0  0  0  0  0  0  0  0
    3.3780    4.9120   18.9340 C   0  0  0  0  0  0  0  0  0  0  0  0
    4.1640    7.8250   17.3730 H   0  0  0  0  0  0  0  0  0  0  0  0
    2.4910    8.6740   18.9380 H   0  0  0  0  0  0  0  0  0  0  0  0
    3.6080    3.8490   18.8940 H   0  0  0  0  0  0  0  0  0  0  0  0
    5.5580    4.3810   14.8530 C   0  0  0  0  0  0  0  0  0  0  0  0
    6.8950    4.2710   15.2370 C   0  0  0  0  0  0  0  0  0  0  0  0
    7.2980    4.6460   16.5180 C   0  0  0  0  0  0  0  0  0  0  0  0
    6.3590    5.1330   17.4260 C   0  0  0  0  0  0  0  0  0  0  0  0
    5.0070    5.2540   17.0660 C   0  0  0  0  0  0  0  0  0  0  0  0
    4.6220    4.8710   15.7670 C   0  0  0  0  0  0  0  0  0  0  0  0
    7.6300    3.8920   14.5300 H   0  0  0  0  0  0  0  0  0  0  0  0
    8.3430    4.5620   16.8050 H   0  0  0  0  0  0  0  0  0  0  0  0
    6.6920    5.4360   18.4160 H   0  0  0  0  0  0  0  0  0  0  0  0
    3.5740    4.9580   15.4950 H   0  0  0  0  0  0  0  0  0  0  0  0
    5.2990    3.9800   13.5710 O   0  0  0  0  0  0  0  0  0  0  0  0
    6.4090    3.5530   12.7920 C   0  0  0  0  0  0  0  0  0  0  0  0
    6.7430    2.5550   13.0940 H   0  0  0  0  0  0  0  0  0  0  0  0
    6.0820    3.4920   11.7490 H   0  0  0  0  0  0  0  0  0  0  0  0
    7.2280    4.2770   12.8430 H   0  0  0  0  0  0  0  0  0  0  0  0
    1.8120    4.4200   20.8130 C   0  0  0  0  0  0  0  0  0  0  0  0
    0.6450    3.8210   20.4220 N   0  0  0  0  0  0  0  0  0  0  0  0
    2.3290    4.1150   21.8790 O   0  0  0  0  0  0  0  0  0  0  0  0
    0.3410    3.8230   19.4580 H   0  0  0  0  0  0  0  0  0  0  0  0
    0.3010    3.0760   21.0150 H   0  0  0  0  0  0  0  0  0  0  0  0
    1.0200    7.3560   20.7620 C   0  0  0  0  0  0  0  0  0  0  0  0
    1.0200    6.8320   21.7240 H   0  0  0  0  0  0  0  0  0  0  0  0
    0.0190    7.2240   20.3320 H   0  0  0  0  0  0  0  0  0  0  0  0
    1.2080    8.7630   21.0150 N   0  0  0  0  0  0  0  0  0  0  0  0
    0.4140    9.7130   20.4380 C   0  0  0  0  0  0  0  0  0  0  0  0
   -0.5550    9.4680   19.7340 O   0  0  0  0  0  0  0  0  0  0  0  0
    0.8510   10.9750   20.7490 N   0  0  0  0  0  0  0  0  0  0  0  0
    2.1450    9.0290   21.2910 H   0  0  0  0  0  0  0  0  0  0  0  0
    1.2940   11.0340   21.6540 H   0  0  0  0  0  0  0  0  0  0  0  0
    0.0700   12.1320   20.3580 C   0  0  2  0  0  0  0  0  0  0  0  0
    0.9630   13.3680   20.1300 C   0  0  0  0  0  0  0  0  0  0  0  0
    1.0790   14.0930   21.4800 C   0  0  0  0  0  0  0  0  0  0  0  0
   -0.2190   13.7250   22.1240 C   0  0  0  0  0  0  0  0  0  0  0  0
   -0.8240   14.3110   23.2240 C   0  0  0  0  0  0  0  0  0  0  0  0
   -2.0280   13.7720   23.6820 C   0  0  0  0  0  0  0  0  0  0  0  0
   -2.6020   12.6580   23.0500 C   0  0  0  0  0  0  0  0  0  0  0  0
   -1.9800   12.0660   21.9500 C   0  0  0  0  0  0  0  0  0  0  0  0
   -0.7900   12.6120   21.4930 C   0  0  0  0  0  0  0  0  0  0  0  0
   -0.5220   11.9180   19.4620 H   0  0  0  0  0  0  0  0  0  0  0  0
    0.4620   14.0390   19.4190 H   0  0  0  0  0  0  0  0  0  0  0  0
    1.9440   13.1250   19.7080 H   0  0  0  0  0  0  0  0  0  0  0  0
    1.1890   15.1720   21.3450 H   0  0  0  0  0  0  0  0  0  0  0  0
    1.9160   13.7020   22.0690 H   0  0  0  0  0  0  0  0  0  0  0  0
   -0.3770   15.1650   23.7210 H   0  0  0  0  0  0  0  0  0  0  0  0
   -2.5250   14.2160   24.5420 H   0  0  0  0  0  0  0  0  0  0  0  0
   -3.5370   12.2470   23.4250 H   0  0  0  0  0  0  0  0  0  0  0  0
   -2.4130   11.1950   21.4650 H   0  0  0  0  0  0  0  0  0  0  0  0
  1  2  2  0  0  0  0
  1  6  1  0  0  0  0
  2  3  1  0  0  0  0
  3  4  2  0  0  0  0
  4  5  1  0  0  0  0
  4 30  1  0  0  0  0
  5 25  1  0  0  0  0
  6  5  2  0  0  0  0
  7  2  1  0  0  0  0
  8  3  1  0  0  0  0
  9  6  1  0  0  0  0
 10 11  2  0  0  0  0
 10 15  1  0  0  0  0
 11 12  1  0  0  0  0
 12 17  1  0  0  0  0
 12 13  2  0  0  0  0
 13 18  1  0  0  0  0
 14 13  1  0  0  0  0
 14  1  1  0  0  0  0
 15 14  2  0  0  0  0
 16 11  1  0  0  0  0
 19 15  1  0  0  0  0
 20 10  1  0  0  0  0
 21 24  1  0  0  0  0
 21 22  1  0  0  0  0
 21 20  1  0  0  0  0
 23 21  1  0  0  0  0
 25 27  2  0  0  0  0
 26 25  1  0  0  0  0
 26 29  1  0  0  0  0
 28 26  1  0  0  0  0
 30 33  1  0  0  0  0
 30 31  1  0  0  0  0
 32 30  1  0  0  0  0
 33 37  1  0  0  0  0
 34 36  1  0  0  0  0
 34 33  1  0  0  0  0
 35 34  2  0  0  0  0
 36 38  1  0  0  0  0
 39 48  1  6  0  0  0
 39 36  1  0  0  0  0
 39 47  1  0  0  0  0
 40 39  1  0  0  0  0
 40 41  1  0  0  0  0
 41 52  1  0  0  0  0
 41 42  1  0  0  0  0
 42 43  1  0  0  0  0
 43 44  2  0  0  0  0
 43 53  1  0  0  0  0
 44 54  1  0  0  0  0
 45 55  1  0  0  0  0
 45 44  1  0  0  0  0
 46 45  2  0  0  0  0
 47 46  1  0  0  0  0
 47 42  2  0  0  0  0
 49 40  1  0  0  0  0
 50 40  1  0  0  0  0
 51 41  1  0  0  0  0
 56 46  1  0  0  0  0
M  END
>  <MODEL>
3

>  <REMARK>
 VINA RESULT:    -8.081      2.178     10.447
 INTER + INTRA:         -11.411
 INTER:                 -10.489
 INTRA:                  -0.922
 UNBOUND:                -0.259
  Name = 
  7 active torsions:
  status: ('A' for Active; 'I' for Inactive)
    1  A    between atoms: C_1  and  O_2
    2  A    between atoms: O_2  and  C_3
    3  A    between atoms: C_7  and  C_8
    4  A    between atoms: C_11  and  C_12
    5  A    between atoms: C_12  and  N_13
    6  A    between atoms: N_16  and  C_17
    7  A    between atoms: C_26  and  C_27
                            x       y       z     vdW  Elec       q    Type
                         _______ _______ _______ _____ _____    ______ ____

>  <TORSDO>
F 7

$$$$
=
 OpenBabel07192307433D

 56 59  0  0  1  0  0  0  0  0999 V2000
    4.0210    5.4920   18.0920 C   0  0  0  0  0  0  0  0  0  0  0  0
    3.6810    6.8440   18.1920 C   0  0  0  0  0  0  0  0  0  0  0  0
    2.7420    7.2800   19.1300 C   0  0  0  0  0  0  0  0  0  0  0  0
    2.1150    6.3800   20.0120 C   0  0  0  0  0  0  0  0  0  0  0  0
    2.4720    5.0190   19.9380 C   0  0  0  0  0  0  0  0  0  0  0  0
    3.4050    4.5890   18.9730 C   0  0  0  0  0  0  0  0  0  0  0  0
    4.1510    7.5780   17.5400 H   0  0  0  0  0  0  0  0  0  0  0  0
    2.5090    8.3440   19.1790 H   0  0  0  0  0  0  0  0  0  0  0  0
    3.6370    3.5310   18.8760 H   0  0  0  0  0  0  0  0  0  0  0  0
    5.5080    4.3040   14.8150 C   0  0  0  0  0  0  0  0  0  0  0  0
    6.8460    4.1420   15.1770 C   0  0  0  0  0  0  0  0  0  0  0  0
    7.2680    4.4170   16.4770 C   0  0  0  0  0  0  0  0  0  0  0  0
    6.3460    4.8550   17.4270 C   0  0  0  0  0  0  0  0  0  0  0  0
    4.9940    5.0280   17.0900 C   0  0  0  0  0  0  0  0  0  0  0  0
    4.5890    4.7450   15.7710 C   0  0  0  0  0  0  0  0  0  0  0  0
    7.5670    3.8000   14.4370 H   0  0  0  0  0  0  0  0  0  0  0  0
    8.3130    4.2920   16.7460 H   0  0  0  0  0  0  0  0  0  0  0  0
    6.6940    5.0810   18.4320 H   0  0  0  0  0  0  0  0  0  0  0  0
    3.5410    4.8710   15.5170 H   0  0  0  0  0  0  0  0  0  0  0  0
    5.2300    4.0010   13.5110 O   0  0  0  0  0  0  0  0  0  0  0  0
    6.3270    3.6290   12.6870 C   0  0  0  0  0  0  0  0  0  0  0  0
    6.4720    4.3480   11.8740 H   0  0  0  0  0  0  0  0  0  0  0  0
    7.2290    3.6410   13.3060 H   0  0  0  0  0  0  0  0  0  0  0  0
    6.2020    2.6130   12.2990 H   0  0  0  0  0  0  0  0  0  0  0  0
    1.8800    4.0010   20.8580 C   0  0  0  0  0  0  0  0  0  0  0  0
    0.7400    3.3720   20.4340 N   0  0  0  0  0  0  0  0  0  0  0  0
    2.3940    3.6840   21.9220 O   0  0  0  0  0  0  0  0  0  0  0  0
    0.4490    3.3910   19.4670 H   0  0  0  0  0  0  0  0  0  0  0  0
    0.4160    2.6000   21.0020 H   0  0  0  0  0  0  0  0  0  0  0  0
    1.0800    6.9330   20.9670 C   0  0  0  0  0  0  0  0  0  0  0  0
    1.5160    7.0270   21.9670 H   0  0  0  0  0  0  0  0  0  0  0  0
    0.2310    6.2440   21.0570 H   0  0  0  0  0  0  0  0  0  0  0  0
    0.5610    8.2210   20.5780 N   0  0  0  0  0  0  0  0  0  0  0  0
    0.5590    9.2870   21.4320 C   0  0  0  0  0  0  0  0  0  0  0  0
    1.0560    9.2760   22.5500 O   0  0  0  0  0  0  0  0  0  0  0  0
   -0.0740   10.3660   20.8720 N   0  0  0  0  0  0  0  0  0  0  0  0
   -0.1330    8.2000   19.8410 H   0  0  0  0  0  0  0  0  0  0  0  0
    0.0120   10.4040   19.8670 H   0  0  0  0  0  0  0  0  0  0  0  0
   -0.0660   11.6470   21.5490 C   0  0  2  0  0  0  0  0  0  0  0  0
   -1.4950   12.1750   21.7840 C   0  0  0  0  0  0  0  0  0  0  0  0
   -1.8770   13.0030   20.5470 C   0  0  0  0  0  0  0  0  0  0  0  0
   -0.5380   13.4930   20.0970 C   0  0  0  0  0  0  0  0  0  0  0  0
   -0.2580   14.5210   19.2120 C   0  0  0  0  0  0  0  0  0  0  0  0
    1.0790   14.7830   18.9030 C   0  0  0  0  0  0  0  0  0  0  0  0
    2.1090   14.0140   19.4670 C   0  0  0  0  0  0  0  0  0  0  0  0
    1.8170   12.9720   20.3490 C   0  0  0  0  0  0  0  0  0  0  0  0
    0.4890   12.7250   20.6600 C   0  0  0  0  0  0  0  0  0  0  0  0
    0.4780   11.5840   22.4980 H   0  0  0  0  0  0  0  0  0  0  0  0
   -1.4870   12.8410   22.6570 H   0  0  0  0  0  0  0  0  0  0  0  0
   -2.2230   11.3820   21.9900 H   0  0  0  0  0  0  0  0  0  0  0  0
   -2.5560   13.8180   20.8080 H   0  0  0  0  0  0  0  0  0  0  0  0
   -2.3270   12.3730   19.7720 H   0  0  0  0  0  0  0  0  0  0  0  0
   -1.0520   15.1100   18.7660 H   0  0  0  0  0  0  0  0  0  0  0  0
    1.3250   15.5870   18.2140 H   0  0  0  0  0  0  0  0  0  0  0  0
    3.1440   14.2280   19.2100 H   0  0  0  0  0  0  0  0  0  0  0  0
    2.6100   12.3650   20.7780 H   0  0  0  0  0  0  0  0  0  0  0  0
  1  2  2  0  0  0  0
  1  6  1  0  0  0  0
  2  3  1  0  0  0  0
  3  8  1  0  0  0  0
  3  4  2  0  0  0  0
  4 30  1  0  0  0  0
  5  4  1  0  0  0  0
  5 25  1  0  0  0  0
  6  5  2  0  0  0  0
  7  2  1  0  0  0  0
  9  6  1  0  0  0  0
 10 11  2  0  0  0  0
 10 15  1  0  0  0  0
 11 12  1  0  0  0  0
 12 17  1  0  0  0  0
 12 13  2  0  0  0  0
 13 18  1  0  0  0  0
 14 13  1  0  0  0  0
 14  1  1  0  0  0  0
 15 14  2  0  0  0  0
 16 11  1  0  0  0  0
 19 15  1  0  0  0  0
 20 10  1  0  0  0  0
 21 23  1  0  0  0  0
 21 20  1  0  0  0  0
 22 21  1  0  0  0  0
 24 21  1  0  0  0  0
 25 27  2  0  0  0  0
 26 25  1  0  0  0  0
 26 29  1  0  0  0  0
 28 26  1  0  0  0  0
 30 32  1  0  0  0  0
 30 31  1  0  0  0  0
 33 30  1  0  0  0  0
 33 34  1  0  0  0  0
 34 35  2  0  0  0  0
 36 34  1  0  0  0  0
 36 39  1  0  0  0  0
 37 33  1  0  0  0  0
 38 36  1  0  0  0  0
 39 40  1  0  0  0  0
 39 48  1  1  0  0  0
 40 50  1  0  0  0  0
 40 49  1  0  0  0  0
 41 51  1  0  0  0  0
 41 40  1  0  0  0  0
 42 41  1  0  0  0  0
 42 47  1  0  0  0  0
 43 42  2  0  0  0  0
 44 43  1  0  0  0  0
 44 45  2  0  0  0  0
 45 46  1  0  0  0  0
 46 47  2  0  0  0  0
 46 56  1  0  0  0  0
 47 39  1  0  0  0  0
 52 41  1  0  0  0  0
 53 43  1  0  0  0  0
 54 44  1  0  0  0  0
 55 45  1  0  0  0  0
M  END
>  <MODEL>
4

>  <REMARK>
 VINA RESULT:    -8.077      2.497     10.164
 INTER + INTRA:         -11.405
 INTER:                 -10.421
 INTRA:                  -0.984
 UNBOUND:                -0.259
  Name = 
  7 active torsions:
  status: ('A' for Active; 'I' for Inactive)
    1  A    between atoms: C_1  and  O_2
    2  A    between atoms: O_2  and  C_3
    3  A    between atoms: C_7  and  C_8
    4  A    between atoms: C_11  and  C_12
    5  A    between atoms: C_12  and  N_13
    6  A    between atoms: N_16  and  C_17
    7  A    between atoms: C_26  and  C_27
                            x       y       z     vdW  Elec       q    Type
                         _______ _______ _______ _____ _____    ______ ____

>  <TORSDO>
F 7

$$$$
=
 OpenBabel07192307433D

 56 59  0  0  1  0  0  0  0  0999 V2000
   -0.4140   12.0070   20.9160 C   0  0  0  0  0  0  0  0  0  0  0  0
   -0.6530   10.6670   20.5960 C   0  0  0  0  0  0  0  0  0  0  0  0
    0.0790   10.0270   19.5940 C   0  0  0  0  0  0  0  0  0  0  0  0
    1.0860   10.7010   18.8780 C   0  0  0  0  0  0  0  0  0  0  0  0
    1.3540   12.0430   19.2120 C   0  0  0  0  0  0  0  0  0  0  0  0
    0.5940   12.6840   20.2120 C   0  0  0  0  0  0  0  0  0  0  0  0
   -1.4140   10.1020   21.1330 H   0  0  0  0  0  0  0  0  0  0  0  0
   -0.1360    8.9800   19.3790 H   0  0  0  0  0  0  0  0  0  0  0  0
    0.7600   13.7360   20.4290 H   0  0  0  0  0  0  0  0  0  0  0  0
   -3.2810   12.9540   23.2060 C   0  0  0  0  0  0  0  0  0  0  0  0
   -2.6990   13.9860   23.9430 C   0  0  0  0  0  0  0  0  0  0  0  0
   -1.3820   14.3750   23.7010 C   0  0  0  0  0  0  0  0  0  0  0  0
   -0.6390   13.7300   22.7140 C   0  0  0  0  0  0  0  0  0  0  0  0
   -1.1990   12.6880   21.9580 C   0  0  0  0  0  0  0  0  0  0  0  0
   -2.5300   12.3100   22.2190 C   0  0  0  0  0  0  0  0  0  0  0  0
   -3.2770   14.4900   24.7150 H   0  0  0  0  0  0  0  0  0  0  0  0
   -0.9370   15.1770   24.2850 H   0  0  0  0  0  0  0  0  0  0  0  0
    0.3920   14.0350   22.5480 H   0  0  0  0  0  0  0  0  0  0  0  0
   -2.9620   11.5100   21.6260 H   0  0  0  0  0  0  0  0  0  0  0  0
   -4.5760   12.6720   23.5450 O   0  0  0  0  0  0  0  0  0  0  0  0
   -4.8230   12.3000   24.8940 C   0  0  0  0  0  0  0  0  0  0  0  0
   -5.4230   11.3840   24.9470 H   0  0  0  0  0  0  0  0  0  0  0  0
   -3.8580   12.0930   25.3660 H   0  0  0  0  0  0  0  0  0  0  0  0
   -5.2970   13.1160   25.4480 H   0  0  0  0  0  0  0  0  0  0  0  0
    2.4280   12.8240   18.5260 C   0  0  0  0  0  0  0  0  0  0  0  0
    2.3510   12.9160   17.1630 N   0  0  0  0  0  0  0  0  0  0  0  0
    3.3180   13.4080   19.1300 O   0  0  0  0  0  0  0  0  0  0  0  0
    1.5010   12.7010   16.6600 H   0  0  0  0  0  0  0  0  0  0  0  0
    3.0070   13.5460   16.7180 H   0  0  0  0  0  0  0  0  0  0  0  0
    1.7990    9.9430   17.7800 C   0  0  0  0  0  0  0  0  0  0  0  0
    2.8710   10.1650   17.8170 H   0  0  0  0  0  0  0  0  0  0  0  0
    1.4450   10.2680   16.7940 H   0  0  0  0  0  0  0  0  0  0  0  0
    1.6320    8.5130   17.8590 N   0  0  0  0  0  0  0  0  0  0  0  0
    2.6910    7.6710   18.0490 C   0  0  0  0  0  0  0  0  0  0  0  0
    3.8400    8.0410   18.2460 O   0  0  0  0  0  0  0  0  0  0  0  0
    2.2950    6.3600   17.9870 N   0  0  0  0  0  0  0  0  0  0  0  0
    0.8130    8.1490   17.3870 H   0  0  0  0  0  0  0  0  0  0  0  0
    1.3480    6.2120   18.3030 H   0  0  0  0  0  0  0  0  0  0  0  0
    3.2320    5.3010   18.3030 C   0  0  2  0  0  0  0  0  0  0  0  0
    3.3880    4.3120   17.1310 C   0  0  0  0  0  0  0  0  0  0  0  0
    2.3240    3.2190   17.3220 C   0  0  0  0  0  0  0  0  0  0  0  0
    2.1720    3.2130   18.8090 C   0  0  0  0  0  0  0  0  0  0  0  0
    1.5800    2.2450   19.6030 C   0  0  0  0  0  0  0  0  0  0  0  0
    1.5130    2.4690   20.9800 C   0  0  0  0  0  0  0  0  0  0  0  0
    2.0250    3.6500   21.5410 C   0  0  0  0  0  0  0  0  0  0  0  0
    2.6100    4.6250   20.7320 C   0  0  0  0  0  0  0  0  0  0  0  0
    2.6820    4.3920   19.3670 C   0  0  0  0  0  0  0  0  0  0  0  0
    4.2060    5.7140   18.5870 H   0  0  0  0  0  0  0  0  0  0  0  0
    4.3800    3.8440   17.1940 H   0  0  0  0  0  0  0  0  0  0  0  0
    3.3180    4.7880   16.1470 H   0  0  0  0  0  0  0  0  0  0  0  0
    2.6670    2.2580   16.9310 H   0  0  0  0  0  0  0  0  0  0  0  0
    1.3780    3.5010   16.8480 H   0  0  0  0  0  0  0  0  0  0  0  0
    1.1740    1.3360   19.1720 H   0  0  0  0  0  0  0  0  0  0  0  0
    1.0560    1.7230   21.6260 H   0  0  0  0  0  0  0  0  0  0  0  0
    1.9580    3.8100   22.6150 H   0  0  0  0  0  0  0  0  0  0  0  0
    2.9950    5.5470   21.1590 H   0  0  0  0  0  0  0  0  0  0  0  0
  1 14  1  0  0  0  0
  2  1  1  0  0  0  0
  2  7  1  0  0  0  0
  3  2  2  0  0  0  0
  4  5  2  0  0  0  0
  4  3  1  0  0  0  0
  5  6  1  0  0  0  0
  6  9  1  0  0  0  0
  6  1  2  0  0  0  0
  8  3  1  0  0  0  0
 10 20  1  0  0  0  0
 10 11  1  0  0  0  0
 11 16  1  0  0  0  0
 12 11  2  0  0  0  0
 12 17  1  0  0  0  0
 13 12  1  0  0  0  0
 14 15  1  0  0  0  0
 14 13  2  0  0  0  0
 15 10  2  0  0  0  0
 18 13  1  0  0  0  0
 19 15  1  0  0  0  0
 20 21  1  0  0  0  0
 21 22  1  0  0  0  0
 21 23  1  0  0  0  0
 21 24  1  0  0  0  0
 25 27  2  0  0  0  0
 25  5  1  0  0  0  0
 26 25  1  0  0  0  0
 28 26  1  0  0  0  0
 29 26  1  0  0  0  0
 30 31  1  0  0  0  0
 30 33  1  0  0  0  0
 30  4  1  0  0  0  0
 32 30  1  0  0  0  0
 33 34  1  0  0  0  0
 34 35  2  0  0  0  0
 36 34  1  0  0  0  0
 36 39  1  0  0  0  0
 36 38  1  0  0  0  0
 37 33  1  0  0  0  0
 39 48  1  1  0  0  0
 39 47  1  0  0  0  0
 40 49  1  0  0  0  0
 40 41  1  0  0  0  0
 40 39  1  0  0  0  0
 41 42  1  0  0  0  0
 42 47  2  0  0  0  0
 42 43  1  0  0  0  0
 43 44  2  0  0  0  0
 44 45  1  0  0  0  0
 44 54  1  0  0  0  0
 45 55  1  0  0  0  0
 46 56  1  0  0  0  0
 46 45  2  0  0  0  0
 47 46  1  0  0  0  0
 50 40  1  0  0  0  0
 51 41  1  0  0  0  0
 52 41  1  0  0  0  0
 53 43  1  0  0  0  0
M  END
>  <MODEL>
5

>  <REMARK>
 VINA RESULT:    -8.000      2.382      3.777
 INTER + INTRA:         -11.298
 INTER:                 -10.642
 INTRA:                  -0.656
 UNBOUND:                -0.259
  Name = 
  7 active torsions:
  status: ('A' for Active; 'I' for Inactive)
    1  A    between atoms: C_1  and  O_2
    2  A    between atoms: O_2  and  C_3
    3  A    between atoms: C_7  and  C_8
    4  A    between atoms: C_11  and  C_12
    5  A    between atoms: C_12  and  N_13
    6  A    between atoms: N_16  and  C_17
    7  A    between atoms: C_26  and  C_27
                            x       y       z     vdW  Elec       q    Type
                         _______ _______ _______ _____ _____    ______ ____

>  <TORSDO>
F 7

$$$$
=
 OpenBabel07192307433D

 56 59  0  0  1  0  0  0  0  0999 V2000
   -0.9520   12.0270   20.9180 C   0  0  0  0  0  0  0  0  0  0  0  0
    0.4010   11.7040   21.0550 C   0  0  0  0  0  0  0  0  0  0  0  0
    1.0910   11.0540   20.0290 C   0  0  0  0  0  0  0  0  0  0  0  0
    0.4550   10.7110   18.8210 C   0  0  0  0  0  0  0  0  0  0  0  0
   -0.9010   11.0580   18.6620 C   0  0  0  0  0  0  0  0  0  0  0  0
   -1.5910   11.6950   19.7130 C   0  0  0  0  0  0  0  0  0  0  0  0
    0.9370   11.9620   21.9670 H   0  0  0  0  0  0  0  0  0  0  0  0
    2.1470   10.8250   20.1750 H   0  0  0  0  0  0  0  0  0  0  0  0
   -2.6530   11.9100   19.6130 H   0  0  0  0  0  0  0  0  0  0  0  0
   -1.7480   14.3000   23.8440 C   0  0  0  0  0  0  0  0  0  0  0  0
   -3.0810   13.9650   24.0820 C   0  0  0  0  0  0  0  0  0  0  0  0
   -3.7230   13.0070   23.2980 C   0  0  0  0  0  0  0  0  0  0  0  0
   -3.0280   12.3750   22.2680 C   0  0  0  0  0  0  0  0  0  0  0  0
   -1.6860   12.6930   22.0050 C   0  0  0  0  0  0  0  0  0  0  0  0
   -1.0570   13.6640   22.8090 C   0  0  0  0  0  0  0  0  0  0  0  0
   -3.6260   14.4580   24.8850 H   0  0  0  0  0  0  0  0  0  0  0  0
   -4.7640   12.7580   23.4890 H   0  0  0  0  0  0  0  0  0  0  0  0
   -3.5480   11.6420   21.6550 H   0  0  0  0  0  0  0  0  0  0  0  0
   -0.0170   13.9010   22.6080 H   0  0  0  0  0  0  0  0  0  0  0  0
   -1.2410   15.2530   24.6830 O   0  0  0  0  0  0  0  0  0  0  0  0
   -1.7350   15.2670   26.0160 C   0  0  0  0  0  0  0  0  0  0  0  0
   -2.8290   15.2180   26.0320 H   0  0  0  0  0  0  0  0  0  0  0  0
   -1.3550   14.3750   26.5230 H   0  0  0  0  0  0  0  0  0  0  0  0
   -1.3700   16.1420   26.5630 H   0  0  0  0  0  0  0  0  0  0  0  0
   -1.6440   10.7610   17.4000 C   0  0  0  0  0  0  0  0  0  0  0  0
   -2.1140   11.8340   16.6910 N   0  0  0  0  0  0  0  0  0  0  0  0
   -1.7970    9.6270   16.9660 O   0  0  0  0  0  0  0  0  0  0  0  0
   -1.7730   12.7710   16.8530 H   0  0  0  0  0  0  0  0  0  0  0  0
   -2.5050   11.6330   15.7800 H   0  0  0  0  0  0  0  0  0  0  0  0
    1.2680    9.9710   17.7810 C   0  0  0  0  0  0  0  0  0  0  0  0
    2.3160   10.2820   17.8450 H   0  0  0  0  0  0  0  0  0  0  0  0
    0.9250   10.2250   16.7710 H   0  0  0  0  0  0  0  0  0  0  0  0
    1.2140    8.5360   17.9170 N   0  0  0  0  0  0  0  0  0  0  0  0
    2.3400    7.7840   18.0910 C   0  0  0  0  0  0  0  0  0  0  0  0
    3.4650    8.2460   18.2260 O   0  0  0  0  0  0  0  0  0  0  0  0
    2.0430    6.4450   18.0900 N   0  0  0  0  0  0  0  0  0  0  0  0
    0.4070    8.0950   17.4930 H   0  0  0  0  0  0  0  0  0  0  0  0
    1.1240    6.2390   18.4510 H   0  0  0  0  0  0  0  0  0  0  0  0
    3.0710    5.4720   18.4030 C   0  0  2  0  0  0  0  0  0  0  0  0
    3.3500    4.5380   17.2090 C   0  0  0  0  0  0  0  0  0  0  0  0
    2.3920    3.3430   17.3400 C   0  0  0  0  0  0  0  0  0  0  0  0
    2.2060    3.2780   18.8220 C   0  0  0  0  0  0  0  0  0  0  0  0
    1.6900    2.2340   19.5730 C   0  0  0  0  0  0  0  0  0  0  0  0
    1.5690    2.4090   20.9540 C   0  0  0  0  0  0  0  0  0  0  0  0
    1.9510    3.6170   21.5600 C   0  0  0  0  0  0  0  0  0  0  0  0
    2.4580    4.6670   20.7940 C   0  0  0  0  0  0  0  0  0  0  0  0
    2.5850    4.4830   19.4260 C   0  0  0  0  0  0  0  0  0  0  0  0
    3.9940    5.9680   18.7230 H   0  0  0  0  0  0  0  0  0  0  0  0
    4.3810    4.1650   17.2850 H   0  0  0  0  0  0  0  0  0  0  0  0
    3.2580    5.0340   16.2370 H   0  0  0  0  0  0  0  0  0  0  0  0
    2.8360    2.4310   16.9330 H   0  0  0  0  0  0  0  0  0  0  0  0
    1.4350    3.5470   16.8490 H   0  0  0  0  0  0  0  0  0  0  0  0
    1.3850    1.3040   19.1060 H   0  0  0  0  0  0  0  0  0  0  0  0
    1.1710    1.6040   21.5660 H   0  0  0  0  0  0  0  0  0  0  0  0
    1.8430    3.7380   22.6360 H   0  0  0  0  0  0  0  0  0  0  0  0
    2.7420    5.6090   21.2570 H   0  0  0  0  0  0  0  0  0  0  0  0
  1  2  1  0  0  0  0
  1 14  1  0  0  0  0
  2  7  1  0  0  0  0
  3  8  1  0  0  0  0
  3  2  2  0  0  0  0
  4  3  1  0  0  0  0
  5  4  2  0  0  0  0
  5  6  1  0  0  0  0
  6  1  2  0  0  0  0
  9  6  1  0  0  0  0
 10 11  1  0  0  0  0
 10 20  1  0  0  0  0
 11 16  1  0  0  0  0
 12 17  1  0  0  0  0
 12 11  2  0  0  0  0
 13 12  1  0  0  0  0
 14 13  2  0  0  0  0
 14 15  1  0  0  0  0
 15 10  2  0  0  0  0
 18 13  1  0  0  0  0
 19 15  1  0  0  0  0
 20 21  1  0  0  0  0
 21 22  1  0  0  0  0
 21 23  1  0  0  0  0
 21 24  1  0  0  0  0
 25  5  1  0  0  0  0
 26 28  1  0  0  0  0
 26 25  1  0  0  0  0
 27 25  2  0  0  0  0
 29 26  1  0  0  0  0
 30 31  1  0  0  0  0
 30 33  1  0  0  0  0
 30  4  1  0  0  0  0
 32 30  1  0  0  0  0
 33 34  1  0  0  0  0
 34 35  2  0  0  0  0
 36 34  1  0  0  0  0
 36 39  1  0  0  0  0
 36 38  1  0  0  0  0
 37 33  1  0  0  0  0
 39 48  1  1  0  0  0
 39 47  1  0  0  0  0
 40 49  1  0  0  0  0
 40 41  1  0  0  0  0
 40 39  1  0  0  0  0
 41 42  1  0  0  0  0
 42 47  2  0  0  0  0
 42 43  1  0  0  0  0
 43 44  2  0  0  0  0
 44 45  1  0  0  0  0
 44 54  1  0  0  0  0
 45 55  1  0  0  0  0
 46 56  1  0  0  0  0
 46 45  2  0  0  0  0
 47 46  1  0  0  0  0
 50 40  1  0  0  0  0
 51 41  1  0  0  0  0
 52 41  1  0  0  0  0
 53 43  1  0  0  0  0
M  END
>  <MODEL>
6

>  <REMARK>
 VINA RESULT:    -7.938      2.517      3.969
 INTER + INTRA:         -11.213
 INTER:                 -10.184
 INTRA:                  -1.028
 UNBOUND:                -0.259
  Name = 
  7 active torsions:
  status: ('A' for Active; 'I' for Inactive)
    1  A    between atoms: C_1  and  O_2
    2  A    between atoms: O_2  and  C_3
    3  A    between atoms: C_7  and  C_8
    4  A    between atoms: C_11  and  C_12
    5  A    between atoms: C_12  and  N_13
    6  A    between atoms: N_16  and  C_17
    7  A    between atoms: C_26  and  C_27
                            x       y       z     vdW  Elec       q    Type
                         _______ _______ _______ _____ _____    ______ ____

>  <TORSDO>
F 7

$$$$
=
 OpenBabel07192307433D

 56 59  0  0  1  0  0  0  0  0999 V2000
    2.3900    6.1460   18.9880 C   0  0  0  0  0  0  0  0  0  0  0  0
    2.0760    6.1120   20.3500 C   0  0  0  0  0  0  0  0  0  0  0  0
    1.6610    7.2660   21.0200 C   0  0  0  0  0  0  0  0  0  0  0  0
    1.5350    8.4970   20.3500 C   0  0  0  0  0  0  0  0  0  0  0  0
    1.8220    8.5360   18.9710 C   0  0  0  0  0  0  0  0  0  0  0  0
    2.2590    7.3690   18.3110 C   0  0  0  0  0  0  0  0  0  0  0  0
    2.1460    5.1790   20.9060 H   0  0  0  0  0  0  0  0  0  0  0  0
    1.4200    7.1940   22.0810 H   0  0  0  0  0  0  0  0  0  0  0  0
    2.5380    7.4120   17.2610 H   0  0  0  0  0  0  0  0  0  0  0  0
    4.5100    3.7850   16.9180 C   0  0  0  0  0  0  0  0  0  0  0  0
    3.7230    2.6330   16.9430 C   0  0  0  0  0  0  0  0  0  0  0  0
    2.5090    2.6190   17.6290 C   0  0  0  0  0  0  0  0  0  0  0  0
    2.0750    3.7650   18.2940 C   0  0  0  0  0  0  0  0  0  0  0  0
    2.8470    4.9370   18.2860 C   0  0  0  0  0  0  0  0  0  0  0  0
    4.0710    4.9300   17.5880 C   0  0  0  0  0  0  0  0  0  0  0  0
    4.0600    1.7380   16.4260 H   0  0  0  0  0  0  0  0  0  0  0  0
    1.9060    1.7150   17.6460 H   0  0  0  0  0  0  0  0  0  0  0  0
    1.1330    3.7330   18.8370 H   0  0  0  0  0  0  0  0  0  0  0  0
    4.6610    5.8410   17.5770 H   0  0  0  0  0  0  0  0  0  0  0  0
    5.6760    3.6630   16.2120 O   0  0  0  0  0  0  0  0  0  0  0  0
    5.7100    4.2510   14.9180 C   0  0  0  0  0  0  0  0  0  0  0  0
    5.4390    5.3110   14.9590 H   0  0  0  0  0  0  0  0  0  0  0  0
    6.7380    4.1850   14.5480 H   0  0  0  0  0  0  0  0  0  0  0  0
    5.0680    3.7040   14.2190 H   0  0  0  0  0  0  0  0  0  0  0  0
    1.6830    9.7930   18.1750 C   0  0  0  0  0  0  0  0  0  0  0  0
    0.4890    9.9920   17.5360 N   0  0  0  0  0  0  0  0  0  0  0  0
    2.5570   10.6480   18.1200 O   0  0  0  0  0  0  0  0  0  0  0  0
   -0.3400    9.4690   17.7800 H   0  0  0  0  0  0  0  0  0  0  0  0
    0.3570   10.8980   17.1030 H   0  0  0  0  0  0  0  0  0  0  0  0
    1.1200    9.7040   21.1630 C   0  0  0  0  0  0  0  0  0  0  0  0
    1.7300   10.5670   20.8750 H   0  0  0  0  0  0  0  0  0  0  0  0
    1.3030    9.5310   22.2310 H   0  0  0  0  0  0  0  0  0  0  0  0
   -0.2680   10.0600   21.0060 N   0  0  0  0  0  0  0  0  0  0  0  0
   -0.6540   11.1970   20.3560 C   0  0  0  0  0  0  0  0  0  0  0  0
    0.1150   11.9630   19.7900 O   0  0  0  0  0  0  0  0  0  0  0  0
   -2.0120   11.3690   20.4260 N   0  0  0  0  0  0  0  0  0  0  0  0
   -0.8920    9.6760   21.7050 H   0  0  0  0  0  0  0  0  0  0  0  0
   -2.5240   10.5000   20.4660 H   0  0  0  0  0  0  0  0  0  0  0  0
   -2.6500   12.4360   19.6820 C   0  0  2  0  0  0  0  0  0  0  0  0
   -3.9870   12.8560   20.3250 C   0  0  0  0  0  0  0  0  0  0  0  0
   -5.0810   11.9750   19.7030 C   0  0  0  0  0  0  0  0  0  0  0  0
   -4.5010   11.6950   18.3530 C   0  0  0  0  0  0  0  0  0  0  0  0
   -5.1460   11.2020   17.2310 C   0  0  0  0  0  0  0  0  0  0  0  0
   -4.3910   10.9780   16.0780 C   0  0  0  0  0  0  0  0  0  0  0  0
   -3.0110   11.2360   16.0630 C   0  0  0  0  0  0  0  0  0  0  0  0
   -2.3670   11.7210   17.2020 C   0  0  0  0  0  0  0  0  0  0  0  0
   -3.1240   11.9520   18.3400 C   0  0  0  0  0  0  0  0  0  0  0  0
   -1.9830   13.3000   19.5890 H   0  0  0  0  0  0  0  0  0  0  0  0
   -4.1930   13.9030   20.0600 H   0  0  0  0  0  0  0  0  0  0  0  0
   -3.9810   12.7960   21.4190 H   0  0  0  0  0  0  0  0  0  0  0  0
   -6.0350   12.5050   19.6470 H   0  0  0  0  0  0  0  0  0  0  0  0
   -5.2020   11.0410   20.2610 H   0  0  0  0  0  0  0  0  0  0  0  0
   -6.2100   10.9920   17.2430 H   0  0  0  0  0  0  0  0  0  0  0  0
   -4.8750   10.5950   15.1830 H   0  0  0  0  0  0  0  0  0  0  0  0
   -2.4370   11.0490   15.1580 H   0  0  0  0  0  0  0  0  0  0  0  0
   -1.2960   11.9100   17.2000 H   0  0  0  0  0  0  0  0  0  0  0  0
  1  2  1  0  0  0  0
  2  7  1  0  0  0  0
  2  3  2  0  0  0  0
  3  8  1  0  0  0  0
  4  3  1  0  0  0  0
  4 30  1  0  0  0  0
  5  4  2  0  0  0  0
  6  5  1  0  0  0  0
  6  1  2  0  0  0  0
  9  6  1  0  0  0  0
 10 11  2  0  0  0  0
 10 15  1  0  0  0  0
 11 12  1  0  0  0  0
 12 17  1  0  0  0  0
 12 13  2  0  0  0  0
 13 18  1  0  0  0  0
 14 13  1  0  0  0  0
 14  1  1  0  0  0  0
 15 14  2  0  0  0  0
 16 11  1  0  0  0  0
 19 15  1  0  0  0  0
 20 10  1  0  0  0  0
 21 22  1  0  0  0  0
 21 20  1  0  0  0  0
 23 21  1  0  0  0  0
 24 21  1  0  0  0  0
 25  5  1  0  0  0  0
 26 28  1  0  0  0  0
 26 25  1  0  0  0  0
 27 25  2  0  0  0  0
 29 26  1  0  0  0  0
 30 32  1  0  0  0  0
 31 30  1  0  0  0  0
 33 30  1  0  0  0  0
 33 37  1  0  0  0  0
 34 36  1  0  0  0  0
 34 33  1  0  0  0  0
 35 34  2  0  0  0  0
 36 38  1  0  0  0  0
 39 48  1  6  0  0  0
 39 40  1  0  0  0  0
 39 36  1  0  0  0  0
 40 50  1  0  0  0  0
 41 52  1  0  0  0  0
 41 40  1  0  0  0  0
 42 41  1  0  0  0  0
 43 53  1  0  0  0  0
 43 42  2  0  0  0  0
 44 43  1  0  0  0  0
 45 44  2  0  0  0  0
 45 46  1  0  0  0  0
 46 47  2  0  0  0  0
 47 42  1  0  0  0  0
 47 39  1  0  0  0  0
 49 40  1  0  0  0  0
 51 41  1  0  0  0  0
 54 44  1  0  0  0  0
 55 45  1  0  0  0  0
 56 46  1  0  0  0  0
M  END
>  <MODEL>
7

>  <REMARK>
 VINA RESULT:    -7.913      3.246      9.934
 INTER + INTRA:         -11.179
 INTER:                 -10.184
 INTRA:                  -0.995
 UNBOUND:                -0.259
  Name = 
  7 active torsions:
  status: ('A' for Active; 'I' for Inactive)
    1  A    between atoms: C_1  and  O_2
    2  A    between atoms: O_2  and  C_3
    3  A    between atoms: C_7  and  C_8
    4  A    between atoms: C_11  and  C_12
    5  A    between atoms: C_12  and  N_13
    6  A    between atoms: N_16  and  C_17
    7  A    between atoms: C_26  and  C_27
                            x       y       z     vdW  Elec       q    Type
                         _______ _______ _______ _____ _____    ______ ____

>  <TORSDO>
F 7

$$$$
=
 OpenBabel07192307433D

 56 59  0  0  1  0  0  0  0  0999 V2000
   -1.4400   11.7090   19.8010 C   0  0  0  0  0  0  0  0  0  0  0  0
   -1.4550   10.3670   19.4120 C   0  0  0  0  0  0  0  0  0  0  0  0
   -0.3520    9.7900   18.7780 C   0  0  0  0  0  0  0  0  0  0  0  0
    0.8140   10.5340   18.5180 C   0  0  0  0  0  0  0  0  0  0  0  0
    0.8500   11.8800   18.9320 C   0  0  0  0  0  0  0  0  0  0  0  0
   -0.2770   12.4550   19.5510 C   0  0  0  0  0  0  0  0  0  0  0  0
   -2.3310    9.7490   19.6050 H   0  0  0  0  0  0  0  0  0  0  0  0
   -0.4030    8.7390   18.4960 H   0  0  0  0  0  0  0  0  0  0  0  0
   -0.2720   13.5100   19.8170 H   0  0  0  0  0  0  0  0  0  0  0  0
   -3.7110   13.1810   22.4530 C   0  0  0  0  0  0  0  0  0  0  0  0
   -4.8380   13.4930   21.6910 C   0  0  0  0  0  0  0  0  0  0  0  0
   -4.8630   13.2300   20.3230 C   0  0  0  0  0  0  0  0  0  0  0  0
   -3.7560   12.6470   19.7080 C   0  0  0  0  0  0  0  0  0  0  0  0
   -2.6090   12.3230   20.4490 C   0  0  0  0  0  0  0  0  0  0  0  0
   -2.6040   12.5990   21.8310 C   0  0  0  0  0  0  0  0  0  0  0  0
   -5.7020   13.9490   22.1690 H   0  0  0  0  0  0  0  0  0  0  0  0
   -5.7440   13.4820   19.7380 H   0  0  0  0  0  0  0  0  0  0  0  0
   -3.7860   12.4620   18.6360 H   0  0  0  0  0  0  0  0  0  0  0  0
   -1.7180   12.3390   22.4030 H   0  0  0  0  0  0  0  0  0  0  0  0
   -3.8170   13.4920   23.7810 O   0  0  0  0  0  0  0  0  0  0  0  0
   -4.4150   12.5180   24.6260 C   0  0  0  0  0  0  0  0  0  0  0  0
   -4.9200   11.7430   24.0390 H   0  0  0  0  0  0  0  0  0  0  0  0
   -3.6160   12.0340   25.1960 H   0  0  0  0  0  0  0  0  0  0  0  0
   -5.1010   12.9830   25.3410 H   0  0  0  0  0  0  0  0  0  0  0  0
    2.0600   12.7330   18.7250 C   0  0  0  0  0  0  0  0  0  0  0  0
    2.3940   13.0300   17.4320 N   0  0  0  0  0  0  0  0  0  0  0  0
    2.7120   13.2020   19.6490 O   0  0  0  0  0  0  0  0  0  0  0  0
    1.7410   12.9100   16.6700 H   0  0  0  0  0  0  0  0  0  0  0  0
    3.1370   13.7060   17.3030 H   0  0  0  0  0  0  0  0  0  0  0  0
    1.9450    9.8410   17.7900 C   0  0  0  0  0  0  0  0  0  0  0  0
    2.8960   10.0760   18.2800 H   0  0  0  0  0  0  0  0  0  0  0  0
    2.0230   10.2090   16.7590 H   0  0  0  0  0  0  0  0  0  0  0  0
    1.8080    8.4070   17.7350 N   0  0  0  0  0  0  0  0  0  0  0  0
    2.8430    7.5700   18.0410 C   0  0  0  0  0  0  0  0  0  0  0  0
    3.9320    7.9420   18.4550 O   0  0  0  0  0  0  0  0  0  0  0  0
    2.5000    6.2610   17.8170 N   0  0  0  0  0  0  0  0  0  0  0  0
    1.0900    8.0670   17.1070 H   0  0  0  0  0  0  0  0  0  0  0  0
    1.5180    6.0750   17.9560 H   0  0  0  0  0  0  0  0  0  0  0  0
    3.4010    5.1960   18.2100 C   0  0  2  0  0  0  0  0  0  0  0  0
    3.5710    4.1530   17.0870 C   0  0  0  0  0  0  0  0  0  0  0  0
    2.4760    3.0940   17.2880 C   0  0  0  0  0  0  0  0  0  0  0  0
    2.2750    3.1560   18.7690 C   0  0  0  0  0  0  0  0  0  0  0  0
    1.6340    2.2380   19.5820 C   0  0  0  0  0  0  0  0  0  0  0  0
    1.5270    2.5220   20.9460 C   0  0  0  0  0  0  0  0  0  0  0  0
    2.0480    3.7150   21.4720 C   0  0  0  0  0  0  0  0  0  0  0  0
    2.6830    4.6400   20.6430 C   0  0  0  0  0  0  0  0  0  0  0  0
    2.7940    4.3470   19.2920 C   0  0  0  0  0  0  0  0  0  0  0  0
    4.3750    5.5990   18.5080 H   0  0  0  0  0  0  0  0  0  0  0  0
    4.5490    3.6660   17.2030 H   0  0  0  0  0  0  0  0  0  0  0  0
    3.5450    4.5880   16.0820 H   0  0  0  0  0  0  0  0  0  0  0  0
    2.8080    2.1090   16.9500 H   0  0  0  0  0  0  0  0  0  0  0  0
    1.5530    3.3770   16.7710 H   0  0  0  0  0  0  0  0  0  0  0  0
    1.2200    1.3200   19.1770 H   0  0  0  0  0  0  0  0  0  0  0  0
    1.0320    1.8150   21.6070 H   0  0  0  0  0  0  0  0  0  0  0  0
    1.9510    3.9230   22.5350 H   0  0  0  0  0  0  0  0  0  0  0  0
    3.0760    5.5710   21.0430 H   0  0  0  0  0  0  0  0  0  0  0  0
  1 14  1  0  0  0  0
  2  7  1  0  0  0  0
  2  1  2  0  0  0  0
  3  2  1  0  0  0  0
  4  3  2  0  0  0  0
  4  5  1  0  0  0  0
  5  6  2  0  0  0  0
  6  1  1  0  0  0  0
  6  9  1  0  0  0  0
  8  3  1  0  0  0  0
 10 20  1  0  0  0  0
 11 16  1  0  0  0  0
 11 10  2  0  0  0  0
 12 11  1  0  0  0  0
 13 12  2  0  0  0  0
 13 14  1  0  0  0  0
 14 15  2  0  0  0  0
 15 19  1  0  0  0  0
 15 10  1  0  0  0  0
 17 12  1  0  0  0  0
 18 13  1  0  0  0  0
 20 21  1  0  0  0  0
 21 23  1  0  0  0  0
 21 24  1  0  0  0  0
 22 21  1  0  0  0  0
 25  5  1  0  0  0  0
 25 27  2  0  0  0  0
 26 25  1  0  0  0  0
 28 26  1  0  0  0  0
 29 26  1  0  0  0  0
 30 31  1  0  0  0  0
 30  4  1  0  0  0  0
 32 30  1  0  0  0  0
 33 30  1  0  0  0  0
 33 34  1  0  0  0  0
 34 35  2  0  0  0  0
 36 38  1  0  0  0  0
 36 34  1  0  0  0  0
 36 39  1  0  0  0  0
 37 33  1  0  0  0  0
 39 48  1  1  0  0  0
 39 47  1  0  0  0  0
 40 49  1  0  0  0  0
 40 41  1  0  0  0  0
 40 39  1  0  0  0  0
 41 42  1  0  0  0  0
 42 47  2  0  0  0  0
 42 43  1  0  0  0  0
 43 44  2  0  0  0  0
 44 45  1  0  0  0  0
 44 54  1  0  0  0  0
 45 55  1  0  0  0  0
 46 56  1  0  0  0  0
 46 45  2  0  0  0  0
 47 46  1  0  0  0  0
 50 40  1  0  0  0  0
 51 41  1  0  0  0  0
 52 41  1  0  0  0  0
 53 43  1  0  0  0  0
M  END
>  <MODEL>
8

>  <REMARK>
 VINA RESULT:    -7.837      2.645      4.039
 INTER + INTRA:         -11.074
 INTER:                 -10.288
 INTRA:                  -0.786
 UNBOUND:                -0.259
  Name = 
  7 active torsions:
  status: ('A' for Active; 'I' for Inactive)
    1  A    between atoms: C_1  and  O_2
    2  A    between atoms: O_2  and  C_3
    3  A    between atoms: C_7  and  C_8
    4  A    between atoms: C_11  and  C_12
    5  A    between atoms: C_12  and  N_13
    6  A    between atoms: N_16  and  C_17
    7  A    between atoms: C_26  and  C_27
                            x       y       z     vdW  Elec       q    Type
                         _______ _______ _______ _____ _____    ______ ____

>  <TORSDO>
F 7

$$$$
=
 OpenBabel07192307433D

 56 59  0  0  1  0  0  0  0  0999 V2000
   -1.7730   12.5430   21.3050 C   0  0  0  0  0  0  0  0  0  0  0  0
   -0.4200   12.5250   21.6570 C   0  0  0  0  0  0  0  0  0  0  0  0
    0.5390   11.9830   20.7980 C   0  0  0  0  0  0  0  0  0  0  0  0
    0.1810   11.4470   19.5470 C   0  0  0  0  0  0  0  0  0  0  0  0
   -1.1760   11.4860   19.1700 C   0  0  0  0  0  0  0  0  0  0  0  0
   -2.1360   12.0160   20.0550 C   0  0  0  0  0  0  0  0  0  0  0  0
   -0.0950   12.9420   22.6090 H   0  0  0  0  0  0  0  0  0  0  0  0
    1.5830   11.9940   21.1090 H   0  0  0  0  0  0  0  0  0  0  0  0
   -3.1910   11.9930   19.7900 H   0  0  0  0  0  0  0  0  0  0  0  0
   -3.3820   14.0860   24.3680 C   0  0  0  0  0  0  0  0  0  0  0  0
   -4.7160   14.1460   23.9630 C   0  0  0  0  0  0  0  0  0  0  0  0
   -5.0950   13.6900   22.7020 C   0  0  0  0  0  0  0  0  0  0  0  0
   -4.1350   13.1660   21.8360 C   0  0  0  0  0  0  0  0  0  0  0  0
   -2.7860   13.0940   22.2180 C   0  0  0  0  0  0  0  0  0  0  0  0
   -2.4240   13.5620   23.4960 C   0  0  0  0  0  0  0  0  0  0  0  0
   -5.4660   14.5550   24.6370 H   0  0  0  0  0  0  0  0  0  0  0  0
   -6.1360   13.7470   22.3940 H   0  0  0  0  0  0  0  0  0  0  0  0
   -4.4440   12.8290   20.8500 H   0  0  0  0  0  0  0  0  0  0  0  0
   -1.3810   13.4960   23.7910 H   0  0  0  0  0  0  0  0  0  0  0  0
   -3.1470   14.5670   25.6270 O   0  0  0  0  0  0  0  0  0  0  0  0
   -1.9270   15.2670   25.8330 C   0  0  0  0  0  0  0  0  0  0  0  0
   -1.0630   14.6110   25.6780 H   0  0  0  0  0  0  0  0  0  0  0  0
   -1.8720   16.0690   25.0900 H   0  0  0  0  0  0  0  0  0  0  0  0
   -1.9000   15.7300   26.8240 H   0  0  0  0  0  0  0  0  0  0  0  0
   -1.6380   10.9680   17.8460 C   0  0  0  0  0  0  0  0  0  0  0  0
   -1.7500   11.8780   16.8310 N   0  0  0  0  0  0  0  0  0  0  0  0
   -1.8640    9.7840   17.6350 O   0  0  0  0  0  0  0  0  0  0  0  0
   -1.3120   12.7870   16.8780 H   0  0  0  0  0  0  0  0  0  0  0  0
   -1.9430   11.5030   15.9110 H   0  0  0  0  0  0  0  0  0  0  0  0
    1.2780   10.8420   18.6980 C   0  0  0  0  0  0  0  0  0  0  0  0
    2.1530   11.5020   18.7050 H   0  0  0  0  0  0  0  0  0  0  0  0
    0.9560   10.7570   17.6530 H   0  0  0  0  0  0  0  0  0  0  0  0
    1.6970    9.5340   19.1370 N   0  0  0  0  0  0  0  0  0  0  0  0
    1.9740    8.5300   18.2540 C   0  0  0  0  0  0  0  0  0  0  0  0
    1.9730    8.6610   17.0380 O   0  0  0  0  0  0  0  0  0  0  0  0
    2.2500    7.3580   18.9110 N   0  0  0  0  0  0  0  0  0  0  0  0
    1.3990    9.2780   20.0710 H   0  0  0  0  0  0  0  0  0  0  0  0
    2.6780    7.4970   19.8140 H   0  0  0  0  0  0  0  0  0  0  0  0
    2.7110    6.2000   18.1710 C   0  0  2  0  0  0  0  0  0  0  0  0
    2.4240    4.8900   18.9300 C   0  0  0  0  0  0  0  0  0  0  0  0
    3.6430    4.6130   19.8240 C   0  0  0  0  0  0  0  0  0  0  0  0
    4.7370    5.2620   19.0380 C   0  0  0  0  0  0  0  0  0  0  0  0
    6.1050    5.0940   19.1790 C   0  0  0  0  0  0  0  0  0  0  0  0
    6.9510    5.8390   18.3540 C   0  0  0  0  0  0  0  0  0  0  0  0
    6.4260    6.7430   17.4170 C   0  0  0  0  0  0  0  0  0  0  0  0
    5.0470    6.9140   17.2900 C   0  0  0  0  0  0  0  0  0  0  0  0
    4.2120    6.1640   18.1040 C   0  0  0  0  0  0  0  0  0  0  0  0
    2.2590    6.1700   17.1730 H   0  0  0  0  0  0  0  0  0  0  0  0
    2.3360    4.0720   18.2030 H   0  0  0  0  0  0  0  0  0  0  0  0
    1.4900    4.9140   19.5030 H   0  0  0  0  0  0  0  0  0  0  0  0
    3.8020    3.5410   19.9590 H   0  0  0  0  0  0  0  0  0  0  0  0
    3.5380    5.1030   20.7980 H   0  0  0  0  0  0  0  0  0  0  0  0
    6.5130    4.4050   19.9100 H   0  0  0  0  0  0  0  0  0  0  0  0
    8.0280    5.7230   18.4420 H   0  0  0  0  0  0  0  0  0  0  0  0
    7.1000    7.3200   16.7880 H   0  0  0  0  0  0  0  0  0  0  0  0
    4.6360    7.6220   16.5750 H   0  0  0  0  0  0  0  0  0  0  0  0
  1  2  1  0  0  0  0
  1 14  1  0  0  0  0
  2  7  1  0  0  0  0
  3  8  1  0  0  0  0
  3  2  2  0  0  0  0
  4  3  1  0  0  0  0
  5  4  2  0  0  0  0
  5  6  1  0  0  0  0
  6  1  2  0  0  0  0
  9  6  1  0  0  0  0
 10 20  1  0  0  0  0
 11 10  1  0  0  0  0
 11 16  1  0  0  0  0
 12 11  2  0  0  0  0
 13 14  2  0  0  0  0
 13 12  1  0  0  0  0
 14 15  1  0  0  0  0
 15 19  1  0  0  0  0
 15 10  2  0  0  0  0
 17 12  1  0  0  0  0
 18 13  1  0  0  0  0
 20 21  1  0  0  0  0
 21 24  1  0  0  0  0
 22 21  1  0  0  0  0
 23 21  1  0  0  0  0
 25  5  1  0  0  0  0
 26 28  1  0  0  0  0
 26 25  1  0  0  0  0
 27 25  2  0  0  0  0
 29 26  1  0  0  0  0
 30 31  1  0  0  0  0
 30 33  1  0  0  0  0
 30  4  1  0  0  0  0
 32 30  1  0  0  0  0
 33 37  1  0  0  0  0
 34 36  1  0  0  0  0
 34 33  1  0  0  0  0
 35 34  2  0  0  0  0
 36 38  1  0  0  0  0
 39 48  1  6  0  0  0
 39 36  1  0  0  0  0
 39 40  1  0  0  0  0
 40 50  1  0  0  0  0
 40 41  1  0  0  0  0
 41 51  1  0  0  0  0
 41 52  1  0  0  0  0
 42 43  1  0  0  0  0
 42 41  1  0  0  0  0
 43 53  1  0  0  0  0
 44 54  1  0  0  0  0
 44 43  2  0  0  0  0
 45 44  1  0  0  0  0
 46 45  2  0  0  0  0
 46 47  1  0  0  0  0
 47 39  1  0  0  0  0
 47 42  2  0  0  0  0
 49 40  1  0  0  0  0
 55 45  1  0  0  0  0
 56 46  1  0  0  0  0
M  END
>  <MODEL>
9

>  <REMARK>
 VINA RESULT:    -7.819      2.167      3.398
 INTER + INTRA:         -11.049
 INTER:                 -10.034
 INTRA:                  -1.015
 UNBOUND:                -0.259
  Name = 
  7 active torsions:
  status: ('A' for Active; 'I' for Inactive)
    1  A    between atoms: C_1  and  O_2
    2  A    between atoms: O_2  and  C_3
    3  A    between atoms: C_7  and  C_8
    4  A    between atoms: C_11  and  C_12
    5  A    between atoms: C_12  and  N_13
    6  A    between atoms: N_16  and  C_17
    7  A    between atoms: C_26  and  C_27
                            x       y       z     vdW  Elec       q    Type
                         _______ _______ _______ _____ _____    ______ ____

>  <TORSDO>
F 7

$$$$
=
 OpenBabel07192307433D

 56 59  0  0  1  0  0  0  0  0999 V2000
   -1.3810   11.4140   20.1310 C   0  0  0  0  0  0  0  0  0  0  0  0
   -1.0520   11.6570   18.7940 C   0  0  0  0  0  0  0  0  0  0  0  0
    0.0110   10.9870   18.1830 C   0  0  0  0  0  0  0  0  0  0  0  0
    0.7800   10.0410   18.8850 C   0  0  0  0  0  0  0  0  0  0  0  0
    0.4400    9.7690   20.2240 C   0  0  0  0  0  0  0  0  0  0  0  0
   -0.6220   10.4660   20.8350 C   0  0  0  0  0  0  0  0  0  0  0  0
   -1.6290   12.3710   18.2080 H   0  0  0  0  0  0  0  0  0  0  0  0
    0.2300   11.2020   17.1370 H   0  0  0  0  0  0  0  0  0  0  0  0
   -0.8470   10.2990   21.8860 H   0  0  0  0  0  0  0  0  0  0  0  0
   -3.5510   12.9980   22.8030 C   0  0  0  0  0  0  0  0  0  0  0  0
   -4.5950   13.5040   22.0280 C   0  0  0  0  0  0  0  0  0  0  0  0
   -4.5970   13.3350   20.6440 C   0  0  0  0  0  0  0  0  0  0  0  0
   -3.5500   12.6530   20.0270 C   0  0  0  0  0  0  0  0  0  0  0  0
   -2.4870   12.1340   20.7820 C   0  0  0  0  0  0  0  0  0  0  0  0
   -2.5030   12.3160   22.1780 C   0  0  0  0  0  0  0  0  0  0  0  0
   -5.4130   14.0380   22.5080 H   0  0  0  0  0  0  0  0  0  0  0  0
   -5.4130   13.7390   20.0500 H   0  0  0  0  0  0  0  0  0  0  0  0
   -3.5590   12.5430   18.9450 H   0  0  0  0  0  0  0  0  0  0  0  0
   -1.6830   11.9050   22.7600 H   0  0  0  0  0  0  0  0  0  0  0  0
   -3.6710   13.2330   24.1450 O   0  0  0  0  0  0  0  0  0  0  0  0
   -4.5250   12.3650   24.8780 C   0  0  0  0  0  0  0  0  0  0  0  0
   -5.1680   12.9280   25.5630 H   0  0  0  0  0  0  0  0  0  0  0  0
   -5.1730   11.8500   24.1620 H   0  0  0  0  0  0  0  0  0  0  0  0
   -3.9480   11.6030   25.4120 H   0  0  0  0  0  0  0  0  0  0  0  0
    1.1830    8.7550   21.0330 C   0  0  0  0  0  0  0  0  0  0  0  0
    1.9620    9.2280   22.0540 N   0  0  0  0  0  0  0  0  0  0  0  0
    1.0810    7.5490   20.8490 O   0  0  0  0  0  0  0  0  0  0  0  0
    1.8550   10.1650   22.4170 H   0  0  0  0  0  0  0  0  0  0  0  0
    2.3620    8.5340   22.6720 H   0  0  0  0  0  0  0  0  0  0  0  0
    1.9400    9.3950   18.1570 C   0  0  0  0  0  0  0  0  0  0  0  0
    2.8580    9.5310   18.7380 H   0  0  0  0  0  0  0  0  0  0  0  0
    2.1060    9.8800   17.1880 H   0  0  0  0  0  0  0  0  0  0  0  0
    1.7610    7.9840   17.9190 N   0  0  0  0  0  0  0  0  0  0  0  0
    2.7270    7.0710   18.2310 C   0  0  0  0  0  0  0  0  0  0  0  0
    3.7750    7.3420   18.8000 O   0  0  0  0  0  0  0  0  0  0  0  0
    2.3680    5.8130   17.8190 N   0  0  0  0  0  0  0  0  0  0  0  0
    1.1070    7.7520   17.1820 H   0  0  0  0  0  0  0  0  0  0  0  0
    1.3710    5.6580   17.8300 H   0  0  0  0  0  0  0  0  0  0  0  0
    3.1830    4.6700   18.1760 C   0  0  2  0  0  0  0  0  0  0  0  0
    3.0190    3.5180   17.1650 C   0  0  0  0  0  0  0  0  0  0  0  0
    1.8530    2.6480   17.6600 C   0  0  0  0  0  0  0  0  0  0  0  0
    1.9280    2.8700   19.1370 C   0  0  0  0  0  0  0  0  0  0  0  0
    1.3300    2.1290   20.1430 C   0  0  0  0  0  0  0  0  0  0  0  0
    1.5050    2.5460   21.4650 C   0  0  0  0  0  0  0  0  0  0  0  0
    2.2560    3.6940   21.7610 C   0  0  0  0  0  0  0  0  0  0  0  0
    2.8440    4.4410   20.7400 C   0  0  0  0  0  0  0  0  0  0  0  0
    2.6770    4.0160   19.4310 C   0  0  0  0  0  0  0  0  0  0  0  0
    4.2370    4.9540   18.2630 H   0  0  0  0  0  0  0  0  0  0  0  0
    3.9330    2.9080   17.1730 H   0  0  0  0  0  0  0  0  0  0  0  0
    2.8690    3.8600   16.1350 H   0  0  0  0  0  0  0  0  0  0  0  0
    1.9930    1.6000   17.3860 H   0  0  0  0  0  0  0  0  0  0  0  0
    0.8960    3.0120   17.2730 H   0  0  0  0  0  0  0  0  0  0  0  0
    0.7400    1.2480   19.9160 H   0  0  0  0  0  0  0  0  0  0  0  0
    1.0490    1.9800   22.2730 H   0  0  0  0  0  0  0  0  0  0  0  0
    2.3760    4.0080   22.7960 H   0  0  0  0  0  0  0  0  0  0  0  0
    3.4160    5.3390   20.9630 H   0  0  0  0  0  0  0  0  0  0  0  0
  1 14  1  0  0  0  0
  1  6  1  0  0  0  0
  2  1  2  0  0  0  0
  3  2  1  0  0  0  0
  3  4  2  0  0  0  0
  4  5  1  0  0  0  0
  5  6  2  0  0  0  0
  5 25  1  0  0  0  0
  6  9  1  0  0  0  0
  7  2  1  0  0  0  0
  8  3  1  0  0  0  0
 10 20  1  0  0  0  0
 11 16  1  0  0  0  0
 11 10  2  0  0  0  0
 12 11  1  0  0  0  0
 13 12  2  0  0  0  0
 13 14  1  0  0  0  0
 14 15  2  0  0  0  0
 15 19  1  0  0  0  0
 15 10  1  0  0  0  0
 17 12  1  0  0  0  0
 18 13  1  0  0  0  0
 20 21  1  0  0  0  0
 21 24  1  0  0  0  0
 21 22  1  0  0  0  0
 23 21  1  0  0  0  0
 25 26  1  0  0  0  0
 26 28  1  0  0  0  0
 26 29  1  0  0  0  0
 27 25  2  0  0  0  0
 30 31  1  0  0  0  0
 30  4  1  0  0  0  0
 32 30  1  0  0  0  0
 33 30  1  0  0  0  0
 33 34  1  0  0  0  0
 34 35  2  0  0  0  0
 36 38  1  0  0  0  0
 36 39  1  0  0  0  0
 36 34  1  0  0  0  0
 37 33  1  0  0  0  0
 39 48  1  1  0  0  0
 39 47  1  0  0  0  0
 40 49  1  0  0  0  0
 40 41  1  0  0  0  0
 40 39  1  0  0  0  0
 41 42  1  0  0  0  0
 42 47  2  0  0  0  0
 42 43  1  0  0  0  0
 43 44  2  0  0  0  0
 44 45  1  0  0  0  0
 44 54  1  0  0  0  0
 45 55  1  0  0  0  0
 46 56  1  0  0  0  0
 46 45  2  0  0  0  0
 47 46  1  0  0  0  0
 50 40  1  0  0  0  0
 51 41  1  0  0  0  0
 52 41  1  0  0  0  0
 53 43  1  0  0  0  0
M  END
>  <MODEL>
10

>  <REMARK>
 VINA RESULT:    -7.795      2.529      4.084
 INTER + INTRA:         -11.016
 INTER:                  -9.912
 INTRA:                  -1.103
 UNBOUND:                -0.259
  Name = 
  7 active torsions:
  status: ('A' for Active; 'I' for Inactive)
    1  A    between atoms: C_1  and  O_2
    2  A    between atoms: O_2  and  C_3
    3  A    between atoms: C_7  and  C_8
    4  A    between atoms: C_11  and  C_12
    5  A    between atoms: C_12  and  N_13
    6  A    between atoms: N_16  and  C_17
    7  A    between atoms: C_26  and  C_27
                            x       y       z     vdW  Elec       q    Type
                         _______ _______ _______ _____ _____    ______ ____

>  <TORSDO>
F 7

$$$$
=
 OpenBabel07192307433D

 56 59  0  0  1  0  0  0  0  0999 V2000
    2.6700    7.1570   18.9480 C   0  0  0  0  0  0  0  0  0  0  0  0
    2.6230    7.9650   17.8080 C   0  0  0  0  0  0  0  0  0  0  0  0
    1.8630    9.1370   17.7900 C   0  0  0  0  0  0  0  0  0  0  0  0
    1.1280    9.5510   18.9170 C   0  0  0  0  0  0  0  0  0  0  0  0
    1.1920    8.7580   20.0800 C   0  0  0  0  0  0  0  0  0  0  0  0
    1.9460    7.5680   20.0780 C   0  0  0  0  0  0  0  0  0  0  0  0
    3.1860    7.6910   16.9170 H   0  0  0  0  0  0  0  0  0  0  0  0
    1.8570    9.7410   16.8830 H   0  0  0  0  0  0  0  0  0  0  0  0
    1.9490    6.9250   20.9560 H   0  0  0  0  0  0  0  0  0  0  0  0
    3.8130    3.6460   19.7980 C   0  0  0  0  0  0  0  0  0  0  0  0
    4.9460    3.5350   18.9910 C   0  0  0  0  0  0  0  0  0  0  0  0
    5.3390    4.5920   18.1720 C   0  0  0  0  0  0  0  0  0  0  0  0
    4.5980    5.7730   18.1590 C   0  0  0  0  0  0  0  0  0  0  0  0
    3.4540    5.9120   18.9610 C   0  0  0  0  0  0  0  0  0  0  0  0
    3.0730    4.8310   19.7800 C   0  0  0  0  0  0  0  0  0  0  0  0
    5.5250    2.6140   18.9990 H   0  0  0  0  0  0  0  0  0  0  0  0
    6.2200    4.4920   17.5430 H   0  0  0  0  0  0  0  0  0  0  0  0
    4.9090    6.5830   17.5030 H   0  0  0  0  0  0  0  0  0  0  0  0
    2.1930    4.9460   20.4050 H   0  0  0  0  0  0  0  0  0  0  0  0
    3.5390    2.5370   20.5510 O   0  0  0  0  0  0  0  0  0  0  0  0
    2.4860    2.6450   21.4990 C   0  0  0  0  0  0  0  0  0  0  0  0
    2.4190    1.7460   22.1210 H   0  0  0  0  0  0  0  0  0  0  0  0
    2.7150    3.4890   22.1580 H   0  0  0  0  0  0  0  0  0  0  0  0
    1.5310    2.8580   21.0060 H   0  0  0  0  0  0  0  0  0  0  0  0
    0.4710    9.1410   21.3310 C   0  0  0  0  0  0  0  0  0  0  0  0
   -0.7360    8.5370   21.5600 N   0  0  0  0  0  0  0  0  0  0  0  0
    0.9340    9.9150   22.1590 O   0  0  0  0  0  0  0  0  0  0  0  0
   -1.0160    7.7020   21.0650 H   0  0  0  0  0  0  0  0  0  0  0  0
   -1.1590    8.7060   22.4630 H   0  0  0  0  0  0  0  0  0  0  0  0
    0.2990   10.8110   18.7950 C   0  0  0  0  0  0  0  0  0  0  0  0
   -0.6980   10.5580   18.4190 H   0  0  0  0  0  0  0  0  0  0  0  0
    0.7460   11.4980   18.0660 H   0  0  0  0  0  0  0  0  0  0  0  0
    0.1450   11.5260   20.0380 N   0  0  0  0  0  0  0  0  0  0  0  0
   -0.6270   12.6480   20.1350 C   0  0  0  0  0  0  0  0  0  0  0  0
   -1.3090   13.0970   19.2240 O   0  0  0  0  0  0  0  0  0  0  0  0
   -0.5340   13.2040   21.3850 N   0  0  0  0  0  0  0  0  0  0  0  0
    0.9070   11.4140   20.6950 H   0  0  0  0  0  0  0  0  0  0  0  0
   -0.3700   12.5250   22.1130 H   0  0  0  0  0  0  0  0  0  0  0  0
   -1.3830   14.3200   21.7500 C   0  0  2  0  0  0  0  0  0  0  0  0
   -0.7690   15.1510   22.8940 C   0  0  0  0  0  0  0  0  0  0  0  0
   -1.2680   14.5380   24.2120 C   0  0  0  0  0  0  0  0  0  0  0  0
   -2.5870   13.9720   23.7920 C   0  0  0  0  0  0  0  0  0  0  0  0
   -3.6340   13.5570   24.5980 C   0  0  0  0  0  0  0  0  0  0  0  0
   -4.7670   13.0180   23.9850 C   0  0  0  0  0  0  0  0  0  0  0  0
   -4.8350   12.8900   22.5890 C   0  0  0  0  0  0  0  0  0  0  0  0
   -3.7710   13.3000   21.7850 C   0  0  0  0  0  0  0  0  0  0  0  0
   -2.6530   13.8440   22.3980 C   0  0  0  0  0  0  0  0  0  0  0  0
   -1.5850   14.9570   20.8810 H   0  0  0  0  0  0  0  0  0  0  0  0
   -1.1470   16.1800   22.8260 H   0  0  0  0  0  0  0  0  0  0  0  0
    0.3240   15.2060   22.8530 H   0  0  0  0  0  0  0  0  0  0  0  0
   -1.3660   15.2970   24.9920 H   0  0  0  0  0  0  0  0  0  0  0  0
   -0.6050   13.7350   24.5510 H   0  0  0  0  0  0  0  0  0  0  0  0
   -3.5790   13.6440   25.6780 H   0  0  0  0  0  0  0  0  0  0  0  0
   -5.6050   12.6880   24.5950 H   0  0  0  0  0  0  0  0  0  0  0  0
   -5.7230   12.4620   22.1290 H   0  0  0  0  0  0  0  0  0  0  0  0
   -3.8130   13.1910   20.7040 H   0  0  0  0  0  0  0  0  0  0  0  0
  1 14  1  0  0  0  0
  1  6  1  0  0  0  0
  2  1  2  0  0  0  0
  3  2  1  0  0  0  0
  3  4  2  0  0  0  0
  4  5  1  0  0  0  0
  5 25  1  0  0  0  0
  6  5  2  0  0  0  0
  6  9  1  0  0  0  0
  7  2  1  0  0  0  0
  8  3  1  0  0  0  0
 10 20  1  0  0  0  0
 11 16  1  0  0  0  0
 11 10  2  0  0  0  0
 12 11  1  0  0  0  0
 13 12  2  0  0  0  0
 13 14  1  0  0  0  0
 14 15  2  0  0  0  0
 15 10  1  0  0  0  0
 15 19  1  0  0  0  0
 17 12  1  0  0  0  0
 18 13  1  0  0  0  0
 20 21  1  0  0  0  0
 21 22  1  0  0  0  0
 21 23  1  0  0  0  0
 24 21  1  0  0  0  0
 25 26  1  0  0  0  0
 25 27  2  0  0  0  0
 26 29  1  0  0  0  0
 28 26  1  0  0  0  0
 30  4  1  0  0  0  0
 30 33  1  0  0  0  0
 31 30  1  0  0  0  0
 32 30  1  0  0  0  0
 33 34  1  0  0  0  0
 33 37  1  0  0  0  0
 34 36  1  0  0  0  0
 35 34  2  0  0  0  0
 36 39  1  0  0  0  0
 36 38  1  0  0  0  0
 39 48  1  6  0  0  0
 39 47  1  0  0  0  0
 39 40  1  0  0  0  0
 40 41  1  0  0  0  0
 41 52  1  0  0  0  0
 41 51  1  0  0  0  0
 42 41  1  0  0  0  0
 42 43  1  0  0  0  0
 43 53  1  0  0  0  0
 44 54  1  0  0  0  0
 44 43  2  0  0  0  0
 45 44  1  0  0  0  0
 46 47  1  0  0  0  0
 46 45  2  0  0  0  0
 47 42  2  0  0  0  0
 49 40  1  0  0  0  0
 50 40  1  0  0  0  0
 55 45  1  0  0  0  0
 56 46  1  0  0  0  0
M  END
>  <MODEL>
11

>  <REMARK>
 VINA RESULT:    -7.741      2.523     10.364
 INTER + INTRA:         -10.941
 INTER:                 -10.396
 INTRA:                  -0.545
 UNBOUND:                -0.259
  Name = 
  7 active torsions:
  status: ('A' for Active; 'I' for Inactive)
    1  A    between atoms: C_1  and  O_2
    2  A    between atoms: O_2  and  C_3
    3  A    between atoms: C_7  and  C_8
    4  A    between atoms: C_11  and  C_12
    5  A    between atoms: C_12  and  N_13
    6  A    between atoms: N_16  and  C_17
    7  A    between atoms: C_26  and  C_27
                            x       y       z     vdW  Elec       q    Type
                         _______ _______ _______ _____ _____    ______ ____

>  <TORSDO>
F 7

$$$$
=
 OpenBabel07192307433D

 56 59  0  0  1  0  0  0  0  0999 V2000
    2.1940    6.3820   19.5990 C   0  0  0  0  0  0  0  0  0  0  0  0
    2.5980    6.7580   18.3150 C   0  0  0  0  0  0  0  0  0  0  0  0
    2.3060    8.0290   17.8140 C   0  0  0  0  0  0  0  0  0  0  0  0
    1.6050    8.9760   18.5840 C   0  0  0  0  0  0  0  0  0  0  0  0
    1.2180    8.6160   19.8900 C   0  0  0  0  0  0  0  0  0  0  0  0
    1.5010    7.3240   20.3760 C   0  0  0  0  0  0  0  0  0  0  0  0
    3.1550    6.0630   17.6890 H   0  0  0  0  0  0  0  0  0  0  0  0
    2.6440    8.2840   16.8100 H   0  0  0  0  0  0  0  0  0  0  0  0
    1.1500    7.0260   21.3610 H   0  0  0  0  0  0  0  0  0  0  0  0
    3.5730    2.8640   19.8840 C   0  0  0  0  0  0  0  0  0  0  0  0
    3.0360    2.4690   21.1100 C   0  0  0  0  0  0  0  0  0  0  0  0
    2.2310    3.3380   21.8440 C   0  0  0  0  0  0  0  0  0  0  0  0
    1.9560    4.6130   21.3510 C   0  0  0  0  0  0  0  0  0  0  0  0
    2.4830    5.0360   20.1210 C   0  0  0  0  0  0  0  0  0  0  0  0
    3.2950    4.1430   19.3950 C   0  0  0  0  0  0  0  0  0  0  0  0
    3.2500    1.4750   21.4970 H   0  0  0  0  0  0  0  0  0  0  0  0
    1.8230    3.0220   22.8010 H   0  0  0  0  0  0  0  0  0  0  0  0
    1.3390    5.2850   21.9430 H   0  0  0  0  0  0  0  0  0  0  0  0
    3.6930    4.4710   18.4400 H   0  0  0  0  0  0  0  0  0  0  0  0
    4.3440    1.9170   19.2680 O   0  0  0  0  0  0  0  0  0  0  0  0
    3.8190    1.3260   18.0870 C   0  0  0  0  0  0  0  0  0  0  0  0
    3.4110    0.3300   18.2910 H   0  0  0  0  0  0  0  0  0  0  0  0
    2.9970    1.9560   17.7350 H   0  0  0  0  0  0  0  0  0  0  0  0
    4.5740    1.2900   17.2950 H   0  0  0  0  0  0  0  0  0  0  0  0
    0.5000    9.5720   20.7870 C   0  0  0  0  0  0  0  0  0  0  0  0
    1.1500    9.9580   21.9280 N   0  0  0  0  0  0  0  0  0  0  0  0
   -0.5970   10.0450   20.5180 O   0  0  0  0  0  0  0  0  0  0  0  0
    2.1440    9.8240   22.0460 H   0  0  0  0  0  0  0  0  0  0  0  0
    0.7140   10.6960   22.4660 H   0  0  0  0  0  0  0  0  0  0  0  0
    1.2950   10.3130   17.9470 C   0  0  0  0  0  0  0  0  0  0  0  0
    0.5050   10.8150   18.5150 H   0  0  0  0  0  0  0  0  0  0  0  0
    0.9110   10.1750   16.9280 H   0  0  0  0  0  0  0  0  0  0  0  0
    2.4300   11.1980   17.8730 N   0  0  0  0  0  0  0  0  0  0  0  0
    2.3430   12.5160   18.2200 C   0  0  0  0  0  0  0  0  0  0  0  0
    1.3430   13.0410   18.6900 O   0  0  0  0  0  0  0  0  0  0  0  0
    3.5210   13.1720   17.9690 N   0  0  0  0  0  0  0  0  0  0  0  0
    3.1440   10.9280   17.2080 H   0  0  0  0  0  0  0  0  0  0  0  0
    4.3340   12.5810   18.0590 H   0  0  0  0  0  0  0  0  0  0  0  0
    3.6940   14.5460   18.3950 C   0  0  2  0  0  0  0  0  0  0  0  0
    4.7720   15.2670   17.5610 C   0  0  0  0  0  0  0  0  0  0  0  0
    6.1160   15.0380   18.2690 C   0  0  0  0  0  0  0  0  0  0  0  0
    5.6780   14.8960   19.6920 C   0  0  0  0  0  0  0  0  0  0  0  0
    6.4550   14.9670   20.8360 C   0  0  0  0  0  0  0  0  0  0  0  0
    5.8350   14.7620   22.0710 C   0  0  0  0  0  0  0  0  0  0  0  0
    4.4620   14.4800   22.1460 C   0  0  0  0  0  0  0  0  0  0  0  0
    3.6890   14.3980   20.9870 C   0  0  0  0  0  0  0  0  0  0  0  0
    4.3080   14.6130   19.7650 C   0  0  0  0  0  0  0  0  0  0  0  0
    2.7460   15.0920   18.3480 H   0  0  0  0  0  0  0  0  0  0  0  0
    4.5580   16.3450   17.5640 H   0  0  0  0  0  0  0  0  0  0  0  0
    4.7980   14.9470   16.5140 H   0  0  0  0  0  0  0  0  0  0  0  0
    6.7930   15.8830   18.1220 H   0  0  0  0  0  0  0  0  0  0  0  0
    6.5910   14.1120   17.9280 H   0  0  0  0  0  0  0  0  0  0  0  0
    7.5180   15.1740   20.7810 H   0  0  0  0  0  0  0  0  0  0  0  0
    6.4220   14.8160   22.9850 H   0  0  0  0  0  0  0  0  0  0  0  0
    3.9970   14.3160   23.1160 H   0  0  0  0  0  0  0  0  0  0  0  0
    2.6280   14.1670   21.0390 H   0  0  0  0  0  0  0  0  0  0  0  0
  1 14  1  0  0  0  0
  1  6  1  0  0  0  0
  2  1  2  0  0  0  0
  3  2  1  0  0  0  0
  3  4  2  0  0  0  0
  4  5  1  0  0  0  0
  5  6  2  0  0  0  0
  5 25  1  0  0  0  0
  6  9  1  0  0  0  0
  7  2  1  0  0  0  0
  8  3  1  0  0  0  0
 10 11  1  0  0  0  0
 11 16  1  0  0  0  0
 11 12  2  0  0  0  0
 12 17  1  0  0  0  0
 13 12  1  0  0  0  0
 13 18  1  0  0  0  0
 14 13  2  0  0  0  0
 15 10  2  0  0  0  0
 15 14  1  0  0  0  0
 19 15  1  0  0  0  0
 20 10  1  0  0  0  0
 21 22  1  0  0  0  0
 21 20  1  0  0  0  0
 23 21  1  0  0  0  0
 24 21  1  0  0  0  0
 25 26  1  0  0  0  0
 26 28  1  0  0  0  0
 26 29  1  0  0  0  0
 27 25  2  0  0  0  0
 30 31  1  0  0  0  0
 30  4  1  0  0  0  0
 32 30  1  0  0  0  0
 33 30  1  0  0  0  0
 33 34  1  0  0  0  0
 34 35  2  0  0  0  0
 36 38  1  0  0  0  0
 36 34  1  0  0  0  0
 36 39  1  0  0  0  0
 37 33  1  0  0  0  0
 39 48  1  6  0  0  0
 39 47  1  0  0  0  0
 40 49  1  0  0  0  0
 40 41  1  0  0  0  0
 40 39  1  0  0  0  0
 41 42  1  0  0  0  0
 42 47  2  0  0  0  0
 42 43  1  0  0  0  0
 43 44  2  0  0  0  0
 44 45  1  0  0  0  0
 44 54  1  0  0  0  0
 45 55  1  0  0  0  0
 46 56  1  0  0  0  0
 46 45  2  0  0  0  0
 47 46  1  0  0  0  0
 50 40  1  0  0  0  0
 51 41  1  0  0  0  0
 52 41  1  0  0  0  0
 53 43  1  0  0  0  0
M  END
>  <MODEL>
12

>  <REMARK>
 VINA RESULT:    -7.728      3.904      9.120
 INTER + INTRA:         -10.923
 INTER:                  -9.960
 INTRA:                  -0.963
 UNBOUND:                -0.259
  Name = 
  7 active torsions:
  status: ('A' for Active; 'I' for Inactive)
    1  A    between atoms: C_1  and  O_2
    2  A    between atoms: O_2  and  C_3
    3  A    between atoms: C_7  and  C_8
    4  A    between atoms: C_11  and  C_12
    5  A    between atoms: C_12  and  N_13
    6  A    between atoms: N_16  and  C_17
    7  A    between atoms: C_26  and  C_27
                            x       y       z     vdW  Elec       q    Type
                         _______ _______ _______ _____ _____    ______ ____

>  <TORSDO>
F 7

$$$$
=
 OpenBabel07192307433D

 56 59  0  0  1  0  0  0  0  0999 V2000
    2.6840    7.0660   18.9520 C   0  0  0  0  0  0  0  0  0  0  0  0
    2.6000    7.8500   17.7970 C   0  0  0  0  0  0  0  0  0  0  0  0
    1.8230    9.0110   17.7730 C   0  0  0  0  0  0  0  0  0  0  0  0
    1.1080    9.4370   18.9070 C   0  0  0  0  0  0  0  0  0  0  0  0
    1.2090    8.6690   20.0840 C   0  0  0  0  0  0  0  0  0  0  0  0
    1.9790    7.4890   20.0900 C   0  0  0  0  0  0  0  0  0  0  0  0
    3.1470    7.5660   16.9000 H   0  0  0  0  0  0  0  0  0  0  0  0
    1.7890    9.5960   16.8540 H   0  0  0  0  0  0  0  0  0  0  0  0
    2.0100    6.8640   20.9800 H   0  0  0  0  0  0  0  0  0  0  0  0
    5.5130    4.6140   18.3650 C   0  0  0  0  0  0  0  0  0  0  0  0
    5.0160    3.4800   19.0080 C   0  0  0  0  0  0  0  0  0  0  0  0
    3.7690    3.5070   19.6320 C   0  0  0  0  0  0  0  0  0  0  0  0
    3.0090    4.6760   19.6110 C   0  0  0  0  0  0  0  0  0  0  0  0
    3.4850    5.8320   18.9720 C   0  0  0  0  0  0  0  0  0  0  0  0
    4.7470    5.7830   18.3500 C   0  0  0  0  0  0  0  0  0  0  0  0
    5.6080    2.5670   19.0260 H   0  0  0  0  0  0  0  0  0  0  0  0
    3.3940    2.6190   20.1340 H   0  0  0  0  0  0  0  0  0  0  0  0
    2.0460    4.6860   20.1160 H   0  0  0  0  0  0  0  0  0  0  0  0
    5.1080    6.6760   17.8490 H   0  0  0  0  0  0  0  0  0  0  0  0
    6.7460    4.4520   17.7960 O   0  0  0  0  0  0  0  0  0  0  0  0
    6.8080    4.4660   16.3760 C   0  0  0  0  0  0  0  0  0  0  0  0
    6.6790    3.4590   15.9650 H   0  0  0  0  0  0  0  0  0  0  0  0
    5.9810    5.0820   16.0110 H   0  0  0  0  0  0  0  0  0  0  0  0
    7.7410    4.9190   16.0260 H   0  0  0  0  0  0  0  0  0  0  0  0
    0.5090    9.0670   21.3440 C   0  0  0  0  0  0  0  0  0  0  0  0
   -0.7000    8.4760   21.5930 N   0  0  0  0  0  0  0  0  0  0  0  0
    0.9920    9.8420   22.1590 O   0  0  0  0  0  0  0  0  0  0  0  0
   -0.9950    7.6400   21.1090 H   0  0  0  0  0  0  0  0  0  0  0  0
   -1.1080    8.6550   22.5020 H   0  0  0  0  0  0  0  0  0  0  0  0
    0.2590   10.6820   18.7790 C   0  0  0  0  0  0  0  0  0  0  0  0
   -0.7360   10.4120   18.4100 H   0  0  0  0  0  0  0  0  0  0  0  0
    0.6910   11.3710   18.0430 H   0  0  0  0  0  0  0  0  0  0  0  0
    0.0990   11.4060   20.0170 N   0  0  0  0  0  0  0  0  0  0  0  0
   -0.6700   12.5310   20.1020 C   0  0  0  0  0  0  0  0  0  0  0  0
   -1.3440   12.9770   19.1840 O   0  0  0  0  0  0  0  0  0  0  0  0
   -0.5840   13.0940   21.3490 N   0  0  0  0  0  0  0  0  0  0  0  0
    0.8560   11.2950   20.6800 H   0  0  0  0  0  0  0  0  0  0  0  0
   -0.4260   12.4190   22.0830 H   0  0  0  0  0  0  0  0  0  0  0  0
   -1.4310   14.2150   21.7020 C   0  0  2  0  0  0  0  0  0  0  0  0
   -0.8180   15.0540   22.8400 C   0  0  0  0  0  0  0  0  0  0  0  0
   -1.3210   14.4540   24.1620 C   0  0  0  0  0  0  0  0  0  0  0  0
   -2.6400   13.8880   23.7440 C   0  0  0  0  0  0  0  0  0  0  0  0
   -3.6900   13.4820   24.5510 C   0  0  0  0  0  0  0  0  0  0  0  0
   -4.8230   12.9400   23.9410 C   0  0  0  0  0  0  0  0  0  0  0  0
   -4.8880   12.8000   22.5450 C   0  0  0  0  0  0  0  0  0  0  0  0
   -3.8210   13.2000   21.7410 C   0  0  0  0  0  0  0  0  0  0  0  0
   -2.7030   13.7470   22.3520 C   0  0  0  0  0  0  0  0  0  0  0  0
   -1.6300   14.8440   20.8280 H   0  0  0  0  0  0  0  0  0  0  0  0
   -1.1930   16.0840   22.7620 H   0  0  0  0  0  0  0  0  0  0  0  0
    0.2760   15.1070   22.8010 H   0  0  0  0  0  0  0  0  0  0  0  0
   -1.4200   15.2210   24.9350 H   0  0  0  0  0  0  0  0  0  0  0  0
   -0.6610   13.6530   24.5100 H   0  0  0  0  0  0  0  0  0  0  0  0
   -3.6380   13.5790   25.6310 H   0  0  0  0  0  0  0  0  0  0  0  0
   -5.6630   12.6180   24.5520 H   0  0  0  0  0  0  0  0  0  0  0  0
   -5.7760   12.3690   22.0880 H   0  0  0  0  0  0  0  0  0  0  0  0
   -3.8610   13.0810   20.6610 H   0  0  0  0  0  0  0  0  0  0  0  0
  1 14  1  0  0  0  0
  1  6  1  0  0  0  0
  2  1  2  0  0  0  0
  3  2  1  0  0  0  0
  3  4  2  0  0  0  0
  4  5  1  0  0  0  0
  5  6  2  0  0  0  0
  5 25  1  0  0  0  0
  6  9  1  0  0  0  0
  7  2  1  0  0  0  0
  8  3  1  0  0  0  0
 10 11  1  0  0  0  0
 11 16  1  0  0  0  0
 11 12  2  0  0  0  0
 12 17  1  0  0  0  0
 13 12  1  0  0  0  0
 13 18  1  0  0  0  0
 14 13  2  0  0  0  0
 15 10  2  0  0  0  0
 15 14  1  0  0  0  0
 19 15  1  0  0  0  0
 20 10  1  0  0  0  0
 21 20  1  0  0  0  0
 22 21  1  0  0  0  0
 23 21  1  0  0  0  0
 24 21  1  0  0  0  0
 25 26  1  0  0  0  0
 25 27  2  0  0  0  0
 26 29  1  0  0  0  0
 28 26  1  0  0  0  0
 30  4  1  0  0  0  0
 30 33  1  0  0  0  0
 31 30  1  0  0  0  0
 32 30  1  0  0  0  0
 33 34  1  0  0  0  0
 33 37  1  0  0  0  0
 34 36  1  0  0  0  0
 35 34  2  0  0  0  0
 36 39  1  0  0  0  0
 36 38  1  0  0  0  0
 39 48  1  6  0  0  0
 39 47  1  0  0  0  0
 39 40  1  0  0  0  0
 40 41  1  0  0  0  0
 41 52  1  0  0  0  0
 41 51  1  0  0  0  0
 42 41  1  0  0  0  0
 42 43  1  0  0  0  0
 43 53  1  0  0  0  0
 44 43  2  0  0  0  0
 44 54  1  0  0  0  0
 45 44  1  0  0  0  0
 46 47  1  0  0  0  0
 46 45  2  0  0  0  0
 47 42  2  0  0  0  0
 49 40  1  0  0  0  0
 50 40  1  0  0  0  0
 55 45  1  0  0  0  0
 56 46  1  0  0  0  0
M  END
>  <MODEL>
13

>  <REMARK>
 VINA RESULT:    -7.665      2.441     10.616
 INTER + INTRA:         -10.836
 INTER:                 -10.333
 INTRA:                  -0.503
 UNBOUND:                -0.259
  Name = 
  7 active torsions:
  status: ('A' for Active; 'I' for Inactive)
    1  A    between atoms: C_1  and  O_2
    2  A    between atoms: O_2  and  C_3
    3  A    between atoms: C_7  and  C_8
    4  A    between atoms: C_11  and  C_12
    5  A    between atoms: C_12  and  N_13
    6  A    between atoms: N_16  and  C_17
    7  A    between atoms: C_26  and  C_27
                            x       y       z     vdW  Elec       q    Type
                         _______ _______ _______ _____ _____    ______ ____

>  <TORSDO>
F 7

$$$$
=
 OpenBabel07192307433D

 56 59  0  0  1  0  0  0  0  0999 V2000
    2.4520    7.1850   18.3430 C   0  0  0  0  0  0  0  0  0  0  0  0
    2.3730    8.2760   17.4710 C   0  0  0  0  0  0  0  0  0  0  0  0
    1.7820    9.4760   17.8750 C   0  0  0  0  0  0  0  0  0  0  0  0
    1.2560    9.6330   19.1700 C   0  0  0  0  0  0  0  0  0  0  0  0
    1.3560    8.5500   20.0650 C   0  0  0  0  0  0  0  0  0  0  0  0
    1.9350    7.3380   19.6390 C   0  0  0  0  0  0  0  0  0  0  0  0
    2.7790    8.2030   16.4640 H   0  0  0  0  0  0  0  0  0  0  0  0
    1.7460   10.3030   17.1660 H   0  0  0  0  0  0  0  0  0  0  0  0
    1.9590    6.4820   20.3110 H   0  0  0  0  0  0  0  0  0  0  0  0
    4.9860    4.6510   17.1150 C   0  0  0  0  0  0  0  0  0  0  0  0
    4.2090    3.4920   17.0900 C   0  0  0  0  0  0  0  0  0  0  0  0
    2.8690    3.5290   17.4710 C   0  0  0  0  0  0  0  0  0  0  0  0
    2.2960    4.7330   17.8780 C   0  0  0  0  0  0  0  0  0  0  0  0
    3.0550    5.9140   17.9130 C   0  0  0  0  0  0  0  0  0  0  0  0
    4.4070    5.8540   17.5250 C   0  0  0  0  0  0  0  0  0  0  0  0
    4.6550    2.5510   16.7740 H   0  0  0  0  0  0  0  0  0  0  0  0
    2.2750    2.6190   17.4540 H   0  0  0  0  0  0  0  0  0  0  0  0
    1.2540    4.7420   18.1870 H   0  0  0  0  0  0  0  0  0  0  0  0
    4.9880    6.7720   17.5440 H   0  0  0  0  0  0  0  0  0  0  0  0
    6.2840    4.4750   16.7180 O   0  0  0  0  0  0  0  0  0  0  0  0
    7.2930    4.7250   17.6860 C   0  0  0  0  0  0  0  0  0  0  0  0
    8.2930    4.6070   17.2550 H   0  0  0  0  0  0  0  0  0  0  0  0
    7.1940    5.7650   18.0130 H   0  0  0  0  0  0  0  0  0  0  0  0
    7.1640    4.0860   18.5660 H   0  0  0  0  0  0  0  0  0  0  0  0
    0.8530    8.6430   21.4690 C   0  0  0  0  0  0  0  0  0  0  0  0
    1.7780    8.9120   22.4420 N   0  0  0  0  0  0  0  0  0  0  0  0
   -0.3310    8.5400   21.7620 O   0  0  0  0  0  0  0  0  0  0  0  0
    2.6920    9.2790   22.2210 H   0  0  0  0  0  0  0  0  0  0  0  0
    1.4150    9.0950   23.3690 H   0  0  0  0  0  0  0  0  0  0  0  0
    0.5960   10.9530   19.5080 C   0  0  0  0  0  0  0  0  0  0  0  0
   -0.2910   10.7720   20.1250 H   0  0  0  0  0  0  0  0  0  0  0  0
    0.2490   11.4550   18.5970 H   0  0  0  0  0  0  0  0  0  0  0  0
    1.4580   11.8680   20.2140 N   0  0  0  0  0  0  0  0  0  0  0  0
    1.9370   13.0050   19.6290 C   0  0  0  0  0  0  0  0  0  0  0  0
    1.6280   13.3890   18.5100 O   0  0  0  0  0  0  0  0  0  0  0  0
    2.8120   13.6560   20.4610 N   0  0  0  0  0  0  0  0  0  0  0  0
    1.9940   11.4580   20.9690 H   0  0  0  0  0  0  0  0  0  0  0  0
    2.6040   13.5280   21.4400 H   0  0  0  0  0  0  0  0  0  0  0  0
    3.3300   14.9590   20.0970 C   0  0  2  0  0  0  0  0  0  0  0  0
    3.3190   15.1680   18.5690 C   0  0  0  0  0  0  0  0  0  0  0  0
    4.6650   14.6520   18.0360 C   0  0  0  0  0  0  0  0  0  0  0  0
    5.5560   14.8840   19.2140 C   0  0  0  0  0  0  0  0  0  0  0  0
    6.9410   14.8960   19.2480 C   0  0  0  0  0  0  0  0  0  0  0  0
    7.5710   15.0950   20.4790 C   0  0  0  0  0  0  0  0  0  0  0  0
    6.8170   15.2670   21.6510 C   0  0  0  0  0  0  0  0  0  0  0  0
    5.4220   15.2420   21.6090 C   0  0  0  0  0  0  0  0  0  0  0  0
    4.8030   15.0540   20.3830 C   0  0  0  0  0  0  0  0  0  0  0  0
    2.7680   15.7560   20.5950 H   0  0  0  0  0  0  0  0  0  0  0  0
    3.2530   16.2440   18.3600 H   0  0  0  0  0  0  0  0  0  0  0  0
    2.4680   14.6900   18.0710 H   0  0  0  0  0  0  0  0  0  0  0  0
    4.9830   15.2110   17.1520 H   0  0  0  0  0  0  0  0  0  0  0  0
    4.6160   13.5830   17.8060 H   0  0  0  0  0  0  0  0  0  0  0  0
    7.5260   14.7530   18.3460 H   0  0  0  0  0  0  0  0  0  0  0  0
    8.6560   15.1120   20.5320 H   0  0  0  0  0  0  0  0  0  0  0  0
    7.3240   15.4140   22.6020 H   0  0  0  0  0  0  0  0  0  0  0  0
    4.8340   15.3610   22.5150 H   0  0  0  0  0  0  0  0  0  0  0  0
  1  6  1  0  0  0  0
  2  3  1  0  0  0  0
  2  1  2  0  0  0  0
  3  4  2  0  0  0  0
  4 30  1  0  0  0  0
  4  5  1  0  0  0  0
  5 25  1  0  0  0  0
  6  5  2  0  0  0  0
  6  9  1  0  0  0  0
  7  2  1  0  0  0  0
  8  3  1  0  0  0  0
 10 15  1  0  0  0  0
 11 10  2  0  0  0  0
 11 12  1  0  0  0  0
 12 13  2  0  0  0  0
 13 14  1  0  0  0  0
 13 18  1  0  0  0  0
 14  1  1  0  0  0  0
 15 19  1  0  0  0  0
 15 14  2  0  0  0  0
 16 11  1  0  0  0  0
 17 12  1  0  0  0  0
 20 10  1  0  0  0  0
 20 21  1  0  0  0  0
 21 23  1  0  0  0  0
 21 24  1  0  0  0  0
 22 21  1  0  0  0  0
 25 27  2  0  0  0  0
 25 26  1  0  0  0  0
 26 29  1  0  0  0  0
 28 26  1  0  0  0  0
 30 31  1  0  0  0  0
 30 33  1  0  0  0  0
 32 30  1  0  0  0  0
 33 37  1  0  0  0  0
 34 33  1  0  0  0  0
 34 36  1  0  0  0  0
 35 34  2  0  0  0  0
 36 38  1  0  0  0  0
 39 47  1  0  0  0  0
 39 36  1  0  0  0  0
 39 48  1  1  0  0  0
 40 39  1  0  0  0  0
 41 40  1  0  0  0  0
 41 42  1  0  0  0  0
 42 43  2  0  0  0  0
 42 47  1  0  0  0  0
 43 44  1  0  0  0  0
 44 54  1  0  0  0  0
 44 45  2  0  0  0  0
 45 55  1  0  0  0  0
 46 45  1  0  0  0  0
 46 56  1  0  0  0  0
 47 46  2  0  0  0  0
 49 40  1  0  0  0  0
 50 40  1  0  0  0  0
 51 41  1  0  0  0  0
 52 41  1  0  0  0  0
 53 43  1  0  0  0  0
M  END
>  <MODEL>
14

>  <REMARK>
 VINA RESULT:    -7.519      4.054      9.426
 INTER + INTRA:         -10.635
 INTER:                 -10.748
 INTRA:                   0.113
 UNBOUND:                -0.259
  Name = 
  7 active torsions:
  status: ('A' for Active; 'I' for Inactive)
    1  A    between atoms: C_1  and  O_2
    2  A    between atoms: O_2  and  C_3
    3  A    between atoms: C_7  and  C_8
    4  A    between atoms: C_11  and  C_12
    5  A    between atoms: C_12  and  N_13
    6  A    between atoms: N_16  and  C_17
    7  A    between atoms: C_26  and  C_27
                            x       y       z     vdW  Elec       q    Type
                         _______ _______ _______ _____ _____    ______ ____

>  <TORSDO>
F 7

$$$$
=
 OpenBabel07192307433D

 56 59  0  0  1  0  0  0  0  0999 V2000
    5.5980    4.3590   15.7950 C   0  0  0  0  0  0  0  0  0  0  0  0
    6.0940    5.2980   16.7040 C   0  0  0  0  0  0  0  0  0  0  0  0
    5.5900    5.3740   18.0050 C   0  0  0  0  0  0  0  0  0  0  0  0
    4.5750    4.5060   18.4490 C   0  0  0  0  0  0  0  0  0  0  0  0
    4.0880    3.5370   17.5490 C   0  0  0  0  0  0  0  0  0  0  0  0
    4.5910    3.4840   16.2330 C   0  0  0  0  0  0  0  0  0  0  0  0
    6.8890    5.9810   16.4090 H   0  0  0  0  0  0  0  0  0  0  0  0
    6.0080    6.1170   18.6840 H   0  0  0  0  0  0  0  0  0  0  0  0
    4.1740    2.7760   15.5210 H   0  0  0  0  0  0  0  0  0  0  0  0
    7.5950    5.1340   12.6690 C   0  0  0  0  0  0  0  0  0  0  0  0
    7.1000    4.1660   11.7950 C   0  0  0  0  0  0  0  0  0  0  0  0
    6.1250    3.2630   12.2140 C   0  0  0  0  0  0  0  0  0  0  0  0
    5.6350    3.3270   13.5180 C   0  0  0  0  0  0  0  0  0  0  0  0
    6.1140    4.2910   14.4190 C   0  0  0  0  0  0  0  0  0  0  0  0
    7.1010    5.1930   13.9750 C   0  0  0  0  0  0  0  0  0  0  0  0
    7.4820    4.1140   10.7770 H   0  0  0  0  0  0  0  0  0  0  0  0
    5.7510    2.5100   11.5260 H   0  0  0  0  0  0  0  0  0  0  0  0
    4.8850    2.6060   13.8340 H   0  0  0  0  0  0  0  0  0  0  0  0
    7.4630    5.9420   14.6730 H   0  0  0  0  0  0  0  0  0  0  0  0
    8.5480    5.9550   12.1320 O   0  0  0  0  0  0  0  0  0  0  0  0
    9.6990    6.2110   12.9250 C   0  0  0  0  0  0  0  0  0  0  0  0
    9.9030    7.2860   12.9890 H   0  0  0  0  0  0  0  0  0  0  0  0
    9.4950    5.8510   13.9380 H   0  0  0  0  0  0  0  0  0  0  0  0
   10.5690    5.6650   12.5460 H   0  0  0  0  0  0  0  0  0  0  0  0
    3.0350    2.5540   17.9480 C   0  0  0  0  0  0  0  0  0  0  0  0
    1.7330    2.9520   17.8100 N   0  0  0  0  0  0  0  0  0  0  0  0
    3.2910    1.4210   18.3330 O   0  0  0  0  0  0  0  0  0  0  0  0
    1.4750    3.7470   17.2410 H   0  0  0  0  0  0  0  0  0  0  0  0
    1.0280    2.2430   17.9630 H   0  0  0  0  0  0  0  0  0  0  0  0
    4.0580    4.6870   19.8590 C   0  0  0  0  0  0  0  0  0  0  0  0
    4.8650    4.4930   20.5730 H   0  0  0  0  0  0  0  0  0  0  0  0
    3.2650    3.9610   20.0760 H   0  0  0  0  0  0  0  0  0  0  0  0
    3.5320    6.0040   20.1190 N   0  0  0  0  0  0  0  0  0  0  0  0
    2.3720    6.4450   19.5470 C   0  0  0  0  0  0  0  0  0  0  0  0
    1.6460    5.7580   18.8430 O   0  0  0  0  0  0  0  0  0  0  0  0
    2.1340    7.7570   19.8650 N   0  0  0  0  0  0  0  0  0  0  0  0
    4.2190    6.6950   20.3960 H   0  0  0  0  0  0  0  0  0  0  0  0
    2.4940    8.0220   20.7700 H   0  0  0  0  0  0  0  0  0  0  0  0
    0.8850    8.3840   19.4800 C   0  0  2  0  0  0  0  0  0  0  0  0
    1.0960    9.4380   18.3750 C   0  0  0  0  0  0  0  0  0  0  0  0
    1.3740   10.7760   19.0780 C   0  0  0  0  0  0  0  0  0  0  0  0
    0.6220   10.5970   20.3580 C   0  0  0  0  0  0  0  0  0  0  0  0
    0.2510   11.5690   21.2730 C   0  0  0  0  0  0  0  0  0  0  0  0
   -0.4170   11.1660   22.4310 C   0  0  0  0  0  0  0  0  0  0  0  0
   -0.6940    9.8090   22.6650 C   0  0  0  0  0  0  0  0  0  0  0  0
   -0.3060    8.8360   21.7430 C   0  0  0  0  0  0  0  0  0  0  0  0
    0.3480    9.2440   20.5900 C   0  0  0  0  0  0  0  0  0  0  0  0
    0.1550    7.6330   19.1580 H   0  0  0  0  0  0  0  0  0  0  0  0
    0.1650    9.5360   17.7990 H   0  0  0  0  0  0  0  0  0  0  0  0
    1.8870    9.1720   17.6660 H   0  0  0  0  0  0  0  0  0  0  0  0
    1.0050   11.6190   18.4890 H   0  0  0  0  0  0  0  0  0  0  0  0
    2.4430   10.9000   19.2830 H   0  0  0  0  0  0  0  0  0  0  0  0
    0.4740   12.6160   21.1000 H   0  0  0  0  0  0  0  0  0  0  0  0
   -0.7220   11.9090   23.1630 H   0  0  0  0  0  0  0  0  0  0  0  0
   -1.2090    9.5130   23.5760 H   0  0  0  0  0  0  0  0  0  0  0  0
   -0.5060    7.7830   21.9250 H   0  0  0  0  0  0  0  0  0  0  0  0
  1  6  2  0  0  0  0
  1  2  1  0  0  0  0
  2  3  2  0  0  0  0
  3  4  1  0  0  0  0
  3  8  1  0  0  0  0
  4 30  1  0  0  0  0
  5 25  1  0  0  0  0
  5  4  2  0  0  0  0
  6  5  1  0  0  0  0
  7  2  1  0  0  0  0
  9  6  1  0  0  0  0
 10 15  1  0  0  0  0
 11 12  1  0  0  0  0
 11 10  2  0  0  0  0
 12 13  2  0  0  0  0
 13 18  1  0  0  0  0
 13 14  1  0  0  0  0
 14  1  1  0  0  0  0
 15 14  2  0  0  0  0
 15 19  1  0  0  0  0
 16 11  1  0  0  0  0
 17 12  1  0  0  0  0
 20 10  1  0  0  0  0
 20 21  1  0  0  0  0
 21 22  1  0  0  0  0
 21 23  1  0  0  0  0
 24 21  1  0  0  0  0
 25 27  2  0  0  0  0
 26 25  1  0  0  0  0
 26 29  1  0  0  0  0
 28 26  1  0  0  0  0
 30 32  1  0  0  0  0
 30 33  1  0  0  0  0
 30 31  1  0  0  0  0
 33 37  1  0  0  0  0
 34 36  1  0  0  0  0
 34 33  1  0  0  0  0
 35 34  2  0  0  0  0
 36 38  1  0  0  0  0
 39 48  1  6  0  0  0
 39 36  1  0  0  0  0
 39 47  1  0  0  0  0
 40 41  1  0  0  0  0
 40 39  1  0  0  0  0
 41 52  1  0  0  0  0
 41 42  1  0  0  0  0
 42 47  2  0  0  0  0
 42 43  1  0  0  0  0
 43 44  2  0  0  0  0
 44 45  1  0  0  0  0
 44 54  1  0  0  0  0
 45 55  1  0  0  0  0
 46 56  1  0  0  0  0
 46 45  2  0  0  0  0
 47 46  1  0  0  0  0
 49 40  1  0  0  0  0
 50 40  1  0  0  0  0
 51 41  1  0  0  0  0
 53 43  1  0  0  0  0
M  END
>  <MODEL>
15

>  <REMARK>
 VINA RESULT:    -7.474      2.749     10.671
 INTER + INTRA:         -10.573
 INTER:                  -9.301
 INTRA:                  -1.272
 UNBOUND:                -0.259
  Name = 
  7 active torsions:
  status: ('A' for Active; 'I' for Inactive)
    1  A    between atoms: C_1  and  O_2
    2  A    between atoms: O_2  and  C_3
    3  A    between atoms: C_7  and  C_8
    4  A    between atoms: C_11  and  C_12
    5  A    between atoms: C_12  and  N_13
    6  A    between atoms: N_16  and  C_17
    7  A    between atoms: C_26  and  C_27
                            x       y       z     vdW  Elec       q    Type
                         _______ _______ _______ _____ _____    ______ ____

>  <TORSDO>
F 7

$$$$
=
 OpenBabel07192307433D

 56 59  0  0  1  0  0  0  0  0999 V2000
   -1.4920   10.4140   18.7300 C   0  0  0  0  0  0  0  0  0  0  0  0
   -0.3060    9.8910   18.2060 C   0  0  0  0  0  0  0  0  0  0  0  0
    0.7480    9.5210   19.0440 C   0  0  0  0  0  0  0  0  0  0  0  0
    0.6510    9.6500   20.4420 C   0  0  0  0  0  0  0  0  0  0  0  0
   -0.5510   10.1500   20.9830 C   0  0  0  0  0  0  0  0  0  0  0  0
   -1.5980   10.5390   20.1240 C   0  0  0  0  0  0  0  0  0  0  0  0
   -0.1920    9.7600   17.1310 H   0  0  0  0  0  0  0  0  0  0  0  0
    1.6530    9.1120   18.5950 H   0  0  0  0  0  0  0  0  0  0  0  0
   -2.5030   10.9790   20.5370 H   0  0  0  0  0  0  0  0  0  0  0  0
   -3.6240   10.8800   15.6320 C   0  0  0  0  0  0  0  0  0  0  0  0
   -4.6950   11.6040   16.1570 C   0  0  0  0  0  0  0  0  0  0  0  0
   -4.7300   11.9400   17.5090 C   0  0  0  0  0  0  0  0  0  0  0  0
   -3.6850   11.5520   18.3470 C   0  0  0  0  0  0  0  0  0  0  0  0
   -2.5950   10.8230   17.8460 C   0  0  0  0  0  0  0  0  0  0  0  0
   -2.5800   10.4930   16.4770 C   0  0  0  0  0  0  0  0  0  0  0  0
   -5.5130   11.9060   15.5050 H   0  0  0  0  0  0  0  0  0  0  0  0
   -5.5720   12.4990   17.9080 H   0  0  0  0  0  0  0  0  0  0  0  0
   -3.7340   11.8090   19.4030 H   0  0  0  0  0  0  0  0  0  0  0  0
   -1.7310    9.9370   16.0920 H   0  0  0  0  0  0  0  0  0  0  0  0
   -3.7150   10.6170   14.2930 O   0  0  0  0  0  0  0  0  0  0  0  0
   -2.7680    9.7080   13.7490 C   0  0  0  0  0  0  0  0  0  0  0  0
   -1.8990    9.6010   14.4070 H   0  0  0  0  0  0  0  0  0  0  0  0
   -3.2490    8.7280   13.6730 H   0  0  0  0  0  0  0  0  0  0  0  0
   -2.4670   10.0090   12.7400 H   0  0  0  0  0  0  0  0  0  0  0  0
   -0.7510   10.2890   22.4570 C   0  0  0  0  0  0  0  0  0  0  0  0
   -0.7680    9.1340   23.1910 N   0  0  0  0  0  0  0  0  0  0  0  0
   -0.8440   11.3730   23.0180 O   0  0  0  0  0  0  0  0  0  0  0  0
   -0.4170    8.2620   22.8220 H   0  0  0  0  0  0  0  0  0  0  0  0
   -0.7800    9.2420   24.1980 H   0  0  0  0  0  0  0  0  0  0  0  0
    1.8560    9.2650   21.2720 C   0  0  0  0  0  0  0  0  0  0  0  0
    1.6090    9.3400   22.3360 H   0  0  0  0  0  0  0  0  0  0  0  0
    2.6870    9.9590   21.0930 H   0  0  0  0  0  0  0  0  0  0  0  0
    2.3360    7.9300   21.0140 N   0  0  0  0  0  0  0  0  0  0  0  0
    1.5000    6.8500   21.0140 C   0  0  0  0  0  0  0  0  0  0  0  0
    0.2860    6.9160   21.1490 O   0  0  0  0  0  0  0  0  0  0  0  0
    2.2010    5.6830   20.8450 N   0  0  0  0  0  0  0  0  0  0  0  0
    3.3130    7.7750   21.2270 H   0  0  0  0  0  0  0  0  0  0  0  0
    3.0360    5.7950   20.2890 H   0  0  0  0  0  0  0  0  0  0  0  0
    1.4970    4.4290   20.6730 C   0  0  2  0  0  0  0  0  0  0  0  0
    1.8530    3.4200   21.7820 C   0  0  0  0  0  0  0  0  0  0  0  0
    3.0750    2.6270   21.2920 C   0  0  0  0  0  0  0  0  0  0  0  0
    2.8800    2.6730   19.8100 C   0  0  0  0  0  0  0  0  0  0  0  0
    3.4900    1.8900   18.8440 C   0  0  0  0  0  0  0  0  0  0  0  0
    3.1850    2.1370   17.5030 C   0  0  0  0  0  0  0  0  0  0  0  0
    2.2920    3.1610   17.1480 C   0  0  0  0  0  0  0  0  0  0  0  0
    1.6920    3.9520   18.1280 C   0  0  0  0  0  0  0  0  0  0  0  0
    1.9910    3.6960   19.4570 C   0  0  0  0  0  0  0  0  0  0  0  0
    0.4140    4.5910   20.6370 H   0  0  0  0  0  0  0  0  0  0  0  0
    1.0140    2.7220   21.9080 H   0  0  0  0  0  0  0  0  0  0  0  0
    2.0300    3.8890   22.7560 H   0  0  0  0  0  0  0  0  0  0  0  0
    3.0700    1.6060   21.6840 H   0  0  0  0  0  0  0  0  0  0  0  0
    4.0080    3.1290   21.5650 H   0  0  0  0  0  0  0  0  0  0  0  0
    4.1880    1.1060   19.1150 H   0  0  0  0  0  0  0  0  0  0  0  0
    3.6470    1.5340   16.7260 H   0  0  0  0  0  0  0  0  0  0  0  0
    2.0720    3.3430   16.0980 H   0  0  0  0  0  0  0  0  0  0  0  0
    1.0110    4.7550   17.8570 H   0  0  0  0  0  0  0  0  0  0  0  0
  1  6  1  0  0  0  0
  2  1  2  0  0  0  0
  2  3  1  0  0  0  0
  3  4  2  0  0  0  0
  4  5  1  0  0  0  0
  4 30  1  0  0  0  0
  5 25  1  0  0  0  0
  6  9  1  0  0  0  0
  6  5  2  0  0  0  0
  7  2  1  0  0  0  0
  8  3  1  0  0  0  0
 10 11  2  0  0  0  0
 10 15  1  0  0  0  0
 11 12  1  0  0  0  0
 12 17  1  0  0  0  0
 12 13  2  0  0  0  0
 13 18  1  0  0  0  0
 14 13  1  0  0  0  0
 14  1  1  0  0  0  0
 15 14  2  0  0  0  0
 16 11  1  0  0  0  0
 19 15  1  0  0  0  0
 20 10  1  0  0  0  0
 21 20  1  0  0  0  0
 21 22  1  0  0  0  0
 23 21  1  0  0  0  0
 24 21  1  0  0  0  0
 25 27  2  0  0  0  0
 25 26  1  0  0  0  0
 26 29  1  0  0  0  0
 28 26  1  0  0  0  0
 30 31  1  0  0  0  0
 32 30  1  0  0  0  0
 33 34  1  0  0  0  0
 33 37  1  0  0  0  0
 33 30  1  0  0  0  0
 34 35  2  0  0  0  0
 36 34  1  0  0  0  0
 38 36  1  0  0  0  0
 39 48  1  6  0  0  0
 39 36  1  0  0  0  0
 39 40  1  0  0  0  0
 40 49  1  0  0  0  0
 40 50  1  0  0  0  0
 41 52  1  0  0  0  0
 41 51  1  0  0  0  0
 41 40  1  0  0  0  0
 42 41  1  0  0  0  0
 43 53  1  0  0  0  0
 43 42  2  0  0  0  0
 44 43  1  0  0  0  0
 45 44  2  0  0  0  0
 45 46  1  0  0  0  0
 46 47  2  0  0  0  0
 47 42  1  0  0  0  0
 47 39  1  0  0  0  0
 54 44  1  0  0  0  0
 55 45  1  0  0  0  0
 56 46  1  0  0  0  0
M  END
>  <MODEL>
16

>  <REMARK>
 VINA RESULT:    -7.470      3.684      5.462
 INTER + INTRA:         -10.567
 INTER:                 -10.008
 INTRA:                  -0.560
 UNBOUND:                -0.259
  Name = 
  7 active torsions:
  status: ('A' for Active; 'I' for Inactive)
    1  A    between atoms: C_1  and  O_2
    2  A    between atoms: O_2  and  C_3
    3  A    between atoms: C_7  and  C_8
    4  A    between atoms: C_11  and  C_12
    5  A    between atoms: C_12  and  N_13
    6  A    between atoms: N_16  and  C_17
    7  A    between atoms: C_26  and  C_27
                            x       y       z     vdW  Elec       q    Type
                         _______ _______ _______ _____ _____    ______ ____

>  <TORSDO>
F 7

$$$$
=
 OpenBabel07192307433D

 56 59  0  0  1  0  0  0  0  0999 V2000
    0.4500   11.8790   20.6580 C   0  0  0  0  0  0  0  0  0  0  0  0
    0.7350   12.0410   19.2980 C   0  0  0  0  0  0  0  0  0  0  0  0
    1.0100   10.9390   18.4860 C   0  0  0  0  0  0  0  0  0  0  0  0
    1.0020    9.6290   19.0020 C   0  0  0  0  0  0  0  0  0  0  0  0
    0.6880    9.4530   20.3640 C   0  0  0  0  0  0  0  0  0  0  0  0
    0.4330   10.5750   21.1770 C   0  0  0  0  0  0  0  0  0  0  0  0
    0.7390   13.0350   18.8530 H   0  0  0  0  0  0  0  0  0  0  0  0
    1.2220   11.1090   17.4310 H   0  0  0  0  0  0  0  0  0  0  0  0
    0.2490   10.4440   22.2410 H   0  0  0  0  0  0  0  0  0  0  0  0
   -1.1900   14.1510   23.2090 C   0  0  0  0  0  0  0  0  0  0  0  0
   -0.3390   15.2560   23.1620 C   0  0  0  0  0  0  0  0  0  0  0  0
    0.7640   15.2670   22.3090 C   0  0  0  0  0  0  0  0  0  0  0  0
    1.0190   14.1670   21.4920 C   0  0  0  0  0  0  0  0  0  0  0  0
    0.1800   13.0410   21.5190 C   0  0  0  0  0  0  0  0  0  0  0  0
   -0.9270   13.0500   22.3890 C   0  0  0  0  0  0  0  0  0  0  0  0
   -0.5360   16.1150   23.8000 H   0  0  0  0  0  0  0  0  0  0  0  0
    1.4230   16.1310   22.2850 H   0  0  0  0  0  0  0  0  0  0  0  0
    1.8920   14.1840   20.8440 H   0  0  0  0  0  0  0  0  0  0  0  0
   -1.5790   12.1820   22.4000 H   0  0  0  0  0  0  0  0  0  0  0  0
   -2.2310   14.2700   24.0880 O   0  0  0  0  0  0  0  0  0  0  0  0
   -3.3580   13.4320   23.8690 C   0  0  0  0  0  0  0  0  0  0  0  0
   -3.3750   12.5990   24.5790 H   0  0  0  0  0  0  0  0  0  0  0  0
   -4.2580   14.0310   24.0390 H   0  0  0  0  0  0  0  0  0  0  0  0
   -3.3880   13.0730   22.8360 H   0  0  0  0  0  0  0  0  0  0  0  0
    0.6250    8.0950   20.9850 C   0  0  0  0  0  0  0  0  0  0  0  0
   -0.5790    7.7110   21.5110 N   0  0  0  0  0  0  0  0  0  0  0  0
    1.5710    7.3200   20.9930 O   0  0  0  0  0  0  0  0  0  0  0  0
   -1.4390    8.1870   21.2790 H   0  0  0  0  0  0  0  0  0  0  0  0
   -0.6490    6.7490   21.8180 H   0  0  0  0  0  0  0  0  0  0  0  0
    1.3530    8.4980   18.0600 C   0  0  0  0  0  0  0  0  0  0  0  0
    1.1700    8.8100   17.0270 H   0  0  0  0  0  0  0  0  0  0  0  0
    0.7100    7.6280   18.2450 H   0  0  0  0  0  0  0  0  0  0  0  0
    2.7230    8.0620   18.1640 N   0  0  0  0  0  0  0  0  0  0  0  0
    3.0590    6.7390   18.2090 C   0  0  0  0  0  0  0  0  0  0  0  0
    2.2610    5.8200   18.0890 O   0  0  0  0  0  0  0  0  0  0  0  0
    4.4060    6.5790   18.4100 N   0  0  0  0  0  0  0  0  0  0  0  0
    3.3560    8.7280   18.5900 H   0  0  0  0  0  0  0  0  0  0  0  0
    4.9610    7.3240   18.0170 H   0  0  0  0  0  0  0  0  0  0  0  0
    4.9990    5.2580   18.3480 C   0  0  2  0  0  0  0  0  0  0  0  0
    6.3130    5.1870   19.1520 C   0  0  0  0  0  0  0  0  0  0  0  0
    7.4480    5.5750   18.1920 C   0  0  0  0  0  0  0  0  0  0  0  0
    6.8870    5.1310   16.8790 C   0  0  0  0  0  0  0  0  0  0  0  0
    7.5590    4.9440   15.6830 C   0  0  0  0  0  0  0  0  0  0  0  0
    6.8200    4.5600   14.5610 C   0  0  0  0  0  0  0  0  0  0  0  0
    5.4300    4.3820   14.6450 C   0  0  0  0  0  0  0  0  0  0  0  0
    4.7600    4.5850   15.8520 C   0  0  0  0  0  0  0  0  0  0  0  0
    5.5000    4.9550   16.9640 C   0  0  0  0  0  0  0  0  0  0  0  0
    4.2940    4.4970   18.7010 H   0  0  0  0  0  0  0  0  0  0  0  0
    6.4730    4.1500   19.4770 H   0  0  0  0  0  0  0  0  0  0  0  0
    6.3050    5.8090   20.0540 H   0  0  0  0  0  0  0  0  0  0  0  0
    8.3780    5.0600   18.4470 H   0  0  0  0  0  0  0  0  0  0  0  0
    7.6080    6.6580   18.1860 H   0  0  0  0  0  0  0  0  0  0  0  0
    8.6320    5.0910   15.6120 H   0  0  0  0  0  0  0  0  0  0  0  0
    7.3250    4.4030   13.6110 H   0  0  0  0  0  0  0  0  0  0  0  0
    4.8700    4.0900   13.7600 H   0  0  0  0  0  0  0  0  0  0  0  0
    3.6810    4.4610   15.9190 H   0  0  0  0  0  0  0  0  0  0  0  0
  1  6  1  0  0  0  0
  1 14  1  0  0  0  0
  2  1  2  0  0  0  0
  3  4  2  0  0  0  0
  3  2  1  0  0  0  0
  4  5  1  0  0  0  0
  5 25  1  0  0  0  0
  5  6  2  0  0  0  0
  6  9  1  0  0  0  0
  7  2  1  0  0  0  0
  8  3  1  0  0  0  0
 10 20  1  0  0  0  0
 11 10  1  0  0  0  0
 11 16  1  0  0  0  0
 12 11  2  0  0  0  0
 13 14  2  0  0  0  0
 13 12  1  0  0  0  0
 14 15  1  0  0  0  0
 15 19  1  0  0  0  0
 15 10  2  0  0  0  0
 17 12  1  0  0  0  0
 18 13  1  0  0  0  0
 21 23  1  0  0  0  0
 21 20  1  0  0  0  0
 21 22  1  0  0  0  0
 24 21  1  0  0  0  0
 25 27  2  0  0  0  0
 25 26  1  0  0  0  0
 26 29  1  0  0  0  0
 28 26  1  0  0  0  0
 30 33  1  0  0  0  0
 30 32  1  0  0  0  0
 30  4  1  0  0  0  0
 31 30  1  0  0  0  0
 33 34  1  0  0  0  0
 33 37  1  0  0  0  0
 34 36  1  0  0  0  0
 35 34  2  0  0  0  0
 38 36  1  0  0  0  0
 39 36  1  0  0  0  0
 39 48  1  1  0  0  0
 39 40  1  0  0  0  0
 40 49  1  0  0  0  0
 40 50  1  0  0  0  0
 41 51  1  0  0  0  0
 41 40  1  0  0  0  0
 42 47  1  0  0  0  0
 42 41  1  0  0  0  0
 43 42  2  0  0  0  0
 44 45  2  0  0  0  0
 44 43  1  0  0  0  0
 45 46  1  0  0  0  0
 46 56  1  0  0  0  0
 46 47  2  0  0  0  0
 47 39  1  0  0  0  0
 52 41  1  0  0  0  0
 53 43  1  0  0  0  0
 54 44  1  0  0  0  0
 55 45  1  0  0  0  0
M  END
>  <MODEL>
17

>  <REMARK>
 VINA RESULT:    -7.384      1.418      2.032
 INTER + INTRA:         -10.448
 INTER:                  -9.449
 INTRA:                  -1.000
 UNBOUND:                -0.259
  Name = 
  7 active torsions:
  status: ('A' for Active; 'I' for Inactive)
    1  A    between atoms: C_1  and  O_2
    2  A    between atoms: O_2  and  C_3
    3  A    between atoms: C_7  and  C_8
    4  A    between atoms: C_11  and  C_12
    5  A    between atoms: C_12  and  N_13
    6  A    between atoms: N_16  and  C_17
    7  A    between atoms: C_26  and  C_27
                            x       y       z     vdW  Elec       q    Type
                         _______ _______ _______ _____ _____    ______ ____

>  <TORSDO>
F 7

$$$$
=
 OpenBabel07192307433D

 56 59  0  0  1  0  0  0  0  0999 V2000
   -0.5090   11.5270   20.6470 C   0  0  0  0  0  0  0  0  0  0  0  0
    0.7800   10.9870   20.6430 C   0  0  0  0  0  0  0  0  0  0  0  0
    1.1930   10.1240   19.6250 C   0  0  0  0  0  0  0  0  0  0  0  0
    0.3330    9.7740   18.5680 C   0  0  0  0  0  0  0  0  0  0  0  0
   -0.9590   10.3350   18.5480 C   0  0  0  0  0  0  0  0  0  0  0  0
   -1.3700   11.1890   19.5910 C   0  0  0  0  0  0  0  0  0  0  0  0
    1.4840   11.2410   21.4340 H   0  0  0  0  0  0  0  0  0  0  0  0
    2.2090    9.7290   19.6560 H   0  0  0  0  0  0  0  0  0  0  0  0
   -2.3870   11.5750   19.6080 H   0  0  0  0  0  0  0  0  0  0  0  0
   -2.5430   12.9780   23.4970 C   0  0  0  0  0  0  0  0  0  0  0  0
   -1.8020   14.1230   23.7920 C   0  0  0  0  0  0  0  0  0  0  0  0
   -0.6460   14.4250   23.0730 C   0  0  0  0  0  0  0  0  0  0  0  0
   -0.2260   13.5800   22.0480 C   0  0  0  0  0  0  0  0  0  0  0  0
   -0.9520   12.4210   21.7290 C   0  0  0  0  0  0  0  0  0  0  0  0
   -2.1160   12.1330   22.4680 C   0  0  0  0  0  0  0  0  0  0  0  0
   -2.1270   14.7840   24.5930 H   0  0  0  0  0  0  0  0  0  0  0  0
   -0.0740   15.3170   23.3160 H   0  0  0  0  0  0  0  0  0  0  0  0
    0.6860   13.8210   21.5060 H   0  0  0  0  0  0  0  0  0  0  0  0
   -2.6790   11.2410   22.2130 H   0  0  0  0  0  0  0  0  0  0  0  0
   -3.6520   12.8000   24.2770 O   0  0  0  0  0  0  0  0  0  0  0  0
   -4.8280   13.5000   23.8950 C   0  0  0  0  0  0  0  0  0  0  0  0
   -5.0690   13.3220   22.8420 H   0  0  0  0  0  0  0  0  0  0  0  0
   -5.6580   13.1120   24.4950 H   0  0  0  0  0  0  0  0  0  0  0  0
   -4.7370   14.5700   24.1060 H   0  0  0  0  0  0  0  0  0  0  0  0
   -1.9250   10.0440   17.4450 C   0  0  0  0  0  0  0  0  0  0  0  0
   -3.0760    9.3880   17.7880 N   0  0  0  0  0  0  0  0  0  0  0  0
   -1.7480   10.4080   16.2900 O   0  0  0  0  0  0  0  0  0  0  0  0
   -3.3890    9.3250   18.7460 H   0  0  0  0  0  0  0  0  0  0  0  0
   -3.7780    9.3040   17.0630 H   0  0  0  0  0  0  0  0  0  0  0  0
    0.8480    8.7990   17.5320 C   0  0  0  0  0  0  0  0  0  0  0  0
    0.8820    9.2880   16.5520 H   0  0  0  0  0  0  0  0  0  0  0  0
    0.1680    7.9440   17.4340 H   0  0  0  0  0  0  0  0  0  0  0  0
    2.1630    8.2830   17.8240 N   0  0  0  0  0  0  0  0  0  0  0  0
    2.3970    6.9460   17.9740 C   0  0  0  0  0  0  0  0  0  0  0  0
    1.5570    6.0740   17.8020 O   0  0  0  0  0  0  0  0  0  0  0  0
    3.6960    6.7120   18.3470 N   0  0  0  0  0  0  0  0  0  0  0  0
    2.7850    8.9310   18.2920 H   0  0  0  0  0  0  0  0  0  0  0  0
    4.3450    7.3970   17.9900 H   0  0  0  0  0  0  0  0  0  0  0  0
    4.1980    5.3550   18.4230 C   0  0  2  0  0  0  0  0  0  0  0  0
    5.2530    5.2010   19.5370 C   0  0  0  0  0  0  0  0  0  0  0  0
    6.6200    5.5100   18.9070 C   0  0  0  0  0  0  0  0  0  0  0  0
    6.3890    5.0980   17.4880 C   0  0  0  0  0  0  0  0  0  0  0  0
    7.3330    4.8620   16.5020 C   0  0  0  0  0  0  0  0  0  0  0  0
    6.8850    4.5240   15.2230 C   0  0  0  0  0  0  0  0  0  0  0  0
    5.5110    4.4380   14.9440 C   0  0  0  0  0  0  0  0  0  0  0  0
    4.5670    4.6890   15.9410 C   0  0  0  0  0  0  0  0  0  0  0  0
    5.0180    5.0140   17.2100 C   0  0  0  0  0  0  0  0  0  0  0  0
    3.3790    4.6430   18.5720 H   0  0  0  0  0  0  0  0  0  0  0  0
    5.2570    4.1570   19.8780 H   0  0  0  0  0  0  0  0  0  0  0  0
    5.0530    5.8260   20.4140 H   0  0  0  0  0  0  0  0  0  0  0  0
    7.4180    4.9360   19.3850 H   0  0  0  0  0  0  0  0  0  0  0  0
    6.8460    6.5800   18.9560 H   0  0  0  0  0  0  0  0  0  0  0  0
    8.3950    4.9390   16.7120 H   0  0  0  0  0  0  0  0  0  0  0  0
    7.6060    4.3300   14.4330 H   0  0  0  0  0  0  0  0  0  0  0  0
    5.1800    4.1800   13.9410 H   0  0  0  0  0  0  0  0  0  0  0  0
    3.5020    4.6370   15.7260 H   0  0  0  0  0  0  0  0  0  0  0  0
  1 14  1  0  0  0  0
  2  1  1  0  0  0  0
  2  7  1  0  0  0  0
  3  8  1  0  0  0  0
  3  2  2  0  0  0  0
  4  3  1  0  0  0  0
  5  4  2  0  0  0  0
  5  6  1  0  0  0  0
  6  9  1  0  0  0  0
  6  1  2  0  0  0  0
 10 11  1  0  0  0  0
 10 20  1  0  0  0  0
 11 16  1  0  0  0  0
 12 17  1  0  0  0  0
 12 11  2  0  0  0  0
 13 12  1  0  0  0  0
 14 13  2  0  0  0  0
 14 15  1  0  0  0  0
 15 10  2  0  0  0  0
 18 13  1  0  0  0  0
 19 15  1  0  0  0  0
 21 24  1  0  0  0  0
 21 20  1  0  0  0  0
 21 23  1  0  0  0  0
 22 21  1  0  0  0  0
 25 26  1  0  0  0  0
 25  5  1  0  0  0  0
 26 28  1  0  0  0  0
 27 25  2  0  0  0  0
 29 26  1  0  0  0  0
 30 33  1  0  0  0  0
 30  4  1  0  0  0  0
 31 30  1  0  0  0  0
 32 30  1  0  0  0  0
 33 34  1  0  0  0  0
 33 37  1  0  0  0  0
 34 36  1  0  0  0  0
 35 34  2  0  0  0  0
 36 39  1  0  0  0  0
 38 36  1  0  0  0  0
 39 48  1  1  0  0  0
 39 40  1  0  0  0  0
 40 49  1  0  0  0  0
 40 50  1  0  0  0  0
 41 52  1  0  0  0  0
 41 51  1  0  0  0  0
 41 40  1  0  0  0  0
 42 41  1  0  0  0  0
 43 53  1  0  0  0  0
 43 42  2  0  0  0  0
 44 43  1  0  0  0  0
 45 44  2  0  0  0  0
 45 46  1  0  0  0  0
 46 47  2  0  0  0  0
 47 42  1  0  0  0  0
 47 39  1  0  0  0  0
 54 44  1  0  0  0  0
 55 45  1  0  0  0  0
 56 46  1  0  0  0  0
M  END
>  <MODEL>
18

>  <REMARK>
 VINA RESULT:    -7.369      1.741      2.055
 INTER + INTRA:         -10.428
 INTER:                  -9.516
 INTRA:                  -0.911
 UNBOUND:                -0.259
  Name = 
  7 active torsions:
  status: ('A' for Active; 'I' for Inactive)
    1  A    between atoms: C_1  and  O_2
    2  A    between atoms: O_2  and  C_3
    3  A    between atoms: C_7  and  C_8
    4  A    between atoms: C_11  and  C_12
    5  A    between atoms: C_12  and  N_13
    6  A    between atoms: N_16  and  C_17
    7  A    between atoms: C_26  and  C_27
                            x       y       z     vdW  Elec       q    Type
                         _______ _______ _______ _____ _____    ______ ____

>  <TORSDO>
F 7

$$$$
=
 OpenBabel07192307433D

 56 59  0  0  1  0  0  0  0  0999 V2000
    3.9200    5.7000   17.6870 C   0  0  0  0  0  0  0  0  0  0  0  0
    3.8000    7.0930   17.7170 C   0  0  0  0  0  0  0  0  0  0  0  0
    3.0340    7.7260   18.6980 C   0  0  0  0  0  0  0  0  0  0  0  0
    2.3650    6.9900   19.6930 C   0  0  0  0  0  0  0  0  0  0  0  0
    2.5020    5.5880   19.6890 C   0  0  0  0  0  0  0  0  0  0  0  0
    3.2620    4.9600   18.6820 C   0  0  0  0  0  0  0  0  0  0  0  0
    4.3120    7.7030   16.9750 H   0  0  0  0  0  0  0  0  0  0  0  0
    2.9700    8.8140   18.6880 H   0  0  0  0  0  0  0  0  0  0  0  0
    3.3200    3.8740   18.6440 H   0  0  0  0  0  0  0  0  0  0  0  0
    6.3580    5.1310   14.8430 C   0  0  0  0  0  0  0  0  0  0  0  0
    6.2190    3.7560   14.6480 C   0  0  0  0  0  0  0  0  0  0  0  0
    5.3410    3.0140   15.4360 C   0  0  0  0  0  0  0  0  0  0  0  0
    4.5910    3.6480   16.4250 C   0  0  0  0  0  0  0  0  0  0  0  0
    4.7110    5.0300   16.6430 C   0  0  0  0  0  0  0  0  0  0  0  0
    5.6050    5.7610   15.8370 C   0  0  0  0  0  0  0  0  0  0  0  0
    6.8050    3.2590   13.8770 H   0  0  0  0  0  0  0  0  0  0  0  0
    5.2450    1.9420   15.2800 H   0  0  0  0  0  0  0  0  0  0  0  0
    3.9220    3.0520   17.0420 H   0  0  0  0  0  0  0  0  0  0  0  0
    5.6880    6.8310   16.0020 H   0  0  0  0  0  0  0  0  0  0  0  0
    7.2530    5.7380   14.0040 O   0  0  0  0  0  0  0  0  0  0  0  0
    7.5960    5.0410   12.8140 C   0  0  0  0  0  0  0  0  0  0  0  0
    6.7030    4.6500   12.3130 H   0  0  0  0  0  0  0  0  0  0  0  0
    8.0730    5.7540   12.1340 H   0  0  0  0  0  0  0  0  0  0  0  0
    8.3160    4.2420   13.0190 H   0  0  0  0  0  0  0  0  0  0  0  0
    1.8530    4.7320   20.7280 C   0  0  0  0  0  0  0  0  0  0  0  0
    0.6160    4.2270   20.4310 N   0  0  0  0  0  0  0  0  0  0  0  0
    2.3970    4.4360   21.7840 O   0  0  0  0  0  0  0  0  0  0  0  0
    0.2620    4.2070   19.4850 H   0  0  0  0  0  0  0  0  0  0  0  0
    0.2380    3.5520   21.0830 H   0  0  0  0  0  0  0  0  0  0  0  0
    1.5220    7.7550   20.6900 C   0  0  0  0  0  0  0  0  0  0  0  0
    2.1220    8.5510   21.1450 H   0  0  0  0  0  0  0  0  0  0  0  0
    1.1990    7.0990   21.5080 H   0  0  0  0  0  0  0  0  0  0  0  0
    0.3430    8.3530   20.1150 N   0  0  0  0  0  0  0  0  0  0  0  0
    0.2920    9.6770   19.7830 C   0  0  0  0  0  0  0  0  0  0  0  0
    1.2400   10.4460   19.8650 O   0  0  0  0  0  0  0  0  0  0  0  0
   -0.9610   10.0300   19.3520 N   0  0  0  0  0  0  0  0  0  0  0  0
   -0.5280    7.8840   20.3330 H   0  0  0  0  0  0  0  0  0  0  0  0
   -1.4520    9.2780   18.8920 H   0  0  0  0  0  0  0  0  0  0  0  0
   -1.1990   11.3550   18.8150 C   0  0  2  0  0  0  0  0  0  0  0  0
   -1.6350   12.3430   19.9150 C   0  0  0  0  0  0  0  0  0  0  0  0
   -3.1670   12.2690   20.0050 C   0  0  0  0  0  0  0  0  0  0  0  0
   -3.5250   11.8900   18.6030 C   0  0  0  0  0  0  0  0  0  0  0  0
   -4.7640   11.9620   17.9890 C   0  0  0  0  0  0  0  0  0  0  0  0
   -4.8770   11.5110   16.6720 C   0  0  0  0  0  0  0  0  0  0  0  0
   -3.7630   10.9890   15.9940 C   0  0  0  0  0  0  0  0  0  0  0  0
   -2.5210   10.9100   16.6250 C   0  0  0  0  0  0  0  0  0  0  0  0
   -2.4130   11.3680   17.9290 C   0  0  0  0  0  0  0  0  0  0  0  0
   -0.3120   11.7300   18.2940 H   0  0  0  0  0  0  0  0  0  0  0  0
   -1.3540   13.3600   19.6080 H   0  0  0  0  0  0  0  0  0  0  0  0
   -1.1560   12.1560   20.8830 H   0  0  0  0  0  0  0  0  0  0  0  0
   -3.5950   13.2300   20.3010 H   0  0  0  0  0  0  0  0  0  0  0  0
   -3.4860   11.4860   20.7000 H   0  0  0  0  0  0  0  0  0  0  0  0
   -5.6290   12.3540   18.5130 H   0  0  0  0  0  0  0  0  0  0  0  0
   -5.8380   11.5600   16.1660 H   0  0  0  0  0  0  0  0  0  0  0  0
   -3.8710   10.6360   14.9710 H   0  0  0  0  0  0  0  0  0  0  0  0
   -1.6590   10.4940   16.1100 H   0  0  0  0  0  0  0  0  0  0  0  0
  1  2  2  0  0  0  0
  1  6  1  0  0  0  0
  2  3  1  0  0  0  0
  3  4  2  0  0  0  0
  4 30  1  0  0  0  0
  5  4  1  0  0  0  0
  5 25  1  0  0  0  0
  6  5  2  0  0  0  0
  7  2  1  0  0  0  0
  8  3  1  0  0  0  0
  9  6  1  0  0  0  0
 10 15  1  0  0  0  0
 11 10  2  0  0  0  0
 11 12  1  0  0  0  0
 12 13  2  0  0  0  0
 13 14  1  0  0  0  0
 13 18  1  0  0  0  0
 14  1  1  0  0  0  0
 15 19  1  0  0  0  0
 15 14  2  0  0  0  0
 16 11  1  0  0  0  0
 17 12  1  0  0  0  0
 20 10  1  0  0  0  0
 21 24  1  0  0  0  0
 21 20  1  0  0  0  0
 22 21  1  0  0  0  0
 23 21  1  0  0  0  0
 25 27  2  0  0  0  0
 26 25  1  0  0  0  0
 26 29  1  0  0  0  0
 28 26  1  0  0  0  0
 30 31  1  0  0  0  0
 30 32  1  0  0  0  0
 33 37  1  0  0  0  0
 33 30  1  0  0  0  0
 34 35  2  0  0  0  0
 34 33  1  0  0  0  0
 36 34  1  0  0  0  0
 38 36  1  0  0  0  0
 39 48  1  6  0  0  0
 39 36  1  0  0  0  0
 39 40  1  0  0  0  0
 40 41  1  0  0  0  0
 40 50  1  0  0  0  0
 41 51  1  0  0  0  0
 41 52  1  0  0  0  0
 42 41  1  0  0  0  0
 43 53  1  0  0  0  0
 43 42  1  0  0  0  0
 44 43  2  0  0  0  0
 45 46  2  0  0  0  0
 45 44  1  0  0  0  0
 46 47  1  0  0  0  0
 47 42  2  0  0  0  0
 47 39  1  0  0  0  0
 49 40  1  0  0  0  0
 54 44  1  0  0  0  0
 55 45  1  0  0  0  0
 56 46  1  0  0  0  0
M  END
>  <MODEL>
19

>  <REMARK>
 VINA RESULT:    -7.342      3.156     10.390
 INTER + INTRA:         -10.390
 INTER:                  -9.430
 INTRA:                  -0.961
 UNBOUND:                -0.259
  Name = 
  7 active torsions:
  status: ('A' for Active; 'I' for Inactive)
    1  A    between atoms: C_1  and  O_2
    2  A    between atoms: O_2  and  C_3
    3  A    between atoms: C_7  and  C_8
    4  A    between atoms: C_11  and  C_12
    5  A    between atoms: C_12  and  N_13
    6  A    between atoms: N_16  and  C_17
    7  A    between atoms: C_26  and  C_27
                            x       y       z     vdW  Elec       q    Type
                         _______ _______ _______ _____ _____    ______ ____

>  <TORSDO>
F 7

$$$$
=
 OpenBabel07192307433D

 56 59  0  0  1  0  0  0  0  0999 V2000
   -0.5210   11.9760   21.1830 C   0  0  0  0  0  0  0  0  0  0  0  0
   -0.7150   10.6150   20.9250 C   0  0  0  0  0  0  0  0  0  0  0  0
    0.0270    9.9580   19.9400 C   0  0  0  0  0  0  0  0  0  0  0  0
    1.0000   10.6360   19.1820 C   0  0  0  0  0  0  0  0  0  0  0  0
    1.2230   12.0010   19.4540 C   0  0  0  0  0  0  0  0  0  0  0  0
    0.4530   12.6570   20.4350 C   0  0  0  0  0  0  0  0  0  0  0  0
   -1.4470   10.0470   21.4960 H   0  0  0  0  0  0  0  0  0  0  0  0
   -0.1510    8.8960   19.7740 H   0  0  0  0  0  0  0  0  0  0  0  0
    0.5840   13.7230   20.6040 H   0  0  0  0  0  0  0  0  0  0  0  0
   -3.4100   12.9560   23.4290 C   0  0  0  0  0  0  0  0  0  0  0  0
   -2.8380   14.0030   24.1530 C   0  0  0  0  0  0  0  0  0  0  0  0
   -1.5200   14.3910   23.9160 C   0  0  0  0  0  0  0  0  0  0  0  0
   -0.7660   13.7310   22.9470 C   0  0  0  0  0  0  0  0  0  0  0  0
   -1.3160   12.6740   22.2050 C   0  0  0  0  0  0  0  0  0  0  0  0
   -2.6490   12.2970   22.4600 C   0  0  0  0  0  0  0  0  0  0  0  0
   -3.4240   14.5190   24.9100 H   0  0  0  0  0  0  0  0  0  0  0  0
   -1.0820   15.2040   24.4890 H   0  0  0  0  0  0  0  0  0  0  0  0
    0.2660   14.0350   22.7850 H   0  0  0  0  0  0  0  0  0  0  0  0
   -3.0740   11.4850   21.8780 H   0  0  0  0  0  0  0  0  0  0  0  0
   -4.7080   12.6770   23.7610 O   0  0  0  0  0  0  0  0  0  0  0  0
   -4.9760   12.3840   25.1250 C   0  0  0  0  0  0  0  0  0  0  0  0
   -6.0270   12.5670   25.3700 H   0  0  0  0  0  0  0  0  0  0  0  0
   -4.7790   11.3190   25.2840 H   0  0  0  0  0  0  0  0  0  0  0  0
   -4.3110   12.9470   25.7880 H   0  0  0  0  0  0  0  0  0  0  0  0
    2.2590   12.7880   18.7190 C   0  0  0  0  0  0  0  0  0  0  0  0
    2.0930   12.9220   17.3680 N   0  0  0  0  0  0  0  0  0  0  0  0
    3.1960   13.3440   19.2780 O   0  0  0  0  0  0  0  0  0  0  0  0
    1.2080   12.7320   16.9180 H   0  0  0  0  0  0  0  0  0  0  0  0
    2.7260   13.5560   16.8970 H   0  0  0  0  0  0  0  0  0  0  0  0
    1.7270    9.8570   18.1080 C   0  0  0  0  0  0  0  0  0  0  0  0
    2.6030   10.4230   17.7740 H   0  0  0  0  0  0  0  0  0  0  0  0
    1.0860    9.7220   17.2280 H   0  0  0  0  0  0  0  0  0  0  0  0
    2.1680    8.5520   18.5350 N   0  0  0  0  0  0  0  0  0  0  0  0
    2.9320    7.7510   17.7370 C   0  0  0  0  0  0  0  0  0  0  0  0
    3.3720    8.0820   16.6450 O   0  0  0  0  0  0  0  0  0  0  0  0
    3.1370    6.5260   18.3190 N   0  0  0  0  0  0  0  0  0  0  0  0
    1.5860    8.1100   19.2360 H   0  0  0  0  0  0  0  0  0  0  0  0
    3.1560    6.5610   19.3270 H   0  0  0  0  0  0  0  0  0  0  0  0
    4.0390    5.5710   17.7080 C   0  0  2  0  0  0  0  0  0  0  0  0
    3.9540    4.1920   18.3900 C   0  0  0  0  0  0  0  0  0  0  0  0
    4.9760    4.1940   19.5370 C   0  0  0  0  0  0  0  0  0  0  0  0
    6.0020    5.1480   19.0140 C   0  0  0  0  0  0  0  0  0  0  0  0
    7.3000    5.3360   19.4600 C   0  0  0  0  0  0  0  0  0  0  0  0
    8.0760    6.3200   18.8440 C   0  0  0  0  0  0  0  0  0  0  0  0
    7.5470    7.1060   17.8070 C   0  0  0  0  0  0  0  0  0  0  0  0
    6.2340    6.9180   17.3730 C   0  0  0  0  0  0  0  0  0  0  0  0
    5.4730    5.9320   17.9810 C   0  0  0  0  0  0  0  0  0  0  0  0
    3.8420    5.4790   16.6340 H   0  0  0  0  0  0  0  0  0  0  0  0
    4.2480    3.4200   17.6660 H   0  0  0  0  0  0  0  0  0  0  0  0
    2.9460    3.9400   18.7380 H   0  0  0  0  0  0  0  0  0  0  0  0
    5.3830    3.1940   19.7100 H   0  0  0  0  0  0  0  0  0  0  0  0
    4.5350    4.5840   20.4600 H   0  0  0  0  0  0  0  0  0  0  0  0
    7.7080    4.7380   20.2680 H   0  0  0  0  0  0  0  0  0  0  0  0
    9.0990    6.4850   19.1730 H   0  0  0  0  0  0  0  0  0  0  0  0
    8.1630    7.8720   17.3440 H   0  0  0  0  0  0  0  0  0  0  0  0
    5.8150    7.5320   16.5800 H   0  0  0  0  0  0  0  0  0  0  0  0
  1 14  1  0  0  0  0
  2  1  1  0  0  0  0
  2  7  1  0  0  0  0
  3  2  2  0  0  0  0
  4  5  2  0  0  0  0
  4  3  1  0  0  0  0
  5  6  1  0  0  0  0
  6  9  1  0  0  0  0
  6  1  2  0  0  0  0
  8  3  1  0  0  0  0
 10 20  1  0  0  0  0
 10 11  1  0  0  0  0
 11 16  1  0  0  0  0
 12 11  2  0  0  0  0
 12 17  1  0  0  0  0
 13 12  1  0  0  0  0
 14 15  1  0  0  0  0
 14 13  2  0  0  0  0
 15 10  2  0  0  0  0
 18 13  1  0  0  0  0
 19 15  1  0  0  0  0
 20 21  1  0  0  0  0
 21 23  1  0  0  0  0
 21 22  1  0  0  0  0
 21 24  1  0  0  0  0
 25 27  2  0  0  0  0
 25  5  1  0  0  0  0
 26 25  1  0  0  0  0
 28 26  1  0  0  0  0
 29 26  1  0  0  0  0
 30 33  1  0  0  0  0
 30  4  1  0  0  0  0
 31 30  1  0  0  0  0
 32 30  1  0  0  0  0
 33 37  1  0  0  0  0
 34 36  1  0  0  0  0
 34 33  1  0  0  0  0
 35 34  2  0  0  0  0
 36 38  1  0  0  0  0
 39 48  1  6  0  0  0
 39 47  1  0  0  0  0
 39 36  1  0  0  0  0
 39 40  1  0  0  0  0
 40 50  1  0  0  0  0
 40 41  1  0  0  0  0
 41 51  1  0  0  0  0
 41 52  1  0  0  0  0
 42 43  1  0  0  0  0
 42 41  1  0  0  0  0
 43 53  1  0  0  0  0
 44 54  1  0  0  0  0
 44 43  2  0  0  0  0
 45 44  1  0  0  0  0
 46 45  2  0  0  0  0
 46 47  1  0  0  0  0
 47 42  2  0  0  0  0
 49 40  1  0  0  0  0
 55 45  1  0  0  0  0
 56 46  1  0  0  0  0
M  END
>  <MODEL>
20

>  <REMARK>
 VINA RESULT:    -7.295      1.956      2.818
 INTER + INTRA:         -10.326
 INTER:                  -9.949
 INTRA:                  -0.378
 UNBOUND:                -0.259
  Name = 
  7 active torsions:
  status: ('A' for Active; 'I' for Inactive)
    1  A    between atoms: C_1  and  O_2
    2  A    between atoms: O_2  and  C_3
    3  A    between atoms: C_7  and  C_8
    4  A    between atoms: C_11  and  C_12
    5  A    between atoms: C_12  and  N_13
    6  A    between atoms: N_16  and  C_17
    7  A    between atoms: C_26  and  C_27
                            x       y       z     vdW  Elec       q    Type
                         _______ _______ _______ _____ _____    ______ ____

>  <TORSDO>
F 7

$$$$
=
 OpenBabel07192307433D

 56 59  0  0  1  0  0  0  0  0999 V2000
    4.1370    6.1580   18.4800 C   0  0  0  0  0  0  0  0  0  0  0  0
    3.6240    5.6680   19.6850 C   0  0  0  0  0  0  0  0  0  0  0  0
    2.5080    6.2590   20.2830 C   0  0  0  0  0  0  0  0  0  0  0  0
    1.8560    7.3570   19.6920 C   0  0  0  0  0  0  0  0  0  0  0  0
    2.3480    7.8400   18.4640 C   0  0  0  0  0  0  0  0  0  0  0  0
    3.4870    7.2490   17.8810 C   0  0  0  0  0  0  0  0  0  0  0  0
    4.0880    4.8110   20.1710 H   0  0  0  0  0  0  0  0  0  0  0  0
    2.1370    5.8430   21.2200 H   0  0  0  0  0  0  0  0  0  0  0  0
    3.9020    7.6590   16.9640 H   0  0  0  0  0  0  0  0  0  0  0  0
    6.4010    4.4830   15.9450 C   0  0  0  0  0  0  0  0  0  0  0  0
    7.5870    4.3880   16.6730 C   0  0  0  0  0  0  0  0  0  0  0  0
    7.6560    4.8660   17.9810 C   0  0  0  0  0  0  0  0  0  0  0  0
    6.5310    5.4420   18.5700 C   0  0  0  0  0  0  0  0  0  0  0  0
    5.3250    5.5500   17.8600 C   0  0  0  0  0  0  0  0  0  0  0  0
    5.2770    5.0620   16.5400 C   0  0  0  0  0  0  0  0  0  0  0  0
    8.4670    3.9410   16.2160 H   0  0  0  0  0  0  0  0  0  0  0  0
    8.5870    4.7930   18.5370 H   0  0  0  0  0  0  0  0  0  0  0  0
    6.6060    5.8240   19.5860 H   0  0  0  0  0  0  0  0  0  0  0  0
    4.3390    5.1390   15.9970 H   0  0  0  0  0  0  0  0  0  0  0  0
    6.4700    3.9780   14.6760 O   0  0  0  0  0  0  0  0  0  0  0  0
    5.3270    4.1530   13.8490 C   0  0  0  0  0  0  0  0  0  0  0  0
    4.5700    3.3880   14.0540 H   0  0  0  0  0  0  0  0  0  0  0  0
    4.8870    5.1260   14.0880 H   0  0  0  0  0  0  0  0  0  0  0  0
    5.6040    4.1630   12.7900 H   0  0  0  0  0  0  0  0  0  0  0  0
    1.6970    8.9810   17.7510 C   0  0  0  0  0  0  0  0  0  0  0  0
    2.4100   10.1460   17.6660 N   0  0  0  0  0  0  0  0  0  0  0  0
    0.6010    8.8930   17.2130 O   0  0  0  0  0  0  0  0  0  0  0  0
    3.4050   10.1760   17.8370 H   0  0  0  0  0  0  0  0  0  0  0  0
    2.0170   10.8710   17.0790 H   0  0  0  0  0  0  0  0  0  0  0  0
    0.6810    7.9610   20.4300 C   0  0  0  0  0  0  0  0  0  0  0  0
    0.4760    7.3770   21.3340 H   0  0  0  0  0  0  0  0  0  0  0  0
   -0.2260    7.9170   19.8140 H   0  0  0  0  0  0  0  0  0  0  0  0
    0.8840    9.3350   20.8170 N   0  0  0  0  0  0  0  0  0  0  0  0
    0.0490   10.3330   20.4010 C   0  0  0  0  0  0  0  0  0  0  0  0
   -0.9670   10.1540   19.7450 O   0  0  0  0  0  0  0  0  0  0  0  0
    0.5040   11.5600   20.8130 N   0  0  0  0  0  0  0  0  0  0  0  0
    1.8380    9.5790   21.0530 H   0  0  0  0  0  0  0  0  0  0  0  0
    1.0100   11.5270   21.6850 H   0  0  0  0  0  0  0  0  0  0  0  0
   -0.3040   12.7440   20.6020 C   0  0  2  0  0  0  0  0  0  0  0  0
    0.5570   14.0220   20.5750 C   0  0  0  0  0  0  0  0  0  0  0  0
    0.6530   14.5300   22.0220 C   0  0  0  0  0  0  0  0  0  0  0  0
   -0.6370   14.0340   22.5930 C   0  0  0  0  0  0  0  0  0  0  0  0
   -1.2570   14.4270   23.7670 C   0  0  0  0  0  0  0  0  0  0  0  0
   -2.4490   13.7930   24.1300 C   0  0  0  0  0  0  0  0  0  0  0  0
   -2.9930   12.7780   23.3290 C   0  0  0  0  0  0  0  0  0  0  0  0
   -2.3540   12.3800   22.1530 C   0  0  0  0  0  0  0  0  0  0  0  0
   -1.1780   13.0200   21.7940 C   0  0  0  0  0  0  0  0  0  0  0  0
   -0.8900   12.6580   19.6800 H   0  0  0  0  0  0  0  0  0  0  0  0
    0.0410   14.7830   19.9740 H   0  0  0  0  0  0  0  0  0  0  0  0
    1.5450   13.8710   20.1250 H   0  0  0  0  0  0  0  0  0  0  0  0
    0.7360   15.6190   22.0570 H   0  0  0  0  0  0  0  0  0  0  0  0
    1.4980   14.0730   22.5470 H   0  0  0  0  0  0  0  0  0  0  0  0
   -0.8330   15.2040   24.3940 H   0  0  0  0  0  0  0  0  0  0  0  0
   -2.9580   14.0860   25.0450 H   0  0  0  0  0  0  0  0  0  0  0  0
   -3.9180   12.2910   23.6300 H   0  0  0  0  0  0  0  0  0  0  0  0
   -2.7650   11.5850   21.5360 H   0  0  0  0  0  0  0  0  0  0  0  0
  1  2  1  0  0  0  0
  2  7  1  0  0  0  0
  2  3  2  0  0  0  0
  3  8  1  0  0  0  0
  4  3  1  0  0  0  0
  4 30  1  0  0  0  0
  5  4  2  0  0  0  0
  6  5  1  0  0  0  0
  6  1  2  0  0  0  0
  9  6  1  0  0  0  0
 10 15  2  0  0  0  0
 10 11  1  0  0  0  0
 11 12  2  0  0  0  0
 12 17  1  0  0  0  0
 12 13  1  0  0  0  0
 13 18  1  0  0  0  0
 14  1  1  0  0  0  0
 14 13  2  0  0  0  0
 15 14  1  0  0  0  0
 16 11  1  0  0  0  0
 19 15  1  0  0  0  0
 20 10  1  0  0  0  0
 21 22  1  0  0  0  0
 21 23  1  0  0  0  0
 21 20  1  0  0  0  0
 24 21  1  0  0  0  0
 25  5  1  0  0  0  0
 26 25  1  0  0  0  0
 26 28  1  0  0  0  0
 27 25  2  0  0  0  0
 29 26  1  0  0  0  0
 30 33  1  0  0  0  0
 30 31  1  0  0  0  0
 32 30  1  0  0  0  0
 33 37  1  0  0  0  0
 34 36  1  0  0  0  0
 34 33  1  0  0  0  0
 35 34  2  0  0  0  0
 36 38  1  0  0  0  0
 39 48  1  6  0  0  0
 39 36  1  0  0  0  0
 39 47  1  0  0  0  0
 40 39  1  0  0  0  0
 40 41  1  0  0  0  0
 41 51  1  0  0  0  0
 41 52  1  0  0  0  0
 41 42  1  0  0  0  0
 42 43  1  0  0  0  0
 43 44  2  0  0  0  0
 43 53  1  0  0  0  0
 44 54  1  0  0  0  0
 45 55  1  0  0  0  0
 45 44  1  0  0  0  0
 46 45  2  0  0  0  0
 47 46  1  0  0  0  0
 47 42  2  0  0  0  0
 49 40  1  0  0  0  0
 50 40  1  0  0  0  0
 56 46  1  0  0  0  0
M  END
>  <MODEL>
21

>  <REMARK>
 VINA RESULT:    -7.249      2.184     10.311
 INTER + INTRA:         -10.263
 INTER:                  -9.420
 INTRA:                  -0.843
 UNBOUND:                -0.259
  Name = 
  7 active torsions:
  status: ('A' for Active; 'I' for Inactive)
    1  A    between atoms: C_1  and  O_2
    2  A    between atoms: O_2  and  C_3
    3  A    between atoms: C_7  and  C_8
    4  A    between atoms: C_11  and  C_12
    5  A    between atoms: C_12  and  N_13
    6  A    between atoms: N_16  and  C_17
    7  A    between atoms: C_26  and  C_27
                            x       y       z     vdW  Elec       q    Type
                         _______ _______ _______ _____ _____    ______ ____

>  <TORSDO>
F 7

$$$$
=
 OpenBabel07192307433D

 56 59  0  0  1  0  0  0  0  0999 V2000
    1.6350   10.9930   18.8440 C   0  0  0  0  0  0  0  0  0  0  0  0
    2.0650   10.1460   17.8190 C   0  0  0  0  0  0  0  0  0  0  0  0
    2.0990    8.7610   17.9990 C   0  0  0  0  0  0  0  0  0  0  0  0
    1.6950    8.1700   19.2110 C   0  0  0  0  0  0  0  0  0  0  0  0
    1.2340    9.0130   20.2410 C   0  0  0  0  0  0  0  0  0  0  0  0
    1.2240   10.4100   20.0530 C   0  0  0  0  0  0  0  0  0  0  0  0
    2.3730   10.5580   16.8590 H   0  0  0  0  0  0  0  0  0  0  0  0
    2.4360    8.1360   17.1720 H   0  0  0  0  0  0  0  0  0  0  0  0
    0.9240   11.0650   20.8680 H   0  0  0  0  0  0  0  0  0  0  0  0
    2.7250   14.5120   17.9550 C   0  0  0  0  0  0  0  0  0  0  0  0
    1.5900   15.2380   18.3170 C   0  0  0  0  0  0  0  0  0  0  0  0
    0.4740   14.5930   18.8460 C   0  0  0  0  0  0  0  0  0  0  0  0
    0.4900   13.2090   19.0190 C   0  0  0  0  0  0  0  0  0  0  0  0
    1.6180   12.4530   18.6630 C   0  0  0  0  0  0  0  0  0  0  0  0
    2.7350   13.1250   18.1290 C   0  0  0  0  0  0  0  0  0  0  0  0
    1.5750   16.3180   18.1810 H   0  0  0  0  0  0  0  0  0  0  0  0
   -0.4070   15.1680   19.1190 H   0  0  0  0  0  0  0  0  0  0  0  0
   -0.3950   12.7190   19.4180 H   0  0  0  0  0  0  0  0  0  0  0  0
    3.6090   12.5380   17.8630 H   0  0  0  0  0  0  0  0  0  0  0  0
    3.7470   15.2660   17.4480 O   0  0  0  0  0  0  0  0  0  0  0  0
    5.0470   15.0240   17.9690 C   0  0  0  0  0  0  0  0  0  0  0  0
    5.3280   15.7890   18.7020 H   0  0  0  0  0  0  0  0  0  0  0  0
    5.0260   14.0600   18.4870 H   0  0  0  0  0  0  0  0  0  0  0  0
    5.7880   14.9550   17.1660 H   0  0  0  0  0  0  0  0  0  0  0  0
    0.7550    8.4680   21.5470 C   0  0  0  0  0  0  0  0  0  0  0  0
    1.5540    8.6820   22.6380 N   0  0  0  0  0  0  0  0  0  0  0  0
   -0.3200    7.8980   21.6790 O   0  0  0  0  0  0  0  0  0  0  0  0
    2.2880    9.3770   22.6330 H   0  0  0  0  0  0  0  0  0  0  0  0
    1.1680    8.4200   23.5360 H   0  0  0  0  0  0  0  0  0  0  0  0
    1.8060    6.6660   19.3340 C   0  0  0  0  0  0  0  0  0  0  0  0
    0.8060    6.2330   19.4440 H   0  0  0  0  0  0  0  0  0  0  0  0
    2.3680    6.3920   20.2350 H   0  0  0  0  0  0  0  0  0  0  0  0
    2.4480    6.0370   18.2060 N   0  0  0  0  0  0  0  0  0  0  0  0
    3.6680    5.4330   18.3140 C   0  0  0  0  0  0  0  0  0  0  0  0
    4.2810    5.2990   19.3640 O   0  0  0  0  0  0  0  0  0  0  0  0
    4.1140    5.0010   17.0920 N   0  0  0  0  0  0  0  0  0  0  0  0
    2.1730    6.3960   17.3000 H   0  0  0  0  0  0  0  0  0  0  0  0
    3.3690    4.7390   16.4640 H   0  0  0  0  0  0  0  0  0  0  0  0
    5.3220    4.2060   16.9970 C   0  0  2  0  0  0  0  0  0  0  0  0
    6.4950    4.8630   17.7510 C   0  0  0  0  0  0  0  0  0  0  0  0
    7.2080    5.7880   16.7520 C   0  0  0  0  0  0  0  0  0  0  0  0
    6.9270    5.0950   15.4570 C   0  0  0  0  0  0  0  0  0  0  0  0
    7.5510    5.2820   14.2350 C   0  0  0  0  0  0  0  0  0  0  0  0
    7.0950    4.5470   13.1390 C   0  0  0  0  0  0  0  0  0  0  0  0
    6.0230    3.6500   13.2740 C   0  0  0  0  0  0  0  0  0  0  0  0
    5.3920    3.4760   14.5060 C   0  0  0  0  0  0  0  0  0  0  0  0
    5.8570    4.2010   15.5930 C   0  0  0  0  0  0  0  0  0  0  0  0
    5.1500    3.1900   17.3690 H   0  0  0  0  0  0  0  0  0  0  0  0
    7.2000    4.0790   18.0610 H   0  0  0  0  0  0  0  0  0  0  0  0
    6.1860    5.3950   18.6570 H   0  0  0  0  0  0  0  0  0  0  0  0
    8.2770    5.8580   16.9670 H   0  0  0  0  0  0  0  0  0  0  0  0
    6.7600    6.7870   16.7490 H   0  0  0  0  0  0  0  0  0  0  0  0
    8.3720    5.9830   14.1260 H   0  0  0  0  0  0  0  0  0  0  0  0
    7.5700    4.6730   12.1700 H   0  0  0  0  0  0  0  0  0  0  0  0
    5.6760    3.0900   12.4080 H   0  0  0  0  0  0  0  0  0  0  0  0
    4.5530    2.7930   14.6130 H   0  0  0  0  0  0  0  0  0  0  0  0
  1  6  1  0  0  0  0
  2  3  1  0  0  0  0
  2  1  2  0  0  0  0
  3  4  2  0  0  0  0
  4 30  1  0  0  0  0
  4  5  1  0  0  0  0
  5 25  1  0  0  0  0
  6  5  2  0  0  0  0
  6  9  1  0  0  0  0
  7  2  1  0  0  0  0
  8  3  1  0  0  0  0
 10 15  2  0  0  0  0
 10 11  1  0  0  0  0
 11 12  2  0  0  0  0
 12 13  1  0  0  0  0
 12 17  1  0  0  0  0
 13 18  1  0  0  0  0
 14  1  1  0  0  0  0
 14 13  2  0  0  0  0
 15 14  1  0  0  0  0
 16 11  1  0  0  0  0
 19 15  1  0  0  0  0
 20 10  1  0  0  0  0
 20 21  1  0  0  0  0
 21 23  1  0  0  0  0
 21 22  1  0  0  0  0
 24 21  1  0  0  0  0
 25 27  2  0  0  0  0
 25 26  1  0  0  0  0
 26 29  1  0  0  0  0
 28 26  1  0  0  0  0
 30 31  1  0  0  0  0
 30 32  1  0  0  0  0
 33 34  1  0  0  0  0
 33 30  1  0  0  0  0
 34 35  2  0  0  0  0
 36 34  1  0  0  0  0
 37 33  1  0  0  0  0
 38 36  1  0  0  0  0
 39 36  1  0  0  0  0
 39 48  1  1  0  0  0
 39 40  1  0  0  0  0
 40 49  1  0  0  0  0
 40 50  1  0  0  0  0
 41 51  1  0  0  0  0
 41 40  1  0  0  0  0
 42 47  1  0  0  0  0
 42 41  1  0  0  0  0
 43 42  2  0  0  0  0
 44 45  2  0  0  0  0
 44 43  1  0  0  0  0
 45 46  1  0  0  0  0
 46 56  1  0  0  0  0
 46 47  2  0  0  0  0
 47 39  1  0  0  0  0
 52 41  1  0  0  0  0
 53 43  1  0  0  0  0
 54 44  1  0  0  0  0
 55 45  1  0  0  0  0
M  END
>  <MODEL>
22

>  <REMARK>
 VINA RESULT:    -7.136      3.018      4.364
 INTER + INTRA:         -10.106
 INTER:                  -9.695
 INTRA:                  -0.411
 UNBOUND:                -0.259
  Name = 
  7 active torsions:
  status: ('A' for Active; 'I' for Inactive)
    1  A    between atoms: C_1  and  O_2
    2  A    between atoms: O_2  and  C_3
    3  A    between atoms: C_7  and  C_8
    4  A    between atoms: C_11  and  C_12
    5  A    between atoms: C_12  and  N_13
    6  A    between atoms: N_16  and  C_17
    7  A    between atoms: C_26  and  C_27
                            x       y       z     vdW  Elec       q    Type
                         _______ _______ _______ _____ _____    ______ ____

>  <TORSDO>
F 7

$$$$
=
 OpenBabel07192307433D

 56 59  0  0  1  0  0  0  0  0999 V2000
    4.3500    5.1480   17.6030 C   0  0  0  0  0  0  0  0  0  0  0  0
    3.9720    6.4350   17.9970 C   0  0  0  0  0  0  0  0  0  0  0  0
    3.0730    6.6290   19.0490 C   0  0  0  0  0  0  0  0  0  0  0  0
    2.5260    5.5420   19.7540 C   0  0  0  0  0  0  0  0  0  0  0  0
    2.9220    4.2410   19.3840 C   0  0  0  0  0  0  0  0  0  0  0  0
    3.8140    4.0590   18.3070 C   0  0  0  0  0  0  0  0  0  0  0  0
    4.3810    7.3070   17.4890 H   0  0  0  0  0  0  0  0  0  0  0  0
    2.8090    7.6490   19.3270 H   0  0  0  0  0  0  0  0  0  0  0  0
    4.0740    3.0530   17.9830 H   0  0  0  0  0  0  0  0  0  0  0  0
    5.7050    4.2060   14.1930 C   0  0  0  0  0  0  0  0  0  0  0  0
    7.0510    4.5450   14.3410 C   0  0  0  0  0  0  0  0  0  0  0  0
    7.5190    5.0790   15.5410 C   0  0  0  0  0  0  0  0  0  0  0  0
    6.6390    5.2740   16.6040 C   0  0  0  0  0  0  0  0  0  0  0  0
    5.2800    4.9420   16.4820 C   0  0  0  0  0  0  0  0  0  0  0  0
    4.8270    4.4050   15.2610 C   0  0  0  0  0  0  0  0  0  0  0  0
    7.7390    4.3940   13.5120 H   0  0  0  0  0  0  0  0  0  0  0  0
    8.5680    5.3440   15.6430 H   0  0  0  0  0  0  0  0  0  0  0  0
    7.0170    5.7050   17.5280 H   0  0  0  0  0  0  0  0  0  0  0  0
    3.7780    4.1410   15.1740 H   0  0  0  0  0  0  0  0  0  0  0  0
    5.3790    3.6940   12.9670 O   0  0  0  0  0  0  0  0  0  0  0  0
    6.4550    3.3360   12.1100 C   0  0  0  0  0  0  0  0  0  0  0  0
    6.9130    4.2240   11.6590 H   0  0  0  0  0  0  0  0  0  0  0  0
    7.2180    2.8420   12.7190 H   0  0  0  0  0  0  0  0  0  0  0  0
    6.1290    2.6260   11.3430 H   0  0  0  0  0  0  0  0  0  0  0  0
    2.4160    3.0320   20.1010 C   0  0  0  0  0  0  0  0  0  0  0  0
    3.1530    2.5890   21.1650 N   0  0  0  0  0  0  0  0  0  0  0  0
    1.3670    2.4730   19.8070 O   0  0  0  0  0  0  0  0  0  0  0  0
    3.8490    3.1700   21.6110 H   0  0  0  0  0  0  0  0  0  0  0  0
    2.7420    1.8480   21.7190 H   0  0  0  0  0  0  0  0  0  0  0  0
    1.5280    5.8420   20.8510 C   0  0  0  0  0  0  0  0  0  0  0  0
    2.0570    5.9790   21.8010 H   0  0  0  0  0  0  0  0  0  0  0  0
    0.8420    4.9970   20.9920 H   0  0  0  0  0  0  0  0  0  0  0  0
    0.7320    7.0190   20.6050 N   0  0  0  0  0  0  0  0  0  0  0  0
    0.9940    8.2100   21.2200 C   0  0  0  0  0  0  0  0  0  0  0  0
    1.9490    8.4110   21.9560 O   0  0  0  0  0  0  0  0  0  0  0  0
    0.0430    9.1470   20.9050 N   0  0  0  0  0  0  0  0  0  0  0  0
   -0.2160    6.8400   20.2980 H   0  0  0  0  0  0  0  0  0  0  0  0
   -0.3520    9.0220   19.9850 H   0  0  0  0  0  0  0  0  0  0  0  0
    0.2050   10.5210   21.3350 C   0  0  2  0  0  0  0  0  0  0  0  0
    0.0250   10.6640   22.8590 C   0  0  0  0  0  0  0  0  0  0  0  0
   -1.4690   10.9200   23.1130 C   0  0  0  0  0  0  0  0  0  0  0  0
   -1.8680   11.6080   21.8460 C   0  0  0  0  0  0  0  0  0  0  0  0
   -3.0140   12.3440   21.5980 C   0  0  0  0  0  0  0  0  0  0  0  0
   -3.2010   12.8670   20.3170 C   0  0  0  0  0  0  0  0  0  0  0  0
   -2.2550   12.6400   19.3050 C   0  0  0  0  0  0  0  0  0  0  0  0
   -1.1090   11.8870   19.5600 C   0  0  0  0  0  0  0  0  0  0  0  0
   -0.9240   11.3790   20.8370 C   0  0  0  0  0  0  0  0  0  0  0  0
    1.1800   10.9140   21.0270 H   0  0  0  0  0  0  0  0  0  0  0  0
    0.5900   11.5420   23.2010 H   0  0  0  0  0  0  0  0  0  0  0  0
    0.3960    9.8020   23.4240 H   0  0  0  0  0  0  0  0  0  0  0  0
   -1.6210   11.5460   23.9950 H   0  0  0  0  0  0  0  0  0  0  0  0
   -2.0190    9.9800   23.2200 H   0  0  0  0  0  0  0  0  0  0  0  0
   -3.7520   12.5120   22.3750 H   0  0  0  0  0  0  0  0  0  0  0  0
   -4.0910   13.4520   20.0980 H   0  0  0  0  0  0  0  0  0  0  0  0
   -2.4200   13.0490   18.3100 H   0  0  0  0  0  0  0  0  0  0  0  0
   -0.3790   11.6970   18.7760 H   0  0  0  0  0  0  0  0  0  0  0  0
  1  2  2  0  0  0  0
  1  6  1  0  0  0  0
  2  3  1  0  0  0  0
  3  8  1  0  0  0  0
  3  4  2  0  0  0  0
  4 30  1  0  0  0  0
  5  4  1  0  0  0  0
  5 25  1  0  0  0  0
  6  5  2  0  0  0  0
  7  2  1  0  0  0  0
  9  6  1  0  0  0  0
 10 11  2  0  0  0  0
 10 15  1  0  0  0  0
 11 12  1  0  0  0  0
 12 17  1  0  0  0  0
 12 13  2  0  0  0  0
 13 18  1  0  0  0  0
 14 13  1  0  0  0  0
 14  1  1  0  0  0  0
 15 14  2  0  0  0  0
 16 11  1  0  0  0  0
 19 15  1  0  0  0  0
 20 10  1  0  0  0  0
 21 23  1  0  0  0  0
 21 20  1  0  0  0  0
 22 21  1  0  0  0  0
 24 21  1  0  0  0  0
 25 26  1  0  0  0  0
 26 28  1  0  0  0  0
 26 29  1  0  0  0  0
 27 25  2  0  0  0  0
 30 32  1  0  0  0  0
 30 31  1  0  0  0  0
 33 30  1  0  0  0  0
 33 34  1  0  0  0  0
 34 35  2  0  0  0  0
 36 34  1  0  0  0  0
 36 39  1  0  0  0  0
 37 33  1  0  0  0  0
 38 36  1  0  0  0  0
 39 48  1  6  0  0  0
 39 40  1  0  0  0  0
 40 41  1  0  0  0  0
 40 49  1  0  0  0  0
 40 50  1  0  0  0  0
 41 52  1  0  0  0  0
 41 51  1  0  0  0  0
 42 41  1  0  0  0  0
 43 42  1  0  0  0  0
 43 53  1  0  0  0  0
 44 43  2  0  0  0  0
 45 46  2  0  0  0  0
 45 44  1  0  0  0  0
 46 47  1  0  0  0  0
 47 39  1  0  0  0  0
 47 42  2  0  0  0  0
 54 44  1  0  0  0  0
 55 45  1  0  0  0  0
 56 46  1  0  0  0  0
M  END
>  <MODEL>
23

>  <REMARK>
 VINA RESULT:    -7.102      2.547     10.460
 INTER + INTRA:         -10.060
 INTER:                  -9.419
 INTRA:                  -0.641
 UNBOUND:                -0.259
  Name = 
  7 active torsions:
  status: ('A' for Active; 'I' for Inactive)
    1  A    between atoms: C_1  and  O_2
    2  A    between atoms: O_2  and  C_3
    3  A    between atoms: C_7  and  C_8
    4  A    between atoms: C_11  and  C_12
    5  A    between atoms: C_12  and  N_13
    6  A    between atoms: N_16  and  C_17
    7  A    between atoms: C_26  and  C_27
                            x       y       z     vdW  Elec       q    Type
                         _______ _______ _______ _____ _____    ______ ____

>  <TORSDO>
F 7

$$$$
=
 OpenBabel07192307433D

 56 59  0  0  1  0  0  0  0  0999 V2000
   -1.6540   11.8270   21.1500 C   0  0  0  0  0  0  0  0  0  0  0  0
   -1.3970   12.2720   19.8490 C   0  0  0  0  0  0  0  0  0  0  0  0
   -0.4000   11.6790   19.0710 C   0  0  0  0  0  0  0  0  0  0  0  0
    0.3720   10.6100   19.5610 C   0  0  0  0  0  0  0  0  0  0  0  0
    0.1030   10.1350   20.8600 C   0  0  0  0  0  0  0  0  0  0  0  0
   -0.8920   10.7560   21.6420 C   0  0  0  0  0  0  0  0  0  0  0  0
   -1.9790   13.0880   19.4240 H   0  0  0  0  0  0  0  0  0  0  0  0
   -0.2360   12.0530   18.0600 H   0  0  0  0  0  0  0  0  0  0  0  0
   -1.0600   10.4280   22.6660 H   0  0  0  0  0  0  0  0  0  0  0  0
   -3.3720   13.5190   24.0720 C   0  0  0  0  0  0  0  0  0  0  0  0
   -4.6610   13.6800   23.5620 C   0  0  0  0  0  0  0  0  0  0  0  0
   -4.9740   13.2440   22.2760 C   0  0  0  0  0  0  0  0  0  0  0  0
   -3.9940   12.6390   21.4900 C   0  0  0  0  0  0  0  0  0  0  0  0
   -2.6890   12.4640   21.9780 C   0  0  0  0  0  0  0  0  0  0  0  0
   -2.3940   12.9130   23.2800 C   0  0  0  0  0  0  0  0  0  0  0  0
   -5.4280   14.1520   24.1730 H   0  0  0  0  0  0  0  0  0  0  0  0
   -5.9800   13.3790   21.8870 H   0  0  0  0  0  0  0  0  0  0  0  0
   -4.2500   12.3180   20.4830 H   0  0  0  0  0  0  0  0  0  0  0  0
   -1.3850   12.7690   23.6560 H   0  0  0  0  0  0  0  0  0  0  0  0
   -3.2000   13.9910   25.3440 O   0  0  0  0  0  0  0  0  0  0  0  0
   -2.5900   15.2670   25.4820 C   0  0  0  0  0  0  0  0  0  0  0  0
   -1.7040   15.3520   24.8420 H   0  0  0  0  0  0  0  0  0  0  0  0
   -3.3120   16.0200   25.1510 H   0  0  0  0  0  0  0  0  0  0  0  0
   -2.3450   15.4770   26.5280 H   0  0  0  0  0  0  0  0  0  0  0  0
    0.8530    8.9830   21.4460 C   0  0  0  0  0  0  0  0  0  0  0  0
    1.9070    9.2830   22.2650 N   0  0  0  0  0  0  0  0  0  0  0  0
    0.5320    7.8160   21.2640 O   0  0  0  0  0  0  0  0  0  0  0  0
    2.0280   10.2040   22.6640 H   0  0  0  0  0  0  0  0  0  0  0  0
    2.3310    8.5050   22.7550 H   0  0  0  0  0  0  0  0  0  0  0  0
    1.4590   10.0560   18.6660 C   0  0  0  0  0  0  0  0  0  0  0  0
    2.3440   10.6990   18.7210 H   0  0  0  0  0  0  0  0  0  0  0  0
    1.1340   10.0570   17.6180 H   0  0  0  0  0  0  0  0  0  0  0  0
    1.8580    8.7110   19.0020 N   0  0  0  0  0  0  0  0  0  0  0  0
    2.4610    7.8880   18.0940 C   0  0  0  0  0  0  0  0  0  0  0  0
    2.7850    8.2270   16.9640 O   0  0  0  0  0  0  0  0  0  0  0  0
    2.6500    6.6340   18.6150 N   0  0  0  0  0  0  0  0  0  0  0  0
    1.3380    8.2850   19.7590 H   0  0  0  0  0  0  0  0  0  0  0  0
    2.7970    6.6340   19.6130 H   0  0  0  0  0  0  0  0  0  0  0  0
    3.4020    5.6430   17.8720 C   0  0  2  0  0  0  0  0  0  0  0  0
    3.3100    4.2510   18.5270 C   0  0  0  0  0  0  0  0  0  0  0  0
    4.4660    4.1510   19.5340 C   0  0  0  0  0  0  0  0  0  0  0  0
    5.4810    5.0540   18.9080 C   0  0  0  0  0  0  0  0  0  0  0  0
    6.8340    5.1430   19.1890 C   0  0  0  0  0  0  0  0  0  0  0  0
    7.5910    6.0950   18.5020 C   0  0  0  0  0  0  0  0  0  0  0  0
    6.9900    6.9450   17.5600 C   0  0  0  0  0  0  0  0  0  0  0  0
    5.6240    6.8560   17.2920 C   0  0  0  0  0  0  0  0  0  0  0  0
    4.8800    5.9020   17.9690 C   0  0  0  0  0  0  0  0  0  0  0  0
    3.0660    5.5980   16.8300 H   0  0  0  0  0  0  0  0  0  0  0  0
    3.4580    3.4860   17.7530 H   0  0  0  0  0  0  0  0  0  0  0  0
    2.3390    4.0540   18.9940 H   0  0  0  0  0  0  0  0  0  0  0  0
    4.8220    3.1230   19.6310 H   0  0  0  0  0  0  0  0  0  0  0  0
    4.1720    4.5400   20.5150 H   0  0  0  0  0  0  0  0  0  0  0  0
    7.2980    4.4950   19.9240 H   0  0  0  0  0  0  0  0  0  0  0  0
    8.6560    6.1830   18.7020 H   0  0  0  0  0  0  0  0  0  0  0  0
    7.5940    7.6850   17.0400 H   0  0  0  0  0  0  0  0  0  0  0  0
    5.1520    7.5210   16.5730 H   0  0  0  0  0  0  0  0  0  0  0  0
  1  6  1  0  0  0  0
  1 14  1  0  0  0  0
  2  1  2  0  0  0  0
  3  4  2  0  0  0  0
  3  2  1  0  0  0  0
  4  5  1  0  0  0  0
  5 25  1  0  0  0  0
  5  6  2  0  0  0  0
  6  9  1  0  0  0  0
  7  2  1  0  0  0  0
  8  3  1  0  0  0  0
 10 20  1  0  0  0  0
 11 10  1  0  0  0  0
 11 16  1  0  0  0  0
 12 11  2  0  0  0  0
 13 14  2  0  0  0  0
 13 12  1  0  0  0  0
 14 15  1  0  0  0  0
 15 19  1  0  0  0  0
 15 10  2  0  0  0  0
 17 12  1  0  0  0  0
 18 13  1  0  0  0  0
 20 21  1  0  0  0  0
 21 24  1  0  0  0  0
 22 21  1  0  0  0  0
 23 21  1  0  0  0  0
 25 26  1  0  0  0  0
 26 28  1  0  0  0  0
 26 29  1  0  0  0  0
 27 25  2  0  0  0  0
 30 31  1  0  0  0  0
 30 33  1  0  0  0  0
 30  4  1  0  0  0  0
 32 30  1  0  0  0  0
 33 37  1  0  0  0  0
 34 36  1  0  0  0  0
 34 33  1  0  0  0  0
 35 34  2  0  0  0  0
 36 38  1  0  0  0  0
 39 48  1  6  0  0  0
 39 47  1  0  0  0  0
 39 40  1  0  0  0  0
 39 36  1  0  0  0  0
 40 50  1  0  0  0  0
 40 41  1  0  0  0  0
 41 51  1  0  0  0  0
 41 52  1  0  0  0  0
 42 43  1  0  0  0  0
 42 41  1  0  0  0  0
 43 53  1  0  0  0  0
 44 54  1  0  0  0  0
 44 43  2  0  0  0  0
 45 44  1  0  0  0  0
 46 45  2  0  0  0  0
 46 47  1  0  0  0  0
 47 42  2  0  0  0  0
 49 40  1  0  0  0  0
 55 45  1  0  0  0  0
 56 46  1  0  0  0  0
M  END
>  <MODEL>
24

>  <REMARK>
 VINA RESULT:    -7.007      1.872      3.206
 INTER + INTRA:          -9.929
 INTER:                  -9.964
 INTRA:                   0.035
 UNBOUND:                -0.259
  Name = 
  7 active torsions:
  status: ('A' for Active; 'I' for Inactive)
    1  A    between atoms: C_1  and  O_2
    2  A    between atoms: O_2  and  C_3
    3  A    between atoms: C_7  and  C_8
    4  A    between atoms: C_11  and  C_12
    5  A    between atoms: C_12  and  N_13
    6  A    between atoms: N_16  and  C_17
    7  A    between atoms: C_26  and  C_27
                            x       y       z     vdW  Elec       q    Type
                         _______ _______ _______ _____ _____    ______ ____

>  <TORSDO>
F 7

$$$$
=
 OpenBabel07192307433D

 56 59  0  0  1  0  0  0  0  0999 V2000
   -1.2120   12.0070   20.7890 C   0  0  0  0  0  0  0  0  0  0  0  0
   -1.3140   10.6590   20.4320 C   0  0  0  0  0  0  0  0  0  0  0  0
   -0.3600   10.0610   19.6060 C   0  0  0  0  0  0  0  0  0  0  0  0
    0.7410   10.7860   19.1140 C   0  0  0  0  0  0  0  0  0  0  0  0
    0.8690   12.1380   19.4920 C   0  0  0  0  0  0  0  0  0  0  0  0
   -0.1120   12.7350   20.3080 C   0  0  0  0  0  0  0  0  0  0  0  0
   -2.1420   10.0560   20.8000 H   0  0  0  0  0  0  0  0  0  0  0  0
   -0.4740    9.0060   19.3560 H   0  0  0  0  0  0  0  0  0  0  0  0
   -0.0450   13.7930   20.5510 H   0  0  0  0  0  0  0  0  0  0  0  0
   -2.8260   13.8610   23.6730 C   0  0  0  0  0  0  0  0  0  0  0  0
   -4.1620   13.8600   23.2720 C   0  0  0  0  0  0  0  0  0  0  0  0
   -4.5410   13.2620   22.0700 C   0  0  0  0  0  0  0  0  0  0  0  0
   -3.5790   12.6580   21.2630 C   0  0  0  0  0  0  0  0  0  0  0  0
   -2.2270   12.6440   21.6420 C   0  0  0  0  0  0  0  0  0  0  0  0
   -1.8660   13.2550   22.8580 C   0  0  0  0  0  0  0  0  0  0  0  0
   -4.9140   14.3320   23.9000 H   0  0  0  0  0  0  0  0  0  0  0  0
   -5.5840   13.2720   21.7650 H   0  0  0  0  0  0  0  0  0  0  0  0
   -3.8890   12.2090   20.3210 H   0  0  0  0  0  0  0  0  0  0  0  0
   -0.8210   13.2350   23.1520 H   0  0  0  0  0  0  0  0  0  0  0  0
   -2.5910   14.4810   24.8690 O   0  0  0  0  0  0  0  0  0  0  0  0
   -1.4030   15.2550   24.9720 C   0  0  0  0  0  0  0  0  0  0  0  0
   -1.3210   15.7240   25.9590 H   0  0  0  0  0  0  0  0  0  0  0  0
   -0.5510   14.5780   24.8550 H   0  0  0  0  0  0  0  0  0  0  0  0
   -1.3470   16.0010   24.1730 H   0  0  0  0  0  0  0  0  0  0  0  0
    2.0250   12.9720   19.0420 C   0  0  0  0  0  0  0  0  0  0  0  0
    2.1250   13.2180   17.6990 N   0  0  0  0  0  0  0  0  0  0  0  0
    2.8300   13.4710   19.8170 O   0  0  0  0  0  0  0  0  0  0  0  0
    1.3470   13.0740   17.0700 H   0  0  0  0  0  0  0  0  0  0  0  0
    2.8340   13.8820   17.4160 H   0  0  0  0  0  0  0  0  0  0  0  0
    1.7030   10.0700   18.1920 C   0  0  0  0  0  0  0  0  0  0  0  0
    2.6150   10.6660   18.0790 H   0  0  0  0  0  0  0  0  0  0  0  0
    1.2710    9.9630   17.1900 H   0  0  0  0  0  0  0  0  0  0  0  0
    2.0780    8.7560   18.6520 N   0  0  0  0  0  0  0  0  0  0  0  0
    2.7290    7.8660   17.8460 C   0  0  0  0  0  0  0  0  0  0  0  0
    3.1190    8.1180   16.7140 O   0  0  0  0  0  0  0  0  0  0  0  0
    2.8840    6.6560   18.4710 N   0  0  0  0  0  0  0  0  0  0  0  0
    1.5130    8.3880   19.4080 H   0  0  0  0  0  0  0  0  0  0  0  0
    2.9720    6.7320   19.4730 H   0  0  0  0  0  0  0  0  0  0  0  0
    3.6740    5.6120   17.8500 C   0  0  2  0  0  0  0  0  0  0  0  0
    3.5330    4.2710   18.5980 C   0  0  0  0  0  0  0  0  0  0  0  0
    4.6240    4.2440   19.6800 C   0  0  0  0  0  0  0  0  0  0  0  0
    5.6810    5.0960   19.0540 C   0  0  0  0  0  0  0  0  0  0  0  0
    7.0140    5.2040   19.4110 C   0  0  0  0  0  0  0  0  0  0  0  0
    7.8190    6.1010   18.7050 C   0  0  0  0  0  0  0  0  0  0  0  0
    7.2830    6.8810   17.6680 C   0  0  0  0  0  0  0  0  0  0  0  0
    5.9350    6.7750   17.3230 C   0  0  0  0  0  0  0  0  0  0  0  0
    5.1450    5.8750   18.0200 C   0  0  0  0  0  0  0  0  0  0  0  0
    3.4030    5.4910   16.7960 H   0  0  0  0  0  0  0  0  0  0  0  0
    3.7240    3.4510   17.8930 H   0  0  0  0  0  0  0  0  0  0  0  0
    2.5330    4.1100   19.0170 H   0  0  0  0  0  0  0  0  0  0  0  0
    4.9670    3.2240   19.8730 H   0  0  0  0  0  0  0  0  0  0  0  0
    4.2720    4.7030   20.6090 H   0  0  0  0  0  0  0  0  0  0  0  0
    7.4280    4.6100   20.2190 H   0  0  0  0  0  0  0  0  0  0  0  0
    8.8700    6.2020   18.9640 H   0  0  0  0  0  0  0  0  0  0  0  0
    7.9230    7.5800   17.1340 H   0  0  0  0  0  0  0  0  0  0  0  0
    5.5120    7.3870   16.5290 H   0  0  0  0  0  0  0  0  0  0  0  0
  1 14  1  0  0  0  0
  2  1  1  0  0  0  0
  2  7  1  0  0  0  0
  3  2  2  0  0  0  0
  4  5  2  0  0  0  0
  4  3  1  0  0  0  0
  5  6  1  0  0  0  0
  6  9  1  0  0  0  0
  6  1  2  0  0  0  0
  8  3  1  0  0  0  0
 10 20  1  0  0  0  0
 11 10  1  0  0  0  0
 11 16  1  0  0  0  0
 12 11  2  0  0  0  0
 13 14  2  0  0  0  0
 13 12  1  0  0  0  0
 14 15  1  0  0  0  0
 15 19  1  0  0  0  0
 15 10  2  0  0  0  0
 17 12  1  0  0  0  0
 18 13  1  0  0  0  0
 20 21  1  0  0  0  0
 21 22  1  0  0  0  0
 23 21  1  0  0  0  0
 24 21  1  0  0  0  0
 25  5  1  0  0  0  0
 25 27  2  0  0  0  0
 26 25  1  0  0  0  0
 28 26  1  0  0  0  0
 29 26  1  0  0  0  0
 30 33  1  0  0  0  0
 30  4  1  0  0  0  0
 31 30  1  0  0  0  0
 32 30  1  0  0  0  0
 33 37  1  0  0  0  0
 34 36  1  0  0  0  0
 34 33  1  0  0  0  0
 35 34  2  0  0  0  0
 36 38  1  0  0  0  0
 39 48  1  6  0  0  0
 39 47  1  0  0  0  0
 39 36  1  0  0  0  0
 39 40  1  0  0  0  0
 40 50  1  0  0  0  0
 40 41  1  0  0  0  0
 41 51  1  0  0  0  0
 41 52  1  0  0  0  0
 42 43  1  0  0  0  0
 42 41  1  0  0  0  0
 43 53  1  0  0  0  0
 44 54  1  0  0  0  0
 44 43  2  0  0  0  0
 45 44  1  0  0  0  0
 46 45  2  0  0  0  0
 46 47  1  0  0  0  0
 47 42  2  0  0  0  0
 49 40  1  0  0  0  0
 55 45  1  0  0  0  0
 56 46  1  0  0  0  0
M  END
>  <MODEL>
25

>  <REMARK>
 VINA RESULT:    -6.924      2.093      3.151
 INTER + INTRA:          -9.815
 INTER:                  -9.407
 INTRA:                  -0.408
 UNBOUND:                -0.259
  Name = 
  7 active torsions:
  status: ('A' for Active; 'I' for Inactive)
    1  A    between atoms: C_1  and  O_2
    2  A    between atoms: O_2  and  C_3
    3  A    between atoms: C_7  and  C_8
    4  A    between atoms: C_11  and  C_12
    5  A    between atoms: C_12  and  N_13
    6  A    between atoms: N_16  and  C_17
    7  A    between atoms: C_26  and  C_27
                            x       y       z     vdW  Elec       q    Type
                         _______ _______ _______ _____ _____    ______ ____

>  <TORSDO>
F 7

$$$$
=
 OpenBabel07192307433D

 56 59  0  0  1  0  0  0  0  0999 V2000
    4.7870    5.1070   16.6390 C   0  0  0  0  0  0  0  0  0  0  0  0
    4.9660    6.2460   17.4300 C   0  0  0  0  0  0  0  0  0  0  0  0
    4.1260    6.5060   18.5160 C   0  0  0  0  0  0  0  0  0  0  0  0
    3.0800    5.6280   18.8580 C   0  0  0  0  0  0  0  0  0  0  0  0
    2.9090    4.4630   18.0850 C   0  0  0  0  0  0  0  0  0  0  0  0
    3.7500    4.2240   16.9790 C   0  0  0  0  0  0  0  0  0  0  0  0
    5.7710    6.9460   17.2110 H   0  0  0  0  0  0  0  0  0  0  0  0
    4.3030    7.4020   19.1100 H   0  0  0  0  0  0  0  0  0  0  0  0
    3.5810    3.3560   16.3470 H   0  0  0  0  0  0  0  0  0  0  0  0
    6.0200    3.8190   13.2960 C   0  0  0  0  0  0  0  0  0  0  0  0
    7.3150    4.3370   13.2750 C   0  0  0  0  0  0  0  0  0  0  0  0
    7.7890    5.1030   14.3390 C   0  0  0  0  0  0  0  0  0  0  0  0
    6.9650    5.3520   15.4360 C   0  0  0  0  0  0  0  0  0  0  0  0
    5.6570    4.8440   15.4830 C   0  0  0  0  0  0  0  0  0  0  0  0
    5.1980    4.0740   14.3970 C   0  0  0  0  0  0  0  0  0  0  0  0
    7.9590    4.1450   12.4200 H   0  0  0  0  0  0  0  0  0  0  0  0
    8.7980    5.5070   14.3100 H   0  0  0  0  0  0  0  0  0  0  0  0
    7.3440    5.9650   16.2510 H   0  0  0  0  0  0  0  0  0  0  0  0
    4.1890    3.6740   14.4410 H   0  0  0  0  0  0  0  0  0  0  0  0
    5.6810    3.0880   12.1900 O   0  0  0  0  0  0  0  0  0  0  0  0
    4.3240    3.1440   11.7710 C   0  0  0  0  0  0  0  0  0  0  0  0
    4.2310    3.6460   10.8020 H   0  0  0  0  0  0  0  0  0  0  0  0
    3.9690    2.1160   11.6470 H   0  0  0  0  0  0  0  0  0  0  0  0
    3.6970    3.6250   12.5280 H   0  0  0  0  0  0  0  0  0  0  0  0
    1.8440    3.4620   18.3980 C   0  0  0  0  0  0  0  0  0  0  0  0
    1.9150    2.2600   17.7480 N   0  0  0  0  0  0  0  0  0  0  0  0
    0.9680    3.6580   19.2300 O   0  0  0  0  0  0  0  0  0  0  0  0
    2.7580    1.9530   17.2840 H   0  0  0  0  0  0  0  0  0  0  0  0
    1.2670    1.5450   18.0550 H   0  0  0  0  0  0  0  0  0  0  0  0
    2.1930    6.0090   20.0230 C   0  0  0  0  0  0  0  0  0  0  0  0
    2.6420    5.6560   20.9570 H   0  0  0  0  0  0  0  0  0  0  0  0
    1.2150    5.5190   19.9400 H   0  0  0  0  0  0  0  0  0  0  0  0
    1.9650    7.4280   20.1400 N   0  0  0  0  0  0  0  0  0  0  0  0
    1.7380    8.2160   19.0480 C   0  0  0  0  0  0  0  0  0  0  0  0
    1.6280    7.7950   17.9040 O   0  0  0  0  0  0  0  0  0  0  0  0
    1.6530    9.5380   19.4020 N   0  0  0  0  0  0  0  0  0  0  0  0
    2.3630    7.8610   20.9640 H   0  0  0  0  0  0  0  0  0  0  0  0
    1.2840    9.6800   20.3300 H   0  0  0  0  0  0  0  0  0  0  0  0
    1.2740   10.5320   18.4180 C   0  0  2  0  0  0  0  0  0  0  0  0
    1.7920   11.9330   18.7980 C   0  0  0  0  0  0  0  0  0  0  0  0
    0.7060   12.5940   19.6620 C   0  0  0  0  0  0  0  0  0  0  0  0
   -0.5290   11.9380   19.1340 C   0  0  0  0  0  0  0  0  0  0  0  0
   -1.8460   12.3310   19.3070 C   0  0  0  0  0  0  0  0  0  0  0  0
   -2.8520   11.5360   18.7530 C   0  0  0  0  0  0  0  0  0  0  0  0
   -2.5340   10.3640   18.0490 C   0  0  0  0  0  0  0  0  0  0  0  0
   -1.2050    9.9690   17.8900 C   0  0  0  0  0  0  0  0  0  0  0  0
   -0.2110   10.7670   18.4330 C   0  0  0  0  0  0  0  0  0  0  0  0
    1.6300   10.2500   17.4210 H   0  0  0  0  0  0  0  0  0  0  0  0
    1.9140   12.5260   17.8810 H   0  0  0  0  0  0  0  0  0  0  0  0
    2.7650   11.9160   19.3020 H   0  0  0  0  0  0  0  0  0  0  0  0
    0.6950   13.6790   19.5260 H   0  0  0  0  0  0  0  0  0  0  0  0
    0.8390   12.3500   20.7210 H   0  0  0  0  0  0  0  0  0  0  0  0
   -2.0950   13.2300   19.8600 H   0  0  0  0  0  0  0  0  0  0  0  0
   -3.8930   11.8250   18.8710 H   0  0  0  0  0  0  0  0  0  0  0  0
   -3.3310    9.7540   17.6300 H   0  0  0  0  0  0  0  0  0  0  0  0
   -0.9540    9.0550   17.3570 H   0  0  0  0  0  0  0  0  0  0  0  0
  1  6  2  0  0  0  0
  1  2  1  0  0  0  0
  2  3  2  0  0  0  0
  3  4  1  0  0  0  0
  3  8  1  0  0  0  0
  4 30  1  0  0  0  0
  5 25  1  0  0  0  0
  5  4  2  0  0  0  0
  6  5  1  0  0  0  0
  7  2  1  0  0  0  0
  9  6  1  0  0  0  0
 10 15  1  0  0  0  0
 11 10  2  0  0  0  0
 11 12  1  0  0  0  0
 12 13  2  0  0  0  0
 13 14  1  0  0  0  0
 13 18  1  0  0  0  0
 14  1  1  0  0  0  0
 15 19  1  0  0  0  0
 15 14  2  0  0  0  0
 16 11  1  0  0  0  0
 17 12  1  0  0  0  0
 20 10  1  0  0  0  0
 21 20  1  0  0  0  0
 21 24  1  0  0  0  0
 22 21  1  0  0  0  0
 23 21  1  0  0  0  0
 25 27  2  0  0  0  0
 26 29  1  0  0  0  0
 26 25  1  0  0  0  0
 28 26  1  0  0  0  0
 30 33  1  0  0  0  0
 30 31  1  0  0  0  0
 32 30  1  0  0  0  0
 33 37  1  0  0  0  0
 34 36  1  0  0  0  0
 34 33  1  0  0  0  0
 35 34  2  0  0  0  0
 36 38  1  0  0  0  0
 39 48  1  6  0  0  0
 39 47  1  0  0  0  0
 39 40  1  0  0  0  0
 39 36  1  0  0  0  0
 40 50  1  0  0  0  0
 40 41  1  0  0  0  0
 41 52  1  0  0  0  0
 42 43  1  0  0  0  0
 42 41  1  0  0  0  0
 43 53  1  0  0  0  0
 44 54  1  0  0  0  0
 44 43  2  0  0  0  0
 45 44  1  0  0  0  0
 46 45  2  0  0  0  0
 46 47  1  0  0  0  0
 47 42  2  0  0  0  0
 49 40  1  0  0  0  0
 51 41  1  0  0  0  0
 55 45  1  0  0  0  0
 56 46  1  0  0  0  0
M  END
>  <MODEL>
26

>  <REMARK>
 VINA RESULT:    -6.924      3.210     10.230
 INTER + INTRA:          -9.814
 INTER:                 -10.786
 INTRA:                   0.972
 UNBOUND:                -0.259
  Name = 
  7 active torsions:
  status: ('A' for Active; 'I' for Inactive)
    1  A    between atoms: C_1  and  O_2
    2  A    between atoms: O_2  and  C_3
    3  A    between atoms: C_7  and  C_8
    4  A    between atoms: C_11  and  C_12
    5  A    between atoms: C_12  and  N_13
    6  A    between atoms: N_16  and  C_17
    7  A    between atoms: C_26  and  C_27
                            x       y       z     vdW  Elec       q    Type
                         _______ _______ _______ _____ _____    ______ ____

>  <TORSDO>
F 7

$$$$
=
 OpenBabel07192307433D

 56 59  0  0  1  0  0  0  0  0999 V2000
    8.1690    8.1780   18.1890 C   0  0  0  0  0  0  0  0  0  0  0  0
    8.3820    7.2350   19.2000 C   0  0  0  0  0  0  0  0  0  0  0  0
    8.0050    5.9010   19.0280 C   0  0  0  0  0  0  0  0  0  0  0  0
    7.4080    5.4570   17.8330 C   0  0  0  0  0  0  0  0  0  0  0  0
    7.2150    6.3930   16.7980 C   0  0  0  0  0  0  0  0  0  0  0  0
    7.5800    7.7400   16.9920 C   0  0  0  0  0  0  0  0  0  0  0  0
    8.8530    7.5310   20.1360 H   0  0  0  0  0  0  0  0  0  0  0  0
    8.1940    5.1970   19.8380 H   0  0  0  0  0  0  0  0  0  0  0  0
    7.3770    8.4750   16.2160 H   0  0  0  0  0  0  0  0  0  0  0  0
    8.3260   11.9380   17.7540 C   0  0  0  0  0  0  0  0  0  0  0  0
    9.2640   12.2770   18.7300 C   0  0  0  0  0  0  0  0  0  0  0  0
    9.8440   11.2930   19.5280 C   0  0  0  0  0  0  0  0  0  0  0  0
    9.4880    9.9560   19.3500 C   0  0  0  0  0  0  0  0  0  0  0  0
    8.5460    9.5870   18.3770 C   0  0  0  0  0  0  0  0  0  0  0  0
    7.9710   10.5980   17.5820 C   0  0  0  0  0  0  0  0  0  0  0  0
    9.5430   13.3190   18.8710 H   0  0  0  0  0  0  0  0  0  0  0  0
   10.5700   11.5680   20.2880 H   0  0  0  0  0  0  0  0  0  0  0  0
    9.9380    9.2020   19.9910 H   0  0  0  0  0  0  0  0  0  0  0  0
    7.2500   10.3070   16.8240 H   0  0  0  0  0  0  0  0  0  0  0  0
    7.8350   12.9990   17.0430 O   0  0  0  0  0  0  0  0  0  0  0  0
    7.4050   14.1310   17.7880 C   0  0  0  0  0  0  0  0  0  0  0  0
    8.0370   14.2870   18.6690 H   0  0  0  0  0  0  0  0  0  0  0  0
    7.5060   15.0120   17.1460 H   0  0  0  0  0  0  0  0  0  0  0  0
    6.3500   14.0420   18.0670 H   0  0  0  0  0  0  0  0  0  0  0  0
    6.6180    6.0000   15.4860 C   0  0  0  0  0  0  0  0  0  0  0  0
    7.4760    5.5080   14.5390 N   0  0  0  0  0  0  0  0  0  0  0  0
    5.4180    6.0530   15.2550 O   0  0  0  0  0  0  0  0  0  0  0  0
    8.4030    5.1840   14.7750 H   0  0  0  0  0  0  0  0  0  0  0  0
    7.0510    5.1300   13.7010 H   0  0  0  0  0  0  0  0  0  0  0  0
    6.9930    4.0040   17.7500 C   0  0  0  0  0  0  0  0  0  0  0  0
    6.9870    3.5660   18.7530 H   0  0  0  0  0  0  0  0  0  0  0  0
    7.7170    3.4290   17.1590 H   0  0  0  0  0  0  0  0  0  0  0  0
    5.6910    3.8060   17.1630 N   0  0  0  0  0  0  0  0  0  0  0  0
    4.5410    3.9770   17.8800 C   0  0  0  0  0  0  0  0  0  0  0  0
    4.5020    4.3810   19.0340 O   0  0  0  0  0  0  0  0  0  0  0  0
    3.4410    3.6330   17.1380 N   0  0  0  0  0  0  0  0  0  0  0  0
    5.6680    3.1760   16.3700 H   0  0  0  0  0  0  0  0  0  0  0  0
    3.5590    3.7940   16.1490 H   0  0  0  0  0  0  0  0  0  0  0  0
    2.1090    3.8730   17.6570 C   0  0  2  0  0  0  0  0  0  0  0  0
    1.7860    5.3800   17.7160 C   0  0  0  0  0  0  0  0  0  0  0  0
    2.2480    5.8840   19.0910 C   0  0  0  0  0  0  0  0  0  0  0  0
    2.0980    4.6500   19.9230 C   0  0  0  0  0  0  0  0  0  0  0  0
    2.0770    4.5480   21.3040 C   0  0  0  0  0  0  0  0  0  0  0  0
    1.9660    3.2770   21.8720 C   0  0  0  0  0  0  0  0  0  0  0  0
    1.8900    2.1340   21.0610 C   0  0  0  0  0  0  0  0  0  0  0  0
    1.9240    2.2450   19.6710 C   0  0  0  0  0  0  0  0  0  0  0  0
    2.0240    3.5100   19.1130 C   0  0  0  0  0  0  0  0  0  0  0  0
    1.3570    3.3440   17.0610 H   0  0  0  0  0  0  0  0  0  0  0  0
    0.6980    5.5110   17.6470 H   0  0  0  0  0  0  0  0  0  0  0  0
    2.2320    5.9530   16.8950 H   0  0  0  0  0  0  0  0  0  0  0  0
    1.6220    6.7070   19.4450 H   0  0  0  0  0  0  0  0  0  0  0  0
    3.2980    6.1960   19.0670 H   0  0  0  0  0  0  0  0  0  0  0  0
    2.1470    5.4300   21.9330 H   0  0  0  0  0  0  0  0  0  0  0  0
    1.9440    3.1700   22.9540 H   0  0  0  0  0  0  0  0  0  0  0  0
    1.8110    1.1510   21.5210 H   0  0  0  0  0  0  0  0  0  0  0  0
    1.8790    1.3620   19.0390 H   0  0  0  0  0  0  0  0  0  0  0  0
  1 14  1  0  0  0  0
  1  2  1  0  0  0  0
  2  7  1  0  0  0  0
  3  2  2  0  0  0  0
  3  8  1  0  0  0  0
  4  3  1  0  0  0  0
  5  6  1  0  0  0  0
  5  4  2  0  0  0  0
  6  1  2  0  0  0  0
  9  6  1  0  0  0  0
 10 11  1  0  0  0  0
 11 16  1  0  0  0  0
 11 12  2  0  0  0  0
 12 17  1  0  0  0  0
 13 12  1  0  0  0  0
 13 18  1  0  0  0  0
 14 13  2  0  0  0  0
 15 10  2  0  0  0  0
 15 14  1  0  0  0  0
 19 15  1  0  0  0  0
 20 10  1  0  0  0  0
 20 21  1  0  0  0  0
 21 24  1  0  0  0  0
 21 22  1  0  0  0  0
 23 21  1  0  0  0  0
 25  5  1  0  0  0  0
 26 28  1  0  0  0  0
 26 25  1  0  0  0  0
 27 25  2  0  0  0  0
 29 26  1  0  0  0  0
 30  4  1  0  0  0  0
 30 31  1  0  0  0  0
 32 30  1  0  0  0  0
 33 30  1  0  0  0  0
 33 34  1  0  0  0  0
 34 35  2  0  0  0  0
 36 39  1  0  0  0  0
 36 34  1  0  0  0  0
 37 33  1  0  0  0  0
 38 36  1  0  0  0  0
 39 48  1  6  0  0  0
 39 40  1  0  0  0  0
 39 47  1  0  0  0  0
 40 41  1  0  0  0  0
 41 51  1  0  0  0  0
 41 42  1  0  0  0  0
 42 43  1  0  0  0  0
 43 44  2  0  0  0  0
 43 53  1  0  0  0  0
 44 54  1  0  0  0  0
 45 55  1  0  0  0  0
 45 44  1  0  0  0  0
 46 45  2  0  0  0  0
 47 46  1  0  0  0  0
 47 42  2  0  0  0  0
 49 40  1  0  0  0  0
 50 40  1  0  0  0  0
 52 41  1  0  0  0  0
 56 46  1  0  0  0  0
M  END
>  <MODEL>
27

>  <REMARK>
 VINA RESULT:    -6.903      5.855      8.298
 INTER + INTRA:          -9.785
 INTER:                 -11.825
 INTRA:                   2.040
 UNBOUND:                -0.259
  Name = 
  7 active torsions:
  status: ('A' for Active; 'I' for Inactive)
    1  A    between atoms: C_1  and  O_2
    2  A    between atoms: O_2  and  C_3
    3  A    between atoms: C_7  and  C_8
    4  A    between atoms: C_11  and  C_12
    5  A    between atoms: C_12  and  N_13
    6  A    between atoms: N_16  and  C_17
    7  A    between atoms: C_26  and  C_27
                            x       y       z     vdW  Elec       q    Type
                         _______ _______ _______ _____ _____    ______ ____

>  <TORSDO>
F 7

$$$$
=
 OpenBabel07192307433D

 56 59  0  0  1  0  0  0  0  0999 V2000
    1.4540   11.0550   18.9190 C   0  0  0  0  0  0  0  0  0  0  0  0
    1.9290   10.4060   17.7760 C   0  0  0  0  0  0  0  0  0  0  0  0
    2.1900    9.0340   17.7860 C   0  0  0  0  0  0  0  0  0  0  0  0
    1.9760    8.2560   18.9390 C   0  0  0  0  0  0  0  0  0  0  0  0
    1.4700    8.8950   20.0880 C   0  0  0  0  0  0  0  0  0  0  0  0
    1.2310   10.2840   20.0710 C   0  0  0  0  0  0  0  0  0  0  0  0
    2.0970   10.9650   16.8570 H   0  0  0  0  0  0  0  0  0  0  0  0
    2.5550    8.5660   16.8720 H   0  0  0  0  0  0  0  0  0  0  0  0
    0.8960   10.7880   20.9750 H   0  0  0  0  0  0  0  0  0  0  0  0
   -0.2390   14.4010   19.4650 C   0  0  0  0  0  0  0  0  0  0  0  0
    0.7050   15.2670   18.9120 C   0  0  0  0  0  0  0  0  0  0  0  0
    1.8870   14.7710   18.3650 C   0  0  0  0  0  0  0  0  0  0  0  0
    2.1300   13.3980   18.3660 C   0  0  0  0  0  0  0  0  0  0  0  0
    1.1980   12.5040   18.9170 C   0  0  0  0  0  0  0  0  0  0  0  0
    0.0100   13.0260   19.4650 C   0  0  0  0  0  0  0  0  0  0  0  0
    0.5180   16.3390   18.9110 H   0  0  0  0  0  0  0  0  0  0  0  0
    2.6180   15.4550   17.9420 H   0  0  0  0  0  0  0  0  0  0  0  0
    3.0640   13.0280   17.9500 H   0  0  0  0  0  0  0  0  0  0  0  0
   -0.7120   12.3310   19.8820 H   0  0  0  0  0  0  0  0  0  0  0  0
   -1.3520   15.0170   19.9680 O   0  0  0  0  0  0  0  0  0  0  0  0
   -2.2240   14.2250   20.7630 C   0  0  0  0  0  0  0  0  0  0  0  0
   -3.0130   13.7720   20.1520 H   0  0  0  0  0  0  0  0  0  0  0  0
   -1.6340   13.4120   21.1990 H   0  0  0  0  0  0  0  0  0  0  0  0
   -2.6470   14.8090   21.5870 H   0  0  0  0  0  0  0  0  0  0  0  0
    1.1830    8.1400   21.3450 C   0  0  0  0  0  0  0  0  0  0  0  0
    1.6060    8.7040   22.5180 N   0  0  0  0  0  0  0  0  0  0  0  0
    0.5550    7.0890   21.3630 O   0  0  0  0  0  0  0  0  0  0  0  0
    1.8640    9.6790   22.5770 H   0  0  0  0  0  0  0  0  0  0  0  0
    1.3010    8.2520   23.3700 H   0  0  0  0  0  0  0  0  0  0  0  0
    2.3260    6.7850   18.8730 C   0  0  0  0  0  0  0  0  0  0  0  0
    1.4090    6.1880   18.9160 H   0  0  0  0  0  0  0  0  0  0  0  0
    2.9330    6.4940   19.7400 H   0  0  0  0  0  0  0  0  0  0  0  0
    3.0510    6.4140   17.6840 N   0  0  0  0  0  0  0  0  0  0  0  0
    3.9730    5.4060   17.6840 C   0  0  0  0  0  0  0  0  0  0  0  0
    4.2090    4.6870   18.6450 O   0  0  0  0  0  0  0  0  0  0  0  0
    4.5990    5.3110   16.4680 N   0  0  0  0  0  0  0  0  0  0  0  0
    3.1490    7.1480   16.9930 H   0  0  0  0  0  0  0  0  0  0  0  0
    4.0140    5.5870   15.6940 H   0  0  0  0  0  0  0  0  0  0  0  0
    5.5120    4.2160   16.2040 C   0  0  2  0  0  0  0  0  0  0  0  0
    6.9050    4.4810   16.8080 C   0  0  0  0  0  0  0  0  0  0  0  0
    7.7240    5.2220   15.7390 C   0  0  0  0  0  0  0  0  0  0  0  0
    7.1050    4.7020   14.4810 C   0  0  0  0  0  0  0  0  0  0  0  0
    7.6040    4.7720   13.1910 C   0  0  0  0  0  0  0  0  0  0  0  0
    6.8280    4.2510   12.1530 C   0  0  0  0  0  0  0  0  0  0  0  0
    5.5710    3.6830   12.4120 C   0  0  0  0  0  0  0  0  0  0  0  0
    5.0710    3.6270   13.7130 C   0  0  0  0  0  0  0  0  0  0  0  0
    5.8500    4.1370   14.7410 C   0  0  0  0  0  0  0  0  0  0  0  0
    5.1060    3.2700   16.5790 H   0  0  0  0  0  0  0  0  0  0  0  0
    7.3920    3.5170   17.0100 H   0  0  0  0  0  0  0  0  0  0  0  0
    6.8720    5.0300   17.7550 H   0  0  0  0  0  0  0  0  0  0  0  0
    8.7880    4.9800   15.8140 H   0  0  0  0  0  0  0  0  0  0  0  0
    7.5810    6.3050   15.8100 H   0  0  0  0  0  0  0  0  0  0  0  0
    8.5700    5.2210   12.9870 H   0  0  0  0  0  0  0  0  0  0  0  0
    7.1990    4.2900   11.1310 H   0  0  0  0  0  0  0  0  0  0  0  0
    4.9790    3.2880   11.5900 H   0  0  0  0  0  0  0  0  0  0  0  0
    4.0930    3.2000   13.9180 H   0  0  0  0  0  0  0  0  0  0  0  0
  1  6  1  0  0  0  0
  2  3  1  0  0  0  0
  2  1  2  0  0  0  0
  3  4  2  0  0  0  0
  4  5  1  0  0  0  0
  5 25  1  0  0  0  0
  6  5  2  0  0  0  0
  6  9  1  0  0  0  0
  7  2  1  0  0  0  0
  8  3  1  0  0  0  0
 10 15  1  0  0  0  0
 10 20  1  0  0  0  0
 11 10  2  0  0  0  0
 12 13  2  0  0  0  0
 12 11  1  0  0  0  0
 13 14  1  0  0  0  0
 14  1  1  0  0  0  0
 14 15  2  0  0  0  0
 15 19  1  0  0  0  0
 16 11  1  0  0  0  0
 17 12  1  0  0  0  0
 18 13  1  0  0  0  0
 20 21  1  0  0  0  0
 21 23  1  0  0  0  0
 21 24  1  0  0  0  0
 22 21  1  0  0  0  0
 25 27  2  0  0  0  0
 25 26  1  0  0  0  0
 26 28  1  0  0  0  0
 26 29  1  0  0  0  0
 30 31  1  0  0  0  0
 30  4  1  0  0  0  0
 30 32  1  0  0  0  0
 33 34  1  0  0  0  0
 33 30  1  0  0  0  0
 34 35  2  0  0  0  0
 36 34  1  0  0  0  0
 37 33  1  0  0  0  0
 38 36  1  0  0  0  0
 39 36  1  0  0  0  0
 39 48  1  1  0  0  0
 39 40  1  0  0  0  0
 40 49  1  0  0  0  0
 40 50  1  0  0  0  0
 41 52  1  0  0  0  0
 41 51  1  0  0  0  0
 41 40  1  0  0  0  0
 42 47  1  0  0  0  0
 42 41  1  0  0  0  0
 43 42  2  0  0  0  0
 44 45  2  0  0  0  0
 44 43  1  0  0  0  0
 45 46  1  0  0  0  0
 46 56  1  0  0  0  0
 46 47  2  0  0  0  0
 47 39  1  0  0  0  0
 53 43  1  0  0  0  0
 54 44  1  0  0  0  0
 55 45  1  0  0  0  0
M  END
>  <MODEL>
28

>  <REMARK>
 VINA RESULT:    -6.892      2.449      3.523
 INTER + INTRA:          -9.769
 INTER:                  -9.184
 INTRA:                  -0.585
 UNBOUND:                -0.259
  Name = 
  7 active torsions:
  status: ('A' for Active; 'I' for Inactive)
    1  A    between atoms: C_1  and  O_2
    2  A    between atoms: O_2  and  C_3
    3  A    between atoms: C_7  and  C_8
    4  A    between atoms: C_11  and  C_12
    5  A    between atoms: C_12  and  N_13
    6  A    between atoms: N_16  and  C_17
    7  A    between atoms: C_26  and  C_27
                            x       y       z     vdW  Elec       q    Type
                         _______ _______ _______ _____ _____    ______ ____

>  <TORSDO>
F 7

$$$$
=
 OpenBabel07192307433D

 56 59  0  0  1  0  0  0  0  0999 V2000
    2.2960    6.2920   19.0180 C   0  0  0  0  0  0  0  0  0  0  0  0
    2.0050    6.3200   20.3850 C   0  0  0  0  0  0  0  0  0  0  0  0
    1.3970    7.4340   20.9670 C   0  0  0  0  0  0  0  0  0  0  0  0
    1.0470    8.5610   20.2010 C   0  0  0  0  0  0  0  0  0  0  0  0
    1.3100    8.5320   18.8170 C   0  0  0  0  0  0  0  0  0  0  0  0
    1.9430    7.4100   18.2460 C   0  0  0  0  0  0  0  0  0  0  0  0
    2.2460    5.4640   21.0150 H   0  0  0  0  0  0  0  0  0  0  0  0
    1.1820    7.4130   22.0360 H   0  0  0  0  0  0  0  0  0  0  0  0
    2.2000    7.4110   17.1890 H   0  0  0  0  0  0  0  0  0  0  0  0
    4.8480    4.1540   17.2080 C   0  0  0  0  0  0  0  0  0  0  0  0
    4.2180    2.9090   17.2400 C   0  0  0  0  0  0  0  0  0  0  0  0
    2.9720    2.7600   17.8470 C   0  0  0  0  0  0  0  0  0  0  0  0
    2.3450    3.8630   18.4250 C   0  0  0  0  0  0  0  0  0  0  0  0
    2.9560    5.1270   18.4080 C   0  0  0  0  0  0  0  0  0  0  0  0
    4.2160    5.2560   17.7910 C   0  0  0  0  0  0  0  0  0  0  0  0
    4.7050    2.0460   16.7910 H   0  0  0  0  0  0  0  0  0  0  0  0
    2.4930    1.7850   17.8710 H   0  0  0  0  0  0  0  0  0  0  0  0
    1.3800    3.7280   18.9080 H   0  0  0  0  0  0  0  0  0  0  0  0
    4.6810    6.2360   17.7710 H   0  0  0  0  0  0  0  0  0  0  0  0
    6.0650    4.1600   16.5840 O   0  0  0  0  0  0  0  0  0  0  0  0
    7.1630    4.6840   17.3190 C   0  0  0  0  0  0  0  0  0  0  0  0
    7.0730    5.7690   17.4450 H   0  0  0  0  0  0  0  0  0  0  0  0
    7.1450    4.2320   18.3160 H   0  0  0  0  0  0  0  0  0  0  0  0
    8.1150    4.4170   16.8500 H   0  0  0  0  0  0  0  0  0  0  0  0
    0.9420    9.6720   17.9230 C   0  0  0  0  0  0  0  0  0  0  0  0
    1.9630   10.4690   17.4840 N   0  0  0  0  0  0  0  0  0  0  0  0
   -0.2030    9.8780   17.5420 O   0  0  0  0  0  0  0  0  0  0  0  0
    2.9290   10.1770   17.5350 H   0  0  0  0  0  0  0  0  0  0  0  0
    1.7240   11.1600   16.7840 H   0  0  0  0  0  0  0  0  0  0  0  0
    0.4300    9.7410   20.9200 C   0  0  0  0  0  0  0  0  0  0  0  0
    0.0230    9.4120   21.8820 H   0  0  0  0  0  0  0  0  0  0  0  0
   -0.4110   10.1480   20.3450 H   0  0  0  0  0  0  0  0  0  0  0  0
    1.3560   10.8180   21.1680 N   0  0  0  0  0  0  0  0  0  0  0  0
    1.2750   12.0080   20.5030 C   0  0  0  0  0  0  0  0  0  0  0  0
    0.3860   12.2980   19.7140 O   0  0  0  0  0  0  0  0  0  0  0  0
    2.3210   12.8310   20.8340 N   0  0  0  0  0  0  0  0  0  0  0  0
    2.2600   10.5340   21.5270 H   0  0  0  0  0  0  0  0  0  0  0  0
    2.6560   12.6920   21.7760 H   0  0  0  0  0  0  0  0  0  0  0  0
    2.3530   14.1970   20.3530 C   0  0  2  0  0  0  0  0  0  0  0  0
    1.6220   14.3410   19.0030 C   0  0  0  0  0  0  0  0  0  0  0  0
    2.6610   14.0880   17.9000 C   0  0  0  0  0  0  0  0  0  0  0  0
    3.9180   14.5410   18.5730 C   0  0  0  0  0  0  0  0  0  0  0  0
    5.1400   14.8340   17.9900 C   0  0  0  0  0  0  0  0  0  0  0  0
    6.1990   15.2030   18.8240 C   0  0  0  0  0  0  0  0  0  0  0  0
    6.0280   15.2630   20.2160 C   0  0  0  0  0  0  0  0  0  0  0  0
    4.7970   14.9550   20.7940 C   0  0  0  0  0  0  0  0  0  0  0  0
    3.7470   14.5990   19.9610 C   0  0  0  0  0  0  0  0  0  0  0  0
    1.9250   14.8820   21.0930 H   0  0  0  0  0  0  0  0  0  0  0  0
    1.2580   15.3730   18.9060 H   0  0  0  0  0  0  0  0  0  0  0  0
    0.7520   13.6820   18.9070 H   0  0  0  0  0  0  0  0  0  0  0  0
    2.4360   14.6660   17.0000 H   0  0  0  0  0  0  0  0  0  0  0  0
    2.7280   13.0230   17.6550 H   0  0  0  0  0  0  0  0  0  0  0  0
    5.2780   14.7780   16.9160 H   0  0  0  0  0  0  0  0  0  0  0  0
    7.1670   15.4420   18.3910 H   0  0  0  0  0  0  0  0  0  0  0  0
    6.8660   15.5460   20.8500 H   0  0  0  0  0  0  0  0  0  0  0  0
    4.6630   14.9870   21.8730 H   0  0  0  0  0  0  0  0  0  0  0  0
  1  2  1  0  0  0  0
  2  3  2  0  0  0  0
  2  7  1  0  0  0  0
  3  8  1  0  0  0  0
  4 30  1  0  0  0  0
  4  3  1  0  0  0  0
  5  4  2  0  0  0  0
  6  5  1  0  0  0  0
  6  1  2  0  0  0  0
  9  6  1  0  0  0  0
 10 11  2  0  0  0  0
 10 15  1  0  0  0  0
 11 12  1  0  0  0  0
 12 17  1  0  0  0  0
 12 13  2  0  0  0  0
 13 18  1  0  0  0  0
 14 13  1  0  0  0  0
 14  1  1  0  0  0  0
 15 14  2  0  0  0  0
 16 11  1  0  0  0  0
 19 15  1  0  0  0  0
 20 10  1  0  0  0  0
 20 21  1  0  0  0  0
 21 22  1  0  0  0  0
 21 23  1  0  0  0  0
 24 21  1  0  0  0  0
 25  5  1  0  0  0  0
 26 28  1  0  0  0  0
 26 25  1  0  0  0  0
 27 25  2  0  0  0  0
 29 26  1  0  0  0  0
 30 33  1  0  0  0  0
 30 31  1  0  0  0  0
 32 30  1  0  0  0  0
 33 37  1  0  0  0  0
 34 36  1  0  0  0  0
 34 33  1  0  0  0  0
 35 34  2  0  0  0  0
 36 38  1  0  0  0  0
 39 36  1  0  0  0  0
 39 48  1  1  0  0  0
 40 39  1  0  0  0  0
 41 42  1  0  0  0  0
 41 40  1  0  0  0  0
 42 47  1  0  0  0  0
 43 42  2  0  0  0  0
 43 44  1  0  0  0  0
 44 45  2  0  0  0  0
 45 46  1  0  0  0  0
 45 55  1  0  0  0  0
 46 56  1  0  0  0  0
 47 39  1  0  0  0  0
 47 46  2  0  0  0  0
 49 40  1  0  0  0  0
 50 40  1  0  0  0  0
 51 41  1  0  0  0  0
 52 41  1  0  0  0  0
 53 43  1  0  0  0  0
 54 44  1  0  0  0  0
M  END
>  <MODEL>
29

>  <REMARK>
 VINA RESULT:    -6.880      3.501      9.205
 INTER + INTRA:          -9.753
 INTER:                  -9.616
 INTRA:                  -0.137
 UNBOUND:                -0.259
  Name = 
  7 active torsions:
  status: ('A' for Active; 'I' for Inactive)
    1  A    between atoms: C_1  and  O_2
    2  A    between atoms: O_2  and  C_3
    3  A    between atoms: C_7  and  C_8
    4  A    between atoms: C_11  and  C_12
    5  A    between atoms: C_12  and  N_13
    6  A    between atoms: N_16  and  C_17
    7  A    between atoms: C_26  and  C_27
                            x       y       z     vdW  Elec       q    Type
                         _______ _______ _______ _____ _____    ______ ____

>  <TORSDO>
F 7

$$$$
=
 OpenBabel07192307433D

 56 59  0  0  1  0  0  0  0  0999 V2000
   -0.6960   12.1380   21.2210 C   0  0  0  0  0  0  0  0  0  0  0  0
   -0.3810   12.6320   19.9520 C   0  0  0  0  0  0  0  0  0  0  0  0
    0.3580   11.8670   19.0470 C   0  0  0  0  0  0  0  0  0  0  0  0
    0.8020   10.5720   19.3740 C   0  0  0  0  0  0  0  0  0  0  0  0
    0.4650   10.0540   20.6400 C   0  0  0  0  0  0  0  0  0  0  0  0
   -0.2630   10.8440   21.5520 C   0  0  0  0  0  0  0  0  0  0  0  0
   -0.7150   13.6240   19.6510 H   0  0  0  0  0  0  0  0  0  0  0  0
    0.5780   12.2880   18.0660 H   0  0  0  0  0  0  0  0  0  0  0  0
   -0.4720   10.4670   22.5500 H   0  0  0  0  0  0  0  0  0  0  0  0
   -3.5210   13.4010   23.4080 C   0  0  0  0  0  0  0  0  0  0  0  0
   -2.9120   14.4990   24.0160 C   0  0  0  0  0  0  0  0  0  0  0  0
   -1.5900   14.8310   23.7220 C   0  0  0  0  0  0  0  0  0  0  0  0
   -0.8690   14.0610   22.8090 C   0  0  0  0  0  0  0  0  0  0  0  0
   -1.4570   12.9510   22.1830 C   0  0  0  0  0  0  0  0  0  0  0  0
   -2.7930   12.6330   22.4960 C   0  0  0  0  0  0  0  0  0  0  0  0
   -3.4730   15.1010   24.7290 H   0  0  0  0  0  0  0  0  0  0  0  0
   -1.1240   15.6850   24.2050 H   0  0  0  0  0  0  0  0  0  0  0  0
    0.1660   14.3240   22.6020 H   0  0  0  0  0  0  0  0  0  0  0  0
   -3.2460   11.7780   22.0030 H   0  0  0  0  0  0  0  0  0  0  0  0
   -4.8180   13.1870   23.7870 O   0  0  0  0  0  0  0  0  0  0  0  0
   -5.0360   12.2750   24.8550 C   0  0  0  0  0  0  0  0  0  0  0  0
   -5.2590   12.8050   25.7880 H   0  0  0  0  0  0  0  0  0  0  0  0
   -5.9090   11.6660   24.6020 H   0  0  0  0  0  0  0  0  0  0  0  0
   -4.1820   11.6000   24.9780 H   0  0  0  0  0  0  0  0  0  0  0  0
    0.8670    8.6760   21.0570 C   0  0  0  0  0  0  0  0  0  0  0  0
    1.9850    8.5670   21.8390 N   0  0  0  0  0  0  0  0  0  0  0  0
    0.2200    7.6770   20.7720 O   0  0  0  0  0  0  0  0  0  0  0  0
    2.3760    9.3620   22.3250 H   0  0  0  0  0  0  0  0  0  0  0  0
    2.1800    7.6490   22.2180 H   0  0  0  0  0  0  0  0  0  0  0  0
    1.6330    9.8310   18.3490 C   0  0  0  0  0  0  0  0  0  0  0  0
    2.6970    9.9890   18.5550 H   0  0  0  0  0  0  0  0  0  0  0  0
    1.4450   10.2240   17.3420 H   0  0  0  0  0  0  0  0  0  0  0  0
    1.3860    8.4110   18.3200 N   0  0  0  0  0  0  0  0  0  0  0  0
    2.4030    7.4990   18.3450 C   0  0  0  0  0  0  0  0  0  0  0  0
    3.5850    7.7880   18.4720 O   0  0  0  0  0  0  0  0  0  0  0  0
    1.9240    6.2220   18.2050 N   0  0  0  0  0  0  0  0  0  0  0  0
    0.5100    8.1350   17.8910 H   0  0  0  0  0  0  0  0  0  0  0  0
    0.9990    6.0970   18.5880 H   0  0  0  0  0  0  0  0  0  0  0  0
    2.8180    5.0900   18.3470 C   0  0  2  0  0  0  0  0  0  0  0  0
    2.6120    4.0600   17.2180 C   0  0  0  0  0  0  0  0  0  0  0  0
    1.5350    3.0750   17.7000 C   0  0  0  0  0  0  0  0  0  0  0  0
    1.7350    3.1230   19.1810 C   0  0  0  0  0  0  0  0  0  0  0  0
    1.2660    2.2350   20.1350 C   0  0  0  0  0  0  0  0  0  0  0  0
    1.5420    2.5010   21.4790 C   0  0  0  0  0  0  0  0  0  0  0  0
    2.2660    3.6440   21.8500 C   0  0  0  0  0  0  0  0  0  0  0  0
    2.7250    4.5390   20.8820 C   0  0  0  0  0  0  0  0  0  0  0  0
    2.4570    4.2650   19.5500 C   0  0  0  0  0  0  0  0  0  0  0  0
    3.8620    5.4190   18.3780 H   0  0  0  0  0  0  0  0  0  0  0  0
    3.5490    3.5040   17.0730 H   0  0  0  0  0  0  0  0  0  0  0  0
    2.3540    4.5150   16.2560 H   0  0  0  0  0  0  0  0  0  0  0  0
    1.6960    2.0760   17.2870 H   0  0  0  0  0  0  0  0  0  0  0  0
    0.5320    3.4300   17.4440 H   0  0  0  0  0  0  0  0  0  0  0  0
    0.6960    1.3570   19.8520 H   0  0  0  0  0  0  0  0  0  0  0  0
    1.1870    1.8180   22.2470 H   0  0  0  0  0  0  0  0  0  0  0  0
    2.4660    3.8380   22.9010 H   0  0  0  0  0  0  0  0  0  0  0  0
    3.2750    5.4330   21.1650 H   0  0  0  0  0  0  0  0  0  0  0  0
  1  6  1  0  0  0  0
  1 14  1  0  0  0  0
  2  1  2  0  0  0  0
  3  4  2  0  0  0  0
  3  2  1  0  0  0  0
  4  5  1  0  0  0  0
  5 25  1  0  0  0  0
  5  6  2  0  0  0  0
  6  9  1  0  0  0  0
  7  2  1  0  0  0  0
  8  3  1  0  0  0  0
 10 20  1  0  0  0  0
 10 11  1  0  0  0  0
 11 16  1  0  0  0  0
 12 11  2  0  0  0  0
 12 17  1  0  0  0  0
 13 12  1  0  0  0  0
 14 15  1  0  0  0  0
 14 13  2  0  0  0  0
 15 10  2  0  0  0  0
 18 13  1  0  0  0  0
 19 15  1  0  0  0  0
 20 21  1  0  0  0  0
 21 24  1  0  0  0  0
 21 22  1  0  0  0  0
 23 21  1  0  0  0  0
 25 26  1  0  0  0  0
 26 29  1  0  0  0  0
 26 28  1  0  0  0  0
 27 25  2  0  0  0  0
 30 31  1  0  0  0  0
 30  4  1  0  0  0  0
 32 30  1  0  0  0  0
 33 34  1  0  0  0  0
 33 30  1  0  0  0  0
 34 35  2  0  0  0  0
 36 34  1  0  0  0  0
 36 39  1  0  0  0  0
 36 38  1  0  0  0  0
 37 33  1  0  0  0  0
 39 48  1  1  0  0  0
 39 47  1  0  0  0  0
 40 41  1  0  0  0  0
 40 39  1  0  0  0  0
 41 42  1  0  0  0  0
 42 47  2  0  0  0  0
 42 43  1  0  0  0  0
 43 44  2  0  0  0  0
 44 45  1  0  0  0  0
 44 54  1  0  0  0  0
 45 55  1  0  0  0  0
 46 56  1  0  0  0  0
 46 45  2  0  0  0  0
 47 46  1  0  0  0  0
 49 40  1  0  0  0  0
 50 40  1  0  0  0  0
 51 41  1  0  0  0  0
 52 41  1  0  0  0  0
 53 43  1  0  0  0  0
M  END
>  <MODEL>
30

>  <REMARK>
 VINA RESULT:    -6.844      2.490      3.962
 INTER + INTRA:          -9.704
 INTER:                  -9.097
 INTRA:                  -0.607
 UNBOUND:                -0.259
  Name = 
  7 active torsions:
  status: ('A' for Active; 'I' for Inactive)
    1  A    between atoms: C_1  and  O_2
    2  A    between atoms: O_2  and  C_3
    3  A    between atoms: C_7  and  C_8
    4  A    between atoms: C_11  and  C_12
    5  A    between atoms: C_12  and  N_13
    6  A    between atoms: N_16  and  C_17
    7  A    between atoms: C_26  and  C_27
                            x       y       z     vdW  Elec       q    Type
                         _______ _______ _______ _____ _____    ______ ____

>  <TORSDO>
F 7

$$$$
=
 OpenBabel07192307433D

 56 59  0  0  1  0  0  0  0  0999 V2000
    5.0710    5.0280   15.8000 C   0  0  0  0  0  0  0  0  0  0  0  0
    5.4350    6.2220   16.4300 C   0  0  0  0  0  0  0  0  0  0  0  0
    4.8460    6.6050   17.6370 C   0  0  0  0  0  0  0  0  0  0  0  0
    3.8760    5.8030   18.2660 C   0  0  0  0  0  0  0  0  0  0  0  0
    3.5230    4.5840   17.6550 C   0  0  0  0  0  0  0  0  0  0  0  0
    4.1090    4.2180   16.4260 C   0  0  0  0  0  0  0  0  0  0  0  0
    6.1910    6.8680   15.9870 H   0  0  0  0  0  0  0  0  0  0  0  0
    5.1620    7.5410   18.0980 H   0  0  0  0  0  0  0  0  0  0  0  0
    3.7940    3.3070   15.9240 H   0  0  0  0  0  0  0  0  0  0  0  0
    7.4170    4.8990   12.8280 C   0  0  0  0  0  0  0  0  0  0  0  0
    6.8300    3.8840   12.0730 C   0  0  0  0  0  0  0  0  0  0  0  0
    5.6790    3.2400   12.5240 C   0  0  0  0  0  0  0  0  0  0  0  0
    5.1050    3.6140   13.7380 C   0  0  0  0  0  0  0  0  0  0  0  0
    5.6750    4.6330   14.5180 C   0  0  0  0  0  0  0  0  0  0  0  0
    6.8390    5.2690   14.0450 C   0  0  0  0  0  0  0  0  0  0  0  0
    7.2770    3.5890   11.1250 H   0  0  0  0  0  0  0  0  0  0  0  0
    5.2330    2.4460   11.9300 H   0  0  0  0  0  0  0  0  0  0  0  0
    4.2160    3.0920   14.0830 H   0  0  0  0  0  0  0  0  0  0  0  0
    7.2710    6.0630   14.6470 H   0  0  0  0  0  0  0  0  0  0  0  0
    8.5420    5.4450   12.2720 O   0  0  0  0  0  0  0  0  0  0  0  0
    9.4560    6.0780   13.1570 C   0  0  0  0  0  0  0  0  0  0  0  0
   10.4570    5.6400   13.0700 H   0  0  0  0  0  0  0  0  0  0  0  0
    9.5290    7.1310   12.8670 H   0  0  0  0  0  0  0  0  0  0  0  0
    9.0960    6.0410   14.1900 H   0  0  0  0  0  0  0  0  0  0  0  0
    2.5270    3.6560   18.2710 C   0  0  0  0  0  0  0  0  0  0  0  0
    1.2540    3.6910   17.7680 N   0  0  0  0  0  0  0  0  0  0  0  0
    2.8160    2.8530   19.1480 O   0  0  0  0  0  0  0  0  0  0  0  0
    1.0440    4.1180   16.8770 H   0  0  0  0  0  0  0  0  0  0  0  0
    0.6190    2.9780   18.1030 H   0  0  0  0  0  0  0  0  0  0  0  0
    3.2600    6.3160   19.5500 C   0  0  0  0  0  0  0  0  0  0  0  0
    3.9760    6.9630   20.0670 H   0  0  0  0  0  0  0  0  0  0  0  0
    3.0380    5.4840   20.2310 H   0  0  0  0  0  0  0  0  0  0  0  0
    2.0410    7.0590   19.3510 N   0  0  0  0  0  0  0  0  0  0  0  0
    2.0350    8.2950   18.7680 C   0  0  0  0  0  0  0  0  0  0  0  0
    3.0240    8.8410   18.2990 O   0  0  0  0  0  0  0  0  0  0  0  0
    0.7770    8.8400   18.7830 N   0  0  0  0  0  0  0  0  0  0  0  0
    1.2890    6.8300   19.9890 H   0  0  0  0  0  0  0  0  0  0  0  0
    0.0410    8.1520   18.7350 H   0  0  0  0  0  0  0  0  0  0  0  0
    0.5160   10.0850   18.0890 C   0  0  2  0  0  0  0  0  0  0  0  0
    0.8500   11.3070   18.9690 C   0  0  0  0  0  0  0  0  0  0  0  0
   -0.4230   11.6550   19.7560 C   0  0  0  0  0  0  0  0  0  0  0  0
   -1.4870   11.1790   18.8190 C   0  0  0  0  0  0  0  0  0  0  0  0
   -2.8380   11.4830   18.8360 C   0  0  0  0  0  0  0  0  0  0  0  0
   -3.6620   10.8860   17.8790 C   0  0  0  0  0  0  0  0  0  0  0  0
   -3.1340    9.9930   16.9330 C   0  0  0  0  0  0  0  0  0  0  0  0
   -1.7730    9.6840   16.9320 C   0  0  0  0  0  0  0  0  0  0  0  0
   -0.9580   10.2870   17.8780 C   0  0  0  0  0  0  0  0  0  0  0  0
    1.0720   10.1310   17.1470 H   0  0  0  0  0  0  0  0  0  0  0  0
    1.0970   12.1550   18.3170 H   0  0  0  0  0  0  0  0  0  0  0  0
    1.7110   11.1460   19.6280 H   0  0  0  0  0  0  0  0  0  0  0  0
   -0.4880   12.7280   19.9540 H   0  0  0  0  0  0  0  0  0  0  0  0
   -0.4720   11.0960   20.6970 H   0  0  0  0  0  0  0  0  0  0  0  0
   -3.2510   12.1640   19.5720 H   0  0  0  0  0  0  0  0  0  0  0  0
   -4.7260   11.1120   17.8680 H   0  0  0  0  0  0  0  0  0  0  0  0
   -3.7920    9.5330   16.2000 H   0  0  0  0  0  0  0  0  0  0  0  0
   -1.3610    8.9820   16.2100 H   0  0  0  0  0  0  0  0  0  0  0  0
  1  6  2  0  0  0  0
  1  2  1  0  0  0  0
  2  3  2  0  0  0  0
  3  8  1  0  0  0  0
  3  4  1  0  0  0  0
  4 30  1  0  0  0  0
  5  4  2  0  0  0  0
  5 25  1  0  0  0  0
  6  5  1  0  0  0  0
  7  2  1  0  0  0  0
  9  6  1  0  0  0  0
 10 15  1  0  0  0  0
 11 12  1  0  0  0  0
 11 10  2  0  0  0  0
 12 13  2  0  0  0  0
 13 18  1  0  0  0  0
 13 14  1  0  0  0  0
 14  1  1  0  0  0  0
 15 14  2  0  0  0  0
 15 19  1  0  0  0  0
 16 11  1  0  0  0  0
 17 12  1  0  0  0  0
 20 10  1  0  0  0  0
 20 21  1  0  0  0  0
 21 24  1  0  0  0  0
 22 21  1  0  0  0  0
 23 21  1  0  0  0  0
 25 27  2  0  0  0  0
 26 29  1  0  0  0  0
 26 25  1  0  0  0  0
 28 26  1  0  0  0  0
 30 31  1  0  0  0  0
 30 32  1  0  0  0  0
 33 30  1  0  0  0  0
 33 37  1  0  0  0  0
 34 36  1  0  0  0  0
 34 33  1  0  0  0  0
 35 34  2  0  0  0  0
 38 36  1  0  0  0  0
 39 48  1  6  0  0  0
 39 36  1  0  0  0  0
 39 40  1  0  0  0  0
 40 50  1  0  0  0  0
 40 41  1  0  0  0  0
 41 51  1  0  0  0  0
 41 52  1  0  0  0  0
 42 43  1  0  0  0  0
 42 41  1  0  0  0  0
 43 53  1  0  0  0  0
 44 43  2  0  0  0  0
 45 44  1  0  0  0  0
 46 45  2  0  0  0  0
 46 47  1  0  0  0  0
 47 39  1  0  0  0  0
 47 42  2  0  0  0  0
 49 40  1  0  0  0  0
 54 44  1  0  0  0  0
 55 45  1  0  0  0  0
 56 46  1  0  0  0  0
M  END
>  <MODEL>
31

>  <REMARK>
 VINA RESULT:    -6.806      3.213     10.657
 INTER + INTRA:          -9.651
 INTER:                  -9.208
 INTRA:                  -0.443
 UNBOUND:                -0.259
  Name = 
  7 active torsions:
  status: ('A' for Active; 'I' for Inactive)
    1  A    between atoms: C_1  and  O_2
    2  A    between atoms: O_2  and  C_3
    3  A    between atoms: C_7  and  C_8
    4  A    between atoms: C_11  and  C_12
    5  A    between atoms: C_12  and  N_13
    6  A    between atoms: N_16  and  C_17
    7  A    between atoms: C_26  and  C_27
                            x       y       z     vdW  Elec       q    Type
                         _______ _______ _______ _____ _____    ______ ____

>  <TORSDO>
F 7

$$$$
=
 OpenBabel07192307433D

 56 59  0  0  1  0  0  0  0  0999 V2000
   -1.4500   10.2260   18.6590 C   0  0  0  0  0  0  0  0  0  0  0  0
   -0.5650    9.8030   17.6630 C   0  0  0  0  0  0  0  0  0  0  0  0
    0.6290    9.1550   17.9910 C   0  0  0  0  0  0  0  0  0  0  0  0
    0.9780    8.8970   19.3300 C   0  0  0  0  0  0  0  0  0  0  0  0
    0.0790    9.2930   20.3400 C   0  0  0  0  0  0  0  0  0  0  0  0
   -1.1120    9.9650   19.9970 C   0  0  0  0  0  0  0  0  0  0  0  0
   -0.8000    9.9700   16.6130 H   0  0  0  0  0  0  0  0  0  0  0  0
    1.2880    8.8380   17.1840 H   0  0  0  0  0  0  0  0  0  0  0  0
   -1.7770   10.3240   20.7790 H   0  0  0  0  0  0  0  0  0  0  0  0
   -4.4800   12.4870   18.9090 C   0  0  0  0  0  0  0  0  0  0  0  0
   -5.0770   12.2650   17.6680 C   0  0  0  0  0  0  0  0  0  0  0  0
   -4.5010   11.3880   16.7510 C   0  0  0  0  0  0  0  0  0  0  0  0
   -3.3200   10.7220   17.0750 C   0  0  0  0  0  0  0  0  0  0  0  0
   -2.6970   10.9270   18.3170 C   0  0  0  0  0  0  0  0  0  0  0  0
   -3.2950   11.8190   19.2280 C   0  0  0  0  0  0  0  0  0  0  0  0
   -5.9990   12.7840   17.4120 H   0  0  0  0  0  0  0  0  0  0  0  0
   -4.9720   11.2270   15.7840 H   0  0  0  0  0  0  0  0  0  0  0  0
   -2.8750   10.0530   16.3430 H   0  0  0  0  0  0  0  0  0  0  0  0
   -2.8150   11.9680   20.1910 H   0  0  0  0  0  0  0  0  0  0  0  0
   -5.1470   13.3710   19.7120 O   0  0  0  0  0  0  0  0  0  0  0  0
   -4.5570   13.6710   20.9700 C   0  0  0  0  0  0  0  0  0  0  0  0
   -4.2710   12.7560   21.5010 H   0  0  0  0  0  0  0  0  0  0  0  0
   -3.6450   14.2460   20.7840 H   0  0  0  0  0  0  0  0  0  0  0  0
   -5.2220   14.2910   21.5800 H   0  0  0  0  0  0  0  0  0  0  0  0
    0.3550    9.0290   21.7840 C   0  0  0  0  0  0  0  0  0  0  0  0
   -0.6350    8.4140   22.5020 N   0  0  0  0  0  0  0  0  0  0  0  0
    1.4260    9.2890   22.3180 O   0  0  0  0  0  0  0  0  0  0  0  0
   -1.4010    7.9340   22.0500 H   0  0  0  0  0  0  0  0  0  0  0  0
   -0.3970    8.1280   23.4420 H   0  0  0  0  0  0  0  0  0  0  0  0
    2.3090    8.2280   19.5950 C   0  0  0  0  0  0  0  0  0  0  0  0
    2.2080    7.5300   20.4330 H   0  0  0  0  0  0  0  0  0  0  0  0
    3.0610    8.9700   19.8930 H   0  0  0  0  0  0  0  0  0  0  0  0
    2.8300    7.5030   18.4630 N   0  0  0  0  0  0  0  0  0  0  0  0
    3.6380    6.4120   18.6140 C   0  0  0  0  0  0  0  0  0  0  0  0
    3.9260    5.9100   19.6910 O   0  0  0  0  0  0  0  0  0  0  0  0
    4.0860    5.9590   17.3990 N   0  0  0  0  0  0  0  0  0  0  0  0
    2.9090    8.0400   17.6080 H   0  0  0  0  0  0  0  0  0  0  0  0
    3.4340    6.1230   16.6460 H   0  0  0  0  0  0  0  0  0  0  0  0
    4.8410    4.7260   17.3160 C   0  0  2  0  0  0  0  0  0  0  0  0
    6.1230    4.7870   18.1710 C   0  0  0  0  0  0  0  0  0  0  0  0
    7.2350    5.3500   17.2720 C   0  0  0  0  0  0  0  0  0  0  0  0
    6.7830    4.8920   15.9220 C   0  0  0  0  0  0  0  0  0  0  0  0
    7.5170    4.8370   14.7490 C   0  0  0  0  0  0  0  0  0  0  0  0
    6.8730    4.4090   13.5860 C   0  0  0  0  0  0  0  0  0  0  0  0
    5.5140    4.0570   13.6060 C   0  0  0  0  0  0  0  0  0  0  0  0
    4.7800    4.1270   14.7900 C   0  0  0  0  0  0  0  0  0  0  0  0
    5.4270    4.5420   15.9440 C   0  0  0  0  0  0  0  0  0  0  0  0
    4.2250    3.8700   17.6130 H   0  0  0  0  0  0  0  0  0  0  0  0
    6.4010    3.7650   18.4650 H   0  0  0  0  0  0  0  0  0  0  0  0
    6.0050    5.3670   19.0920 H   0  0  0  0  0  0  0  0  0  0  0  0
    8.2130    4.9450   17.5470 H   0  0  0  0  0  0  0  0  0  0  0  0
    7.2590    6.4440   17.3100 H   0  0  0  0  0  0  0  0  0  0  0  0
    8.5640    5.1190   14.7280 H   0  0  0  0  0  0  0  0  0  0  0  0
    7.4270    4.3540   12.6520 H   0  0  0  0  0  0  0  0  0  0  0  0
    5.0270    3.7330   12.6890 H   0  0  0  0  0  0  0  0  0  0  0  0
    3.7240    3.8680   14.8090 H   0  0  0  0  0  0  0  0  0  0  0  0
  1  6  1  0  0  0  0
  2  3  1  0  0  0  0
  2  1  2  0  0  0  0
  3  4  2  0  0  0  0
  4 30  1  0  0  0  0
  4  5  1  0  0  0  0
  5 25  1  0  0  0  0
  6  5  2  0  0  0  0
  6  9  1  0  0  0  0
  7  2  1  0  0  0  0
  8  3  1  0  0  0  0
 10 15  1  0  0  0  0
 10 20  1  0  0  0  0
 11 10  2  0  0  0  0
 12 13  2  0  0  0  0
 12 11  1  0  0  0  0
 13 14  1  0  0  0  0
 14  1  1  0  0  0  0
 14 15  2  0  0  0  0
 15 19  1  0  0  0  0
 16 11  1  0  0  0  0
 17 12  1  0  0  0  0
 18 13  1  0  0  0  0
 20 21  1  0  0  0  0
 21 22  1  0  0  0  0
 21 24  1  0  0  0  0
 23 21  1  0  0  0  0
 25 27  2  0  0  0  0
 25 26  1  0  0  0  0
 26 29  1  0  0  0  0
 28 26  1  0  0  0  0
 30 32  1  0  0  0  0
 30 31  1  0  0  0  0
 33 34  1  0  0  0  0
 33 30  1  0  0  0  0
 34 35  2  0  0  0  0
 36 34  1  0  0  0  0
 37 33  1  0  0  0  0
 38 36  1  0  0  0  0
 39 36  1  0  0  0  0
 39 48  1  1  0  0  0
 39 40  1  0  0  0  0
 40 49  1  0  0  0  0
 40 50  1  0  0  0  0
 41 52  1  0  0  0  0
 41 51  1  0  0  0  0
 41 40  1  0  0  0  0
 42 47  1  0  0  0  0
 42 41  1  0  0  0  0
 43 42  2  0  0  0  0
 44 45  2  0  0  0  0
 44 43  1  0  0  0  0
 45 46  1  0  0  0  0
 46 56  1  0  0  0  0
 46 47  2  0  0  0  0
 47 39  1  0  0  0  0
 53 43  1  0  0  0  0
 54 44  1  0  0  0  0
 55 45  1  0  0  0  0
M  END
>  <MODEL>
32

>  <REMARK>
 VINA RESULT:    -6.643      2.931      3.616
 INTER + INTRA:          -9.425
 INTER:                  -9.167
 INTRA:                  -0.259
 UNBOUND:                -0.259
  Name = 
  7 active torsions:
  status: ('A' for Active; 'I' for Inactive)
    1  A    between atoms: C_1  and  O_2
    2  A    between atoms: O_2  and  C_3
    3  A    between atoms: C_7  and  C_8
    4  A    between atoms: C_11  and  C_12
    5  A    between atoms: C_12  and  N_13
    6  A    between atoms: N_16  and  C_17
    7  A    between atoms: C_26  and  C_27
                            x       y       z     vdW  Elec       q    Type
                         _______ _______ _______ _____ _____    ______ ____

>  <TORSDO>
F 7

$$$$
