=
 OpenBabel07192307433D

 28 30  0  0  1  0  0  0  0  0999 V2000
    1.1180    3.0060   20.6450 C   0  0  0  0  0  0  0  0  0  0  0  0
    1.6140    4.4490   20.7550 C   0  0  0  0  0  0  0  0  0  0  0  0
    2.6380    4.8300   19.6830 C   0  0  0  0  0  0  0  0  0  0  0  0
    3.4740    3.6230   19.2440 C   0  0  0  0  0  0  0  0  0  0  0  0
    2.5940    2.5060   18.6520 C   0  0  0  0  0  0  0  0  0  0  0  0
    1.1700    2.4940   19.2120 C   0  0  0  0  0  0  0  0  0  0  0  0
    0.0970    2.9370   21.0370 H   0  0  0  0  0  0  0  0  0  0  0  0
    1.7390    2.3600   21.2790 H   0  0  0  0  0  0  0  0  0  0  0  0
    2.0470    4.5960   21.7520 H   0  0  0  0  0  0  0  0  0  0  0  0
    0.7640    5.1390   20.6890 H   0  0  0  0  0  0  0  0  0  0  0  0
    2.1070    5.2480   18.8170 H   0  0  0  0  0  0  0  0  0  0  0  0
    3.2800    5.6350   20.0630 H   0  0  0  0  0  0  0  0  0  0  0  0
    3.9610    3.2210   20.1450 H   0  0  0  0  0  0  0  0  0  0  0  0
    3.0760    1.5400   18.8600 H   0  0  0  0  0  0  0  0  0  0  0  0
    2.5340    2.5740   17.5590 H   0  0  0  0  0  0  0  0  0  0  0  0
    0.7630    1.4780   19.1580 H   0  0  0  0  0  0  0  0  0  0  0  0
    0.5270    3.1220   18.5830 H   0  0  0  0  0  0  0  0  0  0  0  0
    4.5570    3.9940   18.3480 N   0  0  1  0  0  0  0  0  0  0  0  0
    4.6320    3.7640   16.9940 C   0  0  0  0  0  3  0  0  0  0  0  0
    5.7530    4.2310   16.4720 N   0  0  0  0  0  0  0  0  0  0  0  0
    6.4150    4.7730   17.5250 C   0  0  0  0  0  0  0  0  0  0  0  0
    5.7020    4.6380   18.6690 C   0  0  2  0  0  3  0  0  0  0  0  0
    6.4320    5.2010   19.6590 N   0  0  0  0  0  0  0  0  0  0  0  0
    7.5780    5.6650   19.0520 C   0  0  0  0  0  0  0  0  0  0  0  0
    7.5890    5.4140   17.7550 N   0  0  0  0  0  0  0  0  0  0  0  0
    3.8520    3.2560   16.4420 H   0  0  0  0  0  0  0  0  0  0  0  0
    6.2040    5.2790   20.6400 H   0  0  0  0  0  0  0  0  0  0  0  0
    8.3600    6.1690   19.6040 H   0  0  0  0  0  0  0  0  0  0  0  0
  1  2  1  0  0  0  0
  1  7  1  0  0  0  0
  1  8  1  0  0  0  0
  2  9  1  0  0  0  0
  3 12  1  0  0  0  0
  3  2  1  0  0  0  0
  4  3  1  0  0  0  0
  4 13  1  0  0  0  0
  5 14  1  0  0  0  0
  5  6  1  0  0  0  0
  5  4  1  0  0  0  0
  6  1  1  0  0  0  0
 10  2  1  0  0  0  0
 11  3  1  0  0  0  0
 15  5  1  0  0  0  0
 16  6  1  0  0  0  0
 17  6  1  0  0  0  0
 18 22  1  0  0  0  0
 18  4  1  6  0  0  0
 19 18  1  0  0  0  0
 20 19  1  0  0  0  0
 20 21  2  0  0  0  0
 21 25  1  0  0  0  0
 22 21  1  1  0  0  0
 22 23  1  0  0  0  0
 23 27  1  0  0  0  0
 24 28  1  0  0  0  0
 24 23  1  0  0  0  0
 25 24  2  0  0  0  0
 26 19  1  0  0  0  0
M  END
>  <MODEL>
1

>  <REMARK>
 VINA RESULT:    -6.757      0.000      0.000
 INTER + INTRA:          -7.269
 INTER:                  -7.088
 INTRA:                  -0.181
 UNBOUND:                -0.117
  Name = 
  1 active torsions:
  status: ('A' for Active; 'I' for Inactive)
    1  A    between atoms: C_4  and  N_7
                            x       y       z     vdW  Elec       q    Type
                         _______ _______ _______ _____ _____    ______ ____

>  <TORSDO>
F 1

$$$$
=
 OpenBabel07192307433D

 28 30  0  0  1  0  0  0  0  0999 V2000
    1.2340    2.6130   20.3840 C   0  0  0  0  0  0  0  0  0  0  0  0
    1.7460    3.8320   21.1550 C   0  0  0  0  0  0  0  0  0  0  0  0
    2.5300    4.8210   20.2890 C   0  0  0  0  0  0  0  0  0  0  0  0
    3.2550    4.1150   19.1370 C   0  0  0  0  0  0  0  0  0  0  0  0
    2.2670    3.3840   18.2070 C   0  0  0  0  0  0  0  0  0  0  0  0
    0.9890    2.9310   18.9160 C   0  0  0  0  0  0  0  0  0  0  0  0
    0.3140    2.2440   20.8520 H   0  0  0  0  0  0  0  0  0  0  0  0
    1.9690    1.8020   20.4570 H   0  0  0  0  0  0  0  0  0  0  0  0
    2.3760    3.4830   21.9830 H   0  0  0  0  0  0  0  0  0  0  0  0
    0.9040    4.3600   21.6160 H   0  0  0  0  0  0  0  0  0  0  0  0
    1.8350    5.5690   19.8870 H   0  0  0  0  0  0  0  0  0  0  0  0
    3.2400    5.3730   20.9190 H   0  0  0  0  0  0  0  0  0  0  0  0
    3.9140    3.3570   19.5850 H   0  0  0  0  0  0  0  0  0  0  0  0
    2.7770    2.5090   17.7820 H   0  0  0  0  0  0  0  0  0  0  0  0
    1.9840    4.0050   17.3480 H   0  0  0  0  0  0  0  0  0  0  0  0
    0.5740    2.0560   18.4020 H   0  0  0  0  0  0  0  0  0  0  0  0
    0.2320    3.7230   18.8410 H   0  0  0  0  0  0  0  0  0  0  0  0
    4.1320    5.0100   18.4010 N   0  0  1  0  0  0  0  0  0  0  0  0
    3.7910    6.1990   17.7990 C   0  0  0  0  0  3  0  0  0  0  0  0
    4.8280    6.7740   17.2120 N   0  0  0  0  0  0  0  0  0  0  0  0
    5.8600    5.9250   17.4450 C   0  0  0  0  0  0  0  0  0  0  0  0
    5.4540    4.8510   18.1650 C   0  0  2  0  0  3  0  0  0  0  0  0
    6.5390    4.0650   18.3480 N   0  0  0  0  0  0  0  0  0  0  0  0
    7.5760    4.7160   17.7170 C   0  0  0  0  0  0  0  0  0  0  0  0
    7.1850    5.8480   17.1610 N   0  0  0  0  0  0  0  0  0  0  0  0
    2.7850    6.5980   17.8160 H   0  0  0  0  0  0  0  0  0  0  0  0
    6.6000    3.1840   18.8410 H   0  0  0  0  0  0  0  0  0  0  0  0
    8.5810    4.3160   17.6980 H   0  0  0  0  0  0  0  0  0  0  0  0
  1  8  1  0  0  0  0
  1  7  1  0  0  0  0
  1  2  1  0  0  0  0
  2 10  1  0  0  0  0
  2  9  1  0  0  0  0
  3 12  1  0  0  0  0
  3  2  1  0  0  0  0
  4 13  1  0  0  0  0
  4  3  1  0  0  0  0
  5  6  1  0  0  0  0
  5  4  1  0  0  0  0
  6  1  1  0  0  0  0
 11  3  1  0  0  0  0
 14  5  1  0  0  0  0
 15  5  1  0  0  0  0
 16  6  1  0  0  0  0
 17  6  1  0  0  0  0
 18  4  1  1  0  0  0
 19 26  1  0  0  0  0
 19 18  1  0  0  0  0
 20 21  2  0  0  0  0
 20 19  1  0  0  0  0
 22 21  1  6  0  0  0
 22 23  1  0  0  0  0
 22 18  1  0  0  0  0
 23 27  1  0  0  0  0
 24 23  1  0  0  0  0
 25 21  1  0  0  0  0
 25 24  2  0  0  0  0
 28 24  1  0  0  0  0
M  END
>  <MODEL>
2

>  <REMARK>
 VINA RESULT:    -6.698      1.358      1.405
 INTER + INTRA:          -7.206
 INTER:                  -7.058
 INTRA:                  -0.149
 UNBOUND:                -0.117
  Name = 
  1 active torsions:
  status: ('A' for Active; 'I' for Inactive)
    1  A    between atoms: C_4  and  N_7
                            x       y       z     vdW  Elec       q    Type
                         _______ _______ _______ _____ _____    ______ ____

>  <TORSDO>
F 1

$$$$
=
 OpenBabel07192307433D

 28 30  0  0  1  0  0  0  0  0999 V2000
    0.9730    3.6660   20.3690 C   0  0  0  0  0  0  0  0  0  0  0  0
    1.9560    2.4930   20.3320 C   0  0  0  0  0  0  0  0  0  0  0  0
    3.3180    2.8520   19.7310 C   0  0  0  0  0  0  0  0  0  0  0  0
    3.1970    3.9590   18.6770 C   0  0  0  0  0  0  0  0  0  0  0  0
    2.6130    5.2530   19.2760 C   0  0  0  0  0  0  0  0  0  0  0  0
    1.6900    5.0050   20.4710 C   0  0  0  0  0  0  0  0  0  0  0  0
    0.2820    3.5390   21.2100 H   0  0  0  0  0  0  0  0  0  0  0  0
    0.3610    3.6560   19.4590 H   0  0  0  0  0  0  0  0  0  0  0  0
    1.5020    1.6740   19.7610 H   0  0  0  0  0  0  0  0  0  0  0  0
    2.1110    2.1070   21.3460 H   0  0  0  0  0  0  0  0  0  0  0  0
    3.9870    3.1780   20.5380 H   0  0  0  0  0  0  0  0  0  0  0  0
    3.7740    1.9510   19.3020 H   0  0  0  0  0  0  0  0  0  0  0  0
    2.4970    3.6010   17.9090 H   0  0  0  0  0  0  0  0  0  0  0  0
    2.0550    5.7760   18.4870 H   0  0  0  0  0  0  0  0  0  0  0  0
    3.4020    5.9480   19.5880 H   0  0  0  0  0  0  0  0  0  0  0  0
    0.9610    5.8200   20.5470 H   0  0  0  0  0  0  0  0  0  0  0  0
    2.2800    5.0270   21.3960 H   0  0  0  0  0  0  0  0  0  0  0  0
    4.4500    4.2010   17.9810 N   0  0  2  0  0  0  0  0  0  0  0  0
    4.7270    3.9490   16.6570 C   0  0  0  0  0  3  0  0  0  0  0  0
    5.9650    4.2860   16.3360 N   0  0  0  0  0  0  0  0  0  0  0  0
    6.4940    4.7650   17.4900 C   0  0  0  0  0  0  0  0  0  0  0  0
    5.5880    4.7200   18.4960 C   0  0  1  0  0  3  0  0  0  0  0  0
    6.1960    5.2130   19.5990 N   0  0  0  0  0  0  0  0  0  0  0  0
    7.4720    5.5420   19.1980 C   0  0  0  0  0  0  0  0  0  0  0  0
    7.6750    5.2780   17.9200 N   0  0  0  0  0  0  0  0  0  0  0  0
    4.0010    3.5230   15.9770 H   0  0  0  0  0  0  0  0  0  0  0  0
    5.8150    5.3260   20.5280 H   0  0  0  0  0  0  0  0  0  0  0  0
    8.1990    5.9650   19.8790 H   0  0  0  0  0  0  0  0  0  0  0  0
  1  6  1  0  0  0  0
  1  7  1  0  0  0  0
  2  1  1  0  0  0  0
  2 10  1  0  0  0  0
  3  2  1  0  0  0  0
  3 11  1  0  0  0  0
  4  5  1  0  0  0  0
  4  3  1  0  0  0  0
  5 15  1  0  0  0  0
  5  6  1  0  0  0  0
  6 16  1  0  0  0  0
  6 17  1  0  0  0  0
  8  1  1  0  0  0  0
  9  2  1  0  0  0  0
 12  3  1  0  0  0  0
 13  4  1  0  0  0  0
 14  5  1  0  0  0  0
 18 22  1  0  0  0  0
 18  4  1  1  0  0  0
 19 18  1  0  0  0  0
 20 19  1  0  0  0  0
 20 21  2  0  0  0  0
 21 25  1  0  0  0  0
 22 21  1  6  0  0  0
 22 23  1  0  0  0  0
 23 27  1  0  0  0  0
 24 23  1  0  0  0  0
 24 28  1  0  0  0  0
 25 24  2  0  0  0  0
 26 19  1  0  0  0  0
M  END
>  <MODEL>
3

>  <REMARK>
 VINA RESULT:    -6.525      0.660      1.370
 INTER + INTRA:          -7.023
 INTER:                  -6.826
 INTRA:                  -0.197
 UNBOUND:                -0.117
  Name = 
  1 active torsions:
  status: ('A' for Active; 'I' for Inactive)
    1  A    between atoms: C_4  and  N_7
                            x       y       z     vdW  Elec       q    Type
                         _______ _______ _______ _____ _____    ______ ____

>  <TORSDO>
F 1

$$$$
=
 OpenBabel07192307433D

 28 30  0  0  1  0  0  0  0  0999 V2000
    1.6480    2.3850   19.0570 C   0  0  0  0  0  0  0  0  0  0  0  0
    1.1660    3.6660   18.3710 C   0  0  0  0  0  0  0  0  0  0  0  0
    2.2960    4.4910   17.7490 C   0  0  0  0  0  0  0  0  0  0  0  0
    3.6110    4.3220   18.5180 C   0  0  0  0  0  0  0  0  0  0  0  0
    4.0780    2.8540   18.5300 C   0  0  0  0  0  0  0  0  0  0  0  0
    2.9270    1.8500   18.4280 C   0  0  0  0  0  0  0  0  0  0  0  0
    0.8570    1.6270   19.0150 H   0  0  0  0  0  0  0  0  0  0  0  0
    1.8290    2.5880   20.1200 H   0  0  0  0  0  0  0  0  0  0  0  0
    0.6240    4.2730   19.1060 H   0  0  0  0  0  0  0  0  0  0  0  0
    0.4410    3.4170   17.5880 H   0  0  0  0  0  0  0  0  0  0  0  0
    2.4320    4.1760   16.7060 H   0  0  0  0  0  0  0  0  0  0  0  0
    1.9960    5.5460   17.7110 H   0  0  0  0  0  0  0  0  0  0  0  0
    3.4180    4.6190   19.5590 H   0  0  0  0  0  0  0  0  0  0  0  0
    4.6340    2.6770   19.4610 H   0  0  0  0  0  0  0  0  0  0  0  0
    4.7880    2.6480   17.7200 H   0  0  0  0  0  0  0  0  0  0  0  0
    3.2190    0.9070   18.9050 H   0  0  0  0  0  0  0  0  0  0  0  0
    2.7390    1.6200   17.3720 H   0  0  0  0  0  0  0  0  0  0  0  0
    4.6510    5.2190   18.0420 N   0  0  1  0  0  0  0  0  0  0  0  0
    4.6000    6.0410   16.9400 C   0  0  0  0  0  3  0  0  0  0  0  0
    5.7160    6.7330   16.7850 N   0  0  0  0  0  0  0  0  0  0  0  0
    6.5030    6.3390   17.8170 C   0  0  0  0  0  0  0  0  0  0  0  0
    5.8720    5.4220   18.5880 C   0  0  2  0  0  3  0  0  0  0  0  0
    6.7240    5.0880   19.5850 N   0  0  0  0  0  0  0  0  0  0  0  0
    7.8570    5.8390   19.3660 C   0  0  0  0  0  0  0  0  0  0  0  0
    7.7450    6.6060   18.2960 N   0  0  0  0  0  0  0  0  0  0  0  0
    3.7370    6.0970   16.2900 H   0  0  0  0  0  0  0  0  0  0  0  0
    6.5800    4.4320   20.3400 H   0  0  0  0  0  0  0  0  0  0  0  0
    8.7210    5.7810   20.0140 H   0  0  0  0  0  0  0  0  0  0  0  0
  1  8  1  0  0  0  0
  2  1  1  0  0  0  0
  2  9  1  0  0  0  0
  3  2  1  0  0  0  0
  3  4  1  0  0  0  0
  4  5  1  0  0  0  0
  4 13  1  0  0  0  0
  5 14  1  0  0  0  0
  6  5  1  0  0  0  0
  6 16  1  0  0  0  0
  6  1  1  0  0  0  0
  7  1  1  0  0  0  0
 10  2  1  0  0  0  0
 11  3  1  0  0  0  0
 12  3  1  0  0  0  0
 15  5  1  0  0  0  0
 17  6  1  0  0  0  0
 18  4  1  1  0  0  0
 18 22  1  0  0  0  0
 19 18  1  0  0  0  0
 20 19  1  0  0  0  0
 20 21  2  0  0  0  0
 21 25  1  0  0  0  0
 22 21  1  6  0  0  0
 22 23  1  0  0  0  0
 23 27  1  0  0  0  0
 24 23  1  0  0  0  0
 24 28  1  0  0  0  0
 25 24  2  0  0  0  0
 26 19  1  0  0  0  0
M  END
>  <MODEL>
4

>  <REMARK>
 VINA RESULT:    -6.449      1.425      1.681
 INTER + INTRA:          -6.944
 INTER:                  -6.770
 INTRA:                  -0.173
 UNBOUND:                -0.117
  Name = 
  1 active torsions:
  status: ('A' for Active; 'I' for Inactive)
    1  A    between atoms: C_4  and  N_7
                            x       y       z     vdW  Elec       q    Type
                         _______ _______ _______ _____ _____    ______ ____

>  <TORSDO>
F 1

$$$$
=
 OpenBabel07192307433D

 28 30  0  0  1  0  0  0  0  0999 V2000
    7.6440    4.6630   17.6520 C   0  0  0  0  0  0  0  0  0  0  0  0
    6.7550    4.3580   16.4440 C   0  0  0  0  0  0  0  0  0  0  0  0
    5.2570    4.4140   16.7540 C   0  0  0  0  0  0  0  0  0  0  0  0
    4.9640    4.0250   18.2080 C   0  0  0  0  0  0  0  0  0  0  0  0
    5.6670    4.9680   19.2020 C   0  0  0  0  0  0  0  0  0  0  0  0
    6.9530    5.5850   18.6480 C   0  0  0  0  0  0  0  0  0  0  0  0
    8.5860    5.1080   17.3120 H   0  0  0  0  0  0  0  0  0  0  0  0
    7.9060    3.7240   18.1560 H   0  0  0  0  0  0  0  0  0  0  0  0
    7.0180    3.3650   16.0590 H   0  0  0  0  0  0  0  0  0  0  0  0
    6.9730    5.0650   15.6360 H   0  0  0  0  0  0  0  0  0  0  0  0
    4.8930    5.4320   16.5620 H   0  0  0  0  0  0  0  0  0  0  0  0
    4.7170    3.7610   16.0560 H   0  0  0  0  0  0  0  0  0  0  0  0
    5.3720    3.0150   18.3610 H   0  0  0  0  0  0  0  0  0  0  0  0
    5.8990    4.3990   20.1120 H   0  0  0  0  0  0  0  0  0  0  0  0
    5.0060    5.7820   19.5250 H   0  0  0  0  0  0  0  0  0  0  0  0
    7.6310    5.8260   19.4750 H   0  0  0  0  0  0  0  0  0  0  0  0
    6.7160    6.5350   18.1520 H   0  0  0  0  0  0  0  0  0  0  0  0
    3.5400    3.9150   18.4760 N   0  0  1  0  0  0  0  0  0  0  0  0
    2.5060    4.2920   17.6500 C   0  0  0  0  0  3  0  0  0  0  0  0
    1.3250    4.0550   18.1940 N   0  0  0  0  0  0  0  0  0  0  0  0
    1.6120    3.5120   19.4030 C   0  0  0  0  0  0  0  0  0  0  0  0
    2.9510    3.4200   19.5890 C   0  0  2  0  0  3  0  0  0  0  0  0
    3.1450    2.8730   20.8110 N   0  0  0  0  0  0  0  0  0  0  0  0
    1.8830    2.6520   21.3180 C   0  0  0  0  0  0  0  0  0  0  0  0
    0.9370    3.0340   20.4800 N   0  0  0  0  0  0  0  0  0  0  0  0
    2.6660    4.7310   16.6740 H   0  0  0  0  0  0  0  0  0  0  0  0
    4.0180    2.6610   21.2720 H   0  0  0  0  0  0  0  0  0  0  0  0
    1.7240    2.2170   22.2950 H   0  0  0  0  0  0  0  0  0  0  0  0
  1  8  1  0  0  0  0
  1  6  1  0  0  0  0
  2  3  1  0  0  0  0
  2  1  1  0  0  0  0
  3  4  1  0  0  0  0
  4 13  1  0  0  0  0
  4  5  1  0  0  0  0
  5 15  1  0  0  0  0
  5 14  1  0  0  0  0
  6  5  1  0  0  0  0
  6 16  1  0  0  0  0
  7  1  1  0  0  0  0
  9  2  1  0  0  0  0
 10  2  1  0  0  0  0
 11  3  1  0  0  0  0
 12  3  1  0  0  0  0
 17  6  1  0  0  0  0
 18  4  1  6  0  0  0
 18 22  1  0  0  0  0
 19 20  1  0  0  0  0
 19 18  1  0  0  0  0
 20 21  2  0  0  0  0
 21 25  1  0  0  0  0
 22 21  1  1  0  0  0
 22 23  1  0  0  0  0
 23 27  1  0  0  0  0
 23 24  1  0  0  0  0
 24 28  1  0  0  0  0
 25 24  2  0  0  0  0
 26 19  1  0  0  0  0
M  END
>  <MODEL>
5

>  <REMARK>
 VINA RESULT:    -6.363      1.954      5.113
 INTER + INTRA:          -6.852
 INTER:                  -6.676
 INTRA:                  -0.176
 UNBOUND:                -0.117
  Name = 
  1 active torsions:
  status: ('A' for Active; 'I' for Inactive)
    1  A    between atoms: C_4  and  N_7
                            x       y       z     vdW  Elec       q    Type
                         _______ _______ _______ _____ _____    ______ ____

>  <TORSDO>
F 1

$$$$
=
 OpenBabel07192307433D

 28 30  0  0  1  0  0  0  0  0999 V2000
    0.8470    3.2970   19.8760 C   0  0  0  0  0  0  0  0  0  0  0  0
    1.7140    2.2040   19.2460 C   0  0  0  0  0  0  0  0  0  0  0  0
    3.1780    2.6110   19.0640 C   0  0  0  0  0  0  0  0  0  0  0  0
    3.3220    4.1200   18.8330 C   0  0  0  0  0  0  0  0  0  0  0  0
    2.7720    4.9320   20.0200 C   0  0  0  0  0  0  0  0  0  0  0  0
    1.6570    4.2130   20.7830 C   0  0  0  0  0  0  0  0  0  0  0  0
    0.0260    2.8360   20.4370 H   0  0  0  0  0  0  0  0  0  0  0  0
    0.3840    3.8960   19.0820 H   0  0  0  0  0  0  0  0  0  0  0  0
    1.2810    1.9310   18.2760 H   0  0  0  0  0  0  0  0  0  0  0  0
    1.6750    1.2990   19.8620 H   0  0  0  0  0  0  0  0  0  0  0  0
    3.7420    2.3170   19.9590 H   0  0  0  0  0  0  0  0  0  0  0  0
    3.6120    2.0430   18.2310 H   0  0  0  0  0  0  0  0  0  0  0  0
    2.7190    4.3710   17.9480 H   0  0  0  0  0  0  0  0  0  0  0  0
    2.3910    5.8890   19.6360 H   0  0  0  0  0  0  0  0  0  0  0  0
    3.5630    5.1960   20.7330 H   0  0  0  0  0  0  0  0  0  0  0  0
    1.0020    4.9520   21.2580 H   0  0  0  0  0  0  0  0  0  0  0  0
    2.0970    3.6190   21.5940 H   0  0  0  0  0  0  0  0  0  0  0  0
    4.6840    4.5020   18.4980 N   0  0  1  0  0  0  0  0  0  0  0  0
    5.6040    5.1080   19.3220 C   0  0  0  0  0  3  0  0  0  0  0  0
    6.7570    5.3200   18.7090 N   0  0  0  0  0  0  0  0  0  0  0  0
    6.5650    4.8360   17.4560 C   0  0  0  0  0  0  0  0  0  0  0  0
    5.3140    4.3370   17.3120 C   0  0  2  0  0  3  0  0  0  0  0  0
    5.2130    3.8820   16.0430 N   0  0  0  0  0  0  0  0  0  0  0  0
    6.4370    4.1300   15.4640 C   0  0  0  0  0  0  0  0  0  0  0  0
    7.2740    4.7110   16.3040 N   0  0  0  0  0  0  0  0  0  0  0  0
    5.3870    5.3720   20.3490 H   0  0  0  0  0  0  0  0  0  0  0  0
    4.4190    3.4460   15.5940 H   0  0  0  0  0  0  0  0  0  0  0  0
    6.6530    3.8690   14.4370 H   0  0  0  0  0  0  0  0  0  0  0  0
  1  7  1  0  0  0  0
  1  6  1  0  0  0  0
  2 10  1  0  0  0  0
  2  1  1  0  0  0  0
  3  2  1  0  0  0  0
  3 11  1  0  0  0  0
  4  3  1  0  0  0  0
  4  5  1  0  0  0  0
  5 15  1  0  0  0  0
  5  6  1  0  0  0  0
  6 16  1  0  0  0  0
  6 17  1  0  0  0  0
  8  1  1  0  0  0  0
  9  2  1  0  0  0  0
 12  3  1  0  0  0  0
 13  4  1  0  0  0  0
 14  5  1  0  0  0  0
 18  4  1  1  0  0  0
 18 19  1  0  0  0  0
 19 26  1  0  0  0  0
 20 19  1  0  0  0  0
 21 20  2  0  0  0  0
 22 21  1  6  0  0  0
 22 18  1  0  0  0  0
 23 22  1  0  0  0  0
 24 23  1  0  0  0  0
 24 25  2  0  0  0  0
 25 21  1  0  0  0  0
 27 23  1  0  0  0  0
 28 24  1  0  0  0  0
M  END
>  <MODEL>
6

>  <REMARK>
 VINA RESULT:    -6.293      0.965      2.403
 INTER + INTRA:          -6.778
 INTER:                  -6.599
 INTRA:                  -0.179
 UNBOUND:                -0.117
  Name = 
  1 active torsions:
  status: ('A' for Active; 'I' for Inactive)
    1  A    between atoms: C_4  and  N_7
                            x       y       z     vdW  Elec       q    Type
                         _______ _______ _______ _____ _____    ______ ____

>  <TORSDO>
F 1

$$$$
=
 OpenBabel07192307433D

 28 30  0  0  1  0  0  0  0  0999 V2000
    7.5900    6.9000   17.6980 C   0  0  0  0  0  0  0  0  0  0  0  0
    7.6740    6.0880   18.9920 C   0  0  0  0  0  0  0  0  0  0  0  0
    6.4700    5.1700   19.2210 C   0  0  0  0  0  0  0  0  0  0  0  0
    5.1920    5.7480   18.6020 C   0  0  0  0  0  0  0  0  0  0  0  0
    5.3330    5.9390   17.0800 C   0  0  0  0  0  0  0  0  0  0  0  0
    6.7740    6.1840   16.6300 C   0  0  0  0  0  0  0  0  0  0  0  0
    8.6010    7.1080   17.3290 H   0  0  0  0  0  0  0  0  0  0  0  0
    7.1290    7.8730   17.9090 H   0  0  0  0  0  0  0  0  0  0  0  0
    7.7770    6.7830   19.8350 H   0  0  0  0  0  0  0  0  0  0  0  0
    8.5850    5.4780   18.9890 H   0  0  0  0  0  0  0  0  0  0  0  0
    6.6840    4.1880   18.7800 H   0  0  0  0  0  0  0  0  0  0  0  0
    6.3420    5.0000   20.2970 H   0  0  0  0  0  0  0  0  0  0  0  0
    5.0360    6.7410   19.0500 H   0  0  0  0  0  0  0  0  0  0  0  0
    4.7080    6.7910   16.7800 H   0  0  0  0  0  0  0  0  0  0  0  0
    4.9400    5.0770   16.5260 H   0  0  0  0  0  0  0  0  0  0  0  0
    6.7750    6.7650   15.7000 H   0  0  0  0  0  0  0  0  0  0  0  0
    7.2510    5.2240   16.3980 H   0  0  0  0  0  0  0  0  0  0  0  0
    4.0100    4.9750   18.9460 N   0  0  1  0  0  0  0  0  0  0  0  0
    2.8790    5.4260   19.5860 C   0  0  0  0  0  3  0  0  0  0  0  0
    1.9840    4.4660   19.7460 N   0  0  0  0  0  0  0  0  0  0  0  0
    2.5620    3.3700   19.1940 C   0  0  0  0  0  0  0  0  0  0  0  0
    3.7900    3.6630   18.7050 C   0  0  2  0  0  3  0  0  0  0  0  0
    4.2890    2.5210   18.1780 N   0  0  0  0  0  0  0  0  0  0  0  0
    3.3140    1.5680   18.3770 C   0  0  0  0  0  0  0  0  0  0  0  0
    2.2560    2.0630   18.9940 N   0  0  0  0  0  0  0  0  0  0  0  0
    2.7590    6.4510   19.9120 H   0  0  0  0  0  0  0  0  0  0  0  0
    5.1820    2.3740   17.7290 H   0  0  0  0  0  0  0  0  0  0  0  0
    3.4360    0.5430   18.0540 H   0  0  0  0  0  0  0  0  0  0  0  0
  1  8  1  0  0  0  0
  1  2  1  0  0  0  0
  2  3  1  0  0  0  0
  2  9  1  0  0  0  0
  3 12  1  0  0  0  0
  4 13  1  0  0  0  0
  4  3  1  0  0  0  0
  5  4  1  0  0  0  0
  6  5  1  0  0  0  0
  6  1  1  0  0  0  0
  7  1  1  0  0  0  0
 10  2  1  0  0  0  0
 11  3  1  0  0  0  0
 14  5  1  0  0  0  0
 15  5  1  0  0  0  0
 16  6  1  0  0  0  0
 17  6  1  0  0  0  0
 18  4  1  6  0  0  0
 18 19  1  0  0  0  0
 19 20  1  0  0  0  0
 19 26  1  0  0  0  0
 21 20  2  0  0  0  0
 22 18  1  0  0  0  0
 22 21  1  1  0  0  0
 23 24  1  0  0  0  0
 23 22  1  0  0  0  0
 24 25  2  0  0  0  0
 25 21  1  0  0  0  0
 27 23  1  0  0  0  0
 28 24  1  0  0  0  0
M  END
>  <MODEL>
7

>  <REMARK>
 VINA RESULT:    -6.238      1.908      5.061
 INTER + INTRA:          -6.720
 INTER:                  -6.527
 INTRA:                  -0.193
 UNBOUND:                -0.117
  Name = 
  1 active torsions:
  status: ('A' for Active; 'I' for Inactive)
    1  A    between atoms: C_4  and  N_7
                            x       y       z     vdW  Elec       q    Type
                         _______ _______ _______ _____ _____    ______ ____

>  <TORSDO>
F 1

$$$$
=
 OpenBabel07192307433D

 28 30  0  0  1  0  0  0  0  0999 V2000
    7.6090    6.8470   17.7740 C   0  0  0  0  0  0  0  0  0  0  0  0
    7.5040    5.9020   18.9730 C   0  0  0  0  0  0  0  0  0  0  0  0
    6.2990    4.9600   18.9080 C   0  0  0  0  0  0  0  0  0  0  0  0
    5.1230    5.5950   18.1580 C   0  0  0  0  0  0  0  0  0  0  0  0
    5.4990    5.9480   16.7060 C   0  0  0  0  0  0  0  0  0  0  0  0
    6.9890    6.2470   16.5200 C   0  0  0  0  0  0  0  0  0  0  0  0
    8.6610    7.0980   17.5950 H   0  0  0  0  0  0  0  0  0  0  0  0
    7.1000    7.7900   18.0100 H   0  0  0  0  0  0  0  0  0  0  0  0
    7.4570    6.5030   19.8890 H   0  0  0  0  0  0  0  0  0  0  0  0
    8.4170    5.2990   19.0510 H   0  0  0  0  0  0  0  0  0  0  0  0
    6.6020    4.0310   18.4070 H   0  0  0  0  0  0  0  0  0  0  0  0
    6.0060    4.6740   19.9270 H   0  0  0  0  0  0  0  0  0  0  0  0
    4.8770    6.5330   18.6760 H   0  0  0  0  0  0  0  0  0  0  0  0
    4.9110    6.8250   16.4020 H   0  0  0  0  0  0  0  0  0  0  0  0
    5.2180    5.1500   16.0090 H   0  0  0  0  0  0  0  0  0  0  0  0
    7.1240    6.9240   15.6690 H   0  0  0  0  0  0  0  0  0  0  0  0
    7.5160    5.3190   16.2680 H   0  0  0  0  0  0  0  0  0  0  0  0
    3.9190    4.7840   18.2250 N   0  0  1  0  0  0  0  0  0  0  0  0
    3.4570    3.9020   17.2770 C   0  0  0  0  0  3  0  0  0  0  0  0
    2.3290    3.3200   17.6470 N   0  0  0  0  0  0  0  0  0  0  0  0
    2.0630    3.8480   18.8680 C   0  0  0  0  0  0  0  0  0  0  0  0
    3.0170    4.7370   19.2320 C   0  0  2  0  0  3  0  0  0  0  0  0
    2.6730    5.2110   20.4520 N   0  0  0  0  0  0  0  0  0  0  0  0
    1.4990    4.5690   20.7770 C   0  0  0  0  0  0  0  0  0  0  0  0
    1.1090    3.7370   19.8290 N   0  0  0  0  0  0  0  0  0  0  0  0
    3.9720    3.7220   16.3420 H   0  0  0  0  0  0  0  0  0  0  0  0
    3.1590    5.8890   21.0220 H   0  0  0  0  0  0  0  0  0  0  0  0
    0.9820    4.7510   21.7100 H   0  0  0  0  0  0  0  0  0  0  0  0
  1  8  1  0  0  0  0
  1  2  1  0  0  0  0
  2 10  1  0  0  0  0
  2  9  1  0  0  0  0
  3  2  1  0  0  0  0
  3 12  1  0  0  0  0
  4 13  1  0  0  0  0
  4  3  1  0  0  0  0
  5  4  1  0  0  0  0
  6  5  1  0  0  0  0
  6  1  1  0  0  0  0
  7  1  1  0  0  0  0
 11  3  1  0  0  0  0
 14  5  1  0  0  0  0
 15  5  1  0  0  0  0
 16  6  1  0  0  0  0
 17  6  1  0  0  0  0
 18  4  1  1  0  0  0
 18 22  1  0  0  0  0
 19 20  1  0  0  0  0
 19 18  1  0  0  0  0
 20 21  2  0  0  0  0
 21 25  1  0  0  0  0
 22 21  1  6  0  0  0
 22 23  1  0  0  0  0
 23 24  1  0  0  0  0
 23 27  1  0  0  0  0
 24 28  1  0  0  0  0
 25 24  2  0  0  0  0
 26 19  1  0  0  0  0
M  END
>  <MODEL>
8

>  <REMARK>
 VINA RESULT:    -6.139      1.811      5.048
 INTER + INTRA:          -6.615
 INTER:                  -6.442
 INTRA:                  -0.174
 UNBOUND:                -0.117
  Name = 
  1 active torsions:
  status: ('A' for Active; 'I' for Inactive)
    1  A    between atoms: C_4  and  N_7
                            x       y       z     vdW  Elec       q    Type
                         _______ _______ _______ _____ _____    ______ ____

>  <TORSDO>
F 1

$$$$
=
 OpenBabel07192307433D

 28 30  0  0  1  0  0  0  0  0999 V2000
    5.7330    5.1430   14.8440 C   0  0  0  0  0  0  0  0  0  0  0  0
    5.2910    6.4460   15.5120 C   0  0  0  0  0  0  0  0  0  0  0  0
    4.6790    6.2470   16.9010 C   0  0  0  0  0  0  0  0  0  0  0  0
    3.9740    4.8910   17.0210 C   0  0  0  0  0  0  0  0  0  0  0  0
    4.9480    3.7220   16.7850 C   0  0  0  0  0  0  0  0  0  0  0  0
    6.1180    4.0820   15.8660 C   0  0  0  0  0  0  0  0  0  0  0  0
    6.5730    5.3430   14.1680 H   0  0  0  0  0  0  0  0  0  0  0  0
    4.9160    4.7590   14.2200 H   0  0  0  0  0  0  0  0  0  0  0  0
    4.5690    6.9480   14.8570 H   0  0  0  0  0  0  0  0  0  0  0  0
    6.1470    7.1260   15.6000 H   0  0  0  0  0  0  0  0  0  0  0  0
    5.4750    6.3200   17.6540 H   0  0  0  0  0  0  0  0  0  0  0  0
    3.9840    7.0700   17.1130 H   0  0  0  0  0  0  0  0  0  0  0  0
    3.2100    4.8530   16.2310 H   0  0  0  0  0  0  0  0  0  0  0  0
    4.3850    2.8870   16.3460 H   0  0  0  0  0  0  0  0  0  0  0  0
    5.3570    3.3370   17.7270 H   0  0  0  0  0  0  0  0  0  0  0  0
    6.4780    3.1790   15.3580 H   0  0  0  0  0  0  0  0  0  0  0  0
    6.9550    4.4530   16.4710 H   0  0  0  0  0  0  0  0  0  0  0  0
    3.2500    4.7500   18.2730 N   0  0  1  0  0  0  0  0  0  0  0  0
    3.4520    5.4590   19.4340 C   0  0  0  0  0  3  0  0  0  0  0  0
    2.6200    5.0890   20.3930 N   0  0  0  0  0  0  0  0  0  0  0  0
    1.8660    4.1140   19.8270 C   0  0  0  0  0  0  0  0  0  0  0  0
    2.2360    3.8970   18.5420 C   0  0  2  0  0  3  0  0  0  0  0  0
    1.4380    2.9170   18.0610 N   0  0  0  0  0  0  0  0  0  0  0  0
    0.6010    2.5790   19.1020 C   0  0  0  0  0  0  0  0  0  0  0  0
    0.8450    3.2940   20.1850 N   0  0  0  0  0  0  0  0  0  0  0  0
    4.2110    6.2250   19.5290 H   0  0  0  0  0  0  0  0  0  0  0  0
    1.4360    2.5050   17.1370 H   0  0  0  0  0  0  0  0  0  0  0  0
   -0.1550    1.8120   19.0080 H   0  0  0  0  0  0  0  0  0  0  0  0
  1  2  1  0  0  0  0
  1  6  1  0  0  0  0
  2 10  1  0  0  0  0
  2  3  1  0  0  0  0
  3  4  1  0  0  0  0
  3 12  1  0  0  0  0
  3 11  1  0  0  0  0
  5  4  1  0  0  0  0
  5 15  1  0  0  0  0
  6 17  1  0  0  0  0
  6  5  1  0  0  0  0
  7  1  1  0  0  0  0
  8  1  1  0  0  0  0
  9  2  1  0  0  0  0
 13  4  1  0  0  0  0
 14  5  1  0  0  0  0
 16  6  1  0  0  0  0
 18  4  1  6  0  0  0
 18 22  1  0  0  0  0
 18 19  1  0  0  0  0
 19 26  1  0  0  0  0
 19 20  1  0  0  0  0
 21 25  1  0  0  0  0
 21 20  2  0  0  0  0
 22 21  1  1  0  0  0
 23 22  1  0  0  0  0
 23 24  1  0  0  0  0
 24 25  2  0  0  0  0
 27 23  1  0  0  0  0
 28 24  1  0  0  0  0
M  END
>  <MODEL>
9

>  <REMARK>
 VINA RESULT:    -6.137      2.311      5.333
 INTER + INTRA:          -6.613
 INTER:                  -6.438
 INTRA:                  -0.175
 UNBOUND:                -0.117
  Name = 
  1 active torsions:
  status: ('A' for Active; 'I' for Inactive)
    1  A    between atoms: C_4  and  N_7
                            x       y       z     vdW  Elec       q    Type
                         _______ _______ _______ _____ _____    ______ ____

>  <TORSDO>
F 1

$$$$
=
 OpenBabel07192307433D

 28 30  0  0  1  0  0  0  0  0999 V2000
    6.1700    5.2920   15.6470 C   0  0  0  0  0  0  0  0  0  0  0  0
    5.4900    3.9500   15.9270 C   0  0  0  0  0  0  0  0  0  0  0  0
    4.3430    4.0410   16.9370 C   0  0  0  0  0  0  0  0  0  0  0  0
    4.5740    5.1630   17.9560 C   0  0  0  0  0  0  0  0  0  0  0  0
    4.6850    6.5390   17.2730 C   0  0  0  0  0  0  0  0  0  0  0  0
    5.2170    6.4630   15.8390 C   0  0  0  0  0  0  0  0  0  0  0  0
    6.5740    5.2930   14.6290 H   0  0  0  0  0  0  0  0  0  0  0  0
    7.0270    5.4130   16.3230 H   0  0  0  0  0  0  0  0  0  0  0  0
    6.2470    3.2420   16.2880 H   0  0  0  0  0  0  0  0  0  0  0  0
    5.1020    3.5290   14.9930 H   0  0  0  0  0  0  0  0  0  0  0  0
    3.4060    4.2200   16.3940 H   0  0  0  0  0  0  0  0  0  0  0  0
    4.2230    3.0730   17.4400 H   0  0  0  0  0  0  0  0  0  0  0  0
    5.5340    4.9580   18.4510 H   0  0  0  0  0  0  0  0  0  0  0  0
    5.3520    7.1710   17.8750 H   0  0  0  0  0  0  0  0  0  0  0  0
    3.7210    7.0620   17.2550 H   0  0  0  0  0  0  0  0  0  0  0  0
    5.7170    7.4040   15.5830 H   0  0  0  0  0  0  0  0  0  0  0  0
    4.3740    6.3580   15.1440 H   0  0  0  0  0  0  0  0  0  0  0  0
    3.5800    5.1620   19.0170 N   0  0  1  0  0  0  0  0  0  0  0  0
    2.7390    6.1930   19.3690 C   0  0  0  0  0  3  0  0  0  0  0  0
    1.9510    5.8670   20.3800 N   0  0  0  0  0  0  0  0  0  0  0  0
    2.3000    4.5910   20.6820 C   0  0  0  0  0  0  0  0  0  0  0  0
    3.2860    4.1500   19.8640 C   0  0  2  0  0  3  0  0  0  0  0  0
    3.5690    2.8810   20.2350 N   0  0  0  0  0  0  0  0  0  0  0  0
    2.7190    2.6060   21.2830 C   0  0  0  0  0  0  0  0  0  0  0  0
    1.9400    3.6320   21.5720 N   0  0  0  0  0  0  0  0  0  0  0  0
    2.7420    7.1500   18.8650 H   0  0  0  0  0  0  0  0  0  0  0  0
    4.2530    2.2490   19.8410 H   0  0  0  0  0  0  0  0  0  0  0  0
    2.7190    1.6500   21.7900 H   0  0  0  0  0  0  0  0  0  0  0  0
  1  6  1  0  0  0  0
  1  2  1  0  0  0  0
  1  8  1  0  0  0  0
  2  9  1  0  0  0  0
  2  3  1  0  0  0  0
  3 12  1  0  0  0  0
  3  4  1  0  0  0  0
  4 13  1  0  0  0  0
  5 14  1  0  0  0  0
  5  4  1  0  0  0  0
  6  5  1  0  0  0  0
  7  1  1  0  0  0  0
 10  2  1  0  0  0  0
 11  3  1  0  0  0  0
 15  5  1  0  0  0  0
 16  6  1  0  0  0  0
 17  6  1  0  0  0  0
 18  4  1  6  0  0  0
 18 19  1  0  0  0  0
 18 22  1  0  0  0  0
 19 20  1  0  0  0  0
 20 21  2  0  0  0  0
 21 25  1  0  0  0  0
 22 23  1  0  0  0  0
 22 21  1  1  0  0  0
 23 24  1  0  0  0  0
 24 25  2  0  0  0  0
 24 28  1  0  0  0  0
 26 19  1  0  0  0  0
 27 23  1  0  0  0  0
M  END
>  <MODEL>
10

>  <REMARK>
 VINA RESULT:    -6.128      2.301      5.091
 INTER + INTRA:          -6.604
 INTER:                  -6.432
 INTRA:                  -0.171
 UNBOUND:                -0.117
  Name = 
  1 active torsions:
  status: ('A' for Active; 'I' for Inactive)
    1  A    between atoms: C_4  and  N_7
                            x       y       z     vdW  Elec       q    Type
                         _______ _______ _______ _____ _____    ______ ____

>  <TORSDO>
F 1

$$$$
=
 OpenBabel07192307433D

 28 30  0  0  1  0  0  0  0  0999 V2000
    1.4380    2.9480   20.1460 C   0  0  0  0  0  0  0  0  0  0  0  0
    1.5080    4.4480   19.8480 C   0  0  0  0  0  0  0  0  0  0  0  0
    2.7470    4.8570   19.0470 C   0  0  0  0  0  0  0  0  0  0  0  0
    3.9400    3.9420   19.3420 C   0  0  0  0  0  0  0  0  0  0  0  0
    3.6350    2.4760   18.9820 C   0  0  0  0  0  0  0  0  0  0  0  0
    2.1490    2.1230   19.0820 C   0  0  0  0  0  0  0  0  0  0  0  0
    0.3900    2.6390   20.2300 H   0  0  0  0  0  0  0  0  0  0  0  0
    1.9000    2.7500   21.1210 H   0  0  0  0  0  0  0  0  0  0  0  0
    1.4830    4.9950   20.7980 H   0  0  0  0  0  0  0  0  0  0  0  0
    0.6140    4.7580   19.2950 H   0  0  0  0  0  0  0  0  0  0  0  0
    2.5050    4.8200   17.9760 H   0  0  0  0  0  0  0  0  0  0  0  0
    2.9920    5.9050   19.2670 H   0  0  0  0  0  0  0  0  0  0  0  0
    4.1250    3.9890   20.4250 H   0  0  0  0  0  0  0  0  0  0  0  0
    4.2080    1.8280   19.6600 H   0  0  0  0  0  0  0  0  0  0  0  0
    3.9820    2.2250   17.9730 H   0  0  0  0  0  0  0  0  0  0  0  0
    2.0380    1.0540   19.2940 H   0  0  0  0  0  0  0  0  0  0  0  0
    1.6680    2.2990   18.1110 H   0  0  0  0  0  0  0  0  0  0  0  0
    5.1660    4.4100   18.7170 N   0  0  1  0  0  0  0  0  0  0  0  0
    6.1560    5.1710   19.2950 C   0  0  0  0  0  3  0  0  0  0  0  0
    7.1430    5.4250   18.4530 N   0  0  0  0  0  0  0  0  0  0  0  0
    6.7710    4.8090   17.3020 C   0  0  0  0  0  0  0  0  0  0  0  0
    5.5750    4.1900   17.4470 C   0  0  2  0  0  3  0  0  0  0  0  0
    5.2850    3.6080   16.2600 N   0  0  0  0  0  0  0  0  0  0  0  0
    6.3450    3.9090   15.4340 C   0  0  0  0  0  0  0  0  0  0  0  0
    7.2600    4.6390   16.0470 N   0  0  0  0  0  0  0  0  0  0  0  0
    6.1100    5.5110   20.3210 H   0  0  0  0  0  0  0  0  0  0  0  0
    4.4710    3.0630   16.0110 H   0  0  0  0  0  0  0  0  0  0  0  0
    6.3900    3.5720   14.4080 H   0  0  0  0  0  0  0  0  0  0  0  0
  1  7  1  0  0  0  0
  1  8  1  0  0  0  0
  2  1  1  0  0  0  0
  2  9  1  0  0  0  0
  3 12  1  0  0  0  0
  3  4  1  0  0  0  0
  3  2  1  0  0  0  0
  4 13  1  0  0  0  0
  5  6  1  0  0  0  0
  5  4  1  0  0  0  0
  5 14  1  0  0  0  0
  6 16  1  0  0  0  0
  6  1  1  0  0  0  0
 10  2  1  0  0  0  0
 11  3  1  0  0  0  0
 15  5  1  0  0  0  0
 17  6  1  0  0  0  0
 18 19  1  0  0  0  0
 18  4  1  1  0  0  0
 19 26  1  0  0  0  0
 20 19  1  0  0  0  0
 21 20  2  0  0  0  0
 22 21  1  6  0  0  0
 22 18  1  0  0  0  0
 23 22  1  0  0  0  0
 24 25  2  0  0  0  0
 24 23  1  0  0  0  0
 25 21  1  0  0  0  0
 27 23  1  0  0  0  0
 28 24  1  0  0  0  0
M  END
>  <MODEL>
11

>  <REMARK>
 VINA RESULT:    -6.124      1.053      2.077
 INTER + INTRA:          -6.599
 INTER:                  -6.494
 INTRA:                  -0.106
 UNBOUND:                -0.117
  Name = 
  1 active torsions:
  status: ('A' for Active; 'I' for Inactive)
    1  A    between atoms: C_4  and  N_7
                            x       y       z     vdW  Elec       q    Type
                         _______ _______ _______ _____ _____    ______ ____

>  <TORSDO>
F 1

$$$$
=
 OpenBabel07192307433D

 28 30  0  0  1  0  0  0  0  0999 V2000
    7.2320    5.1230   16.0340 C   0  0  0  0  0  0  0  0  0  0  0  0
    7.2390    5.0010   17.5600 C   0  0  0  0  0  0  0  0  0  0  0  0
    5.9610    4.3820   18.1320 C   0  0  0  0  0  0  0  0  0  0  0  0
    4.7400    4.6950   17.2600 C   0  0  0  0  0  0  0  0  0  0  0  0
    4.9060    4.1470   15.8310 C   0  0  0  0  0  0  0  0  0  0  0  0
    6.3660    4.0530   15.3830 C   0  0  0  0  0  0  0  0  0  0  0  0
    8.2590    5.0640   15.6570 H   0  0  0  0  0  0  0  0  0  0  0  0
    6.8520    6.1130   15.7510 H   0  0  0  0  0  0  0  0  0  0  0  0
    7.3930    5.9980   17.9900 H   0  0  0  0  0  0  0  0  0  0  0  0
    8.0950    4.3970   17.8790 H   0  0  0  0  0  0  0  0  0  0  0  0
    6.0960    3.2950   18.2060 H   0  0  0  0  0  0  0  0  0  0  0  0
    5.8120    4.7400   19.1590 H   0  0  0  0  0  0  0  0  0  0  0  0
    4.6640    5.7900   17.1910 H   0  0  0  0  0  0  0  0  0  0  0  0
    4.3560    4.8050   15.1430 H   0  0  0  0  0  0  0  0  0  0  0  0
    4.4470    3.1570   15.7200 H   0  0  0  0  0  0  0  0  0  0  0  0
    6.4220    4.1340   14.2910 H   0  0  0  0  0  0  0  0  0  0  0  0
    6.7630    3.0640   15.6420 H   0  0  0  0  0  0  0  0  0  0  0  0
    3.4950    4.2560   17.8700 N   0  0  1  0  0  0  0  0  0  0  0  0
    2.6310    3.2960   17.3950 C   0  0  0  0  0  3  0  0  0  0  0  0
    1.5870    3.1310   18.1900 N   0  0  0  0  0  0  0  0  0  0  0  0
    1.7910    4.0120   19.2010 C   0  0  0  0  0  0  0  0  0  0  0  0
    2.9440    4.7010   19.0210 C   0  0  2  0  0  3  0  0  0  0  0  0
    3.0650    5.5500   20.0670 N   0  0  0  0  0  0  0  0  0  0  0  0
    1.9540    5.3290   20.8510 C   0  0  0  0  0  0  0  0  0  0  0  0
    1.1660    4.3990   20.3430 N   0  0  0  0  0  0  0  0  0  0  0  0
    2.8050    2.7540   16.4750 H   0  0  0  0  0  0  0  0  0  0  0  0
    3.8040    6.2130   20.2550 H   0  0  0  0  0  0  0  0  0  0  0  0
    1.7790    5.8730   21.7690 H   0  0  0  0  0  0  0  0  0  0  0  0
  1  2  1  0  0  0  0
  2 10  1  0  0  0  0
  2  9  1  0  0  0  0
  2  3  1  0  0  0  0
  3 11  1  0  0  0  0
  3 12  1  0  0  0  0
  4  3  1  0  0  0  0
  5  4  1  0  0  0  0
  6 17  1  0  0  0  0
  6  5  1  0  0  0  0
  6  1  1  0  0  0  0
  7  1  1  0  0  0  0
  8  1  1  0  0  0  0
 13  4  1  0  0  0  0
 14  5  1  0  0  0  0
 15  5  1  0  0  0  0
 16  6  1  0  0  0  0
 18  4  1  1  0  0  0
 18 22  1  0  0  0  0
 19 18  1  0  0  0  0
 19 20  1  0  0  0  0
 20 21  2  0  0  0  0
 21 25  1  0  0  0  0
 22 21  1  6  0  0  0
 22 23  1  0  0  0  0
 23 27  1  0  0  0  0
 23 24  1  0  0  0  0
 24 28  1  0  0  0  0
 25 24  2  0  0  0  0
 26 19  1  0  0  0  0
M  END
>  <MODEL>
12

>  <REMARK>
 VINA RESULT:    -6.062      1.973      4.936
 INTER + INTRA:          -6.534
 INTER:                  -6.350
 INTRA:                  -0.183
 UNBOUND:                -0.117
  Name = 
  1 active torsions:
  status: ('A' for Active; 'I' for Inactive)
    1  A    between atoms: C_4  and  N_7
                            x       y       z     vdW  Elec       q    Type
                         _______ _______ _______ _____ _____    ______ ____

>  <TORSDO>
F 1

$$$$
=
 OpenBabel07192307433D

 28 30  0  0  1  0  0  0  0  0999 V2000
    7.2280    4.6720   16.2530 C   0  0  0  0  0  0  0  0  0  0  0  0
    5.9510    4.1520   15.5890 C   0  0  0  0  0  0  0  0  0  0  0  0
    4.6890    4.3770   16.4250 C   0  0  0  0  0  0  0  0  0  0  0  0
    4.9940    4.3580   17.9280 C   0  0  0  0  0  0  0  0  0  0  0  0
    5.9960    5.4600   18.3180 C   0  0  0  0  0  0  0  0  0  0  0  0
    6.9480    5.8450   17.1830 C   0  0  0  0  0  0  0  0  0  0  0  0
    7.9510    4.9630   15.4820 H   0  0  0  0  0  0  0  0  0  0  0  0
    7.6940    3.8630   16.8280 H   0  0  0  0  0  0  0  0  0  0  0  0
    6.0750    3.0820   15.3840 H   0  0  0  0  0  0  0  0  0  0  0  0
    5.8170    4.6350   14.6140 H   0  0  0  0  0  0  0  0  0  0  0  0
    4.2470    5.3430   16.1480 H   0  0  0  0  0  0  0  0  0  0  0  0
    3.9410    3.6150   16.1670 H   0  0  0  0  0  0  0  0  0  0  0  0
    5.4600    3.3880   18.1510 H   0  0  0  0  0  0  0  0  0  0  0  0
    6.5810    5.1050   19.1790 H   0  0  0  0  0  0  0  0  0  0  0  0
    5.4870    6.3680   18.6640 H   0  0  0  0  0  0  0  0  0  0  0  0
    7.8850    6.2280   17.6040 H   0  0  0  0  0  0  0  0  0  0  0  0
    6.5080    6.6660   16.6030 H   0  0  0  0  0  0  0  0  0  0  0  0
    3.7880    4.4070   18.7390 N   0  0  1  0  0  0  0  0  0  0  0  0
    3.4350    5.3810   19.6450 C   0  0  0  0  0  3  0  0  0  0  0  0
    2.2700    5.1280   20.2170 N   0  0  0  0  0  0  0  0  0  0  0  0
    1.8690    3.9570   19.6600 C   0  0  0  0  0  0  0  0  0  0  0  0
    2.7780    3.5080   18.7630 C   0  0  2  0  0  3  0  0  0  0  0  0
    2.3000    2.3460   18.2620 N   0  0  0  0  0  0  0  0  0  0  0  0
    1.0940    2.1430   18.8950 C   0  0  0  0  0  0  0  0  0  0  0  0
    0.8120    3.1090   19.7490 N   0  0  0  0  0  0  0  0  0  0  0  0
    4.0560    6.2430   19.8500 H   0  0  0  0  0  0  0  0  0  0  0  0
    2.7200    1.7410   17.5710 H   0  0  0  0  0  0  0  0  0  0  0  0
    0.4750    1.2790   18.6920 H   0  0  0  0  0  0  0  0  0  0  0  0
  1  8  1  0  0  0  0
  1  6  1  0  0  0  0
  2  1  1  0  0  0  0
  2  3  1  0  0  0  0
  3  4  1  0  0  0  0
  4 13  1  0  0  0  0
  4  5  1  0  0  0  0
  5 15  1  0  0  0  0
  5 14  1  0  0  0  0
  6 16  1  0  0  0  0
  6  5  1  0  0  0  0
  7  1  1  0  0  0  0
  9  2  1  0  0  0  0
 10  2  1  0  0  0  0
 11  3  1  0  0  0  0
 12  3  1  0  0  0  0
 17  6  1  0  0  0  0
 18  4  1  6  0  0  0
 18 22  1  0  0  0  0
 18 19  1  0  0  0  0
 19 26  1  0  0  0  0
 19 20  1  0  0  0  0
 21 25  1  0  0  0  0
 21 20  2  0  0  0  0
 22 21  1  1  0  0  0
 23 22  1  0  0  0  0
 23 24  1  0  0  0  0
 24 25  2  0  0  0  0
 27 23  1  0  0  0  0
 28 24  1  0  0  0  0
M  END
>  <MODEL>
13

>  <REMARK>
 VINA RESULT:    -5.985      1.874      5.380
 INTER + INTRA:          -6.452
 INTER:                  -6.272
 INTRA:                  -0.180
 UNBOUND:                -0.117
  Name = 
  1 active torsions:
  status: ('A' for Active; 'I' for Inactive)
    1  A    between atoms: C_4  and  N_7
                            x       y       z     vdW  Elec       q    Type
                         _______ _______ _______ _____ _____    ______ ____

>  <TORSDO>
F 1

$$$$
=
 OpenBabel07192307433D

 28 30  0  0  1  0  0  0  0  0999 V2000
    6.8740    5.4190   15.3500 C   0  0  0  0  0  0  0  0  0  0  0  0
    7.2100    5.9240   16.7560 C   0  0  0  0  0  0  0  0  0  0  0  0
    6.3000    5.3520   17.8470 C   0  0  0  0  0  0  0  0  0  0  0  0
    4.8960    5.0470   17.3110 C   0  0  0  0  0  0  0  0  0  0  0  0
    4.9360    4.0140   16.1690 C   0  0  0  0  0  0  0  0  0  0  0  0
    6.2460    4.0320   15.3790 C   0  0  0  0  0  0  0  0  0  0  0  0
    7.7820    5.4120   14.7360 H   0  0  0  0  0  0  0  0  0  0  0  0
    6.1780    6.1170   14.8700 H   0  0  0  0  0  0  0  0  0  0  0  0
    7.1490    7.0190   16.7580 H   0  0  0  0  0  0  0  0  0  0  0  0
    8.2490    5.6760   17.0000 H   0  0  0  0  0  0  0  0  0  0  0  0
    6.7540    4.4350   18.2430 H   0  0  0  0  0  0  0  0  0  0  0  0
    6.2540    6.0560   18.6870 H   0  0  0  0  0  0  0  0  0  0  0  0
    4.4960    5.9840   16.8990 H   0  0  0  0  0  0  0  0  0  0  0  0
    4.0980    4.2200   15.4890 H   0  0  0  0  0  0  0  0  0  0  0  0
    4.7700    2.9940   16.5380 H   0  0  0  0  0  0  0  0  0  0  0  0
    6.0650    3.6770   14.3580 H   0  0  0  0  0  0  0  0  0  0  0  0
    6.9540    3.3270   15.8330 H   0  0  0  0  0  0  0  0  0  0  0  0
    3.9730    4.6570   18.3640 N   0  0  2  0  0  0  0  0  0  0  0  0
    2.7700    5.2470   18.6750 C   0  0  0  0  0  3  0  0  0  0  0  0
    2.1710    4.6480   19.6900 N   0  0  0  0  0  0  0  0  0  0  0  0
    3.0180    3.6470   20.0380 C   0  0  0  0  0  0  0  0  0  0  0  0
    4.1150    3.6400   19.2440 C   0  0  1  0  0  3  0  0  0  0  0  0
    4.8980    2.6180   19.6600 N   0  0  0  0  0  0  0  0  0  0  0  0
    4.2210    2.0400   20.7100 C   0  0  0  0  0  0  0  0  0  0  0  0
    3.0760    2.6500   20.9580 N   0  0  0  0  0  0  0  0  0  0  0  0
    2.3800    6.1020   18.1380 H   0  0  0  0  0  0  0  0  0  0  0  0
    5.7920    2.3220   19.2920 H   0  0  0  0  0  0  0  0  0  0  0  0
    4.6120    1.1880   21.2490 H   0  0  0  0  0  0  0  0  0  0  0  0
  1  6  1  0  0  0  0
  1  2  1  0  0  0  0
  2  9  1  0  0  0  0
  2 10  1  0  0  0  0
  2  3  1  0  0  0  0
  3 11  1  0  0  0  0
  3 12  1  0  0  0  0
  4  3  1  0  0  0  0
  5 15  1  0  0  0  0
  5  4  1  0  0  0  0
  6 17  1  0  0  0  0
  6  5  1  0  0  0  0
  7  1  1  0  0  0  0
  8  1  1  0  0  0  0
 13  4  1  0  0  0  0
 14  5  1  0  0  0  0
 16  6  1  0  0  0  0
 18  4  1  1  0  0  0
 18 19  1  0  0  0  0
 18 22  1  0  0  0  0
 19 20  1  0  0  0  0
 20 21  2  0  0  0  0
 21 25  1  0  0  0  0
 22 23  1  0  0  0  0
 22 21  1  6  0  0  0
 23 24  1  0  0  0  0
 24 25  2  0  0  0  0
 24 28  1  0  0  0  0
 26 19  1  0  0  0  0
 27 23  1  0  0  0  0
M  END
>  <MODEL>
14

>  <REMARK>
 VINA RESULT:    -5.849      1.959      4.841
 INTER + INTRA:          -6.308
 INTER:                  -6.120
 INTRA:                  -0.188
 UNBOUND:                -0.117
  Name = 
  1 active torsions:
  status: ('A' for Active; 'I' for Inactive)
    1  A    between atoms: C_4  and  N_7
                            x       y       z     vdW  Elec       q    Type
                         _______ _______ _______ _____ _____    ______ ____

>  <TORSDO>
F 1

$$$$
=
 OpenBabel07192307433D

 28 30  0  0  1  0  0  0  0  0999 V2000
    4.2760    3.6560   17.4660 C   0  0  0  0  0  0  0  0  0  0  0  0
    2.7860    3.6170   17.8150 C   0  0  0  0  0  0  0  0  0  0  0  0
    2.1380    5.0010   17.9000 C   0  0  0  0  0  0  0  0  0  0  0  0
    3.1410    6.0690   18.3540 C   0  0  0  0  0  0  0  0  0  0  0  0
    4.3280    6.1850   17.3800 C   0  0  0  0  0  0  0  0  0  0  0  0
    4.6330    4.8820   16.6360 C   0  0  0  0  0  0  0  0  0  0  0  0
    4.5510    2.7410   16.9300 H   0  0  0  0  0  0  0  0  0  0  0  0
    4.8650    3.6660   18.3910 H   0  0  0  0  0  0  0  0  0  0  0  0
    2.6640    3.0900   18.7690 H   0  0  0  0  0  0  0  0  0  0  0  0
    2.2460    3.0220   17.0680 H   0  0  0  0  0  0  0  0  0  0  0  0
    1.7350    5.2660   16.9140 H   0  0  0  0  0  0  0  0  0  0  0  0
    1.2770    4.9580   18.5790 H   0  0  0  0  0  0  0  0  0  0  0  0
    3.5380    5.7460   19.3280 H   0  0  0  0  0  0  0  0  0  0  0  0
    5.2140    6.4930   17.9520 H   0  0  0  0  0  0  0  0  0  0  0  0
    4.1670    6.9760   16.6380 H   0  0  0  0  0  0  0  0  0  0  0  0
    5.6930    4.8570   16.3590 H   0  0  0  0  0  0  0  0  0  0  0  0
    4.0650    4.8590   15.6980 H   0  0  0  0  0  0  0  0  0  0  0  0
    2.5100    7.3550   18.5980 N   0  0  1  0  0  0  0  0  0  0  0  0
    2.3570    8.3890   17.7030 C   0  0  0  0  0  3  0  0  0  0  0  0
    1.7350    9.4240   18.2410 N   0  0  0  0  0  0  0  0  0  0  0  0
    1.4850    9.0400   19.5180 C   0  0  0  0  0  0  0  0  0  0  0  0
    1.9480    7.7880   19.7490 C   0  0  2  0  0  3  0  0  0  0  0  0
    1.6580    7.4900   21.0360 N   0  0  0  0  0  0  0  0  0  0  0  0
    1.0150    8.6020   21.5350 C   0  0  0  0  0  0  0  0  0  0  0  0
    0.9000    9.5560   20.6290 N   0  0  0  0  0  0  0  0  0  0  0  0
    2.7140    8.3380   16.6820 H   0  0  0  0  0  0  0  0  0  0  0  0
    1.8580    6.6400   21.5440 H   0  0  0  0  0  0  0  0  0  0  0  0
    0.6620    8.6540   22.5560 H   0  0  0  0  0  0  0  0  0  0  0  0
  1  2  1  0  0  0  0
  1  8  1  0  0  0  0
  2  3  1  0  0  0  0
  2  9  1  0  0  0  0
  3  4  1  0  0  0  0
  3 12  1  0  0  0  0
  4 13  1  0  0  0  0
  5 14  1  0  0  0  0
  5  4  1  0  0  0  0
  6  5  1  0  0  0  0
  6  1  1  0  0  0  0
  7  1  1  0  0  0  0
 10  2  1  0  0  0  0
 11  3  1  0  0  0  0
 15  5  1  0  0  0  0
 16  6  1  0  0  0  0
 17  6  1  0  0  0  0
 18  4  1  6  0  0  0
 18 22  1  0  0  0  0
 19 20  1  0  0  0  0
 19 18  1  0  0  0  0
 20 21  2  0  0  0  0
 21 25  1  0  0  0  0
 22 21  1  1  0  0  0
 22 23  1  0  0  0  0
 23 24  1  0  0  0  0
 23 27  1  0  0  0  0
 24 28  1  0  0  0  0
 25 24  2  0  0  0  0
 26 19  1  0  0  0  0
M  END
>  <MODEL>
15

>  <REMARK>
 VINA RESULT:    -5.771      3.875      5.362
 INTER + INTRA:          -6.225
 INTER:                  -6.057
 INTRA:                  -0.168
 UNBOUND:                -0.117
  Name = 
  1 active torsions:
  status: ('A' for Active; 'I' for Inactive)
    1  A    between atoms: C_4  and  N_7
                            x       y       z     vdW  Elec       q    Type
                         _______ _______ _______ _____ _____    ______ ____

>  <TORSDO>
F 1

$$$$
=
 OpenBabel07192307433D

 28 30  0  0  1  0  0  0  0  0999 V2000
    0.8180    3.7800   20.3670 C   0  0  0  0  0  0  0  0  0  0  0  0
    0.8240    2.8470   19.1540 C   0  0  0  0  0  0  0  0  0  0  0  0
    2.1440    2.8580   18.3780 C   0  0  0  0  0  0  0  0  0  0  0  0
    2.8440    4.2190   18.4710 C   0  0  0  0  0  0  0  0  0  0  0  0
    3.1740    4.5900   19.9290 C   0  0  0  0  0  0  0  0  0  0  0  0
    2.2130    3.9700   20.9460 C   0  0  0  0  0  0  0  0  0  0  0  0
    0.1400    3.3820   21.1320 H   0  0  0  0  0  0  0  0  0  0  0  0
    0.4160    4.7570   20.0720 H   0  0  0  0  0  0  0  0  0  0  0  0
    0.0000    3.1320   18.4890 H   0  0  0  0  0  0  0  0  0  0  0  0
    0.6150    1.8200   19.4750 H   0  0  0  0  0  0  0  0  0  0  0  0
    2.7990    2.0750   18.7810 H   0  0  0  0  0  0  0  0  0  0  0  0
    1.9530    2.5860   17.3320 H   0  0  0  0  0  0  0  0  0  0  0  0
    2.1410    4.9720   18.0860 H   0  0  0  0  0  0  0  0  0  0  0  0
    3.1450    5.6850   20.0210 H   0  0  0  0  0  0  0  0  0  0  0  0
    4.1970    4.3000   20.2000 H   0  0  0  0  0  0  0  0  0  0  0  0
    2.1690    4.6000   21.8420 H   0  0  0  0  0  0  0  0  0  0  0  0
    2.6040    2.9960   21.2680 H   0  0  0  0  0  0  0  0  0  0  0  0
    4.0140    4.3010   17.6120 N   0  0  1  0  0  0  0  0  0  0  0  0
    4.5030    3.3230   16.7780 C   0  0  0  0  0  3  0  0  0  0  0  0
    5.5850    3.7190   16.1290 N   0  0  0  0  0  0  0  0  0  0  0  0
    5.7930    4.9870   16.5630 C   0  0  0  0  0  0  0  0  0  0  0  0
    4.8490    5.3540   17.4620 C   0  0  2  0  0  3  0  0  0  0  0  0
    5.1330    6.6220   17.8390 N   0  0  0  0  0  0  0  0  0  0  0  0
    6.2620    6.9710   17.1320 C   0  0  0  0  0  0  0  0  0  0  0  0
    6.6810    5.9920   16.3510 N   0  0  0  0  0  0  0  0  0  0  0  0
    4.0400    2.3490   16.6810 H   0  0  0  0  0  0  0  0  0  0  0  0
    4.6370    7.2080   18.4960 H   0  0  0  0  0  0  0  0  0  0  0  0
    6.7270    7.9430   17.2310 H   0  0  0  0  0  0  0  0  0  0  0  0
  1  6  1  0  0  0  0
  1  7  1  0  0  0  0
  2 10  1  0  0  0  0
  2  1  1  0  0  0  0
  3  4  1  0  0  0  0
  3 11  1  0  0  0  0
  3  2  1  0  0  0  0
  4  5  1  0  0  0  0
  5 14  1  0  0  0  0
  5 15  1  0  0  0  0
  5  6  1  0  0  0  0
  6 17  1  0  0  0  0
  6 16  1  0  0  0  0
  8  1  1  0  0  0  0
  9  2  1  0  0  0  0
 12  3  1  0  0  0  0
 13  4  1  0  0  0  0
 18  4  1  6  0  0  0
 19 18  1  0  0  0  0
 20 21  2  0  0  0  0
 20 19  1  0  0  0  0
 22 21  1  1  0  0  0
 22 18  1  0  0  0  0
 22 23  1  0  0  0  0
 23 27  1  0  0  0  0
 24 28  1  0  0  0  0
 24 23  1  0  0  0  0
 25 21  1  0  0  0  0
 25 24  2  0  0  0  0
 26 19  1  0  0  0  0
M  END
>  <MODEL>
16

>  <REMARK>
 VINA RESULT:    -5.659      1.381      1.875
 INTER + INTRA:          -6.107
 INTER:                  -5.961
 INTRA:                  -0.146
 UNBOUND:                -0.117
  Name = 
  1 active torsions:
  status: ('A' for Active; 'I' for Inactive)
    1  A    between atoms: C_4  and  N_7
                            x       y       z     vdW  Elec       q    Type
                         _______ _______ _______ _____ _____    ______ ____

>  <TORSDO>
F 1

$$$$
=
 OpenBabel07192307433D

 28 30  0  0  1  0  0  0  0  0999 V2000
    3.1070    2.5360   20.8860 C   0  0  0  0  0  0  0  0  0  0  0  0
    1.7570    3.1520   21.2630 C   0  0  0  0  0  0  0  0  0  0  0  0
    1.4330    4.4360   20.4950 C   0  0  0  0  0  0  0  0  0  0  0  0
    2.7030    5.2100   20.1240 C   0  0  0  0  0  0  0  0  0  0  0  0
    3.6380    4.3740   19.2300 C   0  0  0  0  0  0  0  0  0  0  0  0
    3.5030    2.8660   19.4530 C   0  0  0  0  0  0  0  0  0  0  0  0
    3.0680    1.4500   21.0290 H   0  0  0  0  0  0  0  0  0  0  0  0
    3.8810    2.9130   21.5670 H   0  0  0  0  0  0  0  0  0  0  0  0
    1.7530    3.3520   22.3410 H   0  0  0  0  0  0  0  0  0  0  0  0
    0.9560    2.4250   21.0850 H   0  0  0  0  0  0  0  0  0  0  0  0
    0.8780    4.1750   19.5850 H   0  0  0  0  0  0  0  0  0  0  0  0
    0.7570    5.0570   21.0960 H   0  0  0  0  0  0  0  0  0  0  0  0
    3.2390    5.4220   21.0610 H   0  0  0  0  0  0  0  0  0  0  0  0
    4.6740    4.6800   19.4330 H   0  0  0  0  0  0  0  0  0  0  0  0
    3.4740    4.5810   18.1660 H   0  0  0  0  0  0  0  0  0  0  0  0
    4.4460    2.3700   19.1970 H   0  0  0  0  0  0  0  0  0  0  0  0
    2.7440    2.4640   18.7700 H   0  0  0  0  0  0  0  0  0  0  0  0
    2.4110    6.5090   19.5390 N   0  0  1  0  0  0  0  0  0  0  0  0
    2.6590    6.9140   18.2480 C   0  0  0  0  0  3  0  0  0  0  0  0
    2.2700    8.1590   18.0360 N   0  0  0  0  0  0  0  0  0  0  0  0
    1.7590    8.5610   19.2260 C   0  0  0  0  0  0  0  0  0  0  0  0
    1.8370    7.5710   20.1480 C   0  0  2  0  0  3  0  0  0  0  0  0
    1.3110    8.0560   21.2960 N   0  0  0  0  0  0  0  0  0  0  0  0
    0.9270    9.3470   21.0070 C   0  0  0  0  0  0  0  0  0  0  0  0
    1.1910    9.6750   19.7550 N   0  0  0  0  0  0  0  0  0  0  0  0
    3.1220    6.2710   17.5110 H   0  0  0  0  0  0  0  0  0  0  0  0
    1.2080    7.5890   22.1860 H   0  0  0  0  0  0  0  0  0  0  0  0
    0.4680    9.9910   21.7450 H   0  0  0  0  0  0  0  0  0  0  0  0
  1  7  1  0  0  0  0
  1  2  1  0  0  0  0
  1  8  1  0  0  0  0
  2  9  1  0  0  0  0
  3 12  1  0  0  0  0
  3  2  1  0  0  0  0
  4  3  1  0  0  0  0
  4 13  1  0  0  0  0
  5 14  1  0  0  0  0
  5  6  1  0  0  0  0
  5  4  1  0  0  0  0
  6  1  1  0  0  0  0
 10  2  1  0  0  0  0
 11  3  1  0  0  0  0
 15  5  1  0  0  0  0
 16  6  1  0  0  0  0
 17  6  1  0  0  0  0
 18  4  1  6  0  0  0
 18 22  1  0  0  0  0
 19 18  1  0  0  0  0
 20 19  1  0  0  0  0
 20 21  2  0  0  0  0
 21 25  1  0  0  0  0
 22 21  1  1  0  0  0
 22 23  1  0  0  0  0
 23 27  1  0  0  0  0
 24 23  1  0  0  0  0
 24 28  1  0  0  0  0
 25 24  2  0  0  0  0
 26 19  1  0  0  0  0
M  END
>  <MODEL>
17

>  <REMARK>
 VINA RESULT:    -5.541      3.556      4.683
 INTER + INTRA:          -5.982
 INTER:                  -5.798
 INTRA:                  -0.184
 UNBOUND:                -0.117
  Name = 
  1 active torsions:
  status: ('A' for Active; 'I' for Inactive)
    1  A    between atoms: C_4  and  N_7
                            x       y       z     vdW  Elec       q    Type
                         _______ _______ _______ _____ _____    ______ ____

>  <TORSDO>
F 1

$$$$
=
 OpenBabel07192307433D

 28 30  0  0  1  0  0  0  0  0999 V2000
   -0.9290   10.4410   23.0520 C   0  0  0  0  0  0  0  0  0  0  0  0
    0.1860    9.4500   23.3940 C   0  0  0  0  0  0  0  0  0  0  0  0
    1.1240    9.1510   22.2210 C   0  0  0  0  0  0  0  0  0  0  0  0
    0.3980    9.2600   20.8750 C   0  0  0  0  0  0  0  0  0  0  0  0
   -0.1720   10.6720   20.6480 C   0  0  0  0  0  0  0  0  0  0  0  0
   -0.5150   11.4040   21.9480 C   0  0  0  0  0  0  0  0  0  0  0  0
   -1.2170   10.9950   23.9520 H   0  0  0  0  0  0  0  0  0  0  0  0
   -1.8200    9.8870   22.7280 H   0  0  0  0  0  0  0  0  0  0  0  0
   -0.2700    8.5190   23.7510 H   0  0  0  0  0  0  0  0  0  0  0  0
    0.7810    9.8370   24.2300 H   0  0  0  0  0  0  0  0  0  0  0  0
    1.9630    9.8580   22.2490 H   0  0  0  0  0  0  0  0  0  0  0  0
    1.5620    8.1540   22.3520 H   0  0  0  0  0  0  0  0  0  0  0  0
   -0.4480    8.5590   20.9060 H   0  0  0  0  0  0  0  0  0  0  0  0
   -1.0770   10.5840   20.0320 H   0  0  0  0  0  0  0  0  0  0  0  0
    0.5170   11.3000   20.0710 H   0  0  0  0  0  0  0  0  0  0  0  0
   -1.3130   12.1320   21.7610 H   0  0  0  0  0  0  0  0  0  0  0  0
    0.3590   11.9790   22.2830 H   0  0  0  0  0  0  0  0  0  0  0  0
    1.2260    8.8230   19.7620 N   0  0  1  0  0  0  0  0  0  0  0  0
    1.4230    9.4750   18.5670 C   0  0  0  0  0  3  0  0  0  0  0  0
    2.2380    8.8090   17.7670 N   0  0  0  0  0  0  0  0  0  0  0  0
    2.5700    7.6990   18.4720 C   0  0  0  0  0  0  0  0  0  0  0  0
    1.9650    7.6940   19.6840 C   0  0  2  0  0  3  0  0  0  0  0  0
    2.3490    6.5590   20.3130 N   0  0  0  0  0  0  0  0  0  0  0  0
    3.1910    5.9180   19.4320 C   0  0  0  0  0  0  0  0  0  0  0  0
    3.3390    6.5920   18.3060 N   0  0  0  0  0  0  0  0  0  0  0  0
    0.9530   10.4210   18.3300 H   0  0  0  0  0  0  0  0  0  0  0  0
    2.0890    6.2330   21.2330 H   0  0  0  0  0  0  0  0  0  0  0  0
    3.6580    4.9710   19.6670 H   0  0  0  0  0  0  0  0  0  0  0  0
  1  2  1  0  0  0  0
  1  7  1  0  0  0  0
  2  9  1  0  0  0  0
  2 10  1  0  0  0  0
  3 11  1  0  0  0  0
  3 12  1  0  0  0  0
  3  2  1  0  0  0  0
  4 13  1  0  0  0  0
  4  3  1  0  0  0  0
  5  4  1  0  0  0  0
  5  6  1  0  0  0  0
  6 17  1  0  0  0  0
  6  1  1  0  0  0  0
  8  1  1  0  0  0  0
 14  5  1  0  0  0  0
 15  5  1  0  0  0  0
 16  6  1  0  0  0  0
 18  4  1  1  0  0  0
 19 18  1  0  0  0  0
 20 21  2  0  0  0  0
 20 19  1  0  0  0  0
 22 21  1  6  0  0  0
 22 18  1  0  0  0  0
 22 23  1  0  0  0  0
 23 27  1  0  0  0  0
 24 28  1  0  0  0  0
 24 23  1  0  0  0  0
 25 21  1  0  0  0  0
 25 24  2  0  0  0  0
 26 19  1  0  0  0  0
M  END
>  <MODEL>
18

>  <REMARK>
 VINA RESULT:    -5.497      5.072      6.337
 INTER + INTRA:          -5.935
 INTER:                  -5.812
 INTRA:                  -0.123
 UNBOUND:                -0.117
  Name = 
  1 active torsions:
  status: ('A' for Active; 'I' for Inactive)
    1  A    between atoms: C_4  and  N_7
                            x       y       z     vdW  Elec       q    Type
                         _______ _______ _______ _____ _____    ______ ____

>  <TORSDO>
F 1

$$$$
=
 OpenBabel07192307433D

 28 30  0  0  1  0  0  0  0  0999 V2000
    1.1340    9.4570   18.4590 C   0  0  0  0  0  0  0  0  0  0  0  0
    1.0400    9.0170   19.9220 C   0  0  0  0  0  0  0  0  0  0  0  0
    1.9010    7.7950   20.2530 C   0  0  0  0  0  0  0  0  0  0  0  0
    2.0550    6.8670   19.0430 C   0  0  0  0  0  0  0  0  0  0  0  0
    2.7280    7.5850   17.8580 C   0  0  0  0  0  0  0  0  0  0  0  0
    2.4790    9.0960   17.8430 C   0  0  0  0  0  0  0  0  0  0  0  0
    0.9620   10.5370   18.3890 H   0  0  0  0  0  0  0  0  0  0  0  0
    0.3350    8.9750   17.8830 H   0  0  0  0  0  0  0  0  0  0  0  0
   -0.0110    8.8060   20.1570 H   0  0  0  0  0  0  0  0  0  0  0  0
    1.3370    9.8440   20.5780 H   0  0  0  0  0  0  0  0  0  0  0  0
    2.8880    8.1370   20.5880 H   0  0  0  0  0  0  0  0  0  0  0  0
    1.4600    7.2600   21.1040 H   0  0  0  0  0  0  0  0  0  0  0  0
    1.0430    6.5760   18.7260 H   0  0  0  0  0  0  0  0  0  0  0  0
    2.3460    7.1450   16.9260 H   0  0  0  0  0  0  0  0  0  0  0  0
    3.8110    7.4150   17.8410 H   0  0  0  0  0  0  0  0  0  0  0  0
    2.5360    9.4670   16.8130 H   0  0  0  0  0  0  0  0  0  0  0  0
    3.2770    9.6010   18.4020 H   0  0  0  0  0  0  0  0  0  0  0  0
    2.7310    5.6250   19.3790 N   0  0  1  0  0  0  0  0  0  0  0  0
    4.0070    5.2500   19.0250 C   0  0  0  0  0  3  0  0  0  0  0  0
    4.3210    4.0550   19.4940 N   0  0  0  0  0  0  0  0  0  0  0  0
    3.2130    3.6540   20.1660 C   0  0  0  0  0  0  0  0  0  0  0  0
    2.2400    4.5950   20.1060 C   0  0  2  0  0  3  0  0  0  0  0  0
    1.1810    4.1150   20.7960 N   0  0  0  0  0  0  0  0  0  0  0  0
    1.5720    2.8770   21.2550 C   0  0  0  0  0  0  0  0  0  0  0  0
    2.8030    2.5760   20.8830 N   0  0  0  0  0  0  0  0  0  0  0  0
    4.6580    5.8770   18.4300 H   0  0  0  0  0  0  0  0  0  0  0  0
    0.2850    4.5540   20.9560 H   0  0  0  0  0  0  0  0  0  0  0  0
    0.9200    2.2490   21.8470 H   0  0  0  0  0  0  0  0  0  0  0  0
  1  2  1  0  0  0  0
  2  9  1  0  0  0  0
  2  3  1  0  0  0  0
  2 10  1  0  0  0  0
  3 11  1  0  0  0  0
  3 12  1  0  0  0  0
  4  3  1  0  0  0  0
  5  4  1  0  0  0  0
  6  5  1  0  0  0  0
  6 17  1  0  0  0  0
  6  1  1  0  0  0  0
  7  1  1  0  0  0  0
  8  1  1  0  0  0  0
 13  4  1  0  0  0  0
 14  5  1  0  0  0  0
 15  5  1  0  0  0  0
 16  6  1  0  0  0  0
 18  4  1  1  0  0  0
 18 22  1  0  0  0  0
 19 18  1  0  0  0  0
 19 20  1  0  0  0  0
 20 21  2  0  0  0  0
 21 25  1  0  0  0  0
 22 21  1  6  0  0  0
 22 23  1  0  0  0  0
 23 27  1  0  0  0  0
 23 24  1  0  0  0  0
 24 28  1  0  0  0  0
 25 24  2  0  0  0  0
 26 19  1  0  0  0  0
M  END
>  <MODEL>
19

>  <REMARK>
 VINA RESULT:    -5.440      3.095      4.937
 INTER + INTRA:          -5.876
 INTER:                  -5.694
 INTRA:                  -0.182
 UNBOUND:                -0.117
  Name = 
  1 active torsions:
  status: ('A' for Active; 'I' for Inactive)
    1  A    between atoms: C_4  and  N_7
                            x       y       z     vdW  Elec       q    Type
                         _______ _______ _______ _____ _____    ______ ____

>  <TORSDO>
F 1

$$$$
=
 OpenBabel07192307433D

 28 30  0  0  1  0  0  0  0  0999 V2000
    1.0470    9.2610   18.9050 C   0  0  0  0  0  0  0  0  0  0  0  0
    1.1930    8.5350   20.2440 C   0  0  0  0  0  0  0  0  0  0  0  0
    2.1980    7.3800   20.2100 C   0  0  0  0  0  0  0  0  0  0  0  0
    2.2690    6.7320   18.8230 C   0  0  0  0  0  0  0  0  0  0  0  0
    2.7050    7.7410   17.7450 C   0  0  0  0  0  0  0  0  0  0  0  0
    2.3210    9.1860   18.0750 C   0  0  0  0  0  0  0  0  0  0  0  0
    0.7690   10.3060   19.0820 H   0  0  0  0  0  0  0  0  0  0  0  0
    0.2230    8.8110   18.3360 H   0  0  0  0  0  0  0  0  0  0  0  0
    0.2080    8.1610   20.5490 H   0  0  0  0  0  0  0  0  0  0  0  0
    1.5010    9.2460   21.0190 H   0  0  0  0  0  0  0  0  0  0  0  0
    3.1870    7.7620   20.4930 H   0  0  0  0  0  0  0  0  0  0  0  0
    1.9270    6.6410   20.9750 H   0  0  0  0  0  0  0  0  0  0  0  0
    1.2530    6.3930   18.5710 H   0  0  0  0  0  0  0  0  0  0  0  0
    2.2410    7.4510   16.7920 H   0  0  0  0  0  0  0  0  0  0  0  0
    3.7870    7.7040   17.5680 H   0  0  0  0  0  0  0  0  0  0  0  0
    2.2040    9.7560   17.1470 H   0  0  0  0  0  0  0  0  0  0  0  0
    3.1400    9.6610   18.6310 H   0  0  0  0  0  0  0  0  0  0  0  0
    3.0930    5.5350   18.8110 N   0  0  1  0  0  0  0  0  0  0  0  0
    4.3800    5.4070   19.2820 C   0  0  0  0  0  3  0  0  0  0  0  0
    4.8470    4.1800   19.1240 N   0  0  0  0  0  0  0  0  0  0  0  0
    3.8280    3.5050   18.5340 C   0  0  0  0  0  0  0  0  0  0  0  0
    2.7590    4.3130   18.3380 C   0  0  2  0  0  3  0  0  0  0  0  0
    1.7990    3.5630   17.7490 N   0  0  0  0  0  0  0  0  0  0  0  0
    2.3460    2.3060   17.6140 C   0  0  0  0  0  0  0  0  0  0  0  0
    3.5790    2.2490   18.0840 N   0  0  0  0  0  0  0  0  0  0  0  0
    4.9270    6.2290   19.7250 H   0  0  0  0  0  0  0  0  0  0  0  0
    0.8720    3.8440   17.4610 H   0  0  0  0  0  0  0  0  0  0  0  0
    1.8010    1.4850   17.1690 H   0  0  0  0  0  0  0  0  0  0  0  0
  1  7  1  0  0  0  0
  1  2  1  0  0  0  0
  2  9  1  0  0  0  0
  2 10  1  0  0  0  0
  3  2  1  0  0  0  0
  3 11  1  0  0  0  0
  3 12  1  0  0  0  0
  4  3  1  0  0  0  0
  5  6  1  0  0  0  0
  5  4  1  0  0  0  0
  6 17  1  0  0  0  0
  6  1  1  0  0  0  0
  8  1  1  0  0  0  0
 13  4  1  0  0  0  0
 14  5  1  0  0  0  0
 15  5  1  0  0  0  0
 16  6  1  0  0  0  0
 18  4  1  1  0  0  0
 18 19  1  0  0  0  0
 19 26  1  0  0  0  0
 20 19  1  0  0  0  0
 21 20  2  0  0  0  0
 22 21  1  6  0  0  0
 22 18  1  0  0  0  0
 23 22  1  0  0  0  0
 24 23  1  0  0  0  0
 24 25  2  0  0  0  0
 25 21  1  0  0  0  0
 27 23  1  0  0  0  0
 28 24  1  0  0  0  0
M  END
>  <MODEL>
20

>  <REMARK>
 VINA RESULT:    -5.419      2.781      4.526
 INTER + INTRA:          -5.853
 INTER:                  -5.703
 INTRA:                  -0.150
 UNBOUND:                -0.117
  Name = 
  1 active torsions:
  status: ('A' for Active; 'I' for Inactive)
    1  A    between atoms: C_4  and  N_7
                            x       y       z     vdW  Elec       q    Type
                         _______ _______ _______ _____ _____    ______ ____

>  <TORSDO>
F 1

$$$$
=
 OpenBabel07192307433D

 28 30  0  0  1  0  0  0  0  0999 V2000
    4.0750    3.5980   17.0340 C   0  0  0  0  0  0  0  0  0  0  0  0
    4.9830    4.3270   18.0260 C   0  0  0  0  0  0  0  0  0  0  0  0
    4.2380    5.3130   18.9310 C   0  0  0  0  0  0  0  0  0  0  0  0
    3.0100    5.9060   18.2310 C   0  0  0  0  0  0  0  0  0  0  0  0
    2.0020    4.8130   17.8270 C   0  0  0  0  0  0  0  0  0  0  0  0
    2.6550    3.4540   17.5630 C   0  0  0  0  0  0  0  0  0  0  0  0
    4.4980    2.6120   16.8060 H   0  0  0  0  0  0  0  0  0  0  0  0
    4.0510    4.1530   16.0880 H   0  0  0  0  0  0  0  0  0  0  0  0
    5.7630    4.8560   17.4640 H   0  0  0  0  0  0  0  0  0  0  0  0
    5.5050    3.5980   18.6570 H   0  0  0  0  0  0  0  0  0  0  0  0
    3.9280    4.7910   19.8450 H   0  0  0  0  0  0  0  0  0  0  0  0
    4.9270    6.1040   19.2510 H   0  0  0  0  0  0  0  0  0  0  0  0
    3.3640    6.3900   17.3090 H   0  0  0  0  0  0  0  0  0  0  0  0
    1.4770    5.1460   16.9210 H   0  0  0  0  0  0  0  0  0  0  0  0
    1.2230    4.6790   18.5870 H   0  0  0  0  0  0  0  0  0  0  0  0
    2.0420    2.8840   16.8540 H   0  0  0  0  0  0  0  0  0  0  0  0
    2.6750    2.8740   18.4940 H   0  0  0  0  0  0  0  0  0  0  0  0
    2.3830    6.9610   19.0090 N   0  0  1  0  0  0  0  0  0  0  0  0
    1.9820    6.8980   20.3230 C   0  0  0  0  0  3  0  0  0  0  0  0
    1.4470    8.0360   20.7340 N   0  0  0  0  0  0  0  0  0  0  0  0
    1.5080    8.8480   19.6500 C   0  0  0  0  0  0  0  0  0  0  0  0
    2.0730    8.2110   18.5960 C   0  0  2  0  0  3  0  0  0  0  0  0
    2.0920    9.0890   17.5670 N   0  0  0  0  0  0  0  0  0  0  0  0
    1.5260   10.2440   18.0590 C   0  0  0  0  0  0  0  0  0  0  0  0
    1.1630   10.1200   19.3220 N   0  0  0  0  0  0  0  0  0  0  0  0
    2.0980    6.0100   20.9300 H   0  0  0  0  0  0  0  0  0  0  0  0
    2.4430    8.9490   16.6300 H   0  0  0  0  0  0  0  0  0  0  0  0
    1.4060   11.1310   17.4510 H   0  0  0  0  0  0  0  0  0  0  0  0
  1  6  1  0  0  0  0
  1  2  1  0  0  0  0
  2 10  1  0  0  0  0
  2  3  1  0  0  0  0
  3 12  1  0  0  0  0
  3 11  1  0  0  0  0
  4  3  1  0  0  0  0
  5  4  1  0  0  0  0
  5 15  1  0  0  0  0
  6  5  1  0  0  0  0
  6 17  1  0  0  0  0
  7  1  1  0  0  0  0
  8  1  1  0  0  0  0
  9  2  1  0  0  0  0
 13  4  1  0  0  0  0
 14  5  1  0  0  0  0
 16  6  1  0  0  0  0
 18  4  1  1  0  0  0
 18 19  1  0  0  0  0
 19 20  1  0  0  0  0
 19 26  1  0  0  0  0
 21 20  2  0  0  0  0
 22 18  1  0  0  0  0
 22 21  1  6  0  0  0
 23 24  1  0  0  0  0
 23 22  1  0  0  0  0
 24 25  2  0  0  0  0
 25 21  1  0  0  0  0
 27 23  1  0  0  0  0
 28 24  1  0  0  0  0
M  END
>  <MODEL>
21

>  <REMARK>
 VINA RESULT:    -5.404      3.876      5.278
 INTER + INTRA:          -5.837
 INTER:                  -5.687
 INTRA:                  -0.150
 UNBOUND:                -0.117
  Name = 
  1 active torsions:
  status: ('A' for Active; 'I' for Inactive)
    1  A    between atoms: C_4  and  N_7
                            x       y       z     vdW  Elec       q    Type
                         _______ _______ _______ _____ _____    ______ ____

>  <TORSDO>
F 1

$$$$
=
 OpenBabel07192307433D

 28 30  0  0  1  0  0  0  0  0999 V2000
    6.5210    4.8990   15.6140 C   0  0  0  0  0  0  0  0  0  0  0  0
    7.0270    5.9210   16.6340 C   0  0  0  0  0  0  0  0  0  0  0  0
    6.0040    6.2610   17.7220 C   0  0  0  0  0  0  0  0  0  0  0  0
    4.5660    6.1420   17.2040 C   0  0  0  0  0  0  0  0  0  0  0  0
    4.2530    4.7150   16.7190 C   0  0  0  0  0  0  0  0  0  0  0  0
    5.4850    3.9600   16.2150 C   0  0  0  0  0  0  0  0  0  0  0  0
    7.3680    4.3280   15.2160 H   0  0  0  0  0  0  0  0  0  0  0  0
    6.0740    5.4270   14.7620 H   0  0  0  0  0  0  0  0  0  0  0  0
    7.3180    6.8340   16.1000 H   0  0  0  0  0  0  0  0  0  0  0  0
    7.9380    5.5460   17.1140 H   0  0  0  0  0  0  0  0  0  0  0  0
    6.1510    5.5810   18.5710 H   0  0  0  0  0  0  0  0  0  0  0  0
    6.2020    7.2710   18.1040 H   0  0  0  0  0  0  0  0  0  0  0  0
    4.4770    6.8160   16.3390 H   0  0  0  0  0  0  0  0  0  0  0  0
    3.5110    4.7800   15.9100 H   0  0  0  0  0  0  0  0  0  0  0  0
    3.7780    4.1140   17.5050 H   0  0  0  0  0  0  0  0  0  0  0  0
    5.1800    3.2090   15.4770 H   0  0  0  0  0  0  0  0  0  0  0  0
    5.9400    3.4100   17.0490 H   0  0  0  0  0  0  0  0  0  0  0  0
    3.5880    6.6150   18.1690 N   0  0  1  0  0  0  0  0  0  0  0  0
    3.2180    6.0040   19.3450 C   0  0  0  0  0  3  0  0  0  0  0  0
    2.3010    6.6980   19.9980 N   0  0  0  0  0  0  0  0  0  0  0  0
    2.0780    7.7830   19.2150 C   0  0  0  0  0  0  0  0  0  0  0  0
    2.8510    7.7470   18.1030 C   0  0  2  0  0  3  0  0  0  0  0  0
    2.5650    8.8580   17.3860 N   0  0  0  0  0  0  0  0  0  0  0  0
    1.6110    9.5310   18.1160 C   0  0  0  0  0  0  0  0  0  0  0  0
    1.3000    8.8950   19.2310 N   0  0  0  0  0  0  0  0  0  0  0  0
    3.6400    5.0640   19.6760 H   0  0  0  0  0  0  0  0  0  0  0  0
    2.9570    9.1530   16.5020 H   0  0  0  0  0  0  0  0  0  0  0  0
    1.1860   10.4690   17.7840 H   0  0  0  0  0  0  0  0  0  0  0  0
  1  6  1  0  0  0  0
  1  2  1  0  0  0  0
  2 10  1  0  0  0  0
  2  3  1  0  0  0  0
  3 12  1  0  0  0  0
  3 11  1  0  0  0  0
  4  3  1  0  0  0  0
  5  4  1  0  0  0  0
  5 15  1  0  0  0  0
  6  5  1  0  0  0  0
  6 17  1  0  0  0  0
  7  1  1  0  0  0  0
  8  1  1  0  0  0  0
  9  2  1  0  0  0  0
 13  4  1  0  0  0  0
 14  5  1  0  0  0  0
 16  6  1  0  0  0  0
 18  4  1  1  0  0  0
 18 19  1  0  0  0  0
 19 26  1  0  0  0  0
 19 20  1  0  0  0  0
 21 25  1  0  0  0  0
 21 20  2  0  0  0  0
 22 18  1  0  0  0  0
 22 21  1  6  0  0  0
 23 22  1  0  0  0  0
 23 24  1  0  0  0  0
 24 25  2  0  0  0  0
 27 23  1  0  0  0  0
 28 24  1  0  0  0  0
M  END
>  <MODEL>
22

>  <REMARK>
 VINA RESULT:    -5.357      3.286      5.445
 INTER + INTRA:          -5.787
 INTER:                  -5.636
 INTRA:                  -0.151
 UNBOUND:                -0.117
  Name = 
  1 active torsions:
  status: ('A' for Active; 'I' for Inactive)
    1  A    between atoms: C_4  and  N_7
                            x       y       z     vdW  Elec       q    Type
                         _______ _______ _______ _____ _____    ______ ____

>  <TORSDO>
F 1

$$$$
=
 OpenBabel07192307433D

 28 30  0  0  1  0  0  0  0  0999 V2000
    1.5910   10.0630   18.9330 C   0  0  0  0  0  0  0  0  0  0  0  0
    1.9730    9.1770   17.7450 C   0  0  0  0  0  0  0  0  0  0  0  0
    2.0040    7.6830   18.0780 C   0  0  0  0  0  0  0  0  0  0  0  0
    2.3840    7.4370   19.5430 C   0  0  0  0  0  0  0  0  0  0  0  0
    1.3810    8.0940   20.5090 C   0  0  0  0  0  0  0  0  0  0  0  0
    0.6960    9.3310   19.9240 C   0  0  0  0  0  0  0  0  0  0  0  0
    1.0950   10.9700   18.5700 H   0  0  0  0  0  0  0  0  0  0  0  0
    2.5020   10.3910   19.4490 H   0  0  0  0  0  0  0  0  0  0  0  0
    2.9540    9.4950   17.3720 H   0  0  0  0  0  0  0  0  0  0  0  0
    1.2670    9.3380   16.9210 H   0  0  0  0  0  0  0  0  0  0  0  0
    1.0140    7.2530   17.8740 H   0  0  0  0  0  0  0  0  0  0  0  0
    2.7020    7.1740   17.4010 H   0  0  0  0  0  0  0  0  0  0  0  0
    3.3640    7.9090   19.7060 H   0  0  0  0  0  0  0  0  0  0  0  0
    1.9190    8.3760   21.4250 H   0  0  0  0  0  0  0  0  0  0  0  0
    0.6050    7.3890   20.8290 H   0  0  0  0  0  0  0  0  0  0  0  0
    0.3990   10.0050   20.7360 H   0  0  0  0  0  0  0  0  0  0  0  0
   -0.2290    9.0280   19.4160 H   0  0  0  0  0  0  0  0  0  0  0  0
    2.5780    6.0270   19.8370 N   0  0  1  0  0  0  0  0  0  0  0  0
    1.7880    5.2270   20.6300 C   0  0  0  0  0  3  0  0  0  0  0  0
    2.2400    3.9860   20.6900 N   0  0  0  0  0  0  0  0  0  0  0  0
    3.3510    3.9940   19.9120 C   0  0  0  0  0  0  0  0  0  0  0  0
    3.5690    5.2240   19.3880 C   0  0  2  0  0  3  0  0  0  0  0  0
    4.6890    5.1400   18.6340 N   0  0  0  0  0  0  0  0  0  0  0  0
    5.1050    3.8310   18.7380 C   0  0  0  0  0  0  0  0  0  0  0  0
    4.3070    3.1170   19.5110 N   0  0  0  0  0  0  0  0  0  0  0  0
    0.9050    5.5940   21.1380 H   0  0  0  0  0  0  0  0  0  0  0  0
    5.1410    5.8680   18.0980 H   0  0  0  0  0  0  0  0  0  0  0  0
    5.9890    3.4660   18.2330 H   0  0  0  0  0  0  0  0  0  0  0  0
  1  8  1  0  0  0  0
  1  6  1  0  0  0  0
  2  3  1  0  0  0  0
  2  1  1  0  0  0  0
  3  4  1  0  0  0  0
  4 13  1  0  0  0  0
  4  5  1  0  0  0  0
  5 15  1  0  0  0  0
  5 14  1  0  0  0  0
  6  5  1  0  0  0  0
  6 16  1  0  0  0  0
  7  1  1  0  0  0  0
  9  2  1  0  0  0  0
 10  2  1  0  0  0  0
 11  3  1  0  0  0  0
 12  3  1  0  0  0  0
 17  6  1  0  0  0  0
 18  4  1  6  0  0  0
 18 19  1  0  0  0  0
 19 20  1  0  0  0  0
 19 26  1  0  0  0  0
 21 20  2  0  0  0  0
 22 18  1  0  0  0  0
 22 21  1  1  0  0  0
 23 24  1  0  0  0  0
 23 22  1  0  0  0  0
 24 25  2  0  0  0  0
 25 21  1  0  0  0  0
 27 23  1  0  0  0  0
 28 24  1  0  0  0  0
M  END
>  <MODEL>
23

>  <REMARK>
 VINA RESULT:    -5.347      3.108      4.727
 INTER + INTRA:          -5.777
 INTER:                  -5.594
 INTRA:                  -0.183
 UNBOUND:                -0.117
  Name = 
  1 active torsions:
  status: ('A' for Active; 'I' for Inactive)
    1  A    between atoms: C_4  and  N_7
                            x       y       z     vdW  Elec       q    Type
                         _______ _______ _______ _____ _____    ______ ____

>  <TORSDO>
F 1

$$$$
=
 OpenBabel07192307433D

 28 30  0  0  1  0  0  0  0  0999 V2000
    1.6940    8.1370   20.5000 C   0  0  0  0  0  0  0  0  0  0  0  0
    1.8610    8.4670   19.0150 C   0  0  0  0  0  0  0  0  0  0  0  0
    2.2820    7.2670   18.1620 C   0  0  0  0  0  0  0  0  0  0  0  0
    3.1290    6.2720   18.9630 C   0  0  0  0  0  0  0  0  0  0  0  0
    2.3580    5.7160   20.1760 C   0  0  0  0  0  0  0  0  0  0  0  0
    1.3010    6.6820   20.7170 C   0  0  0  0  0  0  0  0  0  0  0  0
    0.9450    8.8030   20.9420 H   0  0  0  0  0  0  0  0  0  0  0  0
    2.6370    8.3350   21.0240 H   0  0  0  0  0  0  0  0  0  0  0  0
    2.6020    9.2700   18.9170 H   0  0  0  0  0  0  0  0  0  0  0  0
    0.9230    8.8690   18.6170 H   0  0  0  0  0  0  0  0  0  0  0  0
    1.3800    6.7680   17.7840 H   0  0  0  0  0  0  0  0  0  0  0  0
    2.8260    7.6230   17.2780 H   0  0  0  0  0  0  0  0  0  0  0  0
    4.0000    6.8220   19.3450 H   0  0  0  0  0  0  0  0  0  0  0  0
    3.0830    5.4880   20.9690 H   0  0  0  0  0  0  0  0  0  0  0  0
    1.8680    4.7630   19.9430 H   0  0  0  0  0  0  0  0  0  0  0  0
    1.1390    6.4880   21.7840 H   0  0  0  0  0  0  0  0  0  0  0  0
    0.3430    6.4900   20.2170 H   0  0  0  0  0  0  0  0  0  0  0  0
    3.6720    5.2100   18.1320 N   0  0  1  0  0  0  0  0  0  0  0  0
    3.5130    3.8550   18.3060 C   0  0  0  0  0  3  0  0  0  0  0  0
    4.1360    3.1580   17.3700 N   0  0  0  0  0  0  0  0  0  0  0  0
    4.7100    4.0970   16.5770 C   0  0  0  0  0  0  0  0  0  0  0  0
    4.4370    5.3460   17.0250 C   0  0  2  0  0  3  0  0  0  0  0  0
    5.0450    6.2110   16.1810 N   0  0  0  0  0  0  0  0  0  0  0  0
    5.6690    5.4260   15.2380 C   0  0  0  0  0  0  0  0  0  0  0  0
    5.4800    4.1380   15.4590 N   0  0  0  0  0  0  0  0  0  0  0  0
    2.9430    3.4310   19.1220 H   0  0  0  0  0  0  0  0  0  0  0  0
    5.0510    7.2210   16.2150 H   0  0  0  0  0  0  0  0  0  0  0  0
    6.2430    5.8500   14.4240 H   0  0  0  0  0  0  0  0  0  0  0  0
  1  6  1  0  0  0  0
  1  7  1  0  0  0  0
  1  8  1  0  0  0  0
  2  1  1  0  0  0  0
  3  4  1  0  0  0  0
  3  2  1  0  0  0  0
  4 13  1  0  0  0  0
  4  5  1  0  0  0  0
  5  6  1  0  0  0  0
  5 14  1  0  0  0  0
  6 16  1  0  0  0  0
  9  2  1  0  0  0  0
 10  2  1  0  0  0  0
 11  3  1  0  0  0  0
 12  3  1  0  0  0  0
 15  5  1  0  0  0  0
 17  6  1  0  0  0  0
 18 19  1  0  0  0  0
 18  4  1  6  0  0  0
 19 26  1  0  0  0  0
 20 19  1  0  0  0  0
 21 20  2  0  0  0  0
 22 21  1  1  0  0  0
 22 18  1  0  0  0  0
 23 27  1  0  0  0  0
 23 22  1  0  0  0  0
 24 25  2  0  0  0  0
 24 23  1  0  0  0  0
 25 21  1  0  0  0  0
 28 24  1  0  0  0  0
M  END
>  <MODEL>
24

>  <REMARK>
 VINA RESULT:    -5.306      2.244      3.355
 INTER + INTRA:          -5.733
 INTER:                  -5.567
 INTRA:                  -0.166
 UNBOUND:                -0.117
  Name = 
  1 active torsions:
  status: ('A' for Active; 'I' for Inactive)
    1  A    between atoms: C_4  and  N_7
                            x       y       z     vdW  Elec       q    Type
                         _______ _______ _______ _____ _____    ______ ____

>  <TORSDO>
F 1

$$$$
=
 OpenBabel07192307433D

 28 30  0  0  1  0  0  0  0  0999 V2000
    1.7530    4.0170   17.5480 C   0  0  0  0  0  0  0  0  0  0  0  0
    2.8680    2.9790   17.4060 C   0  0  0  0  0  0  0  0  0  0  0  0
    4.2020    3.4230   18.0130 C   0  0  0  0  0  0  0  0  0  0  0  0
    4.3760    4.9440   17.9470 C   0  0  0  0  0  0  0  0  0  0  0  0
    3.2620    5.6780   18.7180 C   0  0  0  0  0  0  0  0  0  0  0  0
    1.9480    4.8960   18.7760 C   0  0  0  0  0  0  0  0  0  0  0  0
    0.7830    3.5100   17.5930 H   0  0  0  0  0  0  0  0  0  0  0  0
    1.7320    4.6520   16.6530 H   0  0  0  0  0  0  0  0  0  0  0  0
    3.0020    2.7520   16.3410 H   0  0  0  0  0  0  0  0  0  0  0  0
    2.5620    2.0390   17.8800 H   0  0  0  0  0  0  0  0  0  0  0  0
    4.2440    3.0890   19.0580 H   0  0  0  0  0  0  0  0  0  0  0  0
    5.0240    2.9110   17.4970 H   0  0  0  0  0  0  0  0  0  0  0  0
    4.2960    5.2340   16.8890 H   0  0  0  0  0  0  0  0  0  0  0  0
    3.0870    6.6470   18.2310 H   0  0  0  0  0  0  0  0  0  0  0  0
    3.5680    5.9150   19.7440 H   0  0  0  0  0  0  0  0  0  0  0  0
    1.1090    5.5940   18.8790 H   0  0  0  0  0  0  0  0  0  0  0  0
    1.9400    4.2650   19.6740 H   0  0  0  0  0  0  0  0  0  0  0  0
    5.7000    5.3700   18.3690 N   0  0  1  0  0  0  0  0  0  0  0  0
    6.5120    4.7620   19.2980 C   0  0  0  0  0  3  0  0  0  0  0  0
    7.6580    5.4030   19.4510 N   0  0  0  0  0  0  0  0  0  0  0  0
    7.5740    6.4520   18.5950 C   0  0  0  0  0  0  0  0  0  0  0  0
    6.3930    6.4460   17.9320 C   0  0  2  0  0  3  0  0  0  0  0  0
    6.3960    7.5190   17.1090 N   0  0  0  0  0  0  0  0  0  0  0  0
    7.6090    8.1380   17.3150 C   0  0  0  0  0  0  0  0  0  0  0  0
    8.3400    7.5070   18.2150 N   0  0  0  0  0  0  0  0  0  0  0  0
    6.2240    3.8650   19.8310 H   0  0  0  0  0  0  0  0  0  0  0  0
    5.6740    7.8210   16.4680 H   0  0  0  0  0  0  0  0  0  0  0  0
    7.8950    9.0370   16.7860 H   0  0  0  0  0  0  0  0  0  0  0  0
  1  7  1  0  0  0  0
  1  6  1  0  0  0  0
  2  1  1  0  0  0  0
  2 10  1  0  0  0  0
  2  3  1  0  0  0  0
  3 11  1  0  0  0  0
  4  3  1  0  0  0  0
  4  5  1  0  0  0  0
  5  6  1  0  0  0  0
  5 15  1  0  0  0  0
  6 16  1  0  0  0  0
  6 17  1  0  0  0  0
  8  1  1  0  0  0  0
  9  2  1  0  0  0  0
 12  3  1  0  0  0  0
 13  4  1  0  0  0  0
 14  5  1  0  0  0  0
 18  4  1  6  0  0  0
 18 19  1  0  0  0  0
 19 20  1  0  0  0  0
 19 26  1  0  0  0  0
 21 20  2  0  0  0  0
 22 18  1  0  0  0  0
 22 21  1  1  0  0  0
 23 24  1  0  0  0  0
 23 22  1  0  0  0  0
 24 25  2  0  0  0  0
 25 21  1  0  0  0  0
 27 23  1  0  0  0  0
 28 24  1  0  0  0  0
M  END
>  <MODEL>
25

>  <REMARK>
 VINA RESULT:    -5.301      1.739      2.893
 INTER + INTRA:          -5.728
 INTER:                  -5.562
 INTRA:                  -0.167
 UNBOUND:                -0.117
  Name = 
  1 active torsions:
  status: ('A' for Active; 'I' for Inactive)
    1  A    between atoms: C_4  and  N_7
                            x       y       z     vdW  Elec       q    Type
                         _______ _______ _______ _____ _____    ______ ____

>  <TORSDO>
F 1

$$$$
=
 OpenBabel07192307433D

 28 30  0  0  1  0  0  0  0  0999 V2000
    1.2540    9.8500   19.3280 C   0  0  0  0  0  0  0  0  0  0  0  0
    1.5450    9.1520   17.9970 C   0  0  0  0  0  0  0  0  0  0  0  0
    1.8450    7.6580   18.1400 C   0  0  0  0  0  0  0  0  0  0  0  0
    2.5070    7.3390   19.4860 C   0  0  0  0  0  0  0  0  0  0  0  0
    1.6040    7.7340   20.6700 C   0  0  0  0  0  0  0  0  0  0  0  0
    0.6590    8.8940   20.3530 C   0  0  0  0  0  0  0  0  0  0  0  0
    0.5790   10.6960   19.1590 H   0  0  0  0  0  0  0  0  0  0  0  0
    2.1860   10.2690   19.7290 H   0  0  0  0  0  0  0  0  0  0  0  0
    2.3910    9.6570   17.5150 H   0  0  0  0  0  0  0  0  0  0  0  0
    0.6910    9.2750   17.3210 H   0  0  0  0  0  0  0  0  0  0  0  0
    0.9070    7.0960   18.0450 H   0  0  0  0  0  0  0  0  0  0  0  0
    2.4800    7.3330   17.3050 H   0  0  0  0  0  0  0  0  0  0  0  0
    3.4220    7.9450   19.5490 H   0  0  0  0  0  0  0  0  0  0  0  0
    2.2480    8.0100   21.5170 H   0  0  0  0  0  0  0  0  0  0  0  0
    1.0030    6.8860   21.0220 H   0  0  0  0  0  0  0  0  0  0  0  0
    0.4150    9.4320   21.2760 H   0  0  0  0  0  0  0  0  0  0  0  0
   -0.2880    8.4960   19.9650 H   0  0  0  0  0  0  0  0  0  0  0  0
    2.9460    5.9570   19.5750 N   0  0  1  0  0  0  0  0  0  0  0  0
    4.1910    5.4590   19.2670 C   0  0  0  0  0  3  0  0  0  0  0  0
    4.2650    4.1530   19.4600 N   0  0  0  0  0  0  0  0  0  0  0  0
    3.0310    3.8070   19.9030 C   0  0  0  0  0  0  0  0  0  0  0  0
    2.2200    4.8900   19.9780 C   0  0  2  0  0  3  0  0  0  0  0  0
    1.0190    4.4550   20.4240 N   0  0  0  0  0  0  0  0  0  0  0  0
    1.1640    3.0970   20.6040 C   0  0  0  0  0  0  0  0  0  0  0  0
    2.3780    2.6820   20.2920 N   0  0  0  0  0  0  0  0  0  0  0  0
    5.0000    6.0830   18.9090 H   0  0  0  0  0  0  0  0  0  0  0  0
    0.1810    4.9930   20.5970 H   0  0  0  0  0  0  0  0  0  0  0  0
    0.3550    2.4730   20.9590 H   0  0  0  0  0  0  0  0  0  0  0  0
  1  8  1  0  0  0  0
  1  6  1  0  0  0  0
  2  3  1  0  0  0  0
  2  1  1  0  0  0  0
  3  4  1  0  0  0  0
  4 13  1  0  0  0  0
  4  5  1  0  0  0  0
  5 15  1  0  0  0  0
  5 14  1  0  0  0  0
  6  5  1  0  0  0  0
  6 16  1  0  0  0  0
  7  1  1  0  0  0  0
  9  2  1  0  0  0  0
 10  2  1  0  0  0  0
 11  3  1  0  0  0  0
 12  3  1  0  0  0  0
 17  6  1  0  0  0  0
 18  4  1  1  0  0  0
 18 22  1  0  0  0  0
 19 20  1  0  0  0  0
 19 18  1  0  0  0  0
 20 21  2  0  0  0  0
 21 25  1  0  0  0  0
 22 21  1  6  0  0  0
 22 23  1  0  0  0  0
 23 27  1  0  0  0  0
 23 24  1  0  0  0  0
 24 28  1  0  0  0  0
 25 24  2  0  0  0  0
 26 19  1  0  0  0  0
M  END
>  <MODEL>
26

>  <REMARK>
 VINA RESULT:    -5.299      3.152      5.071
 INTER + INTRA:          -5.726
 INTER:                  -5.648
 INTRA:                  -0.078
 UNBOUND:                -0.117
  Name = 
  1 active torsions:
  status: ('A' for Active; 'I' for Inactive)
    1  A    between atoms: C_4  and  N_7
                            x       y       z     vdW  Elec       q    Type
                         _______ _______ _______ _____ _____    ______ ____

>  <TORSDO>
F 1

$$$$
=
 OpenBabel07192307433D

 28 30  0  0  1  0  0  0  0  0999 V2000
    1.3800    5.5310   20.6370 C   0  0  0  0  0  0  0  0  0  0  0  0
    2.3170    4.3460   20.8820 C   0  0  0  0  0  0  0  0  0  0  0  0
    3.5090    4.2970   19.9220 C   0  0  0  0  0  0  0  0  0  0  0  0
    3.1620    4.9030   18.5570 C   0  0  0  0  0  0  0  0  0  0  0  0
    2.7410    6.3790   18.6800 C   0  0  0  0  0  0  0  0  0  0  0  0
    2.1130    6.7210   20.0330 C   0  0  0  0  0  0  0  0  0  0  0  0
    0.8980    5.8180   21.5780 H   0  0  0  0  0  0  0  0  0  0  0  0
    0.5760    5.2230   19.9560 H   0  0  0  0  0  0  0  0  0  0  0  0
    1.7370    3.4180   20.8010 H   0  0  0  0  0  0  0  0  0  0  0  0
    2.6960    4.3800   21.9100 H   0  0  0  0  0  0  0  0  0  0  0  0
    4.3480    4.8460   20.3690 H   0  0  0  0  0  0  0  0  0  0  0  0
    3.8470    3.2580   19.8160 H   0  0  0  0  0  0  0  0  0  0  0  0
    2.3010    4.3430   18.1630 H   0  0  0  0  0  0  0  0  0  0  0  0
    2.0230    6.6010   17.8790 H   0  0  0  0  0  0  0  0  0  0  0  0
    3.5870    7.0570   18.5120 H   0  0  0  0  0  0  0  0  0  0  0  0
    1.4280    7.5690   19.9170 H   0  0  0  0  0  0  0  0  0  0  0  0
    2.8990    7.0470   20.7270 H   0  0  0  0  0  0  0  0  0  0  0  0
    4.2250    4.7200   17.5820 N   0  0  1  0  0  0  0  0  0  0  0  0
    4.2780    3.7840   16.5760 C   0  0  0  0  0  3  0  0  0  0  0  0
    5.3850    3.8870   15.8600 N   0  0  0  0  0  0  0  0  0  0  0  0
    6.0590    4.9180   16.4280 C   0  0  0  0  0  0  0  0  0  0  0  0
    5.3680    5.4340   17.4730 C   0  0  2  0  0  3  0  0  0  0  0  0
    6.1100    6.4480   17.9750 N   0  0  0  0  0  0  0  0  0  0  0  0
    7.2400    6.5010   17.1900 C   0  0  0  0  0  0  0  0  0  0  0  0
    7.2300    5.5790   16.2440 N   0  0  0  0  0  0  0  0  0  0  0  0
    3.4930    3.0570   16.4090 H   0  0  0  0  0  0  0  0  0  0  0  0
    5.8980    7.0520   18.7570 H   0  0  0  0  0  0  0  0  0  0  0  0
    8.0250    7.2250   17.3590 H   0  0  0  0  0  0  0  0  0  0  0  0
  1  2  1  0  0  0  0
  1  7  1  0  0  0  0
  2 10  1  0  0  0  0
  3 11  1  0  0  0  0
  3  2  1  0  0  0  0
  4  5  1  0  0  0  0
  4  3  1  0  0  0  0
  5  6  1  0  0  0  0
  6  1  1  0  0  0  0
  6 17  1  0  0  0  0
  8  1  1  0  0  0  0
  9  2  1  0  0  0  0
 12  3  1  0  0  0  0
 13  4  1  0  0  0  0
 14  5  1  0  0  0  0
 15  5  1  0  0  0  0
 16  6  1  0  0  0  0
 18  4  1  6  0  0  0
 19 18  1  0  0  0  0
 20 21  2  0  0  0  0
 20 19  1  0  0  0  0
 22 21  1  1  0  0  0
 22 18  1  0  0  0  0
 22 23  1  0  0  0  0
 23 27  1  0  0  0  0
 24 28  1  0  0  0  0
 24 23  1  0  0  0  0
 25 21  1  0  0  0  0
 25 24  2  0  0  0  0
 26 19  1  0  0  0  0
M  END
>  <MODEL>
27

>  <REMARK>
 VINA RESULT:    -5.200      1.601      2.098
 INTER + INTRA:          -5.621
 INTER:                  -5.478
 INTRA:                  -0.143
 UNBOUND:                -0.117
  Name = 
  1 active torsions:
  status: ('A' for Active; 'I' for Inactive)
    1  A    between atoms: C_4  and  N_7
                            x       y       z     vdW  Elec       q    Type
                         _______ _______ _______ _____ _____    ______ ____

>  <TORSDO>
F 1

$$$$
=
 OpenBabel07192307433D

 28 30  0  0  1  0  0  0  0  0999 V2000
    6.9330    4.5760   11.8590 C   0  0  0  0  0  0  0  0  0  0  0  0
    7.9600    5.1670   12.8280 C   0  0  0  0  0  0  0  0  0  0  0  0
    7.6390    4.8990   14.3010 C   0  0  0  0  0  0  0  0  0  0  0  0
    6.1280    4.7980   14.5420 C   0  0  0  0  0  0  0  0  0  0  0  0
    5.4980    3.6530   13.7280 C   0  0  0  0  0  0  0  0  0  0  0  0
    6.2540    3.3400   12.4340 C   0  0  0  0  0  0  0  0  0  0  0  0
    7.4230    4.3330   10.9090 H   0  0  0  0  0  0  0  0  0  0  0  0
    6.1700    5.3320   11.6330 H   0  0  0  0  0  0  0  0  0  0  0  0
    8.0260    6.2470   12.6530 H   0  0  0  0  0  0  0  0  0  0  0  0
    8.9540    4.7620   12.6070 H   0  0  0  0  0  0  0  0  0  0  0  0
    8.1270    3.9650   14.6070 H   0  0  0  0  0  0  0  0  0  0  0  0
    8.0830    5.6900   14.9190 H   0  0  0  0  0  0  0  0  0  0  0  0
    5.6810    5.7410   14.1950 H   0  0  0  0  0  0  0  0  0  0  0  0
    4.4630    3.9310   13.4860 H   0  0  0  0  0  0  0  0  0  0  0  0
    5.4240    2.7300   14.3160 H   0  0  0  0  0  0  0  0  0  0  0  0
    5.5630    2.9110   11.6990 H   0  0  0  0  0  0  0  0  0  0  0  0
    7.0130    2.5730   12.6330 H   0  0  0  0  0  0  0  0  0  0  0  0
    5.7970    4.7070   15.9550 N   0  0  1  0  0  0  0  0  0  0  0  0
    4.7110    4.0750   16.5140 C   0  0  0  0  0  3  0  0  0  0  0  0
    4.7030    4.1750   17.8330 N   0  0  0  0  0  0  0  0  0  0  0  0
    5.8160    4.8930   18.1230 C   0  0  0  0  0  0  0  0  0  0  0  0
    6.4900    5.2230   16.9950 C   0  0  2  0  0  3  0  0  0  0  0  0
    7.5770    5.9330   17.3760 N   0  0  0  0  0  0  0  0  0  0  0  0
    7.5090    6.0000   18.7500 C   0  0  0  0  0  0  0  0  0  0  0  0
    6.4460    5.3750   19.2250 N   0  0  0  0  0  0  0  0  0  0  0  0
    3.9620    3.5630   15.9240 H   0  0  0  0  0  0  0  0  0  0  0  0
    8.2980    6.3360   16.7940 H   0  0  0  0  0  0  0  0  0  0  0  0
    8.2550    6.5140   19.3390 H   0  0  0  0  0  0  0  0  0  0  0  0
  1  6  1  0  0  0  0
  1  2  1  0  0  0  0
  2  3  1  0  0  0  0
  3  4  1  0  0  0  0
  3 11  1  0  0  0  0
  3 12  1  0  0  0  0
  5 15  1  0  0  0  0
  5  4  1  0  0  0  0
  6 17  1  0  0  0  0
  6  5  1  0  0  0  0
  7  1  1  0  0  0  0
  8  1  1  0  0  0  0
  9  2  1  0  0  0  0
 10  2  1  0  0  0  0
 13  4  1  0  0  0  0
 14  5  1  0  0  0  0
 16  6  1  0  0  0  0
 18  4  1  1  0  0  0
 18 19  1  0  0  0  0
 18 22  1  0  0  0  0
 19 20  1  0  0  0  0
 20 21  2  0  0  0  0
 21 25  1  0  0  0  0
 22 23  1  0  0  0  0
 22 21  1  6  0  0  0
 23 24  1  0  0  0  0
 24 25  2  0  0  0  0
 24 28  1  0  0  0  0
 26 19  1  0  0  0  0
 27 23  1  0  0  0  0
M  END
>  <MODEL>
28

>  <REMARK>
 VINA RESULT:    -5.186      2.875      5.570
 INTER + INTRA:          -5.606
 INTER:                  -5.614
 INTRA:                   0.008
 UNBOUND:                -0.117
  Name = 
  1 active torsions:
  status: ('A' for Active; 'I' for Inactive)
    1  A    between atoms: C_4  and  N_7
                            x       y       z     vdW  Elec       q    Type
                         _______ _______ _______ _____ _____    ______ ____

>  <TORSDO>
F 1

$$$$
=
 OpenBabel07192307433D

 28 30  0  0  1  0  0  0  0  0999 V2000
    1.8760    8.8030   18.1290 C   0  0  0  0  0  0  0  0  0  0  0  0
    1.5030    8.5810   19.5960 C   0  0  0  0  0  0  0  0  0  0  0  0
    1.9760    7.2360   20.1540 C   0  0  0  0  0  0  0  0  0  0  0  0
    2.0260    6.1580   19.0650 C   0  0  0  0  0  0  0  0  0  0  0  0
    2.9920    6.5410   17.9290 C   0  0  0  0  0  0  0  0  0  0  0  0
    3.1440    8.0530   17.7450 C   0  0  0  0  0  0  0  0  0  0  0  0
    1.9970    9.8760   17.9390 H   0  0  0  0  0  0  0  0  0  0  0  0
    1.0520    8.4640   17.4890 H   0  0  0  0  0  0  0  0  0  0  0  0
    0.4140    8.6630   19.6970 H   0  0  0  0  0  0  0  0  0  0  0  0
    1.9260    9.3840   20.2120 H   0  0  0  0  0  0  0  0  0  0  0  0
    2.9730    7.3650   20.5940 H   0  0  0  0  0  0  0  0  0  0  0  0
    1.3170    6.9320   20.9770 H   0  0  0  0  0  0  0  0  0  0  0  0
    1.0160    6.0860   18.6340 H   0  0  0  0  0  0  0  0  0  0  0  0
    2.6210    6.0970   16.9950 H   0  0  0  0  0  0  0  0  0  0  0  0
    3.9890    6.1110   18.0820 H   0  0  0  0  0  0  0  0  0  0  0  0
    3.4140    8.2720   16.7050 H   0  0  0  0  0  0  0  0  0  0  0  0
    3.9760    8.4130   18.3650 H   0  0  0  0  0  0  0  0  0  0  0  0
    2.3150    4.8390   19.6020 N   0  0  1  0  0  0  0  0  0  0  0  0
    2.2680    4.4500   20.9210 C   0  0  0  0  0  3  0  0  0  0  0  0
    2.5870    3.1760   21.0750 N   0  0  0  0  0  0  0  0  0  0  0  0
    2.8460    2.7400   19.8170 C   0  0  0  0  0  0  0  0  0  0  0  0
    2.6860    3.7360   18.9140 C   0  0  2  0  0  3  0  0  0  0  0  0
    2.9640    3.2150   17.6970 N   0  0  0  0  0  0  0  0  0  0  0  0
    3.2860    1.8960   17.9260 C   0  0  0  0  0  0  0  0  0  0  0  0
    3.2220    1.5860   19.2080 N   0  0  0  0  0  0  0  0  0  0  0  0
    2.0000    5.1260   21.7230 H   0  0  0  0  0  0  0  0  0  0  0  0
    2.9450    3.6760   16.7970 H   0  0  0  0  0  0  0  0  0  0  0  0
    3.5570    1.2210   17.1260 H   0  0  0  0  0  0  0  0  0  0  0  0
  1  2  1  0  0  0  0
  2  9  1  0  0  0  0
  2  3  1  0  0  0  0
  2 10  1  0  0  0  0
  3 11  1  0  0  0  0
  3 12  1  0  0  0  0
  4  3  1  0  0  0  0
  5 15  1  0  0  0  0
  5  4  1  0  0  0  0
  6  5  1  0  0  0  0
  6  1  1  0  0  0  0
  6 17  1  0  0  0  0
  7  1  1  0  0  0  0
  8  1  1  0  0  0  0
 13  4  1  0  0  0  0
 14  5  1  0  0  0  0
 16  6  1  0  0  0  0
 18  4  1  6  0  0  0
 18 19  1  0  0  0  0
 19 20  1  0  0  0  0
 19 26  1  0  0  0  0
 21 20  2  0  0  0  0
 22 18  1  0  0  0  0
 22 21  1  1  0  0  0
 23 24  1  0  0  0  0
 23 22  1  0  0  0  0
 24 25  2  0  0  0  0
 25 21  1  0  0  0  0
 27 23  1  0  0  0  0
 28 24  1  0  0  0  0
M  END
>  <MODEL>
29

>  <REMARK>
 VINA RESULT:    -5.150      2.958      4.711
 INTER + INTRA:          -5.568
 INTER:                  -5.512
 INTRA:                  -0.056
 UNBOUND:                -0.117
  Name = 
  1 active torsions:
  status: ('A' for Active; 'I' for Inactive)
    1  A    between atoms: C_4  and  N_7
                            x       y       z     vdW  Elec       q    Type
                         _______ _______ _______ _____ _____    ______ ____

>  <TORSDO>
F 1

$$$$
=
 OpenBabel07192307433D

 28 30  0  0  1  0  0  0  0  0999 V2000
    3.2880    2.3220   21.1720 C   0  0  0  0  0  0  0  0  0  0  0  0
    1.9540    3.0460   20.9760 C   0  0  0  0  0  0  0  0  0  0  0  0
    1.9900    4.1120   19.8780 C   0  0  0  0  0  0  0  0  0  0  0  0
    3.3830    4.7390   19.7420 C   0  0  0  0  0  0  0  0  0  0  0  0
    4.4470    3.6850   19.3830 C   0  0  0  0  0  0  0  0  0  0  0  0
    4.1070    2.2810   19.8890 C   0  0  0  0  0  0  0  0  0  0  0  0
    3.1030    1.3060   21.5380 H   0  0  0  0  0  0  0  0  0  0  0  0
    3.8680    2.8330   21.9510 H   0  0  0  0  0  0  0  0  0  0  0  0
    1.6610    3.5040   21.9290 H   0  0  0  0  0  0  0  0  0  0  0  0
    1.1700    2.3200   20.7340 H   0  0  0  0  0  0  0  0  0  0  0  0
    1.6950    3.6510   18.9260 H   0  0  0  0  0  0  0  0  0  0  0  0
    1.2340    4.8790   20.0910 H   0  0  0  0  0  0  0  0  0  0  0  0
    3.6460    5.1590   20.7230 H   0  0  0  0  0  0  0  0  0  0  0  0
    5.4070    4.0040   19.8140 H   0  0  0  0  0  0  0  0  0  0  0  0
    4.6150    3.6300   18.3010 H   0  0  0  0  0  0  0  0  0  0  0  0
    5.0310    1.7140   20.0480 H   0  0  0  0  0  0  0  0  0  0  0  0
    3.5400    1.7450   19.1180 H   0  0  0  0  0  0  0  0  0  0  0  0
    3.3980    5.8620   18.8190 N   0  0  1  0  0  0  0  0  0  0  0  0
    4.1240    5.9720   17.6560 C   0  0  0  0  0  3  0  0  0  0  0  0
    3.9100    7.1250   17.0450 N   0  0  0  0  0  0  0  0  0  0  0  0
    3.0220    7.7700   17.8430 C   0  0  0  0  0  0  0  0  0  0  0  0
    2.7020    7.0170   18.9220 C   0  0  2  0  0  3  0  0  0  0  0  0
    1.8210    7.7330   19.6570 N   0  0  0  0  0  0  0  0  0  0  0  0
    1.6420    8.9130   18.9700 C   0  0  0  0  0  0  0  0  0  0  0  0
    2.3640    8.9580   17.8650 N   0  0  0  0  0  0  0  0  0  0  0  0
    4.7870    5.1940   17.3020 H   0  0  0  0  0  0  0  0  0  0  0  0
    1.3730    7.4760   20.5260 H   0  0  0  0  0  0  0  0  0  0  0  0
    0.9820    9.6930   19.3250 H   0  0  0  0  0  0  0  0  0  0  0  0
  1  7  1  0  0  0  0
  1  8  1  0  0  0  0
  2  1  1  0  0  0  0
  2  9  1  0  0  0  0
  3 12  1  0  0  0  0
  3  2  1  0  0  0  0
  4  3  1  0  0  0  0
  4 13  1  0  0  0  0
  5  4  1  0  0  0  0
  5 14  1  0  0  0  0
  5  6  1  0  0  0  0
  6 16  1  0  0  0  0
  6  1  1  0  0  0  0
 10  2  1  0  0  0  0
 11  3  1  0  0  0  0
 15  5  1  0  0  0  0
 17  6  1  0  0  0  0
 18 22  1  0  0  0  0
 18  4  1  6  0  0  0
 19 18  1  0  0  0  0
 20 19  1  0  0  0  0
 20 21  2  0  0  0  0
 21 25  1  0  0  0  0
 22 21  1  1  0  0  0
 22 23  1  0  0  0  0
 23 27  1  0  0  0  0
 24 28  1  0  0  0  0
 24 23  1  0  0  0  0
 25 24  2  0  0  0  0
 26 19  1  0  0  0  0
M  END
>  <MODEL>
30

>  <REMARK>
 VINA RESULT:    -5.102      2.955      3.741
 INTER + INTRA:          -5.517
 INTER:                  -5.338
 INTRA:                  -0.180
 UNBOUND:                -0.117
  Name = 
  1 active torsions:
  status: ('A' for Active; 'I' for Inactive)
    1  A    between atoms: C_4  and  N_7
                            x       y       z     vdW  Elec       q    Type
                         _______ _______ _______ _____ _____    ______ ____

>  <TORSDO>
F 1

$$$$
=
 OpenBabel07192307433D

 28 30  0  0  1  0  0  0  0  0999 V2000
    1.9150    6.4850   19.3720 C   0  0  0  0  0  0  0  0  0  0  0  0
    2.7890    5.5180   20.1730 C   0  0  0  0  0  0  0  0  0  0  0  0
    4.1770    5.2980   19.5660 C   0  0  0  0  0  0  0  0  0  0  0  0
    4.1560    5.4380   18.0390 C   0  0  0  0  0  0  0  0  0  0  0  0
    3.6890    6.8390   17.6030 C   0  0  0  0  0  0  0  0  0  0  0  0
    2.7480    7.5060   18.6090 C   0  0  0  0  0  0  0  0  0  0  0  0
    1.2150    6.9920   20.0460 H   0  0  0  0  0  0  0  0  0  0  0  0
    1.3040    5.9160   18.6590 H   0  0  0  0  0  0  0  0  0  0  0  0
    2.2640    4.5580   20.2570 H   0  0  0  0  0  0  0  0  0  0  0  0
    2.9090    5.8890   21.1980 H   0  0  0  0  0  0  0  0  0  0  0  0
    4.8730    6.0300   19.9960 H   0  0  0  0  0  0  0  0  0  0  0  0
    4.5520    4.3100   19.8640 H   0  0  0  0  0  0  0  0  0  0  0  0
    3.4270    4.7090   17.6570 H   0  0  0  0  0  0  0  0  0  0  0  0
    3.1800    6.7470   16.6340 H   0  0  0  0  0  0  0  0  0  0  0  0
    4.5370    7.5130   17.4260 H   0  0  0  0  0  0  0  0  0  0  0  0
    2.0940    8.2140   18.0870 H   0  0  0  0  0  0  0  0  0  0  0  0
    3.3370    8.0940   19.3240 H   0  0  0  0  0  0  0  0  0  0  0  0
    5.4260    5.0750   17.4310 N   0  0  1  0  0  0  0  0  0  0  0  0
    6.6220    4.8550   18.0730 C   0  0  0  0  0  3  0  0  0  0  0  0
    7.5880    4.5370   17.2280 N   0  0  0  0  0  0  0  0  0  0  0  0
    6.9910    4.5570   16.0100 C   0  0  0  0  0  0  0  0  0  0  0  0
    5.6790    4.8810   16.1170 C   0  0  2  0  0  3  0  0  0  0  0  0
    5.1680    4.8770   14.8650 N   0  0  0  0  0  0  0  0  0  0  0  0
    6.2180    4.5410   14.0390 C   0  0  0  0  0  0  0  0  0  0  0  0
    7.3350    4.3430   14.7150 N   0  0  0  0  0  0  0  0  0  0  0  0
    6.7360    4.9390   19.1460 H   0  0  0  0  0  0  0  0  0  0  0  0
    4.2200    5.0740   14.5740 H   0  0  0  0  0  0  0  0  0  0  0  0
    6.1050    4.4610   12.9670 H   0  0  0  0  0  0  0  0  0  0  0  0
  1  7  1  0  0  0  0
  1  2  1  0  0  0  0
  2  9  1  0  0  0  0
  2 10  1  0  0  0  0
  3 12  1  0  0  0  0
  3 11  1  0  0  0  0
  3  2  1  0  0  0  0
  4  3  1  0  0  0  0
  5  4  1  0  0  0  0
  5  6  1  0  0  0  0
  6 17  1  0  0  0  0
  6  1  1  0  0  0  0
  8  1  1  0  0  0  0
 13  4  1  0  0  0  0
 14  5  1  0  0  0  0
 15  5  1  0  0  0  0
 16  6  1  0  0  0  0
 18  4  1  1  0  0  0
 18 19  1  0  0  0  0
 19 26  1  0  0  0  0
 20 19  1  0  0  0  0
 21 20  2  0  0  0  0
 22 21  1  6  0  0  0
 22 18  1  0  0  0  0
 23 22  1  0  0  0  0
 24 25  2  0  0  0  0
 24 23  1  0  0  0  0
 25 21  1  0  0  0  0
 27 23  1  0  0  0  0
 28 24  1  0  0  0  0
M  END
>  <MODEL>
31

>  <REMARK>
 VINA RESULT:    -5.099      2.052      3.379
 INTER + INTRA:          -5.514
 INTER:                  -5.336
 INTRA:                  -0.178
 UNBOUND:                -0.117
  Name = 
  1 active torsions:
  status: ('A' for Active; 'I' for Inactive)
    1  A    between atoms: C_4  and  N_7
                            x       y       z     vdW  Elec       q    Type
                         _______ _______ _______ _____ _____    ______ ____

>  <TORSDO>
F 1

$$$$
=
 OpenBabel07192307433D

 28 30  0  0  1  0  0  0  0  0999 V2000
    1.2150   10.1600   19.7200 C   0  0  0  0  0  0  0  0  0  0  0  0
    1.2900    9.9540   18.2050 C   0  0  0  0  0  0  0  0  0  0  0  0
    1.5980    8.5110   17.7960 C   0  0  0  0  0  0  0  0  0  0  0  0
    2.4560    7.7960   18.8450 C   0  0  0  0  0  0  0  0  0  0  0  0
    1.7510    7.7360   20.2130 C   0  0  0  0  0  0  0  0  0  0  0  0
    0.7770    8.8940   20.4440 C   0  0  0  0  0  0  0  0  0  0  0  0
    0.5280   10.9840   19.9450 H   0  0  0  0  0  0  0  0  0  0  0  0
    2.2000   10.4640   20.0950 H   0  0  0  0  0  0  0  0  0  0  0  0
    2.0560   10.6260   17.7990 H   0  0  0  0  0  0  0  0  0  0  0  0
    0.3430   10.2560   17.7430 H   0  0  0  0  0  0  0  0  0  0  0  0
    0.6510    7.9720   17.6600 H   0  0  0  0  0  0  0  0  0  0  0  0
    2.0920    8.5090   16.8160 H   0  0  0  0  0  0  0  0  0  0  0  0
    3.3760    8.3860   18.9690 H   0  0  0  0  0  0  0  0  0  0  0  0
    2.5200    7.7460   20.9980 H   0  0  0  0  0  0  0  0  0  0  0  0
    1.2050    6.7950   20.3480 H   0  0  0  0  0  0  0  0  0  0  0  0
    0.6830    9.0860   21.5200 H   0  0  0  0  0  0  0  0  0  0  0  0
   -0.2210    8.6050   20.0910 H   0  0  0  0  0  0  0  0  0  0  0  0
    2.8930    6.4820   18.4020 N   0  0  1  0  0  0  0  0  0  0  0  0
    2.4070    5.2620   18.8110 C   0  0  0  0  0  3  0  0  0  0  0  0
    3.0210    4.2560   18.2120 N   0  0  0  0  0  0  0  0  0  0  0  0
    3.9270    4.8520   17.3970 C   0  0  0  0  0  0  0  0  0  0  0  0
    3.8620    6.2010   17.5010 C   0  0  2  0  0  3  0  0  0  0  0  0
    4.7940    6.7080   16.6620 N   0  0  0  0  0  0  0  0  0  0  0  0
    5.3920    5.6160   16.0730 C   0  0  0  0  0  0  0  0  0  0  0  0
    4.8810    4.4770   16.5070 N   0  0  0  0  0  0  0  0  0  0  0  0
    1.6140    5.1620   19.5410 H   0  0  0  0  0  0  0  0  0  0  0  0
    5.0190    7.6770   16.4860 H   0  0  0  0  0  0  0  0  0  0  0  0
    6.1870    5.7160   15.3470 H   0  0  0  0  0  0  0  0  0  0  0  0
  1  7  1  0  0  0  0
  1  8  1  0  0  0  0
  1  6  1  0  0  0  0
  2  1  1  0  0  0  0
  3  2  1  0  0  0  0
  3  4  1  0  0  0  0
  4 13  1  0  0  0  0
  4  5  1  0  0  0  0
  5 15  1  0  0  0  0
  5  6  1  0  0  0  0
  5 14  1  0  0  0  0
  6 16  1  0  0  0  0
  9  2  1  0  0  0  0
 10  2  1  0  0  0  0
 11  3  1  0  0  0  0
 12  3  1  0  0  0  0
 17  6  1  0  0  0  0
 18 19  1  0  0  0  0
 18  4  1  6  0  0  0
 19 26  1  0  0  0  0
 20 19  1  0  0  0  0
 21 20  2  0  0  0  0
 22 21  1  1  0  0  0
 22 18  1  0  0  0  0
 23 22  1  0  0  0  0
 24 25  2  0  0  0  0
 24 23  1  0  0  0  0
 25 21  1  0  0  0  0
 27 23  1  0  0  0  0
 28 24  1  0  0  0  0
M  END
>  <MODEL>
32

>  <REMARK>
 VINA RESULT:    -5.076      3.287      4.469
 INTER + INTRA:          -5.490
 INTER:                  -5.310
 INTRA:                  -0.180
 UNBOUND:                -0.117
  Name = 
  1 active torsions:
  status: ('A' for Active; 'I' for Inactive)
    1  A    between atoms: C_4  and  N_7
                            x       y       z     vdW  Elec       q    Type
                         _______ _______ _______ _____ _____    ______ ____

>  <TORSDO>
F 1

$$$$
=
 OpenBabel07192307433D

 28 30  0  0  1  0  0  0  0  0999 V2000
    1.2080    8.9500   19.1530 C   0  0  0  0  0  0  0  0  0  0  0  0
    1.6270    7.9310   20.2160 C   0  0  0  0  0  0  0  0  0  0  0  0
    2.6560    6.9130   19.7180 C   0  0  0  0  0  0  0  0  0  0  0  0
    2.5000    6.6360   18.2180 C   0  0  0  0  0  0  0  0  0  0  0  0
    2.6880    7.9150   17.3810 C   0  0  0  0  0  0  0  0  0  0  0  0
    2.3110    9.1940   18.1330 C   0  0  0  0  0  0  0  0  0  0  0  0
    0.9230    9.8900   19.6390 H   0  0  0  0  0  0  0  0  0  0  0  0
    0.3130    8.5850   18.6330 H   0  0  0  0  0  0  0  0  0  0  0  0
    0.7310    7.4090   20.5730 H   0  0  0  0  0  0  0  0  0  0  0  0
    2.0420    8.4530   21.0860 H   0  0  0  0  0  0  0  0  0  0  0  0
    3.6640    7.2990   19.9210 H   0  0  0  0  0  0  0  0  0  0  0  0
    2.5620    5.9870   20.3000 H   0  0  0  0  0  0  0  0  0  0  0  0
    1.4700    6.2830   18.0600 H   0  0  0  0  0  0  0  0  0  0  0  0
    2.0700    7.8290   16.4770 H   0  0  0  0  0  0  0  0  0  0  0  0
    3.7200    8.0180   17.0230 H   0  0  0  0  0  0  0  0  0  0  0  0
    2.0010    9.9630   17.4160 H   0  0  0  0  0  0  0  0  0  0  0  0
    3.1960    9.5870   18.6490 H   0  0  0  0  0  0  0  0  0  0  0  0
    3.3580    5.5560   17.7610 N   0  0  1  0  0  0  0  0  0  0  0  0
    3.0090    4.2390   17.5750 C   0  0  0  0  0  3  0  0  0  0  0  0
    4.0260    3.5110   17.1480 N   0  0  0  0  0  0  0  0  0  0  0  0
    5.0560    4.3900   17.0590 C   0  0  0  0  0  0  0  0  0  0  0  0
    4.6660    5.6340   17.4270 C   0  0  2  0  0  3  0  0  0  0  0  0
    5.7470    6.4380   17.3100 N   0  0  0  0  0  0  0  0  0  0  0  0
    6.7650    5.6240   16.8630 C   0  0  0  0  0  0  0  0  0  0  0  0
    6.3660    4.3740   16.7050 N   0  0  0  0  0  0  0  0  0  0  0  0
    2.0110    3.8640   17.7660 H   0  0  0  0  0  0  0  0  0  0  0  0
    5.8170    7.4280   17.5010 H   0  0  0  0  0  0  0  0  0  0  0  0
    7.7620    5.9970   16.6760 H   0  0  0  0  0  0  0  0  0  0  0  0
  1  7  1  0  0  0  0
  1  2  1  0  0  0  0
  2  9  1  0  0  0  0
  2 10  1  0  0  0  0
  3 11  1  0  0  0  0
  3  2  1  0  0  0  0
  3 12  1  0  0  0  0
  4  3  1  0  0  0  0
  5  6  1  0  0  0  0
  5  4  1  0  0  0  0
  6 17  1  0  0  0  0
  6  1  1  0  0  0  0
  8  1  1  0  0  0  0
 13  4  1  0  0  0  0
 14  5  1  0  0  0  0
 15  5  1  0  0  0  0
 16  6  1  0  0  0  0
 18  4  1  6  0  0  0
 19 18  1  0  0  0  0
 19 26  1  0  0  0  0
 20 19  1  0  0  0  0
 21 20  2  0  0  0  0
 22 21  1  1  0  0  0
 22 18  1  0  0  0  0
 23 22  1  0  0  0  0
 23 27  1  0  0  0  0
 24 23  1  0  0  0  0
 25 24  2  0  0  0  0
 25 21  1  0  0  0  0
 28 24  1  0  0  0  0
M  END
>  <MODEL>
33

>  <REMARK>
 VINA RESULT:    -4.960      2.623      3.561
 INTER + INTRA:          -5.368
 INTER:                  -5.250
 INTRA:                  -0.117
 UNBOUND:                -0.117
  Name = 
  1 active torsions:
  status: ('A' for Active; 'I' for Inactive)
    1  A    between atoms: C_4  and  N_7
                            x       y       z     vdW  Elec       q    Type
                         _______ _______ _______ _____ _____    ______ ____

>  <TORSDO>
F 1

$$$$
