=
 OpenBabel07192307433D

 51 54  0  0  1  0  0  0  0  0999 V2000
    5.8210    4.7580   16.7790 C   0  0  0  0  0  0  0  0  0  0  0  0
    4.7220    3.7620   17.1790 C   0  0  0  0  0  0  0  0  0  0  0  0
    4.2650    3.9840   18.6180 C   0  0  0  0  0  0  0  0  0  0  0  0
    3.8810    5.3750   18.8230 N   0  0  0  0  0  0  0  0  0  0  0  0
    2.7230    5.6500   19.5660 C   0  0  0  0  0  0  0  0  0  0  0  0
    2.1540    4.7640   20.2110 O   0  0  0  0  0  0  0  0  0  0  0  0
    4.9190    6.3540   18.5030 C   0  0  0  0  0  0  0  0  0  0  0  0
    5.3680    6.2030   17.0530 C   0  0  0  0  0  0  0  0  0  0  0  0
    6.6990    4.5610   17.4110 H   0  0  0  0  0  0  0  0  0  0  0  0
    3.8600    3.8770   16.5070 H   0  0  0  0  0  0  0  0  0  0  0  0
    5.0770    2.7310   17.0610 H   0  0  0  0  0  0  0  0  0  0  0  0
    3.4300    3.3100   18.8380 H   0  0  0  0  0  0  0  0  0  0  0  0
    5.0720    3.7510   19.3250 H   0  0  0  0  0  0  0  0  0  0  0  0
    4.6250    7.3820   18.7140 H   0  0  0  0  0  0  0  0  0  0  0  0
    5.7630    6.1490   19.1770 H   0  0  0  0  0  0  0  0  0  0  0  0
    6.1870    6.9010   16.8440 H   0  0  0  0  0  0  0  0  0  0  0  0
    4.5380    6.4750   16.3890 H   0  0  0  0  0  0  0  0  0  0  0  0
    6.2260    3.8010   13.3790 C   0  0  2  0  0  3  0  0  0  0  0  0
    5.5090    3.7650   14.4850 N   0  0  0  0  0  0  0  0  0  0  0  0
    6.2240    4.5530   15.3550 C   0  0  0  0  0  0  0  0  0  0  0  0
    7.3440    5.0880   14.8380 N   0  0  0  0  0  2  0  0  0  0  0  0
    7.3260    4.5910   13.5900 N   0  0  0  0  0  0  0  0  0  0  0  0
    8.0830    4.8260   12.9530 H   0  0  0  0  0  0  0  0  0  0  0  0
    5.9410    3.1300   12.0850 C   0  0  0  0  0  0  0  0  0  0  0  0
    6.3150    2.0950   12.0970 H   0  0  0  0  0  0  0  0  0  0  0  0
    6.4760    3.6620   11.2880 H   0  0  0  0  0  0  0  0  0  0  0  0
    4.4480    3.1170   11.7750 C   0  0  0  0  0  0  0  0  0  0  0  0
    4.2130    2.3090   11.0740 H   0  0  0  0  0  0  0  0  0  0  0  0
    3.8550    2.9590   12.6810 H   0  0  0  0  0  0  0  0  0  0  0  0
    4.1300    4.0630   11.3190 H   0  0  0  0  0  0  0  0  0  0  0  0
    2.1460    7.0120   19.5390 C   0  0  0  0  0  0  0  0  0  0  0  0
    2.2810    7.9370   18.4780 C   0  0  0  0  0  0  0  0  0  0  0  0
    1.6970    9.1120   18.9080 C   0  0  0  0  0  0  0  0  0  0  0  0
    1.1700    8.8380   20.1670 N   0  0  0  0  0  0  0  0  0  0  0  0
    1.5260    7.5890   20.5780 N   0  0  0  0  0  0  0  0  0  0  0  0
    2.7950    7.7720   17.5390 H   0  0  0  0  0  0  0  0  0  0  0  0
    0.3670    9.6350   21.0460 C   0  0  0  0  0  0  0  0  0  0  0  0
    0.1940    9.2030   22.3780 C   0  0  0  0  0  0  0  0  0  0  0  0
   -0.5750    9.9470   23.2770 C   0  0  0  0  0  0  0  0  0  0  0  0
   -1.1830   11.1180   22.8490 C   0  0  0  0  0  0  0  0  0  0  0  0
   -1.9160   11.8360   23.7100 F   0  0  0  0  0  0  0  0  0  0  0  0
   -1.0450   11.5530   21.5370 C   0  0  0  0  0  0  0  0  0  0  0  0
   -0.2740   10.8110   20.6310 C   0  0  0  0  0  0  0  0  0  0  0  0
    0.6700    8.2920   22.7420 H   0  0  0  0  0  0  0  0  0  0  0  0
   -0.6970    9.6180   24.3040 H   0  0  0  0  0  0  0  0  0  0  0  0
   -1.5440   12.4640   21.2210 H   0  0  0  0  0  0  0  0  0  0  0  0
   -0.2340   11.1700   19.6110 H   0  0  0  0  0  0  0  0  0  0  0  0
    1.6970   10.4200   18.2060 C   0  0  0  0  0  0  0  0  0  0  0  0
    1.5830   11.2410   18.9260 H   0  0  0  0  0  0  0  0  0  0  0  0
    2.6450   10.5820   17.6820 H   0  0  0  0  0  0  0  0  0  0  0  0
    0.8620   10.5020   17.5050 H   0  0  0  0  0  0  0  0  0  0  0  0
  1  8  1  0  0  0  0
  1  2  1  0  0  0  0
  1  9  1  0  0  0  0
  2  3  1  0  0  0  0
  3  4  1  0  0  0  0
  3 12  1  0  0  0  0
  3 13  1  0  0  0  0
  4  5  1  0  0  0  0
  5  6  2  0  0  0  0
  7 14  1  0  0  0  0
  7  4  1  0  0  0  0
  7 15  1  0  0  0  0
  8  7  1  0  0  0  0
 10  2  1  0  0  0  0
 11  2  1  0  0  0  0
 16  8  1  0  0  0  0
 17  8  1  0  0  0  0
 18 24  1  6  0  0  0
 18 22  1  0  0  0  0
 18 19  1  0  0  0  0
 19 20  2  0  0  0  0
 20  1  1  0  0  0  0
 21 20  1  0  0  0  0
 22 21  1  0  0  0  0
 23 22  1  0  0  0  0
 24 25  1  0  0  0  0
 26 24  1  0  0  0  0
 27 24  1  0  0  0  0
 27 29  1  0  0  0  0
 28 27  1  0  0  0  0
 30 27  1  0  0  0  0
 31  5  1  0  0  0  0
 31 35  2  0  0  0  0
 32 33  2  0  0  0  0
 32 31  1  0  0  0  0
 33 34  1  0  0  0  0
 34 35  1  0  0  0  0
 34 37  1  0  0  0  0
 36 32  1  0  0  0  0
 37 38  1  0  0  0  0
 38 44  1  0  0  0  0
 38 39  2  0  0  0  0
 39 45  1  0  0  0  0
 40 39  1  0  0  0  0
 40 41  1  0  0  0  0
 42 40  2  0  0  0  0
 43 37  2  0  0  0  0
 43 42  1  0  0  0  0
 46 42  1  0  0  0  0
 47 43  1  0  0  0  0
 48 33  1  0  0  0  0
 48 49  1  0  0  0  0
 50 48  1  0  0  0  0
 51 48  1  0  0  0  0
M  END
>  <MODEL>
1

>  <REMARK>
 VINA RESULT:    -8.698      0.000      0.000
 INTER + INTRA:         -11.062
 INTER:                 -10.985
 INTRA:                  -0.077
 UNBOUND:                 0.178
  Name = 
  6 active torsions:
  status: ('A' for Active; 'I' for Inactive)
    1  A    between atoms: C_1  and  C_2
    2  A    between atoms: C_2  and  C_3
    3  A    between atoms: C_5  and  C_6
    4  A    between atoms: C_10  and  C_12
    5  A    between atoms: C_14  and  C_15
    6  A    between atoms: N_16  and  C_17
                            x       y       z     vdW  Elec       q    Type
                         _______ _______ _______ _____ _____    ______ ____

>  <TORSDO>
F 6

$$$$
=
 OpenBabel07192307433D

 51 54  0  0  1  0  0  0  0  0999 V2000
    5.5170    4.4460   17.2160 C   0  0  0  0  0  0  0  0  0  0  0  0
    4.1940    3.6840   17.0450 C   0  0  0  0  0  0  0  0  0  0  0  0
    3.4730    3.5120   18.3790 C   0  0  0  0  0  0  0  0  0  0  0  0
    3.3110    4.7990   19.0420 N   0  0  0  0  0  0  0  0  0  0  0  0
    2.0850    5.0870   19.6600 C   0  0  0  0  0  0  0  0  0  0  0  0
    1.2340    4.2080   19.8300 O   0  0  0  0  0  0  0  0  0  0  0  0
    4.5540    5.5340   19.2710 C   0  0  0  0  0  0  0  0  0  0  0  0
    5.2830    5.7760   17.9540 C   0  0  0  0  0  0  0  0  0  0  0  0
    6.1800    3.8320   17.8430 H   0  0  0  0  0  0  0  0  0  0  0  0
    3.5410    4.2330   16.3520 H   0  0  0  0  0  0  0  0  0  0  0  0
    4.3740    2.7000   16.5940 H   0  0  0  0  0  0  0  0  0  0  0  0
    2.5020    3.0360   18.2030 H   0  0  0  0  0  0  0  0  0  0  0  0
    4.0440    2.8580   19.0500 H   0  0  0  0  0  0  0  0  0  0  0  0
    4.4110    6.4680   19.8140 H   0  0  0  0  0  0  0  0  0  0  0  0
    5.1740    4.9070   19.9280 H   0  0  0  0  0  0  0  0  0  0  0  0
    6.2400    6.2750   18.1460 H   0  0  0  0  0  0  0  0  0  0  0  0
    4.6870    6.4570   17.3320 H   0  0  0  0  0  0  0  0  0  0  0  0
    6.6900    4.3600   13.8610 C   0  0  2  0  0  3  0  0  0  0  0  0
    5.8280    3.9410   14.7680 N   0  0  0  0  0  0  0  0  0  0  0  0
    6.1860    4.6420   15.8950 C   0  0  0  0  0  0  0  0  0  0  0  0
    7.2200    5.4860   15.7280 N   0  0  0  0  0  2  0  0  0  0  0  0
    7.5240    5.2830   14.4350 N   0  0  0  0  0  0  0  0  0  0  0  0
    8.3010    5.7940   14.0230 H   0  0  0  0  0  0  0  0  0  0  0  0
    6.7870    3.9470   12.4380 C   0  0  0  0  0  0  0  0  0  0  0  0
    7.6940    3.3470   12.2720 H   0  0  0  0  0  0  0  0  0  0  0  0
    6.8740    4.8480   11.8160 H   0  0  0  0  0  0  0  0  0  0  0  0
    5.5690    3.1410   12.0000 C   0  0  0  0  0  0  0  0  0  0  0  0
    5.8120    2.5300   11.1250 H   0  0  0  0  0  0  0  0  0  0  0  0
    5.2300    2.4710   12.7960 H   0  0  0  0  0  0  0  0  0  0  0  0
    4.7350    3.8010   11.7290 H   0  0  0  0  0  0  0  0  0  0  0  0
    1.7850    6.4760   20.0720 C   0  0  0  0  0  0  0  0  0  0  0  0
    1.2530    6.8620   21.3240 C   0  0  0  0  0  0  0  0  0  0  0  0
    1.0200    8.2210   21.2470 C   0  0  0  0  0  0  0  0  0  0  0  0
    1.4830    8.6170   19.9950 N   0  0  0  0  0  0  0  0  0  0  0  0
    1.8610    7.5370   19.2570 N   0  0  0  0  0  0  0  0  0  0  0  0
    1.0190    6.2080   22.1550 H   0  0  0  0  0  0  0  0  0  0  0  0
    1.6000    9.9160   19.4030 C   0  0  0  0  0  0  0  0  0  0  0  0
    0.9390   10.9990   20.0190 C   0  0  0  0  0  0  0  0  0  0  0  0
    1.0250   12.2880   19.4860 C   0  0  0  0  0  0  0  0  0  0  0  0
    1.7610   12.4990   18.3280 C   0  0  0  0  0  0  0  0  0  0  0  0
    1.8500   13.7340   17.8170 F   0  0  0  0  0  0  0  0  0  0  0  0
    2.4030   11.4450   17.6910 C   0  0  0  0  0  0  0  0  0  0  0  0
    2.3200   10.1510   18.2230 C   0  0  0  0  0  0  0  0  0  0  0  0
    0.3630   10.8610   20.9350 H   0  0  0  0  0  0  0  0  0  0  0  0
    0.5250   13.1210   19.9690 H   0  0  0  0  0  0  0  0  0  0  0  0
    2.9590   11.6330   16.7770 H   0  0  0  0  0  0  0  0  0  0  0  0
    2.8020    9.3580   17.6640 H   0  0  0  0  0  0  0  0  0  0  0  0
    0.3450    9.0720   22.2590 C   0  0  0  0  0  0  0  0  0  0  0  0
    1.0640    9.7600   22.7220 H   0  0  0  0  0  0  0  0  0  0  0  0
   -0.4350    9.6850   21.7970 H   0  0  0  0  0  0  0  0  0  0  0  0
   -0.0790    8.4730   23.0710 H   0  0  0  0  0  0  0  0  0  0  0  0
  1  9  1  0  0  0  0
  1  8  1  0  0  0  0
  2  1  1  0  0  0  0
  2  3  1  0  0  0  0
  3  4  1  0  0  0  0
  3 13  1  0  0  0  0
  4  7  1  0  0  0  0
  4  5  1  0  0  0  0
  5  6  2  0  0  0  0
  5 31  1  0  0  0  0
  7 14  1  0  0  0  0
  7 15  1  0  0  0  0
  8 16  1  0  0  0  0
  8  7  1  0  0  0  0
 10  2  1  0  0  0  0
 11  2  1  0  0  0  0
 12  3  1  0  0  0  0
 17  8  1  0  0  0  0
 18 24  1  6  0  0  0
 18 22  1  0  0  0  0
 18 19  1  0  0  0  0
 19 20  2  0  0  0  0
 20  1  1  0  0  0  0
 21 20  1  0  0  0  0
 22 21  1  0  0  0  0
 23 22  1  0  0  0  0
 25 24  1  0  0  0  0
 26 24  1  0  0  0  0
 27 24  1  0  0  0  0
 27 29  1  0  0  0  0
 28 27  1  0  0  0  0
 30 27  1  0  0  0  0
 31 32  1  0  0  0  0
 32 36  1  0  0  0  0
 33 32  2  0  0  0  0
 33 48  1  0  0  0  0
 34 33  1  0  0  0  0
 35 34  1  0  0  0  0
 35 31  2  0  0  0  0
 37 34  1  0  0  0  0
 37 38  1  0  0  0  0
 38 44  1  0  0  0  0
 39 45  1  0  0  0  0
 39 38  2  0  0  0  0
 40 39  1  0  0  0  0
 41 40  1  0  0  0  0
 42 43  1  0  0  0  0
 42 40  2  0  0  0  0
 43 37  2  0  0  0  0
 46 42  1  0  0  0  0
 47 43  1  0  0  0  0
 48 49  1  0  0  0  0
 48 51  1  0  0  0  0
 50 48  1  0  0  0  0
M  END
>  <MODEL>
2

>  <REMARK>
 VINA RESULT:    -7.790      1.804      2.752
 INTER + INTRA:          -9.889
 INTER:                  -9.609
 INTRA:                  -0.280
 UNBOUND:                 0.178
  Name = 
  6 active torsions:
  status: ('A' for Active; 'I' for Inactive)
    1  A    between atoms: C_1  and  C_2
    2  A    between atoms: C_2  and  C_3
    3  A    between atoms: C_5  and  C_6
    4  A    between atoms: C_10  and  C_12
    5  A    between atoms: C_14  and  C_15
    6  A    between atoms: N_16  and  C_17
                            x       y       z     vdW  Elec       q    Type
                         _______ _______ _______ _____ _____    ______ ____

>  <TORSDO>
F 6

$$$$
=
 OpenBabel07192307433D

 51 54  0  0  1  0  0  0  0  0999 V2000
    1.1890    9.2850   19.2780 C   0  0  0  0  0  0  0  0  0  0  0  0
    1.3040    8.5250   20.6080 C   0  0  0  0  0  0  0  0  0  0  0  0
    1.3140    7.0150   20.3890 C   0  0  0  0  0  0  0  0  0  0  0  0
    2.3430    6.6450   19.4260 N   0  0  0  0  0  0  0  0  0  0  0  0
    3.1310    5.5140   19.6870 C   0  0  0  0  0  0  0  0  0  0  0  0
    2.8350    4.7240   20.5890 O   0  0  0  0  0  0  0  0  0  0  0  0
    2.2390    7.3080   18.1270 C   0  0  0  0  0  0  0  0  0  0  0  0
    2.2800    8.8240   18.2950 C   0  0  0  0  0  0  0  0  0  0  0  0
    0.2150    9.0360   18.8310 H   0  0  0  0  0  0  0  0  0  0  0  0
    2.2310    8.8190   21.1200 H   0  0  0  0  0  0  0  0  0  0  0  0
    0.4770    8.7950   21.2760 H   0  0  0  0  0  0  0  0  0  0  0  0
    1.4750    6.5140   21.3490 H   0  0  0  0  0  0  0  0  0  0  0  0
    0.3480    6.6710   19.9960 H   0  0  0  0  0  0  0  0  0  0  0  0
    2.9890    6.9760   17.4100 H   0  0  0  0  0  0  0  0  0  0  0  0
    1.2720    7.0080   17.6980 H   0  0  0  0  0  0  0  0  0  0  0  0
    2.1410    9.3090   17.3220 H   0  0  0  0  0  0  0  0  0  0  0  0
    3.2720    9.1180   18.6600 H   0  0  0  0  0  0  0  0  0  0  0  0
    1.6120   12.8140   19.1860 C   0  0  2  0  0  3  0  0  0  0  0  0
    1.6910   11.6500   18.5700 N   0  0  0  0  0  0  0  0  0  0  0  0
    1.2240   10.7610   19.5090 C   0  0  0  0  0  0  0  0  0  0  0  0
    0.8470   11.3180   20.6730 N   0  0  0  0  0  2  0  0  0  0  0  0
    1.1080   12.6160   20.4450 N   0  0  0  0  0  0  0  0  0  0  0  0
    0.9270   13.2940   21.1810 H   0  0  0  0  0  0  0  0  0  0  0  0
    1.9800   14.1520   18.6570 C   0  0  0  0  0  0  0  0  0  0  0  0
    1.7830   14.9310   19.4080 H   0  0  0  0  0  0  0  0  0  0  0  0
    1.3490   14.3710   17.7860 H   0  0  0  0  0  0  0  0  0  0  0  0
    3.4480   14.2120   18.2510 C   0  0  0  0  0  0  0  0  0  0  0  0
    3.8220   15.2380   18.3280 H   0  0  0  0  0  0  0  0  0  0  0  0
    4.0650   13.5800   18.8960 H   0  0  0  0  0  0  0  0  0  0  0  0
    3.5860   13.8800   17.2130 H   0  0  0  0  0  0  0  0  0  0  0  0
    4.3630    5.2870   18.9000 C   0  0  0  0  0  0  0  0  0  0  0  0
    5.6770    5.2620   19.4240 C   0  0  0  0  0  0  0  0  0  0  0  0
    6.5260    5.1420   18.3420 C   0  0  0  0  0  0  0  0  0  0  0  0
    5.7060    5.0250   17.2240 N   0  0  0  0  0  0  0  0  0  0  0  0
    4.3990    5.2050   17.5620 N   0  0  0  0  0  0  0  0  0  0  0  0
    5.9590    5.3750   20.4630 H   0  0  0  0  0  0  0  0  0  0  0  0
    6.0190    4.7710   15.8490 C   0  0  0  0  0  0  0  0  0  0  0  0
    5.1190    3.9990   15.0840 C   0  0  0  0  0  0  0  0  0  0  0  0
    5.3750    3.7270   13.7380 C   0  0  0  0  0  0  0  0  0  0  0  0
    6.5340    4.2130   13.1510 C   0  0  0  0  0  0  0  0  0  0  0  0
    6.7790    3.9580   11.8590 F   0  0  0  0  0  0  0  0  0  0  0  0
    7.4450    4.9580   13.8880 C   0  0  0  0  0  0  0  0  0  0  0  0
    7.1940    5.2340   15.2390 C   0  0  0  0  0  0  0  0  0  0  0  0
    4.1960    3.6140   15.5190 H   0  0  0  0  0  0  0  0  0  0  0  0
    4.6740    3.1420   13.1500 H   0  0  0  0  0  0  0  0  0  0  0  0
    8.3540    5.3130   13.4120 H   0  0  0  0  0  0  0  0  0  0  0  0
    7.9570    5.7810   15.7790 H   0  0  0  0  0  0  0  0  0  0  0  0
    8.0090    5.2020   18.3590 C   0  0  0  0  0  0  0  0  0  0  0  0
    8.3560    5.8950   19.1360 H   0  0  0  0  0  0  0  0  0  0  0  0
    8.4380    4.2210   18.5900 H   0  0  0  0  0  0  0  0  0  0  0  0
    8.4090    5.5720   17.4100 H   0  0  0  0  0  0  0  0  0  0  0  0
  1 20  1  0  0  0  0
  1  2  1  0  0  0  0
  2 10  1  0  0  0  0
  2 11  1  0  0  0  0
  3  2  1  0  0  0  0
  3 12  1  0  0  0  0
  4  5  1  0  0  0  0
  4  3  1  0  0  0  0
  5  6  2  0  0  0  0
  7  8  1  0  0  0  0
  7  4  1  0  0  0  0
  8 17  1  0  0  0  0
  8  1  1  0  0  0  0
  9  1  1  0  0  0  0
 13  3  1  0  0  0  0
 14  7  1  0  0  0  0
 15  7  1  0  0  0  0
 16  8  1  0  0  0  0
 18 24  1  6  0  0  0
 18 22  1  0  0  0  0
 19 18  1  0  0  0  0
 19 20  2  0  0  0  0
 20 21  1  0  0  0  0
 22 21  1  0  0  0  0
 22 23  1  0  0  0  0
 24 25  1  0  0  0  0
 26 24  1  0  0  0  0
 27 28  1  0  0  0  0
 27 24  1  0  0  0  0
 27 29  1  0  0  0  0
 30 27  1  0  0  0  0
 31 32  1  0  0  0  0
 31  5  1  0  0  0  0
 32 36  1  0  0  0  0
 33 48  1  0  0  0  0
 33 32  2  0  0  0  0
 34 35  1  0  0  0  0
 34 33  1  0  0  0  0
 35 31  2  0  0  0  0
 37 34  1  0  0  0  0
 38 44  1  0  0  0  0
 38 37  2  0  0  0  0
 39 38  1  0  0  0  0
 40 39  2  0  0  0  0
 40 42  1  0  0  0  0
 41 40  1  0  0  0  0
 42 43  2  0  0  0  0
 43 47  1  0  0  0  0
 43 37  1  0  0  0  0
 45 39  1  0  0  0  0
 46 42  1  0  0  0  0
 48 50  1  0  0  0  0
 48 49  1  0  0  0  0
 51 48  1  0  0  0  0
M  END
>  <MODEL>
3

>  <REMARK>
 VINA RESULT:    -7.553      3.777      9.242
 INTER + INTRA:          -9.583
 INTER:                  -9.357
 INTRA:                  -0.226
 UNBOUND:                 0.178
  Name = 
  6 active torsions:
  status: ('A' for Active; 'I' for Inactive)
    1  A    between atoms: C_1  and  C_2
    2  A    between atoms: C_2  and  C_3
    3  A    between atoms: C_5  and  C_6
    4  A    between atoms: C_10  and  C_12
    5  A    between atoms: C_14  and  C_15
    6  A    between atoms: N_16  and  C_17
                            x       y       z     vdW  Elec       q    Type
                         _______ _______ _______ _____ _____    ______ ____

>  <TORSDO>
F 6

$$$$
=
 OpenBabel07192307433D

 51 54  0  0  1  0  0  0  0  0999 V2000
    1.2670   12.1710   18.9490 C   0  0  0  0  0  0  0  0  0  0  0  0
    1.2260   11.9950   20.4750 C   0  0  0  0  0  0  0  0  0  0  0  0
    0.3710   10.7960   20.8750 C   0  0  0  0  0  0  0  0  0  0  0  0
    0.8110    9.5980   20.1720 N   0  0  0  0  0  0  0  0  0  0  0  0
    0.8950    8.3920   20.8850 C   0  0  0  0  0  0  0  0  0  0  0  0
    0.4130    8.2860   22.0170 O   0  0  0  0  0  0  0  0  0  0  0  0
    0.8140    9.7070   18.7130 C   0  0  0  0  0  0  0  0  0  0  0  0
    1.7020   10.8630   18.2660 C   0  0  0  0  0  0  0  0  0  0  0  0
    0.2460   12.3980   18.6090 H   0  0  0  0  0  0  0  0  0  0  0  0
    2.2460   11.8510   20.8560 H   0  0  0  0  0  0  0  0  0  0  0  0
    0.8360   12.9010   20.9550 H   0  0  0  0  0  0  0  0  0  0  0  0
    0.4310   10.6580   21.9600 H   0  0  0  0  0  0  0  0  0  0  0  0
   -0.6840   10.9650   20.6220 H   0  0  0  0  0  0  0  0  0  0  0  0
    1.0970    8.7820   18.2110 H   0  0  0  0  0  0  0  0  0  0  0  0
   -0.2250    9.8970   18.4090 H   0  0  0  0  0  0  0  0  0  0  0  0
    1.6500   10.9710   17.1760 H   0  0  0  0  0  0  0  0  0  0  0  0
    2.7460   10.6320   18.5140 H   0  0  0  0  0  0  0  0  0  0  0  0
    3.8840   14.4210   18.0940 C   0  0  2  0  0  3  0  0  0  0  0  0
    3.4840   13.1830   18.3130 N   0  0  0  0  0  0  0  0  0  0  0  0
    2.1420   13.3230   18.5760 C   0  0  0  0  0  0  0  0  0  0  0  0
    1.6860   14.5860   18.5170 N   0  0  0  0  0  2  0  0  0  0  0  0
    2.8090   15.2610   18.2180 N   0  0  0  0  0  0  0  0  0  0  0  0
    2.7670   16.2730   18.1200 H   0  0  0  0  0  0  0  0  0  0  0  0
    5.2510   14.8910   17.7570 C   0  0  0  0  0  0  0  0  0  0  0  0
    5.2050   15.7650   17.0910 H   0  0  0  0  0  0  0  0  0  0  0  0
    5.7730   14.0930   17.2120 H   0  0  0  0  0  0  0  0  0  0  0  0
    6.0450   15.2580   19.0060 C   0  0  0  0  0  0  0  0  0  0  0  0
    6.9680   14.6710   19.0570 H   0  0  0  0  0  0  0  0  0  0  0  0
    6.3200   16.3180   19.0040 H   0  0  0  0  0  0  0  0  0  0  0  0
    5.4660   15.0560   19.9160 H   0  0  0  0  0  0  0  0  0  0  0  0
    1.6130    7.2430   20.2920 C   0  0  0  0  0  0  0  0  0  0  0  0
    1.5990    5.9210   20.7930 C   0  0  0  0  0  0  0  0  0  0  0  0
    2.4860    5.2000   20.0180 C   0  0  0  0  0  0  0  0  0  0  0  0
    2.9430    6.0820   19.0420 N   0  0  0  0  0  0  0  0  0  0  0  0
    2.4770    7.3400   19.2710 N   0  0  0  0  0  0  0  0  0  0  0  0
    1.0470    5.5630   21.6520 H   0  0  0  0  0  0  0  0  0  0  0  0
    3.7920    5.8710   17.9070 C   0  0  0  0  0  0  0  0  0  0  0  0
    3.9110    4.5640   17.3880 C   0  0  0  0  0  0  0  0  0  0  0  0
    4.7200    4.3060   16.2790 C   0  0  0  0  0  0  0  0  0  0  0  0
    5.4240    5.3460   15.6900 C   0  0  0  0  0  0  0  0  0  0  0  0
    6.1970    5.1020   14.6240 F   0  0  0  0  0  0  0  0  0  0  0  0
    5.3400    6.6370   16.1950 C   0  0  0  0  0  0  0  0  0  0  0  0
    4.5290    6.9020   17.3070 C   0  0  0  0  0  0  0  0  0  0  0  0
    3.3600    3.7310   17.8270 H   0  0  0  0  0  0  0  0  0  0  0  0
    4.8010    3.3010   15.8760 H   0  0  0  0  0  0  0  0  0  0  0  0
    5.9130    7.4320   15.7270 H   0  0  0  0  0  0  0  0  0  0  0  0
    4.5320    7.9160   17.6870 H   0  0  0  0  0  0  0  0  0  0  0  0
    2.9210    3.7970   20.2280 C   0  0  0  0  0  0  0  0  0  0  0  0
    3.5010    3.4420   19.3660 H   0  0  0  0  0  0  0  0  0  0  0  0
    3.5700    3.7160   21.1070 H   0  0  0  0  0  0  0  0  0  0  0  0
    2.0670    3.1200   20.3290 H   0  0  0  0  0  0  0  0  0  0  0  0
  1  2  1  0  0  0  0
  2 10  1  0  0  0  0
  2  3  1  0  0  0  0
  2 11  1  0  0  0  0
  3 12  1  0  0  0  0
  4  3  1  0  0  0  0
  4  5  1  0  0  0  0
  5  6  2  0  0  0  0
  7  4  1  0  0  0  0
  8 17  1  0  0  0  0
  8  7  1  0  0  0  0
  8  1  1  0  0  0  0
  9  1  1  0  0  0  0
 13  3  1  0  0  0  0
 14  7  1  0  0  0  0
 15  7  1  0  0  0  0
 16  8  1  0  0  0  0
 18 24  1  6  0  0  0
 18 22  1  0  0  0  0
 18 19  1  0  0  0  0
 19 20  2  0  0  0  0
 20  1  1  0  0  0  0
 21 20  1  0  0  0  0
 22 21  1  0  0  0  0
 23 22  1  0  0  0  0
 24 27  1  0  0  0  0
 25 24  1  0  0  0  0
 26 24  1  0  0  0  0
 27 28  1  0  0  0  0
 27 30  1  0  0  0  0
 29 27  1  0  0  0  0
 31 32  1  0  0  0  0
 31  5  1  0  0  0  0
 32 36  1  0  0  0  0
 33 48  1  0  0  0  0
 33 32  2  0  0  0  0
 34 35  1  0  0  0  0
 34 33  1  0  0  0  0
 35 31  2  0  0  0  0
 37 34  1  0  0  0  0
 38 44  1  0  0  0  0
 38 37  1  0  0  0  0
 39 38  2  0  0  0  0
 40 42  2  0  0  0  0
 40 39  1  0  0  0  0
 41 40  1  0  0  0  0
 42 43  1  0  0  0  0
 43 47  1  0  0  0  0
 43 37  2  0  0  0  0
 45 39  1  0  0  0  0
 46 42  1  0  0  0  0
 48 51  1  0  0  0  0
 48 50  1  0  0  0  0
 49 48  1  0  0  0  0
M  END
>  <MODEL>
4

>  <REMARK>
 VINA RESULT:    -7.316      4.058      8.745
 INTER + INTRA:          -9.276
 INTER:                  -9.248
 INTRA:                  -0.029
 UNBOUND:                 0.178
  Name = 
  6 active torsions:
  status: ('A' for Active; 'I' for Inactive)
    1  A    between atoms: C_1  and  C_2
    2  A    between atoms: C_2  and  C_3
    3  A    between atoms: C_5  and  C_6
    4  A    between atoms: C_10  and  C_12
    5  A    between atoms: C_14  and  C_15
    6  A    between atoms: N_16  and  C_17
                            x       y       z     vdW  Elec       q    Type
                         _______ _______ _______ _____ _____    ______ ____

>  <TORSDO>
F 6

$$$$
=
 OpenBabel07192307433D

 51 54  0  0  1  0  0  0  0  0999 V2000
    5.5560    5.1920   16.5930 C   0  0  0  0  0  0  0  0  0  0  0  0
    4.3490    4.3480   17.0290 C   0  0  0  0  0  0  0  0  0  0  0  0
    3.8320    4.7790   18.3990 C   0  0  0  0  0  0  0  0  0  0  0  0
    3.5660    6.2120   18.4170 N   0  0  0  0  0  0  0  0  0  0  0  0
    2.3970    6.6700   19.0430 C   0  0  0  0  0  0  0  0  0  0  0  0
    1.7130    5.9200   19.7460 O   0  0  0  0  0  0  0  0  0  0  0  0
    4.7060    7.0540   18.0580 C   0  0  0  0  0  0  0  0  0  0  0  0
    5.2220    6.6920   16.6690 C   0  0  0  0  0  0  0  0  0  0  0  0
    6.3740    4.9990   17.3020 H   0  0  0  0  0  0  0  0  0  0  0  0
    3.5410    4.4530   16.2920 H   0  0  0  0  0  0  0  0  0  0  0  0
    4.6140    3.2840   17.0540 H   0  0  0  0  0  0  0  0  0  0  0  0
    2.9280    4.2090   18.6380 H   0  0  0  0  0  0  0  0  0  0  0  0
    4.5720    4.5660   19.1810 H   0  0  0  0  0  0  0  0  0  0  0  0
    4.4960    8.1210   18.1290 H   0  0  0  0  0  0  0  0  0  0  0  0
    5.4880    6.8610   18.8060 H   0  0  0  0  0  0  0  0  0  0  0  0
    6.1120    7.2890   16.4370 H   0  0  0  0  0  0  0  0  0  0  0  0
    4.4590    6.9520   15.9230 H   0  0  0  0  0  0  0  0  0  0  0  0
    6.0100    3.9000   13.3120 C   0  0  2  0  0  3  0  0  0  0  0  0
    5.2110    4.1250   14.3380 N   0  0  0  0  0  0  0  0  0  0  0  0
    6.0200    4.7840   15.2330 C   0  0  0  0  0  0  0  0  0  0  0  0
    7.2780    4.9910   14.8080 N   0  0  0  0  0  2  0  0  0  0  0  0
    7.2470    4.4170   13.5930 N   0  0  0  0  0  0  0  0  0  0  0  0
    8.0920    4.4110   13.0270 H   0  0  0  0  0  0  0  0  0  0  0  0
    5.6820    3.2180   12.0350 C   0  0  0  0  0  0  0  0  0  0  0  0
    6.0520    2.1810   12.0460 H   0  0  0  0  0  0  0  0  0  0  0  0
    6.1960    3.7380   11.2160 H   0  0  0  0  0  0  0  0  0  0  0  0
    4.1810    3.2070   11.7700 C   0  0  0  0  0  0  0  0  0  0  0  0
    3.7900    2.1870   11.8390 H   0  0  0  0  0  0  0  0  0  0  0  0
    3.6450    3.8230   12.4990 H   0  0  0  0  0  0  0  0  0  0  0  0
    3.9530    3.5890   10.7660 H   0  0  0  0  0  0  0  0  0  0  0  0
    1.9500    8.0630   18.8200 C   0  0  0  0  0  0  0  0  0  0  0  0
    2.6600    9.0450   18.0920 C   0  0  0  0  0  0  0  0  0  0  0  0
    1.9520   10.2220   18.2300 C   0  0  0  0  0  0  0  0  0  0  0  0
    0.8150    9.8990   18.9650 N   0  0  0  0  0  0  0  0  0  0  0  0
    0.8680    8.6080   19.3950 N   0  0  0  0  0  0  0  0  0  0  0  0
    3.6040    8.9100   17.5790 H   0  0  0  0  0  0  0  0  0  0  0  0
   -0.3280   10.6850   19.3240 C   0  0  0  0  0  0  0  0  0  0  0  0
   -0.3480   11.3070   20.5900 C   0  0  0  0  0  0  0  0  0  0  0  0
   -1.4360   12.0890   20.9870 C   0  0  0  0  0  0  0  0  0  0  0  0
   -2.5140   12.2430   20.1280 C   0  0  0  0  0  0  0  0  0  0  0  0
   -3.5560   12.9960   20.5030 F   0  0  0  0  0  0  0  0  0  0  0  0
   -2.5280   11.6240   18.8850 C   0  0  0  0  0  0  0  0  0  0  0  0
   -1.4390   10.8390   18.4820 C   0  0  0  0  0  0  0  0  0  0  0  0
    0.4920   11.2090   21.2790 H   0  0  0  0  0  0  0  0  0  0  0  0
   -1.4420   12.5750   21.9570 H   0  0  0  0  0  0  0  0  0  0  0  0
   -3.3910   11.7460   18.2370 H   0  0  0  0  0  0  0  0  0  0  0  0
   -1.5190   10.3430   17.5230 H   0  0  0  0  0  0  0  0  0  0  0  0
    2.3570   11.5700   17.7580 C   0  0  0  0  0  0  0  0  0  0  0  0
    1.8320   12.3480   18.3260 H   0  0  0  0  0  0  0  0  0  0  0  0
    3.4300   11.7300   17.9090 H   0  0  0  0  0  0  0  0  0  0  0  0
    2.0990   11.7240   16.7060 H   0  0  0  0  0  0  0  0  0  0  0  0
  1  8  1  0  0  0  0
  1  2  1  0  0  0  0
  1  9  1  0  0  0  0
  2 11  1  0  0  0  0
  2  3  1  0  0  0  0
  3  4  1  0  0  0  0
  3 12  1  0  0  0  0
  3 13  1  0  0  0  0
  4  5  1  0  0  0  0
  5  6  2  0  0  0  0
  7 14  1  0  0  0  0
  7  4  1  0  0  0  0
  7 15  1  0  0  0  0
  8  7  1  0  0  0  0
 10  2  1  0  0  0  0
 16  8  1  0  0  0  0
 17  8  1  0  0  0  0
 18 24  1  6  0  0  0
 18 22  1  0  0  0  0
 18 19  1  0  0  0  0
 19 20  2  0  0  0  0
 20  1  1  0  0  0  0
 21 20  1  0  0  0  0
 22 21  1  0  0  0  0
 23 22  1  0  0  0  0
 24 25  1  0  0  0  0
 26 24  1  0  0  0  0
 27 28  1  0  0  0  0
 27 24  1  0  0  0  0
 27 29  1  0  0  0  0
 30 27  1  0  0  0  0
 31  5  1  0  0  0  0
 31 35  2  0  0  0  0
 32 33  2  0  0  0  0
 32 31  1  0  0  0  0
 33 34  1  0  0  0  0
 34 37  1  0  0  0  0
 34 35  1  0  0  0  0
 36 32  1  0  0  0  0
 37 38  1  0  0  0  0
 38 39  2  0  0  0  0
 38 44  1  0  0  0  0
 39 45  1  0  0  0  0
 40 41  1  0  0  0  0
 40 39  1  0  0  0  0
 42 40  2  0  0  0  0
 43 42  1  0  0  0  0
 43 37  2  0  0  0  0
 46 42  1  0  0  0  0
 47 43  1  0  0  0  0
 48 50  1  0  0  0  0
 48 33  1  0  0  0  0
 48 49  1  0  0  0  0
 51 48  1  0  0  0  0
M  END
>  <MODEL>
5

>  <REMARK>
 VINA RESULT:    -7.001      1.382      1.722
 INTER + INTRA:          -8.869
 INTER:                  -8.741
 INTRA:                  -0.129
 UNBOUND:                 0.178
  Name = 
  6 active torsions:
  status: ('A' for Active; 'I' for Inactive)
    1  A    between atoms: C_1  and  C_2
    2  A    between atoms: C_2  and  C_3
    3  A    between atoms: C_5  and  C_6
    4  A    between atoms: C_10  and  C_12
    5  A    between atoms: C_14  and  C_15
    6  A    between atoms: N_16  and  C_17
                            x       y       z     vdW  Elec       q    Type
                         _______ _______ _______ _____ _____    ______ ____

>  <TORSDO>
F 6

$$$$
=
 OpenBabel07192307433D

 51 54  0  0  1  0  0  0  0  0999 V2000
   -1.0330   12.4800   20.9220 C   0  0  0  0  0  0  0  0  0  0  0  0
   -0.8500   12.8110   19.4330 C   0  0  0  0  0  0  0  0  0  0  0  0
    0.5980   12.6200   18.9920 C   0  0  0  0  0  0  0  0  0  0  0  0
    1.0670   11.2860   19.3440 N   0  0  0  0  0  0  0  0  0  0  0  0
    1.8340   10.5750   18.4080 C   0  0  0  0  0  0  0  0  0  0  0  0
    2.2860   11.1290   17.4010 O   0  0  0  0  0  0  0  0  0  0  0  0
    0.9590   10.9490   20.7620 C   0  0  0  0  0  0  0  0  0  0  0  0
   -0.4860   11.0750   21.2330 C   0  0  0  0  0  0  0  0  0  0  0  0
   -0.4400   13.2010   21.5020 H   0  0  0  0  0  0  0  0  0  0  0  0
   -1.4980   12.1610   18.8290 H   0  0  0  0  0  0  0  0  0  0  0  0
   -1.1640   13.8430   19.2290 H   0  0  0  0  0  0  0  0  0  0  0  0
    0.6710   12.7900   17.9130 H   0  0  0  0  0  0  0  0  0  0  0  0
    1.2560   13.3470   19.4850 H   0  0  0  0  0  0  0  0  0  0  0  0
    1.3640    9.9670   21.0060 H   0  0  0  0  0  0  0  0  0  0  0  0
    1.5900   11.6670   21.3050 H   0  0  0  0  0  0  0  0  0  0  0  0
   -0.5440   10.8780   22.3100 H   0  0  0  0  0  0  0  0  0  0  0  0
   -1.0950   10.3090   20.7350 H   0  0  0  0  0  0  0  0  0  0  0  0
   -4.1720   12.8320   22.5530 C   0  0  2  0  0  3  0  0  0  0  0  0
   -2.8550   12.8100   22.6290 N   0  0  0  0  0  0  0  0  0  0  0  0
   -2.4640   12.6310   21.3230 C   0  0  0  0  0  0  0  0  0  0  0  0
   -3.4730   12.5550   20.4390 N   0  0  0  0  0  2  0  0  0  0  0  0
   -4.5430   12.6770   21.2430 N   0  0  0  0  0  0  0  0  0  0  0  0
   -5.4740   12.6420   20.8370 H   0  0  0  0  0  0  0  0  0  0  0  0
   -5.1460   13.0020   23.6610 C   0  0  0  0  0  0  0  0  0  0  0  0
   -6.1190   12.5670   23.3890 H   0  0  0  0  0  0  0  0  0  0  0  0
   -5.3030   14.0750   23.8290 H   0  0  0  0  0  0  0  0  0  0  0  0
   -4.6530   12.3510   24.9490 C   0  0  0  0  0  0  0  0  0  0  0  0
   -5.4930   11.9180   25.5020 H   0  0  0  0  0  0  0  0  0  0  0  0
   -3.9380   11.5490   24.7410 H   0  0  0  0  0  0  0  0  0  0  0  0
   -4.1630   13.0860   25.6010 H   0  0  0  0  0  0  0  0  0  0  0  0
    2.0670    9.1280   18.6050 C   0  0  0  0  0  0  0  0  0  0  0  0
    1.5520    8.3540   19.6710 C   0  0  0  0  0  0  0  0  0  0  0  0
    2.1030    7.0940   19.5400 C   0  0  0  0  0  0  0  0  0  0  0  0
    2.8610    7.1290   18.3730 N   0  0  0  0  0  0  0  0  0  0  0  0
    2.9060    8.3910   17.8640 N   0  0  0  0  0  0  0  0  0  0  0  0
    0.9030    8.7000   20.4650 H   0  0  0  0  0  0  0  0  0  0  0  0
    3.5700    6.0940   17.6800 C   0  0  0  0  0  0  0  0  0  0  0  0
    4.7160    6.4450   16.9350 C   0  0  0  0  0  0  0  0  0  0  0  0
    5.4470    5.4740   16.2460 C   0  0  0  0  0  0  0  0  0  0  0  0
    5.0310    4.1510   16.2860 C   0  0  0  0  0  0  0  0  0  0  0  0
    5.7320    3.2170   15.6310 F   0  0  0  0  0  0  0  0  0  0  0  0
    3.8950    3.7840   16.9950 C   0  0  0  0  0  0  0  0  0  0  0  0
    3.1590    4.7540   17.6890 C   0  0  0  0  0  0  0  0  0  0  0  0
    5.0690    7.4770   16.8960 H   0  0  0  0  0  0  0  0  0  0  0  0
    6.3340    5.7460   15.6830 H   0  0  0  0  0  0  0  0  0  0  0  0
    3.5800    2.7450   16.9990 H   0  0  0  0  0  0  0  0  0  0  0  0
    2.2570    4.4230   18.1900 H   0  0  0  0  0  0  0  0  0  0  0  0
    1.9740    5.9590   20.4880 C   0  0  0  0  0  0  0  0  0  0  0  0
    2.6130    6.1190   21.3660 H   0  0  0  0  0  0  0  0  0  0  0  0
    0.9450    5.8680   20.8510 H   0  0  0  0  0  0  0  0  0  0  0  0
    2.2970    5.0160   20.0350 H   0  0  0  0  0  0  0  0  0  0  0  0
  1  8  1  0  0  0  0
  1 20  1  0  0  0  0
  1  9  1  0  0  0  0
  2  1  1  0  0  0  0
  3  4  1  0  0  0  0
  3  2  1  0  0  0  0
  3 13  1  0  0  0  0
  4  7  1  0  0  0  0
  5 31  1  0  0  0  0
  5  4  1  0  0  0  0
  6  5  2  0  0  0  0
  7 14  1  0  0  0  0
  7  8  1  0  0  0  0
  7 15  1  0  0  0  0
  8 16  1  0  0  0  0
 10  2  1  0  0  0  0
 11  2  1  0  0  0  0
 12  3  1  0  0  0  0
 17  8  1  0  0  0  0
 18 19  1  0  0  0  0
 18 24  1  6  0  0  0
 20 19  2  0  0  0  0
 21 22  1  0  0  0  0
 21 20  1  0  0  0  0
 22 18  1  0  0  0  0
 23 22  1  0  0  0  0
 24 26  1  0  0  0  0
 24 27  1  0  0  0  0
 25 24  1  0  0  0  0
 27 28  1  0  0  0  0
 27 30  1  0  0  0  0
 29 27  1  0  0  0  0
 31 32  1  0  0  0  0
 32 36  1  0  0  0  0
 33 32  2  0  0  0  0
 33 48  1  0  0  0  0
 34 33  1  0  0  0  0
 35 34  1  0  0  0  0
 35 31  2  0  0  0  0
 37 43  1  0  0  0  0
 37 34  1  0  0  0  0
 38 37  2  0  0  0  0
 39 40  2  0  0  0  0
 39 38  1  0  0  0  0
 40 42  1  0  0  0  0
 41 40  1  0  0  0  0
 42 46  1  0  0  0  0
 42 43  2  0  0  0  0
 43 47  1  0  0  0  0
 44 38  1  0  0  0  0
 45 39  1  0  0  0  0
 48 50  1  0  0  0  0
 48 49  1  0  0  0  0
 51 48  1  0  0  0  0
M  END
>  <MODEL>
6

>  <REMARK>
 VINA RESULT:    -6.983      4.089     10.595
 INTER + INTRA:          -8.847
 INTER:                  -8.941
 INTRA:                   0.094
 UNBOUND:                 0.178
  Name = 
  6 active torsions:
  status: ('A' for Active; 'I' for Inactive)
    1  A    between atoms: C_1  and  C_2
    2  A    between atoms: C_2  and  C_3
    3  A    between atoms: C_5  and  C_6
    4  A    between atoms: C_10  and  C_12
    5  A    between atoms: C_14  and  C_15
    6  A    between atoms: N_16  and  C_17
                            x       y       z     vdW  Elec       q    Type
                         _______ _______ _______ _____ _____    ______ ____

>  <TORSDO>
F 6

$$$$
=
 OpenBabel07192307433D

 51 54  0  0  1  0  0  0  0  0999 V2000
    3.0260    6.6330   19.0960 C   0  0  0  0  0  0  0  0  0  0  0  0
    2.2030    6.1620   20.3050 C   0  0  0  0  0  0  0  0  0  0  0  0
    1.8940    7.3170   21.2540 C   0  0  0  0  0  0  0  0  0  0  0  0
    1.2720    8.4190   20.5320 N   0  0  0  0  0  0  0  0  0  0  0  0
    0.1840    9.0800   21.1220 C   0  0  0  0  0  0  0  0  0  0  0  0
   -0.1140    8.8870   22.3050 O   0  0  0  0  0  0  0  0  0  0  0  0
    2.0480    8.9320   19.4040 C   0  0  0  0  0  0  0  0  0  0  0  0
    2.3340    7.8190   18.4010 C   0  0  0  0  0  0  0  0  0  0  0  0
    3.9970    6.9890   19.4690 H   0  0  0  0  0  0  0  0  0  0  0  0
    1.2590    5.7210   19.9580 H   0  0  0  0  0  0  0  0  0  0  0  0
    2.7380    5.3730   20.8480 H   0  0  0  0  0  0  0  0  0  0  0  0
    1.2440    6.9570   22.0580 H   0  0  0  0  0  0  0  0  0  0  0  0
    2.8130    7.6970   21.7190 H   0  0  0  0  0  0  0  0  0  0  0  0
    1.5850    9.7880   18.9140 H   0  0  0  0  0  0  0  0  0  0  0  0
    2.9930    9.3100   19.8180 H   0  0  0  0  0  0  0  0  0  0  0  0
    2.9660    8.2030   17.5910 H   0  0  0  0  0  0  0  0  0  0  0  0
    1.3890    7.4950   17.9440 H   0  0  0  0  0  0  0  0  0  0  0  0
    4.2400    4.2980   16.7070 C   0  0  2  0  0  3  0  0  0  0  0  0
    4.4470    5.3730   17.4420 N   0  0  0  0  0  0  0  0  0  0  0  0
    3.2810    5.4980   18.1590 C   0  0  0  0  0  0  0  0  0  0  0  0
    2.3650    4.5450   17.9140 N   0  0  0  0  0  2  0  0  0  0  0  0
    2.9940    3.8020   16.9880 N   0  0  0  0  0  0  0  0  0  0  0  0
    2.5190    2.9920   16.5970 H   0  0  0  0  0  0  0  0  0  0  0  0
    5.1650    3.6710   15.7280 C   0  0  0  0  0  0  0  0  0  0  0  0
    4.6510    2.8760   15.1680 H   0  0  0  0  0  0  0  0  0  0  0  0
    5.9920    3.2020   16.2760 H   0  0  0  0  0  0  0  0  0  0  0  0
    5.7210    4.6940   14.7440 C   0  0  0  0  0  0  0  0  0  0  0  0
    6.0090    4.2040   13.8080 H   0  0  0  0  0  0  0  0  0  0  0  0
    4.9780    5.4620   14.5060 H   0  0  0  0  0  0  0  0  0  0  0  0
    6.6100    5.1920   15.1510 H   0  0  0  0  0  0  0  0  0  0  0  0
   -0.6500    9.9860   20.3030 C   0  0  0  0  0  0  0  0  0  0  0  0
   -1.0130   11.3070   20.6540 C   0  0  0  0  0  0  0  0  0  0  0  0
   -1.8830   11.7460   19.6750 C   0  0  0  0  0  0  0  0  0  0  0  0
   -1.9550   10.7170   18.7400 N   0  0  0  0  0  0  0  0  0  0  0  0
   -1.2750    9.6210   19.1750 N   0  0  0  0  0  0  0  0  0  0  0  0
   -0.7150   11.8420   21.5470 H   0  0  0  0  0  0  0  0  0  0  0  0
   -2.6120   10.6460   17.4690 C   0  0  0  0  0  0  0  0  0  0  0  0
   -2.0390    9.8470   16.4580 C   0  0  0  0  0  0  0  0  0  0  0  0
   -2.6420    9.7380   15.2020 C   0  0  0  0  0  0  0  0  0  0  0  0
   -3.8140   10.4350   14.9460 C   0  0  0  0  0  0  0  0  0  0  0  0
   -4.3980   10.3290   13.7450 F   0  0  0  0  0  0  0  0  0  0  0  0
   -4.3870   11.2450   15.9180 C   0  0  0  0  0  0  0  0  0  0  0  0
   -3.7860   11.3570   17.1790 C   0  0  0  0  0  0  0  0  0  0  0  0
   -1.1240    9.2810   16.6380 H   0  0  0  0  0  0  0  0  0  0  0  0
   -2.2040    9.1140   14.4310 H   0  0  0  0  0  0  0  0  0  0  0  0
   -5.2950   11.7940   15.6880 H   0  0  0  0  0  0  0  0  0  0  0  0
   -4.2490   12.0350   17.8860 H   0  0  0  0  0  0  0  0  0  0  0  0
   -2.6430   13.0210   19.6620 C   0  0  0  0  0  0  0  0  0  0  0  0
   -2.2170   13.7290   20.3840 H   0  0  0  0  0  0  0  0  0  0  0  0
   -2.5930   13.4960   18.6770 H   0  0  0  0  0  0  0  0  0  0  0  0
   -3.6880   12.8700   19.9520 H   0  0  0  0  0  0  0  0  0  0  0  0
  1  9  1  0  0  0  0
  1  2  1  0  0  0  0
  2 11  1  0  0  0  0
  2  3  1  0  0  0  0
  3 13  1  0  0  0  0
  3 12  1  0  0  0  0
  4  5  1  0  0  0  0
  4  3  1  0  0  0  0
  5  6  2  0  0  0  0
  7 15  1  0  0  0  0
  7  4  1  0  0  0  0
  8  1  1  0  0  0  0
  8  7  1  0  0  0  0
 10  2  1  0  0  0  0
 14  7  1  0  0  0  0
 16  8  1  0  0  0  0
 17  8  1  0  0  0  0
 18 24  1  1  0  0  0
 18 22  1  0  0  0  0
 18 19  1  0  0  0  0
 19 20  2  0  0  0  0
 20  1  1  0  0  0  0
 21 20  1  0  0  0  0
 22 21  1  0  0  0  0
 23 22  1  0  0  0  0
 24 26  1  0  0  0  0
 25 24  1  0  0  0  0
 27 30  1  0  0  0  0
 27 24  1  0  0  0  0
 28 27  1  0  0  0  0
 29 27  1  0  0  0  0
 31 32  1  0  0  0  0
 31  5  1  0  0  0  0
 32 36  1  0  0  0  0
 33 32  2  0  0  0  0
 34 35  1  0  0  0  0
 34 33  1  0  0  0  0
 35 31  2  0  0  0  0
 37 34  1  0  0  0  0
 38 44  1  0  0  0  0
 38 37  2  0  0  0  0
 39 38  1  0  0  0  0
 40 39  2  0  0  0  0
 40 42  1  0  0  0  0
 41 40  1  0  0  0  0
 42 43  2  0  0  0  0
 43 37  1  0  0  0  0
 43 47  1  0  0  0  0
 45 39  1  0  0  0  0
 46 42  1  0  0  0  0
 48 33  1  0  0  0  0
 48 51  1  0  0  0  0
 48 49  1  0  0  0  0
 50 48  1  0  0  0  0
M  END
>  <MODEL>
7

>  <REMARK>
 VINA RESULT:    -6.846      3.596      5.327
 INTER + INTRA:          -8.669
 INTER:                  -8.150
 INTRA:                  -0.519
 UNBOUND:                 0.178
  Name = 
  6 active torsions:
  status: ('A' for Active; 'I' for Inactive)
    1  A    between atoms: C_1  and  C_2
    2  A    between atoms: C_2  and  C_3
    3  A    between atoms: C_5  and  C_6
    4  A    between atoms: C_10  and  C_12
    5  A    between atoms: C_14  and  C_15
    6  A    between atoms: N_16  and  C_17
                            x       y       z     vdW  Elec       q    Type
                         _______ _______ _______ _____ _____    ______ ____

>  <TORSDO>
F 6

$$$$
=
 OpenBabel07192307433D

 51 54  0  0  1  0  0  0  0  0999 V2000
    2.8020    7.0040   19.1930 C   0  0  0  0  0  0  0  0  0  0  0  0
    2.1330    6.7090   20.5440 C   0  0  0  0  0  0  0  0  0  0  0  0
    1.8880    7.9900   21.3370 C   0  0  0  0  0  0  0  0  0  0  0  0
    1.1530    8.9560   20.5320 N   0  0  0  0  0  0  0  0  0  0  0  0
    0.1130    9.6800   21.1350 C   0  0  0  0  0  0  0  0  0  0  0  0
   -0.0480    9.6660   22.3590 O   0  0  0  0  0  0  0  0  0  0  0  0
    1.7830    9.3040   19.2590 C   0  0  0  0  0  0  0  0  0  0  0  0
    1.9970    8.0560   18.4090 C   0  0  0  0  0  0  0  0  0  0  0  0
    3.7950    7.4310   19.3960 H   0  0  0  0  0  0  0  0  0  0  0  0
    1.1730    6.2030   20.3760 H   0  0  0  0  0  0  0  0  0  0  0  0
    2.7510    6.0230   21.1360 H   0  0  0  0  0  0  0  0  0  0  0  0
    1.3420    7.7460   22.2540 H   0  0  0  0  0  0  0  0  0  0  0  0
    2.8380    8.4540   21.6330 H   0  0  0  0  0  0  0  0  0  0  0  0
    1.2400   10.0660   18.7000 H   0  0  0  0  0  0  0  0  0  0  0  0
    2.7540    9.7590   19.5020 H   0  0  0  0  0  0  0  0  0  0  0  0
    2.5230    8.3220   17.4850 H   0  0  0  0  0  0  0  0  0  0  0  0
    1.0210    7.6480   18.1160 H   0  0  0  0  0  0  0  0  0  0  0  0
    2.8460    3.7090   17.8590 C   0  0  2  0  0  3  0  0  0  0  0  0
    2.3610    4.5660   18.7370 N   0  0  0  0  0  0  0  0  0  0  0  0
    2.9940    5.7430   18.4140 C   0  0  0  0  0  0  0  0  0  0  0  0
    3.8380    5.6610   17.3710 N   0  0  0  0  0  2  0  0  0  0  0  0
    3.7310    4.3620   17.0430 N   0  0  0  0  0  0  0  0  0  0  0  0
    4.2840    4.0000   16.2700 H   0  0  0  0  0  0  0  0  0  0  0  0
    2.5210    2.2660   17.7200 C   0  0  0  0  0  0  0  0  0  0  0  0
    2.5050    1.9760   16.6580 H   0  0  0  0  0  0  0  0  0  0  0  0
    1.5150    2.0920   18.1220 H   0  0  0  0  0  0  0  0  0  0  0  0
    3.5250    1.3890   18.4600 C   0  0  0  0  0  0  0  0  0  0  0  0
    3.0880    0.4070   18.6710 H   0  0  0  0  0  0  0  0  0  0  0  0
    4.4310    1.2330   17.8660 H   0  0  0  0  0  0  0  0  0  0  0  0
    3.8160    1.8420   19.4170 H   0  0  0  0  0  0  0  0  0  0  0  0
   -0.8370   10.4340   20.2870 C   0  0  0  0  0  0  0  0  0  0  0  0
   -1.4470   11.6620   20.6330 C   0  0  0  0  0  0  0  0  0  0  0  0
   -2.3410   11.9530   19.6210 C   0  0  0  0  0  0  0  0  0  0  0  0
   -2.1880   10.9430   18.6760 N   0  0  0  0  0  0  0  0  0  0  0  0
   -1.3390    9.9800   19.1300 N   0  0  0  0  0  0  0  0  0  0  0  0
   -1.2870   12.2280   21.5420 H   0  0  0  0  0  0  0  0  0  0  0  0
   -2.7680   10.7740   17.3770 C   0  0  0  0  0  0  0  0  0  0  0  0
   -2.1320    9.9090   16.4610 C   0  0  0  0  0  0  0  0  0  0  0  0
   -2.6600    9.7050   15.1840 C   0  0  0  0  0  0  0  0  0  0  0  0
   -3.8180   10.3710   14.8090 C   0  0  0  0  0  0  0  0  0  0  0  0
   -4.3290   10.1740   13.5880 F   0  0  0  0  0  0  0  0  0  0  0  0
   -4.4510   11.2440   15.6850 C   0  0  0  0  0  0  0  0  0  0  0  0
   -3.9260   11.4520   16.9680 C   0  0  0  0  0  0  0  0  0  0  0  0
   -1.2270    9.3660   16.7350 H   0  0  0  0  0  0  0  0  0  0  0  0
   -2.1740    9.0300   14.4870 H   0  0  0  0  0  0  0  0  0  0  0  0
   -5.3470   11.7670   15.3630 H   0  0  0  0  0  0  0  0  0  0  0  0
   -4.4330   12.1740   17.5950 H   0  0  0  0  0  0  0  0  0  0  0  0
   -3.3180   13.0690   19.5850 C   0  0  0  0  0  0  0  0  0  0  0  0
   -2.9560   13.8750   18.9340 H   0  0  0  0  0  0  0  0  0  0  0  0
   -4.2790   12.7350   19.1790 H   0  0  0  0  0  0  0  0  0  0  0  0
   -3.4630   13.5110   20.5760 H   0  0  0  0  0  0  0  0  0  0  0  0
  1  9  1  0  0  0  0
  1  2  1  0  0  0  0
  2 11  1  0  0  0  0
  2  3  1  0  0  0  0
  3 13  1  0  0  0  0
  3 12  1  0  0  0  0
  4  5  1  0  0  0  0
  4  3  1  0  0  0  0
  5  6  2  0  0  0  0
  7 15  1  0  0  0  0
  7  4  1  0  0  0  0
  8  1  1  0  0  0  0
  8  7  1  0  0  0  0
 10  2  1  0  0  0  0
 14  7  1  0  0  0  0
 16  8  1  0  0  0  0
 17  8  1  0  0  0  0
 18 24  1  6  0  0  0
 18 19  1  0  0  0  0
 20 19  2  0  0  0  0
 20  1  1  0  0  0  0
 21 20  1  0  0  0  0
 22 21  1  0  0  0  0
 22 18  1  0  0  0  0
 23 22  1  0  0  0  0
 24 26  1  0  0  0  0
 24 27  1  0  0  0  0
 25 24  1  0  0  0  0
 27 28  1  0  0  0  0
 27 30  1  0  0  0  0
 29 27  1  0  0  0  0
 31 32  1  0  0  0  0
 31  5  1  0  0  0  0
 32 36  1  0  0  0  0
 33 32  2  0  0  0  0
 34 35  1  0  0  0  0
 34 33  1  0  0  0  0
 35 31  2  0  0  0  0
 37 34  1  0  0  0  0
 38 44  1  0  0  0  0
 38 37  2  0  0  0  0
 39 38  1  0  0  0  0
 40 39  2  0  0  0  0
 40 42  1  0  0  0  0
 41 40  1  0  0  0  0
 42 43  2  0  0  0  0
 43 37  1  0  0  0  0
 43 47  1  0  0  0  0
 45 39  1  0  0  0  0
 46 42  1  0  0  0  0
 48 33  1  0  0  0  0
 48 51  1  0  0  0  0
 49 48  1  0  0  0  0
 50 48  1  0  0  0  0
M  END
>  <MODEL>
8

>  <REMARK>
 VINA RESULT:    -6.829      3.771      5.825
 INTER + INTRA:          -8.647
 INTER:                  -8.336
 INTRA:                  -0.311
 UNBOUND:                 0.178
  Name = 
  6 active torsions:
  status: ('A' for Active; 'I' for Inactive)
    1  A    between atoms: C_1  and  C_2
    2  A    between atoms: C_2  and  C_3
    3  A    between atoms: C_5  and  C_6
    4  A    between atoms: C_10  and  C_12
    5  A    between atoms: C_14  and  C_15
    6  A    between atoms: N_16  and  C_17
                            x       y       z     vdW  Elec       q    Type
                         _______ _______ _______ _____ _____    ______ ____

>  <TORSDO>
F 6

$$$$
=
 OpenBabel07192307433D

 51 54  0  0  1  0  0  0  0  0999 V2000
    1.1590    9.8250   19.1060 C   0  0  0  0  0  0  0  0  0  0  0  0
    1.6190    9.4600   20.5250 C   0  0  0  0  0  0  0  0  0  0  0  0
    1.1670    8.0540   20.9140 C   0  0  0  0  0  0  0  0  0  0  0  0
    1.5880    7.0870   19.9080 N   0  0  0  0  0  0  0  0  0  0  0  0
    2.1100    5.8570   20.3360 C   0  0  0  0  0  0  0  0  0  0  0  0
    2.0250    5.5040   21.5170 O   0  0  0  0  0  0  0  0  0  0  0  0
    1.1260    7.3710   18.5500 C   0  0  0  0  0  0  0  0  0  0  0  0
    1.6020    8.7480   18.1000 C   0  0  0  0  0  0  0  0  0  0  0  0
    0.0590    9.8470   19.1040 H   0  0  0  0  0  0  0  0  0  0  0  0
    2.7150    9.5130   20.5820 H   0  0  0  0  0  0  0  0  0  0  0  0
    1.2310   10.1850   21.2520 H   0  0  0  0  0  0  0  0  0  0  0  0
    1.5800    7.8040   21.8960 H   0  0  0  0  0  0  0  0  0  0  0  0
    0.0740    8.0030   20.9920 H   0  0  0  0  0  0  0  0  0  0  0  0
    1.4100    6.6060   17.8280 H   0  0  0  0  0  0  0  0  0  0  0  0
    0.0280    7.3490   18.5800 H   0  0  0  0  0  0  0  0  0  0  0  0
    1.2010    8.9720   17.1050 H   0  0  0  0  0  0  0  0  0  0  0  0
    2.6960    8.7380   18.0080 H   0  0  0  0  0  0  0  0  0  0  0  0
    1.8150   13.2930   18.6760 C   0  0  2  0  0  3  0  0  0  0  0  0
    1.1940   12.3330   19.3360 N   0  0  0  0  0  0  0  0  0  0  0  0
    1.6460   11.1860   18.7280 C   0  0  0  0  0  0  0  0  0  0  0  0
    2.5280   11.3860   17.7330 N   0  0  0  0  0  2  0  0  0  0  0  0
    2.6120   12.7270   17.7160 N   0  0  0  0  0  0  0  0  0  0  0  0
    3.2160   13.1760   17.0330 H   0  0  0  0  0  0  0  0  0  0  0  0
    1.7180   14.7590   18.8950 C   0  0  0  0  0  0  0  0  0  0  0  0
    2.3200   15.3000   18.1500 H   0  0  0  0  0  0  0  0  0  0  0  0
    2.1320   14.9950   19.8830 H   0  0  0  0  0  0  0  0  0  0  0  0
    0.2750   15.2450   18.8180 C   0  0  0  0  0  0  0  0  0  0  0  0
    0.1150   16.0730   19.5160 H   0  0  0  0  0  0  0  0  0  0  0  0
    0.0290   15.6010   17.8120 H   0  0  0  0  0  0  0  0  0  0  0  0
   -0.4280   14.4430   19.0790 H   0  0  0  0  0  0  0  0  0  0  0  0
    2.8150    4.9880   19.3690 C   0  0  0  0  0  0  0  0  0  0  0  0
    2.6260    3.5940   19.2300 C   0  0  0  0  0  0  0  0  0  0  0  0
    3.5570    3.1640   18.3050 C   0  0  0  0  0  0  0  0  0  0  0  0
    4.2170    4.3080   17.8680 N   0  0  0  0  0  0  0  0  0  0  0  0
    3.8230    5.3970   18.5840 N   0  0  0  0  0  0  0  0  0  0  0  0
    1.9280    2.9790   19.7850 H   0  0  0  0  0  0  0  0  0  0  0  0
    5.2020    4.4930   16.8440 C   0  0  0  0  0  0  0  0  0  0  0  0
    4.8010    4.3860   15.4960 C   0  0  0  0  0  0  0  0  0  0  0  0
    5.7200    4.5640   14.4590 C   0  0  0  0  0  0  0  0  0  0  0  0
    7.0460    4.8360   14.7620 C   0  0  0  0  0  0  0  0  0  0  0  0
    7.9290    5.0110   13.7700 F   0  0  0  0  0  0  0  0  0  0  0  0
    7.4700    4.9250   16.0810 C   0  0  0  0  0  0  0  0  0  0  0  0
    6.5520    4.7490   17.1250 C   0  0  0  0  0  0  0  0  0  0  0  0
    3.7620    4.1830   15.2310 H   0  0  0  0  0  0  0  0  0  0  0  0
    5.4050    4.4920   13.4230 H   0  0  0  0  0  0  0  0  0  0  0  0
    8.5170    5.1230   16.2940 H   0  0  0  0  0  0  0  0  0  0  0  0
    6.9420    4.7860   18.1350 H   0  0  0  0  0  0  0  0  0  0  0  0
    3.8460    1.7610   17.9140 C   0  0  0  0  0  0  0  0  0  0  0  0
    4.4730    1.7360   17.0140 H   0  0  0  0  0  0  0  0  0  0  0  0
    4.3970    1.2410   18.7050 H   0  0  0  0  0  0  0  0  0  0  0  0
    2.9310    1.2130   17.6720 H   0  0  0  0  0  0  0  0  0  0  0  0
  1  2  1  0  0  0  0
  2 10  1  0  0  0  0
  2  3  1  0  0  0  0
  2 11  1  0  0  0  0
  3 13  1  0  0  0  0
  3 12  1  0  0  0  0
  4  5  1  0  0  0  0
  4  3  1  0  0  0  0
  5  6  2  0  0  0  0
  7 15  1  0  0  0  0
  7  4  1  0  0  0  0
  8  7  1  0  0  0  0
  8  1  1  0  0  0  0
  9  1  1  0  0  0  0
 14  7  1  0  0  0  0
 16  8  1  0  0  0  0
 17  8  1  0  0  0  0
 18 24  1  1  0  0  0
 18 19  1  0  0  0  0
 20  1  1  0  0  0  0
 20 19  2  0  0  0  0
 21 20  1  0  0  0  0
 22 21  1  0  0  0  0
 22 18  1  0  0  0  0
 23 22  1  0  0  0  0
 24 26  1  0  0  0  0
 25 24  1  0  0  0  0
 27 24  1  0  0  0  0
 27 30  1  0  0  0  0
 27 28  1  0  0  0  0
 29 27  1  0  0  0  0
 31  5  1  0  0  0  0
 32 31  1  0  0  0  0
 32 36  1  0  0  0  0
 33 32  2  0  0  0  0
 34 33  1  0  0  0  0
 34 35  1  0  0  0  0
 35 31  2  0  0  0  0
 37 43  1  0  0  0  0
 37 34  1  0  0  0  0
 38 37  2  0  0  0  0
 39 40  2  0  0  0  0
 39 38  1  0  0  0  0
 40 42  1  0  0  0  0
 41 40  1  0  0  0  0
 42 46  1  0  0  0  0
 42 43  2  0  0  0  0
 43 47  1  0  0  0  0
 44 38  1  0  0  0  0
 45 39  1  0  0  0  0
 48 33  1  0  0  0  0
 48 50  1  0  0  0  0
 49 48  1  0  0  0  0
 51 48  1  0  0  0  0
M  END
>  <MODEL>
9

>  <REMARK>
 VINA RESULT:    -6.531      3.784      8.987
 INTER + INTRA:          -8.262
 INTER:                  -7.468
 INTRA:                  -0.794
 UNBOUND:                 0.178
  Name = 
  6 active torsions:
  status: ('A' for Active; 'I' for Inactive)
    1  A    between atoms: C_1  and  C_2
    2  A    between atoms: C_2  and  C_3
    3  A    between atoms: C_5  and  C_6
    4  A    between atoms: C_10  and  C_12
    5  A    between atoms: C_14  and  C_15
    6  A    between atoms: N_16  and  C_17
                            x       y       z     vdW  Elec       q    Type
                         _______ _______ _______ _____ _____    ______ ____

>  <TORSDO>
F 6

$$$$
=
 OpenBabel07192307433D

 51 54  0  0  1  0  0  0  0  0999 V2000
    3.0910    6.6130   18.3070 C   0  0  0  0  0  0  0  0  0  0  0  0
    3.3850    7.9690   17.6490 C   0  0  0  0  0  0  0  0  0  0  0  0
    2.1150    8.8000   17.4900 C   0  0  0  0  0  0  0  0  0  0  0  0
    1.4210    8.9200   18.7650 N   0  0  0  0  0  0  0  0  0  0  0  0
    0.8840   10.1670   19.1230 C   0  0  0  0  0  0  0  0  0  0  0  0
    0.8080   11.0870   18.3040 O   0  0  0  0  0  0  0  0  0  0  0  0
    1.0750    7.6490   19.4010 C   0  0  0  0  0  0  0  0  0  0  0  0
    2.3260    6.8070   19.6280 C   0  0  0  0  0  0  0  0  0  0  0  0
    2.4390    6.0440   17.6280 H   0  0  0  0  0  0  0  0  0  0  0  0
    4.1040    8.5280   18.2640 H   0  0  0  0  0  0  0  0  0  0  0  0
    3.8560    7.8250   16.6690 H   0  0  0  0  0  0  0  0  0  0  0  0
    2.3780    9.7850   17.0910 H   0  0  0  0  0  0  0  0  0  0  0  0
    1.4260    8.3290   16.7760 H   0  0  0  0  0  0  0  0  0  0  0  0
    0.5110    7.7670   20.3260 H   0  0  0  0  0  0  0  0  0  0  0  0
    0.3960    7.1270   18.7110 H   0  0  0  0  0  0  0  0  0  0  0  0
    2.0470    5.8350   20.0500 H   0  0  0  0  0  0  0  0  0  0  0  0
    2.9650    7.3060   20.3690 H   0  0  0  0  0  0  0  0  0  0  0  0
    6.2400    4.9800   18.0750 C   0  0  2  0  0  3  0  0  0  0  0  0
    5.3640    5.8230   17.5640 N   0  0  0  0  0  0  0  0  0  0  0  0
    4.3520    5.8330   18.4930 C   0  0  0  0  0  0  0  0  0  0  0  0
    4.5630    5.0480   19.5640 N   0  0  0  0  0  2  0  0  0  0  0  0
    5.7610    4.5140   19.2710 N   0  0  0  0  0  0  0  0  0  0  0  0
    6.1780    3.8500   19.9190 H   0  0  0  0  0  0  0  0  0  0  0  0
    7.5490    4.5690   17.5070 C   0  0  0  0  0  0  0  0  0  0  0  0
    7.8070    3.5490   17.8310 H   0  0  0  0  0  0  0  0  0  0  0  0
    8.3260    5.2410   17.8920 H   0  0  0  0  0  0  0  0  0  0  0  0
    7.5420    4.6190   15.9830 C   0  0  0  0  0  0  0  0  0  0  0  0
    6.7220    5.2520   15.6270 H   0  0  0  0  0  0  0  0  0  0  0  0
    8.4780    5.0320   15.5940 H   0  0  0  0  0  0  0  0  0  0  0  0
    7.4050    3.6180   15.5540 H   0  0  0  0  0  0  0  0  0  0  0  0
    0.4460   10.3980   20.5170 C   0  0  0  0  0  0  0  0  0  0  0  0
    0.8080    9.6060   21.6310 C   0  0  0  0  0  0  0  0  0  0  0  0
    0.0940   10.0960   22.7070 C   0  0  0  0  0  0  0  0  0  0  0  0
   -0.6080   11.1990   22.2280 N   0  0  0  0  0  0  0  0  0  0  0  0
   -0.4580   11.3190   20.8810 N   0  0  0  0  0  0  0  0  0  0  0  0
    1.4690    8.7480   21.6260 H   0  0  0  0  0  0  0  0  0  0  0  0
   -1.4260   12.1600   22.9060 C   0  0  0  0  0  0  0  0  0  0  0  0
   -0.9010   13.4490   23.1360 C   0  0  0  0  0  0  0  0  0  0  0  0
   -1.6590   14.4250   23.7870 C   0  0  0  0  0  0  0  0  0  0  0  0
   -2.9390   14.1170   24.2230 C   0  0  0  0  0  0  0  0  0  0  0  0
   -3.6710   15.0520   24.8430 F   0  0  0  0  0  0  0  0  0  0  0  0
   -3.4710   12.8490   24.0270 C   0  0  0  0  0  0  0  0  0  0  0  0
   -2.7150   11.8660   23.3740 C   0  0  0  0  0  0  0  0  0  0  0  0
    0.0990   13.7200   22.7940 H   0  0  0  0  0  0  0  0  0  0  0  0
   -1.2550   15.4190   23.9520 H   0  0  0  0  0  0  0  0  0  0  0  0
   -4.4690   12.6260   24.3920 H   0  0  0  0  0  0  0  0  0  0  0  0
   -3.1590   10.8820   23.2860 H   0  0  0  0  0  0  0  0  0  0  0  0
    0.0280    9.5200   24.0740 C   0  0  0  0  0  0  0  0  0  0  0  0
    0.2340   10.2920   24.8250 H   0  0  0  0  0  0  0  0  0  0  0  0
   -0.9710    9.1250   24.2840 H   0  0  0  0  0  0  0  0  0  0  0  0
    0.7790    8.7370   24.2180 H   0  0  0  0  0  0  0  0  0  0  0  0
  1 20  1  0  0  0  0
  1  8  1  0  0  0  0
  2 10  1  0  0  0  0
  2  1  1  0  0  0  0
  3  2  1  0  0  0  0
  3  4  1  0  0  0  0
  4  5  1  0  0  0  0
  4  7  1  0  0  0  0
  5 31  1  0  0  0  0
  6  5  2  0  0  0  0
  7  8  1  0  0  0  0
  7 14  1  0  0  0  0
  8 16  1  0  0  0  0
  8 17  1  0  0  0  0
  9  1  1  0  0  0  0
 11  2  1  0  0  0  0
 12  3  1  0  0  0  0
 13  3  1  0  0  0  0
 15  7  1  0  0  0  0
 18 24  1  1  0  0  0
 18 22  1  0  0  0  0
 19 18  1  0  0  0  0
 19 20  2  0  0  0  0
 20 21  1  0  0  0  0
 22 21  1  0  0  0  0
 22 23  1  0  0  0  0
 24 25  1  0  0  0  0
 24 26  1  0  0  0  0
 27 24  1  0  0  0  0
 28 27  1  0  0  0  0
 29 27  1  0  0  0  0
 30 27  1  0  0  0  0
 31 35  2  0  0  0  0
 31 32  1  0  0  0  0
 32 33  2  0  0  0  0
 33 48  1  0  0  0  0
 34 33  1  0  0  0  0
 34 37  1  0  0  0  0
 35 34  1  0  0  0  0
 36 32  1  0  0  0  0
 37 38  2  0  0  0  0
 37 43  1  0  0  0  0
 38 39  1  0  0  0  0
 39 45  1  0  0  0  0
 39 40  2  0  0  0  0
 40 41  1  0  0  0  0
 42 40  1  0  0  0  0
 42 46  1  0  0  0  0
 43 42  2  0  0  0  0
 44 38  1  0  0  0  0
 47 43  1  0  0  0  0
 48 51  1  0  0  0  0
 48 50  1  0  0  0  0
 48 49  1  0  0  0  0
M  END
>  <MODEL>
10

>  <REMARK>
 VINA RESULT:    -6.453      2.692      4.601
 INTER + INTRA:          -8.161
 INTER:                  -7.843
 INTRA:                  -0.319
 UNBOUND:                 0.178
  Name = 
  6 active torsions:
  status: ('A' for Active; 'I' for Inactive)
    1  A    between atoms: C_1  and  C_2
    2  A    between atoms: C_2  and  C_3
    3  A    between atoms: C_5  and  C_6
    4  A    between atoms: C_10  and  C_12
    5  A    between atoms: C_14  and  C_15
    6  A    between atoms: N_16  and  C_17
                            x       y       z     vdW  Elec       q    Type
                         _______ _______ _______ _____ _____    ______ ____

>  <TORSDO>
F 6

$$$$
=
 OpenBabel07192307433D

 51 54  0  0  1  0  0  0  0  0999 V2000
    4.9280   15.2540   18.8600 C   0  0  0  0  0  0  0  0  0  0  0  0
    4.5700   15.2570   20.3540 C   0  0  0  0  0  0  0  0  0  0  0  0
    3.0590   15.2620   20.5660 C   0  0  0  0  0  0  0  0  0  0  0  0
    2.4360   14.1700   19.8300 N   0  0  0  0  0  0  0  0  0  0  0  0
    1.4230   13.4290   20.4580 C   0  0  0  0  0  0  0  0  0  0  0  0
    0.9170   13.8100   21.5180 O   0  0  0  0  0  0  0  0  0  0  0  0
    2.7090   14.1610   18.3940 C   0  0  0  0  0  0  0  0  0  0  0  0
    4.2110   14.1010   18.1350 C   0  0  0  0  0  0  0  0  0  0  0  0
    4.5630   16.1960   18.4250 H   0  0  0  0  0  0  0  0  0  0  0  0
    4.9960   14.3660   20.8360 H   0  0  0  0  0  0  0  0  0  0  0  0
    5.0150   16.1270   20.8530 H   0  0  0  0  0  0  0  0  0  0  0  0
    2.8460   15.1860   21.6380 H   0  0  0  0  0  0  0  0  0  0  0  0
    2.6170   16.2020   20.2090 H   0  0  0  0  0  0  0  0  0  0  0  0
    2.1900   13.3650   17.8590 H   0  0  0  0  0  0  0  0  0  0  0  0
    2.3000   15.0970   17.9900 H   0  0  0  0  0  0  0  0  0  0  0  0
    4.4040   14.1540   17.0570 H   0  0  0  0  0  0  0  0  0  0  0  0
    4.5970   13.1330   18.4820 H   0  0  0  0  0  0  0  0  0  0  0  0
    8.4710   15.2090   19.1380 C   0  0  2  0  0  3  0  0  0  0  0  0
    7.2910   15.1860   19.7270 N   0  0  0  0  0  0  0  0  0  0  0  0
    6.4090   15.2050   18.6730 C   0  0  0  0  0  0  0  0  0  0  0  0
    6.9840   15.2240   17.4580 N   0  0  0  0  0  2  0  0  0  0  0  0
    8.2890   15.2330   17.7800 N   0  0  0  0  0  0  0  0  0  0  0  0
    8.9810   15.2610   17.0370 H   0  0  0  0  0  0  0  0  0  0  0  0
    9.8110   15.2000   19.7800 C   0  0  0  0  0  0  0  0  0  0  0  0
   10.0900   16.2150   20.1020 H   0  0  0  0  0  0  0  0  0  0  0  0
   10.5530   14.8770   19.0390 H   0  0  0  0  0  0  0  0  0  0  0  0
    9.8530   14.2660   20.9840 C   0  0  0  0  0  0  0  0  0  0  0  0
   10.2330   14.7970   21.8630 H   0  0  0  0  0  0  0  0  0  0  0  0
    8.8560   13.8850   21.2260 H   0  0  0  0  0  0  0  0  0  0  0  0
   10.5110   13.4090   20.7970 H   0  0  0  0  0  0  0  0  0  0  0  0
    0.9870   12.1450   19.8660 C   0  0  0  0  0  0  0  0  0  0  0  0
   -0.2060   11.9430   19.1340 C   0  0  0  0  0  0  0  0  0  0  0  0
   -0.2790   10.5890   18.8710 C   0  0  0  0  0  0  0  0  0  0  0  0
    0.8930   10.0380   19.3810 N   0  0  0  0  0  0  0  0  0  0  0  0
    1.6110   10.9740   20.0610 N   0  0  0  0  0  0  0  0  0  0  0  0
   -0.9440   12.6950   18.8840 H   0  0  0  0  0  0  0  0  0  0  0  0
    1.4150    8.7060   19.3090 C   0  0  0  0  0  0  0  0  0  0  0  0
    1.3170    7.8810   20.4500 C   0  0  0  0  0  0  0  0  0  0  0  0
    1.8060    6.5720   20.4310 C   0  0  0  0  0  0  0  0  0  0  0  0
    2.4050    6.0840   19.2790 C   0  0  0  0  0  0  0  0  0  0  0  0
    2.8690    4.8280   19.2560 F   0  0  0  0  0  0  0  0  0  0  0  0
    2.5320    6.8830   18.1500 C   0  0  0  0  0  0  0  0  0  0  0  0
    2.0430    8.1970   18.1640 C   0  0  0  0  0  0  0  0  0  0  0  0
    0.8420    8.2380   21.3650 H   0  0  0  0  0  0  0  0  0  0  0  0
    1.7180    5.9380   21.3070 H   0  0  0  0  0  0  0  0  0  0  0  0
    3.0190    6.4840   17.2650 H   0  0  0  0  0  0  0  0  0  0  0  0
    2.2060    8.7910   17.2730 H   0  0  0  0  0  0  0  0  0  0  0  0
   -1.4090    9.8600   18.2430 C   0  0  0  0  0  0  0  0  0  0  0  0
   -2.2430   10.5450   18.0430 H   0  0  0  0  0  0  0  0  0  0  0  0
   -1.1100    9.4290   17.2820 H   0  0  0  0  0  0  0  0  0  0  0  0
   -1.7990    9.0770   18.9000 H   0  0  0  0  0  0  0  0  0  0  0  0
  1  2  1  0  0  0  0
  2  3  1  0  0  0  0
  2 10  1  0  0  0  0
  2 11  1  0  0  0  0
  3 12  1  0  0  0  0
  4  5  1  0  0  0  0
  4  3  1  0  0  0  0
  5  6  2  0  0  0  0
  7  4  1  0  0  0  0
  8  7  1  0  0  0  0
  8 17  1  0  0  0  0
  8  1  1  0  0  0  0
  9  1  1  0  0  0  0
 13  3  1  0  0  0  0
 14  7  1  0  0  0  0
 15  7  1  0  0  0  0
 16  8  1  0  0  0  0
 18 19  1  0  0  0  0
 18 24  1  6  0  0  0
 20  1  1  0  0  0  0
 20 19  2  0  0  0  0
 21 22  1  0  0  0  0
 21 20  1  0  0  0  0
 22 18  1  0  0  0  0
 23 22  1  0  0  0  0
 24 25  1  0  0  0  0
 24 27  1  0  0  0  0
 26 24  1  0  0  0  0
 27 29  1  0  0  0  0
 27 28  1  0  0  0  0
 30 27  1  0  0  0  0
 31 35  2  0  0  0  0
 31  5  1  0  0  0  0
 32 31  1  0  0  0  0
 33 32  2  0  0  0  0
 33 34  1  0  0  0  0
 34 35  1  0  0  0  0
 36 32  1  0  0  0  0
 37 34  1  0  0  0  0
 37 38  1  0  0  0  0
 38 44  1  0  0  0  0
 39 38  2  0  0  0  0
 39 45  1  0  0  0  0
 40 39  1  0  0  0  0
 41 40  1  0  0  0  0
 42 43  1  0  0  0  0
 42 40  2  0  0  0  0
 43 37  2  0  0  0  0
 46 42  1  0  0  0  0
 47 43  1  0  0  0  0
 48 33  1  0  0  0  0
 48 51  1  0  0  0  0
 49 48  1  0  0  0  0
 50 48  1  0  0  0  0
M  END
>  <MODEL>
11

>  <REMARK>
 VINA RESULT:    -6.429      5.783      8.919
 INTER + INTRA:          -8.131
 INTER:                  -7.255
 INTRA:                  -0.876
 UNBOUND:                 0.178
  Name = 
  6 active torsions:
  status: ('A' for Active; 'I' for Inactive)
    1  A    between atoms: C_1  and  C_2
    2  A    between atoms: C_2  and  C_3
    3  A    between atoms: C_5  and  C_6
    4  A    between atoms: C_10  and  C_12
    5  A    between atoms: C_14  and  C_15
    6  A    between atoms: N_16  and  C_17
                            x       y       z     vdW  Elec       q    Type
                         _______ _______ _______ _____ _____    ______ ____

>  <TORSDO>
F 6

$$$$
=
 OpenBabel07192307433D

 51 54  0  0  1  0  0  0  0  0999 V2000
    4.5320   15.2670   20.8520 C   0  0  0  0  0  0  0  0  0  0  0  0
    3.7580   15.1400   22.1730 C   0  0  0  0  0  0  0  0  0  0  0  0
    2.2500   15.1880   21.9430 C   0  0  0  0  0  0  0  0  0  0  0  0
    1.8530   14.2000   20.9480 N   0  0  0  0  0  0  0  0  0  0  0  0
    0.6930   13.4440   21.1780 C   0  0  0  0  0  0  0  0  0  0  0  0
   -0.0930   13.7420   22.0820 O   0  0  0  0  0  0  0  0  0  0  0  0
    2.5300   14.3190   19.6570 C   0  0  0  0  0  0  0  0  0  0  0  0
    4.0420   14.2210   19.8360 C   0  0  0  0  0  0  0  0  0  0  0  0
    4.3200   16.2610   20.4330 H   0  0  0  0  0  0  0  0  0  0  0  0
    4.0160   14.1900   22.6600 H   0  0  0  0  0  0  0  0  0  0  0  0
    4.0500   15.9380   22.8660 H   0  0  0  0  0  0  0  0  0  0  0  0
    1.7350   15.0170   22.8940 H   0  0  0  0  0  0  0  0  0  0  0  0
    1.9420   16.1760   21.5750 H   0  0  0  0  0  0  0  0  0  0  0  0
    2.1780   13.6010   18.9160 H   0  0  0  0  0  0  0  0  0  0  0  0
    2.2670   15.3060   19.2540 H   0  0  0  0  0  0  0  0  0  0  0  0
    4.5390   14.3700   18.8700 H   0  0  0  0  0  0  0  0  0  0  0  0
    4.3000   13.2090   20.1750 H   0  0  0  0  0  0  0  0  0  0  0  0
    8.0640   14.8870   20.7190 C   0  0  2  0  0  3  0  0  0  0  0  0
    6.9120   14.9690   20.0830 N   0  0  0  0  0  0  0  0  0  0  0  0
    6.0040   15.1740   21.0940 C   0  0  0  0  0  0  0  0  0  0  0  0
    6.5380   15.2370   22.3260 N   0  0  0  0  0  2  0  0  0  0  0  0
    7.8420   15.0450   22.0620 N   0  0  0  0  0  0  0  0  0  0  0  0
    8.5050   15.0300   22.8320 H   0  0  0  0  0  0  0  0  0  0  0  0
    9.4130   14.6700   20.1370 C   0  0  0  0  0  0  0  0  0  0  0  0
    9.9570   13.8980   20.7020 H   0  0  0  0  0  0  0  0  0  0  0  0
    9.9870   15.6020   20.2220 H   0  0  0  0  0  0  0  0  0  0  0  0
    9.3350   14.2520   18.6730 C   0  0  0  0  0  0  0  0  0  0  0  0
    8.8280   15.0240   18.0840 H   0  0  0  0  0  0  0  0  0  0  0  0
   10.3320   14.1060   18.2470 H   0  0  0  0  0  0  0  0  0  0  0  0
    8.7720   13.3160   18.5580 H   0  0  0  0  0  0  0  0  0  0  0  0
    0.4310   12.2430   20.3540 C   0  0  0  0  0  0  0  0  0  0  0  0
   -0.7270   12.0210   19.5740 C   0  0  0  0  0  0  0  0  0  0  0  0
   -0.6180   10.7410   19.0690 C   0  0  0  0  0  0  0  0  0  0  0  0
    0.6200   10.2670   19.4940 N   0  0  0  0  0  0  0  0  0  0  0  0
    1.2080   11.1510   20.3470 N   0  0  0  0  0  0  0  0  0  0  0  0
   -1.5610   12.7010   19.4500 H   0  0  0  0  0  0  0  0  0  0  0  0
    1.3170    9.0520   19.1920 C   0  0  0  0  0  0  0  0  0  0  0  0
    1.4530    8.0830   20.2090 C   0  0  0  0  0  0  0  0  0  0  0  0
    2.1180    6.8790   19.9650 C   0  0  0  0  0  0  0  0  0  0  0  0
    2.6610    6.6410   18.7110 C   0  0  0  0  0  0  0  0  0  0  0  0
    3.2950    5.4850   18.4730 F   0  0  0  0  0  0  0  0  0  0  0  0
    2.5590    7.5880   17.7000 C   0  0  0  0  0  0  0  0  0  0  0  0
    1.8920    8.7970   17.9390 C   0  0  0  0  0  0  0  0  0  0  0  0
    1.0260    8.2420   21.2000 H   0  0  0  0  0  0  0  0  0  0  0  0
    2.2110    6.1310   20.7460 H   0  0  0  0  0  0  0  0  0  0  0  0
    3.0060    7.3860   16.7320 H   0  0  0  0  0  0  0  0  0  0  0  0
    1.8780    9.5190   17.1320 H   0  0  0  0  0  0  0  0  0  0  0  0
   -1.6420    9.9950   18.2960 C   0  0  0  0  0  0  0  0  0  0  0  0
   -2.3250   10.6910   17.7920 H   0  0  0  0  0  0  0  0  0  0  0  0
   -1.1750    9.3820   17.5180 H   0  0  0  0  0  0  0  0  0  0  0  0
   -2.2610    9.3680   18.9460 H   0  0  0  0  0  0  0  0  0  0  0  0
  1 20  1  0  0  0  0
  1  2  1  0  0  0  0
  2 10  1  0  0  0  0
  2 11  1  0  0  0  0
  3  2  1  0  0  0  0
  3 12  1  0  0  0  0
  4  5  1  0  0  0  0
  4  3  1  0  0  0  0
  5  6  2  0  0  0  0
  7  8  1  0  0  0  0
  7  4  1  0  0  0  0
  8 17  1  0  0  0  0
  8  1  1  0  0  0  0
  9  1  1  0  0  0  0
 13  3  1  0  0  0  0
 14  7  1  0  0  0  0
 15  7  1  0  0  0  0
 16  8  1  0  0  0  0
 18 24  1  6  0  0  0
 18 22  1  0  0  0  0
 19 18  1  0  0  0  0
 19 20  2  0  0  0  0
 20 21  1  0  0  0  0
 22 21  1  0  0  0  0
 22 23  1  0  0  0  0
 24 26  1  0  0  0  0
 24 25  1  0  0  0  0
 27 24  1  0  0  0  0
 28 27  1  0  0  0  0
 29 27  1  0  0  0  0
 30 27  1  0  0  0  0
 31  5  1  0  0  0  0
 32 31  1  0  0  0  0
 33 34  1  0  0  0  0
 33 32  2  0  0  0  0
 34 35  1  0  0  0  0
 35 31  2  0  0  0  0
 36 32  1  0  0  0  0
 37 34  1  0  0  0  0
 37 38  1  0  0  0  0
 38 44  1  0  0  0  0
 39 38  2  0  0  0  0
 39 45  1  0  0  0  0
 40 39  1  0  0  0  0
 41 40  1  0  0  0  0
 42 43  1  0  0  0  0
 42 40  2  0  0  0  0
 43 37  2  0  0  0  0
 46 42  1  0  0  0  0
 47 43  1  0  0  0  0
 48 51  1  0  0  0  0
 48 33  1  0  0  0  0
 49 48  1  0  0  0  0
 50 48  1  0  0  0  0
M  END
>  <MODEL>
12

>  <REMARK>
 VINA RESULT:    -6.215      5.646      9.224
 INTER + INTRA:          -7.853
 INTER:                  -6.976
 INTRA:                  -0.878
 UNBOUND:                 0.178
  Name = 
  6 active torsions:
  status: ('A' for Active; 'I' for Inactive)
    1  A    between atoms: C_1  and  C_2
    2  A    between atoms: C_2  and  C_3
    3  A    between atoms: C_5  and  C_6
    4  A    between atoms: C_10  and  C_12
    5  A    between atoms: C_14  and  C_15
    6  A    between atoms: N_16  and  C_17
                            x       y       z     vdW  Elec       q    Type
                         _______ _______ _______ _____ _____    ______ ____

>  <TORSDO>
F 6

$$$$
=
 OpenBabel07192307433D

 51 54  0  0  1  0  0  0  0  0999 V2000
    1.7920    7.6850   18.8680 C   0  0  0  0  0  0  0  0  0  0  0  0
    2.8960    8.4680   18.1430 C   0  0  0  0  0  0  0  0  0  0  0  0
    2.3540    9.7500   17.5180 C   0  0  0  0  0  0  0  0  0  0  0  0
    1.6480   10.5450   18.5140 N   0  0  0  0  0  0  0  0  0  0  0  0
    1.8500   11.9330   18.5320 C   0  0  0  0  0  0  0  0  0  0  0  0
    2.4360   12.5040   17.6070 O   0  0  0  0  0  0  0  0  0  0  0  0
    0.5530    9.8520   19.1920 C   0  0  0  0  0  0  0  0  0  0  0  0
    1.0620    8.5890   19.8780 C   0  0  0  0  0  0  0  0  0  0  0  0
    1.0550    7.3680   18.1160 H   0  0  0  0  0  0  0  0  0  0  0  0
    3.6920    8.7250   18.8560 H   0  0  0  0  0  0  0  0  0  0  0  0
    3.3590    7.8470   17.3660 H   0  0  0  0  0  0  0  0  0  0  0  0
    3.1830   10.3150   17.0800 H   0  0  0  0  0  0  0  0  0  0  0  0
    1.6480    9.5220   16.7090 H   0  0  0  0  0  0  0  0  0  0  0  0
    0.0090   10.4840   19.8940 H   0  0  0  0  0  0  0  0  0  0  0  0
   -0.1780    9.5840   18.4150 H   0  0  0  0  0  0  0  0  0  0  0  0
    0.2230    8.0480   20.3310 H   0  0  0  0  0  0  0  0  0  0  0  0
    1.7390    8.8710   20.6950 H   0  0  0  0  0  0  0  0  0  0  0  0
    2.5040    4.7720   20.7770 C   0  0  2  0  0  3  0  0  0  0  0  0
    1.6430    5.7040   20.4170 N   0  0  0  0  0  0  0  0  0  0  0  0
    2.3500    6.4570   19.5090 C   0  0  0  0  0  0  0  0  0  0  0  0
    3.6040    6.0290   19.2790 N   0  0  0  0  0  2  0  0  0  0  0  0
    3.6780    4.9670   20.0980 N   0  0  0  0  0  0  0  0  0  0  0  0
    4.5450    4.4370   20.1440 H   0  0  0  0  0  0  0  0  0  0  0  0
    2.2960    3.6640   21.7440 C   0  0  0  0  0  0  0  0  0  0  0  0
    1.9570    4.0570   22.7140 H   0  0  0  0  0  0  0  0  0  0  0  0
    3.2570    3.1600   21.9130 H   0  0  0  0  0  0  0  0  0  0  0  0
    1.2750    2.6540   21.2320 C   0  0  0  0  0  0  0  0  0  0  0  0
    0.3060    2.8140   21.7170 H   0  0  0  0  0  0  0  0  0  0  0  0
    1.1290    2.7500   20.1510 H   0  0  0  0  0  0  0  0  0  0  0  0
    1.5930    1.6260   21.4450 H   0  0  0  0  0  0  0  0  0  0  0  0
    1.3950   12.7210   19.6990 C   0  0  0  0  0  0  0  0  0  0  0  0
    2.0450   13.8630   20.2200 C   0  0  0  0  0  0  0  0  0  0  0  0
    1.3610   14.2130   21.3670 C   0  0  0  0  0  0  0  0  0  0  0  0
    0.2920   13.3260   21.4590 N   0  0  0  0  0  0  0  0  0  0  0  0
    0.3730   12.3700   20.4930 N   0  0  0  0  0  0  0  0  0  0  0  0
    2.9380   14.3320   19.8270 H   0  0  0  0  0  0  0  0  0  0  0  0
   -0.8090   13.2710   22.3750 C   0  0  0  0  0  0  0  0  0  0  0  0
   -1.4940   12.0470   22.5310 C   0  0  0  0  0  0  0  0  0  0  0  0
   -2.5700   11.9380   23.4150 C   0  0  0  0  0  0  0  0  0  0  0  0
   -2.9760   13.0500   24.1380 C   0  0  0  0  0  0  0  0  0  0  0  0
   -4.0030   12.9470   24.9900 F   0  0  0  0  0  0  0  0  0  0  0  0
   -2.3300   14.2700   23.9860 C   0  0  0  0  0  0  0  0  0  0  0  0
   -1.2500   14.3860   23.1010 C   0  0  0  0  0  0  0  0  0  0  0  0
   -1.1890   11.1560   21.9810 H   0  0  0  0  0  0  0  0  0  0  0  0
   -3.0880   10.9920   23.5400 H   0  0  0  0  0  0  0  0  0  0  0  0
   -2.6760   15.1310   24.5510 H   0  0  0  0  0  0  0  0  0  0  0  0
   -0.8100   15.3690   22.9880 H   0  0  0  0  0  0  0  0  0  0  0  0
    1.7330   15.2670   22.3440 C   0  0  0  0  0  0  0  0  0  0  0  0
    2.2350   14.8240   23.2140 H   0  0  0  0  0  0  0  0  0  0  0  0
    2.4330   15.9820   21.8990 H   0  0  0  0  0  0  0  0  0  0  0  0
    0.8530   15.7910   22.7270 H   0  0  0  0  0  0  0  0  0  0  0  0
  1 20  1  0  0  0  0
  1  8  1  0  0  0  0
  2 10  1  0  0  0  0
  2  1  1  0  0  0  0
  3  2  1  0  0  0  0
  3  4  1  0  0  0  0
  4  5  1  0  0  0  0
  4  7  1  0  0  0  0
  5 31  1  0  0  0  0
  6  5  2  0  0  0  0
  7  8  1  0  0  0  0
  7 14  1  0  0  0  0
  8 16  1  0  0  0  0
  8 17  1  0  0  0  0
  9  1  1  0  0  0  0
 11  2  1  0  0  0  0
 12  3  1  0  0  0  0
 13  3  1  0  0  0  0
 15  7  1  0  0  0  0
 18 24  1  6  0  0  0
 19 18  1  0  0  0  0
 20 19  2  0  0  0  0
 21 20  1  0  0  0  0
 21 22  1  0  0  0  0
 22 23  1  0  0  0  0
 22 18  1  0  0  0  0
 24 26  1  0  0  0  0
 24 25  1  0  0  0  0
 27 30  1  0  0  0  0
 27 28  1  0  0  0  0
 27 24  1  0  0  0  0
 29 27  1  0  0  0  0
 31 32  1  0  0  0  0
 31 35  2  0  0  0  0
 32 33  2  0  0  0  0
 33 34  1  0  0  0  0
 33 48  1  0  0  0  0
 34 37  1  0  0  0  0
 35 34  1  0  0  0  0
 36 32  1  0  0  0  0
 37 38  2  0  0  0  0
 37 43  1  0  0  0  0
 38 39  1  0  0  0  0
 39 45  1  0  0  0  0
 39 40  2  0  0  0  0
 40 41  1  0  0  0  0
 42 40  1  0  0  0  0
 42 46  1  0  0  0  0
 43 42  2  0  0  0  0
 44 38  1  0  0  0  0
 47 43  1  0  0  0  0
 48 51  1  0  0  0  0
 48 49  1  0  0  0  0
 50 48  1  0  0  0  0
M  END
>  <MODEL>
13

>  <REMARK>
 VINA RESULT:    -6.032      4.353      6.067
 INTER + INTRA:          -7.618
 INTER:                  -7.674
 INTRA:                   0.056
 UNBOUND:                 0.178
  Name = 
  6 active torsions:
  status: ('A' for Active; 'I' for Inactive)
    1  A    between atoms: C_1  and  C_2
    2  A    between atoms: C_2  and  C_3
    3  A    between atoms: C_5  and  C_6
    4  A    between atoms: C_10  and  C_12
    5  A    between atoms: C_14  and  C_15
    6  A    between atoms: N_16  and  C_17
                            x       y       z     vdW  Elec       q    Type
                         _______ _______ _______ _____ _____    ______ ____

>  <TORSDO>
F 6

$$$$
=
 OpenBabel07192307433D

 51 54  0  0  1  0  0  0  0  0999 V2000
   -0.5240   13.2350   20.9750 C   0  0  0  0  0  0  0  0  0  0  0  0
   -1.6460   12.7240   20.0590 C   0  0  0  0  0  0  0  0  0  0  0  0
   -1.0930   12.2030   18.7350 C   0  0  0  0  0  0  0  0  0  0  0  0
   -0.0510   11.2130   18.9720 N   0  0  0  0  0  0  0  0  0  0  0  0
   -0.0340   10.0530   18.1810 C   0  0  0  0  0  0  0  0  0  0  0  0
   -0.7420    9.9580   17.1740 O   0  0  0  0  0  0  0  0  0  0  0  0
    1.0630   11.6760   19.7970 C   0  0  0  0  0  0  0  0  0  0  0  0
    0.5600   12.1570   21.1550 C   0  0  0  0  0  0  0  0  0  0  0  0
   -0.0530   14.0970   20.4810 H   0  0  0  0  0  0  0  0  0  0  0  0
   -2.1920   11.9150   20.5630 H   0  0  0  0  0  0  0  0  0  0  0  0
   -2.3750   13.5210   19.8650 H   0  0  0  0  0  0  0  0  0  0  0  0
   -1.9120   11.7790   18.1460 H   0  0  0  0  0  0  0  0  0  0  0  0
   -0.6530   13.0190   18.1480 H   0  0  0  0  0  0  0  0  0  0  0  0
    1.8520   10.9330   19.9160 H   0  0  0  0  0  0  0  0  0  0  0  0
    1.5290   12.5120   19.2570 H   0  0  0  0  0  0  0  0  0  0  0  0
    1.3960   12.5560   21.7400 H   0  0  0  0  0  0  0  0  0  0  0  0
    0.1580   11.3010   21.7130 H   0  0  0  0  0  0  0  0  0  0  0  0
   -2.4130   13.9200   23.9070 C   0  0  2  0  0  3  0  0  0  0  0  0
   -2.2550   13.2150   22.8040 N   0  0  0  0  0  0  0  0  0  0  0  0
   -1.0800   13.7000   22.2810 C   0  0  0  0  0  0  0  0  0  0  0  0
   -0.4930   14.6620   23.0140 N   0  0  0  0  0  2  0  0  0  0  0  0
   -1.3600   14.7870   24.0330 N   0  0  0  0  0  0  0  0  0  0  0  0
   -1.1730   15.4740   24.7590 H   0  0  0  0  0  0  0  0  0  0  0  0
   -3.5170   13.8300   24.8960 C   0  0  0  0  0  0  0  0  0  0  0  0
   -4.1660   14.7170   24.8310 H   0  0  0  0  0  0  0  0  0  0  0  0
   -3.0850   13.8150   25.9050 H   0  0  0  0  0  0  0  0  0  0  0  0
   -4.3620   12.5790   24.6850 C   0  0  0  0  0  0  0  0  0  0  0  0
   -5.3440   12.6990   25.1550 H   0  0  0  0  0  0  0  0  0  0  0  0
   -4.5210   12.3820   23.6200 H   0  0  0  0  0  0  0  0  0  0  0  0
   -3.8820   11.6970   25.1290 H   0  0  0  0  0  0  0  0  0  0  0  0
    0.8080    8.9070   18.5870 C   0  0  0  0  0  0  0  0  0  0  0  0
    0.8560    8.3440   19.8830 C   0  0  0  0  0  0  0  0  0  0  0  0
    1.8480    7.3830   19.8550 C   0  0  0  0  0  0  0  0  0  0  0  0
    2.3070    7.3480   18.5410 N   0  0  0  0  0  0  0  0  0  0  0  0
    1.7340    8.3370   17.8020 N   0  0  0  0  0  0  0  0  0  0  0  0
    0.2720    8.6500   20.7410 H   0  0  0  0  0  0  0  0  0  0  0  0
    3.2480    6.4800   17.8970 C   0  0  0  0  0  0  0  0  0  0  0  0
    2.9610    5.1010   17.8350 C   0  0  0  0  0  0  0  0  0  0  0  0
    3.8420    4.2130   17.2130 C   0  0  0  0  0  0  0  0  0  0  0  0
    5.0190    4.6950   16.6610 C   0  0  0  0  0  0  0  0  0  0  0  0
    5.8640    3.8470   16.0590 F   0  0  0  0  0  0  0  0  0  0  0  0
    5.3350    6.0460   16.7260 C   0  0  0  0  0  0  0  0  0  0  0  0
    4.4540    6.9410   17.3490 C   0  0  0  0  0  0  0  0  0  0  0  0
    2.0370    4.6980   18.2530 H   0  0  0  0  0  0  0  0  0  0  0  0
    3.6120    3.1540   17.1580 H   0  0  0  0  0  0  0  0  0  0  0  0
    6.2700    6.3970   16.3010 H   0  0  0  0  0  0  0  0  0  0  0  0
    4.7680    7.9750   17.4120 H   0  0  0  0  0  0  0  0  0  0  0  0
    2.3700    6.6030   21.0050 C   0  0  0  0  0  0  0  0  0  0  0  0
    1.9930    7.0150   21.9500 H   0  0  0  0  0  0  0  0  0  0  0  0
    2.0370    5.5610   20.9540 H   0  0  0  0  0  0  0  0  0  0  0  0
    3.4620    6.6460   21.0590 H   0  0  0  0  0  0  0  0  0  0  0  0
  1  8  1  0  0  0  0
  1 20  1  0  0  0  0
  2 10  1  0  0  0  0
  2  1  1  0  0  0  0
  3  4  1  0  0  0  0
  3  2  1  0  0  0  0
  4  7  1  0  0  0  0
  5 31  1  0  0  0  0
  5  4  1  0  0  0  0
  6  5  2  0  0  0  0
  7 14  1  0  0  0  0
  7  8  1  0  0  0  0
  8 17  1  0  0  0  0
  8 16  1  0  0  0  0
  9  1  1  0  0  0  0
 11  2  1  0  0  0  0
 12  3  1  0  0  0  0
 13  3  1  0  0  0  0
 15  7  1  0  0  0  0
 18 22  1  0  0  0  0
 18 24  1  1  0  0  0
 19 18  1  0  0  0  0
 20 19  2  0  0  0  0
 20 21  1  0  0  0  0
 21 22  1  0  0  0  0
 22 23  1  0  0  0  0
 24 26  1  0  0  0  0
 25 24  1  0  0  0  0
 27 24  1  0  0  0  0
 27 30  1  0  0  0  0
 27 28  1  0  0  0  0
 29 27  1  0  0  0  0
 31 32  1  0  0  0  0
 32 36  1  0  0  0  0
 33 32  2  0  0  0  0
 33 48  1  0  0  0  0
 34 33  1  0  0  0  0
 35 34  1  0  0  0  0
 35 31  2  0  0  0  0
 37 34  1  0  0  0  0
 38 37  1  0  0  0  0
 38 44  1  0  0  0  0
 39 38  2  0  0  0  0
 40 42  2  0  0  0  0
 40 39  1  0  0  0  0
 41 40  1  0  0  0  0
 42 43  1  0  0  0  0
 43 47  1  0  0  0  0
 43 37  2  0  0  0  0
 45 39  1  0  0  0  0
 46 42  1  0  0  0  0
 48 51  1  0  0  0  0
 48 49  1  0  0  0  0
 50 48  1  0  0  0  0
M  END
>  <MODEL>
14

>  <REMARK>
 VINA RESULT:    -6.009      4.238     10.620
 INTER + INTRA:          -7.588
 INTER:                  -6.912
 INTRA:                  -0.676
 UNBOUND:                 0.178
  Name = 
  6 active torsions:
  status: ('A' for Active; 'I' for Inactive)
    1  A    between atoms: C_1  and  C_2
    2  A    between atoms: C_2  and  C_3
    3  A    between atoms: C_5  and  C_6
    4  A    between atoms: C_10  and  C_12
    5  A    between atoms: C_14  and  C_15
    6  A    between atoms: N_16  and  C_17
                            x       y       z     vdW  Elec       q    Type
                         _______ _______ _______ _____ _____    ______ ____

>  <TORSDO>
F 6

$$$$
=
 OpenBabel07192307433D

 51 54  0  0  1  0  0  0  0  0999 V2000
    4.8080   14.8840   19.0130 C   0  0  0  0  0  0  0  0  0  0  0  0
    4.6310   14.9820   20.5350 C   0  0  0  0  0  0  0  0  0  0  0  0
    3.1800   15.2670   20.9130 C   0  0  0  0  0  0  0  0  0  0  0  0
    2.2910   14.2920   20.2940 N   0  0  0  0  0  0  0  0  0  0  0  0
    1.2410   13.7610   21.0590 C   0  0  0  0  0  0  0  0  0  0  0  0
    0.9380   14.2480   22.1520 O   0  0  0  0  0  0  0  0  0  0  0  0
    2.3900   14.2060   18.8380 C   0  0  0  0  0  0  0  0  0  0  0  0
    3.8170   13.8670   18.4180 C   0  0  0  0  0  0  0  0  0  0  0  0
    4.5690   15.8680   18.5830 H   0  0  0  0  0  0  0  0  0  0  0  0
    4.9440   14.0380   21.0030 H   0  0  0  0  0  0  0  0  0  0  0  0
    5.2790   15.7660   20.9470 H   0  0  0  0  0  0  0  0  0  0  0  0
    3.0830   15.2510   22.0030 H   0  0  0  0  0  0  0  0  0  0  0  0
    2.8760   16.2640   20.5690 H   0  0  0  0  0  0  0  0  0  0  0  0
    1.6790   13.5080   18.3960 H   0  0  0  0  0  0  0  0  0  0  0  0
    2.1110   15.1930   18.4440 H   0  0  0  0  0  0  0  0  0  0  0  0
    3.8910   13.8640   17.3240 H   0  0  0  0  0  0  0  0  0  0  0  0
    4.0610   12.8530   18.7590 H   0  0  0  0  0  0  0  0  0  0  0  0
    8.3060   14.2680   18.8860 C   0  0  2  0  0  3  0  0  0  0  0  0
    7.2280   14.5150   19.6040 N   0  0  0  0  0  0  0  0  0  0  0  0
    6.2250   14.5620   18.6660 C   0  0  0  0  0  0  0  0  0  0  0  0
    6.6260   14.3430   17.4020 N   0  0  0  0  0  2  0  0  0  0  0  0
    7.9480   14.1670   17.5680 N   0  0  0  0  0  0  0  0  0  0  0  0
    8.5300   13.9900   16.7530 H   0  0  0  0  0  0  0  0  0  0  0  0
    9.7030   14.1050   19.3650 C   0  0  0  0  0  0  0  0  0  0  0  0
   10.2720   15.0350   19.2170 H   0  0  0  0  0  0  0  0  0  0  0  0
   10.1910   13.3250   18.7680 H   0  0  0  0  0  0  0  0  0  0  0  0
    9.7510   13.7220   20.8410 C   0  0  0  0  0  0  0  0  0  0  0  0
   10.6760   14.0880   21.2980 H   0  0  0  0  0  0  0  0  0  0  0  0
    8.9100   14.1550   21.3910 H   0  0  0  0  0  0  0  0  0  0  0  0
    9.7190   12.6320   20.9670 H   0  0  0  0  0  0  0  0  0  0  0  0
    0.5170   12.5670   20.5710 C   0  0  0  0  0  0  0  0  0  0  0  0
    0.6440   11.2600   21.0960 C   0  0  0  0  0  0  0  0  0  0  0  0
   -0.1090   10.4370   20.2820 C   0  0  0  0  0  0  0  0  0  0  0  0
   -0.7150   11.2740   19.3500 N   0  0  0  0  0  0  0  0  0  0  0  0
   -0.2590   12.5500   19.4780 N   0  0  0  0  0  0  0  0  0  0  0  0
    1.2590   10.9590   21.9350 H   0  0  0  0  0  0  0  0  0  0  0  0
   -1.6830   11.0010   18.3300 C   0  0  0  0  0  0  0  0  0  0  0  0
   -1.3590   10.0610   17.3280 C   0  0  0  0  0  0  0  0  0  0  0  0
   -2.2690    9.7540   16.3130 C   0  0  0  0  0  0  0  0  0  0  0  0
   -3.5010   10.3910   16.2860 C   0  0  0  0  0  0  0  0  0  0  0  0
   -4.3780   10.0940   15.3180 F   0  0  0  0  0  0  0  0  0  0  0  0
   -3.8360   11.3340   17.2490 C   0  0  0  0  0  0  0  0  0  0  0  0
   -2.9270   11.6450   18.2690 C   0  0  0  0  0  0  0  0  0  0  0  0
   -0.4010    9.5400   17.3330 H   0  0  0  0  0  0  0  0  0  0  0  0
   -2.0200    9.0230   15.5510 H   0  0  0  0  0  0  0  0  0  0  0  0
   -4.8000   11.8310   17.1970 H   0  0  0  0  0  0  0  0  0  0  0  0
   -3.2190   12.4190   18.9690 H   0  0  0  0  0  0  0  0  0  0  0  0
   -0.1920    8.9560   20.3410 C   0  0  0  0  0  0  0  0  0  0  0  0
   -0.3170    8.6200   21.3780 H   0  0  0  0  0  0  0  0  0  0  0  0
   -1.0580    8.5910   19.7780 H   0  0  0  0  0  0  0  0  0  0  0  0
    0.7230    8.4850   19.9680 H   0  0  0  0  0  0  0  0  0  0  0  0
  1  2  1  0  0  0  0
  2  3  1  0  0  0  0
  2 11  1  0  0  0  0
  2 10  1  0  0  0  0
  3 12  1  0  0  0  0
  4  3  1  0  0  0  0
  4  5  1  0  0  0  0
  5  6  2  0  0  0  0
  7  4  1  0  0  0  0
  8 17  1  0  0  0  0
  8  7  1  0  0  0  0
  8  1  1  0  0  0  0
  9  1  1  0  0  0  0
 13  3  1  0  0  0  0
 14  7  1  0  0  0  0
 15  7  1  0  0  0  0
 16  8  1  0  0  0  0
 18 24  1  1  0  0  0
 18 19  1  0  0  0  0
 20  1  1  0  0  0  0
 20 19  2  0  0  0  0
 21 22  1  0  0  0  0
 21 20  1  0  0  0  0
 22 18  1  0  0  0  0
 23 22  1  0  0  0  0
 24 27  1  0  0  0  0
 25 24  1  0  0  0  0
 26 24  1  0  0  0  0
 27 30  1  0  0  0  0
 27 28  1  0  0  0  0
 27 29  1  0  0  0  0
 31  5  1  0  0  0  0
 31 32  1  0  0  0  0
 32 36  1  0  0  0  0
 33 48  1  0  0  0  0
 33 32  2  0  0  0  0
 34 35  1  0  0  0  0
 34 33  1  0  0  0  0
 35 31  2  0  0  0  0
 37 34  1  0  0  0  0
 38 44  1  0  0  0  0
 38 37  2  0  0  0  0
 39 38  1  0  0  0  0
 40 39  2  0  0  0  0
 40 42  1  0  0  0  0
 41 40  1  0  0  0  0
 42 43  2  0  0  0  0
 43 37  1  0  0  0  0
 43 47  1  0  0  0  0
 45 39  1  0  0  0  0
 46 42  1  0  0  0  0
 48 49  1  0  0  0  0
 50 48  1  0  0  0  0
 51 48  1  0  0  0  0
M  END
>  <MODEL>
15

>  <REMARK>
 VINA RESULT:    -6.009      6.950      8.751
 INTER + INTRA:          -7.587
 INTER:                  -7.085
 INTRA:                  -0.502
 UNBOUND:                 0.178
  Name = 
  6 active torsions:
  status: ('A' for Active; 'I' for Inactive)
    1  A    between atoms: C_1  and  C_2
    2  A    between atoms: C_2  and  C_3
    3  A    between atoms: C_5  and  C_6
    4  A    between atoms: C_10  and  C_12
    5  A    between atoms: C_14  and  C_15
    6  A    between atoms: N_16  and  C_17
                            x       y       z     vdW  Elec       q    Type
                         _______ _______ _______ _____ _____    ______ ____

>  <TORSDO>
F 6

$$$$
=
 OpenBabel07192307433D

 51 54  0  0  1  0  0  0  0  0999 V2000
    0.0190   11.4150   21.3970 C   0  0  0  0  0  0  0  0  0  0  0  0
   -0.3040   11.6900   19.9210 C   0  0  0  0  0  0  0  0  0  0  0  0
    0.9410   11.5770   19.0460 C   0  0  0  0  0  0  0  0  0  0  0  0
    1.6000   10.2950   19.2590 N   0  0  0  0  0  0  0  0  0  0  0  0
    2.0860    9.5960   18.1430 C   0  0  0  0  0  0  0  0  0  0  0  0
    2.1510   10.1330   17.0330 O   0  0  0  0  0  0  0  0  0  0  0  0
    1.9730   10.0170   20.6460 C   0  0  0  0  0  0  0  0  0  0  0  0
    0.7450   10.0660   21.5490 C   0  0  0  0  0  0  0  0  0  0  0  0
    0.7060   12.2010   21.7430 H   0  0  0  0  0  0  0  0  0  0  0  0
   -1.0560   10.9700   19.5690 H   0  0  0  0  0  0  0  0  0  0  0  0
   -0.7460   12.6880   19.8050 H   0  0  0  0  0  0  0  0  0  0  0  0
    0.6550   11.7020   17.9970 H   0  0  0  0  0  0  0  0  0  0  0  0
    1.6620   12.3690   19.2880 H   0  0  0  0  0  0  0  0  0  0  0  0
    2.5090    9.0770   20.7690 H   0  0  0  0  0  0  0  0  0  0  0  0
    2.6840   10.8000   20.9430 H   0  0  0  0  0  0  0  0  0  0  0  0
    1.0460    9.9150   22.5930 H   0  0  0  0  0  0  0  0  0  0  0  0
    0.0720    9.2390   21.2880 H   0  0  0  0  0  0  0  0  0  0  0  0
   -3.0590   12.1920   22.9980 C   0  0  2  0  0  3  0  0  0  0  0  0
   -2.1950   12.4350   22.0300 N   0  0  0  0  0  0  0  0  0  0  0  0
   -1.2190   11.4880   22.2300 C   0  0  0  0  0  0  0  0  0  0  0  0
   -1.4420   10.6600   23.2660 N   0  0  0  0  0  2  0  0  0  0  0  0
   -2.6080   11.1310   23.7380 N   0  0  0  0  0  0  0  0  0  0  0  0
   -3.0250   10.6910   24.5550 H   0  0  0  0  0  0  0  0  0  0  0  0
   -4.3300   12.9040   23.2840 C   0  0  0  0  0  0  0  0  0  0  0  0
   -5.0740   12.6960   22.5000 H   0  0  0  0  0  0  0  0  0  0  0  0
   -4.1380   13.9840   23.2740 H   0  0  0  0  0  0  0  0  0  0  0  0
   -4.9080   12.5010   24.6370 C   0  0  0  0  0  0  0  0  0  0  0  0
   -5.8660   11.9880   24.5030 H   0  0  0  0  0  0  0  0  0  0  0  0
   -4.2350   11.8240   25.1710 H   0  0  0  0  0  0  0  0  0  0  0  0
   -5.0830   13.3810   25.2700 H   0  0  0  0  0  0  0  0  0  0  0  0
    2.4810    8.1780   18.2880 C   0  0  0  0  0  0  0  0  0  0  0  0
    3.4920    7.5290   17.5420 C   0  0  0  0  0  0  0  0  0  0  0  0
    3.4530    6.1980   17.9070 C   0  0  0  0  0  0  0  0  0  0  0  0
    2.4840    6.1030   18.9020 N   0  0  0  0  0  0  0  0  0  0  0  0
    1.8380    7.2910   19.0620 N   0  0  0  0  0  0  0  0  0  0  0  0
    4.1280    7.9790   16.7900 H   0  0  0  0  0  0  0  0  0  0  0  0
    2.0830    5.0000   19.7230 C   0  0  0  0  0  0  0  0  0  0  0  0
    2.6430    4.8810   21.0120 C   0  0  0  0  0  0  0  0  0  0  0  0
    2.2820    3.8270   21.8560 C   0  0  0  0  0  0  0  0  0  0  0  0
    1.3710    2.8800   21.4130 C   0  0  0  0  0  0  0  0  0  0  0  0
    1.0190    1.8720   22.2210 F   0  0  0  0  0  0  0  0  0  0  0  0
    0.8210    2.9630   20.1400 C   0  0  0  0  0  0  0  0  0  0  0  0
    1.1790    4.0190   19.2900 C   0  0  0  0  0  0  0  0  0  0  0  0
    3.3540    5.6180   21.3880 H   0  0  0  0  0  0  0  0  0  0  0  0
    2.7070    3.7460   22.8510 H   0  0  0  0  0  0  0  0  0  0  0  0
    0.1230    2.2010   19.8090 H   0  0  0  0  0  0  0  0  0  0  0  0
    0.7560    4.0130   18.2930 H   0  0  0  0  0  0  0  0  0  0  0  0
    4.2300    5.0840   17.3080 C   0  0  0  0  0  0  0  0  0  0  0  0
    3.6080    4.1830   17.2260 H   0  0  0  0  0  0  0  0  0  0  0  0
    4.5620    5.3380   16.2960 H   0  0  0  0  0  0  0  0  0  0  0  0
    5.0900    4.8120   17.9280 H   0  0  0  0  0  0  0  0  0  0  0  0
  1  8  1  0  0  0  0
  1  9  1  0  0  0  0
  1 20  1  0  0  0  0
  2  1  1  0  0  0  0
  3  4  1  0  0  0  0
  3 13  1  0  0  0  0
  3  2  1  0  0  0  0
  4  7  1  0  0  0  0
  5 31  1  0  0  0  0
  5  4  1  0  0  0  0
  6  5  2  0  0  0  0
  7 14  1  0  0  0  0
  7 15  1  0  0  0  0
  7  8  1  0  0  0  0
  8 16  1  0  0  0  0
 10  2  1  0  0  0  0
 11  2  1  0  0  0  0
 12  3  1  0  0  0  0
 17  8  1  0  0  0  0
 18 24  1  6  0  0  0
 18 22  1  0  0  0  0
 19 20  2  0  0  0  0
 19 18  1  0  0  0  0
 20 21  1  0  0  0  0
 21 22  1  0  0  0  0
 22 23  1  0  0  0  0
 24 27  1  0  0  0  0
 25 24  1  0  0  0  0
 26 24  1  0  0  0  0
 27 29  1  0  0  0  0
 27 30  1  0  0  0  0
 28 27  1  0  0  0  0
 31 35  2  0  0  0  0
 32 33  2  0  0  0  0
 32 31  1  0  0  0  0
 33 34  1  0  0  0  0
 34 35  1  0  0  0  0
 34 37  1  0  0  0  0
 36 32  1  0  0  0  0
 37 38  1  0  0  0  0
 38 44  1  0  0  0  0
 38 39  2  0  0  0  0
 39 45  1  0  0  0  0
 40 39  1  0  0  0  0
 40 41  1  0  0  0  0
 42 40  2  0  0  0  0
 43 37  2  0  0  0  0
 43 42  1  0  0  0  0
 46 42  1  0  0  0  0
 47 43  1  0  0  0  0
 48 33  1  0  0  0  0
 48 51  1  0  0  0  0
 49 48  1  0  0  0  0
 50 48  1  0  0  0  0
M  END
>  <MODEL>
16

>  <REMARK>
 VINA RESULT:    -5.997      3.832      9.635
 INTER + INTRA:          -7.572
 INTER:                  -6.903
 INTRA:                  -0.669
 UNBOUND:                 0.178
  Name = 
  6 active torsions:
  status: ('A' for Active; 'I' for Inactive)
    1  A    between atoms: C_1  and  C_2
    2  A    between atoms: C_2  and  C_3
    3  A    between atoms: C_5  and  C_6
    4  A    between atoms: C_10  and  C_12
    5  A    between atoms: C_14  and  C_15
    6  A    between atoms: N_16  and  C_17
                            x       y       z     vdW  Elec       q    Type
                         _______ _______ _______ _____ _____    ______ ____

>  <TORSDO>
F 6

$$$$
=
 OpenBabel07192307433D

 51 54  0  0  1  0  0  0  0  0999 V2000
   -0.9590   12.1210   20.5880 C   0  0  0  0  0  0  0  0  0  0  0  0
   -0.8240   12.0820   19.0590 C   0  0  0  0  0  0  0  0  0  0  0  0
    0.5920   11.7040   18.6330 C   0  0  0  0  0  0  0  0  0  0  0  0
    1.0050   10.4640   19.2770 N   0  0  0  0  0  0  0  0  0  0  0  0
    1.6930    9.5080   18.5140 C   0  0  0  0  0  0  0  0  0  0  0  0
    2.1280    9.7800   17.3910 O   0  0  0  0  0  0  0  0  0  0  0  0
    0.9410   10.4780   20.7380 C   0  0  0  0  0  0  0  0  0  0  0  0
   -0.4740   10.7990   21.2080 C   0  0  0  0  0  0  0  0  0  0  0  0
   -0.3050   12.9220   20.9630 H   0  0  0  0  0  0  0  0  0  0  0  0
   -1.5310   11.3480   18.6470 H   0  0  0  0  0  0  0  0  0  0  0  0
   -1.0920   13.0530   18.6250 H   0  0  0  0  0  0  0  0  0  0  0  0
    0.6260   11.6110   17.5420 H   0  0  0  0  0  0  0  0  0  0  0  0
    1.3070   12.4850   18.9190 H   0  0  0  0  0  0  0  0  0  0  0  0
    1.3040    9.5580   21.1960 H   0  0  0  0  0  0  0  0  0  0  0  0
    1.6320   11.2630   21.0750 H   0  0  0  0  0  0  0  0  0  0  0  0
   -0.4940   10.8650   22.3030 H   0  0  0  0  0  0  0  0  0  0  0  0
   -1.1430    9.9760   20.9250 H   0  0  0  0  0  0  0  0  0  0  0  0
   -4.0560   12.7760   22.2060 C   0  0  2  0  0  3  0  0  0  0  0  0
   -2.7620   12.5370   22.2970 N   0  0  0  0  0  0  0  0  0  0  0  0
   -2.3610   12.4500   20.9850 C   0  0  0  0  0  0  0  0  0  0  0  0
   -3.3410   12.6370   20.0840 N   0  0  0  0  0  2  0  0  0  0  0  0
   -4.4040   12.8340   20.8820 N   0  0  0  0  0  0  0  0  0  0  0  0
   -5.3160   12.9940   20.4620 H   0  0  0  0  0  0  0  0  0  0  0  0
   -5.0270   12.9690   23.3130 C   0  0  0  0  0  0  0  0  0  0  0  0
   -5.9660   12.4340   23.1000 H   0  0  0  0  0  0  0  0  0  0  0  0
   -5.2690   14.0370   23.3860 H   0  0  0  0  0  0  0  0  0  0  0  0
   -4.4680   12.4810   24.6450 C   0  0  0  0  0  0  0  0  0  0  0  0
   -5.0800   11.6620   25.0380 H   0  0  0  0  0  0  0  0  0  0  0  0
   -3.4440   12.1120   24.5340 H   0  0  0  0  0  0  0  0  0  0  0  0
   -4.4630   13.2870   25.3910 H   0  0  0  0  0  0  0  0  0  0  0  0
    1.8570    8.1360   19.0430 C   0  0  0  0  0  0  0  0  0  0  0  0
    1.6070    7.7360   20.3760 C   0  0  0  0  0  0  0  0  0  0  0  0
    1.9980    6.4150   20.4670 C   0  0  0  0  0  0  0  0  0  0  0  0
    2.3950    6.0450   19.1850 N   0  0  0  0  0  0  0  0  0  0  0  0
    2.3910    7.1200   18.3500 N   0  0  0  0  0  0  0  0  0  0  0  0
    1.2390    8.3630   21.1790 H   0  0  0  0  0  0  0  0  0  0  0  0
    2.7950    4.7760   18.6540 C   0  0  0  0  0  0  0  0  0  0  0  0
    4.0160    4.2190   19.0870 C   0  0  0  0  0  0  0  0  0  0  0  0
    4.4500    2.9820   18.6040 C   0  0  0  0  0  0  0  0  0  0  0  0
    3.6730    2.3000   17.6780 C   0  0  0  0  0  0  0  0  0  0  0  0
    4.0830    1.1120   17.2170 F   0  0  0  0  0  0  0  0  0  0  0  0
    2.4770    2.8370   17.2210 C   0  0  0  0  0  0  0  0  0  0  0  0
    2.0370    4.0780   17.7020 C   0  0  0  0  0  0  0  0  0  0  0  0
    4.6400    4.7300   19.8210 H   0  0  0  0  0  0  0  0  0  0  0  0
    5.3850    2.5510   18.9480 H   0  0  0  0  0  0  0  0  0  0  0  0
    1.8940    2.2930   16.4830 H   0  0  0  0  0  0  0  0  0  0  0  0
    1.1210    4.4720   17.2810 H   0  0  0  0  0  0  0  0  0  0  0  0
    2.0550    5.5830   21.6950 C   0  0  0  0  0  0  0  0  0  0  0  0
    1.8860    4.5260   21.4500 H   0  0  0  0  0  0  0  0  0  0  0  0
    3.0410    5.6490   22.1670 H   0  0  0  0  0  0  0  0  0  0  0  0
    1.2770    5.8650   22.4110 H   0  0  0  0  0  0  0  0  0  0  0  0
  1  9  1  0  0  0  0
  1 20  1  0  0  0  0
  1  8  1  0  0  0  0
  2  1  1  0  0  0  0
  3 13  1  0  0  0  0
  3  2  1  0  0  0  0
  3  4  1  0  0  0  0
  4  7  1  0  0  0  0
  5 31  1  0  0  0  0
  5  4  1  0  0  0  0
  6  5  2  0  0  0  0
  7 15  1  0  0  0  0
  7 14  1  0  0  0  0
  7  8  1  0  0  0  0
  8 16  1  0  0  0  0
 10  2  1  0  0  0  0
 11  2  1  0  0  0  0
 12  3  1  0  0  0  0
 17  8  1  0  0  0  0
 18 19  1  0  0  0  0
 18 24  1  6  0  0  0
 20 19  2  0  0  0  0
 21 22  1  0  0  0  0
 21 20  1  0  0  0  0
 22 18  1  0  0  0  0
 23 22  1  0  0  0  0
 24 26  1  0  0  0  0
 24 27  1  0  0  0  0
 25 24  1  0  0  0  0
 27 28  1  0  0  0  0
 27 30  1  0  0  0  0
 29 27  1  0  0  0  0
 31 32  1  0  0  0  0
 32 33  2  0  0  0  0
 32 36  1  0  0  0  0
 33 48  1  0  0  0  0
 34 33  1  0  0  0  0
 35 31  2  0  0  0  0
 35 34  1  0  0  0  0
 37 38  1  0  0  0  0
 37 34  1  0  0  0  0
 38 44  1  0  0  0  0
 39 45  1  0  0  0  0
 39 38  2  0  0  0  0
 40 39  1  0  0  0  0
 41 40  1  0  0  0  0
 42 40  2  0  0  0  0
 42 43  1  0  0  0  0
 43 37  2  0  0  0  0
 46 42  1  0  0  0  0
 47 43  1  0  0  0  0
 48 50  1  0  0  0  0
 48 51  1  0  0  0  0
 49 48  1  0  0  0  0
M  END
>  <MODEL>
17

>  <REMARK>
 VINA RESULT:    -5.855      4.346     10.341
 INTER + INTRA:          -7.389
 INTER:                  -7.348
 INTRA:                  -0.041
 UNBOUND:                 0.178
  Name = 
  6 active torsions:
  status: ('A' for Active; 'I' for Inactive)
    1  A    between atoms: C_1  and  C_2
    2  A    between atoms: C_2  and  C_3
    3  A    between atoms: C_5  and  C_6
    4  A    between atoms: C_10  and  C_12
    5  A    between atoms: C_14  and  C_15
    6  A    between atoms: N_16  and  C_17
                            x       y       z     vdW  Elec       q    Type
                         _______ _______ _______ _____ _____    ______ ____

>  <TORSDO>
F 6

$$$$
=
 OpenBabel07192307433D

 51 54  0  0  1  0  0  0  0  0999 V2000
    3.1560    6.0720   17.8920 C   0  0  0  0  0  0  0  0  0  0  0  0
    4.0490    7.3000   17.6640 C   0  0  0  0  0  0  0  0  0  0  0  0
    3.2330    8.5080   17.2110 C   0  0  0  0  0  0  0  0  0  0  0  0
    2.1370    8.7600   18.1370 N   0  0  0  0  0  0  0  0  0  0  0  0
    1.8590   10.0850   18.5040 C   0  0  0  0  0  0  0  0  0  0  0  0
    2.3780   11.0340   17.9080 O   0  0  0  0  0  0  0  0  0  0  0  0
    1.2310    7.6300   18.3410 C   0  0  0  0  0  0  0  0  0  0  0  0
    2.0000    6.4140   18.8490 C   0  0  0  0  0  0  0  0  0  0  0  0
    2.7140    5.7930   16.9250 H   0  0  0  0  0  0  0  0  0  0  0  0
    4.5730    7.5520   18.5970 H   0  0  0  0  0  0  0  0  0  0  0  0
    4.8230    7.0780   16.9190 H   0  0  0  0  0  0  0  0  0  0  0  0
    3.8920    9.3790   17.1350 H   0  0  0  0  0  0  0  0  0  0  0  0
    2.8000    8.3350   16.2170 H   0  0  0  0  0  0  0  0  0  0  0  0
    0.3920    7.8610   18.9970 H   0  0  0  0  0  0  0  0  0  0  0  0
    0.7830    7.4050   17.3640 H   0  0  0  0  0  0  0  0  0  0  0  0
    1.3200    5.5580   18.9410 H   0  0  0  0  0  0  0  0  0  0  0  0
    2.3860    6.6260   19.8540 H   0  0  0  0  0  0  0  0  0  0  0  0
    4.5120    3.1920   19.4750 C   0  0  2  0  0  3  0  0  0  0  0  0
    3.4790    3.9860   19.2660 N   0  0  0  0  0  0  0  0  0  0  0  0
    3.9660    4.9140   18.3770 C   0  0  0  0  0  0  0  0  0  0  0  0
    5.2470    4.7270   18.0130 N   0  0  0  0  0  2  0  0  0  0  0  0
    5.5710    3.6350   18.7270 N   0  0  0  0  0  0  0  0  0  0  0  0
    6.5140    3.2610   18.6580 H   0  0  0  0  0  0  0  0  0  0  0  0
    4.5790    1.9950   20.3530 C   0  0  0  0  0  0  0  0  0  0  0  0
    5.5160    1.9930   20.9300 H   0  0  0  0  0  0  0  0  0  0  0  0
    4.5820    1.0970   19.7220 H   0  0  0  0  0  0  0  0  0  0  0  0
    3.4000    1.9380   21.3180 C   0  0  0  0  0  0  0  0  0  0  0  0
    2.4630    2.1270   20.7840 H   0  0  0  0  0  0  0  0  0  0  0  0
    3.3240    0.9560   21.7940 H   0  0  0  0  0  0  0  0  0  0  0  0
    3.4980    2.6940   22.1070 H   0  0  0  0  0  0  0  0  0  0  0  0
    0.9680   10.3510   19.6540 C   0  0  0  0  0  0  0  0  0  0  0  0
    1.0350    9.7030   20.9090 C   0  0  0  0  0  0  0  0  0  0  0  0
   -0.0420   10.1610   21.6430 C   0  0  0  0  0  0  0  0  0  0  0  0
   -0.6710   11.1110   20.8440 N   0  0  0  0  0  0  0  0  0  0  0  0
   -0.1050   11.1540   19.6070 N   0  0  0  0  0  0  0  0  0  0  0  0
    1.7550    8.9530   21.2100 H   0  0  0  0  0  0  0  0  0  0  0  0
   -1.7710   11.9890   21.1160 C   0  0  0  0  0  0  0  0  0  0  0  0
   -2.7020   12.2410   20.0860 C   0  0  0  0  0  0  0  0  0  0  0  0
   -3.7950   13.0840   20.3000 C   0  0  0  0  0  0  0  0  0  0  0  0
   -3.9570   13.6900   21.5370 C   0  0  0  0  0  0  0  0  0  0  0  0
   -5.0070   14.4950   21.7470 F   0  0  0  0  0  0  0  0  0  0  0  0
   -3.0430   13.4750   22.5600 C   0  0  0  0  0  0  0  0  0  0  0  0
   -1.9450   12.6290   22.3510 C   0  0  0  0  0  0  0  0  0  0  0  0
   -2.6020   11.7690   19.1080 H   0  0  0  0  0  0  0  0  0  0  0  0
   -4.5150   13.2660   19.5090 H   0  0  0  0  0  0  0  0  0  0  0  0
   -3.1820   13.9730   23.5150 H   0  0  0  0  0  0  0  0  0  0  0  0
   -1.2390   12.5290   23.1660 H   0  0  0  0  0  0  0  0  0  0  0  0
   -0.4830    9.6820   22.9770 C   0  0  0  0  0  0  0  0  0  0  0  0
    0.3340    9.7690   23.7050 H   0  0  0  0  0  0  0  0  0  0  0  0
   -1.3150   10.2850   23.3540 H   0  0  0  0  0  0  0  0  0  0  0  0
   -0.7660    8.6250   22.9530 H   0  0  0  0  0  0  0  0  0  0  0  0
  1 20  1  0  0  0  0
  1  8  1  0  0  0  0
  2  1  1  0  0  0  0
  2 10  1  0  0  0  0
  3  2  1  0  0  0  0
  3  4  1  0  0  0  0
  4  7  1  0  0  0  0
  4  5  1  0  0  0  0
  5 31  1  0  0  0  0
  6  5  2  0  0  0  0
  7  8  1  0  0  0  0
  7 14  1  0  0  0  0
  8 16  1  0  0  0  0
  8 17  1  0  0  0  0
  9  1  1  0  0  0  0
 11  2  1  0  0  0  0
 12  3  1  0  0  0  0
 13  3  1  0  0  0  0
 15  7  1  0  0  0  0
 18 24  1  6  0  0  0
 19 18  1  0  0  0  0
 20 19  2  0  0  0  0
 21 20  1  0  0  0  0
 21 22  1  0  0  0  0
 22 18  1  0  0  0  0
 23 22  1  0  0  0  0
 24 25  1  0  0  0  0
 24 27  1  0  0  0  0
 26 24  1  0  0  0  0
 27 29  1  0  0  0  0
 27 30  1  0  0  0  0
 28 27  1  0  0  0  0
 31 32  1  0  0  0  0
 32 36  1  0  0  0  0
 32 33  2  0  0  0  0
 33 48  1  0  0  0  0
 34 37  1  0  0  0  0
 34 33  1  0  0  0  0
 35 31  2  0  0  0  0
 35 34  1  0  0  0  0
 37 43  1  0  0  0  0
 38 39  1  0  0  0  0
 38 37  2  0  0  0  0
 39 40  2  0  0  0  0
 40 41  1  0  0  0  0
 40 42  1  0  0  0  0
 42 46  1  0  0  0  0
 43 42  2  0  0  0  0
 43 47  1  0  0  0  0
 44 38  1  0  0  0  0
 45 39  1  0  0  0  0
 48 50  1  0  0  0  0
 48 49  1  0  0  0  0
 51 48  1  0  0  0  0
M  END
>  <MODEL>
18

>  <REMARK>
 VINA RESULT:    -5.811      3.269      4.834
 INTER + INTRA:          -7.332
 INTER:                  -6.807
 INTRA:                  -0.525
 UNBOUND:                 0.178
  Name = 
  6 active torsions:
  status: ('A' for Active; 'I' for Inactive)
    1  A    between atoms: C_1  and  C_2
    2  A    between atoms: C_2  and  C_3
    3  A    between atoms: C_5  and  C_6
    4  A    between atoms: C_10  and  C_12
    5  A    between atoms: C_14  and  C_15
    6  A    between atoms: N_16  and  C_17
                            x       y       z     vdW  Elec       q    Type
                         _______ _______ _______ _____ _____    ______ ____

>  <TORSDO>
F 6

$$$$
=
 OpenBabel07192307433D

 51 54  0  0  1  0  0  0  0  0999 V2000
    4.3800   15.1530   20.5120 C   0  0  0  0  0  0  0  0  0  0  0  0
    3.8490   15.1110   21.9530 C   0  0  0  0  0  0  0  0  0  0  0  0
    2.3310   15.2670   21.9930 C   0  0  0  0  0  0  0  0  0  0  0  0
    1.6950   14.2900   21.1190 N   0  0  0  0  0  0  0  0  0  0  0  0
    0.5450   13.6280   21.5760 C   0  0  0  0  0  0  0  0  0  0  0  0
   -0.0440   14.0020   22.5950 O   0  0  0  0  0  0  0  0  0  0  0  0
    2.1350   14.3320   19.7250 C   0  0  0  0  0  0  0  0  0  0  0  0
    3.6440   14.1250   19.6350 C   0  0  0  0  0  0  0  0  0  0  0  0
    4.1660   16.1510   20.1040 H   0  0  0  0  0  0  0  0  0  0  0  0
    4.1230   14.1540   22.4190 H   0  0  0  0  0  0  0  0  0  0  0  0
    4.3160   15.9000   22.5560 H   0  0  0  0  0  0  0  0  0  0  0  0
    1.9850   15.1540   23.0250 H   0  0  0  0  0  0  0  0  0  0  0  0
    2.0320   16.2670   21.6520 H   0  0  0  0  0  0  0  0  0  0  0  0
    1.6070   13.6270   19.0830 H   0  0  0  0  0  0  0  0  0  0  0  0
    1.8730   15.3280   19.3410 H   0  0  0  0  0  0  0  0  0  0  0  0
    3.9690   14.2170   18.5920 H   0  0  0  0  0  0  0  0  0  0  0  0
    3.8870   13.1040   19.9560 H   0  0  0  0  0  0  0  0  0  0  0  0
    7.8200   14.5410   21.1700 C   0  0  2  0  0  3  0  0  0  0  0  0
    6.5680   14.5140   21.5840 N   0  0  0  0  0  0  0  0  0  0  0  0
    5.8610   14.9550   20.4910 C   0  0  0  0  0  0  0  0  0  0  0  0
    6.6120   15.2420   19.4140 N   0  0  0  0  0  2  0  0  0  0  0  0
    7.8480   14.9790   19.8720 N   0  0  0  0  0  0  0  0  0  0  0  0
    8.6440   15.1230   19.2560 H   0  0  0  0  0  0  0  0  0  0  0  0
    9.0400   14.1650   21.9280 C   0  0  0  0  0  0  0  0  0  0  0  0
    9.0680   14.6870   22.8970 H   0  0  0  0  0  0  0  0  0  0  0  0
    9.9210   14.4850   21.3590 H   0  0  0  0  0  0  0  0  0  0  0  0
    9.1100   12.6610   22.1720 C   0  0  0  0  0  0  0  0  0  0  0  0
    8.2100   12.3180   22.6940 H   0  0  0  0  0  0  0  0  0  0  0  0
    9.1830   12.1090   21.2300 H   0  0  0  0  0  0  0  0  0  0  0  0
    9.9780   12.4000   22.7910 H   0  0  0  0  0  0  0  0  0  0  0  0
    0.0560   12.4330   20.8530 C   0  0  0  0  0  0  0  0  0  0  0  0
    0.4190   11.0970   21.1400 C   0  0  0  0  0  0  0  0  0  0  0  0
   -0.1640   10.3160   20.1620 C   0  0  0  0  0  0  0  0  0  0  0  0
   -0.9090   11.1860   19.3720 N   0  0  0  0  0  0  0  0  0  0  0  0
   -0.6970   12.4780   19.7450 N   0  0  0  0  0  0  0  0  0  0  0  0
    1.0740   10.7630   21.9350 H   0  0  0  0  0  0  0  0  0  0  0  0
   -1.8040   10.9350   18.2820 C   0  0  0  0  0  0  0  0  0  0  0  0
   -3.0530   11.5910   18.2700 C   0  0  0  0  0  0  0  0  0  0  0  0
   -3.9600   11.3860   17.2270 C   0  0  0  0  0  0  0  0  0  0  0  0
   -3.6300   10.5170   16.1980 C   0  0  0  0  0  0  0  0  0  0  0  0
   -4.4950   10.3220   15.1940 F   0  0  0  0  0  0  0  0  0  0  0  0
   -2.4160    9.8430   16.1970 C   0  0  0  0  0  0  0  0  0  0  0  0
   -1.5020   10.0460   17.2400 C   0  0  0  0  0  0  0  0  0  0  0  0
   -3.3310   12.2870   19.0620 H   0  0  0  0  0  0  0  0  0  0  0  0
   -4.9150   11.9010   17.2160 H   0  0  0  0  0  0  0  0  0  0  0  0
   -2.1870    9.1550   15.3890 H   0  0  0  0  0  0  0  0  0  0  0  0
   -0.5890    9.4640   17.2150 H   0  0  0  0  0  0  0  0  0  0  0  0
    0.0270    8.8590   19.9500 C   0  0  0  0  0  0  0  0  0  0  0  0
    0.4670    8.3960   20.8430 H   0  0  0  0  0  0  0  0  0  0  0  0
   -0.9310    8.3610   19.7700 H   0  0  0  0  0  0  0  0  0  0  0  0
    0.7160    8.6580   19.1240 H   0  0  0  0  0  0  0  0  0  0  0  0
  1  2  1  0  0  0  0
  2  3  1  0  0  0  0
  2 10  1  0  0  0  0
  2 11  1  0  0  0  0
  3 12  1  0  0  0  0
  4  5  1  0  0  0  0
  4  3  1  0  0  0  0
  5  6  2  0  0  0  0
  7  4  1  0  0  0  0
  8  7  1  0  0  0  0
  8 17  1  0  0  0  0
  8  1  1  0  0  0  0
  9  1  1  0  0  0  0
 13  3  1  0  0  0  0
 14  7  1  0  0  0  0
 15  7  1  0  0  0  0
 16  8  1  0  0  0  0
 18 19  1  0  0  0  0
 18 24  1  6  0  0  0
 20  1  1  0  0  0  0
 20 19  2  0  0  0  0
 21 22  1  0  0  0  0
 21 20  1  0  0  0  0
 22 18  1  0  0  0  0
 23 22  1  0  0  0  0
 24 27  1  0  0  0  0
 24 25  1  0  0  0  0
 26 24  1  0  0  0  0
 27 28  1  0  0  0  0
 27 30  1  0  0  0  0
 29 27  1  0  0  0  0
 31 32  1  0  0  0  0
 31  5  1  0  0  0  0
 32 36  1  0  0  0  0
 33 32  2  0  0  0  0
 34 35  1  0  0  0  0
 34 33  1  0  0  0  0
 35 31  2  0  0  0  0
 37 34  1  0  0  0  0
 38 37  1  0  0  0  0
 38 44  1  0  0  0  0
 39 38  2  0  0  0  0
 40 39  1  0  0  0  0
 41 40  1  0  0  0  0
 42 40  2  0  0  0  0
 42 43  1  0  0  0  0
 43 37  2  0  0  0  0
 45 39  1  0  0  0  0
 46 42  1  0  0  0  0
 47 43  1  0  0  0  0
 48 33  1  0  0  0  0
 48 49  1  0  0  0  0
 50 48  1  0  0  0  0
 51 48  1  0  0  0  0
M  END
>  <MODEL>
19

>  <REMARK>
 VINA RESULT:    -5.707      7.029      9.279
 INTER + INTRA:          -7.197
 INTER:                  -6.614
 INTRA:                  -0.583
 UNBOUND:                 0.178
  Name = 
  6 active torsions:
  status: ('A' for Active; 'I' for Inactive)
    1  A    between atoms: C_1  and  C_2
    2  A    between atoms: C_2  and  C_3
    3  A    between atoms: C_5  and  C_6
    4  A    between atoms: C_10  and  C_12
    5  A    between atoms: C_14  and  C_15
    6  A    between atoms: N_16  and  C_17
                            x       y       z     vdW  Elec       q    Type
                         _______ _______ _______ _____ _____    ______ ____

>  <TORSDO>
F 6

$$$$
