=
 OpenBabel07192307433D

 47 50  0  0  1  0  0  0  0  0999 V2000
    0.4640   10.4250   19.7240 C   0  0  0  0  0  0  0  0  0  0  0  0
    0.2930   10.4120   21.1220 C   0  0  0  0  0  0  0  0  0  0  0  0
    0.7010    9.3250   21.8970 C   0  0  0  0  0  0  0  0  0  0  0  0
    1.3310    8.2360   21.2900 C   0  0  0  0  0  0  0  0  0  0  0  0
    1.5720    8.2230   19.9080 C   0  0  0  0  0  0  0  0  0  0  0  0
    1.0920    9.3020   19.1220 C   0  0  0  0  0  0  0  0  0  0  0  0
    1.0920    9.1680   17.3810 Cl  0  0  0  0  0  0  0  0  0  0  0  0
   -0.1970   11.2470   21.6250 H   0  0  0  0  0  0  0  0  0  0  0  0
    1.6810    7.4270   21.9260 H   0  0  0  0  0  0  0  0  0  0  0  0
    2.2930    7.1250   19.3650 N   0  0  0  0  0  0  0  0  0  0  0  0
    3.2070    7.2540   18.2410 C   0  0  0  0  0  0  0  0  0  0  0  0
    3.7330    5.8610   18.0750 C   0  0  0  0  0  0  0  0  0  0  0  0
    3.0700    5.0050   18.9490 C   0  0  0  0  0  0  0  0  0  0  0  0
    3.3240    3.6480   19.0050 C   0  0  0  0  0  0  0  0  0  0  0  0
    4.2940    3.1410   18.1420 C   0  0  0  0  0  0  0  0  0  0  0  0
    4.9770    3.9930   17.2530 C   0  0  0  0  0  0  0  0  0  0  0  0
    4.7010    5.3730   17.2010 C   0  0  0  0  0  0  0  0  0  0  0  0
    2.1120    5.7920   19.7350 C   0  0  0  0  0  0  0  0  0  0  0  0
    1.3040    5.2900   20.4920 O   0  0  0  0  0  0  0  0  0  0  0  0
    2.6630    7.5570   17.3400 H   0  0  0  0  0  0  0  0  0  0  0  0
    4.0020    7.9620   18.4950 H   0  0  0  0  0  0  0  0  0  0  0  0
    2.7860    3.0090   19.6970 H   0  0  0  0  0  0  0  0  0  0  0  0
    4.5250    2.0780   18.1570 H   0  0  0  0  0  0  0  0  0  0  0  0
    5.7310    3.5630   16.5940 H   0  0  0  0  0  0  0  0  0  0  0  0
    5.4390    6.2870   16.2600 C   0  0  0  0  0  0  0  0  0  0  0  0
    6.2830    5.6040   15.4400 F   0  0  0  0  0  0  0  0  0  0  0  0
    6.2140    7.1950   16.9190 F   0  0  0  0  0  0  0  0  0  0  0  0
    4.6220    7.0100   15.4500 F   0  0  0  0  0  0  0  0  0  0  0  0
   -0.0200   11.6180   18.9010 C   0  0  2  0  0  0  0  0  0  0  0  0
    0.0140   11.3070   17.8500 H   0  0  0  0  0  0  0  0  0  0  0  0
    0.8780   12.8640   18.9270 C   0  0  0  0  0  0  0  0  0  0  0  0
    1.4890   12.8810   19.8400 H   0  0  0  0  0  0  0  0  0  0  0  0
    1.5670   12.8660   18.0750 H   0  0  0  0  0  0  0  0  0  0  0  0
    0.3200   13.8010   18.9000 H   0  0  0  0  0  0  0  0  0  0  0  0
   -1.7750   12.0580   19.1970 S   0  0  0  0  0  0  0  0  0  0  0  0
   -2.6060   11.5630   17.7680 C   0  0  0  0  0  0  0  0  0  0  0  0
   -2.0880   11.1350   16.6420 N   0  0  0  0  0  0  0  0  0  0  0  0
   -3.1210   10.8610   15.7740 N   0  0  0  0  0  0  0  0  0  0  0  0
   -4.2440   11.1310   16.3970 C   0  0  0  0  0  0  0  0  0  0  0  0
   -3.9690   11.5780   17.6570 N   0  0  0  0  0  0  0  0  0  0  0  0
   -5.2390   11.0210   15.9950 H   0  0  0  0  0  0  0  0  0  0  0  0
   -4.9420   11.9730   18.6370 C   0  0  0  0  0  0  0  0  0  0  0  0
   -5.8670   12.2630   18.1340 H   0  0  0  0  0  0  0  0  0  0  0  0
   -5.1470   11.1290   19.3020 H   0  0  0  0  0  0  0  0  0  0  0  0
   -4.5440   12.8230   19.2000 H   0  0  0  0  0  0  0  0  0  0  0  0
    0.5030    9.3320   23.3170 C   0  0  0  0  0  0  0  0  0  0  0  0
    0.3800    9.3400   24.4710 N   0  0  0  0  0  0  0  0  0  0  0  0
  1  2  1  0  0  0  0
  2  8  1  0  0  0  0
  2  3  2  0  0  0  0
  3 46  1  0  0  0  0
  4  3  1  0  0  0  0
  4  9  1  0  0  0  0
  5  4  2  0  0  0  0
  6  1  2  0  0  0  0
  6  5  1  0  0  0  0
  7  6  1  0  0  0  0
 10 18  1  0  0  0  0
 10  5  1  0  0  0  0
 11 21  1  0  0  0  0
 11 10  1  0  0  0  0
 12 11  1  0  0  0  0
 12 13  1  0  0  0  0
 13 14  2  0  0  0  0
 13 18  1  0  0  0  0
 14 22  1  0  0  0  0
 15 23  1  0  0  0  0
 15 14  1  0  0  0  0
 16 15  2  0  0  0  0
 17 16  1  0  0  0  0
 17 12  2  0  0  0  0
 18 19  2  0  0  0  0
 20 11  1  0  0  0  0
 24 16  1  0  0  0  0
 25 27  1  0  0  0  0
 25 17  1  0  0  0  0
 26 25  1  0  0  0  0
 28 25  1  0  0  0  0
 29 30  1  6  0  0  0
 29 31  1  0  0  0  0
 29 35  1  0  0  0  0
 29  1  1  0  0  0  0
 31 32  1  0  0  0  0
 33 31  1  0  0  0  0
 34 31  1  0  0  0  0
 36 35  1  0  0  0  0
 37 36  2  0  0  0  0
 38 39  2  0  0  0  0
 38 37  1  0  0  0  0
 39 40  1  0  0  0  0
 40 36  1  0  0  0  0
 40 42  1  0  0  0  0
 41 39  1  0  0  0  0
 42 45  1  0  0  0  0
 42 44  1  0  0  0  0
 43 42  1  0  0  0  0
 46 47  3  0  0  0  0
M  END
>  <MODEL>
1

>  <REMARK>
 VINA RESULT:    -8.904      0.000      0.000
 INTER + INTRA:         -11.138
 INTER:                 -10.634
 INTRA:                  -0.504
 UNBOUND:                 1.409
  Name = 
  8 active torsions:
  status: ('A' for Active; 'I' for Inactive)
    1  A    between atoms: C_1  and  C_2
    2  A    between atoms: C_2  and  S_3
    3  A    between atoms: C_2  and  C_10
    4  A    between atoms: S_3  and  C_4
    5  A    between atoms: N_8  and  C_9
    6  A    between atoms: C_12  and  C_13
    7  A    between atoms: C_16  and  N_17
    8  A    between atoms: C_24  and  C_25
                            x       y       z     vdW  Elec       q    Type
                         _______ _______ _______ _____ _____    ______ ____

>  <TORSDO>
F 8

$$$$
=
 OpenBabel07192307433D

 47 50  0  0  1  0  0  0  0  0999 V2000
    0.8500   10.4600   19.5170 C   0  0  0  0  0  0  0  0  0  0  0  0
    0.5900   10.4730   20.9020 C   0  0  0  0  0  0  0  0  0  0  0  0
    0.7620    9.3320   21.6870 C   0  0  0  0  0  0  0  0  0  0  0  0
    1.2420    8.1550   21.1080 C   0  0  0  0  0  0  0  0  0  0  0  0
    1.5660    8.1050   19.7440 C   0  0  0  0  0  0  0  0  0  0  0  0
    1.3220    9.2500   18.9420 C   0  0  0  0  0  0  0  0  0  0  0  0
    1.4110    9.1210   17.2030 Cl  0  0  0  0  0  0  0  0  0  0  0  0
    0.2130   11.3760   21.3830 H   0  0  0  0  0  0  0  0  0  0  0  0
    1.4130    7.2980   21.7540 H   0  0  0  0  0  0  0  0  0  0  0  0
    2.1300    6.9040   19.2330 N   0  0  0  0  0  0  0  0  0  0  0  0
    1.7270    5.5820   19.6860 C   0  0  0  0  0  0  0  0  0  0  0  0
    2.5610    4.6690   18.8410 C   0  0  0  0  0  0  0  0  0  0  0  0
    3.4470    5.4230   18.0750 C   0  0  0  0  0  0  0  0  0  0  0  0
    4.3650    4.8520   17.2150 C   0  0  0  0  0  0  0  0  0  0  0  0
    4.3820    3.4620   17.1240 C   0  0  0  0  0  0  0  0  0  0  0  0
    3.4910    2.6840   17.8890 C   0  0  0  0  0  0  0  0  0  0  0  0
    2.5660    3.2790   18.7680 C   0  0  0  0  0  0  0  0  0  0  0  0
    3.2170    6.8440   18.3600 C   0  0  0  0  0  0  0  0  0  0  0  0
    3.9290    7.7300   17.9290 O   0  0  0  0  0  0  0  0  0  0  0  0
    1.9800    5.4480   20.7420 H   0  0  0  0  0  0  0  0  0  0  0  0
    0.6560    5.4430   19.5020 H   0  0  0  0  0  0  0  0  0  0  0  0
    5.0430    5.4700   16.6350 H   0  0  0  0  0  0  0  0  0  0  0  0
    5.0880    2.9740   16.4550 H   0  0  0  0  0  0  0  0  0  0  0  0
    3.5300    1.5990   17.7910 H   0  0  0  0  0  0  0  0  0  0  0  0
    1.6050    2.4490   19.5770 C   0  0  0  0  0  0  0  0  0  0  0  0
    1.7760    2.6270   20.9150 F   0  0  0  0  0  0  0  0  0  0  0  0
    1.7600    1.1130   19.3570 F   0  0  0  0  0  0  0  0  0  0  0  0
    0.2990    2.7220   19.3200 F   0  0  0  0  0  0  0  0  0  0  0  0
    0.6220   11.7180   18.6800 C   0  0  2  0  0  0  0  0  0  0  0  0
    0.4790   11.3830   17.6460 H   0  0  0  0  0  0  0  0  0  0  0  0
    1.8130   12.6830   18.5750 C   0  0  0  0  0  0  0  0  0  0  0  0
    1.4750   13.7240   18.6580 H   0  0  0  0  0  0  0  0  0  0  0  0
    2.5280   12.5080   19.3870 H   0  0  0  0  0  0  0  0  0  0  0  0
    2.3580   12.5970   17.6340 H   0  0  0  0  0  0  0  0  0  0  0  0
   -0.9220   12.6140   19.0960 S   0  0  0  0  0  0  0  0  0  0  0  0
   -2.1810   11.7080   18.3380 C   0  0  0  0  0  0  0  0  0  0  0  0
   -2.0820   10.8890   17.3190 N   0  0  0  0  0  0  0  0  0  0  0  0
   -3.3380   10.3960   17.0440 N   0  0  0  0  0  0  0  0  0  0  0  0
   -4.1700   10.9310   17.9070 C   0  0  0  0  0  0  0  0  0  0  0  0
   -3.4860   11.7660   18.7410 N   0  0  0  0  0  0  0  0  0  0  0  0
   -5.2330   10.7490   17.9650 H   0  0  0  0  0  0  0  0  0  0  0  0
   -4.0580   12.5320   19.8140 C   0  0  0  0  0  0  0  0  0  0  0  0
   -3.6430   13.5430   19.8000 H   0  0  0  0  0  0  0  0  0  0  0  0
   -5.1410   12.5890   19.6780 H   0  0  0  0  0  0  0  0  0  0  0  0
   -3.8100   12.0430   20.7610 H   0  0  0  0  0  0  0  0  0  0  0  0
    0.4780    9.3690   23.0920 C   0  0  0  0  0  0  0  0  0  0  0  0
    0.2300    9.4320   24.2240 N   0  0  0  0  0  0  0  0  0  0  0  0
  1  2  1  0  0  0  0
  2  8  1  0  0  0  0
  2  3  2  0  0  0  0
  3 46  1  0  0  0  0
  4  3  1  0  0  0  0
  4  9  1  0  0  0  0
  5  4  2  0  0  0  0
  6  1  2  0  0  0  0
  6  5  1  0  0  0  0
  7  6  1  0  0  0  0
 10 11  1  0  0  0  0
 10  5  1  0  0  0  0
 11 20  1  0  0  0  0
 12 11  1  0  0  0  0
 13 18  1  0  0  0  0
 13 12  2  0  0  0  0
 14 13  1  0  0  0  0
 15 14  2  0  0  0  0
 15 16  1  0  0  0  0
 16 17  2  0  0  0  0
 17 12  1  0  0  0  0
 17 25  1  0  0  0  0
 18 10  1  0  0  0  0
 19 18  2  0  0  0  0
 21 11  1  0  0  0  0
 22 14  1  0  0  0  0
 23 15  1  0  0  0  0
 24 16  1  0  0  0  0
 25 26  1  0  0  0  0
 27 25  1  0  0  0  0
 28 25  1  0  0  0  0
 29 30  1  6  0  0  0
 29 35  1  0  0  0  0
 29  1  1  0  0  0  0
 31 32  1  0  0  0  0
 31 29  1  0  0  0  0
 31 33  1  0  0  0  0
 34 31  1  0  0  0  0
 36 40  1  0  0  0  0
 36 35  1  0  0  0  0
 37 36  2  0  0  0  0
 38 37  1  0  0  0  0
 38 39  2  0  0  0  0
 39 41  1  0  0  0  0
 39 40  1  0  0  0  0
 40 42  1  0  0  0  0
 42 45  1  0  0  0  0
 43 42  1  0  0  0  0
 44 42  1  0  0  0  0
 46 47  3  0  0  0  0
M  END
>  <MODEL>
2

>  <REMARK>
 VINA RESULT:    -8.746      2.531      2.983
 INTER + INTRA:         -10.917
 INTER:                 -10.289
 INTRA:                  -0.628
 UNBOUND:                 1.409
  Name = 
  8 active torsions:
  status: ('A' for Active; 'I' for Inactive)
    1  A    between atoms: C_1  and  C_2
    2  A    between atoms: C_2  and  S_3
    3  A    between atoms: C_2  and  C_10
    4  A    between atoms: S_3  and  C_4
    5  A    between atoms: N_8  and  C_9
    6  A    between atoms: C_12  and  C_13
    7  A    between atoms: C_16  and  N_17
    8  A    between atoms: C_24  and  C_25
                            x       y       z     vdW  Elec       q    Type
                         _______ _______ _______ _____ _____    ______ ____

>  <TORSDO>
F 8

$$$$
=
 OpenBabel07192307433D

 47 50  0  0  1  0  0  0  0  0999 V2000
    0.7850   10.4490   19.7280 C   0  0  0  0  0  0  0  0  0  0  0  0
    0.5980   10.4430   21.1250 C   0  0  0  0  0  0  0  0  0  0  0  0
    0.8220    9.2940   21.8860 C   0  0  0  0  0  0  0  0  0  0  0  0
    1.2820    8.1300   21.2680 C   0  0  0  0  0  0  0  0  0  0  0  0
    1.5340    8.0990   19.8880 C   0  0  0  0  0  0  0  0  0  0  0  0
    1.2370    9.2500   19.1150 C   0  0  0  0  0  0  0  0  0  0  0  0
    1.2360    9.1430   17.3720 Cl  0  0  0  0  0  0  0  0  0  0  0  0
    0.2380   11.3360   21.6360 H   0  0  0  0  0  0  0  0  0  0  0  0
    1.4940    7.2670   21.8940 H   0  0  0  0  0  0  0  0  0  0  0  0
    2.0820    6.9100   19.3340 N   0  0  0  0  0  0  0  0  0  0  0  0
    1.6970    5.5780   19.7740 C   0  0  0  0  0  0  0  0  0  0  0  0
    2.5030    4.6840   18.8820 C   0  0  0  0  0  0  0  0  0  0  0  0
    3.3590    5.4550   18.1010 C   0  0  0  0  0  0  0  0  0  0  0  0
    4.2470    4.9040   17.1970 C   0  0  0  0  0  0  0  0  0  0  0  0
    4.2630    3.5160   17.0770 C   0  0  0  0  0  0  0  0  0  0  0  0
    3.4020    2.7210   17.8570 C   0  0  0  0  0  0  0  0  0  0  0  0
    2.5080    3.2950   18.7810 C   0  0  0  0  0  0  0  0  0  0  0  0
    3.1370    6.8700   18.4220 C   0  0  0  0  0  0  0  0  0  0  0  0
    3.8320    7.7660   17.9840 O   0  0  0  0  0  0  0  0  0  0  0  0
    1.9880    5.4230   20.8180 H   0  0  0  0  0  0  0  0  0  0  0  0
    0.6210    5.4400   19.6250 H   0  0  0  0  0  0  0  0  0  0  0  0
    4.9040    5.5350   16.6060 H   0  0  0  0  0  0  0  0  0  0  0  0
    4.9470    3.0430   16.3750 H   0  0  0  0  0  0  0  0  0  0  0  0
    3.4390    1.6380   17.7370 H   0  0  0  0  0  0  0  0  0  0  0  0
    1.5770    2.4470   19.6070 C   0  0  0  0  0  0  0  0  0  0  0  0
    1.7410    1.1200   19.3610 F   0  0  0  0  0  0  0  0  0  0  0  0
    0.2660    2.7150   19.3500 F   0  0  0  0  0  0  0  0  0  0  0  0
    1.7370    2.6100   20.9470 F   0  0  0  0  0  0  0  0  0  0  0  0
    0.5020   11.7150   18.9200 C   0  0  2  0  0  0  0  0  0  0  0  0
    0.5150   11.4200   17.8640 H   0  0  0  0  0  0  0  0  0  0  0  0
    1.5730   12.8140   18.9920 C   0  0  0  0  0  0  0  0  0  0  0  0
    1.1480   13.7860   18.7070 H   0  0  0  0  0  0  0  0  0  0  0  0
    1.9600   12.9140   20.0120 H   0  0  0  0  0  0  0  0  0  0  0  0
    2.4240   12.6320   18.3350 H   0  0  0  0  0  0  0  0  0  0  0  0
   -1.1750   12.4040   19.1890 S   0  0  0  0  0  0  0  0  0  0  0  0
   -2.2190   11.4250   18.2240 C   0  0  0  0  0  0  0  0  0  0  0  0
   -1.8850   10.5740   17.2840 N   0  0  0  0  0  0  0  0  0  0  0  0
   -3.0400   10.0240   16.7750 N   0  0  0  0  0  0  0  0  0  0  0  0
   -4.0500   10.5590   17.4200 C   0  0  0  0  0  0  0  0  0  0  0  0
   -3.5810   11.4490   18.3420 N   0  0  0  0  0  0  0  0  0  0  0  0
   -5.0950   10.3390   17.2630 H   0  0  0  0  0  0  0  0  0  0  0  0
   -4.3880   12.2310   19.2380 C   0  0  0  0  0  0  0  0  0  0  0  0
   -5.4420   11.9870   19.0840 H   0  0  0  0  0  0  0  0  0  0  0  0
   -4.1140   11.9940   20.2690 H   0  0  0  0  0  0  0  0  0  0  0  0
   -4.2180   13.2910   19.0240 H   0  0  0  0  0  0  0  0  0  0  0  0
    0.6110    9.3120   23.3040 C   0  0  0  0  0  0  0  0  0  0  0  0
    0.4540    9.2910   24.4540 N   0  0  0  0  0  0  0  0  0  0  0  0
  1  2  1  0  0  0  0
  2  8  1  0  0  0  0
  2  3  2  0  0  0  0
  3 46  1  0  0  0  0
  4  3  1  0  0  0  0
  4  9  1  0  0  0  0
  5  4  2  0  0  0  0
  6  1  2  0  0  0  0
  6  5  1  0  0  0  0
  7  6  1  0  0  0  0
 10 11  1  0  0  0  0
 10  5  1  0  0  0  0
 11 20  1  0  0  0  0
 12 11  1  0  0  0  0
 13 18  1  0  0  0  0
 13 12  2  0  0  0  0
 14 13  1  0  0  0  0
 15 14  2  0  0  0  0
 15 16  1  0  0  0  0
 16 17  2  0  0  0  0
 17 12  1  0  0  0  0
 17 25  1  0  0  0  0
 18 10  1  0  0  0  0
 19 18  2  0  0  0  0
 21 11  1  0  0  0  0
 22 14  1  0  0  0  0
 23 15  1  0  0  0  0
 24 16  1  0  0  0  0
 25 28  1  0  0  0  0
 26 25  1  0  0  0  0
 27 25  1  0  0  0  0
 29 30  1  6  0  0  0
 29 31  1  0  0  0  0
 29 35  1  0  0  0  0
 29  1  1  0  0  0  0
 31 33  1  0  0  0  0
 32 31  1  0  0  0  0
 34 31  1  0  0  0  0
 36 40  1  0  0  0  0
 36 35  1  0  0  0  0
 37 36  2  0  0  0  0
 38 37  1  0  0  0  0
 38 39  2  0  0  0  0
 39 40  1  0  0  0  0
 40 42  1  0  0  0  0
 41 39  1  0  0  0  0
 42 44  1  0  0  0  0
 43 42  1  0  0  0  0
 45 42  1  0  0  0  0
 46 47  3  0  0  0  0
M  END
>  <MODEL>
3

>  <REMARK>
 VINA RESULT:    -8.686      2.508      2.965
 INTER + INTRA:         -10.832
 INTER:                 -10.135
 INTRA:                  -0.696
 UNBOUND:                 1.409
  Name = 
  8 active torsions:
  status: ('A' for Active; 'I' for Inactive)
    1  A    between atoms: C_1  and  C_2
    2  A    between atoms: C_2  and  S_3
    3  A    between atoms: C_2  and  C_10
    4  A    between atoms: S_3  and  C_4
    5  A    between atoms: N_8  and  C_9
    6  A    between atoms: C_12  and  C_13
    7  A    between atoms: C_16  and  N_17
    8  A    between atoms: C_24  and  C_25
                            x       y       z     vdW  Elec       q    Type
                         _______ _______ _______ _____ _____    ______ ____

>  <TORSDO>
F 8

$$$$
=
 OpenBabel07192307433D

 47 50  0  0  1  0  0  0  0  0999 V2000
   -0.1910   10.8700   20.7740 C   0  0  0  0  0  0  0  0  0  0  0  0
   -1.0140   11.1960   19.6780 C   0  0  0  0  0  0  0  0  0  0  0  0
   -0.9160   10.5140   18.4640 C   0  0  0  0  0  0  0  0  0  0  0  0
   -0.0160    9.4560   18.3320 C   0  0  0  0  0  0  0  0  0  0  0  0
    0.7900    9.0570   19.4090 C   0  0  0  0  0  0  0  0  0  0  0  0
    0.7310    9.8010   20.6160 C   0  0  0  0  0  0  0  0  0  0  0  0
    1.9340    9.5350   21.8530 Cl  0  0  0  0  0  0  0  0  0  0  0  0
   -1.7260   12.0190   19.7500 H   0  0  0  0  0  0  0  0  0  0  0  0
    0.0030    8.9120   17.3900 H   0  0  0  0  0  0  0  0  0  0  0  0
    1.6230    7.9190   19.2370 N   0  0  0  0  0  0  0  0  0  0  0  0
    1.5670    6.7540   20.1060 C   0  0  0  0  0  0  0  0  0  0  0  0
    2.5860    5.8360   19.5050 C   0  0  0  0  0  0  0  0  0  0  0  0
    3.2450    6.4880   18.4670 C   0  0  0  0  0  0  0  0  0  0  0  0
    4.2610    5.9000   17.7390 C   0  0  0  0  0  0  0  0  0  0  0  0
    4.6190    4.5950   18.0740 C   0  0  0  0  0  0  0  0  0  0  0  0
    3.9610    3.9190   19.1190 C   0  0  0  0  0  0  0  0  0  0  0  0
    2.9330    4.5350   19.8590 C   0  0  0  0  0  0  0  0  0  0  0  0
    2.6770    7.8340   18.3260 C   0  0  0  0  0  0  0  0  0  0  0  0
    3.1410    8.6750   17.5810 O   0  0  0  0  0  0  0  0  0  0  0  0
    1.8630    7.0240   21.1250 H   0  0  0  0  0  0  0  0  0  0  0  0
    0.5610    6.3220   20.0750 H   0  0  0  0  0  0  0  0  0  0  0  0
    4.7560    6.4390   16.9370 H   0  0  0  0  0  0  0  0  0  0  0  0
    5.4130    4.0960   17.5220 H   0  0  0  0  0  0  0  0  0  0  0  0
    4.2650    2.8990   19.3530 H   0  0  0  0  0  0  0  0  0  0  0  0
    2.2200    3.8090   20.9690 C   0  0  0  0  0  0  0  0  0  0  0  0
    2.6580    2.5290   21.1070 F   0  0  0  0  0  0  0  0  0  0  0  0
    0.8770    3.7220   20.7540 F   0  0  0  0  0  0  0  0  0  0  0  0
    2.3670    4.3960   22.1860 F   0  0  0  0  0  0  0  0  0  0  0  0
   -0.3020   11.6560   22.0800 C   0  0  2  0  0  0  0  0  0  0  0  0
    0.5810   11.3970   22.6760 H   0  0  0  0  0  0  0  0  0  0  0  0
   -1.4710   11.2720   23.0000 C   0  0  0  0  0  0  0  0  0  0  0  0
   -1.9410   10.3400   22.6590 H   0  0  0  0  0  0  0  0  0  0  0  0
   -1.1200   11.1030   24.0250 H   0  0  0  0  0  0  0  0  0  0  0  0
   -2.2550   12.0290   23.0430 H   0  0  0  0  0  0  0  0  0  0  0  0
   -0.1990   13.4720   21.8620 S   0  0  0  0  0  0  0  0  0  0  0  0
    1.1000   13.7140   20.7500 C   0  0  0  0  0  0  0  0  0  0  0  0
    2.3640   13.4020   20.9070 N   0  0  0  0  0  0  0  0  0  0  0  0
    3.0430   13.7840   19.7730 N   0  0  0  0  0  0  0  0  0  0  0  0
    2.1700   14.3210   18.9520 C   0  0  0  0  0  0  0  0  0  0  0  0
    0.9330   14.3000   19.5260 N   0  0  0  0  0  0  0  0  0  0  0  0
    2.3790   14.7200   17.9710 H   0  0  0  0  0  0  0  0  0  0  0  0
   -0.2760   14.8010   18.9320 C   0  0  0  0  0  0  0  0  0  0  0  0
   -0.8610   15.3300   19.6890 H   0  0  0  0  0  0  0  0  0  0  0  0
   -0.0200   15.4980   18.1280 H   0  0  0  0  0  0  0  0  0  0  0  0
   -0.8510   13.9540   18.5440 H   0  0  0  0  0  0  0  0  0  0  0  0
   -1.7570   10.8750   17.3600 C   0  0  0  0  0  0  0  0  0  0  0  0
   -2.4650   11.1770   16.4920 N   0  0  0  0  0  0  0  0  0  0  0  0
  1 29  1  0  0  0  0
  2  8  1  0  0  0  0
  2  1  2  0  0  0  0
  3  2  1  0  0  0  0
  4  3  2  0  0  0  0
  4  5  1  0  0  0  0
  5  6  2  0  0  0  0
  6  1  1  0  0  0  0
  6  7  1  0  0  0  0
  9  4  1  0  0  0  0
 10  5  1  0  0  0  0
 10 11  1  0  0  0  0
 11 20  1  0  0  0  0
 12 17  1  0  0  0  0
 12 11  1  0  0  0  0
 13 12  2  0  0  0  0
 14 15  2  0  0  0  0
 14 13  1  0  0  0  0
 15 16  1  0  0  0  0
 16 24  1  0  0  0  0
 16 17  2  0  0  0  0
 17 25  1  0  0  0  0
 18 13  1  0  0  0  0
 18 10  1  0  0  0  0
 19 18  2  0  0  0  0
 21 11  1  0  0  0  0
 22 14  1  0  0  0  0
 23 15  1  0  0  0  0
 25 26  1  0  0  0  0
 25 28  1  0  0  0  0
 27 25  1  0  0  0  0
 29 30  1  1  0  0  0
 29 31  1  0  0  0  0
 31 34  1  0  0  0  0
 31 33  1  0  0  0  0
 32 31  1  0  0  0  0
 35 29  1  0  0  0  0
 36 37  2  0  0  0  0
 36 35  1  0  0  0  0
 38 37  1  0  0  0  0
 39 40  1  0  0  0  0
 39 38  2  0  0  0  0
 40 36  1  0  0  0  0
 41 39  1  0  0  0  0
 42 40  1  0  0  0  0
 42 43  1  0  0  0  0
 44 42  1  0  0  0  0
 45 42  1  0  0  0  0
 46  3  1  0  0  0  0
 47 46  3  0  0  0  0
M  END
>  <MODEL>
4

>  <REMARK>
 VINA RESULT:    -8.465      3.350      4.852
 INTER + INTRA:         -10.520
 INTER:                  -9.322
 INTRA:                  -1.198
 UNBOUND:                 1.409
  Name = 
  8 active torsions:
  status: ('A' for Active; 'I' for Inactive)
    1  A    between atoms: C_1  and  C_2
    2  A    between atoms: C_2  and  S_3
    3  A    between atoms: C_2  and  C_10
    4  A    between atoms: S_3  and  C_4
    5  A    between atoms: N_8  and  C_9
    6  A    between atoms: C_12  and  C_13
    7  A    between atoms: C_16  and  N_17
    8  A    between atoms: C_24  and  C_25
                            x       y       z     vdW  Elec       q    Type
                         _______ _______ _______ _____ _____    ______ ____

>  <TORSDO>
F 8

$$$$
=
 OpenBabel07192307433D

 47 50  0  0  1  0  0  0  0  0999 V2000
   -0.4150   10.8640   20.9790 C   0  0  0  0  0  0  0  0  0  0  0  0
   -1.1770   11.2780   19.8700 C   0  0  0  0  0  0  0  0  0  0  0  0
   -1.0150   10.6920   18.6130 C   0  0  0  0  0  0  0  0  0  0  0  0
   -0.1110    9.6410   18.4470 C   0  0  0  0  0  0  0  0  0  0  0  0
    0.6350    9.1560   19.5320 C   0  0  0  0  0  0  0  0  0  0  0  0
    0.5130    9.8050   20.7880 C   0  0  0  0  0  0  0  0  0  0  0  0
    1.6470    9.4370   22.0630 Cl  0  0  0  0  0  0  0  0  0  0  0  0
   -1.8910   12.0970   19.9670 H   0  0  0  0  0  0  0  0  0  0  0  0
   -0.0430    9.1720   17.4690 H   0  0  0  0  0  0  0  0  0  0  0  0
    1.4740    8.0300   19.3180 N   0  0  0  0  0  0  0  0  0  0  0  0
    1.4340    6.8380   20.1510 C   0  0  0  0  0  0  0  0  0  0  0  0
    2.4540    5.9470   19.5120 C   0  0  0  0  0  0  0  0  0  0  0  0
    3.0990    6.6350   18.4880 C   0  0  0  0  0  0  0  0  0  0  0  0
    4.1120    6.0770   17.7330 C   0  0  0  0  0  0  0  0  0  0  0  0
    4.4810    4.7650   18.0240 C   0  0  0  0  0  0  0  0  0  0  0  0
    3.8380    4.0520   19.0540 C   0  0  0  0  0  0  0  0  0  0  0  0
    2.8130    4.6380   19.8220 C   0  0  0  0  0  0  0  0  0  0  0  0
    2.5200    7.9800   18.3940 C   0  0  0  0  0  0  0  0  0  0  0  0
    2.9710    8.8480   17.6710 O   0  0  0  0  0  0  0  0  0  0  0  0
    1.7380    7.0790   21.1750 H   0  0  0  0  0  0  0  0  0  0  0  0
    0.4310    6.4000   20.1150 H   0  0  0  0  0  0  0  0  0  0  0  0
    4.5960    6.6430   16.9440 H   0  0  0  0  0  0  0  0  0  0  0  0
    5.2730    4.2880   17.4500 H   0  0  0  0  0  0  0  0  0  0  0  0
    4.1510    3.0270   19.2540 H   0  0  0  0  0  0  0  0  0  0  0  0
    2.1160    3.8730   20.9160 C   0  0  0  0  0  0  0  0  0  0  0  0
    2.4930    2.5660   20.9470 F   0  0  0  0  0  0  0  0  0  0  0  0
    0.7610    3.8650   20.7620 F   0  0  0  0  0  0  0  0  0  0  0  0
    2.3480    4.3670   22.1600 F   0  0  0  0  0  0  0  0  0  0  0  0
   -0.5940   11.5470   22.3340 C   0  0  2  0  0  0  0  0  0  0  0  0
    0.4040   11.6190   22.7820 H   0  0  0  0  0  0  0  0  0  0  0  0
   -1.3950   10.7620   23.3840 C   0  0  0  0  0  0  0  0  0  0  0  0
   -1.0630    9.7160   23.4210 H   0  0  0  0  0  0  0  0  0  0  0  0
   -1.2450   11.1850   24.3840 H   0  0  0  0  0  0  0  0  0  0  0  0
   -2.4680   10.7500   23.1910 H   0  0  0  0  0  0  0  0  0  0  0  0
   -1.1760   13.2810   22.2170 S   0  0  0  0  0  0  0  0  0  0  0  0
   -2.8600   13.2130   22.5880 C   0  0  0  0  0  0  0  0  0  0  0  0
   -3.8160   12.6450   21.8940 N   0  0  0  0  0  0  0  0  0  0  0  0
   -5.0050   12.8440   22.5600 N   0  0  0  0  0  0  0  0  0  0  0  0
   -4.7380   13.5300   23.6460 C   0  0  0  0  0  0  0  0  0  0  0  0
   -3.4000   13.7870   23.7060 N   0  0  0  0  0  0  0  0  0  0  0  0
   -5.4530   13.8490   24.3900 H   0  0  0  0  0  0  0  0  0  0  0  0
   -2.7310   14.5160   24.7490 C   0  0  0  0  0  0  0  0  0  0  0  0
   -3.3980   15.2910   25.1340 H   0  0  0  0  0  0  0  0  0  0  0  0
   -2.4760   13.8290   25.5610 H   0  0  0  0  0  0  0  0  0  0  0  0
   -1.8300   14.9750   24.3310 H   0  0  0  0  0  0  0  0  0  0  0  0
   -1.7960   11.1420   17.4970 C   0  0  0  0  0  0  0  0  0  0  0  0
   -2.4260   11.4710   16.5800 N   0  0  0  0  0  0  0  0  0  0  0  0
  1 29  1  0  0  0  0
  2  8  1  0  0  0  0
  2  1  2  0  0  0  0
  3  2  1  0  0  0  0
  4  3  2  0  0  0  0
  4  5  1  0  0  0  0
  5  6  2  0  0  0  0
  6  1  1  0  0  0  0
  6  7  1  0  0  0  0
  9  4  1  0  0  0  0
 10  5  1  0  0  0  0
 10 11  1  0  0  0  0
 11 20  1  0  0  0  0
 12 17  1  0  0  0  0
 12 11  1  0  0  0  0
 13 12  2  0  0  0  0
 14 15  2  0  0  0  0
 14 13  1  0  0  0  0
 15 16  1  0  0  0  0
 16 24  1  0  0  0  0
 16 17  2  0  0  0  0
 17 25  1  0  0  0  0
 18 13  1  0  0  0  0
 18 10  1  0  0  0  0
 19 18  2  0  0  0  0
 21 11  1  0  0  0  0
 22 14  1  0  0  0  0
 23 15  1  0  0  0  0
 25 26  1  0  0  0  0
 25 28  1  0  0  0  0
 27 25  1  0  0  0  0
 29 30  1  1  0  0  0
 29 31  1  0  0  0  0
 31 32  1  0  0  0  0
 31 33  1  0  0  0  0
 34 31  1  0  0  0  0
 35 29  1  0  0  0  0
 35 36  1  0  0  0  0
 36 40  1  0  0  0  0
 37 38  1  0  0  0  0
 37 36  2  0  0  0  0
 38 39  2  0  0  0  0
 39 40  1  0  0  0  0
 39 41  1  0  0  0  0
 40 42  1  0  0  0  0
 42 43  1  0  0  0  0
 42 44  1  0  0  0  0
 45 42  1  0  0  0  0
 46  3  1  0  0  0  0
 47 46  3  0  0  0  0
M  END
>  <MODEL>
5

>  <REMARK>
 VINA RESULT:    -8.460      3.579      4.906
 INTER + INTRA:         -10.513
 INTER:                  -9.597
 INTRA:                  -0.917
 UNBOUND:                 1.409
  Name = 
  8 active torsions:
  status: ('A' for Active; 'I' for Inactive)
    1  A    between atoms: C_1  and  C_2
    2  A    between atoms: C_2  and  S_3
    3  A    between atoms: C_2  and  C_10
    4  A    between atoms: S_3  and  C_4
    5  A    between atoms: N_8  and  C_9
    6  A    between atoms: C_12  and  C_13
    7  A    between atoms: C_16  and  N_17
    8  A    between atoms: C_24  and  C_25
                            x       y       z     vdW  Elec       q    Type
                         _______ _______ _______ _____ _____    ______ ____

>  <TORSDO>
F 8

$$$$
=
 OpenBabel07192307433D

 47 50  0  0  1  0  0  0  0  0999 V2000
    4.0280    4.9770   18.0360 C   0  0  0  0  0  0  0  0  0  0  0  0
    3.6610    3.9160   18.8870 C   0  0  0  0  0  0  0  0  0  0  0  0
    2.7950    4.1120   19.9640 C   0  0  0  0  0  0  0  0  0  0  0  0
    2.2390    5.3730   20.1900 C   0  0  0  0  0  0  0  0  0  0  0  0
    2.5310    6.4500   19.3400 C   0  0  0  0  0  0  0  0  0  0  0  0
    3.4660    6.2570   18.2910 C   0  0  0  0  0  0  0  0  0  0  0  0
    4.0880    7.6390   17.4230 Cl  0  0  0  0  0  0  0  0  0  0  0  0
    4.0790    2.9210   18.7370 H   0  0  0  0  0  0  0  0  0  0  0  0
    1.5300    5.4820   21.0060 H   0  0  0  0  0  0  0  0  0  0  0  0
    1.8680    7.6850   19.5720 N   0  0  0  0  0  0  0  0  0  0  0  0
    1.1850    7.9980   20.8180 C   0  0  0  0  0  0  0  0  0  0  0  0
    0.6940    9.3950   20.5900 C   0  0  0  0  0  0  0  0  0  0  0  0
    0.9690    9.7780   19.2800 C   0  0  0  0  0  0  0  0  0  0  0  0
    0.6080   11.0090   18.7690 C   0  0  0  0  0  0  0  0  0  0  0  0
   -0.0540   11.8900   19.6220 C   0  0  0  0  0  0  0  0  0  0  0  0
   -0.3380   11.5200   20.9510 C   0  0  0  0  0  0  0  0  0  0  0  0
    0.0280   10.2580   21.4560 C   0  0  0  0  0  0  0  0  0  0  0  0
    1.6670    8.6750   18.6090 C   0  0  0  0  0  0  0  0  0  0  0  0
    1.9220    8.6770   17.4200 O   0  0  0  0  0  0  0  0  0  0  0  0
    0.3350    7.3230   20.9660 H   0  0  0  0  0  0  0  0  0  0  0  0
    1.8960    7.9470   21.6490 H   0  0  0  0  0  0  0  0  0  0  0  0
    0.8360   11.2740   17.7410 H   0  0  0  0  0  0  0  0  0  0  0  0
   -0.3530   12.8710   19.2590 H   0  0  0  0  0  0  0  0  0  0  0  0
   -0.8560   12.2340   21.5920 H   0  0  0  0  0  0  0  0  0  0  0  0
   -0.2640    9.8660   22.8800 C   0  0  0  0  0  0  0  0  0  0  0  0
   -1.0280    8.7430   22.9550 F   0  0  0  0  0  0  0  0  0  0  0  0
   -0.9540   10.8310   23.5530 F   0  0  0  0  0  0  0  0  0  0  0  0
    0.8510    9.6200   23.6170 F   0  0  0  0  0  0  0  0  0  0  0  0
    5.0030    4.7370   16.8840 C   0  0  2  0  0  0  0  0  0  0  0  0
    5.0230    5.6610   16.2940 H   0  0  0  0  0  0  0  0  0  0  0  0
    4.5840    3.6740   15.8570 C   0  0  0  0  0  0  0  0  0  0  0  0
    5.3330    2.8730   15.8010 H   0  0  0  0  0  0  0  0  0  0  0  0
    3.6330    3.2100   16.1430 H   0  0  0  0  0  0  0  0  0  0  0  0
    4.4640    4.0710   14.8470 H   0  0  0  0  0  0  0  0  0  0  0  0
    6.7380    4.4910   17.4210 S   0  0  0  0  0  0  0  0  0  0  0  0
    7.3500    6.0820   17.6920 C   0  0  0  0  0  0  0  0  0  0  0  0
    7.3150    7.1090   16.8770 N   0  0  0  0  0  0  0  0  0  0  0  0
    7.9280    8.1720   17.5010 N   0  0  0  0  0  0  0  0  0  0  0  0
    8.3210    7.7620   18.6840 C   0  0  0  0  0  0  0  0  0  0  0  0
    7.9810    6.4510   18.8480 N   0  0  0  0  0  0  0  0  0  0  0  0
    8.8340    8.3550   19.4270 H   0  0  0  0  0  0  0  0  0  0  0  0
    8.2470    5.6550   20.0150 C   0  0  0  0  0  0  0  0  0  0  0  0
    7.5610    5.9440   20.8150 H   0  0  0  0  0  0  0  0  0  0  0  0
    8.0900    4.6000   19.7740 H   0  0  0  0  0  0  0  0  0  0  0  0
    9.2800    5.8320   20.3290 H   0  0  0  0  0  0  0  0  0  0  0  0
    2.4470    3.0170   20.8230 C   0  0  0  0  0  0  0  0  0  0  0  0
    2.1390    2.1520   21.5320 N   0  0  0  0  0  0  0  0  0  0  0  0
  1  6  2  0  0  0  0
  1  2  1  0  0  0  0
  2  3  2  0  0  0  0
  3  4  1  0  0  0  0
  3 46  1  0  0  0  0
  4  9  1  0  0  0  0
  5 10  1  0  0  0  0
  5  4  2  0  0  0  0
  6  5  1  0  0  0  0
  7  6  1  0  0  0  0
  8  2  1  0  0  0  0
 10 11  1  0  0  0  0
 11 20  1  0  0  0  0
 11 21  1  0  0  0  0
 12 11  1  0  0  0  0
 12 17  1  0  0  0  0
 13 12  2  0  0  0  0
 14 13  1  0  0  0  0
 14 15  2  0  0  0  0
 15 16  1  0  0  0  0
 16 17  2  0  0  0  0
 16 24  1  0  0  0  0
 17 25  1  0  0  0  0
 18 13  1  0  0  0  0
 18 10  1  0  0  0  0
 19 18  2  0  0  0  0
 22 14  1  0  0  0  0
 23 15  1  0  0  0  0
 25 26  1  0  0  0  0
 25 27  1  0  0  0  0
 25 28  1  0  0  0  0
 29 30  1  6  0  0  0
 29 35  1  0  0  0  0
 29  1  1  0  0  0  0
 31 33  1  0  0  0  0
 31 29  1  0  0  0  0
 32 31  1  0  0  0  0
 34 31  1  0  0  0  0
 35 36  1  0  0  0  0
 36 40  1  0  0  0  0
 37 38  1  0  0  0  0
 37 36  2  0  0  0  0
 38 39  2  0  0  0  0
 39 40  1  0  0  0  0
 39 41  1  0  0  0  0
 40 42  1  0  0  0  0
 42 45  1  0  0  0  0
 42 43  1  0  0  0  0
 44 42  1  0  0  0  0
 46 47  3  0  0  0  0
M  END
>  <MODEL>
6

>  <REMARK>
 VINA RESULT:    -8.417      4.657      8.593
 INTER + INTRA:         -10.452
 INTER:                 -11.027
 INTRA:                   0.575
 UNBOUND:                 1.409
  Name = 
  8 active torsions:
  status: ('A' for Active; 'I' for Inactive)
    1  A    between atoms: C_1  and  C_2
    2  A    between atoms: C_2  and  S_3
    3  A    between atoms: C_2  and  C_10
    4  A    between atoms: S_3  and  C_4
    5  A    between atoms: N_8  and  C_9
    6  A    between atoms: C_12  and  C_13
    7  A    between atoms: C_16  and  N_17
    8  A    between atoms: C_24  and  C_25
                            x       y       z     vdW  Elec       q    Type
                         _______ _______ _______ _____ _____    ______ ____

>  <TORSDO>
F 8

$$$$
=
 OpenBabel07192307433D

 47 50  0  0  1  0  0  0  0  0999 V2000
   -0.0810   10.5450   20.7600 C   0  0  0  0  0  0  0  0  0  0  0  0
   -0.8690   10.8750   19.6400 C   0  0  0  0  0  0  0  0  0  0  0  0
   -0.6760   10.2550   18.4040 C   0  0  0  0  0  0  0  0  0  0  0  0
    0.2880    9.2530   18.2710 C   0  0  0  0  0  0  0  0  0  0  0  0
    1.0630    8.8510   19.3690 C   0  0  0  0  0  0  0  0  0  0  0  0
    0.9060    9.5350   20.6020 C   0  0  0  0  0  0  0  0  0  0  0  0
    2.0630    9.2800   21.8840 Cl  0  0  0  0  0  0  0  0  0  0  0  0
   -1.6280   11.6540   19.7110 H   0  0  0  0  0  0  0  0  0  0  0  0
    0.3800    8.7550   17.3100 H   0  0  0  0  0  0  0  0  0  0  0  0
    1.9660    7.7680   19.1900 N   0  0  0  0  0  0  0  0  0  0  0  0
    2.9430    7.7180   18.1130 C   0  0  0  0  0  0  0  0  0  0  0  0
    3.6630    6.4310   18.3730 C   0  0  0  0  0  0  0  0  0  0  0  0
    3.0520    5.7600   19.4280 C   0  0  0  0  0  0  0  0  0  0  0  0
    3.4810    4.5260   19.8790 C   0  0  0  0  0  0  0  0  0  0  0  0
    4.5770    3.9530   19.2370 C   0  0  0  0  0  0  0  0  0  0  0  0
    5.2090    4.6190   18.1690 C   0  0  0  0  0  0  0  0  0  0  0  0
    4.7550    5.8720   17.7140 C   0  0  0  0  0  0  0  0  0  0  0  0
    1.9370    6.5780   19.9190 C   0  0  0  0  0  0  0  0  0  0  0  0
    1.1450    6.1880   20.7550 O   0  0  0  0  0  0  0  0  0  0  0  0
    2.4370    7.6740   17.1430 H   0  0  0  0  0  0  0  0  0  0  0  0
    3.6120    8.5810   18.1860 H   0  0  0  0  0  0  0  0  0  0  0  0
    2.9800    4.0290   20.7040 H   0  0  0  0  0  0  0  0  0  0  0  0
    4.9470    2.9840   19.5640 H   0  0  0  0  0  0  0  0  0  0  0  0
    6.0650    4.1430   17.6910 H   0  0  0  0  0  0  0  0  0  0  0  0
    5.4370    6.5910   16.5810 C   0  0  0  0  0  0  0  0  0  0  0  0
    6.3720    5.8140   15.9700 F   0  0  0  0  0  0  0  0  0  0  0  0
    6.0970    7.7090   16.9970 F   0  0  0  0  0  0  0  0  0  0  0  0
    4.5850    7.0020   15.6040 F   0  0  0  0  0  0  0  0  0  0  0  0
   -0.2970   11.2640   22.0910 C   0  0  2  0  0  0  0  0  0  0  0  0
    0.6910   11.3640   22.5550 H   0  0  0  0  0  0  0  0  0  0  0  0
   -1.1050   10.4970   23.1480 C   0  0  0  0  0  0  0  0  0  0  0  0
   -0.4390    9.9030   23.7880 H   0  0  0  0  0  0  0  0  0  0  0  0
   -1.6500   11.1900   23.8000 H   0  0  0  0  0  0  0  0  0  0  0  0
   -1.8350    9.8080   22.7200 H   0  0  0  0  0  0  0  0  0  0  0  0
   -0.9020   12.9850   21.9120 S   0  0  0  0  0  0  0  0  0  0  0  0
   -2.5020   12.9640   22.5590 C   0  0  0  0  0  0  0  0  0  0  0  0
   -2.8640   13.0410   23.8170 N   0  0  0  0  0  0  0  0  0  0  0  0
   -4.2380   12.9760   23.8720 N   0  0  0  0  0  0  0  0  0  0  0  0
   -4.6770   12.8610   22.6410 C   0  0  0  0  0  0  0  0  0  0  0  0
   -3.6190   12.8470   21.7790 N   0  0  0  0  0  0  0  0  0  0  0  0
   -5.7110   12.7890   22.3370 H   0  0  0  0  0  0  0  0  0  0  0  0
   -3.7040   12.7320   20.3490 C   0  0  0  0  0  0  0  0  0  0  0  0
   -3.7980   11.6790   20.0750 H   0  0  0  0  0  0  0  0  0  0  0  0
   -4.5870   13.2730   19.9970 H   0  0  0  0  0  0  0  0  0  0  0  0
   -2.7920   13.1490   19.9120 H   0  0  0  0  0  0  0  0  0  0  0  0
   -1.4840   10.6190   17.2760 C   0  0  0  0  0  0  0  0  0  0  0  0
   -2.1620   10.8870   16.3740 N   0  0  0  0  0  0  0  0  0  0  0  0
  1 29  1  0  0  0  0
  2  8  1  0  0  0  0
  2  1  2  0  0  0  0
  3  2  1  0  0  0  0
  4  3  2  0  0  0  0
  4  5  1  0  0  0  0
  5  6  2  0  0  0  0
  6  1  1  0  0  0  0
  6  7  1  0  0  0  0
  9  4  1  0  0  0  0
 10  5  1  0  0  0  0
 10 18  1  0  0  0  0
 11 21  1  0  0  0  0
 11 12  1  0  0  0  0
 11 10  1  0  0  0  0
 12 13  1  0  0  0  0
 13 14  2  0  0  0  0
 13 18  1  0  0  0  0
 14 22  1  0  0  0  0
 15 23  1  0  0  0  0
 15 14  1  0  0  0  0
 16 15  2  0  0  0  0
 17 16  1  0  0  0  0
 17 12  2  0  0  0  0
 18 19  2  0  0  0  0
 20 11  1  0  0  0  0
 24 16  1  0  0  0  0
 25 27  1  0  0  0  0
 25 17  1  0  0  0  0
 26 25  1  0  0  0  0
 28 25  1  0  0  0  0
 29 30  1  1  0  0  0
 29 31  1  0  0  0  0
 31 32  1  0  0  0  0
 31 33  1  0  0  0  0
 34 31  1  0  0  0  0
 35 29  1  0  0  0  0
 35 36  1  0  0  0  0
 36 37  2  0  0  0  0
 37 38  1  0  0  0  0
 39 38  2  0  0  0  0
 40 36  1  0  0  0  0
 40 39  1  0  0  0  0
 41 39  1  0  0  0  0
 42 40  1  0  0  0  0
 43 42  1  0  0  0  0
 44 42  1  0  0  0  0
 45 42  1  0  0  0  0
 46  3  1  0  0  0  0
 47 46  3  0  0  0  0
M  END
>  <MODEL>
7

>  <REMARK>
 VINA RESULT:    -8.407      2.320      3.736
 INTER + INTRA:         -10.439
 INTER:                  -9.603
 INTRA:                  -0.836
 UNBOUND:                 1.409
  Name = 
  8 active torsions:
  status: ('A' for Active; 'I' for Inactive)
    1  A    between atoms: C_1  and  C_2
    2  A    between atoms: C_2  and  S_3
    3  A    between atoms: C_2  and  C_10
    4  A    between atoms: S_3  and  C_4
    5  A    between atoms: N_8  and  C_9
    6  A    between atoms: C_12  and  C_13
    7  A    between atoms: C_16  and  N_17
    8  A    between atoms: C_24  and  C_25
                            x       y       z     vdW  Elec       q    Type
                         _______ _______ _______ _____ _____    ______ ____

>  <TORSDO>
F 8

$$$$
=
 OpenBabel07192307433D

 47 50  0  0  1  0  0  0  0  0999 V2000
    4.5940    4.7620   17.4940 C   0  0  0  0  0  0  0  0  0  0  0  0
    3.7730    3.6400   17.7220 C   0  0  0  0  0  0  0  0  0  0  0  0
    2.5510    3.7530   18.3860 C   0  0  0  0  0  0  0  0  0  0  0  0
    2.0990    5.0070   18.8020 C   0  0  0  0  0  0  0  0  0  0  0  0
    2.8530    6.1630   18.5530 C   0  0  0  0  0  0  0  0  0  0  0  0
    4.1260    6.0270   17.9390 C   0  0  0  0  0  0  0  0  0  0  0  0
    5.2160    7.3900   17.9040 Cl  0  0  0  0  0  0  0  0  0  0  0  0
    4.0990    2.6470   17.4110 H   0  0  0  0  0  0  0  0  0  0  0  0
    1.1210    5.0690   19.2720 H   0  0  0  0  0  0  0  0  0  0  0  0
    2.3000    7.4180   18.9250 N   0  0  0  0  0  0  0  0  0  0  0  0
    1.6320    7.6460   20.1970 C   0  0  0  0  0  0  0  0  0  0  0  0
    1.2700    9.0970   20.1310 C   0  0  0  0  0  0  0  0  0  0  0  0
    1.5940    9.6020   18.8740 C   0  0  0  0  0  0  0  0  0  0  0  0
    1.3500   10.9110   18.5080 C   0  0  0  0  0  0  0  0  0  0  0  0
    0.7580   11.7440   19.4560 C   0  0  0  0  0  0  0  0  0  0  0  0
    0.4260   11.2510   20.7330 C   0  0  0  0  0  0  0  0  0  0  0  0
    0.6730    9.9120   21.0900 C   0  0  0  0  0  0  0  0  0  0  0  0
    2.1990    8.5250   18.0810 C   0  0  0  0  0  0  0  0  0  0  0  0
    2.4680    8.6410   16.9010 O   0  0  0  0  0  0  0  0  0  0  0  0
    0.7240    7.0370   20.2650 H   0  0  0  0  0  0  0  0  0  0  0  0
    2.3260    7.4360   21.0170 H   0  0  0  0  0  0  0  0  0  0  0  0
    1.6130   11.2710   17.5180 H   0  0  0  0  0  0  0  0  0  0  0  0
    0.5520   12.7830   19.2070 H   0  0  0  0  0  0  0  0  0  0  0  0
   -0.0330   11.9310   21.4510 H   0  0  0  0  0  0  0  0  0  0  0  0
    0.3300    9.3870   22.4580 C   0  0  0  0  0  0  0  0  0  0  0  0
   -0.5530    8.3530   22.4040 F   0  0  0  0  0  0  0  0  0  0  0  0
   -0.2540   10.3340   23.2460 F   0  0  0  0  0  0  0  0  0  0  0  0
    1.4060    8.9330   23.1530 F   0  0  0  0  0  0  0  0  0  0  0  0
    5.9410    4.6000   16.7910 C   0  0  2  0  0  0  0  0  0  0  0  0
    5.9490    3.5900   16.3630 H   0  0  0  0  0  0  0  0  0  0  0  0
    7.1800    4.6070   17.6980 C   0  0  0  0  0  0  0  0  0  0  0  0
    8.0230    4.1040   17.2050 H   0  0  0  0  0  0  0  0  0  0  0  0
    7.4970    5.6330   17.9160 H   0  0  0  0  0  0  0  0  0  0  0  0
    7.0220    4.1030   18.6520 H   0  0  0  0  0  0  0  0  0  0  0  0
    6.1640    5.7150   15.3530 S   0  0  0  0  0  0  0  0  0  0  0  0
    6.2030    4.6690   13.9800 C   0  0  0  0  0  0  0  0  0  0  0  0
    5.3540    3.7220   13.6640 N   0  0  0  0  0  0  0  0  0  0  0  0
    5.7800    3.1390   12.4920 N   0  0  0  0  0  0  0  0  0  0  0  0
    6.8830    3.7490   12.1260 C   0  0  0  0  0  0  0  0  0  0  0  0
    7.1890    4.7200   13.0340 N   0  0  0  0  0  0  0  0  0  0  0  0
    7.4690    3.5320   11.2450 H   0  0  0  0  0  0  0  0  0  0  0  0
    8.3260    5.5970   12.9720 C   0  0  0  0  0  0  0  0  0  0  0  0
    8.1090    6.4250   12.2920 H   0  0  0  0  0  0  0  0  0  0  0  0
    8.5250    5.9990   13.9700 H   0  0  0  0  0  0  0  0  0  0  0  0
    9.1850    5.0290   12.6030 H   0  0  0  0  0  0  0  0  0  0  0  0
    1.7410    2.5920   18.6170 C   0  0  0  0  0  0  0  0  0  0  0  0
    1.0660    1.6730   18.8290 N   0  0  0  0  0  0  0  0  0  0  0  0
  1  2  2  0  0  0  0
  1  6  1  0  0  0  0
  2  3  1  0  0  0  0
  3 46  1  0  0  0  0
  3  4  2  0  0  0  0
  4  9  1  0  0  0  0
  5  4  1  0  0  0  0
  5 10  1  0  0  0  0
  6  5  2  0  0  0  0
  7  6  1  0  0  0  0
  8  2  1  0  0  0  0
 10 11  1  0  0  0  0
 11 20  1  0  0  0  0
 11 21  1  0  0  0  0
 12 11  1  0  0  0  0
 12 17  1  0  0  0  0
 13 12  2  0  0  0  0
 14 13  1  0  0  0  0
 14 15  2  0  0  0  0
 15 16  1  0  0  0  0
 16 17  2  0  0  0  0
 16 24  1  0  0  0  0
 17 25  1  0  0  0  0
 18 13  1  0  0  0  0
 18 10  1  0  0  0  0
 19 18  2  0  0  0  0
 22 14  1  0  0  0  0
 23 15  1  0  0  0  0
 25 28  1  0  0  0  0
 25 27  1  0  0  0  0
 26 25  1  0  0  0  0
 29 30  1  6  0  0  0
 29  1  1  0  0  0  0
 29 31  1  0  0  0  0
 31 33  1  0  0  0  0
 31 34  1  0  0  0  0
 32 31  1  0  0  0  0
 35 29  1  0  0  0  0
 36 35  1  0  0  0  0
 37 36  2  0  0  0  0
 38 37  1  0  0  0  0
 39 38  2  0  0  0  0
 39 40  1  0  0  0  0
 40 36  1  0  0  0  0
 41 39  1  0  0  0  0
 42 40  1  0  0  0  0
 42 44  1  0  0  0  0
 43 42  1  0  0  0  0
 45 42  1  0  0  0  0
 46 47  3  0  0  0  0
M  END
>  <MODEL>
8

>  <REMARK>
 VINA RESULT:    -8.374      4.698      8.789
 INTER + INTRA:         -10.393
 INTER:                  -9.964
 INTRA:                  -0.429
 UNBOUND:                 1.409
  Name = 
  8 active torsions:
  status: ('A' for Active; 'I' for Inactive)
    1  A    between atoms: C_1  and  C_2
    2  A    between atoms: C_2  and  S_3
    3  A    between atoms: C_2  and  C_10
    4  A    between atoms: S_3  and  C_4
    5  A    between atoms: N_8  and  C_9
    6  A    between atoms: C_12  and  C_13
    7  A    between atoms: C_16  and  N_17
    8  A    between atoms: C_24  and  C_25
                            x       y       z     vdW  Elec       q    Type
                         _______ _______ _______ _____ _____    ______ ____

>  <TORSDO>
F 8

$$$$
=
 OpenBabel07192307433D

 47 50  0  0  1  0  0  0  0  0999 V2000
   -0.0520   10.6340   20.7400 C   0  0  0  0  0  0  0  0  0  0  0  0
   -0.8850   10.9110   19.6390 C   0  0  0  0  0  0  0  0  0  0  0  0
   -0.7330   10.2430   18.4230 C   0  0  0  0  0  0  0  0  0  0  0  0
    0.2360    9.2460   18.2940 C   0  0  0  0  0  0  0  0  0  0  0  0
    1.0570    8.8960   19.3760 C   0  0  0  0  0  0  0  0  0  0  0  0
    0.9400    9.6290   20.5860 C   0  0  0  0  0  0  0  0  0  0  0  0
    2.1470    9.4370   21.8320 Cl  0  0  0  0  0  0  0  0  0  0  0  0
   -1.6500   11.6850   19.7080 H   0  0  0  0  0  0  0  0  0  0  0  0
    0.2980    8.7100   17.3500 H   0  0  0  0  0  0  0  0  0  0  0  0
    1.9650    7.8160   19.2070 N   0  0  0  0  0  0  0  0  0  0  0  0
    2.9390    7.7590   18.1290 C   0  0  0  0  0  0  0  0  0  0  0  0
    3.6660    6.4770   18.4000 C   0  0  0  0  0  0  0  0  0  0  0  0
    3.0600    5.8140   19.4630 C   0  0  0  0  0  0  0  0  0  0  0  0
    3.4950    4.5870   19.9260 C   0  0  0  0  0  0  0  0  0  0  0  0
    4.5920    4.0130   19.2870 C   0  0  0  0  0  0  0  0  0  0  0  0
    5.2190    4.6700   18.2120 C   0  0  0  0  0  0  0  0  0  0  0  0
    4.7590    5.9170   17.7450 C   0  0  0  0  0  0  0  0  0  0  0  0
    1.9420    6.6330   19.9470 C   0  0  0  0  0  0  0  0  0  0  0  0
    1.1530    6.2480   20.7890 O   0  0  0  0  0  0  0  0  0  0  0  0
    2.4330    7.7030   17.1600 H   0  0  0  0  0  0  0  0  0  0  0  0
    3.6050    8.6260   18.1910 H   0  0  0  0  0  0  0  0  0  0  0  0
    2.9970    4.0960   20.7560 H   0  0  0  0  0  0  0  0  0  0  0  0
    4.9670    3.0480   19.6230 H   0  0  0  0  0  0  0  0  0  0  0  0
    6.0760    4.1930   17.7370 H   0  0  0  0  0  0  0  0  0  0  0  0
    5.4360    6.6270   16.6030 C   0  0  0  0  0  0  0  0  0  0  0  0
    6.3760    5.8490   16.0010 F   0  0  0  0  0  0  0  0  0  0  0  0
    6.0890    7.7540   17.0070 F   0  0  0  0  0  0  0  0  0  0  0  0
    4.5810    7.0210   15.6230 F   0  0  0  0  0  0  0  0  0  0  0  0
   -0.2250   11.4050   22.0480 C   0  0  2  0  0  0  0  0  0  0  0  0
    0.6720   11.2080   22.6480 H   0  0  0  0  0  0  0  0  0  0  0  0
   -1.3680   10.9360   22.9610 C   0  0  0  0  0  0  0  0  0  0  0  0
   -1.0220   10.8510   24.0000 H   0  0  0  0  0  0  0  0  0  0  0  0
   -2.1940   11.6550   22.9520 H   0  0  0  0  0  0  0  0  0  0  0  0
   -1.7760    9.9640   22.6800 H   0  0  0  0  0  0  0  0  0  0  0  0
   -0.2500   13.2260   21.8370 S   0  0  0  0  0  0  0  0  0  0  0  0
    1.0680   13.5700   20.7770 C   0  0  0  0  0  0  0  0  0  0  0  0
    2.3460   13.3710   20.9890 N   0  0  0  0  0  0  0  0  0  0  0  0
    3.0370   13.8000   19.8790 N   0  0  0  0  0  0  0  0  0  0  0  0
    2.1560   14.2510   19.0160 C   0  0  0  0  0  0  0  0  0  0  0  0
    0.9020   14.1270   19.5390 N   0  0  0  0  0  0  0  0  0  0  0  0
    2.3700   14.6570   18.0390 H   0  0  0  0  0  0  0  0  0  0  0  0
   -0.3200   14.5150   18.8890 C   0  0  0  0  0  0  0  0  0  0  0  0
   -1.1710   14.1740   19.4840 H   0  0  0  0  0  0  0  0  0  0  0  0
   -0.3550   15.6050   18.8090 H   0  0  0  0  0  0  0  0  0  0  0  0
   -0.3500   14.0510   17.8990 H   0  0  0  0  0  0  0  0  0  0  0  0
   -1.5870   10.5530   17.3130 C   0  0  0  0  0  0  0  0  0  0  0  0
   -2.2970   10.8280   16.4380 N   0  0  0  0  0  0  0  0  0  0  0  0
  1 29  1  0  0  0  0
  2  8  1  0  0  0  0
  2  1  2  0  0  0  0
  3  2  1  0  0  0  0
  4  3  2  0  0  0  0
  4  5  1  0  0  0  0
  5  6  2  0  0  0  0
  6  1  1  0  0  0  0
  6  7  1  0  0  0  0
  9  4  1  0  0  0  0
 10  5  1  0  0  0  0
 10 18  1  0  0  0  0
 11 21  1  0  0  0  0
 11 12  1  0  0  0  0
 11 10  1  0  0  0  0
 12 13  1  0  0  0  0
 13 14  2  0  0  0  0
 13 18  1  0  0  0  0
 14 22  1  0  0  0  0
 15 23  1  0  0  0  0
 15 14  1  0  0  0  0
 16 15  2  0  0  0  0
 17 16  1  0  0  0  0
 17 12  2  0  0  0  0
 18 19  2  0  0  0  0
 20 11  1  0  0  0  0
 24 16  1  0  0  0  0
 25 27  1  0  0  0  0
 25 17  1  0  0  0  0
 26 25  1  0  0  0  0
 28 25  1  0  0  0  0
 29 30  1  1  0  0  0
 29 31  1  0  0  0  0
 31 32  1  0  0  0  0
 33 31  1  0  0  0  0
 34 31  1  0  0  0  0
 35 29  1  0  0  0  0
 36 37  2  0  0  0  0
 36 35  1  0  0  0  0
 38 37  1  0  0  0  0
 39 40  1  0  0  0  0
 39 38  2  0  0  0  0
 40 36  1  0  0  0  0
 41 39  1  0  0  0  0
 42 43  1  0  0  0  0
 42 40  1  0  0  0  0
 44 42  1  0  0  0  0
 45 42  1  0  0  0  0
 46  3  1  0  0  0  0
 47 46  3  0  0  0  0
M  END
>  <MODEL>
9

>  <REMARK>
 VINA RESULT:    -8.362      2.335      3.877
 INTER + INTRA:         -10.376
 INTER:                  -9.093
 INTRA:                  -1.283
 UNBOUND:                 1.409
  Name = 
  8 active torsions:
  status: ('A' for Active; 'I' for Inactive)
    1  A    between atoms: C_1  and  C_2
    2  A    between atoms: C_2  and  S_3
    3  A    between atoms: C_2  and  C_10
    4  A    between atoms: S_3  and  C_4
    5  A    between atoms: N_8  and  C_9
    6  A    between atoms: C_12  and  C_13
    7  A    between atoms: C_16  and  N_17
    8  A    between atoms: C_24  and  C_25
                            x       y       z     vdW  Elec       q    Type
                         _______ _______ _______ _____ _____    ______ ____

>  <TORSDO>
F 8

$$$$
=
 OpenBabel07192307433D

 47 50  0  0  1  0  0  0  0  0999 V2000
    3.3600    5.2910   18.6110 C   0  0  0  0  0  0  0  0  0  0  0  0
    3.0270    4.2440   19.4920 C   0  0  0  0  0  0  0  0  0  0  0  0
    2.1750    4.4490   20.5790 C   0  0  0  0  0  0  0  0  0  0  0  0
    1.6010    5.7050   20.7860 C   0  0  0  0  0  0  0  0  0  0  0  0
    1.8590    6.7670   19.9070 C   0  0  0  0  0  0  0  0  0  0  0  0
    2.7800    6.5660   18.8460 C   0  0  0  0  0  0  0  0  0  0  0  0
    3.3610    7.9380   17.9370 Cl  0  0  0  0  0  0  0  0  0  0  0  0
    3.4600    3.2530   19.3580 H   0  0  0  0  0  0  0  0  0  0  0  0
    0.9040    5.8200   21.6120 H   0  0  0  0  0  0  0  0  0  0  0  0
    1.1780    7.9960   20.1230 N   0  0  0  0  0  0  0  0  0  0  0  0
    0.3890    8.6580   19.0950 C   0  0  0  0  0  0  0  0  0  0  0  0
   -0.1430    9.8640   19.8060 C   0  0  0  0  0  0  0  0  0  0  0  0
    0.4070    9.9340   21.0820 C   0  0  0  0  0  0  0  0  0  0  0  0
    0.1220   10.9580   21.9650 C   0  0  0  0  0  0  0  0  0  0  0  0
   -0.7610   11.9470   21.5380 C   0  0  0  0  0  0  0  0  0  0  0  0
   -1.3300   11.8900   20.2510 C   0  0  0  0  0  0  0  0  0  0  0  0
   -1.0240   10.8460   19.3580 C   0  0  0  0  0  0  0  0  0  0  0  0
    1.2930    8.7790   21.2720 C   0  0  0  0  0  0  0  0  0  0  0  0
    2.0070    8.6430   22.2470 O   0  0  0  0  0  0  0  0  0  0  0  0
    1.0310    8.9680   18.2640 H   0  0  0  0  0  0  0  0  0  0  0  0
   -0.4140    7.9920   18.7640 H   0  0  0  0  0  0  0  0  0  0  0  0
    0.5720   10.9830   22.9530 H   0  0  0  0  0  0  0  0  0  0  0  0
   -1.0140   12.7680   22.2050 H   0  0  0  0  0  0  0  0  0  0  0  0
   -2.0190   12.6800   19.9500 H   0  0  0  0  0  0  0  0  0  0  0  0
   -1.6410   10.7770   17.9860 C   0  0  0  0  0  0  0  0  0  0  0  0
   -1.8440   12.0130   17.4540 F   0  0  0  0  0  0  0  0  0  0  0  0
   -2.8620   10.1710   17.9960 F   0  0  0  0  0  0  0  0  0  0  0  0
   -0.8900   10.0920   17.0840 F   0  0  0  0  0  0  0  0  0  0  0  0
    4.3190    5.0410   17.4480 C   0  0  2  0  0  0  0  0  0  0  0  0
    4.4200    5.9950   16.9160 H   0  0  0  0  0  0  0  0  0  0  0  0
    3.8200    4.0820   16.3570 C   0  0  0  0  0  0  0  0  0  0  0  0
    2.7770    3.7920   16.5450 H   0  0  0  0  0  0  0  0  0  0  0  0
    3.8520    4.5620   15.3720 H   0  0  0  0  0  0  0  0  0  0  0  0
    4.4010    3.1610   16.2910 H   0  0  0  0  0  0  0  0  0  0  0  0
    6.0240    4.6210   17.9720 S   0  0  0  0  0  0  0  0  0  0  0  0
    6.8800    6.1200   17.9510 C   0  0  0  0  0  0  0  0  0  0  0  0
    6.7400    7.1160   17.1100 N   0  0  0  0  0  0  0  0  0  0  0  0
    7.6310    8.1030   17.4640 N   0  0  0  0  0  0  0  0  0  0  0  0
    8.2940    7.6780   18.5150 C   0  0  0  0  0  0  0  0  0  0  0  0
    7.8550    6.4330   18.8570 N   0  0  0  0  0  0  0  0  0  0  0  0
    9.0660    8.2180   19.0430 H   0  0  0  0  0  0  0  0  0  0  0  0
    8.3430    5.6430   19.9550 C   0  0  0  0  0  0  0  0  0  0  0  0
    7.7730    5.8820   20.8550 H   0  0  0  0  0  0  0  0  0  0  0  0
    8.2140    4.5830   19.7200 H   0  0  0  0  0  0  0  0  0  0  0  0
    9.4000    5.8810   20.1110 H   0  0  0  0  0  0  0  0  0  0  0  0
    1.8630    3.3680   21.4690 C   0  0  0  0  0  0  0  0  0  0  0  0
    1.5790    2.4860   22.1670 N   0  0  0  0  0  0  0  0  0  0  0  0
  1  6  2  0  0  0  0
  1  2  1  0  0  0  0
  2  3  2  0  0  0  0
  3  4  1  0  0  0  0
  3 46  1  0  0  0  0
  4  9  1  0  0  0  0
  5 10  1  0  0  0  0
  5  4  2  0  0  0  0
  6  5  1  0  0  0  0
  7  6  1  0  0  0  0
  8  2  1  0  0  0  0
 10 18  1  0  0  0  0
 11 12  1  0  0  0  0
 11 10  1  0  0  0  0
 12 13  1  0  0  0  0
 13 18  1  0  0  0  0
 13 14  2  0  0  0  0
 14 22  1  0  0  0  0
 15 14  1  0  0  0  0
 15 23  1  0  0  0  0
 16 15  2  0  0  0  0
 17 12  2  0  0  0  0
 17 16  1  0  0  0  0
 18 19  2  0  0  0  0
 20 11  1  0  0  0  0
 21 11  1  0  0  0  0
 24 16  1  0  0  0  0
 25 27  1  0  0  0  0
 25 17  1  0  0  0  0
 26 25  1  0  0  0  0
 28 25  1  0  0  0  0
 29 30  1  6  0  0  0
 29 35  1  0  0  0  0
 29  1  1  0  0  0  0
 31 32  1  0  0  0  0
 31 29  1  0  0  0  0
 33 31  1  0  0  0  0
 34 31  1  0  0  0  0
 36 35  1  0  0  0  0
 36 40  1  0  0  0  0
 37 38  1  0  0  0  0
 37 36  2  0  0  0  0
 38 39  2  0  0  0  0
 39 40  1  0  0  0  0
 39 41  1  0  0  0  0
 40 42  1  0  0  0  0
 42 45  1  0  0  0  0
 42 43  1  0  0  0  0
 44 42  1  0  0  0  0
 46 47  3  0  0  0  0
M  END
>  <MODEL>
10

>  <REMARK>
 VINA RESULT:    -8.178      4.031      8.294
 INTER + INTRA:         -10.116
 INTER:                  -9.321
 INTRA:                  -0.795
 UNBOUND:                 1.409
  Name = 
  8 active torsions:
  status: ('A' for Active; 'I' for Inactive)
    1  A    between atoms: C_1  and  C_2
    2  A    between atoms: C_2  and  S_3
    3  A    between atoms: C_2  and  C_10
    4  A    between atoms: S_3  and  C_4
    5  A    between atoms: N_8  and  C_9
    6  A    between atoms: C_12  and  C_13
    7  A    between atoms: C_16  and  N_17
    8  A    between atoms: C_24  and  C_25
                            x       y       z     vdW  Elec       q    Type
                         _______ _______ _______ _____ _____    ______ ____

>  <TORSDO>
F 8

$$$$
=
 OpenBabel07192307433D

 47 50  0  0  1  0  0  0  0  0999 V2000
    0.6130   10.4540   19.6480 C   0  0  0  0  0  0  0  0  0  0  0  0
    0.3810   10.4360   21.0380 C   0  0  0  0  0  0  0  0  0  0  0  0
    0.7130    9.3270   21.8180 C   0  0  0  0  0  0  0  0  0  0  0  0
    1.3270    8.2200   21.2280 C   0  0  0  0  0  0  0  0  0  0  0  0
    1.6270    8.2100   19.8580 C   0  0  0  0  0  0  0  0  0  0  0  0
    1.2230    9.3130   19.0630 C   0  0  0  0  0  0  0  0  0  0  0  0
    1.2930    9.1940   17.3220 Cl  0  0  0  0  0  0  0  0  0  0  0  0
   -0.0980   11.2840   21.5280 H   0  0  0  0  0  0  0  0  0  0  0  0
    1.6180    7.3930   21.8700 H   0  0  0  0  0  0  0  0  0  0  0  0
    2.3290    7.0900   19.3340 N   0  0  0  0  0  0  0  0  0  0  0  0
    3.2760    7.1890   18.2350 C   0  0  0  0  0  0  0  0  0  0  0  0
    3.7640    5.7810   18.0840 C   0  0  0  0  0  0  0  0  0  0  0  0
    3.0520    4.9470   18.9410 C   0  0  0  0  0  0  0  0  0  0  0  0
    3.2630    3.5830   19.0040 C   0  0  0  0  0  0  0  0  0  0  0  0
    4.2400    3.0450   18.1690 C   0  0  0  0  0  0  0  0  0  0  0  0
    4.9720    3.8740   17.2970 C   0  0  0  0  0  0  0  0  0  0  0  0
    4.7390    5.2620   17.2370 C   0  0  0  0  0  0  0  0  0  0  0  0
    2.0980    5.7630   19.7010 C   0  0  0  0  0  0  0  0  0  0  0  0
    1.2550    5.2870   20.4360 O   0  0  0  0  0  0  0  0  0  0  0  0
    2.7650    7.5080   17.3200 H   0  0  0  0  0  0  0  0  0  0  0  0
    4.0850    7.8740   18.5100 H   0  0  0  0  0  0  0  0  0  0  0  0
    2.6880    2.9610   19.6830 H   0  0  0  0  0  0  0  0  0  0  0  0
    4.4380    1.9750   18.1900 H   0  0  0  0  0  0  0  0  0  0  0  0
    5.7300    3.4210   16.6590 H   0  0  0  0  0  0  0  0  0  0  0  0
    5.5300    6.1520   16.3150 C   0  0  0  0  0  0  0  0  0  0  0  0
    6.3760    5.4430   15.5200 F   0  0  0  0  0  0  0  0  0  0  0  0
    6.3110    7.0390   16.9930 F   0  0  0  0  0  0  0  0  0  0  0  0
    4.7560    6.8960   15.4800 F   0  0  0  0  0  0  0  0  0  0  0  0
    0.2100   11.6720   18.8180 C   0  0  2  0  0  0  0  0  0  0  0  0
    0.8880   11.7000   17.9560 H   0  0  0  0  0  0  0  0  0  0  0  0
    0.4270   13.0410   19.4800 C   0  0  0  0  0  0  0  0  0  0  0  0
    1.2890   13.5540   19.0320 H   0  0  0  0  0  0  0  0  0  0  0  0
   -0.4460   13.6870   19.3350 H   0  0  0  0  0  0  0  0  0  0  0  0
    0.6140   12.9790   20.5530 H   0  0  0  0  0  0  0  0  0  0  0  0
   -1.4650   11.5480   18.0860 S   0  0  0  0  0  0  0  0  0  0  0  0
   -2.5370   12.0760   19.3320 C   0  0  0  0  0  0  0  0  0  0  0  0
   -2.2280   12.5020   20.5330 N   0  0  0  0  0  0  0  0  0  0  0  0
   -3.3970   12.8090   21.1920 N   0  0  0  0  0  0  0  0  0  0  0  0
   -4.3900   12.5600   20.3700 C   0  0  0  0  0  0  0  0  0  0  0  0
   -3.8960   12.0950   19.1870 N   0  0  0  0  0  0  0  0  0  0  0  0
   -5.4410   12.6980   20.5790 H   0  0  0  0  0  0  0  0  0  0  0  0
   -4.6790   11.7130   18.0430 C   0  0  0  0  0  0  0  0  0  0  0  0
   -5.7400   11.7420   18.3040 H   0  0  0  0  0  0  0  0  0  0  0  0
   -4.4920   12.4180   17.2280 H   0  0  0  0  0  0  0  0  0  0  0  0
   -4.3960   10.6970   17.7510 H   0  0  0  0  0  0  0  0  0  0  0  0
    0.4550    9.3290   23.2290 C   0  0  0  0  0  0  0  0  0  0  0  0
    0.2250    9.3630   24.3660 N   0  0  0  0  0  0  0  0  0  0  0  0
  1  2  1  0  0  0  0
  2  8  1  0  0  0  0
  2  3  2  0  0  0  0
  3 46  1  0  0  0  0
  4  3  1  0  0  0  0
  4  9  1  0  0  0  0
  5  4  2  0  0  0  0
  6  1  2  0  0  0  0
  6  5  1  0  0  0  0
  7  6  1  0  0  0  0
 10 18  1  0  0  0  0
 10  5  1  0  0  0  0
 11 21  1  0  0  0  0
 11 10  1  0  0  0  0
 12 11  1  0  0  0  0
 12 13  1  0  0  0  0
 13 14  2  0  0  0  0
 13 18  1  0  0  0  0
 14 22  1  0  0  0  0
 15 23  1  0  0  0  0
 15 14  1  0  0  0  0
 16 15  2  0  0  0  0
 17 16  1  0  0  0  0
 17 12  2  0  0  0  0
 18 19  2  0  0  0  0
 20 11  1  0  0  0  0
 24 16  1  0  0  0  0
 25 27  1  0  0  0  0
 25 17  1  0  0  0  0
 26 25  1  0  0  0  0
 28 25  1  0  0  0  0
 29 30  1  6  0  0  0
 29 31  1  0  0  0  0
 29  1  1  0  0  0  0
 31 34  1  0  0  0  0
 32 31  1  0  0  0  0
 33 31  1  0  0  0  0
 35 29  1  0  0  0  0
 35 36  1  0  0  0  0
 36 37  2  0  0  0  0
 37 38  1  0  0  0  0
 39 41  1  0  0  0  0
 39 38  2  0  0  0  0
 40 36  1  0  0  0  0
 40 39  1  0  0  0  0
 42 43  1  0  0  0  0
 42 40  1  0  0  0  0
 44 42  1  0  0  0  0
 45 42  1  0  0  0  0
 46 47  3  0  0  0  0
M  END
>  <MODEL>
11

>  <REMARK>
 VINA RESULT:    -8.043      1.098      1.546
 INTER + INTRA:          -9.925
 INTER:                 -10.068
 INTRA:                   0.143
 UNBOUND:                 1.409
  Name = 
  8 active torsions:
  status: ('A' for Active; 'I' for Inactive)
    1  A    between atoms: C_1  and  C_2
    2  A    between atoms: C_2  and  S_3
    3  A    between atoms: C_2  and  C_10
    4  A    between atoms: S_3  and  C_4
    5  A    between atoms: N_8  and  C_9
    6  A    between atoms: C_12  and  C_13
    7  A    between atoms: C_16  and  N_17
    8  A    between atoms: C_24  and  C_25
                            x       y       z     vdW  Elec       q    Type
                         _______ _______ _______ _____ _____    ______ ____

>  <TORSDO>
F 8

$$$$
=
 OpenBabel07192307433D

 47 50  0  0  1  0  0  0  0  0999 V2000
    0.9070    9.2480   18.8830 C   0  0  0  0  0  0  0  0  0  0  0  0
    0.0370    9.2410   17.7750 C   0  0  0  0  0  0  0  0  0  0  0  0
   -1.1150   10.0280   17.7480 C   0  0  0  0  0  0  0  0  0  0  0  0
   -1.4030   10.8770   18.8180 C   0  0  0  0  0  0  0  0  0  0  0  0
   -0.5410   10.9600   19.9220 C   0  0  0  0  0  0  0  0  0  0  0  0
    0.5900   10.1050   19.9700 C   0  0  0  0  0  0  0  0  0  0  0  0
    1.4960    9.9540   21.4550 Cl  0  0  0  0  0  0  0  0  0  0  0  0
    0.2340    8.5880   16.9240 H   0  0  0  0  0  0  0  0  0  0  0  0
   -2.2810   11.5140   18.7460 H   0  0  0  0  0  0  0  0  0  0  0  0
   -0.8450   11.9050   20.9390 N   0  0  0  0  0  0  0  0  0  0  0  0
   -2.0930   11.8950   21.6860 C   0  0  0  0  0  0  0  0  0  0  0  0
   -1.9210   13.0340   22.6430 C   0  0  0  0  0  0  0  0  0  0  0  0
   -0.7320   13.7010   22.3650 C   0  0  0  0  0  0  0  0  0  0  0  0
   -0.3160   14.8150   23.0680 C   0  0  0  0  0  0  0  0  0  0  0  0
   -1.1370   15.2670   24.0990 C   0  0  0  0  0  0  0  0  0  0  0  0
   -2.3430   14.6020   24.3970 C   0  0  0  0  0  0  0  0  0  0  0  0
   -2.7580   13.4730   23.6650 C   0  0  0  0  0  0  0  0  0  0  0  0
   -0.0670   13.0230   21.2450 C   0  0  0  0  0  0  0  0  0  0  0  0
    0.9300   13.4580   20.7040 O   0  0  0  0  0  0  0  0  0  0  0  0
   -2.9380   12.0930   21.0180 H   0  0  0  0  0  0  0  0  0  0  0  0
   -2.2010   10.9380   22.2060 H   0  0  0  0  0  0  0  0  0  0  0  0
    0.6160   15.3140   22.8220 H   0  0  0  0  0  0  0  0  0  0  0  0
   -0.8440   16.1400   24.6790 H   0  0  0  0  0  0  0  0  0  0  0  0
   -2.9600   14.9820   25.2110 H   0  0  0  0  0  0  0  0  0  0  0  0
   -4.0400   12.7540   23.9900 C   0  0  0  0  0  0  0  0  0  0  0  0
   -4.7530   13.3910   24.9590 F   0  0  0  0  0  0  0  0  0  0  0  0
   -3.8240   11.4920   24.4570 F   0  0  0  0  0  0  0  0  0  0  0  0
   -4.8760   12.6220   22.9270 F   0  0  0  0  0  0  0  0  0  0  0  0
    2.1450    8.3510   18.8940 C   0  0  2  0  0  0  0  0  0  0  0  0
    2.9130    8.8860   19.4650 H   0  0  0  0  0  0  0  0  0  0  0  0
    2.8200    8.1170   17.5340 C   0  0  0  0  0  0  0  0  0  0  0  0
    2.5420    7.1340   17.1290 H   0  0  0  0  0  0  0  0  0  0  0  0
    2.5000    8.8700   16.8050 H   0  0  0  0  0  0  0  0  0  0  0  0
    3.9090    8.1470   17.5790 H   0  0  0  0  0  0  0  0  0  0  0  0
    1.9090    6.7750   19.7980 S   0  0  0  0  0  0  0  0  0  0  0  0
    3.1200    5.7160   19.1720 C   0  0  0  0  0  0  0  0  0  0  0  0
    4.4130    5.7550   19.3880 N   0  0  0  0  0  0  0  0  0  0  0  0
    4.9950    4.7260   18.6820 N   0  0  0  0  0  0  0  0  0  0  0  0
    4.0370    4.0870   18.0520 C   0  0  0  0  0  0  0  0  0  0  0  0
    2.8380    4.6770   18.3300 N   0  0  0  0  0  0  0  0  0  0  0  0
    4.1580    3.2260   17.4120 H   0  0  0  0  0  0  0  0  0  0  0  0
    1.5600    4.2580   17.8220 C   0  0  0  0  0  0  0  0  0  0  0  0
    1.7000    3.4220   17.1330 H   0  0  0  0  0  0  0  0  0  0  0  0
    0.9310    3.9330   18.6550 H   0  0  0  0  0  0  0  0  0  0  0  0
    1.1030    5.1010   17.2940 H   0  0  0  0  0  0  0  0  0  0  0  0
   -1.9910    9.9930   16.6120 C   0  0  0  0  0  0  0  0  0  0  0  0
   -2.7010   10.0020   15.6950 N   0  0  0  0  0  0  0  0  0  0  0  0
  1 29  1  0  0  0  0
  1  6  1  0  0  0  0
  2  1  2  0  0  0  0
  3  2  1  0  0  0  0
  3  4  2  0  0  0  0
  4  5  1  0  0  0  0
  5  6  2  0  0  0  0
  5 10  1  0  0  0  0
  6  7  1  0  0  0  0
  8  2  1  0  0  0  0
  9  4  1  0  0  0  0
 10 18  1  0  0  0  0
 10 11  1  0  0  0  0
 11 21  1  0  0  0  0
 11 12  1  0  0  0  0
 12 17  1  0  0  0  0
 13 12  2  0  0  0  0
 13 14  1  0  0  0  0
 14 15  2  0  0  0  0
 15 16  1  0  0  0  0
 15 23  1  0  0  0  0
 16 24  1  0  0  0  0
 17 25  1  0  0  0  0
 17 16  2  0  0  0  0
 18 13  1  0  0  0  0
 19 18  2  0  0  0  0
 20 11  1  0  0  0  0
 22 14  1  0  0  0  0
 25 27  1  0  0  0  0
 25 26  1  0  0  0  0
 28 25  1  0  0  0  0
 29 30  1  1  0  0  0
 29 35  1  0  0  0  0
 31 34  1  0  0  0  0
 31 29  1  0  0  0  0
 32 31  1  0  0  0  0
 33 31  1  0  0  0  0
 36 37  2  0  0  0  0
 36 35  1  0  0  0  0
 38 37  1  0  0  0  0
 39 40  1  0  0  0  0
 39 38  2  0  0  0  0
 40 36  1  0  0  0  0
 41 39  1  0  0  0  0
 42 40  1  0  0  0  0
 42 44  1  0  0  0  0
 43 42  1  0  0  0  0
 45 42  1  0  0  0  0
 46  3  1  0  0  0  0
 47 46  3  0  0  0  0
M  END
>  <MODEL>
12

>  <REMARK>
 VINA RESULT:    -8.013      5.470      9.491
 INTER + INTRA:          -9.884
 INTER:                  -8.848
 INTRA:                  -1.036
 UNBOUND:                 1.409
  Name = 
  8 active torsions:
  status: ('A' for Active; 'I' for Inactive)
    1  A    between atoms: C_1  and  C_2
    2  A    between atoms: C_2  and  S_3
    3  A    between atoms: C_2  and  C_10
    4  A    between atoms: S_3  and  C_4
    5  A    between atoms: N_8  and  C_9
    6  A    between atoms: C_12  and  C_13
    7  A    between atoms: C_16  and  N_17
    8  A    between atoms: C_24  and  C_25
                            x       y       z     vdW  Elec       q    Type
                         _______ _______ _______ _____ _____    ______ ____

>  <TORSDO>
F 8

$$$$
=
 OpenBabel07192307433D

 47 50  0  0  1  0  0  0  0  0999 V2000
    0.6430   10.5080   19.8250 C   0  0  0  0  0  0  0  0  0  0  0  0
    0.4570   10.4320   21.2200 C   0  0  0  0  0  0  0  0  0  0  0  0
    0.8030    9.2870   21.9400 C   0  0  0  0  0  0  0  0  0  0  0  0
    1.3860    8.2020   21.2830 C   0  0  0  0  0  0  0  0  0  0  0  0
    1.6400    8.2480   19.9040 C   0  0  0  0  0  0  0  0  0  0  0  0
    1.2210    9.3880   19.1710 C   0  0  0  0  0  0  0  0  0  0  0  0
    1.2330    9.3440   17.4260 Cl  0  0  0  0  0  0  0  0  0  0  0  0
    0.0030   11.2630   21.7610 H   0  0  0  0  0  0  0  0  0  0  0  0
    1.6890    7.3450   21.8790 H   0  0  0  0  0  0  0  0  0  0  0  0
    2.3120    7.1460   19.3100 N   0  0  0  0  0  0  0  0  0  0  0  0
    3.2210    7.2830   18.1830 C   0  0  0  0  0  0  0  0  0  0  0  0
    3.6900    5.8790   17.9560 C   0  0  0  0  0  0  0  0  0  0  0  0
    3.0010    5.0150   18.8020 C   0  0  0  0  0  0  0  0  0  0  0  0
    3.2010    3.6480   18.8010 C   0  0  0  0  0  0  0  0  0  0  0  0
    4.1430    3.1380   17.9100 C   0  0  0  0  0  0  0  0  0  0  0  0
    4.8520    3.9970   17.0480 C   0  0  0  0  0  0  0  0  0  0  0  0
    4.6310    5.3880   17.0540 C   0  0  0  0  0  0  0  0  0  0  0  0
    2.0820    5.8060   19.6290 C   0  0  0  0  0  0  0  0  0  0  0  0
    1.2610    5.3060   20.3730 O   0  0  0  0  0  0  0  0  0  0  0  0
    2.6820    7.6440   17.3010 H   0  0  0  0  0  0  0  0  0  0  0  0
    4.0460    7.9490   18.4570 H   0  0  0  0  0  0  0  0  0  0  0  0
    2.6440    3.0030   19.4730 H   0  0  0  0  0  0  0  0  0  0  0  0
    4.3320    2.0670   17.8800 H   0  0  0  0  0  0  0  0  0  0  0  0
    5.5830    3.5650   16.3650 H   0  0  0  0  0  0  0  0  0  0  0  0
    5.3970    6.3100   16.1430 C   0  0  0  0  0  0  0  0  0  0  0  0
    6.2010    5.6280   15.2840 F   0  0  0  0  0  0  0  0  0  0  0  0
    6.2170    7.1550   16.8290 F   0  0  0  0  0  0  0  0  0  0  0  0
    4.6020    7.1010   15.3750 F   0  0  0  0  0  0  0  0  0  0  0  0
    0.2260   11.7640   19.0620 C   0  0  2  0  0  0  0  0  0  0  0  0
   -0.1550   12.4710   19.8090 H   0  0  0  0  0  0  0  0  0  0  0  0
   -0.9570   11.6040   18.0950 C   0  0  0  0  0  0  0  0  0  0  0  0
   -0.7650   12.1420   17.1570 H   0  0  0  0  0  0  0  0  0  0  0  0
   -1.1120   10.5500   17.8400 H   0  0  0  0  0  0  0  0  0  0  0  0
   -1.8980   11.9860   18.4950 H   0  0  0  0  0  0  0  0  0  0  0  0
    1.6220   12.6420   18.2620 S   0  0  0  0  0  0  0  0  0  0  0  0
    2.3800   13.5270   19.5350 C   0  0  0  0  0  0  0  0  0  0  0  0
    2.0090   13.6120   20.7900 N   0  0  0  0  0  0  0  0  0  0  0  0
    2.9000   14.4320   21.4450 N   0  0  0  0  0  0  0  0  0  0  0  0
    3.7920   14.8270   20.5670 C   0  0  0  0  0  0  0  0  0  0  0  0
    3.5040   14.2830   19.3490 N   0  0  0  0  0  0  0  0  0  0  0  0
    4.6320   15.4780   20.7600 H   0  0  0  0  0  0  0  0  0  0  0  0
    4.2550   14.4880   18.1410 C   0  0  0  0  0  0  0  0  0  0  0  0
    4.0930   13.6440   17.4660 H   0  0  0  0  0  0  0  0  0  0  0  0
    3.9120   15.4050   17.6550 H   0  0  0  0  0  0  0  0  0  0  0  0
    5.3170   14.5570   18.3980 H   0  0  0  0  0  0  0  0  0  0  0  0
    0.5910    9.2310   23.3580 C   0  0  0  0  0  0  0  0  0  0  0  0
    0.4320    9.2220   24.5070 N   0  0  0  0  0  0  0  0  0  0  0  0
  1  2  1  0  0  0  0
  2  8  1  0  0  0  0
  2  3  2  0  0  0  0
  3 46  1  0  0  0  0
  4  9  1  0  0  0  0
  4  3  1  0  0  0  0
  5  4  2  0  0  0  0
  6  1  2  0  0  0  0
  6  5  1  0  0  0  0
  7  6  1  0  0  0  0
 10 18  1  0  0  0  0
 10  5  1  0  0  0  0
 11 21  1  0  0  0  0
 11 10  1  0  0  0  0
 12 11  1  0  0  0  0
 12 13  1  0  0  0  0
 13 18  1  0  0  0  0
 14 13  2  0  0  0  0
 14 22  1  0  0  0  0
 15 14  1  0  0  0  0
 16 17  1  0  0  0  0
 16 15  2  0  0  0  0
 17 12  2  0  0  0  0
 18 19  2  0  0  0  0
 20 11  1  0  0  0  0
 23 15  1  0  0  0  0
 24 16  1  0  0  0  0
 25 27  1  0  0  0  0
 25 17  1  0  0  0  0
 26 25  1  0  0  0  0
 28 25  1  0  0  0  0
 29 30  1  1  0  0  0
 29  1  1  0  0  0  0
 31 34  1  0  0  0  0
 31 29  1  0  0  0  0
 32 31  1  0  0  0  0
 33 31  1  0  0  0  0
 35 29  1  0  0  0  0
 35 36  1  0  0  0  0
 36 37  2  0  0  0  0
 37 38  1  0  0  0  0
 39 41  1  0  0  0  0
 39 38  2  0  0  0  0
 40 36  1  0  0  0  0
 40 39  1  0  0  0  0
 42 45  1  0  0  0  0
 42 40  1  0  0  0  0
 43 42  1  0  0  0  0
 44 42  1  0  0  0  0
 46 47  3  0  0  0  0
M  END
>  <MODEL>
13

>  <REMARK>
 VINA RESULT:    -7.880      2.461      3.644
 INTER + INTRA:          -9.696
 INTER:                  -9.496
 INTRA:                  -0.200
 UNBOUND:                 1.409
  Name = 
  8 active torsions:
  status: ('A' for Active; 'I' for Inactive)
    1  A    between atoms: C_1  and  C_2
    2  A    between atoms: C_2  and  S_3
    3  A    between atoms: C_2  and  C_10
    4  A    between atoms: S_3  and  C_4
    5  A    between atoms: N_8  and  C_9
    6  A    between atoms: C_12  and  C_13
    7  A    between atoms: C_16  and  N_17
    8  A    between atoms: C_24  and  C_25
                            x       y       z     vdW  Elec       q    Type
                         _______ _______ _______ _____ _____    ______ ____

>  <TORSDO>
F 8

$$$$
=
 OpenBabel07192307433D

 47 50  0  0  1  0  0  0  0  0999 V2000
    0.7790   10.5180   19.8260 C   0  0  0  0  0  0  0  0  0  0  0  0
    0.5980   10.4790   21.2220 C   0  0  0  0  0  0  0  0  0  0  0  0
    0.8210    9.3120   21.9540 C   0  0  0  0  0  0  0  0  0  0  0  0
    1.2740    8.1600   21.3070 C   0  0  0  0  0  0  0  0  0  0  0  0
    1.5210    8.1620   19.9260 C   0  0  0  0  0  0  0  0  0  0  0  0
    1.2250    9.3330   19.1820 C   0  0  0  0  0  0  0  0  0  0  0  0
    1.2170    9.2680   17.4370 Cl  0  0  0  0  0  0  0  0  0  0  0  0
    0.2430   11.3610   21.7560 H   0  0  0  0  0  0  0  0  0  0  0  0
    1.4860    7.2820   21.9110 H   0  0  0  0  0  0  0  0  0  0  0  0
    2.0620    6.9850   19.3410 N   0  0  0  0  0  0  0  0  0  0  0  0
    1.7030    5.6440   19.7750 C   0  0  0  0  0  0  0  0  0  0  0  0
    2.4890    4.7690   18.8490 C   0  0  0  0  0  0  0  0  0  0  0  0
    3.3150    5.5570   18.0530 C   0  0  0  0  0  0  0  0  0  0  0  0
    4.1810    5.0250   17.1160 C   0  0  0  0  0  0  0  0  0  0  0  0
    4.2060    3.6380   16.9790 C   0  0  0  0  0  0  0  0  0  0  0  0
    3.3750    2.8260   17.7740 C   0  0  0  0  0  0  0  0  0  0  0  0
    2.5030    3.3820   18.7310 C   0  0  0  0  0  0  0  0  0  0  0  0
    3.0910    6.9650   18.3980 C   0  0  0  0  0  0  0  0  0  0  0  0
    3.7640    7.8730   17.9510 O   0  0  0  0  0  0  0  0  0  0  0  0
    2.0250    5.4790   20.8090 H   0  0  0  0  0  0  0  0  0  0  0  0
    0.6240    5.4980   19.6570 H   0  0  0  0  0  0  0  0  0  0  0  0
    4.8140    5.6690   16.5140 H   0  0  0  0  0  0  0  0  0  0  0  0
    4.8720    3.1810   16.2510 H   0  0  0  0  0  0  0  0  0  0  0  0
    3.4180    1.7450   17.6390 H   0  0  0  0  0  0  0  0  0  0  0  0
    1.6050    2.5150   19.5730 C   0  0  0  0  0  0  0  0  0  0  0  0
    1.6770    1.2040   19.2160 F   0  0  0  0  0  0  0  0  0  0  0  0
    0.2920    2.8610   19.4570 F   0  0  0  0  0  0  0  0  0  0  0  0
    1.8890    2.5650   20.9020 F   0  0  0  0  0  0  0  0  0  0  0  0
    0.4980   11.8040   19.0500 C   0  0  2  0  0  0  0  0  0  0  0  0
    0.1930   12.5540   19.7890 H   0  0  0  0  0  0  0  0  0  0  0  0
   -0.6950   11.7600   18.0820 C   0  0  0  0  0  0  0  0  0  0  0  0
   -1.3230   12.6530   18.2020 H   0  0  0  0  0  0  0  0  0  0  0  0
   -0.3520   11.7410   17.0420 H   0  0  0  0  0  0  0  0  0  0  0  0
   -1.3410   10.8930   18.2300 H   0  0  0  0  0  0  0  0  0  0  0  0
    1.9790   12.5210   18.2440 S   0  0  0  0  0  0  0  0  0  0  0  0
    2.7150   13.5030   19.4580 C   0  0  0  0  0  0  0  0  0  0  0  0
    2.5220   13.4620   20.7540 N   0  0  0  0  0  0  0  0  0  0  0  0
    3.3090   14.4300   21.3350 N   0  0  0  0  0  0  0  0  0  0  0  0
    3.9640   15.0370   20.3720 C   0  0  0  0  0  0  0  0  0  0  0  0
    3.6200   14.4870   19.1720 N   0  0  0  0  0  0  0  0  0  0  0  0
    4.6700   15.8450   20.4920 H   0  0  0  0  0  0  0  0  0  0  0  0
    4.1290   14.8890   17.8890 C   0  0  0  0  0  0  0  0  0  0  0  0
    3.3540   15.4350   17.3460 H   0  0  0  0  0  0  0  0  0  0  0  0
    4.9920   15.5450   18.0340 H   0  0  0  0  0  0  0  0  0  0  0  0
    4.4120   13.9920   17.3300 H   0  0  0  0  0  0  0  0  0  0  0  0
    0.6160    9.2960   23.3740 C   0  0  0  0  0  0  0  0  0  0  0  0
    0.4160    9.2980   24.5170 N   0  0  0  0  0  0  0  0  0  0  0  0
  1  2  1  0  0  0  0
  2  8  1  0  0  0  0
  2  3  2  0  0  0  0
  3 46  1  0  0  0  0
  4  9  1  0  0  0  0
  4  3  1  0  0  0  0
  5  4  2  0  0  0  0
  6  1  2  0  0  0  0
  6  5  1  0  0  0  0
  7  6  1  0  0  0  0
 10 11  1  0  0  0  0
 10  5  1  0  0  0  0
 11 20  1  0  0  0  0
 12 11  1  0  0  0  0
 13 18  1  0  0  0  0
 13 12  2  0  0  0  0
 14 13  1  0  0  0  0
 15 14  2  0  0  0  0
 15 16  1  0  0  0  0
 16 17  2  0  0  0  0
 17 12  1  0  0  0  0
 17 25  1  0  0  0  0
 18 10  1  0  0  0  0
 19 18  2  0  0  0  0
 21 11  1  0  0  0  0
 22 14  1  0  0  0  0
 23 15  1  0  0  0  0
 24 16  1  0  0  0  0
 25 28  1  0  0  0  0
 26 25  1  0  0  0  0
 27 25  1  0  0  0  0
 29 30  1  1  0  0  0
 29  1  1  0  0  0  0
 31 32  1  0  0  0  0
 31 34  1  0  0  0  0
 31 29  1  0  0  0  0
 33 31  1  0  0  0  0
 35 29  1  0  0  0  0
 35 36  1  0  0  0  0
 36 37  2  0  0  0  0
 37 38  1  0  0  0  0
 39 41  1  0  0  0  0
 39 38  2  0  0  0  0
 40 36  1  0  0  0  0
 40 39  1  0  0  0  0
 42 44  1  0  0  0  0
 42 40  1  0  0  0  0
 43 42  1  0  0  0  0
 45 42  1  0  0  0  0
 46 47  3  0  0  0  0
M  END
>  <MODEL>
14

>  <REMARK>
 VINA RESULT:    -7.805      3.522      4.717
 INTER + INTRA:          -9.591
 INTER:                  -9.383
 INTRA:                  -0.208
 UNBOUND:                 1.409
  Name = 
  8 active torsions:
  status: ('A' for Active; 'I' for Inactive)
    1  A    between atoms: C_1  and  C_2
    2  A    between atoms: C_2  and  S_3
    3  A    between atoms: C_2  and  C_10
    4  A    between atoms: S_3  and  C_4
    5  A    between atoms: N_8  and  C_9
    6  A    between atoms: C_12  and  C_13
    7  A    between atoms: C_16  and  N_17
    8  A    between atoms: C_24  and  C_25
                            x       y       z     vdW  Elec       q    Type
                         _______ _______ _______ _____ _____    ______ ____

>  <TORSDO>
F 8

$$$$
=
 OpenBabel07192307433D

 47 50  0  0  1  0  0  0  0  0999 V2000
   -0.7840   12.8180   19.7650 C   0  0  0  0  0  0  0  0  0  0  0  0
   -2.0700   12.5460   19.2580 C   0  0  0  0  0  0  0  0  0  0  0  0
   -2.3480   11.3660   18.5670 C   0  0  0  0  0  0  0  0  0  0  0  0
   -1.3490   10.4050   18.4030 C   0  0  0  0  0  0  0  0  0  0  0  0
   -0.0650   10.6030   18.9340 C   0  0  0  0  0  0  0  0  0  0  0  0
    0.2250   11.8360   19.5740 C   0  0  0  0  0  0  0  0  0  0  0  0
    1.8790   12.2410   19.9580 Cl  0  0  0  0  0  0  0  0  0  0  0  0
   -2.8720   13.2780   19.3690 H   0  0  0  0  0  0  0  0  0  0  0  0
   -1.6090    9.4750   17.9030 H   0  0  0  0  0  0  0  0  0  0  0  0
    0.8820    9.5520   18.8070 N   0  0  0  0  0  0  0  0  0  0  0  0
    0.9130    8.3990   19.6920 C   0  0  0  0  0  0  0  0  0  0  0  0
    2.0370    7.5790   19.1380 C   0  0  0  0  0  0  0  0  0  0  0  0
    2.6620    8.2800   18.1110 C   0  0  0  0  0  0  0  0  0  0  0  0
    3.7550    7.7860   17.4240 C   0  0  0  0  0  0  0  0  0  0  0  0
    4.2290    6.5280   17.7920 C   0  0  0  0  0  0  0  0  0  0  0  0
    3.6070    5.8030   18.8270 C   0  0  0  0  0  0  0  0  0  0  0  0
    2.4990    6.3230   19.5240 C   0  0  0  0  0  0  0  0  0  0  0  0
    1.9680    9.5600   17.9300 C   0  0  0  0  0  0  0  0  0  0  0  0
    2.3710   10.4340   17.1860 O   0  0  0  0  0  0  0  0  0  0  0  0
    1.1470    8.7100   20.7150 H   0  0  0  0  0  0  0  0  0  0  0  0
   -0.0440    7.8690   19.6360 H   0  0  0  0  0  0  0  0  0  0  0  0
    4.2200    8.3600   16.6300 H   0  0  0  0  0  0  0  0  0  0  0  0
    5.0860    6.1020   17.2740 H   0  0  0  0  0  0  0  0  0  0  0  0
    4.0020    4.8210   19.0870 H   0  0  0  0  0  0  0  0  0  0  0  0
    1.8260    5.5450   20.6230 C   0  0  0  0  0  0  0  0  0  0  0  0
    1.2640    6.3590   21.5560 F   0  0  0  0  0  0  0  0  0  0  0  0
    2.6970    4.7460   21.3020 F   0  0  0  0  0  0  0  0  0  0  0  0
    0.8330    4.7270   20.1820 F   0  0  0  0  0  0  0  0  0  0  0  0
   -0.5050   14.1330   20.4910 C   0  0  2  0  0  0  0  0  0  0  0  0
   -1.4300   14.7200   20.4380 H   0  0  0  0  0  0  0  0  0  0  0  0
    0.5340   15.0570   19.8380 C   0  0  0  0  0  0  0  0  0  0  0  0
    1.2340   15.4440   20.5910 H   0  0  0  0  0  0  0  0  0  0  0  0
    1.1260   14.5120   19.0940 H   0  0  0  0  0  0  0  0  0  0  0  0
    0.0930   15.9200   19.3370 H   0  0  0  0  0  0  0  0  0  0  0  0
   -0.1830   13.9350   22.2840 S   0  0  0  0  0  0  0  0  0  0  0  0
   -1.6930   13.4360   22.9560 C   0  0  0  0  0  0  0  0  0  0  0  0
   -2.7050   14.1890   23.3100 N   0  0  0  0  0  0  0  0  0  0  0  0
   -3.6950   13.3700   23.8050 N   0  0  0  0  0  0  0  0  0  0  0  0
   -3.2560   12.1350   23.7380 C   0  0  0  0  0  0  0  0  0  0  0  0
   -1.9970   12.1270   23.2110 N   0  0  0  0  0  0  0  0  0  0  0  0
   -3.7930   11.2490   24.0440 H   0  0  0  0  0  0  0  0  0  0  0  0
   -1.1900   10.9600   22.9840 C   0  0  0  0  0  0  0  0  0  0  0  0
   -1.6940   10.3030   22.2720 H   0  0  0  0  0  0  0  0  0  0  0  0
   -0.2260   11.2650   22.5680 H   0  0  0  0  0  0  0  0  0  0  0  0
   -1.0560   10.4390   23.9370 H   0  0  0  0  0  0  0  0  0  0  0  0
   -3.6630   11.1200   18.0510 C   0  0  0  0  0  0  0  0  0  0  0  0
   -4.7400   10.9520   17.6520 N   0  0  0  0  0  0  0  0  0  0  0  0
  1 29  1  0  0  0  0
  2  8  1  0  0  0  0
  2  1  2  0  0  0  0
  3  2  1  0  0  0  0
  4  3  2  0  0  0  0
  4  5  1  0  0  0  0
  5  6  2  0  0  0  0
  6  1  1  0  0  0  0
  6  7  1  0  0  0  0
  9  4  1  0  0  0  0
 10  5  1  0  0  0  0
 10 11  1  0  0  0  0
 11 20  1  0  0  0  0
 12 17  1  0  0  0  0
 12 11  1  0  0  0  0
 13 12  2  0  0  0  0
 14 15  2  0  0  0  0
 14 13  1  0  0  0  0
 15 16  1  0  0  0  0
 16 24  1  0  0  0  0
 16 17  2  0  0  0  0
 17 25  1  0  0  0  0
 18 13  1  0  0  0  0
 18 10  1  0  0  0  0
 19 18  2  0  0  0  0
 21 11  1  0  0  0  0
 22 14  1  0  0  0  0
 23 15  1  0  0  0  0
 25 27  1  0  0  0  0
 25 26  1  0  0  0  0
 28 25  1  0  0  0  0
 29 30  1  6  0  0  0
 29 35  1  0  0  0  0
 31 29  1  0  0  0  0
 31 32  1  0  0  0  0
 33 31  1  0  0  0  0
 34 31  1  0  0  0  0
 35 36  1  0  0  0  0
 36 40  1  0  0  0  0
 36 37  2  0  0  0  0
 37 38  1  0  0  0  0
 39 38  2  0  0  0  0
 39 41  1  0  0  0  0
 40 39  1  0  0  0  0
 42 40  1  0  0  0  0
 42 45  1  0  0  0  0
 43 42  1  0  0  0  0
 44 42  1  0  0  0  0
 46  3  1  0  0  0  0
 47 46  3  0  0  0  0
M  END
>  <MODEL>
15

>  <REMARK>
 VINA RESULT:    -7.805      3.389      5.158
 INTER + INTRA:          -9.590
 INTER:                  -8.789
 INTRA:                  -0.801
 UNBOUND:                 1.409
  Name = 
  8 active torsions:
  status: ('A' for Active; 'I' for Inactive)
    1  A    between atoms: C_1  and  C_2
    2  A    between atoms: C_2  and  S_3
    3  A    between atoms: C_2  and  C_10
    4  A    between atoms: S_3  and  C_4
    5  A    between atoms: N_8  and  C_9
    6  A    between atoms: C_12  and  C_13
    7  A    between atoms: C_16  and  N_17
    8  A    between atoms: C_24  and  C_25
                            x       y       z     vdW  Elec       q    Type
                         _______ _______ _______ _____ _____    ______ ____

>  <TORSDO>
F 8

$$$$
=
 OpenBabel07192307433D

 47 50  0  0  1  0  0  0  0  0999 V2000
    3.2960    6.0420   18.6650 C   0  0  0  0  0  0  0  0  0  0  0  0
    3.0080    4.9150   19.4600 C   0  0  0  0  0  0  0  0  0  0  0  0
    2.1250    4.9900   20.5390 C   0  0  0  0  0  0  0  0  0  0  0  0
    1.4750    6.1920   20.8230 C   0  0  0  0  0  0  0  0  0  0  0  0
    1.6870    7.3300   20.0310 C   0  0  0  0  0  0  0  0  0  0  0  0
    2.6380    7.2610   18.9800 C   0  0  0  0  0  0  0  0  0  0  0  0
    3.1550    8.7280   18.1870 Cl  0  0  0  0  0  0  0  0  0  0  0  0
    3.5010    3.9630   19.2630 H   0  0  0  0  0  0  0  0  0  0  0  0
    0.7570    6.2060   21.6390 H   0  0  0  0  0  0  0  0  0  0  0  0
    0.9310    8.4980   20.3200 N   0  0  0  0  0  0  0  0  0  0  0  0
    0.1440    9.2030   19.3200 C   0  0  0  0  0  0  0  0  0  0  0  0
   -0.4800   10.3140   20.1060 C   0  0  0  0  0  0  0  0  0  0  0  0
    0.0210   10.3050   21.4050 C   0  0  0  0  0  0  0  0  0  0  0  0
   -0.3520   11.2340   22.3570 C   0  0  0  0  0  0  0  0  0  0  0  0
   -1.2740   12.2080   21.9780 C   0  0  0  0  0  0  0  0  0  0  0  0
   -1.7930   12.2310   20.6700 C   0  0  0  0  0  0  0  0  0  0  0  0
   -1.3970   11.2830   19.7060 C   0  0  0  0  0  0  0  0  0  0  0  0
    0.9620    9.1860   21.5340 C   0  0  0  0  0  0  0  0  0  0  0  0
    1.6470    9.0060   22.5210 O   0  0  0  0  0  0  0  0  0  0  0  0
    0.7960    9.6150   18.5430 H   0  0  0  0  0  0  0  0  0  0  0  0
   -0.6090    8.5260   18.9030 H   0  0  0  0  0  0  0  0  0  0  0  0
    0.0610   11.1990   23.3610 H   0  0  0  0  0  0  0  0  0  0  0  0
   -1.5950   12.9560   22.7000 H   0  0  0  0  0  0  0  0  0  0  0  0
   -2.5140   13.0050   20.4080 H   0  0  0  0  0  0  0  0  0  0  0  0
   -1.9610   11.2990   18.3100 C   0  0  0  0  0  0  0  0  0  0  0  0
   -1.2000   12.0400   17.4600 F   0  0  0  0  0  0  0  0  0  0  0  0
   -3.2100   11.8410   18.2610 F   0  0  0  0  0  0  0  0  0  0  0  0
   -2.0660   10.0640   17.7510 F   0  0  0  0  0  0  0  0  0  0  0  0
    4.2900    5.9340   17.5090 C   0  0  2  0  0  0  0  0  0  0  0  0
    5.2850    6.1080   17.9360 H   0  0  0  0  0  0  0  0  0  0  0  0
    4.1810    7.0150   16.4230 C   0  0  0  0  0  0  0  0  0  0  0  0
    4.8580    7.8520   16.6420 H   0  0  0  0  0  0  0  0  0  0  0  0
    4.4670    6.6140   15.4440 H   0  0  0  0  0  0  0  0  0  0  0  0
    3.1780    7.4320   16.3260 H   0  0  0  0  0  0  0  0  0  0  0  0
    4.3870    4.2600   16.7710 S   0  0  0  0  0  0  0  0  0  0  0  0
    5.5460    4.3990   15.5000 C   0  0  0  0  0  0  0  0  0  0  0  0
    5.3380    4.3280   14.2070 N   0  0  0  0  0  0  0  0  0  0  0  0
    6.5470    4.4850   13.5690 N   0  0  0  0  0  0  0  0  0  0  0  0
    7.4640    4.6490   14.4950 C   0  0  0  0  0  0  0  0  0  0  0  0
    6.8800    4.6000   15.7270 N   0  0  0  0  0  0  0  0  0  0  0  0
    8.5190    4.8020   14.3270 H   0  0  0  0  0  0  0  0  0  0  0  0
    7.5620    4.7390   16.9850 C   0  0  0  0  0  0  0  0  0  0  0  0
    7.4330    3.8250   17.5700 H   0  0  0  0  0  0  0  0  0  0  0  0
    8.6280    4.8960   16.8000 H   0  0  0  0  0  0  0  0  0  0  0  0
    7.1310    5.5880   17.5230 H   0  0  0  0  0  0  0  0  0  0  0  0
    1.8600    3.8300   21.3390 C   0  0  0  0  0  0  0  0  0  0  0  0
    1.6660    2.8710   21.9630 N   0  0  0  0  0  0  0  0  0  0  0  0
  1  6  2  0  0  0  0
  1  2  1  0  0  0  0
  2  3  2  0  0  0  0
  3  4  1  0  0  0  0
  3 46  1  0  0  0  0
  4  9  1  0  0  0  0
  5 10  1  0  0  0  0
  5  4  2  0  0  0  0
  6  5  1  0  0  0  0
  7  6  1  0  0  0  0
  8  2  1  0  0  0  0
 10 18  1  0  0  0  0
 11 12  1  0  0  0  0
 11 10  1  0  0  0  0
 12 13  1  0  0  0  0
 13 18  1  0  0  0  0
 13 14  2  0  0  0  0
 14 22  1  0  0  0  0
 15 14  1  0  0  0  0
 15 23  1  0  0  0  0
 16 15  2  0  0  0  0
 17 12  2  0  0  0  0
 17 16  1  0  0  0  0
 18 19  2  0  0  0  0
 20 11  1  0  0  0  0
 21 11  1  0  0  0  0
 24 16  1  0  0  0  0
 25 17  1  0  0  0  0
 26 25  1  0  0  0  0
 27 25  1  0  0  0  0
 28 25  1  0  0  0  0
 29 30  1  1  0  0  0
 29  1  1  0  0  0  0
 31 32  1  0  0  0  0
 31 29  1  0  0  0  0
 33 31  1  0  0  0  0
 34 31  1  0  0  0  0
 35 29  1  0  0  0  0
 36 40  1  0  0  0  0
 36 35  1  0  0  0  0
 37 36  2  0  0  0  0
 38 37  1  0  0  0  0
 38 39  2  0  0  0  0
 39 40  1  0  0  0  0
 40 42  1  0  0  0  0
 41 39  1  0  0  0  0
 42 45  1  0  0  0  0
 42 43  1  0  0  0  0
 44 42  1  0  0  0  0
 46 47  3  0  0  0  0
M  END
>  <MODEL>
16

>  <REMARK>
 VINA RESULT:    -7.802      4.231      8.378
 INTER + INTRA:          -9.587
 INTER:                  -9.838
 INTRA:                   0.251
 UNBOUND:                 1.409
  Name = 
  8 active torsions:
  status: ('A' for Active; 'I' for Inactive)
    1  A    between atoms: C_1  and  C_2
    2  A    between atoms: C_2  and  S_3
    3  A    between atoms: C_2  and  C_10
    4  A    between atoms: S_3  and  C_4
    5  A    between atoms: N_8  and  C_9
    6  A    between atoms: C_12  and  C_13
    7  A    between atoms: C_16  and  N_17
    8  A    between atoms: C_24  and  C_25
                            x       y       z     vdW  Elec       q    Type
                         _______ _______ _______ _____ _____    ______ ____

>  <TORSDO>
F 8

$$$$
=
 OpenBabel07192307433D

 47 50  0  0  1  0  0  0  0  0999 V2000
    4.1630    5.1450   17.0530 C   0  0  0  0  0  0  0  0  0  0  0  0
    3.5730    3.8830   17.2670 C   0  0  0  0  0  0  0  0  0  0  0  0
    2.5470    3.7060   18.1970 C   0  0  0  0  0  0  0  0  0  0  0  0
    2.0550    4.8030   18.9070 C   0  0  0  0  0  0  0  0  0  0  0  0
    2.5720    6.0890   18.6930 C   0  0  0  0  0  0  0  0  0  0  0  0
    3.6610    6.2460   17.7970 C   0  0  0  0  0  0  0  0  0  0  0  0
    4.5280    7.7610   17.7480 Cl  0  0  0  0  0  0  0  0  0  0  0  0
    3.9370    3.0070   16.7290 H   0  0  0  0  0  0  0  0  0  0  0  0
    1.2220    4.6420   19.5870 H   0  0  0  0  0  0  0  0  0  0  0  0
    1.9720    7.1760   19.3840 N   0  0  0  0  0  0  0  0  0  0  0  0
    1.7650    8.4840   18.7810 C   0  0  0  0  0  0  0  0  0  0  0  0
    1.0820    9.2520   19.8700 C   0  0  0  0  0  0  0  0  0  0  0  0
    1.0300    8.4760   21.0250 C   0  0  0  0  0  0  0  0  0  0  0  0
    0.4800    8.9310   22.2080 C   0  0  0  0  0  0  0  0  0  0  0  0
   -0.0450   10.2220   22.2180 C   0  0  0  0  0  0  0  0  0  0  0  0
   -0.0040   11.0190   21.0580 C   0  0  0  0  0  0  0  0  0  0  0  0
    0.5680   10.5460   19.8620 C   0  0  0  0  0  0  0  0  0  0  0  0
    1.6440    7.1740   20.7400 C   0  0  0  0  0  0  0  0  0  0  0  0
    1.8530    6.3370   21.5970 O   0  0  0  0  0  0  0  0  0  0  0  0
    2.7260    8.9500   18.5420 H   0  0  0  0  0  0  0  0  0  0  0  0
    1.1300    8.3820   17.8950 H   0  0  0  0  0  0  0  0  0  0  0  0
    0.4590    8.3000   23.0910 H   0  0  0  0  0  0  0  0  0  0  0  0
   -0.4900   10.6160   23.1290 H   0  0  0  0  0  0  0  0  0  0  0  0
   -0.4260   12.0240   21.1000 H   0  0  0  0  0  0  0  0  0  0  0  0
    0.6020   11.3930   18.6170 C   0  0  0  0  0  0  0  0  0  0  0  0
    0.1470   12.6550   18.8440 F   0  0  0  0  0  0  0  0  0  0  0  0
   -0.1840   10.8870   17.6240 F   0  0  0  0  0  0  0  0  0  0  0  0
    1.8440   11.5260   18.0810 F   0  0  0  0  0  0  0  0  0  0  0  0
    5.3060    5.2990   16.0510 C   0  0  2  0  0  0  0  0  0  0  0  0
    5.3560    6.3640   15.7960 H   0  0  0  0  0  0  0  0  0  0  0  0
    5.1020    4.6210   14.6870 C   0  0  0  0  0  0  0  0  0  0  0  0
    4.7260    3.5970   14.8170 H   0  0  0  0  0  0  0  0  0  0  0  0
    4.3640    5.1650   14.0880 H   0  0  0  0  0  0  0  0  0  0  0  0
    6.0170    4.5520   14.0970 H   0  0  0  0  0  0  0  0  0  0  0  0
    6.9570    4.9100   16.7450 S   0  0  0  0  0  0  0  0  0  0  0  0
    7.5270    6.4020   17.4010 C   0  0  0  0  0  0  0  0  0  0  0  0
    7.6330    7.5600   16.7960 N   0  0  0  0  0  0  0  0  0  0  0  0
    8.1410    8.4690   17.6970 N   0  0  0  0  0  0  0  0  0  0  0  0
    8.3320    7.8350   18.8300 C   0  0  0  0  0  0  0  0  0  0  0  0
    7.9610    6.5300   18.6910 N   0  0  0  0  0  0  0  0  0  0  0  0
    8.7190    8.2640   19.7430 H   0  0  0  0  0  0  0  0  0  0  0  0
    8.0260    5.5250   19.7170 C   0  0  0  0  0  0  0  0  0  0  0  0
    7.0300    5.1060   19.8780 H   0  0  0  0  0  0  0  0  0  0  0  0
    8.7020    4.7280   19.3970 H   0  0  0  0  0  0  0  0  0  0  0  0
    8.3840    5.9920   20.6390 H   0  0  0  0  0  0  0  0  0  0  0  0
    1.9730    2.4080   18.4040 C   0  0  0  0  0  0  0  0  0  0  0  0
    1.4780    1.3690   18.5530 N   0  0  0  0  0  0  0  0  0  0  0  0
  1  2  2  0  0  0  0
  1  6  1  0  0  0  0
  2  3  1  0  0  0  0
  3 46  1  0  0  0  0
  3  4  2  0  0  0  0
  4  9  1  0  0  0  0
  5  4  1  0  0  0  0
  5 10  1  0  0  0  0
  6  5  2  0  0  0  0
  7  6  1  0  0  0  0
  8  2  1  0  0  0  0
 10 18  1  0  0  0  0
 11 10  1  0  0  0  0
 11 12  1  0  0  0  0
 12 13  1  0  0  0  0
 13 14  2  0  0  0  0
 14 15  1  0  0  0  0
 14 22  1  0  0  0  0
 15 23  1  0  0  0  0
 16 24  1  0  0  0  0
 16 15  2  0  0  0  0
 17 12  2  0  0  0  0
 17 16  1  0  0  0  0
 18 13  1  0  0  0  0
 18 19  2  0  0  0  0
 20 11  1  0  0  0  0
 21 11  1  0  0  0  0
 25 26  1  0  0  0  0
 25 17  1  0  0  0  0
 27 25  1  0  0  0  0
 28 25  1  0  0  0  0
 29 30  1  6  0  0  0
 29 35  1  0  0  0  0
 29  1  1  0  0  0  0
 31 32  1  0  0  0  0
 31 29  1  0  0  0  0
 33 31  1  0  0  0  0
 34 31  1  0  0  0  0
 35 36  1  0  0  0  0
 36 40  1  0  0  0  0
 37 36  2  0  0  0  0
 37 38  1  0  0  0  0
 38 39  2  0  0  0  0
 39 41  1  0  0  0  0
 40 39  1  0  0  0  0
 40 42  1  0  0  0  0
 42 43  1  0  0  0  0
 42 45  1  0  0  0  0
 44 42  1  0  0  0  0
 46 47  3  0  0  0  0
M  END
>  <MODEL>
17

>  <REMARK>
 VINA RESULT:    -7.735      4.173      8.301
 INTER + INTRA:          -9.492
 INTER:                  -8.873
 INTRA:                  -0.618
 UNBOUND:                 1.409
  Name = 
  8 active torsions:
  status: ('A' for Active; 'I' for Inactive)
    1  A    between atoms: C_1  and  C_2
    2  A    between atoms: C_2  and  S_3
    3  A    between atoms: C_2  and  C_10
    4  A    between atoms: S_3  and  C_4
    5  A    between atoms: N_8  and  C_9
    6  A    between atoms: C_12  and  C_13
    7  A    between atoms: C_16  and  N_17
    8  A    between atoms: C_24  and  C_25
                            x       y       z     vdW  Elec       q    Type
                         _______ _______ _______ _____ _____    ______ ____

>  <TORSDO>
F 8

$$$$
=
 OpenBabel07192307433D

 47 50  0  0  1  0  0  0  0  0999 V2000
    0.8180   10.4550   19.6150 C   0  0  0  0  0  0  0  0  0  0  0  0
    0.5800   10.4650   21.0030 C   0  0  0  0  0  0  0  0  0  0  0  0
    0.7640    9.3220   21.7830 C   0  0  0  0  0  0  0  0  0  0  0  0
    1.2330    8.1460   21.1940 C   0  0  0  0  0  0  0  0  0  0  0  0
    1.5360    8.0990   19.8250 C   0  0  0  0  0  0  0  0  0  0  0  0
    1.2800    9.2460   19.0300 C   0  0  0  0  0  0  0  0  0  0  0  0
    1.3420    9.1210   17.2890 Cl  0  0  0  0  0  0  0  0  0  0  0  0
    0.2110   11.3670   21.4920 H   0  0  0  0  0  0  0  0  0  0  0  0
    1.4130    7.2880   21.8350 H   0  0  0  0  0  0  0  0  0  0  0  0
    2.0900    6.8990   19.3020 N   0  0  0  0  0  0  0  0  0  0  0  0
    1.7010    5.5770   19.7650 C   0  0  0  0  0  0  0  0  0  0  0  0
    2.5180    4.6650   18.9020 C   0  0  0  0  0  0  0  0  0  0  0  0
    3.3840    5.4190   18.1160 C   0  0  0  0  0  0  0  0  0  0  0  0
    4.2840    4.8500   17.2360 C   0  0  0  0  0  0  0  0  0  0  0  0
    4.3010    3.4600   17.1450 C   0  0  0  0  0  0  0  0  0  0  0  0
    3.4300    2.6800   17.9310 C   0  0  0  0  0  0  0  0  0  0  0  0
    2.5240    3.2740   18.8310 C   0  0  0  0  0  0  0  0  0  0  0  0
    3.1570    6.8400   18.4050 C   0  0  0  0  0  0  0  0  0  0  0  0
    3.8570    7.7280   17.9570 O   0  0  0  0  0  0  0  0  0  0  0  0
    1.9780    5.4440   20.8160 H   0  0  0  0  0  0  0  0  0  0  0  0
    0.6270    5.4350   19.6050 H   0  0  0  0  0  0  0  0  0  0  0  0
    4.9470    5.4680   16.6390 H   0  0  0  0  0  0  0  0  0  0  0  0
    4.9930    2.9730   16.4610 H   0  0  0  0  0  0  0  0  0  0  0  0
    3.4690    1.5960   17.8330 H   0  0  0  0  0  0  0  0  0  0  0  0
    1.5840    2.4430   19.6620 C   0  0  0  0  0  0  0  0  0  0  0  0
    0.2800    2.7220   19.3920 F   0  0  0  0  0  0  0  0  0  0  0  0
    1.7420    2.6610   20.9990 F   0  0  0  0  0  0  0  0  0  0  0  0
    1.7340    1.1040   19.4810 F   0  0  0  0  0  0  0  0  0  0  0  0
    0.5780   11.7160   18.7850 C   0  0  2  0  0  0  0  0  0  0  0  0
    0.5040   11.3920   17.7400 H   0  0  0  0  0  0  0  0  0  0  0  0
    1.7290   12.7330   18.7560 C   0  0  0  0  0  0  0  0  0  0  0  0
    1.4420   13.6550   19.2790 H   0  0  0  0  0  0  0  0  0  0  0  0
    2.6140   12.3340   19.2640 H   0  0  0  0  0  0  0  0  0  0  0  0
    2.0300   13.0180   17.7470 H   0  0  0  0  0  0  0  0  0  0  0  0
   -1.0240   12.5360   19.1310 S   0  0  0  0  0  0  0  0  0  0  0  0
   -0.7230   13.5430   20.5000 C   0  0  0  0  0  0  0  0  0  0  0  0
    0.0740   14.5810   20.5770 N   0  0  0  0  0  0  0  0  0  0  0  0
    0.0110   15.0750   21.8600 N   0  0  0  0  0  0  0  0  0  0  0  0
   -0.8260   14.3200   22.5320 C   0  0  0  0  0  0  0  0  0  0  0  0
   -1.3120   13.3410   21.7170 N   0  0  0  0  0  0  0  0  0  0  0  0
   -1.1020   14.4410   23.5700 H   0  0  0  0  0  0  0  0  0  0  0  0
   -2.2530   12.3230   22.0970 C   0  0  0  0  0  0  0  0  0  0  0  0
   -2.4490   11.6720   21.2410 H   0  0  0  0  0  0  0  0  0  0  0  0
   -1.8290   11.7260   22.9100 H   0  0  0  0  0  0  0  0  0  0  0  0
   -3.1820   12.8070   22.4140 H   0  0  0  0  0  0  0  0  0  0  0  0
    0.5010    9.3560   23.1930 C   0  0  0  0  0  0  0  0  0  0  0  0
    0.3240    9.3710   24.3390 N   0  0  0  0  0  0  0  0  0  0  0  0
  1  2  1  0  0  0  0
  2  8  1  0  0  0  0
  2  3  2  0  0  0  0
  3 46  1  0  0  0  0
  4  3  1  0  0  0  0
  4  9  1  0  0  0  0
  5  4  2  0  0  0  0
  6  1  2  0  0  0  0
  6  5  1  0  0  0  0
  7  6  1  0  0  0  0
 10 11  1  0  0  0  0
 10  5  1  0  0  0  0
 11 20  1  0  0  0  0
 12 11  1  0  0  0  0
 13 18  1  0  0  0  0
 13 12  2  0  0  0  0
 14 13  1  0  0  0  0
 15 14  2  0  0  0  0
 15 16  1  0  0  0  0
 16 17  2  0  0  0  0
 17 12  1  0  0  0  0
 17 25  1  0  0  0  0
 18 10  1  0  0  0  0
 19 18  2  0  0  0  0
 21 11  1  0  0  0  0
 22 14  1  0  0  0  0
 23 15  1  0  0  0  0
 24 16  1  0  0  0  0
 25 27  1  0  0  0  0
 26 25  1  0  0  0  0
 28 25  1  0  0  0  0
 29 30  1  6  0  0  0
 29 35  1  0  0  0  0
 29  1  1  0  0  0  0
 31 29  1  0  0  0  0
 31 33  1  0  0  0  0
 31 32  1  0  0  0  0
 34 31  1  0  0  0  0
 35 36  1  0  0  0  0
 36 37  2  0  0  0  0
 36 40  1  0  0  0  0
 37 38  1  0  0  0  0
 38 39  2  0  0  0  0
 39 41  1  0  0  0  0
 40 42  1  0  0  0  0
 40 39  1  0  0  0  0
 42 45  1  0  0  0  0
 42 44  1  0  0  0  0
 43 42  1  0  0  0  0
 46 47  3  0  0  0  0
M  END
>  <MODEL>
18

>  <REMARK>
 VINA RESULT:    -7.649      3.352      3.934
 INTER + INTRA:          -9.371
 INTER:                  -9.343
 INTRA:                  -0.027
 UNBOUND:                 1.409
  Name = 
  8 active torsions:
  status: ('A' for Active; 'I' for Inactive)
    1  A    between atoms: C_1  and  C_2
    2  A    between atoms: C_2  and  S_3
    3  A    between atoms: C_2  and  C_10
    4  A    between atoms: S_3  and  C_4
    5  A    between atoms: N_8  and  C_9
    6  A    between atoms: C_12  and  C_13
    7  A    between atoms: C_16  and  N_17
    8  A    between atoms: C_24  and  C_25
                            x       y       z     vdW  Elec       q    Type
                         _______ _______ _______ _____ _____    ______ ____

>  <TORSDO>
F 8

$$$$
=
 OpenBabel07192307433D

 47 50  0  0  1  0  0  0  0  0999 V2000
   -0.2040   10.9210   20.3040 C   0  0  0  0  0  0  0  0  0  0  0  0
    0.4510   11.9810   19.6460 C   0  0  0  0  0  0  0  0  0  0  0  0
    1.6100   11.7690   18.8970 C   0  0  0  0  0  0  0  0  0  0  0  0
    2.1190   10.4770   18.7540 C   0  0  0  0  0  0  0  0  0  0  0  0
    1.4740    9.3800   19.3460 C   0  0  0  0  0  0  0  0  0  0  0  0
    0.3370    9.6160   20.1610 C   0  0  0  0  0  0  0  0  0  0  0  0
   -0.2910    8.3290   21.1590 Cl  0  0  0  0  0  0  0  0  0  0  0  0
    0.0790   13.0020   19.7400 H   0  0  0  0  0  0  0  0  0  0  0  0
    2.9940   10.3370   18.1240 H   0  0  0  0  0  0  0  0  0  0  0  0
    1.9930    8.0810   19.0920 N   0  0  0  0  0  0  0  0  0  0  0  0
    1.8180    6.9640   20.0070 C   0  0  0  0  0  0  0  0  0  0  0  0
    2.4950    5.8350   19.2920 C   0  0  0  0  0  0  0  0  0  0  0  0
    3.1070    6.3160   18.1370 C   0  0  0  0  0  0  0  0  0  0  0  0
    3.8340    5.5080   17.2840 C   0  0  0  0  0  0  0  0  0  0  0  0
    3.9400    4.1580   17.6120 C   0  0  0  0  0  0  0  0  0  0  0  0
    3.3250    3.6540   18.7750 C   0  0  0  0  0  0  0  0  0  0  0  0
    2.5940    4.4910   19.6400 C   0  0  0  0  0  0  0  0  0  0  0  0
    2.8390    7.7550   18.0320 C   0  0  0  0  0  0  0  0  0  0  0  0
    3.3530    8.4650   17.1900 O   0  0  0  0  0  0  0  0  0  0  0  0
    2.3280    7.1640   20.9550 H   0  0  0  0  0  0  0  0  0  0  0  0
    0.7490    6.7720   20.1510 H   0  0  0  0  0  0  0  0  0  0  0  0
    4.3010    5.9160   16.3930 H   0  0  0  0  0  0  0  0  0  0  0  0
    4.5010    3.4880   16.9650 H   0  0  0  0  0  0  0  0  0  0  0  0
    3.4260    2.5930   19.0000 H   0  0  0  0  0  0  0  0  0  0  0  0
    1.9260    3.9520   20.8770 C   0  0  0  0  0  0  0  0  0  0  0  0
    2.0590    2.6020   20.9830 F   0  0  0  0  0  0  0  0  0  0  0  0
    0.5840    4.1950   20.8890 F   0  0  0  0  0  0  0  0  0  0  0  0
    2.4120    4.4760   22.0320 F   0  0  0  0  0  0  0  0  0  0  0  0
   -1.4540   11.1920   21.1410 C   0  0  2  0  0  0  0  0  0  0  0  0
   -2.0750   10.2910   21.0740 H   0  0  0  0  0  0  0  0  0  0  0  0
   -2.3840   12.2990   20.6250 C   0  0  0  0  0  0  0  0  0  0  0  0
   -3.2260   11.8670   20.0660 H   0  0  0  0  0  0  0  0  0  0  0  0
   -2.8070   12.8720   21.4580 H   0  0  0  0  0  0  0  0  0  0  0  0
   -1.8880   13.0070   19.9590 H   0  0  0  0  0  0  0  0  0  0  0  0
   -1.1160   11.3910   22.9320 S   0  0  0  0  0  0  0  0  0  0  0  0
   -2.3650   12.4340   23.5080 C   0  0  0  0  0  0  0  0  0  0  0  0
   -3.5950   12.1160   23.8310 N   0  0  0  0  0  0  0  0  0  0  0  0
   -4.2430   13.2630   24.2290 N   0  0  0  0  0  0  0  0  0  0  0  0
   -3.3860   14.2530   24.1370 C   0  0  0  0  0  0  0  0  0  0  0  0
   -2.1890   13.7780   23.6850 N   0  0  0  0  0  0  0  0  0  0  0  0
   -3.5780   15.2880   24.3790 H   0  0  0  0  0  0  0  0  0  0  0  0
   -1.0080   14.5640   23.4550 C   0  0  0  0  0  0  0  0  0  0  0  0
   -0.5780   14.2980   22.4870 H   0  0  0  0  0  0  0  0  0  0  0  0
   -1.2770   15.6240   23.4480 H   0  0  0  0  0  0  0  0  0  0  0  0
   -0.2880   14.3510   24.2520 H   0  0  0  0  0  0  0  0  0  0  0  0
    2.2640   12.8680   18.2480 C   0  0  0  0  0  0  0  0  0  0  0  0
    2.7990   13.7730   17.7560 N   0  0  0  0  0  0  0  0  0  0  0  0
  1 29  1  0  0  0  0
  2  8  1  0  0  0  0
  2  1  2  0  0  0  0
  3  2  1  0  0  0  0
  4  3  2  0  0  0  0
  4  5  1  0  0  0  0
  5  6  2  0  0  0  0
  6  1  1  0  0  0  0
  6  7  1  0  0  0  0
  9  4  1  0  0  0  0
 10  5  1  0  0  0  0
 10 11  1  0  0  0  0
 11 21  1  0  0  0  0
 11 20  1  0  0  0  0
 12 17  1  0  0  0  0
 12 11  1  0  0  0  0
 13 12  2  0  0  0  0
 14 15  2  0  0  0  0
 14 13  1  0  0  0  0
 15 16  1  0  0  0  0
 16 24  1  0  0  0  0
 16 17  2  0  0  0  0
 17 25  1  0  0  0  0
 18 13  1  0  0  0  0
 18 10  1  0  0  0  0
 19 18  2  0  0  0  0
 22 14  1  0  0  0  0
 23 15  1  0  0  0  0
 25 27  1  0  0  0  0
 25 26  1  0  0  0  0
 25 28  1  0  0  0  0
 29 30  1  6  0  0  0
 29 35  1  0  0  0  0
 31 29  1  0  0  0  0
 31 33  1  0  0  0  0
 32 31  1  0  0  0  0
 34 31  1  0  0  0  0
 35 36  1  0  0  0  0
 36 40  1  0  0  0  0
 36 37  2  0  0  0  0
 37 38  1  0  0  0  0
 39 38  2  0  0  0  0
 39 41  1  0  0  0  0
 40 39  1  0  0  0  0
 42 40  1  0  0  0  0
 42 45  1  0  0  0  0
 43 42  1  0  0  0  0
 44 42  1  0  0  0  0
 46  3  1  0  0  0  0
 47 46  3  0  0  0  0
M  END
>  <MODEL>
19

>  <REMARK>
 VINA RESULT:    -7.579      3.732      5.017
 INTER + INTRA:          -9.272
 INTER:                  -9.450
 INTRA:                   0.178
 UNBOUND:                 1.409
  Name = 
  8 active torsions:
  status: ('A' for Active; 'I' for Inactive)
    1  A    between atoms: C_1  and  C_2
    2  A    between atoms: C_2  and  S_3
    3  A    between atoms: C_2  and  C_10
    4  A    between atoms: S_3  and  C_4
    5  A    between atoms: N_8  and  C_9
    6  A    between atoms: C_12  and  C_13
    7  A    between atoms: C_16  and  N_17
    8  A    between atoms: C_24  and  C_25
                            x       y       z     vdW  Elec       q    Type
                         _______ _______ _______ _____ _____    ______ ____

>  <TORSDO>
F 8

$$$$
=
 OpenBabel07192307433D

 47 50  0  0  1  0  0  0  0  0999 V2000
   -0.3930   12.7490   19.4700 C   0  0  0  0  0  0  0  0  0  0  0  0
   -1.5340   12.6200   18.6530 C   0  0  0  0  0  0  0  0  0  0  0  0
   -1.8160   11.4320   17.9770 C   0  0  0  0  0  0  0  0  0  0  0  0
   -0.9800   10.3250   18.1360 C   0  0  0  0  0  0  0  0  0  0  0  0
    0.1390   10.3850   18.9800 C   0  0  0  0  0  0  0  0  0  0  0  0
    0.4550   11.6180   19.6070 C   0  0  0  0  0  0  0  0  0  0  0  0
    1.9990   11.8140   20.3980 Cl  0  0  0  0  0  0  0  0  0  0  0  0
   -2.2050   13.4670   18.5070 H   0  0  0  0  0  0  0  0  0  0  0  0
   -1.2540    9.4000   17.6360 H   0  0  0  0  0  0  0  0  0  0  0  0
    0.9010    9.2000   19.1670 N   0  0  0  0  0  0  0  0  0  0  0  0
    1.8780    8.7240   18.2010 C   0  0  0  0  0  0  0  0  0  0  0  0
    2.4270    7.4940   18.8560 C   0  0  0  0  0  0  0  0  0  0  0  0
    1.7210    7.2370   20.0290 C   0  0  0  0  0  0  0  0  0  0  0  0
    1.9850    6.1480   20.8370 C   0  0  0  0  0  0  0  0  0  0  0  0
    3.0080    5.2890   20.4440 C   0  0  0  0  0  0  0  0  0  0  0  0
    3.7340    5.5340   19.2620 C   0  0  0  0  0  0  0  0  0  0  0  0
    3.4490    6.6430   18.4430 C   0  0  0  0  0  0  0  0  0  0  0  0
    0.7120    8.2880   20.2050 C   0  0  0  0  0  0  0  0  0  0  0  0
   -0.1340    8.2550   21.0780 O   0  0  0  0  0  0  0  0  0  0  0  0
    1.3850    8.4570   17.2600 H   0  0  0  0  0  0  0  0  0  0  0  0
    2.6510    9.4860   18.0540 H   0  0  0  0  0  0  0  0  0  0  0  0
    1.4130    5.9760   21.7440 H   0  0  0  0  0  0  0  0  0  0  0  0
    3.2490    4.4210   21.0550 H   0  0  0  0  0  0  0  0  0  0  0  0
    4.5300    4.8420   18.9850 H   0  0  0  0  0  0  0  0  0  0  0  0
    4.2320    6.9140   17.1860 C   0  0  0  0  0  0  0  0  0  0  0  0
    4.4420    5.7830   16.4600 F   0  0  0  0  0  0  0  0  0  0  0  0
    5.4690    7.4250   17.4450 F   0  0  0  0  0  0  0  0  0  0  0  0
    3.6290    7.7990   16.3480 F   0  0  0  0  0  0  0  0  0  0  0  0
   -0.0960   14.0730   20.1720 C   0  0  2  0  0  0  0  0  0  0  0  0
   -0.9690   14.7170   20.0070 H   0  0  0  0  0  0  0  0  0  0  0  0
    1.0630   14.8990   19.5940 C   0  0  0  0  0  0  0  0  0  0  0  0
    0.6930   15.6140   18.8480 H   0  0  0  0  0  0  0  0  0  0  0  0
    1.5590   15.4780   20.3820 H   0  0  0  0  0  0  0  0  0  0  0  0
    1.8250   14.2910   19.1050 H   0  0  0  0  0  0  0  0  0  0  0  0
    0.0350   13.9300   21.9950 S   0  0  0  0  0  0  0  0  0  0  0  0
   -1.5420   13.4670   22.5210 C   0  0  0  0  0  0  0  0  0  0  0  0
   -2.6130   14.2170   22.6150 N   0  0  0  0  0  0  0  0  0  0  0  0
   -3.6440   13.4350   23.0860 N   0  0  0  0  0  0  0  0  0  0  0  0
   -3.1690   12.2240   23.2680 C   0  0  0  0  0  0  0  0  0  0  0  0
   -1.8490   12.1970   22.9260 N   0  0  0  0  0  0  0  0  0  0  0  0
   -3.7220   11.3700   23.6280 H   0  0  0  0  0  0  0  0  0  0  0  0
   -0.9890   11.0470   22.9910 C   0  0  0  0  0  0  0  0  0  0  0  0
   -0.8650   10.7460   24.0340 H   0  0  0  0  0  0  0  0  0  0  0  0
   -1.4460   10.2240   22.4330 H   0  0  0  0  0  0  0  0  0  0  0  0
   -0.0170   11.3130   22.5640 H   0  0  0  0  0  0  0  0  0  0  0  0
   -2.9780   11.3320   17.1410 C   0  0  0  0  0  0  0  0  0  0  0  0
   -3.9380   11.2470   16.4960 N   0  0  0  0  0  0  0  0  0  0  0  0
  1  6  1  0  0  0  0
  1 29  1  0  0  0  0
  2  1  2  0  0  0  0
  3  4  2  0  0  0  0
  3  2  1  0  0  0  0
  4  5  1  0  0  0  0
  5 10  1  0  0  0  0
  5  6  2  0  0  0  0
  6  7  1  0  0  0  0
  8  2  1  0  0  0  0
  9  4  1  0  0  0  0
 10 18  1  0  0  0  0
 11 12  1  0  0  0  0
 11 10  1  0  0  0  0
 12 13  1  0  0  0  0
 13 18  1  0  0  0  0
 13 14  2  0  0  0  0
 14 22  1  0  0  0  0
 15 14  1  0  0  0  0
 15 23  1  0  0  0  0
 16 15  2  0  0  0  0
 17 12  2  0  0  0  0
 17 16  1  0  0  0  0
 18 19  2  0  0  0  0
 20 11  1  0  0  0  0
 21 11  1  0  0  0  0
 24 16  1  0  0  0  0
 25 27  1  0  0  0  0
 25 17  1  0  0  0  0
 26 25  1  0  0  0  0
 28 25  1  0  0  0  0
 29 30  1  6  0  0  0
 29 35  1  0  0  0  0
 31 29  1  0  0  0  0
 31 33  1  0  0  0  0
 32 31  1  0  0  0  0
 34 31  1  0  0  0  0
 35 36  1  0  0  0  0
 36 37  2  0  0  0  0
 36 40  1  0  0  0  0
 37 38  1  0  0  0  0
 38 39  2  0  0  0  0
 39 41  1  0  0  0  0
 40 42  1  0  0  0  0
 40 39  1  0  0  0  0
 42 43  1  0  0  0  0
 44 42  1  0  0  0  0
 45 42  1  0  0  0  0
 46  3  1  0  0  0  0
 47 46  3  0  0  0  0
M  END
>  <MODEL>
20

>  <REMARK>
 VINA RESULT:    -7.545      2.551      4.343
 INTER + INTRA:          -9.224
 INTER:                  -8.364
 INTRA:                  -0.860
 UNBOUND:                 1.409
  Name = 
  8 active torsions:
  status: ('A' for Active; 'I' for Inactive)
    1  A    between atoms: C_1  and  C_2
    2  A    between atoms: C_2  and  S_3
    3  A    between atoms: C_2  and  C_10
    4  A    between atoms: S_3  and  C_4
    5  A    between atoms: N_8  and  C_9
    6  A    between atoms: C_12  and  C_13
    7  A    between atoms: C_16  and  N_17
    8  A    between atoms: C_24  and  C_25
                            x       y       z     vdW  Elec       q    Type
                         _______ _______ _______ _____ _____    ______ ____

>  <TORSDO>
F 8

$$$$
=
 OpenBabel07192307433D

 47 50  0  0  1  0  0  0  0  0999 V2000
    4.1920    4.0200   18.0230 C   0  0  0  0  0  0  0  0  0  0  0  0
    5.5210    4.2410   18.4360 C   0  0  0  0  0  0  0  0  0  0  0  0
    5.9360    5.4810   18.9230 C   0  0  0  0  0  0  0  0  0  0  0  0
    5.0150    6.5230   19.0490 C   0  0  0  0  0  0  0  0  0  0  0  0
    3.6690    6.3390   18.7010 C   0  0  0  0  0  0  0  0  0  0  0  0
    3.2730    5.0960   18.1420 C   0  0  0  0  0  0  0  0  0  0  0  0
    1.6950    4.9430   17.4100 Cl  0  0  0  0  0  0  0  0  0  0  0  0
    6.2640    3.4470   18.3490 H   0  0  0  0  0  0  0  0  0  0  0  0
    5.3580    7.4610   19.4780 H   0  0  0  0  0  0  0  0  0  0  0  0
    2.7650    7.4110   18.9320 N   0  0  0  0  0  0  0  0  0  0  0  0
    1.9600    7.5260   20.1380 C   0  0  0  0  0  0  0  0  0  0  0  0
    1.2200    8.8110   19.9270 C   0  0  0  0  0  0  0  0  0  0  0  0
    1.4930    9.3020   18.6540 C   0  0  0  0  0  0  0  0  0  0  0  0
    0.9300   10.4640   18.1630 C   0  0  0  0  0  0  0  0  0  0  0  0
    0.0590   11.1590   19.0010 C   0  0  0  0  0  0  0  0  0  0  0  0
   -0.2260   10.6780   20.2930 C   0  0  0  0  0  0  0  0  0  0  0  0
    0.3480    9.4870   20.7770 C   0  0  0  0  0  0  0  0  0  0  0  0
    2.4320    8.3880   17.9920 C   0  0  0  0  0  0  0  0  0  0  0  0
    2.7520    8.4970   16.8250 O   0  0  0  0  0  0  0  0  0  0  0  0
    1.2520    6.6940   20.2040 H   0  0  0  0  0  0  0  0  0  0  0  0
    2.6170    7.5720   21.0130 H   0  0  0  0  0  0  0  0  0  0  0  0
    1.1620   10.8180   17.1640 H   0  0  0  0  0  0  0  0  0  0  0  0
   -0.4040   12.0800   18.6530 H   0  0  0  0  0  0  0  0  0  0  0  0
   -0.9110   11.2470   20.9220 H   0  0  0  0  0  0  0  0  0  0  0  0
    0.0540    8.9780   22.1630 C   0  0  0  0  0  0  0  0  0  0  0  0
   -0.6490    7.8130   22.1420 F   0  0  0  0  0  0  0  0  0  0  0  0
   -0.6980    9.8540   22.8880 F   0  0  0  0  0  0  0  0  0  0  0  0
    1.1680    8.7380   22.9030 F   0  0  0  0  0  0  0  0  0  0  0  0
    3.7770    2.6590   17.4650 C   0  0  2  0  0  0  0  0  0  0  0  0
    4.6350    2.2800   16.8980 H   0  0  0  0  0  0  0  0  0  0  0  0
    2.6460    2.6730   16.4250 C   0  0  0  0  0  0  0  0  0  0  0  0
    2.8900    3.3540   15.5990 H   0  0  0  0  0  0  0  0  0  0  0  0
    2.5020    1.6760   15.9930 H   0  0  0  0  0  0  0  0  0  0  0  0
    1.6870    2.9950   16.8320 H   0  0  0  0  0  0  0  0  0  0  0  0
    3.4760    1.3920   18.7550 S   0  0  0  0  0  0  0  0  0  0  0  0
    2.6950    2.2400   20.0400 C   0  0  0  0  0  0  0  0  0  0  0  0
    3.2250    2.6740   21.1570 N   0  0  0  0  0  0  0  0  0  0  0  0
    2.2330    3.2840   21.8920 N   0  0  0  0  0  0  0  0  0  0  0  0
    1.1220    3.2040   21.1980 C   0  0  0  0  0  0  0  0  0  0  0  0
    1.3640    2.5520   20.0240 N   0  0  0  0  0  0  0  0  0  0  0  0
    0.1570    3.5890   21.4920 H   0  0  0  0  0  0  0  0  0  0  0  0
    0.3910    2.2720   19.0040 C   0  0  0  0  0  0  0  0  0  0  0  0
   -0.6000    2.5700   19.3560 H   0  0  0  0  0  0  0  0  0  0  0  0
    0.6370    2.8440   18.1050 H   0  0  0  0  0  0  0  0  0  0  0  0
    0.4030    1.1970   18.7970 H   0  0  0  0  0  0  0  0  0  0  0  0
    7.2980    5.6830   19.3250 C   0  0  0  0  0  0  0  0  0  0  0  0
    8.3920    5.8300   19.6830 N   0  0  0  0  0  0  0  0  0  0  0  0
  1  6  2  0  0  0  0
  1  2  1  0  0  0  0
  2  3  2  0  0  0  0
  3  4  1  0  0  0  0
  3 46  1  0  0  0  0
  4  9  1  0  0  0  0
  5 10  1  0  0  0  0
  5  4  2  0  0  0  0
  6  5  1  0  0  0  0
  7  6  1  0  0  0  0
  8  2  1  0  0  0  0
 10 11  1  0  0  0  0
 11 20  1  0  0  0  0
 11 21  1  0  0  0  0
 12 11  1  0  0  0  0
 12 17  1  0  0  0  0
 13 12  2  0  0  0  0
 14 13  1  0  0  0  0
 14 15  2  0  0  0  0
 15 16  1  0  0  0  0
 16 17  2  0  0  0  0
 16 24  1  0  0  0  0
 17 25  1  0  0  0  0
 18 13  1  0  0  0  0
 18 10  1  0  0  0  0
 19 18  2  0  0  0  0
 22 14  1  0  0  0  0
 23 15  1  0  0  0  0
 25 27  1  0  0  0  0
 25 28  1  0  0  0  0
 26 25  1  0  0  0  0
 29 30  1  6  0  0  0
 29  1  1  0  0  0  0
 29 35  1  0  0  0  0
 31 34  1  0  0  0  0
 31 29  1  0  0  0  0
 32 31  1  0  0  0  0
 33 31  1  0  0  0  0
 35 36  1  0  0  0  0
 36 37  2  0  0  0  0
 37 38  1  0  0  0  0
 39 41  1  0  0  0  0
 39 38  2  0  0  0  0
 40 36  1  0  0  0  0
 40 39  1  0  0  0  0
 42 43  1  0  0  0  0
 42 40  1  0  0  0  0
 44 42  1  0  0  0  0
 45 42  1  0  0  0  0
 46 47  3  0  0  0  0
M  END
>  <MODEL>
21

>  <REMARK>
 VINA RESULT:    -7.493      4.700      8.241
 INTER + INTRA:          -9.151
 INTER:                  -8.533
 INTRA:                  -0.618
 UNBOUND:                 1.409
  Name = 
  8 active torsions:
  status: ('A' for Active; 'I' for Inactive)
    1  A    between atoms: C_1  and  C_2
    2  A    between atoms: C_2  and  S_3
    3  A    between atoms: C_2  and  C_10
    4  A    between atoms: S_3  and  C_4
    5  A    between atoms: N_8  and  C_9
    6  A    between atoms: C_12  and  C_13
    7  A    between atoms: C_16  and  N_17
    8  A    between atoms: C_24  and  C_25
                            x       y       z     vdW  Elec       q    Type
                         _______ _______ _______ _____ _____    ______ ____

>  <TORSDO>
F 8

$$$$
=
 OpenBabel07192307433D

 47 50  0  0  1  0  0  0  0  0999 V2000
    3.3820    5.2620   18.4730 C   0  0  0  0  0  0  0  0  0  0  0  0
    2.9650    4.2370   19.3450 C   0  0  0  0  0  0  0  0  0  0  0  0
    2.1460    4.5020   20.4430 C   0  0  0  0  0  0  0  0  0  0  0  0
    1.6870    5.8010   20.6710 C   0  0  0  0  0  0  0  0  0  0  0  0
    2.0300    6.8480   19.8020 C   0  0  0  0  0  0  0  0  0  0  0  0
    2.9190    6.5800   18.7290 C   0  0  0  0  0  0  0  0  0  0  0  0
    3.6110    7.9070   17.8300 Cl  0  0  0  0  0  0  0  0  0  0  0  0
    3.3080    3.2130   19.1940 H   0  0  0  0  0  0  0  0  0  0  0  0
    1.0100    5.9670   21.5060 H   0  0  0  0  0  0  0  0  0  0  0  0
    1.4620    8.1290   20.0400 N   0  0  0  0  0  0  0  0  0  0  0  0
    1.9560    9.3450   19.4130 C   0  0  0  0  0  0  0  0  0  0  0  0
    1.0270   10.3950   19.9400 C   0  0  0  0  0  0  0  0  0  0  0  0
    0.1700    9.8300   20.8800 C   0  0  0  0  0  0  0  0  0  0  0  0
   -0.7830   10.5640   21.5600 C   0  0  0  0  0  0  0  0  0  0  0  0
   -0.8750   11.9240   21.2700 C   0  0  0  0  0  0  0  0  0  0  0  0
   -0.0190   12.5110   20.3190 C   0  0  0  0  0  0  0  0  0  0  0  0
    0.9550   11.7530   19.6400 C   0  0  0  0  0  0  0  0  0  0  0  0
    0.4770    8.4000   20.9910 C   0  0  0  0  0  0  0  0  0  0  0  0
   -0.0280    7.6750   21.8270 O   0  0  0  0  0  0  0  0  0  0  0  0
    2.9790    9.5540   19.7410 H   0  0  0  0  0  0  0  0  0  0  0  0
    1.8880    9.2500   18.3240 H   0  0  0  0  0  0  0  0  0  0  0  0
   -1.4330   10.0920   22.2900 H   0  0  0  0  0  0  0  0  0  0  0  0
   -1.6150   12.5350   21.7820 H   0  0  0  0  0  0  0  0  0  0  0  0
   -0.1190   13.5770   20.1140 H   0  0  0  0  0  0  0  0  0  0  0  0
    1.8630   12.3780   18.6140 C   0  0  0  0  0  0  0  0  0  0  0  0
    2.9160   13.0210   19.1860 F   0  0  0  0  0  0  0  0  0  0  0  0
    1.2230   13.3120   17.8550 F   0  0  0  0  0  0  0  0  0  0  0  0
    2.3920   11.4830   17.7380 F   0  0  0  0  0  0  0  0  0  0  0  0
    4.3040    4.9430   17.2970 C   0  0  2  0  0  0  0  0  0  0  0  0
    4.4000    5.8680   16.7160 H   0  0  0  0  0  0  0  0  0  0  0  0
    3.7630    3.9370   16.2690 C   0  0  0  0  0  0  0  0  0  0  0  0
    3.3180    4.4620   15.4120 H   0  0  0  0  0  0  0  0  0  0  0  0
    4.5700    3.3060   15.8800 H   0  0  0  0  0  0  0  0  0  0  0  0
    2.9950    3.2760   16.6730 H   0  0  0  0  0  0  0  0  0  0  0  0
    6.0190    4.5270   17.7920 S   0  0  0  0  0  0  0  0  0  0  0  0
    6.8560    6.0360   17.8090 C   0  0  0  0  0  0  0  0  0  0  0  0
    6.7590    7.0220   16.9500 N   0  0  0  0  0  0  0  0  0  0  0  0
    7.6140    8.0240   17.3490 N   0  0  0  0  0  0  0  0  0  0  0  0
    8.2130    7.6180   18.4450 C   0  0  0  0  0  0  0  0  0  0  0  0
    7.7670    6.3710   18.7720 N   0  0  0  0  0  0  0  0  0  0  0  0
    8.9440    8.1730   19.0150 H   0  0  0  0  0  0  0  0  0  0  0  0
    8.1940    5.5990   19.9080 C   0  0  0  0  0  0  0  0  0  0  0  0
    8.1230    4.5350   19.6700 H   0  0  0  0  0  0  0  0  0  0  0  0
    9.2340    5.8450   20.1390 H   0  0  0  0  0  0  0  0  0  0  0  0
    7.5410    5.8350   20.7540 H   0  0  0  0  0  0  0  0  0  0  0  0
    1.7470    3.4420   21.3230 C   0  0  0  0  0  0  0  0  0  0  0  0
    1.3930    2.6050   22.0440 N   0  0  0  0  0  0  0  0  0  0  0  0
  1  6  2  0  0  0  0
  1  2  1  0  0  0  0
  2  3  2  0  0  0  0
  3  4  1  0  0  0  0
  3 46  1  0  0  0  0
  4  9  1  0  0  0  0
  5 10  1  0  0  0  0
  5  4  2  0  0  0  0
  6  5  1  0  0  0  0
  7  6  1  0  0  0  0
  8  2  1  0  0  0  0
 10 18  1  0  0  0  0
 11 20  1  0  0  0  0
 11 12  1  0  0  0  0
 11 10  1  0  0  0  0
 12 13  1  0  0  0  0
 13 18  1  0  0  0  0
 13 14  2  0  0  0  0
 14 22  1  0  0  0  0
 15 14  1  0  0  0  0
 15 23  1  0  0  0  0
 16 15  2  0  0  0  0
 17 12  2  0  0  0  0
 17 16  1  0  0  0  0
 18 19  2  0  0  0  0
 21 11  1  0  0  0  0
 24 16  1  0  0  0  0
 25 26  1  0  0  0  0
 25 17  1  0  0  0  0
 27 25  1  0  0  0  0
 28 25  1  0  0  0  0
 29 30  1  6  0  0  0
 29 35  1  0  0  0  0
 29  1  1  0  0  0  0
 31 34  1  0  0  0  0
 31 29  1  0  0  0  0
 32 31  1  0  0  0  0
 33 31  1  0  0  0  0
 35 36  1  0  0  0  0
 36 40  1  0  0  0  0
 37 38  1  0  0  0  0
 37 36  2  0  0  0  0
 38 39  2  0  0  0  0
 39 40  1  0  0  0  0
 39 41  1  0  0  0  0
 40 42  1  0  0  0  0
 42 44  1  0  0  0  0
 42 45  1  0  0  0  0
 43 42  1  0  0  0  0
 46 47  3  0  0  0  0
M  END
>  <MODEL>
22

>  <REMARK>
 VINA RESULT:    -7.343      3.983      8.072
 INTER + INTRA:          -8.940
 INTER:                  -9.294
 INTRA:                   0.354
 UNBOUND:                 1.409
  Name = 
  8 active torsions:
  status: ('A' for Active; 'I' for Inactive)
    1  A    between atoms: C_1  and  C_2
    2  A    between atoms: C_2  and  S_3
    3  A    between atoms: C_2  and  C_10
    4  A    between atoms: S_3  and  C_4
    5  A    between atoms: N_8  and  C_9
    6  A    between atoms: C_12  and  C_13
    7  A    between atoms: C_16  and  N_17
    8  A    between atoms: C_24  and  C_25
                            x       y       z     vdW  Elec       q    Type
                         _______ _______ _______ _____ _____    ______ ____

>  <TORSDO>
F 8

$$$$
=
 OpenBabel07192307433D

 47 50  0  0  1  0  0  0  0  0999 V2000
   -0.8400   12.3530   19.4220 C   0  0  0  0  0  0  0  0  0  0  0  0
   -1.9500   12.1590   18.5770 C   0  0  0  0  0  0  0  0  0  0  0  0
   -2.0310   11.0610   17.7190 C   0  0  0  0  0  0  0  0  0  0  0  0
   -1.0160   10.1020   17.7180 C   0  0  0  0  0  0  0  0  0  0  0  0
    0.0860   10.2210   18.5790 C   0  0  0  0  0  0  0  0  0  0  0  0
    0.1920   11.3760   19.3960 C   0  0  0  0  0  0  0  0  0  0  0  0
    1.6880   11.7070   20.2330 Cl  0  0  0  0  0  0  0  0  0  0  0  0
   -2.7580   12.8910   18.5530 H   0  0  0  0  0  0  0  0  0  0  0  0
   -1.1310    9.2330   17.0760 H   0  0  0  0  0  0  0  0  0  0  0  0
    1.0420    9.1700   18.5920 N   0  0  0  0  0  0  0  0  0  0  0  0
    0.9940    8.0630   19.5350 C   0  0  0  0  0  0  0  0  0  0  0  0
    2.1650    7.2230   19.1260 C   0  0  0  0  0  0  0  0  0  0  0  0
    2.8790    7.8740   18.1250 C   0  0  0  0  0  0  0  0  0  0  0  0
    4.0300    7.3520   17.5660 C   0  0  0  0  0  0  0  0  0  0  0  0
    4.4700    6.1170   18.0380 C   0  0  0  0  0  0  0  0  0  0  0  0
    3.7580    5.4430   19.0490 C   0  0  0  0  0  0  0  0  0  0  0  0
    2.5920    5.9910   19.6160 C   0  0  0  0  0  0  0  0  0  0  0  0
    2.2030    9.1400   17.8170 C   0  0  0  0  0  0  0  0  0  0  0  0
    2.6690    9.9760   17.0690 O   0  0  0  0  0  0  0  0  0  0  0  0
    1.1350    8.4280   20.5570 H   0  0  0  0  0  0  0  0  0  0  0  0
    0.0470    7.5260   19.4200 H   0  0  0  0  0  0  0  0  0  0  0  0
    4.5640    7.8880   16.7880 H   0  0  0  0  0  0  0  0  0  0  0  0
    5.3700    5.6710   17.6220 H   0  0  0  0  0  0  0  0  0  0  0  0
    4.1300    4.4780   19.3940 H   0  0  0  0  0  0  0  0  0  0  0  0
    1.8230    5.2660   20.6880 C   0  0  0  0  0  0  0  0  0  0  0  0
    1.3660    6.1120   21.6510 F   0  0  0  0  0  0  0  0  0  0  0  0
    2.5850    4.3400   21.3370 F   0  0  0  0  0  0  0  0  0  0  0  0
    0.7360    4.5960   20.2210 F   0  0  0  0  0  0  0  0  0  0  0  0
   -0.7680   13.5810   20.3270 C   0  0  2  0  0  0  0  0  0  0  0  0
    0.0100   13.3750   21.0720 H   0  0  0  0  0  0  0  0  0  0  0  0
   -2.0110   13.8600   21.1860 C   0  0  0  0  0  0  0  0  0  0  0  0
   -2.1350   13.0810   21.9500 H   0  0  0  0  0  0  0  0  0  0  0  0
   -1.9140   14.8170   21.7110 H   0  0  0  0  0  0  0  0  0  0  0  0
   -2.9360   13.8950   20.6100 H   0  0  0  0  0  0  0  0  0  0  0  0
   -0.1990   15.0990   19.4710 S   0  0  0  0  0  0  0  0  0  0  0  0
    1.5220   14.9730   19.4370 C   0  0  0  0  0  0  0  0  0  0  0  0
    2.2960   14.7780   18.3960 N   0  0  0  0  0  0  0  0  0  0  0  0
    3.6000   14.7360   18.8340 N   0  0  0  0  0  0  0  0  0  0  0  0
    3.5850   14.9050   20.1360 C   0  0  0  0  0  0  0  0  0  0  0  0
    2.2970   15.0580   20.5600 N   0  0  0  0  0  0  0  0  0  0  0  0
    4.4470   14.9270   20.7860 H   0  0  0  0  0  0  0  0  0  0  0  0
    1.8810   15.2640   21.9210 C   0  0  0  0  0  0  0  0  0  0  0  0
    2.2390   14.4370   22.5390 H   0  0  0  0  0  0  0  0  0  0  0  0
    2.3130   16.1980   22.2900 H   0  0  0  0  0  0  0  0  0  0  0  0
    0.7880   15.3020   21.9490 H   0  0  0  0  0  0  0  0  0  0  0  0
   -3.1670   10.8950   16.8590 C   0  0  0  0  0  0  0  0  0  0  0  0
   -4.0980   10.7940   16.1750 N   0  0  0  0  0  0  0  0  0  0  0  0
  1 29  1  0  0  0  0
  2  1  2  0  0  0  0
  3  2  1  0  0  0  0
  4  3  2  0  0  0  0
  4  5  1  0  0  0  0
  5 10  1  0  0  0  0
  5  6  2  0  0  0  0
  6  1  1  0  0  0  0
  6  7  1  0  0  0  0
  8  2  1  0  0  0  0
  9  4  1  0  0  0  0
 10 11  1  0  0  0  0
 11 20  1  0  0  0  0
 12 11  1  0  0  0  0
 12 17  1  0  0  0  0
 13 12  2  0  0  0  0
 14 15  2  0  0  0  0
 14 13  1  0  0  0  0
 15 16  1  0  0  0  0
 16 24  1  0  0  0  0
 16 17  2  0  0  0  0
 17 25  1  0  0  0  0
 18 13  1  0  0  0  0
 18 10  1  0  0  0  0
 19 18  2  0  0  0  0
 21 11  1  0  0  0  0
 22 14  1  0  0  0  0
 23 15  1  0  0  0  0
 25 27  1  0  0  0  0
 25 26  1  0  0  0  0
 28 25  1  0  0  0  0
 29 30  1  1  0  0  0
 29 31  1  0  0  0  0
 31 33  1  0  0  0  0
 31 32  1  0  0  0  0
 34 31  1  0  0  0  0
 35 29  1  0  0  0  0
 36 35  1  0  0  0  0
 36 40  1  0  0  0  0
 37 38  1  0  0  0  0
 37 36  2  0  0  0  0
 38 39  2  0  0  0  0
 39 40  1  0  0  0  0
 39 41  1  0  0  0  0
 40 42  1  0  0  0  0
 42 45  1  0  0  0  0
 42 44  1  0  0  0  0
 42 43  1  0  0  0  0
 46  3  1  0  0  0  0
 47 46  3  0  0  0  0
M  END
>  <MODEL>
23

>  <REMARK>
 VINA RESULT:    -7.325      3.586      5.407
 INTER + INTRA:          -8.914
 INTER:                  -7.672
 INTRA:                  -1.242
 UNBOUND:                 1.409
  Name = 
  8 active torsions:
  status: ('A' for Active; 'I' for Inactive)
    1  A    between atoms: C_1  and  C_2
    2  A    between atoms: C_2  and  S_3
    3  A    between atoms: C_2  and  C_10
    4  A    between atoms: S_3  and  C_4
    5  A    between atoms: N_8  and  C_9
    6  A    between atoms: C_12  and  C_13
    7  A    between atoms: C_16  and  N_17
    8  A    between atoms: C_24  and  C_25
                            x       y       z     vdW  Elec       q    Type
                         _______ _______ _______ _____ _____    ______ ____

>  <TORSDO>
F 8

$$$$
=
 OpenBabel07192307433D

 47 50  0  0  1  0  0  0  0  0999 V2000
   -0.4320   12.3850   19.3630 C   0  0  0  0  0  0  0  0  0  0  0  0
   -1.4400   12.2610   18.3860 C   0  0  0  0  0  0  0  0  0  0  0  0
   -1.5590   11.1130   17.6020 C   0  0  0  0  0  0  0  0  0  0  0  0
   -0.6920   10.0380   17.8070 C   0  0  0  0  0  0  0  0  0  0  0  0
    0.2950   10.0890   18.8020 C   0  0  0  0  0  0  0  0  0  0  0  0
    0.4510   11.2870   19.5460 C   0  0  0  0  0  0  0  0  0  0  0  0
    1.8580   11.4980   20.5580 Cl  0  0  0  0  0  0  0  0  0  0  0  0
   -2.1310   13.0840   18.2010 H   0  0  0  0  0  0  0  0  0  0  0  0
   -0.8410    9.1380   17.2150 H   0  0  0  0  0  0  0  0  0  0  0  0
    1.0890    8.9310   19.0190 N   0  0  0  0  0  0  0  0  0  0  0  0
    2.0580    8.4400   18.0510 C   0  0  0  0  0  0  0  0  0  0  0  0
    2.6500    7.2500   18.7420 C   0  0  0  0  0  0  0  0  0  0  0  0
    1.9750    7.0230   19.9380 C   0  0  0  0  0  0  0  0  0  0  0  0
    2.2810    5.9730   20.7830 C   0  0  0  0  0  0  0  0  0  0  0  0
    3.3170    5.1230   20.4010 C   0  0  0  0  0  0  0  0  0  0  0  0
    4.0130    5.3390   19.1960 C   0  0  0  0  0  0  0  0  0  0  0  0
    3.6840    6.4090   18.3400 C   0  0  0  0  0  0  0  0  0  0  0  0
    0.9430    8.0550   20.0950 C   0  0  0  0  0  0  0  0  0  0  0  0
    0.1160    8.0360   20.9860 O   0  0  0  0  0  0  0  0  0  0  0  0
    1.5530    8.1250   17.1330 H   0  0  0  0  0  0  0  0  0  0  0  0
    2.8090    9.2140   17.8600 H   0  0  0  0  0  0  0  0  0  0  0  0
    1.7320    5.8230   21.7070 H   0  0  0  0  0  0  0  0  0  0  0  0
    3.5910    4.2860   21.0400 H   0  0  0  0  0  0  0  0  0  0  0  0
    4.8190    4.6570   18.9290 H   0  0  0  0  0  0  0  0  0  0  0  0
    4.4350    6.6490   17.0580 C   0  0  0  0  0  0  0  0  0  0  0  0
    5.6750    7.1620   17.2790 F   0  0  0  0  0  0  0  0  0  0  0  0
    3.8020    7.5420   16.2450 F   0  0  0  0  0  0  0  0  0  0  0  0
    4.6140    5.5260   16.3120 F   0  0  0  0  0  0  0  0  0  0  0  0
   -0.3110   13.6670   20.1840 C   0  0  2  0  0  0  0  0  0  0  0  0
    0.2040   13.3950   21.1140 H   0  0  0  0  0  0  0  0  0  0  0  0
   -1.6300   14.2790   20.6790 C   0  0  0  0  0  0  0  0  0  0  0  0
   -1.9520   13.7990   21.6130 H   0  0  0  0  0  0  0  0  0  0  0  0
   -1.5090   15.3480   20.8880 H   0  0  0  0  0  0  0  0  0  0  0  0
   -2.4500   14.1750   19.9670 H   0  0  0  0  0  0  0  0  0  0  0  0
    0.7630   14.9390   19.4160 S   0  0  0  0  0  0  0  0  0  0  0  0
    2.2530   14.8470   20.2820 C   0  0  0  0  0  0  0  0  0  0  0  0
    2.4310   14.8330   21.5810 N   0  0  0  0  0  0  0  0  0  0  0  0
    3.7830   14.7600   21.8270 N   0  0  0  0  0  0  0  0  0  0  0  0
    4.3950   14.7320   20.6660 C   0  0  0  0  0  0  0  0  0  0  0  0
    3.4710   14.7860   19.6630 N   0  0  0  0  0  0  0  0  0  0  0  0
    5.4610   14.6730   20.5080 H   0  0  0  0  0  0  0  0  0  0  0  0
    3.7600   14.7770   18.2560 C   0  0  0  0  0  0  0  0  0  0  0  0
    4.6010   15.4450   18.0540 H   0  0  0  0  0  0  0  0  0  0  0  0
    4.0280   13.7620   17.9500 H   0  0  0  0  0  0  0  0  0  0  0  0
    2.8740   15.1250   17.7160 H   0  0  0  0  0  0  0  0  0  0  0  0
   -2.5870   11.0180   16.6060 C   0  0  0  0  0  0  0  0  0  0  0  0
   -3.3950   10.9590   15.7750 N   0  0  0  0  0  0  0  0  0  0  0  0
  1  6  1  0  0  0  0
  1 29  1  0  0  0  0
  2  1  2  0  0  0  0
  3  4  2  0  0  0  0
  3  2  1  0  0  0  0
  4  5  1  0  0  0  0
  5 10  1  0  0  0  0
  5  6  2  0  0  0  0
  6  7  1  0  0  0  0
  8  2  1  0  0  0  0
  9  4  1  0  0  0  0
 10 18  1  0  0  0  0
 11 12  1  0  0  0  0
 11 10  1  0  0  0  0
 12 13  1  0  0  0  0
 13 18  1  0  0  0  0
 13 14  2  0  0  0  0
 14 22  1  0  0  0  0
 15 14  1  0  0  0  0
 15 23  1  0  0  0  0
 16 15  2  0  0  0  0
 17 12  2  0  0  0  0
 17 16  1  0  0  0  0
 18 19  2  0  0  0  0
 20 11  1  0  0  0  0
 21 11  1  0  0  0  0
 24 16  1  0  0  0  0
 25 26  1  0  0  0  0
 25 17  1  0  0  0  0
 27 25  1  0  0  0  0
 28 25  1  0  0  0  0
 29 31  1  0  0  0  0
 29 30  1  1  0  0  0
 31 33  1  0  0  0  0
 31 32  1  0  0  0  0
 34 31  1  0  0  0  0
 35 29  1  0  0  0  0
 35 36  1  0  0  0  0
 36 37  2  0  0  0  0
 37 38  1  0  0  0  0
 39 38  2  0  0  0  0
 40 36  1  0  0  0  0
 40 39  1  0  0  0  0
 41 39  1  0  0  0  0
 42 40  1  0  0  0  0
 43 42  1  0  0  0  0
 44 42  1  0  0  0  0
 45 42  1  0  0  0  0
 46  3  1  0  0  0  0
 47 46  3  0  0  0  0
M  END
>  <MODEL>
24

>  <REMARK>
 VINA RESULT:    -7.229      2.915      5.037
 INTER + INTRA:          -8.779
 INTER:                  -7.869
 INTRA:                  -0.910
 UNBOUND:                 1.409
  Name = 
  8 active torsions:
  status: ('A' for Active; 'I' for Inactive)
    1  A    between atoms: C_1  and  C_2
    2  A    between atoms: C_2  and  S_3
    3  A    between atoms: C_2  and  C_10
    4  A    between atoms: S_3  and  C_4
    5  A    between atoms: N_8  and  C_9
    6  A    between atoms: C_12  and  C_13
    7  A    between atoms: C_16  and  N_17
    8  A    between atoms: C_24  and  C_25
                            x       y       z     vdW  Elec       q    Type
                         _______ _______ _______ _____ _____    ______ ____

>  <TORSDO>
F 8

$$$$
=
 OpenBabel07192307433D

 47 50  0  0  1  0  0  0  0  0999 V2000
    3.5330    7.1490   18.4290 C   0  0  0  0  0  0  0  0  0  0  0  0
    3.3360    5.9910   19.2080 C   0  0  0  0  0  0  0  0  0  0  0  0
    2.3220    5.9190   20.1640 C   0  0  0  0  0  0  0  0  0  0  0  0
    1.4500    6.9950   20.3360 C   0  0  0  0  0  0  0  0  0  0  0  0
    1.5700    8.1510   19.5490 C   0  0  0  0  0  0  0  0  0  0  0  0
    2.6460    8.2400   18.6290 C   0  0  0  0  0  0  0  0  0  0  0  0
    3.0110    9.7710   17.8730 Cl  0  0  0  0  0  0  0  0  0  0  0  0
    4.0020    5.1340   19.0980 H   0  0  0  0  0  0  0  0  0  0  0  0
    0.6400    6.8910   21.0540 H   0  0  0  0  0  0  0  0  0  0  0  0
    0.6000    9.1760   19.7120 N   0  0  0  0  0  0  0  0  0  0  0  0
    0.1450    9.6400   21.0140 C   0  0  0  0  0  0  0  0  0  0  0  0
   -0.8240   10.7270   20.6630 C   0  0  0  0  0  0  0  0  0  0  0  0
   -0.9900   10.7760   19.2820 C   0  0  0  0  0  0  0  0  0  0  0  0
   -1.8470   11.6650   18.6620 C   0  0  0  0  0  0  0  0  0  0  0  0
   -2.5590   12.5430   19.4760 C   0  0  0  0  0  0  0  0  0  0  0  0
   -2.4020   12.5100   20.8750 C   0  0  0  0  0  0  0  0  0  0  0  0
   -1.5320   11.5920   21.4940 C   0  0  0  0  0  0  0  0  0  0  0  0
   -0.1290    9.7550   18.6730 C   0  0  0  0  0  0  0  0  0  0  0  0
   -0.1590    9.4840   17.4880 O   0  0  0  0  0  0  0  0  0  0  0  0
   -0.3740    8.8340   21.5440 H   0  0  0  0  0  0  0  0  0  0  0  0
    0.9970   10.0210   21.5850 H   0  0  0  0  0  0  0  0  0  0  0  0
   -1.9540   11.6740   17.5820 H   0  0  0  0  0  0  0  0  0  0  0  0
   -3.2430   13.2610   19.0270 H   0  0  0  0  0  0  0  0  0  0  0  0
   -2.9740   13.2120   21.4820 H   0  0  0  0  0  0  0  0  0  0  0  0
   -1.3530   11.5630   22.9890 C   0  0  0  0  0  0  0  0  0  0  0  0
   -2.5360   11.4130   23.6430 F   0  0  0  0  0  0  0  0  0  0  0  0
   -0.8060   12.7160   23.4690 F   0  0  0  0  0  0  0  0  0  0  0  0
   -0.5470   10.5580   23.4220 F   0  0  0  0  0  0  0  0  0  0  0  0
    4.6710    7.2060   17.4110 C   0  0  2  0  0  0  0  0  0  0  0  0
    5.0980    8.2140   17.4780 H   0  0  0  0  0  0  0  0  0  0  0  0
    4.2620    7.0950   15.9350 C   0  0  0  0  0  0  0  0  0  0  0  0
    4.4550    6.0830   15.5550 H   0  0  0  0  0  0  0  0  0  0  0  0
    3.1900    7.2890   15.8130 H   0  0  0  0  0  0  0  0  0  0  0  0
    4.7960    7.7880   15.2840 H   0  0  0  0  0  0  0  0  0  0  0  0
    6.0670    6.0840   17.7980 S   0  0  0  0  0  0  0  0  0  0  0  0
    6.2890    5.1390   16.3700 C   0  0  0  0  0  0  0  0  0  0  0  0
    7.1520    5.3320   15.4030 N   0  0  0  0  0  0  0  0  0  0  0  0
    6.9690    4.3430   14.4630 N   0  0  0  0  0  0  0  0  0  0  0  0
    5.9950    3.5720   14.8860 C   0  0  0  0  0  0  0  0  0  0  0  0
    5.5340    4.0360   16.0830 N   0  0  0  0  0  0  0  0  0  0  0  0
    5.6060    2.7000   14.3800 H   0  0  0  0  0  0  0  0  0  0  0  0
    4.4710    3.4530   16.8550 C   0  0  0  0  0  0  0  0  0  0  0  0
    3.5580    3.4300   16.2550 H   0  0  0  0  0  0  0  0  0  0  0  0
    4.7440    2.4300   17.1290 H   0  0  0  0  0  0  0  0  0  0  0  0
    4.3130    4.0660   17.7480 H   0  0  0  0  0  0  0  0  0  0  0  0
    2.1520    4.7330   20.9530 C   0  0  0  0  0  0  0  0  0  0  0  0
    1.9820    3.7880   21.6040 N   0  0  0  0  0  0  0  0  0  0  0  0
  1  6  2  0  0  0  0
  1  2  1  0  0  0  0
  2  3  2  0  0  0  0
  3  4  1  0  0  0  0
  3 46  1  0  0  0  0
  4  9  1  0  0  0  0
  5 10  1  0  0  0  0
  5  4  2  0  0  0  0
  6  5  1  0  0  0  0
  7  6  1  0  0  0  0
  8  2  1  0  0  0  0
 10 11  1  0  0  0  0
 11 20  1  0  0  0  0
 11 21  1  0  0  0  0
 12 11  1  0  0  0  0
 12 17  1  0  0  0  0
 13 12  2  0  0  0  0
 14 13  1  0  0  0  0
 14 15  2  0  0  0  0
 15 16  1  0  0  0  0
 16 24  1  0  0  0  0
 16 17  2  0  0  0  0
 17 25  1  0  0  0  0
 18 13  1  0  0  0  0
 18 10  1  0  0  0  0
 19 18  2  0  0  0  0
 22 14  1  0  0  0  0
 23 15  1  0  0  0  0
 25 28  1  0  0  0  0
 25 27  1  0  0  0  0
 25 26  1  0  0  0  0
 29 30  1  1  0  0  0
 29 35  1  0  0  0  0
 29  1  1  0  0  0  0
 31 29  1  0  0  0  0
 32 31  1  0  0  0  0
 33 31  1  0  0  0  0
 34 31  1  0  0  0  0
 36 35  1  0  0  0  0
 37 36  2  0  0  0  0
 38 39  2  0  0  0  0
 38 37  1  0  0  0  0
 39 40  1  0  0  0  0
 40 36  1  0  0  0  0
 40 42  1  0  0  0  0
 41 39  1  0  0  0  0
 42 44  1  0  0  0  0
 42 45  1  0  0  0  0
 43 42  1  0  0  0  0
 46 47  3  0  0  0  0
M  END
>  <MODEL>
25

>  <REMARK>
 VINA RESULT:    -7.215      4.671      8.636
 INTER + INTRA:          -8.759
 INTER:                  -8.413
 INTRA:                  -0.346
 UNBOUND:                 1.409
  Name = 
  8 active torsions:
  status: ('A' for Active; 'I' for Inactive)
    1  A    between atoms: C_1  and  C_2
    2  A    between atoms: C_2  and  S_3
    3  A    between atoms: C_2  and  C_10
    4  A    between atoms: S_3  and  C_4
    5  A    between atoms: N_8  and  C_9
    6  A    between atoms: C_12  and  C_13
    7  A    between atoms: C_16  and  N_17
    8  A    between atoms: C_24  and  C_25
                            x       y       z     vdW  Elec       q    Type
                         _______ _______ _______ _____ _____    ______ ____

>  <TORSDO>
F 8

$$$$
=
 OpenBabel07192307433D

 47 50  0  0  1  0  0  0  0  0999 V2000
    4.1370    5.1690   17.1080 C   0  0  0  0  0  0  0  0  0  0  0  0
    3.5260    3.9140   17.2960 C   0  0  0  0  0  0  0  0  0  0  0  0
    2.4800    3.7400   18.2040 C   0  0  0  0  0  0  0  0  0  0  0  0
    1.9900    4.8350   18.9170 C   0  0  0  0  0  0  0  0  0  0  0  0
    2.5280    6.1170   18.7280 C   0  0  0  0  0  0  0  0  0  0  0  0
    3.6360    6.2690   17.8550 C   0  0  0  0  0  0  0  0  0  0  0  0
    4.5230    7.7720   17.8400 Cl  0  0  0  0  0  0  0  0  0  0  0  0
    3.8880    3.0390   16.7540 H   0  0  0  0  0  0  0  0  0  0  0  0
    1.1420    4.6780   19.5800 H   0  0  0  0  0  0  0  0  0  0  0  0
    1.9290    7.2040   19.4200 N   0  0  0  0  0  0  0  0  0  0  0  0
    1.7190    8.5110   18.8170 C   0  0  0  0  0  0  0  0  0  0  0  0
    1.0400    9.2790   19.9080 C   0  0  0  0  0  0  0  0  0  0  0  0
    0.9920    8.5040   21.0640 C   0  0  0  0  0  0  0  0  0  0  0  0
    0.4450    8.9590   22.2480 C   0  0  0  0  0  0  0  0  0  0  0  0
   -0.0800   10.2500   22.2590 C   0  0  0  0  0  0  0  0  0  0  0  0
   -0.0430   11.0470   21.0980 C   0  0  0  0  0  0  0  0  0  0  0  0
    0.5260   10.5730   19.9000 C   0  0  0  0  0  0  0  0  0  0  0  0
    1.6060    7.2020   20.7780 C   0  0  0  0  0  0  0  0  0  0  0  0
    1.8180    6.3660   21.6340 O   0  0  0  0  0  0  0  0  0  0  0  0
    2.6800    8.9770   18.5750 H   0  0  0  0  0  0  0  0  0  0  0  0
    1.0820    8.4080   17.9330 H   0  0  0  0  0  0  0  0  0  0  0  0
    0.4270    8.3300   23.1320 H   0  0  0  0  0  0  0  0  0  0  0  0
   -0.5230   10.6450   23.1710 H   0  0  0  0  0  0  0  0  0  0  0  0
   -0.4650   12.0510   21.1410 H   0  0  0  0  0  0  0  0  0  0  0  0
    0.5550   11.4190   18.6550 C   0  0  0  0  0  0  0  0  0  0  0  0
    1.8100   11.5350   18.1440 F   0  0  0  0  0  0  0  0  0  0  0  0
    0.1270   12.6940   18.8830 F   0  0  0  0  0  0  0  0  0  0  0  0
   -0.2240   10.9380   17.6510 F   0  0  0  0  0  0  0  0  0  0  0  0
    5.3000    5.3190   16.1290 C   0  0  2  0  0  0  0  0  0  0  0  0
    6.1870    5.5490   16.7310 H   0  0  0  0  0  0  0  0  0  0  0  0
    5.2170    6.5080   15.1590 C   0  0  0  0  0  0  0  0  0  0  0  0
    6.1860    6.6780   14.6710 H   0  0  0  0  0  0  0  0  0  0  0  0
    4.4850    6.3130   14.3670 H   0  0  0  0  0  0  0  0  0  0  0  0
    4.9350    7.4430   15.6440 H   0  0  0  0  0  0  0  0  0  0  0  0
    5.7280    3.7710   15.2450 S   0  0  0  0  0  0  0  0  0  0  0  0
    6.6160    4.2820   13.8550 C   0  0  0  0  0  0  0  0  0  0  0  0
    7.6130    5.1320   13.8040 N   0  0  0  0  0  0  0  0  0  0  0  0
    8.0100    5.2460   12.4910 N   0  0  0  0  0  0  0  0  0  0  0  0
    7.2400    4.4600   11.7760 C   0  0  0  0  0  0  0  0  0  0  0  0
    6.3450    3.8330   12.5930 N   0  0  0  0  0  0  0  0  0  0  0  0
    7.2930    4.3150   10.7070 H   0  0  0  0  0  0  0  0  0  0  0  0
    5.3390    2.8960   12.1730 C   0  0  0  0  0  0  0  0  0  0  0  0
    5.5980    2.5030   11.1860 H   0  0  0  0  0  0  0  0  0  0  0  0
    5.2980    2.0680   12.8870 H   0  0  0  0  0  0  0  0  0  0  0  0
    4.3780    3.4160   12.1240 H   0  0  0  0  0  0  0  0  0  0  0  0
    1.8850    2.4480   18.3850 C   0  0  0  0  0  0  0  0  0  0  0  0
    1.3810    1.4170   18.5590 N   0  0  0  0  0  0  0  0  0  0  0  0
  1  2  2  0  0  0  0
  1  6  1  0  0  0  0
  2  3  1  0  0  0  0
  3 46  1  0  0  0  0
  3  4  2  0  0  0  0
  4  9  1  0  0  0  0
  5  4  1  0  0  0  0
  5 10  1  0  0  0  0
  6  5  2  0  0  0  0
  7  6  1  0  0  0  0
  8  2  1  0  0  0  0
 10 18  1  0  0  0  0
 11 10  1  0  0  0  0
 11 12  1  0  0  0  0
 12 13  1  0  0  0  0
 13 14  2  0  0  0  0
 14 15  1  0  0  0  0
 14 22  1  0  0  0  0
 15 23  1  0  0  0  0
 16 24  1  0  0  0  0
 16 15  2  0  0  0  0
 17 12  2  0  0  0  0
 17 16  1  0  0  0  0
 18 13  1  0  0  0  0
 18 19  2  0  0  0  0
 20 11  1  0  0  0  0
 21 11  1  0  0  0  0
 25 27  1  0  0  0  0
 25 17  1  0  0  0  0
 26 25  1  0  0  0  0
 28 25  1  0  0  0  0
 29 30  1  1  0  0  0
 29  1  1  0  0  0  0
 31 34  1  0  0  0  0
 31 29  1  0  0  0  0
 32 31  1  0  0  0  0
 33 31  1  0  0  0  0
 35 29  1  0  0  0  0
 36 35  1  0  0  0  0
 37 36  2  0  0  0  0
 38 37  1  0  0  0  0
 39 38  2  0  0  0  0
 39 40  1  0  0  0  0
 40 36  1  0  0  0  0
 41 39  1  0  0  0  0
 42 40  1  0  0  0  0
 42 44  1  0  0  0  0
 43 42  1  0  0  0  0
 45 42  1  0  0  0  0
 46 47  3  0  0  0  0
M  END
>  <MODEL>
26

>  <REMARK>
 VINA RESULT:    -7.128      4.467      8.515
 INTER + INTRA:          -8.636
 INTER:                  -8.763
 INTRA:                   0.127
 UNBOUND:                 1.409
  Name = 
  8 active torsions:
  status: ('A' for Active; 'I' for Inactive)
    1  A    between atoms: C_1  and  C_2
    2  A    between atoms: C_2  and  S_3
    3  A    between atoms: C_2  and  C_10
    4  A    between atoms: S_3  and  C_4
    5  A    between atoms: N_8  and  C_9
    6  A    between atoms: C_12  and  C_13
    7  A    between atoms: C_16  and  N_17
    8  A    between atoms: C_24  and  C_25
                            x       y       z     vdW  Elec       q    Type
                         _______ _______ _______ _____ _____    ______ ____

>  <TORSDO>
F 8

$$$$
=
 OpenBabel07192307433D

 47 50  0  0  1  0  0  0  0  0999 V2000
   -1.2460   11.9590   20.1190 C   0  0  0  0  0  0  0  0  0  0  0  0
   -0.4200   13.0100   20.5650 C   0  0  0  0  0  0  0  0  0  0  0  0
    0.9630   12.8540   20.6760 C   0  0  0  0  0  0  0  0  0  0  0  0
    1.5590   11.6480   20.3010 C   0  0  0  0  0  0  0  0  0  0  0  0
    0.7870   10.5890   19.8010 C   0  0  0  0  0  0  0  0  0  0  0  0
   -0.6240   10.7340   19.7570 C   0  0  0  0  0  0  0  0  0  0  0  0
   -1.6260    9.3390   19.4450 Cl  0  0  0  0  0  0  0  0  0  0  0  0
   -0.8560   13.9630   20.8670 H   0  0  0  0  0  0  0  0  0  0  0  0
    2.6420   11.5740   20.3530 H   0  0  0  0  0  0  0  0  0  0  0  0
    1.4620    9.4200   19.3560 N   0  0  0  0  0  0  0  0  0  0  0  0
    1.4760    8.1760   20.1100 C   0  0  0  0  0  0  0  0  0  0  0  0
    2.2650    7.2580   19.2280 C   0  0  0  0  0  0  0  0  0  0  0  0
    2.7570    7.9690   18.1370 C   0  0  0  0  0  0  0  0  0  0  0  0
    3.5470    7.3910   17.1620 C   0  0  0  0  0  0  0  0  0  0  0  0
    3.8450    6.0360   17.2960 C   0  0  0  0  0  0  0  0  0  0  0  0
    3.3540    5.3010   18.3920 C   0  0  0  0  0  0  0  0  0  0  0  0
    2.5570    5.9050   19.3830 C   0  0  0  0  0  0  0  0  0  0  0  0
    2.2970    9.3590   18.2400 C   0  0  0  0  0  0  0  0  0  0  0  0
    2.6750   10.2400   17.4920 O   0  0  0  0  0  0  0  0  0  0  0  0
    1.9960    8.3150   21.0640 H   0  0  0  0  0  0  0  0  0  0  0  0
    0.4500    7.8220   20.2520 H   0  0  0  0  0  0  0  0  0  0  0  0
    3.9170    7.9760   16.3250 H   0  0  0  0  0  0  0  0  0  0  0  0
    4.4620    5.5430   16.5470 H   0  0  0  0  0  0  0  0  0  0  0  0
    3.6040    4.2430   18.4640 H   0  0  0  0  0  0  0  0  0  0  0  0
    2.0200    5.1180   20.5490 C   0  0  0  0  0  0  0  0  0  0  0  0
    2.5770    3.8790   20.6290 F   0  0  0  0  0  0  0  0  0  0  0  0
    0.6750    4.9160   20.4630 F   0  0  0  0  0  0  0  0  0  0  0  0
    2.2340    5.7110   21.7520 F   0  0  0  0  0  0  0  0  0  0  0  0
   -2.7590   12.1530   20.0370 C   0  0  2  0  0  0  0  0  0  0  0  0
   -3.2080   11.3730   20.6630 H   0  0  0  0  0  0  0  0  0  0  0  0
   -3.3970   11.9080   18.6610 C   0  0  0  0  0  0  0  0  0  0  0  0
   -4.0270   11.0080   18.6820 H   0  0  0  0  0  0  0  0  0  0  0  0
   -4.0400   12.7480   18.3740 H   0  0  0  0  0  0  0  0  0  0  0  0
   -2.6660   11.7670   17.8630 H   0  0  0  0  0  0  0  0  0  0  0  0
   -3.3440   13.7290   20.7680 S   0  0  0  0  0  0  0  0  0  0  0  0
   -3.9330   13.3020   22.3330 C   0  0  0  0  0  0  0  0  0  0  0  0
   -5.1090   12.8160   22.6470 N   0  0  0  0  0  0  0  0  0  0  0  0
   -5.1470   12.6350   24.0110 N   0  0  0  0  0  0  0  0  0  0  0  0
   -3.9870   13.0180   24.4930 C   0  0  0  0  0  0  0  0  0  0  0  0
   -3.1910   13.4480   23.4720 N   0  0  0  0  0  0  0  0  0  0  0  0
   -3.6910   13.0010   25.5310 H   0  0  0  0  0  0  0  0  0  0  0  0
   -1.8490   13.9450   23.6090 C   0  0  0  0  0  0  0  0  0  0  0  0
   -1.3840   13.4970   24.4900 H   0  0  0  0  0  0  0  0  0  0  0  0
   -1.2710   13.6690   22.7220 H   0  0  0  0  0  0  0  0  0  0  0  0
   -1.8900   15.0320   23.7230 H   0  0  0  0  0  0  0  0  0  0  0  0
    1.7790   13.9350   21.1460 C   0  0  0  0  0  0  0  0  0  0  0  0
    2.4640   14.7850   21.5390 N   0  0  0  0  0  0  0  0  0  0  0  0
  1  2  1  0  0  0  0
  2  3  2  0  0  0  0
  2  8  1  0  0  0  0
  3 46  1  0  0  0  0
  4  9  1  0  0  0  0
  4  3  1  0  0  0  0
  5  4  2  0  0  0  0
  6  5  1  0  0  0  0
  6  1  2  0  0  0  0
  7  6  1  0  0  0  0
 10  5  1  0  0  0  0
 10 11  1  0  0  0  0
 11 21  1  0  0  0  0
 11 20  1  0  0  0  0
 12 17  1  0  0  0  0
 12 11  1  0  0  0  0
 13 18  1  0  0  0  0
 13 12  2  0  0  0  0
 14 15  2  0  0  0  0
 14 13  1  0  0  0  0
 15 16  1  0  0  0  0
 16 24  1  0  0  0  0
 16 17  2  0  0  0  0
 17 25  1  0  0  0  0
 18 10  1  0  0  0  0
 19 18  2  0  0  0  0
 22 14  1  0  0  0  0
 23 15  1  0  0  0  0
 25 26  1  0  0  0  0
 25 28  1  0  0  0  0
 27 25  1  0  0  0  0
 29  1  1  0  0  0  0
 29 30  1  1  0  0  0
 29 35  1  0  0  0  0
 31 32  1  0  0  0  0
 31 29  1  0  0  0  0
 33 31  1  0  0  0  0
 34 31  1  0  0  0  0
 35 36  1  0  0  0  0
 36 37  2  0  0  0  0
 36 40  1  0  0  0  0
 37 38  1  0  0  0  0
 38 39  2  0  0  0  0
 39 41  1  0  0  0  0
 40 42  1  0  0  0  0
 40 39  1  0  0  0  0
 42 45  1  0  0  0  0
 42 43  1  0  0  0  0
 44 42  1  0  0  0  0
 46 47  3  0  0  0  0
M  END
>  <MODEL>
27

>  <REMARK>
 VINA RESULT:    -6.911      3.710      4.856
 INTER + INTRA:          -8.331
 INTER:                  -7.513
 INTRA:                  -0.818
 UNBOUND:                 1.409
  Name = 
  8 active torsions:
  status: ('A' for Active; 'I' for Inactive)
    1  A    between atoms: C_1  and  C_2
    2  A    between atoms: C_2  and  S_3
    3  A    between atoms: C_2  and  C_10
    4  A    between atoms: S_3  and  C_4
    5  A    between atoms: N_8  and  C_9
    6  A    between atoms: C_12  and  C_13
    7  A    between atoms: C_16  and  N_17
    8  A    between atoms: C_24  and  C_25
                            x       y       z     vdW  Elec       q    Type
                         _______ _______ _______ _____ _____    ______ ____

>  <TORSDO>
F 8

$$$$
=
 OpenBabel07192307433D

 47 50  0  0  1  0  0  0  0  0999 V2000
   -0.5850   11.5780   19.0900 C   0  0  0  0  0  0  0  0  0  0  0  0
    0.2360   12.6680   18.7370 C   0  0  0  0  0  0  0  0  0  0  0  0
    1.6050   12.5080   18.5160 C   0  0  0  0  0  0  0  0  0  0  0  0
    2.1800   11.2390   18.6020 C   0  0  0  0  0  0  0  0  0  0  0  0
    1.3970   10.1130   18.8990 C   0  0  0  0  0  0  0  0  0  0  0  0
    0.0210   10.2970   19.1890 C   0  0  0  0  0  0  0  0  0  0  0  0
   -0.9020    8.9790   19.8670 Cl  0  0  0  0  0  0  0  0  0  0  0  0
   -0.1840   13.6720   18.6630 H   0  0  0  0  0  0  0  0  0  0  0  0
    3.2390   11.1390   18.3760 H   0  0  0  0  0  0  0  0  0  0  0  0
    2.0260    8.8390   18.8890 N   0  0  0  0  0  0  0  0  0  0  0  0
    2.8440    8.3650   17.7830 C   0  0  0  0  0  0  0  0  0  0  0  0
    3.3000    7.0190   18.2550 C   0  0  0  0  0  0  0  0  0  0  0  0
    2.6820    6.7150   19.4650 C   0  0  0  0  0  0  0  0  0  0  0  0
    2.8870    5.5230   20.1320 C   0  0  0  0  0  0  0  0  0  0  0  0
    3.7590    4.6040   19.5510 C   0  0  0  0  0  0  0  0  0  0  0  0
    4.3950    4.8950   18.3290 C   0  0  0  0  0  0  0  0  0  0  0  0
    4.1690    6.1110   17.6550 C   0  0  0  0  0  0  0  0  0  0  0  0
    1.8260    7.8450   19.8480 C   0  0  0  0  0  0  0  0  0  0  0  0
    1.0680    7.8100   20.7970 O   0  0  0  0  0  0  0  0  0  0  0  0
    2.2370    8.2580   16.8790 H   0  0  0  0  0  0  0  0  0  0  0  0
    3.6850    9.0500   17.6310 H   0  0  0  0  0  0  0  0  0  0  0  0
    2.3860    5.3170   21.0720 H   0  0  0  0  0  0  0  0  0  0  0  0
    3.9490    3.6540   20.0460 H   0  0  0  0  0  0  0  0  0  0  0  0
    5.0720    4.1550   17.9040 H   0  0  0  0  0  0  0  0  0  0  0  0
    4.8580    6.4300   16.3550 C   0  0  0  0  0  0  0  0  0  0  0  0
    4.9720    5.3360   15.5550 F   0  0  0  0  0  0  0  0  0  0  0  0
    6.1280    6.8890   16.5400 F   0  0  0  0  0  0  0  0  0  0  0  0
    4.2210    7.3770   15.6180 F   0  0  0  0  0  0  0  0  0  0  0  0
   -2.0740   11.7920   19.3540 C   0  0  2  0  0  0  0  0  0  0  0  0
   -2.3750   11.0270   20.0800 H   0  0  0  0  0  0  0  0  0  0  0  0
   -3.0140   11.5370   18.1660 C   0  0  0  0  0  0  0  0  0  0  0  0
   -2.4370   11.2870   17.2650 H   0  0  0  0  0  0  0  0  0  0  0  0
   -3.6800   10.6920   18.3700 H   0  0  0  0  0  0  0  0  0  0  0  0
   -3.6400   12.3950   17.9170 H   0  0  0  0  0  0  0  0  0  0  0  0
   -2.4590   13.3850   20.1740 S   0  0  0  0  0  0  0  0  0  0  0  0
   -3.1830   12.9480   21.6800 C   0  0  0  0  0  0  0  0  0  0  0  0
   -4.4400   13.0650   22.0340 N   0  0  0  0  0  0  0  0  0  0  0  0
   -4.5660   12.6020   23.3240 N   0  0  0  0  0  0  0  0  0  0  0  0
   -3.3760   12.2140   23.7220 C   0  0  0  0  0  0  0  0  0  0  0  0
   -2.4730   12.4150   22.7190 N   0  0  0  0  0  0  0  0  0  0  0  0
   -3.1320   11.7960   24.6870 H   0  0  0  0  0  0  0  0  0  0  0  0
   -1.0690   12.1130   22.7830 C   0  0  0  0  0  0  0  0  0  0  0  0
   -0.7620   12.0350   23.8280 H   0  0  0  0  0  0  0  0  0  0  0  0
   -0.8840   11.1580   22.2840 H   0  0  0  0  0  0  0  0  0  0  0  0
   -0.5160   12.9210   22.2940 H   0  0  0  0  0  0  0  0  0  0  0  0
    2.4200   13.6370   18.1700 C   0  0  0  0  0  0  0  0  0  0  0  0
    3.0910   14.5510   17.9270 N   0  0  0  0  0  0  0  0  0  0  0  0
  1  6  1  0  0  0  0
  1 29  1  0  0  0  0
  2  1  2  0  0  0  0
  3  4  2  0  0  0  0
  3  2  1  0  0  0  0
  4  5  1  0  0  0  0
  5  6  2  0  0  0  0
  6  7  1  0  0  0  0
  8  2  1  0  0  0  0
  9  4  1  0  0  0  0
 10  5  1  0  0  0  0
 10 18  1  0  0  0  0
 11 12  1  0  0  0  0
 11 10  1  0  0  0  0
 12 13  1  0  0  0  0
 13 18  1  0  0  0  0
 13 14  2  0  0  0  0
 14 22  1  0  0  0  0
 15 23  1  0  0  0  0
 15 14  1  0  0  0  0
 16 15  2  0  0  0  0
 17 12  2  0  0  0  0
 17 16  1  0  0  0  0
 18 19  2  0  0  0  0
 20 11  1  0  0  0  0
 21 11  1  0  0  0  0
 24 16  1  0  0  0  0
 25 27  1  0  0  0  0
 25 17  1  0  0  0  0
 26 25  1  0  0  0  0
 28 25  1  0  0  0  0
 29 30  1  1  0  0  0
 29 35  1  0  0  0  0
 31 33  1  0  0  0  0
 31 29  1  0  0  0  0
 32 31  1  0  0  0  0
 34 31  1  0  0  0  0
 35 36  1  0  0  0  0
 36 37  2  0  0  0  0
 36 40  1  0  0  0  0
 37 38  1  0  0  0  0
 38 39  2  0  0  0  0
 39 41  1  0  0  0  0
 40 42  1  0  0  0  0
 40 39  1  0  0  0  0
 42 43  1  0  0  0  0
 44 42  1  0  0  0  0
 45 42  1  0  0  0  0
 46  3  1  0  0  0  0
 47 46  3  0  0  0  0
M  END
>  <MODEL>
28

>  <REMARK>
 VINA RESULT:    -6.865      2.543      3.919
 INTER + INTRA:          -8.266
 INTER:                  -8.920
 INTRA:                   0.654
 UNBOUND:                 1.409
  Name = 
  8 active torsions:
  status: ('A' for Active; 'I' for Inactive)
    1  A    between atoms: C_1  and  C_2
    2  A    between atoms: C_2  and  S_3
    3  A    between atoms: C_2  and  C_10
    4  A    between atoms: S_3  and  C_4
    5  A    between atoms: N_8  and  C_9
    6  A    between atoms: C_12  and  C_13
    7  A    between atoms: C_16  and  N_17
    8  A    between atoms: C_24  and  C_25
                            x       y       z     vdW  Elec       q    Type
                         _______ _______ _______ _____ _____    ______ ____

>  <TORSDO>
F 8

$$$$
=
 OpenBabel07192307433D

 47 50  0  0  1  0  0  0  0  0999 V2000
    3.4260    6.2230   18.9000 C   0  0  0  0  0  0  0  0  0  0  0  0
    3.0500    5.0920   19.6510 C   0  0  0  0  0  0  0  0  0  0  0  0
    2.0270    5.1530   20.5980 C   0  0  0  0  0  0  0  0  0  0  0  0
    1.3230    6.3440   20.7870 C   0  0  0  0  0  0  0  0  0  0  0  0
    1.6230    7.4850   20.0270 C   0  0  0  0  0  0  0  0  0  0  0  0
    2.7100    7.4310   19.1170 C   0  0  0  0  0  0  0  0  0  0  0  0
    3.3070    8.9060   18.3980 Cl  0  0  0  0  0  0  0  0  0  0  0  0
    3.5810    4.1480   19.5270 H   0  0  0  0  0  0  0  0  0  0  0  0
    0.4990    6.3460   21.4960 H   0  0  0  0  0  0  0  0  0  0  0  0
    0.8150    8.6400   20.2060 N   0  0  0  0  0  0  0  0  0  0  0  0
   -0.0320    9.1870   19.1580 C   0  0  0  0  0  0  0  0  0  0  0  0
   -0.6930   10.3500   19.8330 C   0  0  0  0  0  0  0  0  0  0  0  0
   -0.1600   10.5130   21.1080 C   0  0  0  0  0  0  0  0  0  0  0  0
   -0.5560   11.5250   21.9610 C   0  0  0  0  0  0  0  0  0  0  0  0
   -1.5360   12.4030   21.5030 C   0  0  0  0  0  0  0  0  0  0  0  0
   -2.0890   12.2520   20.2170 C   0  0  0  0  0  0  0  0  0  0  0  0
   -1.6690   11.2200   19.3550 C   0  0  0  0  0  0  0  0  0  0  0  0
    0.8410    9.4630   21.3330 C   0  0  0  0  0  0  0  0  0  0  0  0
    1.5600    9.4310   22.3130 O   0  0  0  0  0  0  0  0  0  0  0  0
    0.5780    9.5390   18.3200 H   0  0  0  0  0  0  0  0  0  0  0  0
   -0.7590    8.4310   18.8440 H   0  0  0  0  0  0  0  0  0  0  0  0
   -0.1170   11.6250   22.9480 H   0  0  0  0  0  0  0  0  0  0  0  0
   -1.8770   13.2120   22.1460 H   0  0  0  0  0  0  0  0  0  0  0  0
   -2.8550   12.9550   19.8920 H   0  0  0  0  0  0  0  0  0  0  0  0
   -2.2670   11.0490   17.9840 C   0  0  0  0  0  0  0  0  0  0  0  0
   -2.7130    9.7810   17.7750 F   0  0  0  0  0  0  0  0  0  0  0  0
   -1.3680   11.2960   16.9900 F   0  0  0  0  0  0  0  0  0  0  0  0
   -3.3240   11.8690   17.7440 F   0  0  0  0  0  0  0  0  0  0  0  0
    4.5700    6.1310   17.8920 C   0  0  2  0  0  0  0  0  0  0  0  0
    5.3340    6.8470   18.2200 H   0  0  0  0  0  0  0  0  0  0  0  0
    4.2490    6.5920   16.4620 C   0  0  0  0  0  0  0  0  0  0  0  0
    3.1920    6.8810   16.3780 H   0  0  0  0  0  0  0  0  0  0  0  0
    4.8480    7.4700   16.1920 H   0  0  0  0  0  0  0  0  0  0  0  0
    4.4330    5.8260   15.7080 H   0  0  0  0  0  0  0  0  0  0  0  0
    5.4250    4.5100   17.8890 S   0  0  0  0  0  0  0  0  0  0  0  0
    4.1580    3.3380   17.8530 C   0  0  0  0  0  0  0  0  0  0  0  0
    3.2110    3.2020   16.9570 N   0  0  0  0  0  0  0  0  0  0  0  0
    2.4160    2.1430   17.3320 N   0  0  0  0  0  0  0  0  0  0  0  0
    2.9020    1.6620   18.4520 C   0  0  0  0  0  0  0  0  0  0  0  0
    4.0000    2.3840   18.8200 N   0  0  0  0  0  0  0  0  0  0  0  0
    2.5110    0.8230   19.0090 H   0  0  0  0  0  0  0  0  0  0  0  0
    4.8000    2.1550   19.9910 C   0  0  0  0  0  0  0  0  0  0  0  0
    4.3890    2.7250   20.8280 H   0  0  0  0  0  0  0  0  0  0  0  0
    4.7780    1.0900   20.2400 H   0  0  0  0  0  0  0  0  0  0  0  0
    5.8230    2.4850   19.7850 H   0  0  0  0  0  0  0  0  0  0  0  0
    1.6730    3.9890   21.3590 C   0  0  0  0  0  0  0  0  0  0  0  0
    1.3990    3.0270   21.9450 N   0  0  0  0  0  0  0  0  0  0  0  0
  1  6  2  0  0  0  0
  1  2  1  0  0  0  0
  2  3  2  0  0  0  0
  3  4  1  0  0  0  0
  3 46  1  0  0  0  0
  4  9  1  0  0  0  0
  5 10  1  0  0  0  0
  5  4  2  0  0  0  0
  6  5  1  0  0  0  0
  7  6  1  0  0  0  0
  8  2  1  0  0  0  0
 10 18  1  0  0  0  0
 11 12  1  0  0  0  0
 11 10  1  0  0  0  0
 12 13  1  0  0  0  0
 13 18  1  0  0  0  0
 13 14  2  0  0  0  0
 14 22  1  0  0  0  0
 15 14  1  0  0  0  0
 15 23  1  0  0  0  0
 16 15  2  0  0  0  0
 17 12  2  0  0  0  0
 17 16  1  0  0  0  0
 18 19  2  0  0  0  0
 20 11  1  0  0  0  0
 21 11  1  0  0  0  0
 24 16  1  0  0  0  0
 25 17  1  0  0  0  0
 26 25  1  0  0  0  0
 27 25  1  0  0  0  0
 28 25  1  0  0  0  0
 29 30  1  1  0  0  0
 29  1  1  0  0  0  0
 31 29  1  0  0  0  0
 32 31  1  0  0  0  0
 33 31  1  0  0  0  0
 34 31  1  0  0  0  0
 35 29  1  0  0  0  0
 36 35  1  0  0  0  0
 36 40  1  0  0  0  0
 37 38  1  0  0  0  0
 37 36  2  0  0  0  0
 38 39  2  0  0  0  0
 39 40  1  0  0  0  0
 39 41  1  0  0  0  0
 40 42  1  0  0  0  0
 42 44  1  0  0  0  0
 42 43  1  0  0  0  0
 45 42  1  0  0  0  0
 46 47  3  0  0  0  0
M  END
>  <MODEL>
29

>  <REMARK>
 VINA RESULT:    -6.654      4.100      8.157
 INTER + INTRA:          -7.969
 INTER:                  -8.358
 INTRA:                   0.389
 UNBOUND:                 1.409
  Name = 
  8 active torsions:
  status: ('A' for Active; 'I' for Inactive)
    1  A    between atoms: C_1  and  C_2
    2  A    between atoms: C_2  and  S_3
    3  A    between atoms: C_2  and  C_10
    4  A    between atoms: S_3  and  C_4
    5  A    between atoms: N_8  and  C_9
    6  A    between atoms: C_12  and  C_13
    7  A    between atoms: C_16  and  N_17
    8  A    between atoms: C_24  and  C_25
                            x       y       z     vdW  Elec       q    Type
                         _______ _______ _______ _____ _____    ______ ____

>  <TORSDO>
F 8

$$$$
=
 OpenBabel07192307433D

 47 50  0  0  1  0  0  0  0  0999 V2000
    3.8540    4.6610   17.4570 C   0  0  0  0  0  0  0  0  0  0  0  0
    5.1380    5.1990   17.2390 C   0  0  0  0  0  0  0  0  0  0  0  0
    5.4460    6.5140   17.5920 C   0  0  0  0  0  0  0  0  0  0  0  0
    4.4830    7.3120   18.2120 C   0  0  0  0  0  0  0  0  0  0  0  0
    3.2060    6.8070   18.4990 C   0  0  0  0  0  0  0  0  0  0  0  0
    2.8820    5.4920   18.0740 C   0  0  0  0  0  0  0  0  0  0  0  0
    1.2230    4.9520   18.1280 Cl  0  0  0  0  0  0  0  0  0  0  0  0
    5.9110    4.6020   16.7550 H   0  0  0  0  0  0  0  0  0  0  0  0
    4.7680    8.3150   18.5190 H   0  0  0  0  0  0  0  0  0  0  0  0
    2.2990    7.6400   19.2080 N   0  0  0  0  0  0  0  0  0  0  0  0
    1.8350    8.9210   18.7000 C   0  0  0  0  0  0  0  0  0  0  0  0
    0.8900    9.3830   19.7670 C   0  0  0  0  0  0  0  0  0  0  0  0
    0.9250    8.4930   20.8370 C   0  0  0  0  0  0  0  0  0  0  0  0
    0.1760    8.6720   21.9840 C   0  0  0  0  0  0  0  0  0  0  0  0
   -0.6460    9.7960   22.0450 C   0  0  0  0  0  0  0  0  0  0  0  0
   -0.6970   10.7050   20.9710 C   0  0  0  0  0  0  0  0  0  0  0  0
    0.0800   10.5140   19.8110 C   0  0  0  0  0  0  0  0  0  0  0  0
    1.8610    7.4100   20.5130 C   0  0  0  0  0  0  0  0  0  0  0  0
    2.1890    6.5550   21.3130 O   0  0  0  0  0  0  0  0  0  0  0  0
    2.6710    9.6220   18.6140 H   0  0  0  0  0  0  0  0  0  0  0  0
    1.3260    8.7730   17.7420 H   0  0  0  0  0  0  0  0  0  0  0  0
    0.2300    7.9600   22.8020 H   0  0  0  0  0  0  0  0  0  0  0  0
   -1.2540    9.9710   22.9300 H   0  0  0  0  0  0  0  0  0  0  0  0
   -1.3520   11.5720   21.0510 H   0  0  0  0  0  0  0  0  0  0  0  0
    0.0170   11.4780   18.6570 C   0  0  0  0  0  0  0  0  0  0  0  0
   -0.6990   12.5940   18.9600 F   0  0  0  0  0  0  0  0  0  0  0  0
   -0.5850   10.9360   17.5600 F   0  0  0  0  0  0  0  0  0  0  0  0
    1.2370   11.9090   18.2400 F   0  0  0  0  0  0  0  0  0  0  0  0
    3.5410    3.2270   17.0320 C   0  0  2  0  0  0  0  0  0  0  0  0
    4.2310    2.9850   16.2150 H   0  0  0  0  0  0  0  0  0  0  0  0
    2.1580    2.9970   16.4020 C   0  0  0  0  0  0  0  0  0  0  0  0
    2.2590    2.6130   15.3780 H   0  0  0  0  0  0  0  0  0  0  0  0
    1.5890    2.2550   16.9730 H   0  0  0  0  0  0  0  0  0  0  0  0
    1.5520    3.9020   16.3460 H   0  0  0  0  0  0  0  0  0  0  0  0
    3.8970    1.9770   18.3250 S   0  0  0  0  0  0  0  0  0  0  0  0
    3.0070    2.5020   19.7080 C   0  0  0  0  0  0  0  0  0  0  0  0
    3.4580    3.1410   20.7610 N   0  0  0  0  0  0  0  0  0  0  0  0
    2.4020    3.3480   21.6200 N   0  0  0  0  0  0  0  0  0  0  0  0
    1.3330    2.8270   21.0640 C   0  0  0  0  0  0  0  0  0  0  0  0
    1.6660    2.2810   19.8590 N   0  0  0  0  0  0  0  0  0  0  0  0
    0.3360    2.8230   21.4790 H   0  0  0  0  0  0  0  0  0  0  0  0
    0.7620    1.6180   18.9600 C   0  0  0  0  0  0  0  0  0  0  0  0
    0.3180    2.3530   18.2840 H   0  0  0  0  0  0  0  0  0  0  0  0
    1.3160    0.8810   18.3710 H   0  0  0  0  0  0  0  0  0  0  0  0
   -0.0230    1.1340   19.5490 H   0  0  0  0  0  0  0  0  0  0  0  0
    6.7570    7.0420   17.3470 C   0  0  0  0  0  0  0  0  0  0  0  0
    7.8100    7.4980   17.1720 N   0  0  0  0  0  0  0  0  0  0  0  0
  1  6  1  0  0  0  0
  2  1  2  0  0  0  0
  2  3  1  0  0  0  0
  3  4  2  0  0  0  0
  4  5  1  0  0  0  0
  4  9  1  0  0  0  0
  5 10  1  0  0  0  0
  6  7  1  0  0  0  0
  6  5  2  0  0  0  0
  8  2  1  0  0  0  0
 10 18  1  0  0  0  0
 11 10  1  0  0  0  0
 11 12  1  0  0  0  0
 12 17  2  0  0  0  0
 12 13  1  0  0  0  0
 13 14  2  0  0  0  0
 14 15  1  0  0  0  0
 14 22  1  0  0  0  0
 15 23  1  0  0  0  0
 16 24  1  0  0  0  0
 16 15  2  0  0  0  0
 17 16  1  0  0  0  0
 18 13  1  0  0  0  0
 18 19  2  0  0  0  0
 20 11  1  0  0  0  0
 21 11  1  0  0  0  0
 25 26  1  0  0  0  0
 25 17  1  0  0  0  0
 27 25  1  0  0  0  0
 28 25  1  0  0  0  0
 29 30  1  6  0  0  0
 29  1  1  0  0  0  0
 29 35  1  0  0  0  0
 31 33  1  0  0  0  0
 31 29  1  0  0  0  0
 32 31  1  0  0  0  0
 34 31  1  0  0  0  0
 35 36  1  0  0  0  0
 36 40  1  0  0  0  0
 36 37  2  0  0  0  0
 37 38  1  0  0  0  0
 39 41  1  0  0  0  0
 39 38  2  0  0  0  0
 40 39  1  0  0  0  0
 42 45  1  0  0  0  0
 42 40  1  0  0  0  0
 43 42  1  0  0  0  0
 44 42  1  0  0  0  0
 46  3  1  0  0  0  0
 47 46  3  0  0  0  0
M  END
>  <MODEL>
30

>  <REMARK>
 VINA RESULT:    -6.650      4.257      8.075
 INTER + INTRA:          -7.963
 INTER:                  -7.711
 INTRA:                  -0.252
 UNBOUND:                 1.409
  Name = 
  8 active torsions:
  status: ('A' for Active; 'I' for Inactive)
    1  A    between atoms: C_1  and  C_2
    2  A    between atoms: C_2  and  S_3
    3  A    between atoms: C_2  and  C_10
    4  A    between atoms: S_3  and  C_4
    5  A    between atoms: N_8  and  C_9
    6  A    between atoms: C_12  and  C_13
    7  A    between atoms: C_16  and  N_17
    8  A    between atoms: C_24  and  C_25
                            x       y       z     vdW  Elec       q    Type
                         _______ _______ _______ _____ _____    ______ ____

>  <TORSDO>
F 8

$$$$
=
 OpenBabel07192307433D

 47 50  0  0  1  0  0  0  0  0999 V2000
    3.6300    6.2310   18.7490 C   0  0  0  0  0  0  0  0  0  0  0  0
    3.2320    5.1570   19.5690 C   0  0  0  0  0  0  0  0  0  0  0  0
    2.1670    5.2780   20.4640 C   0  0  0  0  0  0  0  0  0  0  0  0
    1.4460    6.4720   20.5280 C   0  0  0  0  0  0  0  0  0  0  0  0
    1.7690    7.5540   19.6960 C   0  0  0  0  0  0  0  0  0  0  0  0
    2.8950    7.4430   18.8400 C   0  0  0  0  0  0  0  0  0  0  0  0
    3.5100    8.8640   18.0340 Cl  0  0  0  0  0  0  0  0  0  0  0  0
    3.7760    4.2120   19.5430 H   0  0  0  0  0  0  0  0  0  0  0  0
    0.5920    6.5190   21.1990 H   0  0  0  0  0  0  0  0  0  0  0  0
    0.9440    8.7100   19.7490 N   0  0  0  0  0  0  0  0  0  0  0  0
    0.4010    9.2420   20.9880 C   0  0  0  0  0  0  0  0  0  0  0  0
   -0.3490   10.4560   20.5330 C   0  0  0  0  0  0  0  0  0  0  0  0
   -0.3320   10.5190   19.1430 C   0  0  0  0  0  0  0  0  0  0  0  0
   -0.9670   11.5190   18.4310 C   0  0  0  0  0  0  0  0  0  0  0  0
   -1.6420   12.4960   19.1600 C   0  0  0  0  0  0  0  0  0  0  0  0
   -1.6680   12.4490   20.5680 C   0  0  0  0  0  0  0  0  0  0  0  0
   -1.0230   11.4190   21.2790 C   0  0  0  0  0  0  0  0  0  0  0  0
    0.4420    9.3810   18.6330 C   0  0  0  0  0  0  0  0  0  0  0  0
    0.5210    9.1090   17.4510 O   0  0  0  0  0  0  0  0  0  0  0  0
   -0.2910    8.5240   21.4410 H   0  0  0  0  0  0  0  0  0  0  0  0
    1.2210    9.5000   21.6660 H   0  0  0  0  0  0  0  0  0  0  0  0
   -0.9370   11.5370   17.3470 H   0  0  0  0  0  0  0  0  0  0  0  0
   -2.1530   13.3020   18.6380 H   0  0  0  0  0  0  0  0  0  0  0  0
   -2.2030   13.2310   21.1060 H   0  0  0  0  0  0  0  0  0  0  0  0
   -1.0380   11.3740   22.7840 C   0  0  0  0  0  0  0  0  0  0  0  0
   -2.2580   11.0220   23.2730 F   0  0  0  0  0  0  0  0  0  0  0  0
   -0.7490   12.5840   23.3420 F   0  0  0  0  0  0  0  0  0  0  0  0
   -0.1470   10.4950   23.3120 F   0  0  0  0  0  0  0  0  0  0  0  0
    4.8190    6.0740   17.8010 C   0  0  2  0  0  0  0  0  0  0  0  0
    5.6100    6.7320   18.1820 H   0  0  0  0  0  0  0  0  0  0  0  0
    4.6070    6.5760   16.3650 C   0  0  0  0  0  0  0  0  0  0  0  0
    3.6810    6.1600   15.9440 H   0  0  0  0  0  0  0  0  0  0  0  0
    4.5120    7.6670   16.3440 H   0  0  0  0  0  0  0  0  0  0  0  0
    5.4170    6.3040   15.6870 H   0  0  0  0  0  0  0  0  0  0  0  0
    5.5620    4.3990   17.8160 S   0  0  0  0  0  0  0  0  0  0  0  0
    4.2180    3.3150   17.8060 C   0  0  0  0  0  0  0  0  0  0  0  0
    3.2660    3.2220   16.9100 N   0  0  0  0  0  0  0  0  0  0  0  0
    2.3990    2.2290   17.3090 N   0  0  0  0  0  0  0  0  0  0  0  0
    2.8500    1.7440   18.4420 C   0  0  0  0  0  0  0  0  0  0  0  0
    3.9930    2.3990   18.7950 N   0  0  0  0  0  0  0  0  0  0  0  0
    2.4010    0.9490   19.0190 H   0  0  0  0  0  0  0  0  0  0  0  0
    4.7740    2.1470   19.9750 C   0  0  0  0  0  0  0  0  0  0  0  0
    4.4010    2.7640   20.7960 H   0  0  0  0  0  0  0  0  0  0  0  0
    4.6790    1.0920   20.2510 H   0  0  0  0  0  0  0  0  0  0  0  0
    5.8170    2.4010   19.7640 H   0  0  0  0  0  0  0  0  0  0  0  0
    1.7900    4.1730   21.2970 C   0  0  0  0  0  0  0  0  0  0  0  0
    1.5000    3.2550   21.9440 N   0  0  0  0  0  0  0  0  0  0  0  0
  1  6  2  0  0  0  0
  1  2  1  0  0  0  0
  2  3  2  0  0  0  0
  3  4  1  0  0  0  0
  3 46  1  0  0  0  0
  4  9  1  0  0  0  0
  5 10  1  0  0  0  0
  5  4  2  0  0  0  0
  6  5  1  0  0  0  0
  7  6  1  0  0  0  0
  8  2  1  0  0  0  0
 10 11  1  0  0  0  0
 11 20  1  0  0  0  0
 11 21  1  0  0  0  0
 12 11  1  0  0  0  0
 12 17  1  0  0  0  0
 13 12  2  0  0  0  0
 14 13  1  0  0  0  0
 14 15  2  0  0  0  0
 15 16  1  0  0  0  0
 16 24  1  0  0  0  0
 16 17  2  0  0  0  0
 17 25  1  0  0  0  0
 18 13  1  0  0  0  0
 18 10  1  0  0  0  0
 19 18  2  0  0  0  0
 22 14  1  0  0  0  0
 23 15  1  0  0  0  0
 25 26  1  0  0  0  0
 25 28  1  0  0  0  0
 25 27  1  0  0  0  0
 29 35  1  0  0  0  0
 29 30  1  1  0  0  0
 29  1  1  0  0  0  0
 31 29  1  0  0  0  0
 32 31  1  0  0  0  0
 33 31  1  0  0  0  0
 34 31  1  0  0  0  0
 36 35  1  0  0  0  0
 36 40  1  0  0  0  0
 37 38  1  0  0  0  0
 37 36  2  0  0  0  0
 38 39  2  0  0  0  0
 39 40  1  0  0  0  0
 39 41  1  0  0  0  0
 40 42  1  0  0  0  0
 42 44  1  0  0  0  0
 42 43  1  0  0  0  0
 45 42  1  0  0  0  0
 46 47  3  0  0  0  0
M  END
>  <MODEL>
31

>  <REMARK>
 VINA RESULT:    -6.514      4.481      8.417
 INTER + INTRA:          -7.771
 INTER:                  -9.180
 INTRA:                   1.409
 UNBOUND:                 1.409
  Name = 
  8 active torsions:
  status: ('A' for Active; 'I' for Inactive)
    1  A    between atoms: C_1  and  C_2
    2  A    between atoms: C_2  and  S_3
    3  A    between atoms: C_2  and  C_10
    4  A    between atoms: S_3  and  C_4
    5  A    between atoms: N_8  and  C_9
    6  A    between atoms: C_12  and  C_13
    7  A    between atoms: C_16  and  N_17
    8  A    between atoms: C_24  and  C_25
                            x       y       z     vdW  Elec       q    Type
                         _______ _______ _______ _____ _____    ______ ____

>  <TORSDO>
F 8

$$$$
=
 OpenBabel07192307433D

 47 50  0  0  1  0  0  0  0  0999 V2000
    2.4450    6.7770   19.3600 C   0  0  0  0  0  0  0  0  0  0  0  0
    2.1070    5.6000   20.0570 C   0  0  0  0  0  0  0  0  0  0  0  0
    2.5580    4.3480   19.6360 C   0  0  0  0  0  0  0  0  0  0  0  0
    3.3980    4.2490   18.5250 C   0  0  0  0  0  0  0  0  0  0  0  0
    3.8060    5.3950   17.8270 C   0  0  0  0  0  0  0  0  0  0  0  0
    3.2860    6.6550   18.2220 C   0  0  0  0  0  0  0  0  0  0  0  0
    3.5170    8.0450   17.1910 Cl  0  0  0  0  0  0  0  0  0  0  0  0
    1.4520    5.6450   20.9280 H   0  0  0  0  0  0  0  0  0  0  0  0
    3.7720    3.2660   18.2510 H   0  0  0  0  0  0  0  0  0  0  0  0
    4.7280    5.2360   16.7580 N   0  0  0  0  0  0  0  0  0  0  0  0
    4.4200    4.4910   15.5470 C   0  0  0  0  0  0  0  0  0  0  0  0
    5.6670    4.6430   14.7320 C   0  0  0  0  0  0  0  0  0  0  0  0
    6.6350    5.3070   15.4810 C   0  0  0  0  0  0  0  0  0  0  0  0
    7.9040    5.5690   15.0000 C   0  0  0  0  0  0  0  0  0  0  0  0
    8.2000    5.1450   13.7060 C   0  0  0  0  0  0  0  0  0  0  0  0
    7.2330    4.4740   12.9340 C   0  0  0  0  0  0  0  0  0  0  0  0
    5.9470    4.2060   13.4400 C   0  0  0  0  0  0  0  0  0  0  0  0
    6.0640    5.6390   16.7910 C   0  0  0  0  0  0  0  0  0  0  0  0
    6.7190    6.1110   17.7000 O   0  0  0  0  0  0  0  0  0  0  0  0
    4.2540    3.4340   15.7820 H   0  0  0  0  0  0  0  0  0  0  0  0
    3.5530    4.9390   15.0520 H   0  0  0  0  0  0  0  0  0  0  0  0
    8.6350    6.0870   15.6120 H   0  0  0  0  0  0  0  0  0  0  0  0
    9.1880    5.3350   13.2900 H   0  0  0  0  0  0  0  0  0  0  0  0
    7.4980    4.1580   11.9250 H   0  0  0  0  0  0  0  0  0  0  0  0
    4.9070    3.5000   12.6110 C   0  0  0  0  0  0  0  0  0  0  0  0
    3.9700    2.8830   13.3810 F   0  0  0  0  0  0  0  0  0  0  0  0
    5.4440    2.5230   11.8260 F   0  0  0  0  0  0  0  0  0  0  0  0
    4.2280    4.3240   11.7700 F   0  0  0  0  0  0  0  0  0  0  0  0
    1.9090    8.1290   19.8290 C   0  0  2  0  0  0  0  0  0  0  0  0
    2.7820    8.7760   19.9760 H   0  0  0  0  0  0  0  0  0  0  0  0
    1.2270    8.1430   21.2050 C   0  0  0  0  0  0  0  0  0  0  0  0
    1.5860    8.9900   21.8060 H   0  0  0  0  0  0  0  0  0  0  0  0
    0.1420    8.2570   21.1000 H   0  0  0  0  0  0  0  0  0  0  0  0
    1.4070    7.2390   21.7870 H   0  0  0  0  0  0  0  0  0  0  0  0
    0.8930    8.9980   18.5760 S   0  0  0  0  0  0  0  0  0  0  0  0
    1.3410   10.6600   18.7130 C   0  0  0  0  0  0  0  0  0  0  0  0
    2.3510   11.2720   18.1430 N   0  0  0  0  0  0  0  0  0  0  0  0
    2.3320   12.5900   18.5390 N   0  0  0  0  0  0  0  0  0  0  0  0
    1.3060   12.7450   19.3440 C   0  0  0  0  0  0  0  0  0  0  0  0
    0.6530   11.5550   19.4840 N   0  0  0  0  0  0  0  0  0  0  0  0
    1.0080   13.6640   19.8270 H   0  0  0  0  0  0  0  0  0  0  0  0
   -0.5170   11.3300   20.2870 C   0  0  0  0  0  0  0  0  0  0  0  0
   -0.4160   11.8680   21.2330 H   0  0  0  0  0  0  0  0  0  0  0  0
   -1.3960   11.7050   19.7550 H   0  0  0  0  0  0  0  0  0  0  0  0
   -0.6070   10.2570   20.4790 H   0  0  0  0  0  0  0  0  0  0  0  0
    2.1890    3.1650   20.3570 C   0  0  0  0  0  0  0  0  0  0  0  0
    1.9110    2.2190   20.9690 N   0  0  0  0  0  0  0  0  0  0  0  0
  1 29  1  0  0  0  0
  1  2  1  0  0  0  0
  2  8  1  0  0  0  0
  3  2  2  0  0  0  0
  3 46  1  0  0  0  0
  4  3  1  0  0  0  0
  5  6  1  0  0  0  0
  5  4  2  0  0  0  0
  6  1  2  0  0  0  0
  7  6  1  0  0  0  0
  9  4  1  0  0  0  0
 10 18  1  0  0  0  0
 10  5  1  0  0  0  0
 11 20  1  0  0  0  0
 11 10  1  0  0  0  0
 12 13  1  0  0  0  0
 12 11  1  0  0  0  0
 13 18  1  0  0  0  0
 14 13  2  0  0  0  0
 14 22  1  0  0  0  0
 15 14  1  0  0  0  0
 16 17  1  0  0  0  0
 16 15  2  0  0  0  0
 17 12  2  0  0  0  0
 18 19  2  0  0  0  0
 21 11  1  0  0  0  0
 23 15  1  0  0  0  0
 24 16  1  0  0  0  0
 25 26  1  0  0  0  0
 25 17  1  0  0  0  0
 27 25  1  0  0  0  0
 28 25  1  0  0  0  0
 29 30  1  1  0  0  0
 29 31  1  0  0  0  0
 31 34  1  0  0  0  0
 31 32  1  0  0  0  0
 33 31  1  0  0  0  0
 35 36  1  0  0  0  0
 35 29  1  0  0  0  0
 36 40  1  0  0  0  0
 37 38  1  0  0  0  0
 37 36  2  0  0  0  0
 38 39  2  0  0  0  0
 39 40  1  0  0  0  0
 39 41  1  0  0  0  0
 40 42  1  0  0  0  0
 42 45  1  0  0  0  0
 42 43  1  0  0  0  0
 44 42  1  0  0  0  0
 46 47  3  0  0  0  0
M  END
>  <MODEL>
32

>  <REMARK>
 VINA RESULT:    -6.451      3.265      5.162
 INTER + INTRA:          -7.682
 INTER:                  -7.155
 INTRA:                  -0.527
 UNBOUND:                 1.409
  Name = 
  8 active torsions:
  status: ('A' for Active; 'I' for Inactive)
    1  A    between atoms: C_1  and  C_2
    2  A    between atoms: C_2  and  S_3
    3  A    between atoms: C_2  and  C_10
    4  A    between atoms: S_3  and  C_4
    5  A    between atoms: N_8  and  C_9
    6  A    between atoms: C_12  and  C_13
    7  A    between atoms: C_16  and  N_17
    8  A    between atoms: C_24  and  C_25
                            x       y       z     vdW  Elec       q    Type
                         _______ _______ _______ _____ _____    ______ ____

>  <TORSDO>
F 8

$$$$
=
 OpenBabel07192307433D

 47 50  0  0  1  0  0  0  0  0999 V2000
   -0.4090   11.9620   18.8880 C   0  0  0  0  0  0  0  0  0  0  0  0
    0.4980   12.9900   18.5660 C   0  0  0  0  0  0  0  0  0  0  0  0
    1.8630   12.7390   18.4200 C   0  0  0  0  0  0  0  0  0  0  0  0
    2.3490   11.4370   18.5530 C   0  0  0  0  0  0  0  0  0  0  0  0
    1.4800   10.3690   18.8210 C   0  0  0  0  0  0  0  0  0  0  0  0
    0.1050   10.6460   19.0350 C   0  0  0  0  0  0  0  0  0  0  0  0
   -0.9360    9.4010   19.6780 Cl  0  0  0  0  0  0  0  0  0  0  0  0
    0.1500   14.0180   18.4570 H   0  0  0  0  0  0  0  0  0  0  0  0
    3.4100   11.2660   18.3860 H   0  0  0  0  0  0  0  0  0  0  0  0
    2.0240    9.0570   18.8600 N   0  0  0  0  0  0  0  0  0  0  0  0
    2.8380    8.5020   17.7910 C   0  0  0  0  0  0  0  0  0  0  0  0
    3.1920    7.1420   18.3080 C   0  0  0  0  0  0  0  0  0  0  0  0
    2.5230    6.9110   19.5070 C   0  0  0  0  0  0  0  0  0  0  0  0
    2.6310    5.7260   20.2090 C   0  0  0  0  0  0  0  0  0  0  0  0
    3.4560    4.7370   19.6750 C   0  0  0  0  0  0  0  0  0  0  0  0
    4.1430    4.9540   18.4650 C   0  0  0  0  0  0  0  0  0  0  0  0
    4.0150    6.1640   17.7560 C   0  0  0  0  0  0  0  0  0  0  0  0
    1.7340    8.1030   19.8380 C   0  0  0  0  0  0  0  0  0  0  0  0
    0.9490    8.1430   20.7660 O   0  0  0  0  0  0  0  0  0  0  0  0
    2.2490    8.4100   16.8720 H   0  0  0  0  0  0  0  0  0  0  0  0
    3.7260    9.1260   17.6450 H   0  0  0  0  0  0  0  0  0  0  0  0
    2.0930    5.5780   21.1400 H   0  0  0  0  0  0  0  0  0  0  0  0
    3.5710    3.7900   20.1990 H   0  0  0  0  0  0  0  0  0  0  0  0
    4.7810    4.1600   18.0780 H   0  0  0  0  0  0  0  0  0  0  0  0
    4.7580    6.4030   16.4680 C   0  0  0  0  0  0  0  0  0  0  0  0
    6.0090    6.8940   16.6820 F   0  0  0  0  0  0  0  0  0  0  0  0
    4.1330    7.3130   15.6690 F   0  0  0  0  0  0  0  0  0  0  0  0
    4.9120    5.2830   15.7130 F   0  0  0  0  0  0  0  0  0  0  0  0
   -1.8940   12.2750   19.0690 C   0  0  2  0  0  0  0  0  0  0  0  0
   -2.1620   12.9840   18.2770 H   0  0  0  0  0  0  0  0  0  0  0  0
   -2.2720   13.0270   20.3550 C   0  0  0  0  0  0  0  0  0  0  0  0
   -2.9400   12.4170   20.9770 H   0  0  0  0  0  0  0  0  0  0  0  0
   -1.3810   13.2470   20.9530 H   0  0  0  0  0  0  0  0  0  0  0  0
   -2.7830   13.9730   20.1690 H   0  0  0  0  0  0  0  0  0  0  0  0
   -2.9930   10.8350   18.7960 S   0  0  0  0  0  0  0  0  0  0  0  0
   -3.0360   10.6250   17.0830 C   0  0  0  0  0  0  0  0  0  0  0  0
   -2.1850    9.9710   16.3300 N   0  0  0  0  0  0  0  0  0  0  0  0
   -2.6050   10.0730   15.0230 N   0  0  0  0  0  0  0  0  0  0  0  0
   -3.7050   10.7900   15.0160 C   0  0  0  0  0  0  0  0  0  0  0  0
   -4.0140   11.1620   16.2920 N   0  0  0  0  0  0  0  0  0  0  0  0
   -4.2900   11.0530   14.1470 H   0  0  0  0  0  0  0  0  0  0  0  0
   -5.1470   11.9550   16.6840 C   0  0  0  0  0  0  0  0  0  0  0  0
   -5.7950   12.1130   15.8180 H   0  0  0  0  0  0  0  0  0  0  0  0
   -5.7080   11.4230   17.4570 H   0  0  0  0  0  0  0  0  0  0  0  0
   -4.7860   12.9180   17.0570 H   0  0  0  0  0  0  0  0  0  0  0  0
    2.7670   13.8070   18.1050 C   0  0  0  0  0  0  0  0  0  0  0  0
    3.5050   14.6550   17.8170 N   0  0  0  0  0  0  0  0  0  0  0  0
  1  6  1  0  0  0  0
  1 29  1  0  0  0  0
  2  1  2  0  0  0  0
  3  4  2  0  0  0  0
  3  2  1  0  0  0  0
  4  5  1  0  0  0  0
  5 10  1  0  0  0  0
  5  6  2  0  0  0  0
  6  7  1  0  0  0  0
  8  2  1  0  0  0  0
  9  4  1  0  0  0  0
 10 18  1  0  0  0  0
 11 12  1  0  0  0  0
 11 10  1  0  0  0  0
 12 13  1  0  0  0  0
 13 18  1  0  0  0  0
 13 14  2  0  0  0  0
 14 22  1  0  0  0  0
 15 23  1  0  0  0  0
 15 14  1  0  0  0  0
 16 15  2  0  0  0  0
 17 12  2  0  0  0  0
 17 16  1  0  0  0  0
 18 19  2  0  0  0  0
 20 11  1  0  0  0  0
 21 11  1  0  0  0  0
 24 16  1  0  0  0  0
 25 26  1  0  0  0  0
 25 17  1  0  0  0  0
 27 25  1  0  0  0  0
 28 25  1  0  0  0  0
 29 30  1  6  0  0  0
 29 31  1  0  0  0  0
 31 33  1  0  0  0  0
 31 32  1  0  0  0  0
 34 31  1  0  0  0  0
 35 29  1  0  0  0  0
 36 35  1  0  0  0  0
 37 36  2  0  0  0  0
 38 37  1  0  0  0  0
 39 38  2  0  0  0  0
 39 40  1  0  0  0  0
 40 42  1  0  0  0  0
 40 36  1  0  0  0  0
 41 39  1  0  0  0  0
 42 45  1  0  0  0  0
 42 44  1  0  0  0  0
 43 42  1  0  0  0  0
 46  3  1  0  0  0  0
 47 46  3  0  0  0  0
M  END
>  <MODEL>
33

>  <REMARK>
 VINA RESULT:    -6.428      1.907      3.065
 INTER + INTRA:          -7.650
 INTER:                  -9.120
 INTRA:                   1.470
 UNBOUND:                 1.409
  Name = 
  8 active torsions:
  status: ('A' for Active; 'I' for Inactive)
    1  A    between atoms: C_1  and  C_2
    2  A    between atoms: C_2  and  S_3
    3  A    between atoms: C_2  and  C_10
    4  A    between atoms: S_3  and  C_4
    5  A    between atoms: N_8  and  C_9
    6  A    between atoms: C_12  and  C_13
    7  A    between atoms: C_16  and  N_17
    8  A    between atoms: C_24  and  C_25
                            x       y       z     vdW  Elec       q    Type
                         _______ _______ _______ _____ _____    ______ ____

>  <TORSDO>
F 8

$$$$
