=
 OpenBabel07192307433D

 48 50  0  0  1  0  0  0  0  0999 V2000
    5.7490    5.1230   17.5780 C   0  0  2  0  0  0  0  0  0  0  0  0
    6.1120    5.7030   18.4350 H   0  0  0  0  0  0  0  0  0  0  0  0
    4.1290    3.3170   16.1310 O   0  0  0  0  0  0  0  0  0  0  0  0
    4.3520    3.0970   17.3190 C   0  0  0  0  0  0  0  0  0  0  0  0
    5.2140    3.8550   18.0800 N   0  0  0  0  0  0  0  0  0  0  0  0
    5.1190    3.7780   19.0880 H   0  0  0  0  0  0  0  0  0  0  0  0
    3.7090    1.9450   18.0660 C   0  0  0  0  0  0  0  0  0  0  0  0
    4.5030    1.2960   18.4570 H   0  0  0  0  0  0  0  0  0  0  0  0
    3.1440    1.3230   17.3600 H   0  0  0  0  0  0  0  0  0  0  0  0
    2.8240    2.4180   19.1870 C   0  0  0  0  0  0  0  0  0  0  0  0
    1.5000    2.8110   18.9430 C   0  0  0  0  0  0  0  0  0  0  0  0
    0.6810    3.2270   19.9970 C   0  0  0  0  0  0  0  0  0  0  0  0
    1.1740    3.2500   21.3020 C   0  0  0  0  0  0  0  0  0  0  0  0
    2.4840    2.8490   21.5570 C   0  0  0  0  0  0  0  0  0  0  0  0
    3.2950    2.4340   20.5030 C   0  0  0  0  0  0  0  0  0  0  0  0
    4.5490    2.0350   20.7680 F   0  0  0  0  0  0  0  0  0  0  0  0
    1.1000    2.7890   17.9300 H   0  0  0  0  0  0  0  0  0  0  0  0
   -0.3440    3.5350   19.7970 H   0  0  0  0  0  0  0  0  0  0  0  0
    0.5350    3.5730   22.1200 H   0  0  0  0  0  0  0  0  0  0  0  0
    2.8760    2.8550   22.5690 H   0  0  0  0  0  0  0  0  0  0  0  0
    4.6850    5.9510   16.8390 C   0  0  0  0  0  0  0  0  0  0  0  0
    4.0970    5.3020   16.1770 H   0  0  0  0  0  0  0  0  0  0  0  0
    5.1890    6.6680   16.1760 H   0  0  0  0  0  0  0  0  0  0  0  0
    3.7370    6.7180   17.7340 C   0  0  0  0  0  0  0  0  0  0  0  0
    3.2380    6.1420   18.9070 C   0  0  0  0  0  0  0  0  0  0  0  0
    2.3790    6.8630   19.7430 C   0  0  0  0  0  0  0  0  0  0  0  0
    1.9940    8.1770   19.4330 C   0  0  0  0  0  0  0  0  0  0  0  0
    2.4970    8.7420   18.2490 C   0  0  0  0  0  0  0  0  0  0  0  0
    3.3540    8.0240   17.4100 C   0  0  0  0  0  0  0  0  0  0  0  0
    3.5090    5.1250   19.1830 H   0  0  0  0  0  0  0  0  0  0  0  0
    2.0130    6.3830   20.6500 H   0  0  0  0  0  0  0  0  0  0  0  0
    2.2160    9.7530   17.9580 H   0  0  0  0  0  0  0  0  0  0  0  0
    3.7200    8.4960   16.5000 H   0  0  0  0  0  0  0  0  0  0  0  0
    1.0980    8.9420   20.3210 C   0  0  0  0  0  0  0  0  0  0  0  0
    1.1320    8.7510   21.7150 C   0  0  0  0  0  0  0  0  0  0  0  0
    0.2850    9.4740   22.5560 C   0  0  0  0  0  0  0  0  0  0  0  0
    0.3450    9.2690   23.8790 F   0  0  0  0  0  0  0  0  0  0  0  0
   -0.6140   10.3990   22.0500 C   0  0  0  0  0  0  0  0  0  0  0  0
   -0.6600   10.5950   20.6780 C   0  0  0  0  0  0  0  0  0  0  0  0
   -1.5260   11.4870   20.1750 F   0  0  0  0  0  0  0  0  0  0  0  0
    0.1790    9.8810   19.8230 C   0  0  0  0  0  0  0  0  0  0  0  0
    0.1000   10.1150   18.5030 F   0  0  0  0  0  0  0  0  0  0  0  0
    1.8100    8.0290   22.1620 H   0  0  0  0  0  0  0  0  0  0  0  0
   -1.2660   10.9560   22.7110 H   0  0  0  0  0  0  0  0  0  0  0  0
    6.9630    4.8400   16.6930 C   0  0  0  0  0  0  0  0  0  0  0  0
    7.0970    5.1350   15.5140 O   0  0  0  0  0  0  0  0  0  0  0  0
    7.9540    4.1950   17.3450 O   0  0  0  0  0  0  0  0  0  0  0  0
    7.6950    4.2620   18.2890 H   0  0  0  0  0  0  0  0  0  0  0  0
  1  5  1  0  0  0  0
  1  2  1  1  0  0  0
  3  4  2  0  0  0  0
  4  7  1  0  0  0  0
  4  5  1  0  0  0  0
  5  6  1  0  0  0  0
  7  8  1  0  0  0  0
  7 10  1  0  0  0  0
  9  7  1  0  0  0  0
 10 15  1  0  0  0  0
 11 10  2  0  0  0  0
 11 12  1  0  0  0  0
 12 13  2  0  0  0  0
 13 14  1  0  0  0  0
 13 19  1  0  0  0  0
 14 20  1  0  0  0  0
 15 16  1  0  0  0  0
 15 14  2  0  0  0  0
 17 11  1  0  0  0  0
 18 12  1  0  0  0  0
 21  1  1  0  0  0  0
 21 24  1  0  0  0  0
 22 21  1  0  0  0  0
 23 21  1  0  0  0  0
 24 25  1  0  0  0  0
 25 30  1  0  0  0  0
 25 26  2  0  0  0  0
 26 31  1  0  0  0  0
 27 26  1  0  0  0  0
 27 34  1  0  0  0  0
 28 27  2  0  0  0  0
 29 24  2  0  0  0  0
 29 28  1  0  0  0  0
 32 28  1  0  0  0  0
 33 29  1  0  0  0  0
 34 35  1  0  0  0  0
 35 43  1  0  0  0  0
 35 36  2  0  0  0  0
 36 37  1  0  0  0  0
 38 36  1  0  0  0  0
 38 44  1  0  0  0  0
 39 38  2  0  0  0  0
 40 39  1  0  0  0  0
 41 34  2  0  0  0  0
 41 39  1  0  0  0  0
 42 41  1  0  0  0  0
 45 47  1  0  0  0  0
 45  1  1  0  0  0  0
 46 45  2  0  0  0  0
 47 48  1  0  0  0  0
M  END
>  <MODEL>
1

>  <REMARK>
 VINA RESULT:    -9.468      0.000      0.000
 INTER + INTRA:         -14.450
 INTER:                 -13.600
 INTRA:                  -0.850
 UNBOUND:                -0.831
  Name = 
  8 active torsions:
  status: ('A' for Active; 'I' for Inactive)
    1  A    between atoms: C_2  and  C_3
    2  A    between atoms: C_3  and  C_4
    3  A    between atoms: N_11  and  CA_12
    4  A    between atoms: CA_12  and  C_13
    5  A    between atoms: CA_12  and  C_29
    6  A    between atoms: C_13  and  C_14
    7  A    between atoms: C_17  and  C_18
    8  A    between atoms: C_29  and  OXT_31
                            x       y       z     vdW  Elec       q    Type
                         _______ _______ _______ _____ _____    ______ ____

>  <TORSDO>
F 8

$$$$
=
 OpenBabel07192307433D

 48 50  0  0  1  0  0  0  0  0999 V2000
    5.7300    4.9460   17.7440 C   0  0  2  0  0  0  0  0  0  0  0  0
    6.0660    5.5090   18.6240 H   0  0  0  0  0  0  0  0  0  0  0  0
    4.0030    3.2790   16.2550 O   0  0  0  0  0  0  0  0  0  0  0  0
    4.2260    3.0050   17.4320 C   0  0  0  0  0  0  0  0  0  0  0  0
    5.1350    3.6900   18.2080 N   0  0  0  0  0  0  0  0  0  0  0  0
    5.0460    3.5830   19.2150 H   0  0  0  0  0  0  0  0  0  0  0  0
    3.5310    1.8630   18.1460 C   0  0  0  0  0  0  0  0  0  0  0  0
    4.2920    1.1410   18.4720 H   0  0  0  0  0  0  0  0  0  0  0  0
    2.8990    1.3190   17.4330 H   0  0  0  0  0  0  0  0  0  0  0  0
    2.7240    2.3360   19.3240 C   0  0  0  0  0  0  0  0  0  0  0  0
    3.2080    2.1920   20.6320 C   0  0  0  0  0  0  0  0  0  0  0  0
    2.4580    2.6550   21.7180 C   0  0  0  0  0  0  0  0  0  0  0  0
    1.2230    3.2700   21.5060 C   0  0  0  0  0  0  0  0  0  0  0  0
    0.7390    3.4290   20.2090 C   0  0  0  0  0  0  0  0  0  0  0  0
    1.4910    2.9660   19.1320 C   0  0  0  0  0  0  0  0  0  0  0  0
    1.0190    3.1430   17.8880 F   0  0  0  0  0  0  0  0  0  0  0  0
    4.1750    1.7230   20.8110 H   0  0  0  0  0  0  0  0  0  0  0  0
    2.8400    2.5350   22.7300 H   0  0  0  0  0  0  0  0  0  0  0  0
    0.6420    3.6300   22.3510 H   0  0  0  0  0  0  0  0  0  0  0  0
   -0.2160    3.9120   20.0320 H   0  0  0  0  0  0  0  0  0  0  0  0
    4.7290    5.8090   16.9600 C   0  0  0  0  0  0  0  0  0  0  0  0
    4.1520    5.1810   16.2690 H   0  0  0  0  0  0  0  0  0  0  0  0
    5.2860    6.5110   16.3240 H   0  0  0  0  0  0  0  0  0  0  0  0
    3.7650    6.6040   17.8140 C   0  0  0  0  0  0  0  0  0  0  0  0
    3.3040    6.0960   19.0320 C   0  0  0  0  0  0  0  0  0  0  0  0
    2.4300    6.8450   19.8280 C   0  0  0  0  0  0  0  0  0  0  0  0
    1.9930    8.1190   19.4320 C   0  0  0  0  0  0  0  0  0  0  0  0
    2.4600    8.6150   18.2030 C   0  0  0  0  0  0  0  0  0  0  0  0
    3.3310    7.8700   17.4030 C   0  0  0  0  0  0  0  0  0  0  0  0
    3.6140    5.1120   19.3750 H   0  0  0  0  0  0  0  0  0  0  0  0
    2.0940    6.4190   20.7730 H   0  0  0  0  0  0  0  0  0  0  0  0
    2.1390    9.5920   17.8450 H   0  0  0  0  0  0  0  0  0  0  0  0
    3.6680    8.2880   16.4570 H   0  0  0  0  0  0  0  0  0  0  0  0
    1.0820    8.9130   20.2770 C   0  0  0  0  0  0  0  0  0  0  0  0
    1.0740    8.7530   21.6750 C   0  0  0  0  0  0  0  0  0  0  0  0
    0.2130    9.5040   22.4770 C   0  0  0  0  0  0  0  0  0  0  0  0
    0.2330    9.3280   23.8050 F   0  0  0  0  0  0  0  0  0  0  0  0
   -0.6600   10.4270   21.9250 C   0  0  0  0  0  0  0  0  0  0  0  0
   -0.6660   10.5950   20.5480 C   0  0  0  0  0  0  0  0  0  0  0  0
   -1.5060   11.4850   20.0020 F   0  0  0  0  0  0  0  0  0  0  0  0
    0.1890    9.8520   19.7330 C   0  0  0  0  0  0  0  0  0  0  0  0
    0.1500   10.0580   18.4060 F   0  0  0  0  0  0  0  0  0  0  0  0
    1.7310    8.0330   22.1570 H   0  0  0  0  0  0  0  0  0  0  0  0
   -1.3240   11.0070   22.5550 H   0  0  0  0  0  0  0  0  0  0  0  0
    6.9780    4.6340   16.9190 C   0  0  0  0  0  0  0  0  0  0  0  0
    7.1590    4.8860   15.7370 O   0  0  0  0  0  0  0  0  0  0  0  0
    7.9440    4.0160   17.6330 O   0  0  0  0  0  0  0  0  0  0  0  0
    7.8620    3.0740   17.3710 H   0  0  0  0  0  0  0  0  0  0  0  0
  1  5  1  0  0  0  0
  1  2  1  1  0  0  0
  3  4  2  0  0  0  0
  4  7  1  0  0  0  0
  4  5  1  0  0  0  0
  5  6  1  0  0  0  0
  7  8  1  0  0  0  0
  7 10  1  0  0  0  0
  9  7  1  0  0  0  0
 10 11  1  0  0  0  0
 11 17  1  0  0  0  0
 11 12  2  0  0  0  0
 12 18  1  0  0  0  0
 13 12  1  0  0  0  0
 13 19  1  0  0  0  0
 14 13  2  0  0  0  0
 15 10  2  0  0  0  0
 15 14  1  0  0  0  0
 16 15  1  0  0  0  0
 20 14  1  0  0  0  0
 21  1  1  0  0  0  0
 21 24  1  0  0  0  0
 22 21  1  0  0  0  0
 23 21  1  0  0  0  0
 24 25  1  0  0  0  0
 25 30  1  0  0  0  0
 25 26  2  0  0  0  0
 26 31  1  0  0  0  0
 27 26  1  0  0  0  0
 27 34  1  0  0  0  0
 28 27  2  0  0  0  0
 29 24  2  0  0  0  0
 29 28  1  0  0  0  0
 32 28  1  0  0  0  0
 33 29  1  0  0  0  0
 34 35  1  0  0  0  0
 35 43  1  0  0  0  0
 35 36  2  0  0  0  0
 36 37  1  0  0  0  0
 38 36  1  0  0  0  0
 38 44  1  0  0  0  0
 39 38  2  0  0  0  0
 40 39  1  0  0  0  0
 41 34  2  0  0  0  0
 41 39  1  0  0  0  0
 42 41  1  0  0  0  0
 45 47  1  0  0  0  0
 45  1  1  0  0  0  0
 46 45  2  0  0  0  0
 48 47  1  0  0  0  0
M  END
>  <MODEL>
2

>  <REMARK>
 VINA RESULT:    -9.342      0.865      1.219
 INTER + INTRA:         -14.269
 INTER:                 -13.512
 INTRA:                  -0.758
 UNBOUND:                -0.831
  Name = 
  8 active torsions:
  status: ('A' for Active; 'I' for Inactive)
    1  A    between atoms: C_2  and  C_3
    2  A    between atoms: C_3  and  C_4
    3  A    between atoms: N_11  and  CA_12
    4  A    between atoms: CA_12  and  C_13
    5  A    between atoms: CA_12  and  C_29
    6  A    between atoms: C_13  and  C_14
    7  A    between atoms: C_17  and  C_18
    8  A    between atoms: C_29  and  OXT_31
                            x       y       z     vdW  Elec       q    Type
                         _______ _______ _______ _____ _____    ______ ____

>  <TORSDO>
F 8

$$$$
=
 OpenBabel07192307433D

 48 50  0  0  1  0  0  0  0  0999 V2000
    5.7530    5.3740   17.8050 C   0  0  2  0  0  0  0  0  0  0  0  0
    6.0070    5.9450   18.7060 H   0  0  0  0  0  0  0  0  0  0  0  0
    4.3260    3.5670   16.1690 O   0  0  0  0  0  0  0  0  0  0  0  0
    4.4420    3.3210   17.3670 C   0  0  0  0  0  0  0  0  0  0  0  0
    5.2080    4.0810   18.2240 N   0  0  0  0  0  0  0  0  0  0  0  0
    5.0200    3.9760   19.2170 H   0  0  0  0  0  0  0  0  0  0  0  0
    3.7620    2.1360   18.0230 C   0  0  0  0  0  0  0  0  0  0  0  0
    4.5360    1.4430   18.3790 H   0  0  0  0  0  0  0  0  0  0  0  0
    3.1940    1.5780   17.2680 H   0  0  0  0  0  0  0  0  0  0  0  0
    2.8700    2.5500   19.1630 C   0  0  0  0  0  0  0  0  0  0  0  0
    1.5520    2.9670   18.9300 C   0  0  0  0  0  0  0  0  0  0  0  0
    0.7260    3.3280   19.9990 C   0  0  0  0  0  0  0  0  0  0  0  0
    1.2070    3.2700   21.3080 C   0  0  0  0  0  0  0  0  0  0  0  0
    2.5120    2.8450   21.5500 C   0  0  0  0  0  0  0  0  0  0  0  0
    3.3290    2.4850   20.4810 C   0  0  0  0  0  0  0  0  0  0  0  0
    4.5770    2.0610   20.7330 F   0  0  0  0  0  0  0  0  0  0  0  0
    1.1610    3.0070   17.9140 H   0  0  0  0  0  0  0  0  0  0  0  0
   -0.2940    3.6550   19.8080 H   0  0  0  0  0  0  0  0  0  0  0  0
    0.5630    3.5500   22.1370 H   0  0  0  0  0  0  0  0  0  0  0  0
    2.8940    2.7880   22.5650 H   0  0  0  0  0  0  0  0  0  0  0  0
    4.7490    6.1870   16.9730 C   0  0  0  0  0  0  0  0  0  0  0  0
    4.2160    5.5260   16.2770 H   0  0  0  0  0  0  0  0  0  0  0  0
    5.3010    6.8960   16.3400 H   0  0  0  0  0  0  0  0  0  0  0  0
    3.7320    6.9640   17.7810 C   0  0  0  0  0  0  0  0  0  0  0  0
    3.1950    6.4300   18.9560 C   0  0  0  0  0  0  0  0  0  0  0  0
    2.2710    7.1610   19.7110 C   0  0  0  0  0  0  0  0  0  0  0  0
    1.8580    8.4430   19.3140 C   0  0  0  0  0  0  0  0  0  0  0  0
    2.4000    8.9650   18.1280 C   0  0  0  0  0  0  0  0  0  0  0  0
    3.3220    8.2370   17.3700 C   0  0  0  0  0  0  0  0  0  0  0  0
    3.4850    5.4390   19.2980 H   0  0  0  0  0  0  0  0  0  0  0  0
    1.8770    6.7150   20.6230 H   0  0  0  0  0  0  0  0  0  0  0  0
    2.1010    9.9490   17.7710 H   0  0  0  0  0  0  0  0  0  0  0  0
    3.7170    8.6750   16.4550 H   0  0  0  0  0  0  0  0  0  0  0  0
    0.8940    9.2190   20.1170 C   0  0  0  0  0  0  0  0  0  0  0  0
    0.0150   10.1300   19.5030 C   0  0  0  0  0  0  0  0  0  0  0  0
   -0.8980   10.8650   20.2610 C   0  0  0  0  0  0  0  0  0  0  0  0
   -1.7220   11.7230   19.6450 F   0  0  0  0  0  0  0  0  0  0  0  0
   -0.9680   10.7220   21.6380 C   0  0  0  0  0  0  0  0  0  0  0  0
   -0.1070    9.8290   22.2570 C   0  0  0  0  0  0  0  0  0  0  0  0
   -0.1650    9.6830   23.5880 F   0  0  0  0  0  0  0  0  0  0  0  0
    0.8120    9.0880   21.5140 C   0  0  0  0  0  0  0  0  0  0  0  0
    1.6170    8.2300   22.1610 F   0  0  0  0  0  0  0  0  0  0  0  0
    0.0370   10.2890   18.4280 H   0  0  0  0  0  0  0  0  0  0  0  0
   -1.6810   11.2960   22.2180 H   0  0  0  0  0  0  0  0  0  0  0  0
    7.0620    5.1440   17.0480 C   0  0  0  0  0  0  0  0  0  0  0  0
    7.9300    4.3260   17.3150 O   0  0  0  0  0  0  0  0  0  0  0  0
    7.2100    5.9640   15.9850 O   0  0  0  0  0  0  0  0  0  0  0  0
    8.0820    6.3880   16.1380 H   0  0  0  0  0  0  0  0  0  0  0  0
  1  5  1  0  0  0  0
  1  2  1  1  0  0  0
  3  4  2  0  0  0  0
  4  7  1  0  0  0  0
  4  5  1  0  0  0  0
  5  6  1  0  0  0  0
  7  8  1  0  0  0  0
  7 10  1  0  0  0  0
  9  7  1  0  0  0  0
 10 15  1  0  0  0  0
 11 10  2  0  0  0  0
 11 12  1  0  0  0  0
 12 13  2  0  0  0  0
 13 14  1  0  0  0  0
 13 19  1  0  0  0  0
 14 20  1  0  0  0  0
 15 16  1  0  0  0  0
 15 14  2  0  0  0  0
 17 11  1  0  0  0  0
 18 12  1  0  0  0  0
 21 24  1  0  0  0  0
 21  1  1  0  0  0  0
 22 21  1  0  0  0  0
 23 21  1  0  0  0  0
 24 25  1  0  0  0  0
 25 30  1  0  0  0  0
 25 26  2  0  0  0  0
 26 31  1  0  0  0  0
 27 26  1  0  0  0  0
 27 34  1  0  0  0  0
 28 27  2  0  0  0  0
 29 24  2  0  0  0  0
 29 28  1  0  0  0  0
 32 28  1  0  0  0  0
 33 29  1  0  0  0  0
 34 41  1  0  0  0  0
 35 34  2  0  0  0  0
 35 36  1  0  0  0  0
 36 38  2  0  0  0  0
 37 36  1  0  0  0  0
 38 44  1  0  0  0  0
 38 39  1  0  0  0  0
 39 40  1  0  0  0  0
 41 42  1  0  0  0  0
 41 39  2  0  0  0  0
 43 35  1  0  0  0  0
 45 46  2  0  0  0  0
 45  1  1  0  0  0  0
 47 48  1  0  0  0  0
 47 45  1  0  0  0  0
M  END
>  <MODEL>
3

>  <REMARK>
 VINA RESULT:    -9.046      0.621      1.797
 INTER + INTRA:         -13.844
 INTER:                 -13.087
 INTRA:                  -0.758
 UNBOUND:                -0.831
  Name = 
  8 active torsions:
  status: ('A' for Active; 'I' for Inactive)
    1  A    between atoms: C_2  and  C_3
    2  A    between atoms: C_3  and  C_4
    3  A    between atoms: N_11  and  CA_12
    4  A    between atoms: CA_12  and  C_13
    5  A    between atoms: CA_12  and  C_29
    6  A    between atoms: C_13  and  C_14
    7  A    between atoms: C_17  and  C_18
    8  A    between atoms: C_29  and  OXT_31
                            x       y       z     vdW  Elec       q    Type
                         _______ _______ _______ _____ _____    ______ ____

>  <TORSDO>
F 8

$$$$
=
 OpenBabel07192307433D

 48 50  0  0  1  0  0  0  0  0999 V2000
    2.6240    4.3530   19.4940 C   0  0  2  0  0  0  0  0  0  0  0  0
    1.7410    4.4970   18.8600 H   0  0  0  0  0  0  0  0  0  0  0  0
    2.7970    3.6330   16.7680 O   0  0  0  0  0  0  0  0  0  0  0  0
    3.8150    3.9930   17.3550 C   0  0  0  0  0  0  0  0  0  0  0  0
    3.8150    4.4660   18.6480 N   0  0  0  0  0  0  0  0  0  0  0  0
    4.7080    4.4680   19.1330 H   0  0  0  0  0  0  0  0  0  0  0  0
    5.1820    3.9700   16.6990 C   0  0  0  0  0  0  0  0  0  0  0  0
    5.0510    4.0840   15.6150 H   0  0  0  0  0  0  0  0  0  0  0  0
    5.6350    2.9800   16.8360 H   0  0  0  0  0  0  0  0  0  0  0  0
    6.0860    5.0490   17.2300 C   0  0  0  0  0  0  0  0  0  0  0  0
    7.0810    4.7550   18.1740 C   0  0  0  0  0  0  0  0  0  0  0  0
    7.9300    5.7620   18.6430 C   0  0  0  0  0  0  0  0  0  0  0  0
    7.7960    7.0690   18.1710 C   0  0  0  0  0  0  0  0  0  0  0  0
    6.8190    7.3690   17.2240 C   0  0  0  0  0  0  0  0  0  0  0  0
    5.9770    6.3600   16.7590 C   0  0  0  0  0  0  0  0  0  0  0  0
    5.0530    6.6630   15.8340 F   0  0  0  0  0  0  0  0  0  0  0  0
    7.2020    3.7370   18.5430 H   0  0  0  0  0  0  0  0  0  0  0  0
    8.6960    5.5240   19.3790 H   0  0  0  0  0  0  0  0  0  0  0  0
    8.4570    7.8500   18.5360 H   0  0  0  0  0  0  0  0  0  0  0  0
    6.7110    8.3790   16.8440 H   0  0  0  0  0  0  0  0  0  0  0  0
    2.6030    5.4050   20.6140 C   0  0  0  0  0  0  0  0  0  0  0  0
    3.6090    5.5220   21.0380 H   0  0  0  0  0  0  0  0  0  0  0  0
    1.9780    5.0360   21.4390 H   0  0  0  0  0  0  0  0  0  0  0  0
    2.0890    6.7670   20.2010 C   0  0  0  0  0  0  0  0  0  0  0  0
    2.3620    7.2780   18.9290 C   0  0  0  0  0  0  0  0  0  0  0  0
    1.8660    8.5280   18.5440 C   0  0  0  0  0  0  0  0  0  0  0  0
    1.0850    9.3020   19.4170 C   0  0  0  0  0  0  0  0  0  0  0  0
    0.8230    8.7800   20.6940 C   0  0  0  0  0  0  0  0  0  0  0  0
    1.3190    7.5320   21.0830 C   0  0  0  0  0  0  0  0  0  0  0  0
    2.9660    6.7120   18.2220 H   0  0  0  0  0  0  0  0  0  0  0  0
    2.0960    8.8930   17.5430 H   0  0  0  0  0  0  0  0  0  0  0  0
    0.2340    9.3480   21.4120 H   0  0  0  0  0  0  0  0  0  0  0  0
    1.0960    7.1630   22.0830 H   0  0  0  0  0  0  0  0  0  0  0  0
    0.5510   10.6150   19.0060 C   0  0  0  0  0  0  0  0  0  0  0  0
    1.3810   11.7510   18.9750 C   0  0  0  0  0  0  0  0  0  0  0  0
    0.8770   12.9940   18.5860 C   0  0  0  0  0  0  0  0  0  0  0  0
    1.6940   14.0550   18.5650 F   0  0  0  0  0  0  0  0  0  0  0  0
   -0.4500   13.1490   18.2210 C   0  0  0  0  0  0  0  0  0  0  0  0
   -1.2810   12.0380   18.2500 C   0  0  0  0  0  0  0  0  0  0  0  0
   -2.5670   12.1760   17.9000 F   0  0  0  0  0  0  0  0  0  0  0  0
   -0.7930   10.7890   18.6360 C   0  0  0  0  0  0  0  0  0  0  0  0
   -1.6360    9.7440   18.6380 F   0  0  0  0  0  0  0  0  0  0  0  0
    2.4270   11.6860   19.2620 H   0  0  0  0  0  0  0  0  0  0  0  0
   -0.8320   14.1170   17.9200 H   0  0  0  0  0  0  0  0  0  0  0  0
    2.5380    2.9310   20.0500 C   0  0  0  0  0  0  0  0  0  0  0  0
    3.0840    2.5010   21.0550 O   0  0  0  0  0  0  0  0  0  0  0  0
    1.7600    2.1170   19.3040 O   0  0  0  0  0  0  0  0  0  0  0  0
    0.8690    2.2170   19.7010 H   0  0  0  0  0  0  0  0  0  0  0  0
  1  2  1  6  0  0  0
  1 45  1  0  0  0  0
  1 21  1  0  0  0  0
  3  4  2  0  0  0  0
  4  5  1  0  0  0  0
  5  6  1  0  0  0  0
  5  1  1  0  0  0  0
  7  9  1  0  0  0  0
  7 10  1  0  0  0  0
  7  4  1  0  0  0  0
  8  7  1  0  0  0  0
 10 11  1  0  0  0  0
 11 17  1  0  0  0  0
 11 12  2  0  0  0  0
 12 18  1  0  0  0  0
 13 19  1  0  0  0  0
 13 12  1  0  0  0  0
 14 13  2  0  0  0  0
 15 14  1  0  0  0  0
 15 10  2  0  0  0  0
 16 15  1  0  0  0  0
 20 14  1  0  0  0  0
 21 22  1  0  0  0  0
 21 23  1  0  0  0  0
 24 21  1  0  0  0  0
 24 29  1  0  0  0  0
 25 24  2  0  0  0  0
 26 25  1  0  0  0  0
 26 27  2  0  0  0  0
 27 28  1  0  0  0  0
 28 29  2  0  0  0  0
 28 32  1  0  0  0  0
 29 33  1  0  0  0  0
 30 25  1  0  0  0  0
 31 26  1  0  0  0  0
 34 27  1  0  0  0  0
 35 34  1  0  0  0  0
 35 43  1  0  0  0  0
 36 35  2  0  0  0  0
 37 36  1  0  0  0  0
 38 39  2  0  0  0  0
 38 36  1  0  0  0  0
 39 41  1  0  0  0  0
 40 39  1  0  0  0  0
 41 42  1  0  0  0  0
 41 34  2  0  0  0  0
 44 38  1  0  0  0  0
 45 46  2  0  0  0  0
 47 48  1  0  0  0  0
 47 45  1  0  0  0  0
M  END
>  <MODEL>
4

>  <REMARK>
 VINA RESULT:    -8.814      2.553      4.749
 INTER + INTRA:         -13.510
 INTER:                 -12.395
 INTRA:                  -1.115
 UNBOUND:                -0.831
  Name = 
  8 active torsions:
  status: ('A' for Active; 'I' for Inactive)
    1  A    between atoms: C_2  and  C_3
    2  A    between atoms: C_3  and  C_4
    3  A    between atoms: N_11  and  CA_12
    4  A    between atoms: CA_12  and  C_13
    5  A    between atoms: CA_12  and  C_29
    6  A    between atoms: C_13  and  C_14
    7  A    between atoms: C_17  and  C_18
    8  A    between atoms: C_29  and  OXT_31
                            x       y       z     vdW  Elec       q    Type
                         _______ _______ _______ _____ _____    ______ ____

>  <TORSDO>
F 8

$$$$
=
 OpenBabel07192307433D

 48 50  0  0  1  0  0  0  0  0999 V2000
    3.5660    5.0560   17.6640 C   0  0  2  0  0  0  0  0  0  0  0  0
    3.0560    5.7040   16.9400 H   0  0  0  0  0  0  0  0  0  0  0  0
    4.9780    6.7590   15.9070 O   0  0  0  0  0  0  0  0  0  0  0  0
    5.5080    5.7150   16.2770 C   0  0  0  0  0  0  0  0  0  0  0  0
    4.9490    4.8740   17.2140 N   0  0  0  0  0  0  0  0  0  0  0  0
    5.3070    3.9240   17.2450 H   0  0  0  0  0  0  0  0  0  0  0  0
    6.8520    5.2530   15.7490 C   0  0  0  0  0  0  0  0  0  0  0  0
    7.2660    4.5130   16.4470 H   0  0  0  0  0  0  0  0  0  0  0  0
    7.5570    6.0940   15.7610 H   0  0  0  0  0  0  0  0  0  0  0  0
    6.7480    4.6640   14.3670 C   0  0  0  0  0  0  0  0  0  0  0  0
    5.7110    3.7800   14.0380 C   0  0  0  0  0  0  0  0  0  0  0  0
    5.6120    3.2570   12.7450 C   0  0  0  0  0  0  0  0  0  0  0  0
    6.5440    3.6160   11.7700 C   0  0  0  0  0  0  0  0  0  0  0  0
    7.5720    4.5040   12.0840 C   0  0  0  0  0  0  0  0  0  0  0  0
    7.6630    5.0220   13.3740 C   0  0  0  0  0  0  0  0  0  0  0  0
    8.6480    5.8900   13.6550 F   0  0  0  0  0  0  0  0  0  0  0  0
    4.9710    3.4990   14.7870 H   0  0  0  0  0  0  0  0  0  0  0  0
    4.8070    2.5680   12.5000 H   0  0  0  0  0  0  0  0  0  0  0  0
    6.4660    3.2090   10.7660 H   0  0  0  0  0  0  0  0  0  0  0  0
    8.2970    4.7960   11.3320 H   0  0  0  0  0  0  0  0  0  0  0  0
    3.4870    5.7110   19.0520 C   0  0  0  0  0  0  0  0  0  0  0  0
    4.4970    5.9430   19.4160 H   0  0  0  0  0  0  0  0  0  0  0  0
    3.0780    4.9830   19.7660 H   0  0  0  0  0  0  0  0  0  0  0  0
    2.6460    6.9670   19.1190 C   0  0  0  0  0  0  0  0  0  0  0  0
    2.4760    7.7730   17.9890 C   0  0  0  0  0  0  0  0  0  0  0  0
    1.6790    8.9220   18.0510 C   0  0  0  0  0  0  0  0  0  0  0  0
    1.0310    9.2970   19.2380 C   0  0  0  0  0  0  0  0  0  0  0  0
    1.2150    8.4810   20.3670 C   0  0  0  0  0  0  0  0  0  0  0  0
    2.0120    7.3340   20.3110 C   0  0  0  0  0  0  0  0  0  0  0  0
    2.9630    7.5220   17.0500 H   0  0  0  0  0  0  0  0  0  0  0  0
    1.5660    9.5240   17.1500 H   0  0  0  0  0  0  0  0  0  0  0  0
    0.7450    8.7370   21.3150 H   0  0  0  0  0  0  0  0  0  0  0  0
    2.1320    6.7290   21.2080 H   0  0  0  0  0  0  0  0  0  0  0  0
    0.1810   10.5010   19.2990 C   0  0  0  0  0  0  0  0  0  0  0  0
    0.5080   11.5710   20.1530 C   0  0  0  0  0  0  0  0  0  0  0  0
   -0.2960   12.7110   20.2110 C   0  0  0  0  0  0  0  0  0  0  0  0
    0.0450   13.7120   21.0330 F   0  0  0  0  0  0  0  0  0  0  0  0
   -1.4380   12.8250   19.4350 C   0  0  0  0  0  0  0  0  0  0  0  0
   -1.7740   11.7780   18.5910 C   0  0  0  0  0  0  0  0  0  0  0  0
   -2.8760   11.8770   17.8350 F   0  0  0  0  0  0  0  0  0  0  0  0
   -0.9820   10.6320   18.5200 C   0  0  0  0  0  0  0  0  0  0  0  0
   -1.3470    9.6490   17.6800 F   0  0  0  0  0  0  0  0  0  0  0  0
    1.3860   11.5260   20.7910 H   0  0  0  0  0  0  0  0  0  0  0  0
   -2.0550   13.7150   19.4860 H   0  0  0  0  0  0  0  0  0  0  0  0
    2.8470    3.7080   17.6300 C   0  0  0  0  0  0  0  0  0  0  0  0
    3.3490    2.6040   17.7840 O   0  0  0  0  0  0  0  0  0  0  0  0
    1.5200    3.8210   17.4030 O   0  0  0  0  0  0  0  0  0  0  0  0
    1.1540    4.0640   18.2800 H   0  0  0  0  0  0  0  0  0  0  0  0
  1  2  1  6  0  0  0
  1 21  1  0  0  0  0
  3  4  2  0  0  0  0
  4  5  1  0  0  0  0
  5  6  1  0  0  0  0
  5  1  1  0  0  0  0
  7  9  1  0  0  0  0
  7  4  1  0  0  0  0
  7  8  1  0  0  0  0
 10  7  1  0  0  0  0
 11 10  1  0  0  0  0
 11 17  1  0  0  0  0
 12 11  2  0  0  0  0
 13 14  2  0  0  0  0
 13 12  1  0  0  0  0
 14 15  1  0  0  0  0
 15 16  1  0  0  0  0
 15 10  2  0  0  0  0
 18 12  1  0  0  0  0
 19 13  1  0  0  0  0
 20 14  1  0  0  0  0
 21 24  1  0  0  0  0
 21 22  1  0  0  0  0
 21 23  1  0  0  0  0
 24 29  1  0  0  0  0
 25 26  1  0  0  0  0
 25 24  2  0  0  0  0
 26 27  2  0  0  0  0
 27 34  1  0  0  0  0
 27 28  1  0  0  0  0
 28 32  1  0  0  0  0
 29 28  2  0  0  0  0
 29 33  1  0  0  0  0
 30 25  1  0  0  0  0
 31 26  1  0  0  0  0
 34 35  1  0  0  0  0
 35 36  2  0  0  0  0
 35 43  1  0  0  0  0
 36 37  1  0  0  0  0
 38 44  1  0  0  0  0
 38 36  1  0  0  0  0
 39 38  2  0  0  0  0
 40 39  1  0  0  0  0
 41 39  1  0  0  0  0
 41 34  2  0  0  0  0
 42 41  1  0  0  0  0
 45  1  1  0  0  0  0
 45 46  2  0  0  0  0
 47 45  1  0  0  0  0
 47 48  1  0  0  0  0
M  END
>  <MODEL>
5

>  <REMARK>
 VINA RESULT:    -8.717      2.868      5.192
 INTER + INTRA:         -13.371
 INTER:                 -12.312
 INTRA:                  -1.058
 UNBOUND:                -0.831
  Name = 
  8 active torsions:
  status: ('A' for Active; 'I' for Inactive)
    1  A    between atoms: C_2  and  C_3
    2  A    between atoms: C_3  and  C_4
    3  A    between atoms: N_11  and  CA_12
    4  A    between atoms: CA_12  and  C_13
    5  A    between atoms: CA_12  and  C_29
    6  A    between atoms: C_13  and  C_14
    7  A    between atoms: C_17  and  C_18
    8  A    between atoms: C_29  and  OXT_31
                            x       y       z     vdW  Elec       q    Type
                         _______ _______ _______ _____ _____    ______ ____

>  <TORSDO>
F 8

$$$$
=
 OpenBabel07192307433D

 48 50  0  0  1  0  0  0  0  0999 V2000
    0.8070    8.9550   21.1440 C   0  0  2  0  0  0  0  0  0  0  0  0
    1.6800    9.3460   20.6090 H   0  0  0  0  0  0  0  0  0  0  0  0
    0.7940   11.1410   19.3550 O   0  0  0  0  0  0  0  0  0  0  0  0
   -0.2670   10.7750   19.8550 C   0  0  0  0  0  0  0  0  0  0  0  0
   -0.3820    9.6560   20.6500 N   0  0  0  0  0  0  0  0  0  0  0  0
   -1.2110    9.5950   21.2340 H   0  0  0  0  0  0  0  0  0  0  0  0
   -1.5700   11.5140   19.6280 C   0  0  0  0  0  0  0  0  0  0  0  0
   -1.3610   12.5930   19.6080 H   0  0  0  0  0  0  0  0  0  0  0  0
   -2.2320   11.3600   20.4890 H   0  0  0  0  0  0  0  0  0  0  0  0
   -2.2480   11.0930   18.3520 C   0  0  0  0  0  0  0  0  0  0  0  0
   -1.6080   10.2360   17.4450 C   0  0  0  0  0  0  0  0  0  0  0  0
   -2.2570    9.8340   16.2740 C   0  0  0  0  0  0  0  0  0  0  0  0
   -3.5520   10.2800   16.0010 C   0  0  0  0  0  0  0  0  0  0  0  0
   -4.2010   11.1210   16.9020 C   0  0  0  0  0  0  0  0  0  0  0  0
   -3.5490   11.5170   18.0680 C   0  0  0  0  0  0  0  0  0  0  0  0
   -4.1960   12.3140   18.9330 F   0  0  0  0  0  0  0  0  0  0  0  0
   -0.6010    9.8740   17.6510 H   0  0  0  0  0  0  0  0  0  0  0  0
   -1.7500    9.1730   15.5740 H   0  0  0  0  0  0  0  0  0  0  0  0
   -4.0550    9.9660   15.0900 H   0  0  0  0  0  0  0  0  0  0  0  0
   -5.2110   11.4670   16.7040 H   0  0  0  0  0  0  0  0  0  0  0  0
    0.7260    7.4380   20.9120 C   0  0  0  0  0  0  0  0  0  0  0  0
   -0.2560    7.1730   20.4970 H   0  0  0  0  0  0  0  0  0  0  0  0
    0.7820    6.9250   21.8820 H   0  0  0  0  0  0  0  0  0  0  0  0
    1.8020    6.8710   20.0120 C   0  0  0  0  0  0  0  0  0  0  0  0
    2.3210    7.6270   18.9560 C   0  0  0  0  0  0  0  0  0  0  0  0
    3.3330    7.1060   18.1410 C   0  0  0  0  0  0  0  0  0  0  0  0
    3.8520    5.8200   18.3550 C   0  0  0  0  0  0  0  0  0  0  0  0
    3.3180    5.0690   19.4160 C   0  0  0  0  0  0  0  0  0  0  0  0
    2.3060    5.5850   20.2320 C   0  0  0  0  0  0  0  0  0  0  0  0
    1.9450    8.6270   18.7530 H   0  0  0  0  0  0  0  0  0  0  0  0
    3.7150    7.7250   17.3300 H   0  0  0  0  0  0  0  0  0  0  0  0
    3.6780    4.0610   19.6140 H   0  0  0  0  0  0  0  0  0  0  0  0
    1.9170    4.9710   21.0410 H   0  0  0  0  0  0  0  0  0  0  0  0
    4.9270    5.2770   17.5040 C   0  0  0  0  0  0  0  0  0  0  0  0
    4.7050    5.0260   16.1370 C   0  0  0  0  0  0  0  0  0  0  0  0
    5.7210    4.5130   15.3300 C   0  0  0  0  0  0  0  0  0  0  0  0
    5.4760    4.2870   14.0320 F   0  0  0  0  0  0  0  0  0  0  0  0
    6.9760    4.2330   15.8450 C   0  0  0  0  0  0  0  0  0  0  0  0
    7.2100    4.4730   17.1910 C   0  0  0  0  0  0  0  0  0  0  0  0
    8.4200    4.2060   17.7010 F   0  0  0  0  0  0  0  0  0  0  0  0
    6.2050    4.9860   18.0110 C   0  0  0  0  0  0  0  0  0  0  0  0
    6.4850    5.2080   19.3060 F   0  0  0  0  0  0  0  0  0  0  0  0
    3.7350    5.2170   15.6860 H   0  0  0  0  0  0  0  0  0  0  0  0
    7.7600    3.8350   15.2100 H   0  0  0  0  0  0  0  0  0  0  0  0
    1.0100    9.2930   22.6210 C   0  0  0  0  0  0  0  0  0  0  0  0
    0.1460    9.6060   23.4280 O   0  0  0  0  0  0  0  0  0  0  0  0
    2.3010    9.2170   23.0090 O   0  0  0  0  0  0  0  0  0  0  0  0
    2.4220    8.2700   23.2350 H   0  0  0  0  0  0  0  0  0  0  0  0
  1  2  1  6  0  0  0
  1 45  1  0  0  0  0
  3  4  2  0  0  0  0
  4  5  1  0  0  0  0
  5  1  1  0  0  0  0
  5  6  1  0  0  0  0
  7  4  1  0  0  0  0
  7  9  1  0  0  0  0
  8  7  1  0  0  0  0
 10  7  1  0  0  0  0
 11 17  1  0  0  0  0
 11 10  2  0  0  0  0
 12 11  1  0  0  0  0
 13 12  2  0  0  0  0
 13 14  1  0  0  0  0
 14 15  2  0  0  0  0
 15 10  1  0  0  0  0
 15 16  1  0  0  0  0
 18 12  1  0  0  0  0
 19 13  1  0  0  0  0
 20 14  1  0  0  0  0
 21  1  1  0  0  0  0
 21 23  1  0  0  0  0
 22 21  1  0  0  0  0
 24 29  1  0  0  0  0
 24 21  1  0  0  0  0
 25 24  2  0  0  0  0
 26 27  2  0  0  0  0
 26 25  1  0  0  0  0
 27 28  1  0  0  0  0
 28 32  1  0  0  0  0
 28 29  2  0  0  0  0
 29 33  1  0  0  0  0
 30 25  1  0  0  0  0
 31 26  1  0  0  0  0
 34 41  1  0  0  0  0
 34 27  1  0  0  0  0
 35 34  2  0  0  0  0
 36 38  2  0  0  0  0
 36 35  1  0  0  0  0
 37 36  1  0  0  0  0
 38 39  1  0  0  0  0
 39 40  1  0  0  0  0
 39 41  2  0  0  0  0
 41 42  1  0  0  0  0
 43 35  1  0  0  0  0
 44 38  1  0  0  0  0
 45 47  1  0  0  0  0
 45 46  2  0  0  0  0
 47 48  1  0  0  0  0
M  END
>  <MODEL>
6

>  <REMARK>
 VINA RESULT:    -8.664      4.333      8.958
 INTER + INTRA:         -13.295
 INTER:                 -12.326
 INTRA:                  -0.968
 UNBOUND:                -0.831
  Name = 
  8 active torsions:
  status: ('A' for Active; 'I' for Inactive)
    1  A    between atoms: C_2  and  C_3
    2  A    between atoms: C_3  and  C_4
    3  A    between atoms: N_11  and  CA_12
    4  A    between atoms: CA_12  and  C_13
    5  A    between atoms: CA_12  and  C_29
    6  A    between atoms: C_13  and  C_14
    7  A    between atoms: C_17  and  C_18
    8  A    between atoms: C_29  and  OXT_31
                            x       y       z     vdW  Elec       q    Type
                         _______ _______ _______ _____ _____    ______ ____

>  <TORSDO>
F 8

$$$$
=
 OpenBabel07192307433D

 48 50  0  0  1  0  0  0  0  0999 V2000
    3.4770    5.1130   17.6460 C   0  0  2  0  0  0  0  0  0  0  0  0
    3.0600    5.7770   16.8800 H   0  0  0  0  0  0  0  0  0  0  0  0
    5.1490    6.7780   16.0940 O   0  0  0  0  0  0  0  0  0  0  0  0
    5.5730    5.6840   16.4590 C   0  0  0  0  0  0  0  0  0  0  0  0
    4.8780    4.8490   17.3070 N   0  0  0  0  0  0  0  0  0  0  0  0
    5.1660    3.8750   17.3230 H   0  0  0  0  0  0  0  0  0  0  0  0
    6.9220    5.1490   16.0240 C   0  0  0  0  0  0  0  0  0  0  0  0
    7.1550    4.2580   16.6240 H   0  0  0  0  0  0  0  0  0  0  0  0
    7.7020    5.8800   16.2730 H   0  0  0  0  0  0  0  0  0  0  0  0
    6.9550    4.8110   14.5580 C   0  0  0  0  0  0  0  0  0  0  0  0
    7.7670    5.5330   13.6710 C   0  0  0  0  0  0  0  0  0  0  0  0
    7.8060    5.1960   12.3150 C   0  0  0  0  0  0  0  0  0  0  0  0
    7.0400    4.1320   11.8340 C   0  0  0  0  0  0  0  0  0  0  0  0
    6.2400    3.4000   12.7100 C   0  0  0  0  0  0  0  0  0  0  0  0
    6.2070    3.7410   14.0600 C   0  0  0  0  0  0  0  0  0  0  0  0
    5.4450    3.0140   14.8930 F   0  0  0  0  0  0  0  0  0  0  0  0
    8.3760    6.3600   14.0360 H   0  0  0  0  0  0  0  0  0  0  0  0
    8.4350    5.7650   11.6340 H   0  0  0  0  0  0  0  0  0  0  0  0
    7.0720    3.8710   10.7800 H   0  0  0  0  0  0  0  0  0  0  0  0
    5.6470    2.5660   12.3490 H   0  0  0  0  0  0  0  0  0  0  0  0
    3.3280    5.7890   19.0180 C   0  0  0  0  0  0  0  0  0  0  0  0
    4.3180    5.9640   19.4600 H   0  0  0  0  0  0  0  0  0  0  0  0
    2.8200    5.0970   19.7030 H   0  0  0  0  0  0  0  0  0  0  0  0
    2.5640    7.0940   19.0070 C   0  0  0  0  0  0  0  0  0  0  0  0
    1.9420    7.5680   20.1660 C   0  0  0  0  0  0  0  0  0  0  0  0
    1.2560    8.7880   20.1560 C   0  0  0  0  0  0  0  0  0  0  0  0
    1.1700    9.5660   18.9910 C   0  0  0  0  0  0  0  0  0  0  0  0
    1.7940    9.0750   17.8320 C   0  0  0  0  0  0  0  0  0  0  0  0
    2.4790    7.8570   17.8370 C   0  0  0  0  0  0  0  0  0  0  0  0
    1.9810    6.9950   21.0900 H   0  0  0  0  0  0  0  0  0  0  0  0
    0.7860    9.1270   21.0790 H   0  0  0  0  0  0  0  0  0  0  0  0
    1.7440    9.6360   16.9000 H   0  0  0  0  0  0  0  0  0  0  0  0
    2.9470    7.5100   16.9180 H   0  0  0  0  0  0  0  0  0  0  0  0
    0.4570   10.8570   18.9840 C   0  0  0  0  0  0  0  0  0  0  0  0
    1.1670   12.0720   18.9850 C   0  0  0  0  0  0  0  0  0  0  0  0
    0.4940   13.2940   18.9780 C   0  0  0  0  0  0  0  0  0  0  0  0
    1.2010   14.4320   18.9780 F   0  0  0  0  0  0  0  0  0  0  0  0
   -0.8910   13.3520   18.9710 C   0  0  0  0  0  0  0  0  0  0  0  0
   -1.6040   12.1630   18.9730 C   0  0  0  0  0  0  0  0  0  0  0  0
   -2.9440   12.2060   18.9660 F   0  0  0  0  0  0  0  0  0  0  0  0
   -0.9470   10.9330   18.9800 C   0  0  0  0  0  0  0  0  0  0  0  0
   -1.6840    9.8110   18.9720 F   0  0  0  0  0  0  0  0  0  0  0  0
    2.2540   12.0820   19.0030 H   0  0  0  0  0  0  0  0  0  0  0  0
   -1.4050   14.3060   18.9650 H   0  0  0  0  0  0  0  0  0  0  0  0
    2.6890    3.8050   17.5690 C   0  0  0  0  0  0  0  0  0  0  0  0
    3.1400    2.6710   17.6380 O   0  0  0  0  0  0  0  0  0  0  0  0
    1.3620    3.9950   17.4090 O   0  0  0  0  0  0  0  0  0  0  0  0
    1.1220    4.5970   18.1460 H   0  0  0  0  0  0  0  0  0  0  0  0
  1  2  1  6  0  0  0
  1 21  1  0  0  0  0
  3  4  2  0  0  0  0
  4  5  1  0  0  0  0
  5  6  1  0  0  0  0
  5  1  1  0  0  0  0
  7  9  1  0  0  0  0
  7  4  1  0  0  0  0
  7  8  1  0  0  0  0
 10  7  1  0  0  0  0
 11 17  1  0  0  0  0
 11 10  2  0  0  0  0
 12 11  1  0  0  0  0
 13 12  2  0  0  0  0
 13 14  1  0  0  0  0
 14 15  2  0  0  0  0
 15 10  1  0  0  0  0
 15 16  1  0  0  0  0
 18 12  1  0  0  0  0
 19 13  1  0  0  0  0
 20 14  1  0  0  0  0
 21 22  1  0  0  0  0
 21 23  1  0  0  0  0
 24 21  1  0  0  0  0
 24 25  1  0  0  0  0
 25 30  1  0  0  0  0
 26 25  2  0  0  0  0
 26 31  1  0  0  0  0
 27 26  1  0  0  0  0
 28 29  1  0  0  0  0
 28 27  2  0  0  0  0
 29 24  2  0  0  0  0
 32 28  1  0  0  0  0
 33 29  1  0  0  0  0
 34 35  1  0  0  0  0
 34 27  1  0  0  0  0
 35 43  1  0  0  0  0
 36 37  1  0  0  0  0
 36 35  2  0  0  0  0
 38 39  2  0  0  0  0
 38 36  1  0  0  0  0
 39 41  1  0  0  0  0
 40 39  1  0  0  0  0
 41 34  2  0  0  0  0
 42 41  1  0  0  0  0
 44 38  1  0  0  0  0
 45 46  2  0  0  0  0
 45  1  1  0  0  0  0
 47 45  1  0  0  0  0
 47 48  1  0  0  0  0
M  END
>  <MODEL>
7

>  <REMARK>
 VINA RESULT:    -8.599      2.675      5.219
 INTER + INTRA:         -13.200
 INTER:                 -12.053
 INTRA:                  -1.147
 UNBOUND:                -0.831
  Name = 
  8 active torsions:
  status: ('A' for Active; 'I' for Inactive)
    1  A    between atoms: C_2  and  C_3
    2  A    between atoms: C_3  and  C_4
    3  A    between atoms: N_11  and  CA_12
    4  A    between atoms: CA_12  and  C_13
    5  A    between atoms: CA_12  and  C_29
    6  A    between atoms: C_13  and  C_14
    7  A    between atoms: C_17  and  C_18
    8  A    between atoms: C_29  and  OXT_31
                            x       y       z     vdW  Elec       q    Type
                         _______ _______ _______ _____ _____    ______ ____

>  <TORSDO>
F 8

$$$$
=
 OpenBabel07192307433D

 48 50  0  0  1  0  0  0  0  0999 V2000
    2.5670    4.4540   19.4880 C   0  0  2  0  0  0  0  0  0  0  0  0
    1.6310    4.5580   18.9250 H   0  0  0  0  0  0  0  0  0  0  0  0
    2.6350    3.4010   16.8670 O   0  0  0  0  0  0  0  0  0  0  0  0
    3.6460    3.9310   17.3220 C   0  0  0  0  0  0  0  0  0  0  0  0
    3.6810    4.5690   18.5430 N   0  0  0  0  0  0  0  0  0  0  0  0
    4.5990    4.7200   18.9510 H   0  0  0  0  0  0  0  0  0  0  0  0
    4.9610    3.9530   16.5690 C   0  0  0  0  0  0  0  0  0  0  0  0
    4.7550    4.1750   15.5130 H   0  0  0  0  0  0  0  0  0  0  0  0
    5.4010    2.9480   16.5760 H   0  0  0  0  0  0  0  0  0  0  0  0
    5.9240    4.9610   17.1340 C   0  0  0  0  0  0  0  0  0  0  0  0
    6.8830    4.5860   18.0860 C   0  0  0  0  0  0  0  0  0  0  0  0
    7.7870    5.5270   18.5880 C   0  0  0  0  0  0  0  0  0  0  0  0
    7.7450    6.8480   18.1400 C   0  0  0  0  0  0  0  0  0  0  0  0
    6.8050    7.2280   17.1840 C   0  0  0  0  0  0  0  0  0  0  0  0
    5.9070    6.2860   16.6880 C   0  0  0  0  0  0  0  0  0  0  0  0
    5.0190    6.6640   15.7550 F   0  0  0  0  0  0  0  0  0  0  0  0
    6.9320    3.5550   18.4370 H   0  0  0  0  0  0  0  0  0  0  0  0
    8.5240    5.2270   19.3300 H   0  0  0  0  0  0  0  0  0  0  0  0
    8.4490    7.5780   18.5300 H   0  0  0  0  0  0  0  0  0  0  0  0
    6.7680    8.2510   16.8230 H   0  0  0  0  0  0  0  0  0  0  0  0
    2.6110    5.5400   20.5740 C   0  0  0  0  0  0  0  0  0  0  0  0
    3.6430    5.6830   20.9210 H   0  0  0  0  0  0  0  0  0  0  0  0
    2.0520    5.1890   21.4520 H   0  0  0  0  0  0  0  0  0  0  0  0
    2.0490    6.8820   20.1580 C   0  0  0  0  0  0  0  0  0  0  0  0
    2.2980    7.3970   18.8820 C   0  0  0  0  0  0  0  0  0  0  0  0
    1.7570    8.6280   18.4950 C   0  0  0  0  0  0  0  0  0  0  0  0
    0.9550    9.3790   19.3690 C   0  0  0  0  0  0  0  0  0  0  0  0
    0.7180    8.8530   20.6510 C   0  0  0  0  0  0  0  0  0  0  0  0
    1.2570    7.6240   21.0420 C   0  0  0  0  0  0  0  0  0  0  0  0
    2.9170    6.8500   18.1750 H   0  0  0  0  0  0  0  0  0  0  0  0
    1.9690    8.9960   17.4920 H   0  0  0  0  0  0  0  0  0  0  0  0
    0.1130    9.4040   21.3690 H   0  0  0  0  0  0  0  0  0  0  0  0
    1.0520    7.2530   22.0440 H   0  0  0  0  0  0  0  0  0  0  0  0
    0.3750   10.6710   18.9570 C   0  0  0  0  0  0  0  0  0  0  0  0
   -0.9760   10.7630   18.5730 C   0  0  0  0  0  0  0  0  0  0  0  0
   -1.5270   11.9850   18.1820 C   0  0  0  0  0  0  0  0  0  0  0  0
   -2.8160   12.0380   17.8240 F   0  0  0  0  0  0  0  0  0  0  0  0
   -0.7640   13.1420   18.1590 C   0  0  0  0  0  0  0  0  0  0  0  0
    0.5690   13.0660   18.5320 C   0  0  0  0  0  0  0  0  0  0  0  0
    1.3170   14.1780   18.5130 F   0  0  0  0  0  0  0  0  0  0  0  0
    1.1350   11.8520   18.9250 C   0  0  0  0  0  0  0  0  0  0  0  0
    2.4280   11.8340   19.2850 F   0  0  0  0  0  0  0  0  0  0  0  0
   -1.6140    9.8830   18.5620 H   0  0  0  0  0  0  0  0  0  0  0  0
   -1.2010   14.0860   17.8550 H   0  0  0  0  0  0  0  0  0  0  0  0
    2.5630    3.0490   20.0900 C   0  0  0  0  0  0  0  0  0  0  0  0
    3.3250    2.6130   20.9410 O   0  0  0  0  0  0  0  0  0  0  0  0
    1.5910    2.2590   19.5850 O   0  0  0  0  0  0  0  0  0  0  0  0
    0.8410    2.3870   20.2050 H   0  0  0  0  0  0  0  0  0  0  0  0
  1  2  1  6  0  0  0
  1 45  1  0  0  0  0
  1 21  1  0  0  0  0
  3  4  2  0  0  0  0
  4  5  1  0  0  0  0
  5  6  1  0  0  0  0
  5  1  1  0  0  0  0
  7  9  1  0  0  0  0
  7 10  1  0  0  0  0
  7  4  1  0  0  0  0
  8  7  1  0  0  0  0
 10 11  1  0  0  0  0
 11 17  1  0  0  0  0
 11 12  2  0  0  0  0
 12 18  1  0  0  0  0
 13 19  1  0  0  0  0
 13 12  1  0  0  0  0
 14 13  2  0  0  0  0
 15 10  2  0  0  0  0
 15 14  1  0  0  0  0
 16 15  1  0  0  0  0
 20 14  1  0  0  0  0
 21 22  1  0  0  0  0
 21 23  1  0  0  0  0
 24 21  1  0  0  0  0
 24 29  1  0  0  0  0
 25 24  2  0  0  0  0
 26 25  1  0  0  0  0
 26 27  2  0  0  0  0
 27 28  1  0  0  0  0
 28 29  2  0  0  0  0
 28 32  1  0  0  0  0
 29 33  1  0  0  0  0
 30 25  1  0  0  0  0
 31 26  1  0  0  0  0
 34 27  1  0  0  0  0
 35 34  2  0  0  0  0
 36 35  1  0  0  0  0
 37 36  1  0  0  0  0
 38 36  2  0  0  0  0
 38 39  1  0  0  0  0
 39 41  2  0  0  0  0
 40 39  1  0  0  0  0
 41 34  1  0  0  0  0
 41 42  1  0  0  0  0
 43 35  1  0  0  0  0
 44 38  1  0  0  0  0
 45 46  2  0  0  0  0
 47 45  1  0  0  0  0
 47 48  1  0  0  0  0
M  END
>  <MODEL>
8

>  <REMARK>
 VINA RESULT:    -8.510      2.591      4.812
 INTER + INTRA:         -13.072
 INTER:                 -12.110
 INTRA:                  -0.962
 UNBOUND:                -0.831
  Name = 
  8 active torsions:
  status: ('A' for Active; 'I' for Inactive)
    1  A    between atoms: C_2  and  C_3
    2  A    between atoms: C_3  and  C_4
    3  A    between atoms: N_11  and  CA_12
    4  A    between atoms: CA_12  and  C_13
    5  A    between atoms: CA_12  and  C_29
    6  A    between atoms: C_13  and  C_14
    7  A    between atoms: C_17  and  C_18
    8  A    between atoms: C_29  and  OXT_31
                            x       y       z     vdW  Elec       q    Type
                         _______ _______ _______ _____ _____    ______ ____

>  <TORSDO>
F 8

$$$$
=
 OpenBabel07192307433D

 48 50  0  0  1  0  0  0  0  0999 V2000
    4.4180    6.7580   17.7550 C   0  0  2  0  0  0  0  0  0  0  0  0
    4.7540    7.3360   18.6250 H   0  0  0  0  0  0  0  0  0  0  0  0
    5.9670    5.2610   19.5830 O   0  0  0  0  0  0  0  0  0  0  0  0
    5.0200    4.7170   19.0200 C   0  0  0  0  0  0  0  0  0  0  0  0
    4.1420    5.3890   18.1980 N   0  0  0  0  0  0  0  0  0  0  0  0
    3.5820    4.8210   17.5690 H   0  0  0  0  0  0  0  0  0  0  0  0
    4.7110    3.2430   19.1910 C   0  0  0  0  0  0  0  0  0  0  0  0
    5.3270    2.8500   20.0110 H   0  0  0  0  0  0  0  0  0  0  0  0
    5.0330    2.6970   18.2960 H   0  0  0  0  0  0  0  0  0  0  0  0
    3.2530    2.9960   19.4710 C   0  0  0  0  0  0  0  0  0  0  0  0
    2.6810    3.3740   20.6950 C   0  0  0  0  0  0  0  0  0  0  0  0
    1.3210    3.1590   20.9350 C   0  0  0  0  0  0  0  0  0  0  0  0
    0.5190    2.5710   19.9550 C   0  0  0  0  0  0  0  0  0  0  0  0
    1.0760    2.2040   18.7310 C   0  0  0  0  0  0  0  0  0  0  0  0
    2.4320    2.4220   18.4970 C   0  0  0  0  0  0  0  0  0  0  0  0
    2.9470    2.0790   17.3060 F   0  0  0  0  0  0  0  0  0  0  0  0
    3.2940    3.8420   21.4640 H   0  0  0  0  0  0  0  0  0  0  0  0
    0.8870    3.4510   21.8890 H   0  0  0  0  0  0  0  0  0  0  0  0
   -0.5380    2.4060   20.1430 H   0  0  0  0  0  0  0  0  0  0  0  0
    0.4610    1.7540   17.9580 H   0  0  0  0  0  0  0  0  0  0  0  0
    3.1750    7.4400   17.1620 C   0  0  0  0  0  0  0  0  0  0  0  0
    2.4870    6.6830   16.7620 H   0  0  0  0  0  0  0  0  0  0  0  0
    3.4790    8.0470   16.2980 H   0  0  0  0  0  0  0  0  0  0  0  0
    2.4140    8.3280   18.1230 C   0  0  0  0  0  0  0  0  0  0  0  0
    2.0910    7.8790   19.4070 C   0  0  0  0  0  0  0  0  0  0  0  0
    1.4070    8.7120   20.2990 C   0  0  0  0  0  0  0  0  0  0  0  0
    1.0260   10.0130   19.9350 C   0  0  0  0  0  0  0  0  0  0  0  0
    1.3520   10.4490   18.6400 C   0  0  0  0  0  0  0  0  0  0  0  0
    2.0330    9.6200   17.7450 C   0  0  0  0  0  0  0  0  0  0  0  0
    2.3650    6.8760   19.7290 H   0  0  0  0  0  0  0  0  0  0  0  0
    1.1760    8.3300   21.2930 H   0  0  0  0  0  0  0  0  0  0  0  0
    1.0660   11.4450   18.3060 H   0  0  0  0  0  0  0  0  0  0  0  0
    2.2640    9.9940   16.7490 H   0  0  0  0  0  0  0  0  0  0  0  0
    0.3160   10.8960   20.8810 C   0  0  0  0  0  0  0  0  0  0  0  0
    0.4840   12.2920   20.8260 C   0  0  0  0  0  0  0  0  0  0  0  0
   -0.1870   13.1280   21.7190 C   0  0  0  0  0  0  0  0  0  0  0  0
   -0.0060   14.4530   21.6390 F   0  0  0  0  0  0  0  0  0  0  0  0
   -1.0360   12.6130   22.6860 C   0  0  0  0  0  0  0  0  0  0  0  0
   -1.2090   11.2390   22.7530 C   0  0  0  0  0  0  0  0  0  0  0  0
   -2.0280   10.7290   23.6840 F   0  0  0  0  0  0  0  0  0  0  0  0
   -0.5460   10.3890   21.8680 C   0  0  0  0  0  0  0  0  0  0  0  0
   -0.7550    9.0670   21.9700 F   0  0  0  0  0  0  0  0  0  0  0  0
    1.1480   12.7450   20.0950 H   0  0  0  0  0  0  0  0  0  0  0  0
   -1.5540   13.2710   23.3750 H   0  0  0  0  0  0  0  0  0  0  0  0
    5.5820    6.7390   16.7640 C   0  0  0  0  0  0  0  0  0  0  0  0
    6.7470    7.0290   16.9940 O   0  0  0  0  0  0  0  0  0  0  0  0
    5.2140    6.3530   15.5230 O   0  0  0  0  0  0  0  0  0  0  0  0
    4.3330    5.9430   15.6580 H   0  0  0  0  0  0  0  0  0  0  0  0
  1  5  1  0  0  0  0
  1  2  1  1  0  0  0
  4  7  1  0  0  0  0
  4  3  2  0  0  0  0
  5  4  1  0  0  0  0
  6  5  1  0  0  0  0
  7 10  1  0  0  0  0
  7  8  1  0  0  0  0
  9  7  1  0  0  0  0
 10 11  1  0  0  0  0
 11 12  2  0  0  0  0
 11 17  1  0  0  0  0
 12 18  1  0  0  0  0
 13 19  1  0  0  0  0
 13 12  1  0  0  0  0
 14 13  2  0  0  0  0
 15 14  1  0  0  0  0
 15 10  2  0  0  0  0
 16 15  1  0  0  0  0
 20 14  1  0  0  0  0
 21  1  1  0  0  0  0
 21 24  1  0  0  0  0
 22 21  1  0  0  0  0
 23 21  1  0  0  0  0
 24 25  1  0  0  0  0
 25 30  1  0  0  0  0
 25 26  2  0  0  0  0
 26 31  1  0  0  0  0
 27 26  1  0  0  0  0
 27 34  1  0  0  0  0
 28 27  2  0  0  0  0
 29 24  2  0  0  0  0
 29 28  1  0  0  0  0
 32 28  1  0  0  0  0
 33 29  1  0  0  0  0
 34 41  1  0  0  0  0
 35 34  2  0  0  0  0
 35 36  1  0  0  0  0
 36 38  2  0  0  0  0
 37 36  1  0  0  0  0
 38 39  1  0  0  0  0
 38 44  1  0  0  0  0
 39 40  1  0  0  0  0
 41 42  1  0  0  0  0
 41 39  2  0  0  0  0
 43 35  1  0  0  0  0
 45 46  2  0  0  0  0
 45  1  1  0  0  0  0
 47 48  1  0  0  0  0
 47 45  1  0  0  0  0
M  END
>  <MODEL>
9

>  <REMARK>
 VINA RESULT:    -8.289      1.824      2.793
 INTER + INTRA:         -12.755
 INTER:                 -12.082
 INTRA:                  -0.673
 UNBOUND:                -0.831
  Name = 
  8 active torsions:
  status: ('A' for Active; 'I' for Inactive)
    1  A    between atoms: C_2  and  C_3
    2  A    between atoms: C_3  and  C_4
    3  A    between atoms: N_11  and  CA_12
    4  A    between atoms: CA_12  and  C_13
    5  A    between atoms: CA_12  and  C_29
    6  A    between atoms: C_13  and  C_14
    7  A    between atoms: C_17  and  C_18
    8  A    between atoms: C_29  and  OXT_31
                            x       y       z     vdW  Elec       q    Type
                         _______ _______ _______ _____ _____    ______ ____

>  <TORSDO>
F 8

$$$$
=
 OpenBabel07192307433D

 48 50  0  0  1  0  0  0  0  0999 V2000
   -0.8090   11.1980   19.4280 C   0  0  2  0  0  0  0  0  0  0  0  0
   -1.1220   10.2150   19.8020 H   0  0  0  0  0  0  0  0  0  0  0  0
   -0.7640   10.4730   22.1570 O   0  0  0  0  0  0  0  0  0  0  0  0
   -0.8430   11.6620   21.8580 C   0  0  0  0  0  0  0  0  0  0  0  0
   -0.7620   12.1230   20.5630 N   0  0  0  0  0  0  0  0  0  0  0  0
   -1.1150   13.0600   20.3900 H   0  0  0  0  0  0  0  0  0  0  0  0
   -1.0190   12.7510   22.8980 C   0  0  0  0  0  0  0  0  0  0  0  0
   -0.4460   13.6330   22.5800 H   0  0  0  0  0  0  0  0  0  0  0  0
   -0.5610   12.4310   23.8420 H   0  0  0  0  0  0  0  0  0  0  0  0
   -2.4640   13.1150   23.1020 C   0  0  0  0  0  0  0  0  0  0  0  0
   -3.3250   12.2710   23.8180 C   0  0  0  0  0  0  0  0  0  0  0  0
   -4.6610   12.6310   24.0200 C   0  0  0  0  0  0  0  0  0  0  0  0
   -5.1470   13.8380   23.5130 C   0  0  0  0  0  0  0  0  0  0  0  0
   -4.2960   14.6890   22.8110 C   0  0  0  0  0  0  0  0  0  0  0  0
   -2.9660   14.3260   22.6150 C   0  0  0  0  0  0  0  0  0  0  0  0
   -2.1550   15.1660   21.9520 F   0  0  0  0  0  0  0  0  0  0  0  0
   -2.9560   11.3310   24.2260 H   0  0  0  0  0  0  0  0  0  0  0  0
   -5.3220   11.9670   24.5730 H   0  0  0  0  0  0  0  0  0  0  0  0
   -6.1850   14.1160   23.6720 H   0  0  0  0  0  0  0  0  0  0  0  0
   -4.6610   15.6340   22.4200 H   0  0  0  0  0  0  0  0  0  0  0  0
    0.5570   11.0500   18.7400 C   0  0  0  0  0  0  0  0  0  0  0  0
    1.2490   11.8180   19.1110 H   0  0  0  0  0  0  0  0  0  0  0  0
    0.4410   11.2540   17.6670 H   0  0  0  0  0  0  0  0  0  0  0  0
    1.2080    9.6930   18.8980 C   0  0  0  0  0  0  0  0  0  0  0  0
    1.2400    9.0560   20.1420 C   0  0  0  0  0  0  0  0  0  0  0  0
    1.8230    7.7910   20.2770 C   0  0  0  0  0  0  0  0  0  0  0  0
    2.3910    7.1290   19.1780 C   0  0  0  0  0  0  0  0  0  0  0  0
    2.3570    7.7830   17.9340 C   0  0  0  0  0  0  0  0  0  0  0  0
    1.7770    9.0470   17.7950 C   0  0  0  0  0  0  0  0  0  0  0  0
    0.8150    9.5360   21.0210 H   0  0  0  0  0  0  0  0  0  0  0  0
    1.8270    7.3240   21.2620 H   0  0  0  0  0  0  0  0  0  0  0  0
    2.7960    7.3160   17.0540 H   0  0  0  0  0  0  0  0  0  0  0  0
    1.7740    9.5210   16.8150 H   0  0  0  0  0  0  0  0  0  0  0  0
    2.9940    5.7900   19.3180 C   0  0  0  0  0  0  0  0  0  0  0  0
    4.2990    5.5370   18.8560 C   0  0  0  0  0  0  0  0  0  0  0  0
    4.8710    4.2710   18.9890 C   0  0  0  0  0  0  0  0  0  0  0  0
    6.1160    4.0640   18.5400 F   0  0  0  0  0  0  0  0  0  0  0  0
    4.1770    3.2260   19.5770 C   0  0  0  0  0  0  0  0  0  0  0  0
    2.8890    3.4600   20.0350 C   0  0  0  0  0  0  0  0  0  0  0  0
    2.2060    2.4570   20.6050 F   0  0  0  0  0  0  0  0  0  0  0  0
    2.3020    4.7200   19.9100 C   0  0  0  0  0  0  0  0  0  0  0  0
    1.0560    4.8960   20.3770 F   0  0  0  0  0  0  0  0  0  0  0  0
    4.8820    6.3180   18.3770 H   0  0  0  0  0  0  0  0  0  0  0  0
    4.6300    2.2470   19.6770 H   0  0  0  0  0  0  0  0  0  0  0  0
   -1.8890   11.6590   18.4490 C   0  0  0  0  0  0  0  0  0  0  0  0
   -3.0900   11.4420   18.5250 O   0  0  0  0  0  0  0  0  0  0  0  0
   -1.3970   12.3780   17.4170 O   0  0  0  0  0  0  0  0  0  0  0  0
   -0.8610   11.7280   16.9150 H   0  0  0  0  0  0  0  0  0  0  0  0
  1  2  1  1  0  0  0
  1  5  1  0  0  0  0
  4  3  2  0  0  0  0
  4  7  1  0  0  0  0
  5  4  1  0  0  0  0
  6  5  1  0  0  0  0
  7 10  1  0  0  0  0
  7  9  1  0  0  0  0
  8  7  1  0  0  0  0
 10 11  1  0  0  0  0
 11 12  2  0  0  0  0
 11 17  1  0  0  0  0
 12 18  1  0  0  0  0
 13 19  1  0  0  0  0
 13 12  1  0  0  0  0
 14 13  2  0  0  0  0
 15 14  1  0  0  0  0
 15 10  2  0  0  0  0
 16 15  1  0  0  0  0
 20 14  1  0  0  0  0
 21 24  1  0  0  0  0
 21 22  1  0  0  0  0
 21  1  1  0  0  0  0
 23 21  1  0  0  0  0
 24 25  1  0  0  0  0
 25 26  2  0  0  0  0
 25 30  1  0  0  0  0
 26 31  1  0  0  0  0
 27 34  1  0  0  0  0
 27 26  1  0  0  0  0
 28 27  2  0  0  0  0
 29 28  1  0  0  0  0
 29 24  2  0  0  0  0
 32 28  1  0  0  0  0
 33 29  1  0  0  0  0
 34 41  1  0  0  0  0
 35 36  1  0  0  0  0
 35 34  2  0  0  0  0
 36 38  2  0  0  0  0
 37 36  1  0  0  0  0
 38 44  1  0  0  0  0
 38 39  1  0  0  0  0
 39 40  1  0  0  0  0
 41 39  2  0  0  0  0
 41 42  1  0  0  0  0
 43 35  1  0  0  0  0
 45 46  2  0  0  0  0
 45  1  1  0  0  0  0
 47 45  1  0  0  0  0
 48 47  1  0  0  0  0
M  END
>  <MODEL>
10

>  <REMARK>
 VINA RESULT:    -8.214      4.727      9.470
 INTER + INTRA:         -12.647
 INTER:                 -11.714
 INTRA:                  -0.933
 UNBOUND:                -0.831
  Name = 
  8 active torsions:
  status: ('A' for Active; 'I' for Inactive)
    1  A    between atoms: C_2  and  C_3
    2  A    between atoms: C_3  and  C_4
    3  A    between atoms: N_11  and  CA_12
    4  A    between atoms: CA_12  and  C_13
    5  A    between atoms: CA_12  and  C_29
    6  A    between atoms: C_13  and  C_14
    7  A    between atoms: C_17  and  C_18
    8  A    between atoms: C_29  and  OXT_31
                            x       y       z     vdW  Elec       q    Type
                         _______ _______ _______ _____ _____    ______ ____

>  <TORSDO>
F 8

$$$$
=
 OpenBabel07192307433D

 48 50  0  0  1  0  0  0  0  0999 V2000
    1.9940    4.4680   19.9960 C   0  0  2  0  0  0  0  0  0  0  0  0
    1.2250    4.7950   19.2860 H   0  0  0  0  0  0  0  0  0  0  0  0
    2.0770    4.1240   17.1930 O   0  0  0  0  0  0  0  0  0  0  0  0
    3.0070    3.6960   17.8730 C   0  0  0  0  0  0  0  0  0  0  0  0
    3.1120    3.9100   19.2300 N   0  0  0  0  0  0  0  0  0  0  0  0
    3.7410    3.2960   19.7400 H   0  0  0  0  0  0  0  0  0  0  0  0
    4.1510    2.9010   17.2760 C   0  0  0  0  0  0  0  0  0  0  0  0
    3.7390    2.1920   16.5450 H   0  0  0  0  0  0  0  0  0  0  0  0
    4.6100    2.2820   18.0570 H   0  0  0  0  0  0  0  0  0  0  0  0
    5.1780    3.7850   16.6220 C   0  0  0  0  0  0  0  0  0  0  0  0
    5.1590    4.0060   15.2370 C   0  0  0  0  0  0  0  0  0  0  0  0
    6.1050    4.8470   14.6430 C   0  0  0  0  0  0  0  0  0  0  0  0
    7.0740    5.4770   15.4260 C   0  0  0  0  0  0  0  0  0  0  0  0
    7.0930    5.2740   16.8050 C   0  0  0  0  0  0  0  0  0  0  0  0
    6.1460    4.4360   17.3910 C   0  0  0  0  0  0  0  0  0  0  0  0
    6.1680    4.2650   18.7220 F   0  0  0  0  0  0  0  0  0  0  0  0
    4.4030    3.5280   14.6160 H   0  0  0  0  0  0  0  0  0  0  0  0
    6.0860    5.0090   13.5670 H   0  0  0  0  0  0  0  0  0  0  0  0
    7.8080    6.1310   14.9630 H   0  0  0  0  0  0  0  0  0  0  0  0
    7.8360    5.7650   17.4250 H   0  0  0  0  0  0  0  0  0  0  0  0
    2.4190    5.6720   20.8510 C   0  0  0  0  0  0  0  0  0  0  0  0
    3.5140    5.7270   20.9040 H   0  0  0  0  0  0  0  0  0  0  0  0
    2.0820    5.5110   21.8850 H   0  0  0  0  0  0  0  0  0  0  0  0
    1.8870    7.0080   20.3810 C   0  0  0  0  0  0  0  0  0  0  0  0
    2.2020    7.4940   19.1080 C   0  0  0  0  0  0  0  0  0  0  0  0
    1.6900    8.7200   18.6690 C   0  0  0  0  0  0  0  0  0  0  0  0
    0.8530    9.4950   19.4870 C   0  0  0  0  0  0  0  0  0  0  0  0
    0.5490    8.9980   20.7660 C   0  0  0  0  0  0  0  0  0  0  0  0
    1.0600    7.7740   21.2090 C   0  0  0  0  0  0  0  0  0  0  0  0
    2.8510    6.9280   18.4430 H   0  0  0  0  0  0  0  0  0  0  0  0
    1.9540    9.0650   17.6700 H   0  0  0  0  0  0  0  0  0  0  0  0
   -0.0850    9.5680   21.4430 H   0  0  0  0  0  0  0  0  0  0  0  0
    0.8040    7.4250   22.2070 H   0  0  0  0  0  0  0  0  0  0  0  0
    0.3030   10.7820   19.0200 C   0  0  0  0  0  0  0  0  0  0  0  0
   -1.0170   10.8690   18.5400 C   0  0  0  0  0  0  0  0  0  0  0  0
   -1.5390   12.0850   18.0980 C   0  0  0  0  0  0  0  0  0  0  0  0
   -2.8000   12.1330   17.6490 F   0  0  0  0  0  0  0  0  0  0  0  0
   -0.7770   13.2420   18.1150 C   0  0  0  0  0  0  0  0  0  0  0  0
    0.5270   13.1710   18.5820 C   0  0  0  0  0  0  0  0  0  0  0  0
    1.2740   14.2840   18.6040 F   0  0  0  0  0  0  0  0  0  0  0  0
    1.0630   11.9630   19.0280 C   0  0  0  0  0  0  0  0  0  0  0  0
    2.3280   11.9500   19.4790 F   0  0  0  0  0  0  0  0  0  0  0  0
   -1.6530    9.9880   18.4940 H   0  0  0  0  0  0  0  0  0  0  0  0
   -1.1910   14.1830   17.7700 H   0  0  0  0  0  0  0  0  0  0  0  0
    1.3670    3.3620   20.8440 C   0  0  0  0  0  0  0  0  0  0  0  0
    1.7610    2.9550   21.9280 O   0  0  0  0  0  0  0  0  0  0  0  0
    0.2660    2.8210   20.2800 O   0  0  0  0  0  0  0  0  0  0  0  0
    0.6190    2.0830   19.7390 H   0  0  0  0  0  0  0  0  0  0  0  0
  1  2  1  6  0  0  0
  1 45  1  0  0  0  0
  1 21  1  0  0  0  0
  3  4  2  0  0  0  0
  4  5  1  0  0  0  0
  5  6  1  0  0  0  0
  5  1  1  0  0  0  0
  7  4  1  0  0  0  0
  7  9  1  0  0  0  0
  8  7  1  0  0  0  0
 10  7  1  0  0  0  0
 10 15  1  0  0  0  0
 11 10  2  0  0  0  0
 12 11  1  0  0  0  0
 12 13  2  0  0  0  0
 13 14  1  0  0  0  0
 14 15  2  0  0  0  0
 14 20  1  0  0  0  0
 15 16  1  0  0  0  0
 17 11  1  0  0  0  0
 18 12  1  0  0  0  0
 19 13  1  0  0  0  0
 21 22  1  0  0  0  0
 21 23  1  0  0  0  0
 24 21  1  0  0  0  0
 24 29  1  0  0  0  0
 25 24  2  0  0  0  0
 26 25  1  0  0  0  0
 26 27  2  0  0  0  0
 27 28  1  0  0  0  0
 28 29  2  0  0  0  0
 28 32  1  0  0  0  0
 29 33  1  0  0  0  0
 30 25  1  0  0  0  0
 31 26  1  0  0  0  0
 34 41  1  0  0  0  0
 34 27  1  0  0  0  0
 35 34  2  0  0  0  0
 36 38  2  0  0  0  0
 36 35  1  0  0  0  0
 37 36  1  0  0  0  0
 38 39  1  0  0  0  0
 39 40  1  0  0  0  0
 39 41  2  0  0  0  0
 41 42  1  0  0  0  0
 43 35  1  0  0  0  0
 44 38  1  0  0  0  0
 45 46  2  0  0  0  0
 47 45  1  0  0  0  0
 48 47  1  0  0  0  0
M  END
>  <MODEL>
11

>  <REMARK>
 VINA RESULT:    -8.200      2.582      4.905
 INTER + INTRA:         -12.626
 INTER:                 -11.386
 INTRA:                  -1.241
 UNBOUND:                -0.831
  Name = 
  8 active torsions:
  status: ('A' for Active; 'I' for Inactive)
    1  A    between atoms: C_2  and  C_3
    2  A    between atoms: C_3  and  C_4
    3  A    between atoms: N_11  and  CA_12
    4  A    between atoms: CA_12  and  C_13
    5  A    between atoms: CA_12  and  C_29
    6  A    between atoms: C_13  and  C_14
    7  A    between atoms: C_17  and  C_18
    8  A    between atoms: C_29  and  OXT_31
                            x       y       z     vdW  Elec       q    Type
                         _______ _______ _______ _____ _____    ______ ____

>  <TORSDO>
F 8

$$$$
=
 OpenBabel07192307433D

 48 50  0  0  1  0  0  0  0  0999 V2000
    0.1540    9.6750   21.6450 C   0  0  2  0  0  0  0  0  0  0  0  0
    1.2020    9.9970   21.6810 H   0  0  0  0  0  0  0  0  0  0  0  0
    1.2140   11.9230   20.3030 O   0  0  0  0  0  0  0  0  0  0  0  0
    0.0460   11.6040   20.0970 C   0  0  0  0  0  0  0  0  0  0  0  0
   -0.5290   10.4650   20.6170 N   0  0  0  0  0  0  0  0  0  0  0  0
   -1.5440   10.4330   20.6300 H   0  0  0  0  0  0  0  0  0  0  0  0
   -0.8810   12.4290   19.2270 C   0  0  0  0  0  0  0  0  0  0  0  0
   -0.2700   13.0520   18.5590 H   0  0  0  0  0  0  0  0  0  0  0  0
   -1.4390   13.1340   19.8550 H   0  0  0  0  0  0  0  0  0  0  0  0
   -1.8200   11.5710   18.4220 C   0  0  0  0  0  0  0  0  0  0  0  0
   -1.3290   10.6300   17.5060 C   0  0  0  0  0  0  0  0  0  0  0  0
   -2.2100    9.8240   16.7800 C   0  0  0  0  0  0  0  0  0  0  0  0
   -3.5880    9.9460   16.9670 C   0  0  0  0  0  0  0  0  0  0  0  0
   -4.0860   10.8690   17.8850 C   0  0  0  0  0  0  0  0  0  0  0  0
   -3.2020   11.6690   18.6050 C   0  0  0  0  0  0  0  0  0  0  0  0
   -3.6970   12.5400   19.4980 F   0  0  0  0  0  0  0  0  0  0  0  0
   -0.2550   10.5190   17.3570 H   0  0  0  0  0  0  0  0  0  0  0  0
   -1.8200    9.1000   16.0680 H   0  0  0  0  0  0  0  0  0  0  0  0
   -4.2720    9.3180   16.4030 H   0  0  0  0  0  0  0  0  0  0  0  0
   -5.1550   10.9670   18.0440 H   0  0  0  0  0  0  0  0  0  0  0  0
    0.1120    8.1690   21.3450 C   0  0  0  0  0  0  0  0  0  0  0  0
   -0.8510    7.9030   20.8890 H   0  0  0  0  0  0  0  0  0  0  0  0
    0.1490    7.6150   22.2930 H   0  0  0  0  0  0  0  0  0  0  0  0
    1.2260    7.6630   20.4550 C   0  0  0  0  0  0  0  0  0  0  0  0
    1.8720    6.4550   20.7350 C   0  0  0  0  0  0  0  0  0  0  0  0
    2.8870    5.9810   19.8960 C   0  0  0  0  0  0  0  0  0  0  0  0
    3.2850    6.6980   18.7570 C   0  0  0  0  0  0  0  0  0  0  0  0
    2.6320    7.9140   18.4910 C   0  0  0  0  0  0  0  0  0  0  0  0
    1.6190    8.3920   19.3270 C   0  0  0  0  0  0  0  0  0  0  0  0
    1.5970    5.8690   21.6090 H   0  0  0  0  0  0  0  0  0  0  0  0
    3.3650    5.0340   20.1440 H   0  0  0  0  0  0  0  0  0  0  0  0
    2.9150    8.5140   17.6270 H   0  0  0  0  0  0  0  0  0  0  0  0
    1.1400    9.3390   19.0880 H   0  0  0  0  0  0  0  0  0  0  0  0
    4.3460    6.1920   17.8660 C   0  0  0  0  0  0  0  0  0  0  0  0
    5.5890    6.8480   17.7820 C   0  0  0  0  0  0  0  0  0  0  0  0
    6.5940    6.3700   16.9400 C   0  0  0  0  0  0  0  0  0  0  0  0
    7.7650    7.0170   16.8840 F   0  0  0  0  0  0  0  0  0  0  0  0
    6.4020    5.2400   16.1610 C   0  0  0  0  0  0  0  0  0  0  0  0
    5.1820    4.5850   16.2320 C   0  0  0  0  0  0  0  0  0  0  0  0
    4.9840    3.4900   15.4840 F   0  0  0  0  0  0  0  0  0  0  0  0
    4.1670    5.0490   17.0690 C   0  0  0  0  0  0  0  0  0  0  0  0
    3.0070    4.3730   17.1070 F   0  0  0  0  0  0  0  0  0  0  0  0
    5.7860    7.7450   18.3620 H   0  0  0  0  0  0  0  0  0  0  0  0
    7.1890    4.8750   15.5110 H   0  0  0  0  0  0  0  0  0  0  0  0
   -0.4520    9.9990   23.0100 C   0  0  0  0  0  0  0  0  0  0  0  0
   -1.3630   10.7820   23.2420 O   0  0  0  0  0  0  0  0  0  0  0  0
    0.1240    9.3150   24.0220 O   0  0  0  0  0  0  0  0  0  0  0  0
    1.0850    9.3960   23.8410 H   0  0  0  0  0  0  0  0  0  0  0  0
  1  2  1  1  0  0  0
  1 45  1  0  0  0  0
  4  3  2  0  0  0  0
  4  5  1  0  0  0  0
  5  6  1  0  0  0  0
  5  1  1  0  0  0  0
  7  9  1  0  0  0  0
  7  4  1  0  0  0  0
  8  7  1  0  0  0  0
 10 15  1  0  0  0  0
 10  7  1  0  0  0  0
 11 10  2  0  0  0  0
 12 13  2  0  0  0  0
 12 11  1  0  0  0  0
 13 14  1  0  0  0  0
 14 20  1  0  0  0  0
 14 15  2  0  0  0  0
 15 16  1  0  0  0  0
 17 11  1  0  0  0  0
 18 12  1  0  0  0  0
 19 13  1  0  0  0  0
 21  1  1  0  0  0  0
 21 23  1  0  0  0  0
 22 21  1  0  0  0  0
 24 25  1  0  0  0  0
 24 21  1  0  0  0  0
 25 30  1  0  0  0  0
 26 31  1  0  0  0  0
 26 25  2  0  0  0  0
 27 26  1  0  0  0  0
 28 27  2  0  0  0  0
 28 29  1  0  0  0  0
 29 24  2  0  0  0  0
 32 28  1  0  0  0  0
 33 29  1  0  0  0  0
 34 27  1  0  0  0  0
 35 34  1  0  0  0  0
 35 43  1  0  0  0  0
 36 35  2  0  0  0  0
 37 36  1  0  0  0  0
 38 39  2  0  0  0  0
 38 36  1  0  0  0  0
 39 41  1  0  0  0  0
 40 39  1  0  0  0  0
 41 42  1  0  0  0  0
 41 34  2  0  0  0  0
 44 38  1  0  0  0  0
 45 46  2  0  0  0  0
 45 47  1  0  0  0  0
 48 47  1  0  0  0  0
M  END
>  <MODEL>
12

>  <REMARK>
 VINA RESULT:    -8.169      4.588      8.814
 INTER + INTRA:         -12.582
 INTER:                 -11.540
 INTRA:                  -1.042
 UNBOUND:                -0.831
  Name = 
  8 active torsions:
  status: ('A' for Active; 'I' for Inactive)
    1  A    between atoms: C_2  and  C_3
    2  A    between atoms: C_3  and  C_4
    3  A    between atoms: N_11  and  CA_12
    4  A    between atoms: CA_12  and  C_13
    5  A    between atoms: CA_12  and  C_29
    6  A    between atoms: C_13  and  C_14
    7  A    between atoms: C_17  and  C_18
    8  A    between atoms: C_29  and  OXT_31
                            x       y       z     vdW  Elec       q    Type
                         _______ _______ _______ _____ _____    ______ ____

>  <TORSDO>
F 8

$$$$
=
 OpenBabel07192307433D

 48 50  0  0  1  0  0  0  0  0999 V2000
    0.4910   12.0940   19.3480 C   0  0  2  0  0  0  0  0  0  0  0  0
    1.1620   11.9440   18.4930 H   0  0  0  0  0  0  0  0  0  0  0  0
   -1.8680   11.9650   20.8950 O   0  0  0  0  0  0  0  0  0  0  0  0
   -1.9620   12.0250   19.6720 C   0  0  0  0  0  0  0  0  0  0  0  0
   -0.8790   12.1990   18.8390 N   0  0  0  0  0  0  0  0  0  0  0  0
   -1.0120   11.9560   17.8610 H   0  0  0  0  0  0  0  0  0  0  0  0
   -3.2920   11.9300   18.9530 C   0  0  0  0  0  0  0  0  0  0  0  0
   -3.6590   12.9480   18.7600 H   0  0  0  0  0  0  0  0  0  0  0  0
   -4.0350   11.4730   19.6190 H   0  0  0  0  0  0  0  0  0  0  0  0
   -3.1890   11.1620   17.6630 C   0  0  0  0  0  0  0  0  0  0  0  0
   -2.2480   10.1340   17.5100 C   0  0  0  0  0  0  0  0  0  0  0  0
   -2.1760    9.4130   16.3150 C   0  0  0  0  0  0  0  0  0  0  0  0
   -3.0470    9.7080   15.2640 C   0  0  0  0  0  0  0  0  0  0  0  0
   -3.9940   10.7190   15.4100 C   0  0  0  0  0  0  0  0  0  0  0  0
   -4.0610   11.4330   16.6050 C   0  0  0  0  0  0  0  0  0  0  0  0
   -4.9920   12.3920   16.7350 F   0  0  0  0  0  0  0  0  0  0  0  0
   -1.5690    9.8880   18.3260 H   0  0  0  0  0  0  0  0  0  0  0  0
   -1.4390    8.6200   16.2050 H   0  0  0  0  0  0  0  0  0  0  0  0
   -2.9900    9.1460   14.3360 H   0  0  0  0  0  0  0  0  0  0  0  0
   -4.6820   10.9520   14.6030 H   0  0  0  0  0  0  0  0  0  0  0  0
    0.6620   10.9150   20.3190 C   0  0  0  0  0  0  0  0  0  0  0  0
   -0.3020   10.6700   20.7850 H   0  0  0  0  0  0  0  0  0  0  0  0
    1.3170   11.2250   21.1450 H   0  0  0  0  0  0  0  0  0  0  0  0
    1.2360    9.6580   19.7030 C   0  0  0  0  0  0  0  0  0  0  0  0
    1.5400    9.6050   18.3390 C   0  0  0  0  0  0  0  0  0  0  0  0
    2.0920    8.4480   17.7790 C   0  0  0  0  0  0  0  0  0  0  0  0
    2.3540    7.3130   18.5620 C   0  0  0  0  0  0  0  0  0  0  0  0
    2.0380    7.3770   19.9300 C   0  0  0  0  0  0  0  0  0  0  0  0
    1.4850    8.5300   20.4930 C   0  0  0  0  0  0  0  0  0  0  0  0
    1.3490   10.4610   17.6950 H   0  0  0  0  0  0  0  0  0  0  0  0
    2.3190    8.4450   16.7130 H   0  0  0  0  0  0  0  0  0  0  0  0
    2.2100    6.5180   20.5760 H   0  0  0  0  0  0  0  0  0  0  0  0
    1.2520    8.5390   21.5560 H   0  0  0  0  0  0  0  0  0  0  0  0
    2.9470    6.0970   17.9730 C   0  0  0  0  0  0  0  0  0  0  0  0
    2.2290    4.8880   17.9430 C   0  0  0  0  0  0  0  0  0  0  0  0
    2.7880    3.7370   17.3860 C   0  0  0  0  0  0  0  0  0  0  0  0
    2.0760    2.6020   17.3720 F   0  0  0  0  0  0  0  0  0  0  0  0
    4.0650    3.7470   16.8480 C   0  0  0  0  0  0  0  0  0  0  0  0
    4.7870    4.9310   16.8740 C   0  0  0  0  0  0  0  0  0  0  0  0
    6.0230    4.9530   16.3560 F   0  0  0  0  0  0  0  0  0  0  0  0
    4.2420    6.0900   17.4270 C   0  0  0  0  0  0  0  0  0  0  0  0
    4.9780    7.2130   17.4180 F   0  0  0  0  0  0  0  0  0  0  0  0
    1.2280    4.8230   18.3620 H   0  0  0  0  0  0  0  0  0  0  0  0
    4.4910    2.8480   16.4170 H   0  0  0  0  0  0  0  0  0  0  0  0
    0.8900   13.4220   19.9920 C   0  0  0  0  0  0  0  0  0  0  0  0
    1.2990   14.4220   19.4200 O   0  0  0  0  0  0  0  0  0  0  0  0
    0.7520   13.4220   21.3350 O   0  0  0  0  0  0  0  0  0  0  0  0
    0.0430   12.7630   21.4970 H   0  0  0  0  0  0  0  0  0  0  0  0
  1  2  1  6  0  0  0
  1 45  1  0  0  0  0
  1 21  1  0  0  0  0
  4  3  2  0  0  0  0
  5  1  1  0  0  0  0
  5  4  1  0  0  0  0
  6  5  1  0  0  0  0
  7  9  1  0  0  0  0
  7  4  1  0  0  0  0
  8  7  1  0  0  0  0
 10  7  1  0  0  0  0
 11 10  1  0  0  0  0
 11 17  1  0  0  0  0
 12 11  2  0  0  0  0
 13 14  2  0  0  0  0
 13 12  1  0  0  0  0
 14 15  1  0  0  0  0
 15 16  1  0  0  0  0
 15 10  2  0  0  0  0
 18 12  1  0  0  0  0
 19 13  1  0  0  0  0
 20 14  1  0  0  0  0
 21 22  1  0  0  0  0
 21 23  1  0  0  0  0
 24 21  1  0  0  0  0
 24 29  1  0  0  0  0
 25 24  2  0  0  0  0
 26 25  1  0  0  0  0
 26 27  2  0  0  0  0
 27 28  1  0  0  0  0
 28 29  2  0  0  0  0
 28 32  1  0  0  0  0
 29 33  1  0  0  0  0
 30 25  1  0  0  0  0
 31 26  1  0  0  0  0
 34 27  1  0  0  0  0
 35 34  1  0  0  0  0
 35 43  1  0  0  0  0
 36 35  2  0  0  0  0
 37 36  1  0  0  0  0
 38 39  2  0  0  0  0
 38 36  1  0  0  0  0
 39 41  1  0  0  0  0
 40 39  1  0  0  0  0
 41 34  2  0  0  0  0
 42 41  1  0  0  0  0
 44 38  1  0  0  0  0
 45 47  1  0  0  0  0
 46 45  2  0  0  0  0
 47 48  1  0  0  0  0
M  END
>  <MODEL>
13

>  <REMARK>
 VINA RESULT:    -8.062      5.126      9.018
 INTER + INTRA:         -12.428
 INTER:                 -11.910
 INTRA:                  -0.517
 UNBOUND:                -0.831
  Name = 
  8 active torsions:
  status: ('A' for Active; 'I' for Inactive)
    1  A    between atoms: C_2  and  C_3
    2  A    between atoms: C_3  and  C_4
    3  A    between atoms: N_11  and  CA_12
    4  A    between atoms: CA_12  and  C_13
    5  A    between atoms: CA_12  and  C_29
    6  A    between atoms: C_13  and  C_14
    7  A    between atoms: C_17  and  C_18
    8  A    between atoms: C_29  and  OXT_31
                            x       y       z     vdW  Elec       q    Type
                         _______ _______ _______ _____ _____    ______ ____

>  <TORSDO>
F 8

$$$$
=
 OpenBabel07192307433D

 48 50  0  0  1  0  0  0  0  0999 V2000
   -0.1600   11.2780   20.9760 C   0  0  2  0  0  0  0  0  0  0  0  0
    0.6380   11.6120   20.3020 H   0  0  0  0  0  0  0  0  0  0  0  0
   -1.0240   12.9770   18.8920 O   0  0  0  0  0  0  0  0  0  0  0  0
   -1.7590   12.0630   19.2580 C   0  0  0  0  0  0  0  0  0  0  0  0
   -1.3850   11.1180   20.1880 N   0  0  0  0  0  0  0  0  0  0  0  0
   -2.1330   10.5900   20.6270 H   0  0  0  0  0  0  0  0  0  0  0  0
   -3.1570   11.8730   18.7040 C   0  0  0  0  0  0  0  0  0  0  0  0
   -3.6340   12.8580   18.6120 H   0  0  0  0  0  0  0  0  0  0  0  0
   -3.7660   11.3200   19.4310 H   0  0  0  0  0  0  0  0  0  0  0  0
   -3.1510   11.1720   17.3720 C   0  0  0  0  0  0  0  0  0  0  0  0
   -2.1640   10.2250   17.0620 C   0  0  0  0  0  0  0  0  0  0  0  0
   -2.1810    9.5640   15.8290 C   0  0  0  0  0  0  0  0  0  0  0  0
   -3.1850    9.8390   14.9000 C   0  0  0  0  0  0  0  0  0  0  0  0
   -4.1780   10.7700   15.2040 C   0  0  0  0  0  0  0  0  0  0  0  0
   -4.1550   11.4230   16.4340 C   0  0  0  0  0  0  0  0  0  0  0  0
   -5.1290   12.3030   16.7180 F   0  0  0  0  0  0  0  0  0  0  0  0
   -1.3800    9.9940   17.7830 H   0  0  0  0  0  0  0  0  0  0  0  0
   -1.4080    8.8350   15.5960 H   0  0  0  0  0  0  0  0  0  0  0  0
   -3.1980    9.3250   13.9430 H   0  0  0  0  0  0  0  0  0  0  0  0
   -4.9680   10.9860   14.4920 H   0  0  0  0  0  0  0  0  0  0  0  0
    0.2770    9.9650   21.6440 C   0  0  0  0  0  0  0  0  0  0  0  0
   -0.5890    9.4690   22.1000 H   0  0  0  0  0  0  0  0  0  0  0  0
    0.9540   10.1970   22.4780 H   0  0  0  0  0  0  0  0  0  0  0  0
    0.9720    8.9830   20.7270 C   0  0  0  0  0  0  0  0  0  0  0  0
    1.2810    9.3320   19.4090 C   0  0  0  0  0  0  0  0  0  0  0  0
    1.9440    8.4270   18.5710 C   0  0  0  0  0  0  0  0  0  0  0  0
    2.3160    7.1520   19.0250 C   0  0  0  0  0  0  0  0  0  0  0  0
    1.9940    6.8120   20.3500 C   0  0  0  0  0  0  0  0  0  0  0  0
    1.3300    7.7110   21.1890 C   0  0  0  0  0  0  0  0  0  0  0  0
    1.0080   10.3090   19.0150 H   0  0  0  0  0  0  0  0  0  0  0  0
    2.1710    8.7360   17.5510 H   0  0  0  0  0  0  0  0  0  0  0  0
    2.2490    5.8300   20.7440 H   0  0  0  0  0  0  0  0  0  0  0  0
    1.0970    7.4090   22.2080 H   0  0  0  0  0  0  0  0  0  0  0  0
    3.0260    6.2040   18.1460 C   0  0  0  0  0  0  0  0  0  0  0  0
    4.1850    6.5960   17.4510 C   0  0  0  0  0  0  0  0  0  0  0  0
    4.8580    5.7000   16.6200 C   0  0  0  0  0  0  0  0  0  0  0  0
    5.9600    6.1050   15.9740 F   0  0  0  0  0  0  0  0  0  0  0  0
    4.4080    4.4010   16.4500 C   0  0  0  0  0  0  0  0  0  0  0  0
    3.2650    4.0000   17.1250 C   0  0  0  0  0  0  0  0  0  0  0  0
    2.8200    2.7460   16.9690 F   0  0  0  0  0  0  0  0  0  0  0  0
    2.5810    4.8840   17.9610 C   0  0  0  0  0  0  0  0  0  0  0  0
    1.4840    4.4440   18.5990 F   0  0  0  0  0  0  0  0  0  0  0  0
    4.5730    7.6070   17.5400 H   0  0  0  0  0  0  0  0  0  0  0  0
    4.9380    3.7110   15.8020 H   0  0  0  0  0  0  0  0  0  0  0  0
   -0.3660   12.3940   22.0000 C   0  0  0  0  0  0  0  0  0  0  0  0
   -1.0190   12.3330   23.0320 O   0  0  0  0  0  0  0  0  0  0  0  0
    0.2670   13.5400   21.6690 O   0  0  0  0  0  0  0  0  0  0  0  0
    0.9740   13.2470   21.0550 H   0  0  0  0  0  0  0  0  0  0  0  0
  1  2  1  6  0  0  0
  1 21  1  0  0  0  0
  1 45  1  0  0  0  0
  3  4  2  0  0  0  0
  4  5  1  0  0  0  0
  5  6  1  0  0  0  0
  5  1  1  0  0  0  0
  7  4  1  0  0  0  0
  7  9  1  0  0  0  0
  8  7  1  0  0  0  0
 10  7  1  0  0  0  0
 11 10  1  0  0  0  0
 11 17  1  0  0  0  0
 12 11  2  0  0  0  0
 13 14  2  0  0  0  0
 13 12  1  0  0  0  0
 14 15  1  0  0  0  0
 15 16  1  0  0  0  0
 15 10  2  0  0  0  0
 18 12  1  0  0  0  0
 19 13  1  0  0  0  0
 20 14  1  0  0  0  0
 21 22  1  0  0  0  0
 21 23  1  0  0  0  0
 24 29  1  0  0  0  0
 24 21  1  0  0  0  0
 25 24  2  0  0  0  0
 26 27  2  0  0  0  0
 26 25  1  0  0  0  0
 27 28  1  0  0  0  0
 28 32  1  0  0  0  0
 28 29  2  0  0  0  0
 29 33  1  0  0  0  0
 30 25  1  0  0  0  0
 31 26  1  0  0  0  0
 34 27  1  0  0  0  0
 35 43  1  0  0  0  0
 35 34  2  0  0  0  0
 36 35  1  0  0  0  0
 37 36  1  0  0  0  0
 38 36  2  0  0  0  0
 38 39  1  0  0  0  0
 39 41  2  0  0  0  0
 40 39  1  0  0  0  0
 41 34  1  0  0  0  0
 41 42  1  0  0  0  0
 44 38  1  0  0  0  0
 45 46  2  0  0  0  0
 47 45  1  0  0  0  0
 48 47  1  0  0  0  0
M  END
>  <MODEL>
14

>  <REMARK>
 VINA RESULT:    -8.050      5.188      9.190
 INTER + INTRA:         -12.412
 INTER:                 -11.454
 INTRA:                  -0.958
 UNBOUND:                -0.831
  Name = 
  8 active torsions:
  status: ('A' for Active; 'I' for Inactive)
    1  A    between atoms: C_2  and  C_3
    2  A    between atoms: C_3  and  C_4
    3  A    between atoms: N_11  and  CA_12
    4  A    between atoms: CA_12  and  C_13
    5  A    between atoms: CA_12  and  C_29
    6  A    between atoms: C_13  and  C_14
    7  A    between atoms: C_17  and  C_18
    8  A    between atoms: C_29  and  OXT_31
                            x       y       z     vdW  Elec       q    Type
                         _______ _______ _______ _____ _____    ______ ____

>  <TORSDO>
F 8

$$$$
=
 OpenBabel07192307433D

 48 50  0  0  1  0  0  0  0  0999 V2000
   -0.7680   11.2130   19.4700 C   0  0  2  0  0  0  0  0  0  0  0  0
   -1.0960   10.2330   19.8380 H   0  0  0  0  0  0  0  0  0  0  0  0
   -0.8170   10.4850   22.1980 O   0  0  0  0  0  0  0  0  0  0  0  0
   -0.8520   11.6760   21.9000 C   0  0  0  0  0  0  0  0  0  0  0  0
   -0.7240   12.1350   20.6070 N   0  0  0  0  0  0  0  0  0  0  0  0
   -1.0430   13.0830   20.4270 H   0  0  0  0  0  0  0  0  0  0  0  0
   -1.0230   12.7690   22.9360 C   0  0  0  0  0  0  0  0  0  0  0  0
   -0.4480   13.6480   22.6140 H   0  0  0  0  0  0  0  0  0  0  0  0
   -0.5650   12.4500   23.8810 H   0  0  0  0  0  0  0  0  0  0  0  0
   -2.4670   13.1380   23.1410 C   0  0  0  0  0  0  0  0  0  0  0  0
   -3.3370   12.2840   23.8330 C   0  0  0  0  0  0  0  0  0  0  0  0
   -4.6720   12.6470   24.0370 C   0  0  0  0  0  0  0  0  0  0  0  0
   -5.1470   13.8690   23.5570 C   0  0  0  0  0  0  0  0  0  0  0  0
   -4.2870   14.7310   22.8790 C   0  0  0  0  0  0  0  0  0  0  0  0
   -2.9580   14.3630   22.6800 C   0  0  0  0  0  0  0  0  0  0  0  0
   -2.1390   15.2130   22.0410 F   0  0  0  0  0  0  0  0  0  0  0  0
   -2.9760   11.3310   24.2210 H   0  0  0  0  0  0  0  0  0  0  0  0
   -5.3410   11.9750   24.5710 H   0  0  0  0  0  0  0  0  0  0  0  0
   -6.1840   14.1510   23.7170 H   0  0  0  0  0  0  0  0  0  0  0  0
   -4.6430   15.6870   22.5080 H   0  0  0  0  0  0  0  0  0  0  0  0
    0.6050   11.0510   18.7970 C   0  0  0  0  0  0  0  0  0  0  0  0
    1.3160   11.7750   19.2170 H   0  0  0  0  0  0  0  0  0  0  0  0
    0.5140   11.3120   17.7340 H   0  0  0  0  0  0  0  0  0  0  0  0
    1.2060    9.6660   18.8980 C   0  0  0  0  0  0  0  0  0  0  0  0
    1.7650    9.0480   17.7760 C   0  0  0  0  0  0  0  0  0  0  0  0
    2.3400    7.7760   17.8790 C   0  0  0  0  0  0  0  0  0  0  0  0
    2.3710    7.0870   19.1020 C   0  0  0  0  0  0  0  0  0  0  0  0
    1.8000    7.7180   20.2200 C   0  0  0  0  0  0  0  0  0  0  0  0
    1.2240    8.9880   20.1210 C   0  0  0  0  0  0  0  0  0  0  0  0
    1.7590    9.5440   16.8080 H   0  0  0  0  0  0  0  0  0  0  0  0
    2.7690    7.3260   16.9840 H   0  0  0  0  0  0  0  0  0  0  0  0
    1.7880    7.2190   21.1880 H   0  0  0  0  0  0  0  0  0  0  0  0
    0.7890    9.4410   21.0100 H   0  0  0  0  0  0  0  0  0  0  0  0
    2.9890    5.7520   19.2130 C   0  0  0  0  0  0  0  0  0  0  0  0
    2.2760    4.6740   19.7680 C   0  0  0  0  0  0  0  0  0  0  0  0
    2.8580    3.4100   19.8730 C   0  0  0  0  0  0  0  0  0  0  0  0
    2.1510    2.4040   20.4060 F   0  0  0  0  0  0  0  0  0  0  0  0
    4.1520    3.1760   19.4380 C   0  0  0  0  0  0  0  0  0  0  0  0
    4.8680    4.2300   18.8900 C   0  0  0  0  0  0  0  0  0  0  0  0
    6.1210    4.0170   18.4650 F   0  0  0  0  0  0  0  0  0  0  0  0
    4.3010    5.5000   18.7780 C   0  0  0  0  0  0  0  0  0  0  0  0
    5.0330    6.4840   18.2320 F   0  0  0  0  0  0  0  0  0  0  0  0
    1.2620    4.8060   20.1360 H   0  0  0  0  0  0  0  0  0  0  0  0
    4.5960    2.1910   19.5230 H   0  0  0  0  0  0  0  0  0  0  0  0
   -1.8320   11.6890   18.4800 C   0  0  0  0  0  0  0  0  0  0  0  0
   -3.0430   11.5550   18.5840 O   0  0  0  0  0  0  0  0  0  0  0  0
   -1.3110   12.3150   17.4030 O   0  0  0  0  0  0  0  0  0  0  0  0
   -1.4970   13.2630   17.5720 H   0  0  0  0  0  0  0  0  0  0  0  0
  1  2  1  1  0  0  0
  1  5  1  0  0  0  0
  4  3  2  0  0  0  0
  4  7  1  0  0  0  0
  5  4  1  0  0  0  0
  6  5  1  0  0  0  0
  7 10  1  0  0  0  0
  7  9  1  0  0  0  0
  8  7  1  0  0  0  0
 10 11  1  0  0  0  0
 11 12  2  0  0  0  0
 11 17  1  0  0  0  0
 12 18  1  0  0  0  0
 13 19  1  0  0  0  0
 13 12  1  0  0  0  0
 14 13  2  0  0  0  0
 15 14  1  0  0  0  0
 15 10  2  0  0  0  0
 16 15  1  0  0  0  0
 20 14  1  0  0  0  0
 21 24  1  0  0  0  0
 21 22  1  0  0  0  0
 21  1  1  0  0  0  0
 23 21  1  0  0  0  0
 24 29  1  0  0  0  0
 25 26  1  0  0  0  0
 25 24  2  0  0  0  0
 26 27  2  0  0  0  0
 27 34  1  0  0  0  0
 27 28  1  0  0  0  0
 28 32  1  0  0  0  0
 29 28  2  0  0  0  0
 29 33  1  0  0  0  0
 30 25  1  0  0  0  0
 31 26  1  0  0  0  0
 34 35  1  0  0  0  0
 35 36  2  0  0  0  0
 35 43  1  0  0  0  0
 36 37  1  0  0  0  0
 38 44  1  0  0  0  0
 38 36  1  0  0  0  0
 39 38  2  0  0  0  0
 40 39  1  0  0  0  0
 41 39  1  0  0  0  0
 41 34  2  0  0  0  0
 42 41  1  0  0  0  0
 45 46  2  0  0  0  0
 45  1  1  0  0  0  0
 47 48  1  0  0  0  0
 47 45  1  0  0  0  0
M  END
>  <MODEL>
15

>  <REMARK>
 VINA RESULT:    -8.013      4.758      9.508
 INTER + INTRA:         -12.357
 INTER:                 -11.383
 INTRA:                  -0.974
 UNBOUND:                -0.831
  Name = 
  8 active torsions:
  status: ('A' for Active; 'I' for Inactive)
    1  A    between atoms: C_2  and  C_3
    2  A    between atoms: C_3  and  C_4
    3  A    between atoms: N_11  and  CA_12
    4  A    between atoms: CA_12  and  C_13
    5  A    between atoms: CA_12  and  C_29
    6  A    between atoms: C_13  and  C_14
    7  A    between atoms: C_17  and  C_18
    8  A    between atoms: C_29  and  OXT_31
                            x       y       z     vdW  Elec       q    Type
                         _______ _______ _______ _____ _____    ______ ____

>  <TORSDO>
F 8

$$$$
=
 OpenBabel07192307433D

 48 50  0  0  1  0  0  0  0  0999 V2000
   -0.9400   11.4840   19.3590 C   0  0  2  0  0  0  0  0  0  0  0  0
   -1.3150   10.7220   18.6650 H   0  0  0  0  0  0  0  0  0  0  0  0
   -3.6050   11.6160   18.4350 O   0  0  0  0  0  0  0  0  0  0  0  0
   -3.3230   12.1320   19.5130 C   0  0  0  0  0  0  0  0  0  0  0  0
   -2.0810   12.0280   20.1000 N   0  0  0  0  0  0  0  0  0  0  0  0
   -1.8610   12.7040   20.8250 H   0  0  0  0  0  0  0  0  0  0  0  0
   -4.3290   12.9270   20.3220 C   0  0  0  0  0  0  0  0  0  0  0  0
   -5.2220   12.3050   20.4770 H   0  0  0  0  0  0  0  0  0  0  0  0
   -4.6710   13.7880   19.7340 H   0  0  0  0  0  0  0  0  0  0  0  0
   -3.7710   13.3730   21.6460 C   0  0  0  0  0  0  0  0  0  0  0  0
   -3.9880   12.6200   22.8090 C   0  0  0  0  0  0  0  0  0  0  0  0
   -3.4460   13.0330   24.0300 C   0  0  0  0  0  0  0  0  0  0  0  0
   -2.6770   14.1960   24.0990 C   0  0  0  0  0  0  0  0  0  0  0  0
   -2.4440   14.9440   22.9460 C   0  0  0  0  0  0  0  0  0  0  0  0
   -2.9870   14.5270   21.7330 C   0  0  0  0  0  0  0  0  0  0  0  0
   -2.7380   15.2490   20.6290 F   0  0  0  0  0  0  0  0  0  0  0  0
   -4.5790   11.7050   22.7680 H   0  0  0  0  0  0  0  0  0  0  0  0
   -3.6240   12.4450   24.9280 H   0  0  0  0  0  0  0  0  0  0  0  0
   -2.2550   14.5150   25.0480 H   0  0  0  0  0  0  0  0  0  0  0  0
   -1.8420   15.8460   22.9860 H   0  0  0  0  0  0  0  0  0  0  0  0
    0.1000   10.8340   20.2870 C   0  0  0  0  0  0  0  0  0  0  0  0
   -0.3870   10.4780   21.2050 H   0  0  0  0  0  0  0  0  0  0  0  0
    0.8150   11.6010   20.6130 H   0  0  0  0  0  0  0  0  0  0  0  0
    0.8760    9.6890   19.6730 C   0  0  0  0  0  0  0  0  0  0  0  0
    1.2080    9.6980   18.3150 C   0  0  0  0  0  0  0  0  0  0  0  0
    1.9450    8.6470   17.7580 C   0  0  0  0  0  0  0  0  0  0  0  0
    2.3700    7.5610   18.5380 C   0  0  0  0  0  0  0  0  0  0  0  0
    2.0250    7.5620   19.9000 C   0  0  0  0  0  0  0  0  0  0  0  0
    1.2870    8.6080   20.4610 C   0  0  0  0  0  0  0  0  0  0  0  0
    0.8950   10.5190   17.6730 H   0  0  0  0  0  0  0  0  0  0  0  0
    2.1880    8.6900   16.6970 H   0  0  0  0  0  0  0  0  0  0  0  0
    2.3190    6.7350   20.5440 H   0  0  0  0  0  0  0  0  0  0  0  0
    1.0370    8.5710   21.5190 H   0  0  0  0  0  0  0  0  0  0  0  0
    3.1580    6.4600   17.9530 C   0  0  0  0  0  0  0  0  0  0  0  0
    4.4160    6.7050   17.3720 C   0  0  0  0  0  0  0  0  0  0  0  0
    5.1630    5.6640   16.8180 C   0  0  0  0  0  0  0  0  0  0  0  0
    6.3580    5.9310   16.2740 F   0  0  0  0  0  0  0  0  0  0  0  0
    4.6920    4.3610   16.8210 C   0  0  0  0  0  0  0  0  0  0  0  0
    3.4530    4.1040   17.3880 C   0  0  0  0  0  0  0  0  0  0  0  0
    2.9860    2.8480   17.3970 F   0  0  0  0  0  0  0  0  0  0  0  0
    2.6940    5.1330   17.9460 C   0  0  0  0  0  0  0  0  0  0  0  0
    1.5040    4.8310   18.4900 F   0  0  0  0  0  0  0  0  0  0  0  0
    4.8260    7.7110   17.3330 H   0  0  0  0  0  0  0  0  0  0  0  0
    5.2800    3.5590   16.3900 H   0  0  0  0  0  0  0  0  0  0  0  0
   -0.3230   12.5910   18.5040 C   0  0  0  0  0  0  0  0  0  0  0  0
    0.6830   13.2390   18.7550 O   0  0  0  0  0  0  0  0  0  0  0  0
   -1.0120   12.8280   17.3670 O   0  0  0  0  0  0  0  0  0  0  0  0
   -1.2020   13.7900   17.4050 H   0  0  0  0  0  0  0  0  0  0  0  0
  1  2  1  6  0  0  0
  1  5  1  0  0  0  0
  1 21  1  0  0  0  0
  3  4  2  0  0  0  0
  4  5  1  0  0  0  0
  4  7  1  0  0  0  0
  5  6  1  0  0  0  0
  7  8  1  0  0  0  0
  7 10  1  0  0  0  0
  9  7  1  0  0  0  0
 10 15  2  0  0  0  0
 10 11  1  0  0  0  0
 11 12  2  0  0  0  0
 12 13  1  0  0  0  0
 12 18  1  0  0  0  0
 13 19  1  0  0  0  0
 14 20  1  0  0  0  0
 14 13  2  0  0  0  0
 15 14  1  0  0  0  0
 16 15  1  0  0  0  0
 17 11  1  0  0  0  0
 21 23  1  0  0  0  0
 21 22  1  0  0  0  0
 24 21  1  0  0  0  0
 24 29  1  0  0  0  0
 25 24  2  0  0  0  0
 26 25  1  0  0  0  0
 26 27  2  0  0  0  0
 27 28  1  0  0  0  0
 28 29  2  0  0  0  0
 28 32  1  0  0  0  0
 29 33  1  0  0  0  0
 30 25  1  0  0  0  0
 31 26  1  0  0  0  0
 34 27  1  0  0  0  0
 35 34  2  0  0  0  0
 36 38  2  0  0  0  0
 36 35  1  0  0  0  0
 37 36  1  0  0  0  0
 38 39  1  0  0  0  0
 39 40  1  0  0  0  0
 39 41  2  0  0  0  0
 41 34  1  0  0  0  0
 41 42  1  0  0  0  0
 43 35  1  0  0  0  0
 44 38  1  0  0  0  0
 45 46  2  0  0  0  0
 45  1  1  0  0  0  0
 47 48  1  0  0  0  0
 47 45  1  0  0  0  0
M  END
>  <MODEL>
16

>  <REMARK>
 VINA RESULT:    -7.853      4.964      9.698
 INTER + INTRA:         -12.127
 INTER:                 -11.517
 INTRA:                  -0.610
 UNBOUND:                -0.831
  Name = 
  8 active torsions:
  status: ('A' for Active; 'I' for Inactive)
    1  A    between atoms: C_2  and  C_3
    2  A    between atoms: C_3  and  C_4
    3  A    between atoms: N_11  and  CA_12
    4  A    between atoms: CA_12  and  C_13
    5  A    between atoms: CA_12  and  C_29
    6  A    between atoms: C_13  and  C_14
    7  A    between atoms: C_17  and  C_18
    8  A    between atoms: C_29  and  OXT_31
                            x       y       z     vdW  Elec       q    Type
                         _______ _______ _______ _____ _____    ______ ____

>  <TORSDO>
F 8

$$$$
=
 OpenBabel07192307433D

 48 50  0  0  1  0  0  0  0  0999 V2000
   -0.3950   10.7260   20.0800 C   0  0  2  0  0  0  0  0  0  0  0  0
   -0.6920    9.8060   20.5990 H   0  0  0  0  0  0  0  0  0  0  0  0
   -0.7640   10.5170   22.8730 O   0  0  0  0  0  0  0  0  0  0  0  0
   -0.8240   11.6250   22.3460 C   0  0  0  0  0  0  0  0  0  0  0  0
   -0.5510   11.8450   21.0140 N   0  0  0  0  0  0  0  0  0  0  0  0
   -0.8940   12.7140   20.6160 H   0  0  0  0  0  0  0  0  0  0  0  0
   -1.1890   12.8750   23.1220 C   0  0  0  0  0  0  0  0  0  0  0  0
   -0.4380   13.6490   22.9100 H   0  0  0  0  0  0  0  0  0  0  0  0
   -1.1050   12.6740   24.1980 H   0  0  0  0  0  0  0  0  0  0  0  0
   -2.5650   13.3770   22.7780 C   0  0  0  0  0  0  0  0  0  0  0  0
   -2.7400   14.4360   21.8750 C   0  0  0  0  0  0  0  0  0  0  0  0
   -4.0240   14.8800   21.5470 C   0  0  0  0  0  0  0  0  0  0  0  0
   -5.1440   14.2670   22.1120 C   0  0  0  0  0  0  0  0  0  0  0  0
   -4.9810   13.2060   23.0010 C   0  0  0  0  0  0  0  0  0  0  0  0
   -3.6990   12.7680   23.3230 C   0  0  0  0  0  0  0  0  0  0  0  0
   -3.5600   11.7330   24.1670 F   0  0  0  0  0  0  0  0  0  0  0  0
   -1.8740   14.9160   21.4200 H   0  0  0  0  0  0  0  0  0  0  0  0
   -4.1500   15.7050   20.8490 H   0  0  0  0  0  0  0  0  0  0  0  0
   -6.1420   14.6120   21.8550 H   0  0  0  0  0  0  0  0  0  0  0  0
   -5.8450   12.7170   23.4400 H   0  0  0  0  0  0  0  0  0  0  0  0
    1.0550   10.5720   19.5940 C   0  0  0  0  0  0  0  0  0  0  0  0
    1.7470   10.9890   20.3380 H   0  0  0  0  0  0  0  0  0  0  0  0
    1.1940   11.1800   18.6900 H   0  0  0  0  0  0  0  0  0  0  0  0
    1.4750    9.1530   19.2810 C   0  0  0  0  0  0  0  0  0  0  0  0
    1.7550    8.7630   17.9680 C   0  0  0  0  0  0  0  0  0  0  0  0
    2.1650    7.4550   17.6870 C   0  0  0  0  0  0  0  0  0  0  0  0
    2.3070    6.5010   18.7060 C   0  0  0  0  0  0  0  0  0  0  0  0
    2.0170    6.9040   20.0210 C   0  0  0  0  0  0  0  0  0  0  0  0
    1.6050    8.2090   20.3060 C   0  0  0  0  0  0  0  0  0  0  0  0
    1.6540    9.4700   17.1470 H   0  0  0  0  0  0  0  0  0  0  0  0
    2.3770    7.1890   16.6520 H   0  0  0  0  0  0  0  0  0  0  0  0
    2.0990    6.1960   20.8450 H   0  0  0  0  0  0  0  0  0  0  0  0
    1.3880    8.4810   21.3370 H   0  0  0  0  0  0  0  0  0  0  0  0
    2.7520    5.1260   18.4110 C   0  0  0  0  0  0  0  0  0  0  0  0
    2.1150    4.0200   19.0050 C   0  0  0  0  0  0  0  0  0  0  0  0
    2.5340    2.7190   18.7270 C   0  0  0  0  0  0  0  0  0  0  0  0
    1.9050    1.6890   19.3080 F   0  0  0  0  0  0  0  0  0  0  0  0
    3.5880    2.4730   17.8610 C   0  0  0  0  0  0  0  0  0  0  0  0
    4.2270    3.5520   17.2700 C   0  0  0  0  0  0  0  0  0  0  0  0
    5.2470    3.3280   16.4310 F   0  0  0  0  0  0  0  0  0  0  0  0
    3.8200    4.8600   17.5380 C   0  0  0  0  0  0  0  0  0  0  0  0
    4.4660    5.8700   16.9330 F   0  0  0  0  0  0  0  0  0  0  0  0
    1.2910    4.1590   19.7010 H   0  0  0  0  0  0  0  0  0  0  0  0
    3.9060    1.4580   17.6500 H   0  0  0  0  0  0  0  0  0  0  0  0
   -1.3680   10.9070   18.9150 C   0  0  0  0  0  0  0  0  0  0  0  0
   -1.7190   10.0540   18.1130 O   0  0  0  0  0  0  0  0  0  0  0  0
   -1.8530   12.1640   18.8200 O   0  0  0  0  0  0  0  0  0  0  0  0
   -2.3670   12.1530   17.9840 H   0  0  0  0  0  0  0  0  0  0  0  0
  1  2  1  1  0  0  0
  1  5  1  0  0  0  0
  4  3  2  0  0  0  0
  4  7  1  0  0  0  0
  5  4  1  0  0  0  0
  6  5  1  0  0  0  0
  7  9  1  0  0  0  0
  8  7  1  0  0  0  0
 10  7  1  0  0  0  0
 10 15  1  0  0  0  0
 11 10  2  0  0  0  0
 12 11  1  0  0  0  0
 12 13  2  0  0  0  0
 13 14  1  0  0  0  0
 14 15  2  0  0  0  0
 14 20  1  0  0  0  0
 15 16  1  0  0  0  0
 17 11  1  0  0  0  0
 18 12  1  0  0  0  0
 19 13  1  0  0  0  0
 21  1  1  0  0  0  0
 21 22  1  0  0  0  0
 23 21  1  0  0  0  0
 24 21  1  0  0  0  0
 24 29  1  0  0  0  0
 25 24  2  0  0  0  0
 26 25  1  0  0  0  0
 26 27  2  0  0  0  0
 27 28  1  0  0  0  0
 28 29  2  0  0  0  0
 28 32  1  0  0  0  0
 29 33  1  0  0  0  0
 30 25  1  0  0  0  0
 31 26  1  0  0  0  0
 34 27  1  0  0  0  0
 34 35  1  0  0  0  0
 35 43  1  0  0  0  0
 36 35  2  0  0  0  0
 36 37  1  0  0  0  0
 38 36  1  0  0  0  0
 39 41  1  0  0  0  0
 39 38  2  0  0  0  0
 40 39  1  0  0  0  0
 41 34  2  0  0  0  0
 42 41  1  0  0  0  0
 44 38  1  0  0  0  0
 45  1  1  0  0  0  0
 46 45  2  0  0  0  0
 47 45  1  0  0  0  0
 48 47  1  0  0  0  0
M  END
>  <MODEL>
17

>  <REMARK>
 VINA RESULT:    -7.779      4.694      9.515
 INTER + INTRA:         -12.021
 INTER:                 -11.064
 INTRA:                  -0.957
 UNBOUND:                -0.831
  Name = 
  8 active torsions:
  status: ('A' for Active; 'I' for Inactive)
    1  A    between atoms: C_2  and  C_3
    2  A    between atoms: C_3  and  C_4
    3  A    between atoms: N_11  and  CA_12
    4  A    between atoms: CA_12  and  C_13
    5  A    between atoms: CA_12  and  C_29
    6  A    between atoms: C_13  and  C_14
    7  A    between atoms: C_17  and  C_18
    8  A    between atoms: C_29  and  OXT_31
                            x       y       z     vdW  Elec       q    Type
                         _______ _______ _______ _____ _____    ______ ____

>  <TORSDO>
F 8

$$$$
=
 OpenBabel07192307433D

 48 50  0  0  1  0  0  0  0  0999 V2000
   -1.0470   11.9070   22.8740 C   0  0  2  0  0  0  0  0  0  0  0  0
   -0.1730   12.3980   23.3180 H   0  0  0  0  0  0  0  0  0  0  0  0
    0.9360   13.3440   21.4680 O   0  0  0  0  0  0  0  0  0  0  0  0
   -0.0210   12.8880   20.8470 C   0  0  0  0  0  0  0  0  0  0  0  0
   -0.9800   12.0830   21.4210 N   0  0  0  0  0  0  0  0  0  0  0  0
   -1.8590   11.9930   20.9200 H   0  0  0  0  0  0  0  0  0  0  0  0
   -0.2320   13.1530   19.3700 C   0  0  0  0  0  0  0  0  0  0  0  0
    0.7240   13.4690   18.9310 H   0  0  0  0  0  0  0  0  0  0  0  0
   -0.9080   14.0080   19.2460 H   0  0  0  0  0  0  0  0  0  0  0  0
   -0.7620   11.9450   18.6450 C   0  0  0  0  0  0  0  0  0  0  0  0
   -2.0490   11.9460   18.0890 C   0  0  0  0  0  0  0  0  0  0  0  0
   -2.5220   10.8260   17.3980 C   0  0  0  0  0  0  0  0  0  0  0  0
   -1.7120    9.6980   17.2520 C   0  0  0  0  0  0  0  0  0  0  0  0
   -0.4260    9.6920   17.7910 C   0  0  0  0  0  0  0  0  0  0  0  0
    0.0390   10.8120   18.4760 C   0  0  0  0  0  0  0  0  0  0  0  0
    1.2860   10.7960   18.9730 F   0  0  0  0  0  0  0  0  0  0  0  0
   -2.6880   12.8230   18.1870 H   0  0  0  0  0  0  0  0  0  0  0  0
   -3.5240   10.8350   16.9740 H   0  0  0  0  0  0  0  0  0  0  0  0
   -2.0810    8.8290   16.7150 H   0  0  0  0  0  0  0  0  0  0  0  0
    0.2150    8.8240   17.6760 H   0  0  0  0  0  0  0  0  0  0  0  0
   -1.0380   10.4250   23.2820 C   0  0  0  0  0  0  0  0  0  0  0  0
   -2.0640   10.0350   23.3050 H   0  0  0  0  0  0  0  0  0  0  0  0
   -0.6690   10.3410   24.3130 H   0  0  0  0  0  0  0  0  0  0  0  0
   -0.1970    9.5260   22.4010 C   0  0  0  0  0  0  0  0  0  0  0  0
   -0.7940    8.5340   21.6160 C   0  0  0  0  0  0  0  0  0  0  0  0
   -0.0140    7.7210   20.7870 C   0  0  0  0  0  0  0  0  0  0  0  0
    1.3800    7.8720   20.7190 C   0  0  0  0  0  0  0  0  0  0  0  0
    1.9670    8.8690   21.5170 C   0  0  0  0  0  0  0  0  0  0  0  0
    1.1920    9.6830   22.3480 C   0  0  0  0  0  0  0  0  0  0  0  0
   -1.8710    8.3800   21.6420 H   0  0  0  0  0  0  0  0  0  0  0  0
   -0.5140    6.9610   20.1870 H   0  0  0  0  0  0  0  0  0  0  0  0
    3.0450    9.0160   21.5090 H   0  0  0  0  0  0  0  0  0  0  0  0
    1.6850   10.4410   22.9530 H   0  0  0  0  0  0  0  0  0  0  0  0
    2.2000    7.0230   19.8350 C   0  0  0  0  0  0  0  0  0  0  0  0
    2.7400    7.5360   18.6410 C   0  0  0  0  0  0  0  0  0  0  0  0
    3.5170    6.7340   17.8040 C   0  0  0  0  0  0  0  0  0  0  0  0
    4.0180    7.2550   16.6760 F   0  0  0  0  0  0  0  0  0  0  0  0
    3.7790    5.4100   18.1180 C   0  0  0  0  0  0  0  0  0  0  0  0
    3.2500    4.8890   19.2900 C   0  0  0  0  0  0  0  0  0  0  0  0
    3.4970    3.6100   19.6040 F   0  0  0  0  0  0  0  0  0  0  0  0
    2.4720    5.6780   20.1380 C   0  0  0  0  0  0  0  0  0  0  0  0
    1.9920    5.1280   21.2640 F   0  0  0  0  0  0  0  0  0  0  0  0
    2.5550    8.5650   18.3430 H   0  0  0  0  0  0  0  0  0  0  0  0
    4.3840    4.7950   17.4630 H   0  0  0  0  0  0  0  0  0  0  0  0
   -2.2800   12.6350   23.4110 C   0  0  0  0  0  0  0  0  0  0  0  0
   -2.4060   13.8390   23.5800 O   0  0  0  0  0  0  0  0  0  0  0  0
   -3.2990   11.8010   23.7100 O   0  0  0  0  0  0  0  0  0  0  0  0
   -3.2520   11.1140   23.0110 H   0  0  0  0  0  0  0  0  0  0  0  0
  1 21  1  0  0  0  0
  1  2  1  1  0  0  0
  1 45  1  0  0  0  0
  4  5  1  0  0  0  0
  4  3  2  0  0  0  0
  5  1  1  0  0  0  0
  6  5  1  0  0  0  0
  7  4  1  0  0  0  0
  8  7  1  0  0  0  0
  9  7  1  0  0  0  0
 10  7  1  0  0  0  0
 11 17  1  0  0  0  0
 11 10  2  0  0  0  0
 12 11  1  0  0  0  0
 13 12  2  0  0  0  0
 13 14  1  0  0  0  0
 14 15  2  0  0  0  0
 15 10  1  0  0  0  0
 15 16  1  0  0  0  0
 18 12  1  0  0  0  0
 19 13  1  0  0  0  0
 20 14  1  0  0  0  0
 21 22  1  0  0  0  0
 21 23  1  0  0  0  0
 24 21  1  0  0  0  0
 25 30  1  0  0  0  0
 25 24  2  0  0  0  0
 26 25  1  0  0  0  0
 27 26  2  0  0  0  0
 27 28  1  0  0  0  0
 28 29  2  0  0  0  0
 29 24  1  0  0  0  0
 29 33  1  0  0  0  0
 31 26  1  0  0  0  0
 32 28  1  0  0  0  0
 34 41  1  0  0  0  0
 34 27  1  0  0  0  0
 35 34  2  0  0  0  0
 36 38  2  0  0  0  0
 36 35  1  0  0  0  0
 37 36  1  0  0  0  0
 38 39  1  0  0  0  0
 39 40  1  0  0  0  0
 39 41  2  0  0  0  0
 41 42  1  0  0  0  0
 43 35  1  0  0  0  0
 44 38  1  0  0  0  0
 45 46  2  0  0  0  0
 45 47  1  0  0  0  0
 48 47  1  0  0  0  0
M  END
>  <MODEL>
18

>  <REMARK>
 VINA RESULT:    -7.757      5.056      8.957
 INTER + INTRA:         -11.989
 INTER:                  -9.501
 INTRA:                  -2.488
 UNBOUND:                -0.831
  Name = 
  8 active torsions:
  status: ('A' for Active; 'I' for Inactive)
    1  A    between atoms: C_2  and  C_3
    2  A    between atoms: C_3  and  C_4
    3  A    between atoms: N_11  and  CA_12
    4  A    between atoms: CA_12  and  C_13
    5  A    between atoms: CA_12  and  C_29
    6  A    between atoms: C_13  and  C_14
    7  A    between atoms: C_17  and  C_18
    8  A    between atoms: C_29  and  OXT_31
                            x       y       z     vdW  Elec       q    Type
                         _______ _______ _______ _____ _____    ______ ____

>  <TORSDO>
F 8

$$$$
=
 OpenBabel07192307433D

 48 50  0  0  1  0  0  0  0  0999 V2000
    1.0980   11.4020   18.9660 C   0  0  2  0  0  0  0  0  0  0  0  0
    1.2770   11.0150   19.9760 H   0  0  0  0  0  0  0  0  0  0  0  0
    1.6000   13.1840   21.0990 O   0  0  0  0  0  0  0  0  0  0  0  0
    1.8530   13.5430   19.9510 C   0  0  0  0  0  0  0  0  0  0  0  0
    1.7460   12.7110   18.8580 N   0  0  0  0  0  0  0  0  0  0  0  0
    1.6990   13.1590   17.9480 H   0  0  0  0  0  0  0  0  0  0  0  0
    2.3300   14.9440   19.6240 C   0  0  0  0  0  0  0  0  0  0  0  0
    2.0680   15.6060   20.4610 H   0  0  0  0  0  0  0  0  0  0  0  0
    1.7720   15.3270   18.7610 H   0  0  0  0  0  0  0  0  0  0  0  0
    3.8120   14.9950   19.3660 C   0  0  0  0  0  0  0  0  0  0  0  0
    4.7290   14.9620   20.4270 C   0  0  0  0  0  0  0  0  0  0  0  0
    6.1040   14.9880   20.1740 C   0  0  0  0  0  0  0  0  0  0  0  0
    6.5750   15.0400   18.8610 C   0  0  0  0  0  0  0  0  0  0  0  0
    5.6720   15.0600   17.7990 C   0  0  0  0  0  0  0  0  0  0  0  0
    4.3030   15.0330   18.0580 C   0  0  0  0  0  0  0  0  0  0  0  0
    3.4480   15.0340   17.0240 F   0  0  0  0  0  0  0  0  0  0  0  0
    4.3740   14.9120   21.4560 H   0  0  0  0  0  0  0  0  0  0  0  0
    6.8070   14.9670   21.0040 H   0  0  0  0  0  0  0  0  0  0  0  0
    7.6430   15.0590   18.6660 H   0  0  0  0  0  0  0  0  0  0  0  0
    6.0260   15.0920   16.7740 H   0  0  0  0  0  0  0  0  0  0  0  0
    1.6510   10.3930   17.9470 C   0  0  0  0  0  0  0  0  0  0  0  0
    2.5880   10.7710   17.5150 H   0  0  0  0  0  0  0  0  0  0  0  0
    0.9500   10.3150   17.1050 H   0  0  0  0  0  0  0  0  0  0  0  0
    1.8950    9.0030   18.4930 C   0  0  0  0  0  0  0  0  0  0  0  0
    1.6000    8.6970   19.8250 C   0  0  0  0  0  0  0  0  0  0  0  0
    1.8070    7.4040   20.3190 C   0  0  0  0  0  0  0  0  0  0  0  0
    2.3130    6.3830   19.5000 C   0  0  0  0  0  0  0  0  0  0  0  0
    2.6100    6.7050   18.1650 C   0  0  0  0  0  0  0  0  0  0  0  0
    2.4080    7.9960   17.6680 C   0  0  0  0  0  0  0  0  0  0  0  0
    1.2100    9.4590   20.4960 H   0  0  0  0  0  0  0  0  0  0  0  0
    1.5620    7.2010   21.3610 H   0  0  0  0  0  0  0  0  0  0  0  0
    3.0180    5.9510   17.4930 H   0  0  0  0  0  0  0  0  0  0  0  0
    2.6530    8.2060   16.6290 H   0  0  0  0  0  0  0  0  0  0  0  0
    2.5180    5.0170   20.0170 C   0  0  0  0  0  0  0  0  0  0  0  0
    1.5790    4.4260   20.8830 C   0  0  0  0  0  0  0  0  0  0  0  0
    1.7710    3.1340   21.3730 C   0  0  0  0  0  0  0  0  0  0  0  0
    0.8570    2.6010   22.1940 F   0  0  0  0  0  0  0  0  0  0  0  0
    2.8900    2.3930   21.0260 C   0  0  0  0  0  0  0  0  0  0  0  0
    3.8260    2.9630   20.1760 C   0  0  0  0  0  0  0  0  0  0  0  0
    4.9120    2.2560   19.8340 F   0  0  0  0  0  0  0  0  0  0  0  0
    3.6480    4.2540   19.6770 C   0  0  0  0  0  0  0  0  0  0  0  0
    4.5790    4.7560   18.8500 F   0  0  0  0  0  0  0  0  0  0  0  0
    0.6900    4.9690   21.1950 H   0  0  0  0  0  0  0  0  0  0  0  0
    3.0300    1.3900   21.4110 H   0  0  0  0  0  0  0  0  0  0  0  0
   -0.4140   11.5790   18.8250 C   0  0  0  0  0  0  0  0  0  0  0  0
   -1.2780   11.1270   19.5630 O   0  0  0  0  0  0  0  0  0  0  0  0
   -0.7630   12.3220   17.7520 O   0  0  0  0  0  0  0  0  0  0  0  0
    0.0940   12.5260   17.3210 H   0  0  0  0  0  0  0  0  0  0  0  0
  1  2  1  1  0  0  0
  4  3  2  0  0  0  0
  5  1  1  0  0  0  0
  5  4  1  0  0  0  0
  6  5  1  0  0  0  0
  7  4  1  0  0  0  0
  7  8  1  0  0  0  0
  9  7  1  0  0  0  0
 10  7  1  0  0  0  0
 10 11  1  0  0  0  0
 11 17  1  0  0  0  0
 12 11  2  0  0  0  0
 12 18  1  0  0  0  0
 13 12  1  0  0  0  0
 14 15  1  0  0  0  0
 14 13  2  0  0  0  0
 15 10  2  0  0  0  0
 16 15  1  0  0  0  0
 19 13  1  0  0  0  0
 20 14  1  0  0  0  0
 21 24  1  0  0  0  0
 21  1  1  0  0  0  0
 22 21  1  0  0  0  0
 23 21  1  0  0  0  0
 24 25  1  0  0  0  0
 25 26  2  0  0  0  0
 25 30  1  0  0  0  0
 26 31  1  0  0  0  0
 27 34  1  0  0  0  0
 27 26  1  0  0  0  0
 28 27  2  0  0  0  0
 29 28  1  0  0  0  0
 29 24  2  0  0  0  0
 32 28  1  0  0  0  0
 33 29  1  0  0  0  0
 34 35  1  0  0  0  0
 35 43  1  0  0  0  0
 35 36  2  0  0  0  0
 36 37  1  0  0  0  0
 38 36  1  0  0  0  0
 38 44  1  0  0  0  0
 39 38  2  0  0  0  0
 40 39  1  0  0  0  0
 41 34  2  0  0  0  0
 41 39  1  0  0  0  0
 42 41  1  0  0  0  0
 45  1  1  0  0  0  0
 45 46  2  0  0  0  0
 47 45  1  0  0  0  0
 48 47  1  0  0  0  0
M  END
>  <MODEL>
19

>  <REMARK>
 VINA RESULT:    -7.746      5.253      9.323
 INTER + INTRA:         -11.973
 INTER:                 -11.070
 INTRA:                  -0.903
 UNBOUND:                -0.831
  Name = 
  8 active torsions:
  status: ('A' for Active; 'I' for Inactive)
    1  A    between atoms: C_2  and  C_3
    2  A    between atoms: C_3  and  C_4
    3  A    between atoms: N_11  and  CA_12
    4  A    between atoms: CA_12  and  C_13
    5  A    between atoms: CA_12  and  C_29
    6  A    between atoms: C_13  and  C_14
    7  A    between atoms: C_17  and  C_18
    8  A    between atoms: C_29  and  OXT_31
                            x       y       z     vdW  Elec       q    Type
                         _______ _______ _______ _____ _____    ______ ____

>  <TORSDO>
F 8

$$$$
=
 OpenBabel07192307433D

 48 50  0  0  1  0  0  0  0  0999 V2000
    2.1530    4.8500   19.2880 C   0  0  2  0  0  0  0  0  0  0  0  0
    1.8200    5.4080   18.4050 H   0  0  0  0  0  0  0  0  0  0  0  0
    3.9070    5.9120   17.3450 O   0  0  0  0  0  0  0  0  0  0  0  0
    4.2820    4.9640   18.0300 C   0  0  0  0  0  0  0  0  0  0  0  0
    3.5460    4.4470   19.0730 N   0  0  0  0  0  0  0  0  0  0  0  0
    3.7940    3.5130   19.3870 H   0  0  0  0  0  0  0  0  0  0  0  0
    5.6130    4.2750   17.8050 C   0  0  0  0  0  0  0  0  0  0  0  0
    5.5140    3.2200   18.0960 H   0  0  0  0  0  0  0  0  0  0  0  0
    6.3620    4.6970   18.4860 H   0  0  0  0  0  0  0  0  0  0  0  0
    6.0730    4.3780   16.3760 C   0  0  0  0  0  0  0  0  0  0  0  0
    5.5060    3.5740   15.3770 C   0  0  0  0  0  0  0  0  0  0  0  0
    5.9260    3.6940   14.0490 C   0  0  0  0  0  0  0  0  0  0  0  0
    6.9110    4.6220   13.7060 C   0  0  0  0  0  0  0  0  0  0  0  0
    7.4720    5.4350   14.6890 C   0  0  0  0  0  0  0  0  0  0  0  0
    7.0480    5.3110   16.0100 C   0  0  0  0  0  0  0  0  0  0  0  0
    7.5850    6.1140   16.9420 F   0  0  0  0  0  0  0  0  0  0  0  0
    4.7300    2.8520   15.6300 H   0  0  0  0  0  0  0  0  0  0  0  0
    5.4840    3.0620   13.2820 H   0  0  0  0  0  0  0  0  0  0  0  0
    7.2360    4.7150   12.6740 H   0  0  0  0  0  0  0  0  0  0  0  0
    8.2320    6.1660   14.4330 H   0  0  0  0  0  0  0  0  0  0  0  0
    1.9910    5.7450   20.5260 C   0  0  0  0  0  0  0  0  0  0  0  0
    2.8910    5.6870   21.1520 H   0  0  0  0  0  0  0  0  0  0  0  0
    1.1760    5.3490   21.1480 H   0  0  0  0  0  0  0  0  0  0  0  0
    1.6990    7.1990   20.2290 C   0  0  0  0  0  0  0  0  0  0  0  0
    1.9320    7.7290   18.9560 C   0  0  0  0  0  0  0  0  0  0  0  0
    1.6400    9.0700   18.6800 C   0  0  0  0  0  0  0  0  0  0  0  0
    1.1090    9.9170   19.6650 C   0  0  0  0  0  0  0  0  0  0  0  0
    0.8850    9.3740   20.9410 C   0  0  0  0  0  0  0  0  0  0  0  0
    1.1770    8.0360   21.2220 C   0  0  0  0  0  0  0  0  0  0  0  0
    2.3460    7.1080   18.1640 H   0  0  0  0  0  0  0  0  0  0  0  0
    1.8310    9.4460   17.6760 H   0  0  0  0  0  0  0  0  0  0  0  0
    0.4870    9.9940   21.7420 H   0  0  0  0  0  0  0  0  0  0  0  0
    0.9920    7.6540   22.2240 H   0  0  0  0  0  0  0  0  0  0  0  0
    0.7890   11.3270   19.3700 C   0  0  0  0  0  0  0  0  0  0  0  0
    1.7440   12.1730   18.7780 C   0  0  0  0  0  0  0  0  0  0  0  0
    1.4430   13.5070   18.4980 C   0  0  0  0  0  0  0  0  0  0  0  0
    2.3750   14.2850   17.9320 F   0  0  0  0  0  0  0  0  0  0  0  0
    0.1990   14.0390   18.7940 C   0  0  0  0  0  0  0  0  0  0  0  0
   -0.7530   13.2180   19.3800 C   0  0  0  0  0  0  0  0  0  0  0  0
   -1.9600   13.7220   19.6710 F   0  0  0  0  0  0  0  0  0  0  0  0
   -0.4670   11.8830   19.6660 C   0  0  0  0  0  0  0  0  0  0  0  0
   -1.4260   11.1280   20.2260 F   0  0  0  0  0  0  0  0  0  0  0  0
    2.7390   11.8080   18.5370 H   0  0  0  0  0  0  0  0  0  0  0  0
   -0.0270   15.0760   18.5720 H   0  0  0  0  0  0  0  0  0  0  0  0
    1.2780    3.5990   19.3720 C   0  0  0  0  0  0  0  0  0  0  0  0
    0.8520    3.0690   20.3880 O   0  0  0  0  0  0  0  0  0  0  0  0
    0.9800    3.0780   18.1630 O   0  0  0  0  0  0  0  0  0  0  0  0
    0.4620    2.2730   18.3770 H   0  0  0  0  0  0  0  0  0  0  0  0
  1  2  1  6  0  0  0
  1 45  1  0  0  0  0
  1 21  1  0  0  0  0
  3  4  2  0  0  0  0
  4  5  1  0  0  0  0
  5  1  1  0  0  0  0
  5  6  1  0  0  0  0
  7  4  1  0  0  0  0
  7  8  1  0  0  0  0
  7  9  1  0  0  0  0
 10  7  1  0  0  0  0
 11 17  1  0  0  0  0
 11 10  2  0  0  0  0
 12 11  1  0  0  0  0
 13 12  2  0  0  0  0
 13 14  1  0  0  0  0
 14 15  2  0  0  0  0
 15 10  1  0  0  0  0
 15 16  1  0  0  0  0
 18 12  1  0  0  0  0
 19 13  1  0  0  0  0
 20 14  1  0  0  0  0
 21 23  1  0  0  0  0
 21 22  1  0  0  0  0
 24 21  1  0  0  0  0
 24 29  1  0  0  0  0
 25 24  2  0  0  0  0
 26 25  1  0  0  0  0
 26 27  2  0  0  0  0
 27 28  1  0  0  0  0
 28 29  2  0  0  0  0
 28 32  1  0  0  0  0
 29 33  1  0  0  0  0
 30 25  1  0  0  0  0
 31 26  1  0  0  0  0
 34 27  1  0  0  0  0
 34 41  1  0  0  0  0
 35 34  2  0  0  0  0
 36 35  1  0  0  0  0
 36 38  2  0  0  0  0
 37 36  1  0  0  0  0
 38 39  1  0  0  0  0
 39 41  2  0  0  0  0
 39 40  1  0  0  0  0
 41 42  1  0  0  0  0
 43 35  1  0  0  0  0
 44 38  1  0  0  0  0
 45 46  2  0  0  0  0
 47 48  1  0  0  0  0
 47 45  1  0  0  0  0
M  END
>  <MODEL>
20

>  <REMARK>
 VINA RESULT:    -7.706      2.685      5.144
 INTER + INTRA:         -11.916
 INTER:                 -11.058
 INTRA:                  -0.858
 UNBOUND:                -0.831
  Name = 
  8 active torsions:
  status: ('A' for Active; 'I' for Inactive)
    1  A    between atoms: C_2  and  C_3
    2  A    between atoms: C_3  and  C_4
    3  A    between atoms: N_11  and  CA_12
    4  A    between atoms: CA_12  and  C_13
    5  A    between atoms: CA_12  and  C_29
    6  A    between atoms: C_13  and  C_14
    7  A    between atoms: C_17  and  C_18
    8  A    between atoms: C_29  and  OXT_31
                            x       y       z     vdW  Elec       q    Type
                         _______ _______ _______ _____ _____    ______ ____

>  <TORSDO>
F 8

$$$$
=
 OpenBabel07192307433D

 48 50  0  0  1  0  0  0  0  0999 V2000
    6.0000    4.1840   15.9540 C   0  0  2  0  0  0  0  0  0  0  0  0
    6.7030    3.3860   16.2210 H   0  0  0  0  0  0  0  0  0  0  0  0
    5.2280    2.7630   18.2700 O   0  0  0  0  0  0  0  0  0  0  0  0
    4.3990    2.9490   17.3820 C   0  0  0  0  0  0  0  0  0  0  0  0
    4.6460    3.7200   16.2680 N   0  0  0  0  0  0  0  0  0  0  0  0
    4.0250    3.5870   15.4750 H   0  0  0  0  0  0  0  0  0  0  0  0
    3.0050    2.3580   17.4350 C   0  0  0  0  0  0  0  0  0  0  0  0
    3.0890    1.2630   17.4300 H   0  0  0  0  0  0  0  0  0  0  0  0
    2.4650    2.6140   16.5150 H   0  0  0  0  0  0  0  0  0  0  0  0
    2.2390    2.8140   18.6480 C   0  0  0  0  0  0  0  0  0  0  0  0
    2.2440    2.0590   19.8290 C   0  0  0  0  0  0  0  0  0  0  0  0
    1.5470    2.5040   20.9560 C   0  0  0  0  0  0  0  0  0  0  0  0
    0.8440    3.7090   20.9150 C   0  0  0  0  0  0  0  0  0  0  0  0
    0.8430    4.4740   19.7500 C   0  0  0  0  0  0  0  0  0  0  0  0
    1.5410    4.0250   18.6310 C   0  0  0  0  0  0  0  0  0  0  0  0
    1.5450    4.7830   17.5230 F   0  0  0  0  0  0  0  0  0  0  0  0
    2.7970    1.1200   19.8770 H   0  0  0  0  0  0  0  0  0  0  0  0
    1.5530    1.9080   21.8660 H   0  0  0  0  0  0  0  0  0  0  0  0
    0.3040    4.0540   21.7920 H   0  0  0  0  0  0  0  0  0  0  0  0
    0.3070    5.4170   19.7100 H   0  0  0  0  0  0  0  0  0  0  0  0
    6.3760    5.4530   16.7340 C   0  0  0  0  0  0  0  0  0  0  0  0
    6.9040    6.1550   16.0760 H   0  0  0  0  0  0  0  0  0  0  0  0
    7.0970    5.1890   17.5190 H   0  0  0  0  0  0  0  0  0  0  0  0
    5.2130    6.1740   17.3790 C   0  0  0  0  0  0  0  0  0  0  0  0
    4.8750    5.9340   18.7140 C   0  0  0  0  0  0  0  0  0  0  0  0
    3.8120    6.6200   19.3120 C   0  0  0  0  0  0  0  0  0  0  0  0
    3.0580    7.5620   18.5960 C   0  0  0  0  0  0  0  0  0  0  0  0
    3.4040    7.7900   17.2530 C   0  0  0  0  0  0  0  0  0  0  0  0
    4.4640    7.1060   16.6510 C   0  0  0  0  0  0  0  0  0  0  0  0
    5.4310    5.2090   19.3050 H   0  0  0  0  0  0  0  0  0  0  0  0
    3.5800    6.4090   20.3560 H   0  0  0  0  0  0  0  0  0  0  0  0
    2.8400    8.5010   16.6520 H   0  0  0  0  0  0  0  0  0  0  0  0
    4.6980    7.3080   15.6080 H   0  0  0  0  0  0  0  0  0  0  0  0
    1.9450    8.2940   19.2310 C   0  0  0  0  0  0  0  0  0  0  0  0
    1.5380    7.9890   20.5430 C   0  0  0  0  0  0  0  0  0  0  0  0
    0.4870    8.6810   21.1450 C   0  0  0  0  0  0  0  0  0  0  0  0
    0.1250    8.3660   22.3960 F   0  0  0  0  0  0  0  0  0  0  0  0
   -0.1900    9.6870   20.4730 C   0  0  0  0  0  0  0  0  0  0  0  0
    0.1980    9.9970   19.1780 C   0  0  0  0  0  0  0  0  0  0  0  0
   -0.4480   10.9680   18.5180 F   0  0  0  0  0  0  0  0  0  0  0  0
    1.2480    9.3150   18.5620 C   0  0  0  0  0  0  0  0  0  0  0  0
    1.5910    9.6600   17.3100 F   0  0  0  0  0  0  0  0  0  0  0  0
    2.0280    7.2010   21.1090 H   0  0  0  0  0  0  0  0  0  0  0  0
   -1.0050   10.2190   20.9490 H   0  0  0  0  0  0  0  0  0  0  0  0
    6.1220    4.3880   14.4440 C   0  0  0  0  0  0  0  0  0  0  0  0
    5.3780    3.9450   13.5800 O   0  0  0  0  0  0  0  0  0  0  0  0
    7.1830    5.1480   14.0960 O   0  0  0  0  0  0  0  0  0  0  0  0
    7.9010    4.4950   13.9530 H   0  0  0  0  0  0  0  0  0  0  0  0
  1  2  1  1  0  0  0
  1  5  1  0  0  0  0
  1 21  1  0  0  0  0
  4  7  1  0  0  0  0
  4  3  2  0  0  0  0
  5  4  1  0  0  0  0
  6  5  1  0  0  0  0
  7 10  1  0  0  0  0
  8  7  1  0  0  0  0
  9  7  1  0  0  0  0
 10 11  1  0  0  0  0
 11 17  1  0  0  0  0
 11 12  2  0  0  0  0
 12 18  1  0  0  0  0
 13 12  1  0  0  0  0
 13 19  1  0  0  0  0
 14 13  2  0  0  0  0
 15 10  2  0  0  0  0
 15 14  1  0  0  0  0
 16 15  1  0  0  0  0
 20 14  1  0  0  0  0
 21 24  1  0  0  0  0
 21 23  1  0  0  0  0
 22 21  1  0  0  0  0
 24 25  1  0  0  0  0
 25 30  1  0  0  0  0
 25 26  2  0  0  0  0
 26 31  1  0  0  0  0
 27 34  1  0  0  0  0
 27 26  1  0  0  0  0
 28 27  2  0  0  0  0
 29 28  1  0  0  0  0
 29 24  2  0  0  0  0
 32 28  1  0  0  0  0
 33 29  1  0  0  0  0
 34 35  1  0  0  0  0
 35 43  1  0  0  0  0
 35 36  2  0  0  0  0
 36 37  1  0  0  0  0
 38 44  1  0  0  0  0
 38 36  1  0  0  0  0
 39 38  2  0  0  0  0
 40 39  1  0  0  0  0
 41 39  1  0  0  0  0
 41 34  2  0  0  0  0
 42 41  1  0  0  0  0
 45  1  1  0  0  0  0
 46 45  2  0  0  0  0
 47 45  1  0  0  0  0
 48 47  1  0  0  0  0
M  END
>  <MODEL>
21

>  <REMARK>
 VINA RESULT:    -7.691      1.635      2.101
 INTER + INTRA:         -11.894
 INTER:                 -10.451
 INTRA:                  -1.443
 UNBOUND:                -0.831
  Name = 
  8 active torsions:
  status: ('A' for Active; 'I' for Inactive)
    1  A    between atoms: C_2  and  C_3
    2  A    between atoms: C_3  and  C_4
    3  A    between atoms: N_11  and  CA_12
    4  A    between atoms: CA_12  and  C_13
    5  A    between atoms: CA_12  and  C_29
    6  A    between atoms: C_13  and  C_14
    7  A    between atoms: C_17  and  C_18
    8  A    between atoms: C_29  and  OXT_31
                            x       y       z     vdW  Elec       q    Type
                         _______ _______ _______ _____ _____    ______ ____

>  <TORSDO>
F 8

$$$$
=
 OpenBabel07192307433D

 48 50  0  0  1  0  0  0  0  0999 V2000
   -0.1230   11.2640   19.6820 C   0  0  2  0  0  0  0  0  0  0  0  0
   -0.2820   10.7650   18.7180 H   0  0  0  0  0  0  0  0  0  0  0  0
   -2.4070   11.9510   18.1690 O   0  0  0  0  0  0  0  0  0  0  0  0
   -2.4520   12.0500   19.3920 C   0  0  0  0  0  0  0  0  0  0  0  0
   -1.4330   11.6380   20.2220 N   0  0  0  0  0  0  0  0  0  0  0  0
   -1.4360   12.0100   21.1670 H   0  0  0  0  0  0  0  0  0  0  0  0
   -3.6530   12.6240   20.1180 C   0  0  0  0  0  0  0  0  0  0  0  0
   -4.4100   11.8340   20.2190 H   0  0  0  0  0  0  0  0  0  0  0  0
   -4.1200   13.3970   19.4950 H   0  0  0  0  0  0  0  0  0  0  0  0
   -3.2920   13.1740   21.4710 C   0  0  0  0  0  0  0  0  0  0  0  0
   -3.6520   12.4950   22.6440 C   0  0  0  0  0  0  0  0  0  0  0  0
   -3.2910   13.0050   23.8950 C   0  0  0  0  0  0  0  0  0  0  0  0
   -2.5640   14.1930   23.9850 C   0  0  0  0  0  0  0  0  0  0  0  0
   -2.1900   14.8690   22.8250 C   0  0  0  0  0  0  0  0  0  0  0  0
   -2.5520   14.3550   21.5810 C   0  0  0  0  0  0  0  0  0  0  0  0
   -2.1690   15.0090   20.4730 F   0  0  0  0  0  0  0  0  0  0  0  0
   -4.2110   11.5620   22.5870 H   0  0  0  0  0  0  0  0  0  0  0  0
   -3.5790   12.4730   24.7990 H   0  0  0  0  0  0  0  0  0  0  0  0
   -2.2840   14.5880   24.9580 H   0  0  0  0  0  0  0  0  0  0  0  0
   -1.6180   15.7890   22.8820 H   0  0  0  0  0  0  0  0  0  0  0  0
    0.6380   10.3060   20.6120 C   0  0  0  0  0  0  0  0  0  0  0  0
   -0.0290    9.9440   21.4050 H   0  0  0  0  0  0  0  0  0  0  0  0
    1.4310   10.8650   21.1270 H   0  0  0  0  0  0  0  0  0  0  0  0
    1.2660    9.1130   19.9240 C   0  0  0  0  0  0  0  0  0  0  0  0
    1.5800    9.1570   18.5620 C   0  0  0  0  0  0  0  0  0  0  0  0
    2.1810    8.0590   17.9370 C   0  0  0  0  0  0  0  0  0  0  0  0
    2.4850    6.8900   18.6500 C   0  0  0  0  0  0  0  0  0  0  0  0
    2.1600    6.8570   20.0170 C   0  0  0  0  0  0  0  0  0  0  0  0
    1.5570    7.9500   20.6460 C   0  0  0  0  0  0  0  0  0  0  0  0
    1.3580   10.0430   17.9710 H   0  0  0  0  0  0  0  0  0  0  0  0
    2.4140    8.1310   16.8740 H   0  0  0  0  0  0  0  0  0  0  0  0
    2.3630    5.9670   20.6110 H   0  0  0  0  0  0  0  0  0  0  0  0
    1.3180    7.8840   21.7050 H   0  0  0  0  0  0  0  0  0  0  0  0
    3.1310    5.7380   17.9930 C   0  0  0  0  0  0  0  0  0  0  0  0
    2.4670    4.5010   17.8940 C   0  0  0  0  0  0  0  0  0  0  0  0
    3.0770    3.4100   17.2720 C   0  0  0  0  0  0  0  0  0  0  0  0
    2.4170    2.2470   17.1940 F   0  0  0  0  0  0  0  0  0  0  0  0
    4.3500    3.5090   16.7350 C   0  0  0  0  0  0  0  0  0  0  0  0
    5.0170    4.7200   16.8270 C   0  0  0  0  0  0  0  0  0  0  0  0
    6.2490    4.8280   16.3110 F   0  0  0  0  0  0  0  0  0  0  0  0
    4.4220    5.8200   17.4450 C   0  0  0  0  0  0  0  0  0  0  0  0
    5.1070    6.9740   17.5000 F   0  0  0  0  0  0  0  0  0  0  0  0
    1.4720    4.3670   18.3100 H   0  0  0  0  0  0  0  0  0  0  0  0
    4.8150    2.6560   16.2530 H   0  0  0  0  0  0  0  0  0  0  0  0
    0.6800   12.5320   19.3930 C   0  0  0  0  0  0  0  0  0  0  0  0
    1.3840   13.1500   20.1780 O   0  0  0  0  0  0  0  0  0  0  0  0
    0.5550   12.9590   18.1180 O   0  0  0  0  0  0  0  0  0  0  0  0
    1.3380   12.5790   17.6660 H   0  0  0  0  0  0  0  0  0  0  0  0
  1  2  1  6  0  0  0
  1  5  1  0  0  0  0
  1 21  1  0  0  0  0
  3  4  2  0  0  0  0
  4  7  1  0  0  0  0
  4  5  1  0  0  0  0
  5  6  1  0  0  0  0
  7  8  1  0  0  0  0
  7 10  1  0  0  0  0
  9  7  1  0  0  0  0
 10 15  2  0  0  0  0
 10 11  1  0  0  0  0
 11 12  2  0  0  0  0
 12 13  1  0  0  0  0
 12 18  1  0  0  0  0
 13 19  1  0  0  0  0
 14 20  1  0  0  0  0
 14 13  2  0  0  0  0
 15 14  1  0  0  0  0
 16 15  1  0  0  0  0
 17 11  1  0  0  0  0
 21 23  1  0  0  0  0
 21 22  1  0  0  0  0
 24 21  1  0  0  0  0
 24 29  1  0  0  0  0
 25 24  2  0  0  0  0
 26 25  1  0  0  0  0
 26 27  2  0  0  0  0
 27 28  1  0  0  0  0
 28 32  1  0  0  0  0
 28 29  2  0  0  0  0
 29 33  1  0  0  0  0
 30 25  1  0  0  0  0
 31 26  1  0  0  0  0
 34 27  1  0  0  0  0
 35 34  1  0  0  0  0
 35 43  1  0  0  0  0
 36 35  2  0  0  0  0
 37 36  1  0  0  0  0
 38 39  2  0  0  0  0
 38 36  1  0  0  0  0
 39 41  1  0  0  0  0
 40 39  1  0  0  0  0
 41 42  1  0  0  0  0
 41 34  2  0  0  0  0
 44 38  1  0  0  0  0
 45  1  1  0  0  0  0
 45 46  2  0  0  0  0
 47 45  1  0  0  0  0
 48 47  1  0  0  0  0
M  END
>  <MODEL>
22

>  <REMARK>
 VINA RESULT:    -7.660      4.781      9.495
 INTER + INTRA:         -11.850
 INTER:                 -10.929
 INTRA:                  -0.921
 UNBOUND:                -0.831
  Name = 
  8 active torsions:
  status: ('A' for Active; 'I' for Inactive)
    1  A    between atoms: C_2  and  C_3
    2  A    between atoms: C_3  and  C_4
    3  A    between atoms: N_11  and  CA_12
    4  A    between atoms: CA_12  and  C_13
    5  A    between atoms: CA_12  and  C_29
    6  A    between atoms: C_13  and  C_14
    7  A    between atoms: C_17  and  C_18
    8  A    between atoms: C_29  and  OXT_31
                            x       y       z     vdW  Elec       q    Type
                         _______ _______ _______ _____ _____    ______ ____

>  <TORSDO>
F 8

$$$$
=
 OpenBabel07192307433D

 48 50  0  0  1  0  0  0  0  0999 V2000
   -1.0450   11.9790   22.8750 C   0  0  2  0  0  0  0  0  0  0  0  0
   -0.1960   12.4580   23.3760 H   0  0  0  0  0  0  0  0  0  0  0  0
    0.9530   13.5170   21.6020 O   0  0  0  0  0  0  0  0  0  0  0  0
    0.0890   12.9770   20.9150 C   0  0  0  0  0  0  0  0  0  0  0  0
   -0.8600   12.1210   21.4290 N   0  0  0  0  0  0  0  0  0  0  0  0
   -1.6810   11.9550   20.8550 H   0  0  0  0  0  0  0  0  0  0  0  0
   -0.0060   13.1870   19.4170 C   0  0  0  0  0  0  0  0  0  0  0  0
    0.9980   13.4160   19.0320 H   0  0  0  0  0  0  0  0  0  0  0  0
   -0.6080   14.0800   19.2110 H   0  0  0  0  0  0  0  0  0  0  0  0
   -0.5730   11.9860   18.7090 C   0  0  0  0  0  0  0  0  0  0  0  0
   -1.8470   12.0300   18.1250 C   0  0  0  0  0  0  0  0  0  0  0  0
   -2.3540   10.9150   17.4510 C   0  0  0  0  0  0  0  0  0  0  0  0
   -1.5920    9.7500   17.3490 C   0  0  0  0  0  0  0  0  0  0  0  0
   -0.3190    9.7010   17.9140 C   0  0  0  0  0  0  0  0  0  0  0  0
    0.1810   10.8160   18.5840 C   0  0  0  0  0  0  0  0  0  0  0  0
    1.4160   10.7570   19.1070 F   0  0  0  0  0  0  0  0  0  0  0  0
   -2.4480   12.9360   18.1900 H   0  0  0  0  0  0  0  0  0  0  0  0
   -3.3460   10.9570   17.0060 H   0  0  0  0  0  0  0  0  0  0  0  0
   -1.9870    8.8850   16.8240 H   0  0  0  0  0  0  0  0  0  0  0  0
    0.2860    8.8030   17.8340 H   0  0  0  0  0  0  0  0  0  0  0  0
   -1.1080   10.5070   23.3120 C   0  0  0  0  0  0  0  0  0  0  0  0
   -2.1510   10.1660   23.3360 H   0  0  0  0  0  0  0  0  0  0  0  0
   -0.7500   10.4270   24.3480 H   0  0  0  0  0  0  0  0  0  0  0  0
   -0.3040    9.5520   22.4560 C   0  0  0  0  0  0  0  0  0  0  0  0
    1.0930    9.5660   22.4910 C   0  0  0  0  0  0  0  0  0  0  0  0
    1.8310    8.6650   21.7140 C   0  0  0  0  0  0  0  0  0  0  0  0
    1.1960    7.7300   20.8820 C   0  0  0  0  0  0  0  0  0  0  0  0
   -0.2080    7.7310   20.8520 C   0  0  0  0  0  0  0  0  0  0  0  0
   -0.9490    8.6300   21.6250 C   0  0  0  0  0  0  0  0  0  0  0  0
    1.6260   10.2770   23.1190 H   0  0  0  0  0  0  0  0  0  0  0  0
    2.9190    8.7020   21.7690 H   0  0  0  0  0  0  0  0  0  0  0  0
   -0.7470    7.0340   20.2130 H   0  0  0  0  0  0  0  0  0  0  0  0
   -2.0360    8.6010   21.5720 H   0  0  0  0  0  0  0  0  0  0  0  0
    1.9750    6.7730   20.0730 C   0  0  0  0  0  0  0  0  0  0  0  0
    2.0890    5.4260   20.4640 C   0  0  0  0  0  0  0  0  0  0  0  0
    2.8240    4.5190   19.6990 C   0  0  0  0  0  0  0  0  0  0  0  0
    2.9120    3.2440   20.0990 F   0  0  0  0  0  0  0  0  0  0  0  0
    3.4640    4.9140   18.5350 C   0  0  0  0  0  0  0  0  0  0  0  0
    3.3630    6.2390   18.1380 C   0  0  0  0  0  0  0  0  0  0  0  0
    3.9770    6.6330   17.0140 F   0  0  0  0  0  0  0  0  0  0  0  0
    2.6310    7.1580   18.8910 C   0  0  0  0  0  0  0  0  0  0  0  0
    2.5570    8.4270   18.4590 F   0  0  0  0  0  0  0  0  0  0  0  0
    1.6160    5.0680   21.3740 H   0  0  0  0  0  0  0  0  0  0  0  0
    4.0330    4.2020   17.9470 H   0  0  0  0  0  0  0  0  0  0  0  0
   -2.2960   12.7500   23.2980 C   0  0  0  0  0  0  0  0  0  0  0  0
   -2.4350   13.9640   23.3270 O   0  0  0  0  0  0  0  0  0  0  0  0
   -3.3150   11.9440   23.6670 O   0  0  0  0  0  0  0  0  0  0  0  0
   -4.1050   12.5240   23.6060 H   0  0  0  0  0  0  0  0  0  0  0  0
  1 45  1  0  0  0  0
  1 21  1  0  0  0  0
  1  2  1  1  0  0  0
  4  5  1  0  0  0  0
  4  3  2  0  0  0  0
  5  1  1  0  0  0  0
  6  5  1  0  0  0  0
  7  4  1  0  0  0  0
  8  7  1  0  0  0  0
  9  7  1  0  0  0  0
 10  7  1  0  0  0  0
 11 17  1  0  0  0  0
 11 10  2  0  0  0  0
 12 11  1  0  0  0  0
 13 12  2  0  0  0  0
 13 14  1  0  0  0  0
 14 15  2  0  0  0  0
 15 10  1  0  0  0  0
 15 16  1  0  0  0  0
 18 12  1  0  0  0  0
 19 13  1  0  0  0  0
 20 14  1  0  0  0  0
 21 22  1  0  0  0  0
 21 23  1  0  0  0  0
 24 25  1  0  0  0  0
 24 21  1  0  0  0  0
 25 30  1  0  0  0  0
 26 31  1  0  0  0  0
 26 25  2  0  0  0  0
 27 26  1  0  0  0  0
 28 27  2  0  0  0  0
 28 29  1  0  0  0  0
 29 24  2  0  0  0  0
 32 28  1  0  0  0  0
 33 29  1  0  0  0  0
 34 35  1  0  0  0  0
 34 27  1  0  0  0  0
 35 43  1  0  0  0  0
 36 37  1  0  0  0  0
 36 35  2  0  0  0  0
 38 36  1  0  0  0  0
 39 38  2  0  0  0  0
 39 41  1  0  0  0  0
 40 39  1  0  0  0  0
 41 34  2  0  0  0  0
 42 41  1  0  0  0  0
 44 38  1  0  0  0  0
 45 46  2  0  0  0  0
 45 47  1  0  0  0  0
 48 47  1  0  0  0  0
M  END
>  <MODEL>
23

>  <REMARK>
 VINA RESULT:    -7.651      5.063      8.834
 INTER + INTRA:         -11.837
 INTER:                  -9.456
 INTRA:                  -2.381
 UNBOUND:                -0.831
  Name = 
  8 active torsions:
  status: ('A' for Active; 'I' for Inactive)
    1  A    between atoms: C_2  and  C_3
    2  A    between atoms: C_3  and  C_4
    3  A    between atoms: N_11  and  CA_12
    4  A    between atoms: CA_12  and  C_13
    5  A    between atoms: CA_12  and  C_29
    6  A    between atoms: C_13  and  C_14
    7  A    between atoms: C_17  and  C_18
    8  A    between atoms: C_29  and  OXT_31
                            x       y       z     vdW  Elec       q    Type
                         _______ _______ _______ _____ _____    ______ ____

>  <TORSDO>
F 8

$$$$
=
 OpenBabel07192307433D

 48 50  0  0  1  0  0  0  0  0999 V2000
    6.0190    4.2240   16.0280 C   0  0  2  0  0  0  0  0  0  0  0  0
    6.7340    3.4380   16.2980 H   0  0  0  0  0  0  0  0  0  0  0  0
    5.2360    2.8490   18.3680 O   0  0  0  0  0  0  0  0  0  0  0  0
    4.4210    2.9890   17.4590 C   0  0  0  0  0  0  0  0  0  0  0  0
    4.6710    3.7350   16.3280 N   0  0  0  0  0  0  0  0  0  0  0  0
    4.0690    3.5640   15.5280 H   0  0  0  0  0  0  0  0  0  0  0  0
    3.0410    2.3650   17.5030 C   0  0  0  0  0  0  0  0  0  0  0  0
    3.1510    1.2720   17.4860 H   0  0  0  0  0  0  0  0  0  0  0  0
    2.4970    2.6180   16.5840 H   0  0  0  0  0  0  0  0  0  0  0  0
    2.2620    2.7900   18.7180 C   0  0  0  0  0  0  0  0  0  0  0  0
    2.2790    2.0200   19.8900 C   0  0  0  0  0  0  0  0  0  0  0  0
    1.5690    2.4360   21.0200 C   0  0  0  0  0  0  0  0  0  0  0  0
    0.8410    3.6260   20.9910 C   0  0  0  0  0  0  0  0  0  0  0  0
    0.8270    4.4050   19.8360 C   0  0  0  0  0  0  0  0  0  0  0  0
    1.5380    3.9850   18.7140 C   0  0  0  0  0  0  0  0  0  0  0  0
    1.5290    4.7560   17.6150 F   0  0  0  0  0  0  0  0  0  0  0  0
    2.8520    1.0930   19.9280 H   0  0  0  0  0  0  0  0  0  0  0  0
    1.5850    1.8290   21.9230 H   0  0  0  0  0  0  0  0  0  0  0  0
    0.2900    3.9490   21.8710 H   0  0  0  0  0  0  0  0  0  0  0  0
    0.2710    5.3370   19.8050 H   0  0  0  0  0  0  0  0  0  0  0  0
    6.3660    5.4970   16.8150 C   0  0  0  0  0  0  0  0  0  0  0  0
    6.9350    6.1880   16.1800 H   0  0  0  0  0  0  0  0  0  0  0  0
    7.0410    5.2330   17.6400 H   0  0  0  0  0  0  0  0  0  0  0  0
    5.1770    6.2350   17.3920 C   0  0  0  0  0  0  0  0  0  0  0  0
    4.7930    6.0420   18.7220 C   0  0  0  0  0  0  0  0  0  0  0  0
    3.7070    6.7440   19.2560 C   0  0  0  0  0  0  0  0  0  0  0  0
    2.9740    7.6550   18.4790 C   0  0  0  0  0  0  0  0  0  0  0  0
    3.3670    7.8350   17.1420 C   0  0  0  0  0  0  0  0  0  0  0  0
    4.4500    7.1340   16.6040 C   0  0  0  0  0  0  0  0  0  0  0  0
    5.3310    5.3430   19.3590 H   0  0  0  0  0  0  0  0  0  0  0  0
    3.4390    6.5710   20.2980 H   0  0  0  0  0  0  0  0  0  0  0  0
    2.8220    8.5200   16.4950 H   0  0  0  0  0  0  0  0  0  0  0  0
    4.7210    7.2990   15.5630 H   0  0  0  0  0  0  0  0  0  0  0  0
    1.8370    8.4040   19.0470 C   0  0  0  0  0  0  0  0  0  0  0  0
    1.1730    9.3870   18.2900 C   0  0  0  0  0  0  0  0  0  0  0  0
    0.0970   10.0960   18.8250 C   0  0  0  0  0  0  0  0  0  0  0  0
   -0.5140   11.0240   18.0760 F   0  0  0  0  0  0  0  0  0  0  0  0
   -0.3510    9.8570   20.1140 C   0  0  0  0  0  0  0  0  0  0  0  0
    0.2950    8.8930   20.8730 C   0  0  0  0  0  0  0  0  0  0  0  0
   -0.1290    8.6540   22.1220 F   0  0  0  0  0  0  0  0  0  0  0  0
    1.3720    8.1760   20.3530 C   0  0  0  0  0  0  0  0  0  0  0  0
    1.9570    7.2470   21.1260 F   0  0  0  0  0  0  0  0  0  0  0  0
    1.4920    9.6210   17.2770 H   0  0  0  0  0  0  0  0  0  0  0  0
   -1.1890   10.4130   20.5210 H   0  0  0  0  0  0  0  0  0  0  0  0
    6.1490    4.4370   14.5190 C   0  0  0  0  0  0  0  0  0  0  0  0
    5.4350    3.9650   13.6470 O   0  0  0  0  0  0  0  0  0  0  0  0
    7.1820    5.2400   14.1850 O   0  0  0  0  0  0  0  0  0  0  0  0
    6.8980    6.1270   14.4960 H   0  0  0  0  0  0  0  0  0  0  0  0
  1  2  1  1  0  0  0
  1  5  1  0  0  0  0
  1 21  1  0  0  0  0
  4  7  1  0  0  0  0
  4  3  2  0  0  0  0
  5  4  1  0  0  0  0
  6  5  1  0  0  0  0
  7 10  1  0  0  0  0
  8  7  1  0  0  0  0
  9  7  1  0  0  0  0
 10 11  1  0  0  0  0
 11 17  1  0  0  0  0
 11 12  2  0  0  0  0
 12 18  1  0  0  0  0
 13 12  1  0  0  0  0
 13 19  1  0  0  0  0
 14 13  2  0  0  0  0
 15 10  2  0  0  0  0
 15 14  1  0  0  0  0
 16 15  1  0  0  0  0
 20 14  1  0  0  0  0
 21 24  1  0  0  0  0
 21 23  1  0  0  0  0
 22 21  1  0  0  0  0
 24 25  1  0  0  0  0
 25 26  2  0  0  0  0
 25 30  1  0  0  0  0
 26 31  1  0  0  0  0
 27 34  1  0  0  0  0
 27 26  1  0  0  0  0
 28 27  2  0  0  0  0
 29 28  1  0  0  0  0
 29 24  2  0  0  0  0
 32 28  1  0  0  0  0
 33 29  1  0  0  0  0
 34 41  1  0  0  0  0
 35 36  1  0  0  0  0
 35 34  2  0  0  0  0
 36 38  2  0  0  0  0
 37 36  1  0  0  0  0
 38 44  1  0  0  0  0
 38 39  1  0  0  0  0
 39 40  1  0  0  0  0
 41 39  2  0  0  0  0
 41 42  1  0  0  0  0
 43 35  1  0  0  0  0
 45  1  1  0  0  0  0
 46 45  2  0  0  0  0
 47 48  1  0  0  0  0
 47 45  1  0  0  0  0
M  END
>  <MODEL>
24

>  <REMARK>
 VINA RESULT:    -7.642      1.723      2.644
 INTER + INTRA:         -11.825
 INTER:                 -10.383
 INTRA:                  -1.441
 UNBOUND:                -0.831
  Name = 
  8 active torsions:
  status: ('A' for Active; 'I' for Inactive)
    1  A    between atoms: C_2  and  C_3
    2  A    between atoms: C_3  and  C_4
    3  A    between atoms: N_11  and  CA_12
    4  A    between atoms: CA_12  and  C_13
    5  A    between atoms: CA_12  and  C_29
    6  A    between atoms: C_13  and  C_14
    7  A    between atoms: C_17  and  C_18
    8  A    between atoms: C_29  and  OXT_31
                            x       y       z     vdW  Elec       q    Type
                         _______ _______ _______ _____ _____    ______ ____

>  <TORSDO>
F 8

$$$$
=
 OpenBabel07192307433D

 48 50  0  0  1  0  0  0  0  0999 V2000
    1.4300    4.5340   19.5210 C   0  0  2  0  0  0  0  0  0  0  0  0
    0.5400    5.0000   19.0810 H   0  0  0  0  0  0  0  0  0  0  0  0
    4.0280    3.4680   19.8310 O   0  0  0  0  0  0  0  0  0  0  0  0
    3.6730    3.8580   18.7210 C   0  0  0  0  0  0  0  0  0  0  0  0
    2.3950    4.2910   18.4450 N   0  0  0  0  0  0  0  0  0  0  0  0
    2.2740    4.8460   17.6030 H   0  0  0  0  0  0  0  0  0  0  0  0
    4.6100    3.8820   17.5300 C   0  0  0  0  0  0  0  0  0  0  0  0
    4.0130    4.0140   16.6180 H   0  0  0  0  0  0  0  0  0  0  0  0
    5.0920    2.9020   17.4250 H   0  0  0  0  0  0  0  0  0  0  0  0
    5.6400    4.9740   17.6390 C   0  0  0  0  0  0  0  0  0  0  0  0
    6.9000    4.7220   18.2010 C   0  0  0  0  0  0  0  0  0  0  0  0
    7.8560    5.7390   18.2770 C   0  0  0  0  0  0  0  0  0  0  0  0
    7.5660    7.0140   17.7870 C   0  0  0  0  0  0  0  0  0  0  0  0
    6.3220    7.2710   17.2140 C   0  0  0  0  0  0  0  0  0  0  0  0
    5.3730    6.2530   17.1410 C   0  0  0  0  0  0  0  0  0  0  0  0
    4.1860    6.5120   16.5700 F   0  0  0  0  0  0  0  0  0  0  0  0
    7.1420    3.7290   18.5790 H   0  0  0  0  0  0  0  0  0  0  0  0
    8.8290    5.5350   18.7200 H   0  0  0  0  0  0  0  0  0  0  0  0
    8.3110    7.8020   17.8460 H   0  0  0  0  0  0  0  0  0  0  0  0
    6.0880    8.2550   16.8220 H   0  0  0  0  0  0  0  0  0  0  0  0
    1.9910    5.4680   20.6040 C   0  0  0  0  0  0  0  0  0  0  0  0
    3.0890    5.4580   20.5770 H   0  0  0  0  0  0  0  0  0  0  0  0
    1.7190    5.0720   21.5920 H   0  0  0  0  0  0  0  0  0  0  0  0
    1.5160    6.9020   20.5200 C   0  0  0  0  0  0  0  0  0  0  0  0
    1.9710    7.7460   19.5020 C   0  0  0  0  0  0  0  0  0  0  0  0
    1.5120    9.0650   19.4150 C   0  0  0  0  0  0  0  0  0  0  0  0
    0.5880    9.5780   20.3400 C   0  0  0  0  0  0  0  0  0  0  0  0
    0.1440    8.7210   21.3610 C   0  0  0  0  0  0  0  0  0  0  0  0
    0.6020    7.4030   21.4520 C   0  0  0  0  0  0  0  0  0  0  0  0
    2.6900    7.3910   18.7660 H   0  0  0  0  0  0  0  0  0  0  0  0
    1.8850    9.6930   18.6060 H   0  0  0  0  0  0  0  0  0  0  0  0
   -0.5610    9.0760   22.1100 H   0  0  0  0  0  0  0  0  0  0  0  0
    0.2360    6.7720   22.2600 H   0  0  0  0  0  0  0  0  0  0  0  0
    0.0950   10.9640   20.2400 C   0  0  0  0  0  0  0  0  0  0  0  0
   -0.0540   11.5870   18.9870 C   0  0  0  0  0  0  0  0  0  0  0  0
   -0.5210   12.8990   18.8910 C   0  0  0  0  0  0  0  0  0  0  0  0
   -0.6530   13.4610   17.6820 F   0  0  0  0  0  0  0  0  0  0  0  0
   -0.8510   13.6280   20.0220 C   0  0  0  0  0  0  0  0  0  0  0  0
   -0.7070   13.0290   21.2640 C   0  0  0  0  0  0  0  0  0  0  0  0
   -1.0230   13.7240   22.3650 F   0  0  0  0  0  0  0  0  0  0  0  0
   -0.2420   11.7180   21.3770 C   0  0  0  0  0  0  0  0  0  0  0  0
   -0.1290   11.1810   22.6030 F   0  0  0  0  0  0  0  0  0  0  0  0
    0.2020   11.0630   18.0700 H   0  0  0  0  0  0  0  0  0  0  0  0
   -1.2150   14.6460   19.9370 H   0  0  0  0  0  0  0  0  0  0  0  0
    0.9810    3.1940   20.1030 C   0  0  0  0  0  0  0  0  0  0  0  0
    1.2700    2.7360   21.2000 O   0  0  0  0  0  0  0  0  0  0  0  0
    0.1840    2.4930   19.2680 O   0  0  0  0  0  0  0  0  0  0  0  0
    0.2320    1.5760   19.6140 H   0  0  0  0  0  0  0  0  0  0  0  0
  1  2  1  6  0  0  0
  1 45  1  0  0  0  0
  1 21  1  0  0  0  0
  4  3  2  0  0  0  0
  5  4  1  0  0  0  0
  5  1  1  0  0  0  0
  6  5  1  0  0  0  0
  7 10  1  0  0  0  0
  7  4  1  0  0  0  0
  8  7  1  0  0  0  0
  9  7  1  0  0  0  0
 10 11  1  0  0  0  0
 11 12  2  0  0  0  0
 11 17  1  0  0  0  0
 12 18  1  0  0  0  0
 13 19  1  0  0  0  0
 13 12  1  0  0  0  0
 14 13  2  0  0  0  0
 15 14  1  0  0  0  0
 15 10  2  0  0  0  0
 16 15  1  0  0  0  0
 20 14  1  0  0  0  0
 21 23  1  0  0  0  0
 22 21  1  0  0  0  0
 24 21  1  0  0  0  0
 24 29  1  0  0  0  0
 25 24  2  0  0  0  0
 26 25  1  0  0  0  0
 26 27  2  0  0  0  0
 27 28  1  0  0  0  0
 28 29  2  0  0  0  0
 28 32  1  0  0  0  0
 29 33  1  0  0  0  0
 30 25  1  0  0  0  0
 31 26  1  0  0  0  0
 34 27  1  0  0  0  0
 34 41  1  0  0  0  0
 35 34  2  0  0  0  0
 36 35  1  0  0  0  0
 36 38  2  0  0  0  0
 37 36  1  0  0  0  0
 38 39  1  0  0  0  0
 39 41  2  0  0  0  0
 39 40  1  0  0  0  0
 41 42  1  0  0  0  0
 43 35  1  0  0  0  0
 44 38  1  0  0  0  0
 45 46  2  0  0  0  0
 47 48  1  0  0  0  0
 47 45  1  0  0  0  0
M  END
>  <MODEL>
25

>  <REMARK>
 VINA RESULT:    -7.638      2.578      5.048
 INTER + INTRA:         -11.818
 INTER:                 -11.364
 INTRA:                  -0.454
 UNBOUND:                -0.831
  Name = 
  8 active torsions:
  status: ('A' for Active; 'I' for Inactive)
    1  A    between atoms: C_2  and  C_3
    2  A    between atoms: C_3  and  C_4
    3  A    between atoms: N_11  and  CA_12
    4  A    between atoms: CA_12  and  C_13
    5  A    between atoms: CA_12  and  C_29
    6  A    between atoms: C_13  and  C_14
    7  A    between atoms: C_17  and  C_18
    8  A    between atoms: C_29  and  OXT_31
                            x       y       z     vdW  Elec       q    Type
                         _______ _______ _______ _____ _____    ______ ____

>  <TORSDO>
F 8

$$$$
=
 OpenBabel07192307433D

 48 50  0  0  1  0  0  0  0  0999 V2000
    1.5370    4.2580   19.6470 C   0  0  2  0  0  0  0  0  0  0  0  0
    0.7650    4.7570   19.0500 H   0  0  0  0  0  0  0  0  0  0  0  0
    3.8240    2.7670   20.3720 O   0  0  0  0  0  0  0  0  0  0  0  0
    3.7270    3.1860   19.2210 C   0  0  0  0  0  0  0  0  0  0  0  0
    2.6060    3.8270   18.7420 N   0  0  0  0  0  0  0  0  0  0  0  0
    2.7210    4.3750   17.8950 H   0  0  0  0  0  0  0  0  0  0  0  0
    4.8350    3.0210   18.2000 C   0  0  0  0  0  0  0  0  0  0  0  0
    4.5820    2.1760   17.5440 H   0  0  0  0  0  0  0  0  0  0  0  0
    5.7610    2.7280   18.7100 H   0  0  0  0  0  0  0  0  0  0  0  0
    5.0460    4.2670   17.3830 C   0  0  0  0  0  0  0  0  0  0  0  0
    4.9510    4.2350   15.9840 C   0  0  0  0  0  0  0  0  0  0  0  0
    5.1290    5.4030   15.2370 C   0  0  0  0  0  0  0  0  0  0  0  0
    5.3960    6.6130   15.8790 C   0  0  0  0  0  0  0  0  0  0  0  0
    5.4800    6.6580   17.2700 C   0  0  0  0  0  0  0  0  0  0  0  0
    5.3010    5.4900   18.0080 C   0  0  0  0  0  0  0  0  0  0  0  0
    5.3670    5.5540   19.3480 F   0  0  0  0  0  0  0  0  0  0  0  0
    4.7340    3.2980   15.4710 H   0  0  0  0  0  0  0  0  0  0  0  0
    5.0580    5.3680   14.1520 H   0  0  0  0  0  0  0  0  0  0  0  0
    5.5320    7.5200   15.2970 H   0  0  0  0  0  0  0  0  0  0  0  0
    5.6790    7.5940   17.7810 H   0  0  0  0  0  0  0  0  0  0  0  0
    2.0420    5.2390   20.7180 C   0  0  0  0  0  0  0  0  0  0  0  0
    3.1320    5.1540   20.8200 H   0  0  0  0  0  0  0  0  0  0  0  0
    1.6320    4.9440   21.6930 H   0  0  0  0  0  0  0  0  0  0  0  0
    1.6880    6.6890   20.4720 C   0  0  0  0  0  0  0  0  0  0  0  0
    0.9080    7.3990   21.3890 C   0  0  0  0  0  0  0  0  0  0  0  0
    0.6020    8.7470   21.1680 C   0  0  0  0  0  0  0  0  0  0  0  0
    1.0650    9.4220   20.0280 C   0  0  0  0  0  0  0  0  0  0  0  0
    1.8430    8.6950   19.1110 C   0  0  0  0  0  0  0  0  0  0  0  0
    2.1490    7.3480   19.3270 C   0  0  0  0  0  0  0  0  0  0  0  0
    0.5260    6.9140   22.2850 H   0  0  0  0  0  0  0  0  0  0  0  0
   -0.0050    9.2690   21.9070 H   0  0  0  0  0  0  0  0  0  0  0  0
    2.2140    9.1690   18.2040 H   0  0  0  0  0  0  0  0  0  0  0  0
    2.7520    6.8190   18.5920 H   0  0  0  0  0  0  0  0  0  0  0  0
    0.7530   10.8460   19.8020 C   0  0  0  0  0  0  0  0  0  0  0  0
    1.2580   11.8380   20.6620 C   0  0  0  0  0  0  0  0  0  0  0  0
    0.9640   13.1860   20.4490 C   0  0  0  0  0  0  0  0  0  0  0  0
    1.4620   14.1060   21.2860 F   0  0  0  0  0  0  0  0  0  0  0  0
    0.1680   13.5890   19.3890 C   0  0  0  0  0  0  0  0  0  0  0  0
   -0.3380   12.6220   18.5340 C   0  0  0  0  0  0  0  0  0  0  0  0
   -1.1090   13.0000   17.5050 F   0  0  0  0  0  0  0  0  0  0  0  0
   -0.0540   11.2710   18.7330 C   0  0  0  0  0  0  0  0  0  0  0  0
   -0.5620   10.3740   17.8710 F   0  0  0  0  0  0  0  0  0  0  0  0
    1.8770   11.5740   21.5150 H   0  0  0  0  0  0  0  0  0  0  0  0
   -0.0530   14.6380   19.2310 H   0  0  0  0  0  0  0  0  0  0  0  0
    0.8810    3.0260   20.2710 C   0  0  0  0  0  0  0  0  0  0  0  0
    0.9890    2.6420   21.4270 O   0  0  0  0  0  0  0  0  0  0  0  0
    0.1160    2.3340   19.3990 O   0  0  0  0  0  0  0  0  0  0  0  0
    0.0240    1.4520   19.8180 H   0  0  0  0  0  0  0  0  0  0  0  0
  1  2  1  6  0  0  0
  1 45  1  0  0  0  0
  1 21  1  0  0  0  0
  4  3  2  0  0  0  0
  5  4  1  0  0  0  0
  5  1  1  0  0  0  0
  6  5  1  0  0  0  0
  7  9  1  0  0  0  0
  7  4  1  0  0  0  0
  8  7  1  0  0  0  0
 10 15  1  0  0  0  0
 10  7  1  0  0  0  0
 11 10  2  0  0  0  0
 12 13  2  0  0  0  0
 12 11  1  0  0  0  0
 13 14  1  0  0  0  0
 14 20  1  0  0  0  0
 14 15  2  0  0  0  0
 15 16  1  0  0  0  0
 17 11  1  0  0  0  0
 18 12  1  0  0  0  0
 19 13  1  0  0  0  0
 21 22  1  0  0  0  0
 21 23  1  0  0  0  0
 24 21  1  0  0  0  0
 24 25  1  0  0  0  0
 25 30  1  0  0  0  0
 26 25  2  0  0  0  0
 26 31  1  0  0  0  0
 27 26  1  0  0  0  0
 28 29  1  0  0  0  0
 28 27  2  0  0  0  0
 29 24  2  0  0  0  0
 32 28  1  0  0  0  0
 33 29  1  0  0  0  0
 34 27  1  0  0  0  0
 34 35  1  0  0  0  0
 35 43  1  0  0  0  0
 36 35  2  0  0  0  0
 36 37  1  0  0  0  0
 38 36  1  0  0  0  0
 39 41  1  0  0  0  0
 39 38  2  0  0  0  0
 40 39  1  0  0  0  0
 41 34  2  0  0  0  0
 42 41  1  0  0  0  0
 44 38  1  0  0  0  0
 45 46  2  0  0  0  0
 47 48  1  0  0  0  0
 47 45  1  0  0  0  0
M  END
>  <MODEL>
26

>  <REMARK>
 VINA RESULT:    -7.600      2.527      4.554
 INTER + INTRA:         -11.764
 INTER:                 -11.110
 INTRA:                  -0.654
 UNBOUND:                -0.831
  Name = 
  8 active torsions:
  status: ('A' for Active; 'I' for Inactive)
    1  A    between atoms: C_2  and  C_3
    2  A    between atoms: C_3  and  C_4
    3  A    between atoms: N_11  and  CA_12
    4  A    between atoms: CA_12  and  C_13
    5  A    between atoms: CA_12  and  C_29
    6  A    between atoms: C_13  and  C_14
    7  A    between atoms: C_17  and  C_18
    8  A    between atoms: C_29  and  OXT_31
                            x       y       z     vdW  Elec       q    Type
                         _______ _______ _______ _____ _____    ______ ____

>  <TORSDO>
F 8

$$$$
=
 OpenBabel07192307433D

 48 50  0  0  1  0  0  0  0  0999 V2000
    0.0510   11.3710   20.6510 C   0  0  2  0  0  0  0  0  0  0  0  0
    0.7700   11.6350   19.8660 H   0  0  0  0  0  0  0  0  0  0  0  0
   -1.0080   12.6690   18.3770 O   0  0  0  0  0  0  0  0  0  0  0  0
   -1.6970   11.8380   18.9630 C   0  0  0  0  0  0  0  0  0  0  0  0
   -1.2330   11.0750   20.0110 N   0  0  0  0  0  0  0  0  0  0  0  0
   -1.9350   10.6360   20.6010 H   0  0  0  0  0  0  0  0  0  0  0  0
   -3.1340   11.5540   18.5720 C   0  0  0  0  0  0  0  0  0  0  0  0
   -3.7120   12.4830   18.6690 H   0  0  0  0  0  0  0  0  0  0  0  0
   -3.5770   10.8570   19.2960 H   0  0  0  0  0  0  0  0  0  0  0  0
   -3.2480   11.0140   17.1730 C   0  0  0  0  0  0  0  0  0  0  0  0
   -4.1970   11.5280   16.2770 C   0  0  0  0  0  0  0  0  0  0  0  0
   -4.2790   11.0340   14.9720 C   0  0  0  0  0  0  0  0  0  0  0  0
   -3.4100   10.0260   14.5480 C   0  0  0  0  0  0  0  0  0  0  0  0
   -2.4550    9.5170   15.4260 C   0  0  0  0  0  0  0  0  0  0  0  0
   -2.3790   10.0150   16.7250 C   0  0  0  0  0  0  0  0  0  0  0  0
   -1.4410    9.5260   17.5520 F   0  0  0  0  0  0  0  0  0  0  0  0
   -4.8740   12.3220   16.5930 H   0  0  0  0  0  0  0  0  0  0  0  0
   -5.0210   11.4360   14.2870 H   0  0  0  0  0  0  0  0  0  0  0  0
   -3.4750    9.6430   13.5340 H   0  0  0  0  0  0  0  0  0  0  0  0
   -1.7700    8.7390   15.1050 H   0  0  0  0  0  0  0  0  0  0  0  0
    0.6000   10.1700   21.4380 C   0  0  0  0  0  0  0  0  0  0  0  0
   -0.1900    9.7410   22.0680 H   0  0  0  0  0  0  0  0  0  0  0  0
    1.3720   10.5230   22.1350 H   0  0  0  0  0  0  0  0  0  0  0  0
    1.1950    9.0680   20.5880 C   0  0  0  0  0  0  0  0  0  0  0  0
    1.5380    9.3020   19.2530 C   0  0  0  0  0  0  0  0  0  0  0  0
    2.1080    8.2860   18.4780 C   0  0  0  0  0  0  0  0  0  0  0  0
    2.3500    7.0110   19.0120 C   0  0  0  0  0  0  0  0  0  0  0  0
    1.9950    6.7870   20.3530 C   0  0  0  0  0  0  0  0  0  0  0  0
    1.4230    7.7990   21.1300 C   0  0  0  0  0  0  0  0  0  0  0  0
    1.3650   10.2750   18.7980 H   0  0  0  0  0  0  0  0  0  0  0  0
    2.3670    8.5060   17.4420 H   0  0  0  0  0  0  0  0  0  0  0  0
    2.1490    5.8110   20.8090 H   0  0  0  0  0  0  0  0  0  0  0  0
    1.1590    7.5850   22.1640 H   0  0  0  0  0  0  0  0  0  0  0  0
    2.9630    5.9440   18.1980 C   0  0  0  0  0  0  0  0  0  0  0  0
    2.3680    4.6710   18.1140 C   0  0  0  0  0  0  0  0  0  0  0  0
    2.9460    3.6610   17.3440 C   0  0  0  0  0  0  0  0  0  0  0  0
    2.3530    2.4610   17.2840 F   0  0  0  0  0  0  0  0  0  0  0  0
    4.1210    3.8760   16.6410 C   0  0  0  0  0  0  0  0  0  0  0  0
    4.7200    5.1240   16.7170 C   0  0  0  0  0  0  0  0  0  0  0  0
    5.8570    5.3440   16.0420 F   0  0  0  0  0  0  0  0  0  0  0  0
    4.1550    6.1450   17.4820 C   0  0  0  0  0  0  0  0  0  0  0  0
    4.7700    7.3380   17.5140 F   0  0  0  0  0  0  0  0  0  0  0  0
    1.4520    4.4470   18.6550 H   0  0  0  0  0  0  0  0  0  0  0  0
    4.5620    3.0850   16.0450 H   0  0  0  0  0  0  0  0  0  0  0  0
   -0.1040   12.6070   21.5380 C   0  0  0  0  0  0  0  0  0  0  0  0
   -0.6360   12.6590   22.6380 O   0  0  0  0  0  0  0  0  0  0  0  0
    0.4230   13.7220   20.9890 O   0  0  0  0  0  0  0  0  0  0  0  0
   -0.3620   14.2250   20.6840 H   0  0  0  0  0  0  0  0  0  0  0  0
  1  2  1  6  0  0  0
  1 21  1  0  0  0  0
  1 45  1  0  0  0  0
  3  4  2  0  0  0  0
  4  5  1  0  0  0  0
  5  6  1  0  0  0  0
  5  1  1  0  0  0  0
  7  8  1  0  0  0  0
  7  4  1  0  0  0  0
  7  9  1  0  0  0  0
 10  7  1  0  0  0  0
 11 17  1  0  0  0  0
 11 10  2  0  0  0  0
 12 11  1  0  0  0  0
 13 12  2  0  0  0  0
 13 14  1  0  0  0  0
 14 15  2  0  0  0  0
 15 10  1  0  0  0  0
 15 16  1  0  0  0  0
 18 12  1  0  0  0  0
 19 13  1  0  0  0  0
 20 14  1  0  0  0  0
 21 22  1  0  0  0  0
 21 23  1  0  0  0  0
 24 29  1  0  0  0  0
 24 21  1  0  0  0  0
 25 24  2  0  0  0  0
 26 27  2  0  0  0  0
 26 25  1  0  0  0  0
 27 28  1  0  0  0  0
 28 32  1  0  0  0  0
 28 29  2  0  0  0  0
 29 33  1  0  0  0  0
 30 25  1  0  0  0  0
 31 26  1  0  0  0  0
 34 27  1  0  0  0  0
 35 34  1  0  0  0  0
 35 43  1  0  0  0  0
 36 35  2  0  0  0  0
 37 36  1  0  0  0  0
 38 39  2  0  0  0  0
 38 36  1  0  0  0  0
 39 41  1  0  0  0  0
 40 39  1  0  0  0  0
 41 42  1  0  0  0  0
 41 34  2  0  0  0  0
 44 38  1  0  0  0  0
 45 46  2  0  0  0  0
 47 45  1  0  0  0  0
 48 47  1  0  0  0  0
M  END
>  <MODEL>
27

>  <REMARK>
 VINA RESULT:    -7.593      5.139      8.898
 INTER + INTRA:         -11.754
 INTER:                 -10.988
 INTRA:                  -0.766
 UNBOUND:                -0.831
  Name = 
  8 active torsions:
  status: ('A' for Active; 'I' for Inactive)
    1  A    between atoms: C_2  and  C_3
    2  A    between atoms: C_3  and  C_4
    3  A    between atoms: N_11  and  CA_12
    4  A    between atoms: CA_12  and  C_13
    5  A    between atoms: CA_12  and  C_29
    6  A    between atoms: C_13  and  C_14
    7  A    between atoms: C_17  and  C_18
    8  A    between atoms: C_29  and  OXT_31
                            x       y       z     vdW  Elec       q    Type
                         _______ _______ _______ _____ _____    ______ ____

>  <TORSDO>
F 8

$$$$
=
 OpenBabel07192307433D

 48 50  0  0  1  0  0  0  0  0999 V2000
    0.9750    9.8870   20.6690 C   0  0  2  0  0  0  0  0  0  0  0  0
    2.0140   10.1640   20.4530 H   0  0  0  0  0  0  0  0  0  0  0  0
    1.8240   12.5810   20.7020 O   0  0  0  0  0  0  0  0  0  0  0  0
    0.6280   12.3350   20.5600 C   0  0  0  0  0  0  0  0  0  0  0  0
    0.1300   11.0580   20.4220 N   0  0  0  0  0  0  0  0  0  0  0  0
   -0.8640   10.9360   20.5940 H   0  0  0  0  0  0  0  0  0  0  0  0
   -0.4240   13.4240   20.5020 C   0  0  0  0  0  0  0  0  0  0  0  0
   -0.7950   13.4970   19.4710 H   0  0  0  0  0  0  0  0  0  0  0  0
    0.0430   14.3940   20.7140 H   0  0  0  0  0  0  0  0  0  0  0  0
   -1.5650   13.1630   21.4480 C   0  0  0  0  0  0  0  0  0  0  0  0
   -1.3950   13.2880   22.8340 C   0  0  0  0  0  0  0  0  0  0  0  0
   -2.4680   13.0650   23.7020 C   0  0  0  0  0  0  0  0  0  0  0  0
   -3.7220   12.7210   23.1930 C   0  0  0  0  0  0  0  0  0  0  0  0
   -3.9050   12.6070   21.8160 C   0  0  0  0  0  0  0  0  0  0  0  0
   -2.8310   12.8320   20.9570 C   0  0  0  0  0  0  0  0  0  0  0  0
   -3.0290   12.7360   19.6330 F   0  0  0  0  0  0  0  0  0  0  0  0
   -0.4230   13.5660   23.2440 H   0  0  0  0  0  0  0  0  0  0  0  0
   -2.3240   13.1600   24.7760 H   0  0  0  0  0  0  0  0  0  0  0  0
   -4.5550   12.5490   23.8680 H   0  0  0  0  0  0  0  0  0  0  0  0
   -4.8770   12.3480   21.4080 H   0  0  0  0  0  0  0  0  0  0  0  0
    0.5900    8.6930   19.7810 C   0  0  0  0  0  0  0  0  0  0  0  0
   -0.0850    9.0230   18.9800 H   0  0  0  0  0  0  0  0  0  0  0  0
    0.0080    7.9780   20.3790 H   0  0  0  0  0  0  0  0  0  0  0  0
    1.7560    7.9560   19.1600 C   0  0  0  0  0  0  0  0  0  0  0  0
    2.2230    6.7610   19.7150 C   0  0  0  0  0  0  0  0  0  0  0  0
    3.2880    6.0720   19.1230 C   0  0  0  0  0  0  0  0  0  0  0  0
    3.9160    6.5560   17.9650 C   0  0  0  0  0  0  0  0  0  0  0  0
    3.4400    7.7610   17.4210 C   0  0  0  0  0  0  0  0  0  0  0  0
    2.3780    8.4540   18.0100 C   0  0  0  0  0  0  0  0  0  0  0  0
    1.7680    6.3520   20.6140 H   0  0  0  0  0  0  0  0  0  0  0  0
    3.6220    5.1410   19.5820 H   0  0  0  0  0  0  0  0  0  0  0  0
    3.9030    8.1850   16.5320 H   0  0  0  0  0  0  0  0  0  0  0  0
    2.0410    9.3860   17.5600 H   0  0  0  0  0  0  0  0  0  0  0  0
    5.0300    5.8230   17.3350 C   0  0  0  0  0  0  0  0  0  0  0  0
    4.9830    5.4760   15.9720 C   0  0  0  0  0  0  0  0  0  0  0  0
    6.0370    4.7830   15.3740 C   0  0  0  0  0  0  0  0  0  0  0  0
    5.9610    4.4690   14.0740 F   0  0  0  0  0  0  0  0  0  0  0  0
    7.1580    4.4130   16.1000 C   0  0  0  0  0  0  0  0  0  0  0  0
    7.2160    4.7460   17.4450 C   0  0  0  0  0  0  0  0  0  0  0  0
    8.2950    4.3940   18.1580 F   0  0  0  0  0  0  0  0  0  0  0  0
    6.1720    5.4390   18.0580 C   0  0  0  0  0  0  0  0  0  0  0  0
    6.2820    5.7440   19.3610 F   0  0  0  0  0  0  0  0  0  0  0  0
    4.1220    5.7310   15.3610 H   0  0  0  0  0  0  0  0  0  0  0  0
    7.9710    3.8760   15.6270 H   0  0  0  0  0  0  0  0  0  0  0  0
    0.9160    9.5310   22.1550 C   0  0  0  0  0  0  0  0  0  0  0  0
    0.0050    9.7760   22.9330 O   0  0  0  0  0  0  0  0  0  0  0  0
    2.0170    8.8790   22.5880 O   0  0  0  0  0  0  0  0  0  0  0  0
    2.0400    9.0730   23.5490 H   0  0  0  0  0  0  0  0  0  0  0  0
  1  2  1  6  0  0  0
  1 45  1  0  0  0  0
  4  3  2  0  0  0  0
  5  4  1  0  0  0  0
  5  6  1  0  0  0  0
  5  1  1  0  0  0  0
  7  4  1  0  0  0  0
  7  9  1  0  0  0  0
  7 10  1  0  0  0  0
  8  7  1  0  0  0  0
 10 11  1  0  0  0  0
 11 17  1  0  0  0  0
 11 12  2  0  0  0  0
 12 18  1  0  0  0  0
 13 12  1  0  0  0  0
 13 19  1  0  0  0  0
 14 13  2  0  0  0  0
 15 10  2  0  0  0  0
 15 14  1  0  0  0  0
 16 15  1  0  0  0  0
 20 14  1  0  0  0  0
 21 23  1  0  0  0  0
 21  1  1  0  0  0  0
 22 21  1  0  0  0  0
 24 25  1  0  0  0  0
 24 21  1  0  0  0  0
 25 30  1  0  0  0  0
 26 31  1  0  0  0  0
 26 25  2  0  0  0  0
 27 26  1  0  0  0  0
 28 27  2  0  0  0  0
 28 29  1  0  0  0  0
 29 24  2  0  0  0  0
 32 28  1  0  0  0  0
 33 29  1  0  0  0  0
 34 27  1  0  0  0  0
 34 41  1  0  0  0  0
 35 34  2  0  0  0  0
 36 35  1  0  0  0  0
 36 38  2  0  0  0  0
 37 36  1  0  0  0  0
 38 39  1  0  0  0  0
 39 41  2  0  0  0  0
 39 40  1  0  0  0  0
 41 42  1  0  0  0  0
 43 35  1  0  0  0  0
 44 38  1  0  0  0  0
 45 47  1  0  0  0  0
 45 46  2  0  0  0  0
 47 48  1  0  0  0  0
M  END
>  <MODEL>
28

>  <REMARK>
 VINA RESULT:    -7.572      4.294      9.321
 INTER + INTRA:         -11.724
 INTER:                 -10.663
 INTRA:                  -1.061
 UNBOUND:                -0.831
  Name = 
  8 active torsions:
  status: ('A' for Active; 'I' for Inactive)
    1  A    between atoms: C_2  and  C_3
    2  A    between atoms: C_3  and  C_4
    3  A    between atoms: N_11  and  CA_12
    4  A    between atoms: CA_12  and  C_13
    5  A    between atoms: CA_12  and  C_29
    6  A    between atoms: C_13  and  C_14
    7  A    between atoms: C_17  and  C_18
    8  A    between atoms: C_29  and  OXT_31
                            x       y       z     vdW  Elec       q    Type
                         _______ _______ _______ _____ _____    ______ ____

>  <TORSDO>
F 8

$$$$
=
 OpenBabel07192307433D

 48 50  0  0  1  0  0  0  0  0999 V2000
   -1.8140   12.9510   22.1250 C   0  0  2  0  0  0  0  0  0  0  0  0
   -1.0990   13.5020   21.5040 H   0  0  0  0  0  0  0  0  0  0  0  0
   -1.8260   13.0810   19.3040 O   0  0  0  0  0  0  0  0  0  0  0  0
   -2.7330   12.4830   19.8760 C   0  0  0  0  0  0  0  0  0  0  0  0
   -2.7600   12.2710   21.2360 N   0  0  0  0  0  0  0  0  0  0  0  0
   -3.6590   12.0280   21.6420 H   0  0  0  0  0  0  0  0  0  0  0  0
   -3.9160   11.8960   19.1300 C   0  0  0  0  0  0  0  0  0  0  0  0
   -4.6240   12.7060   18.9070 H   0  0  0  0  0  0  0  0  0  0  0  0
   -4.4580   11.2080   19.7910 H   0  0  0  0  0  0  0  0  0  0  0  0
   -3.5020   11.2030   17.8610 C   0  0  0  0  0  0  0  0  0  0  0  0
   -4.1200   11.5070   16.6400 C   0  0  0  0  0  0  0  0  0  0  0  0
   -3.7120   10.8720   15.4630 C   0  0  0  0  0  0  0  0  0  0  0  0
   -2.6790    9.9330   15.4940 C   0  0  0  0  0  0  0  0  0  0  0  0
   -2.0490    9.6330   16.7010 C   0  0  0  0  0  0  0  0  0  0  0  0
   -2.4610   10.2700   17.8690 C   0  0  0  0  0  0  0  0  0  0  0  0
   -1.8310    9.9830   19.0200 F   0  0  0  0  0  0  0  0  0  0  0  0
   -4.9210   12.2450   16.6000 H   0  0  0  0  0  0  0  0  0  0  0  0
   -4.2010   11.1110   14.5210 H   0  0  0  0  0  0  0  0  0  0  0  0
   -2.3630    9.4410   14.5790 H   0  0  0  0  0  0  0  0  0  0  0  0
   -1.2400    8.9110   16.7360 H   0  0  0  0  0  0  0  0  0  0  0  0
   -1.0380   11.9660   23.0140 C   0  0  0  0  0  0  0  0  0  0  0  0
   -1.7050   11.5420   23.7760 H   0  0  0  0  0  0  0  0  0  0  0  0
   -0.2690   12.5180   23.5710 H   0  0  0  0  0  0  0  0  0  0  0  0
   -0.3660   10.8310   22.2720 C   0  0  0  0  0  0  0  0  0  0  0  0
    0.5460   11.0900   21.2450 C   0  0  0  0  0  0  0  0  0  0  0  0
    1.1810   10.0360   20.5780 C   0  0  0  0  0  0  0  0  0  0  0  0
    0.9240    8.6980   20.9150 C   0  0  0  0  0  0  0  0  0  0  0  0
    0.0010    8.4520   21.9460 C   0  0  0  0  0  0  0  0  0  0  0  0
   -0.6380    9.5010   22.6140 C   0  0  0  0  0  0  0  0  0  0  0  0
    0.7720   12.1120   20.9490 H   0  0  0  0  0  0  0  0  0  0  0  0
    1.8890   10.2760   19.7850 H   0  0  0  0  0  0  0  0  0  0  0  0
   -0.2430    7.4320   22.2350 H   0  0  0  0  0  0  0  0  0  0  0  0
   -1.3490    9.2690   23.4040 H   0  0  0  0  0  0  0  0  0  0  0  0
    1.6040    7.5890   20.2200 C   0  0  0  0  0  0  0  0  0  0  0  0
    1.6040    6.2920   20.7650 C   0  0  0  0  0  0  0  0  0  0  0  0
    2.2460    5.2410   20.1080 C   0  0  0  0  0  0  0  0  0  0  0  0
    2.2270    4.0170   20.6530 F   0  0  0  0  0  0  0  0  0  0  0  0
    2.9030    5.4400   18.9040 C   0  0  0  0  0  0  0  0  0  0  0  0
    2.9130    6.7140   18.3570 C   0  0  0  0  0  0  0  0  0  0  0  0
    3.5450    6.9190   17.1920 F   0  0  0  0  0  0  0  0  0  0  0  0
    2.2760    7.7750   19.0000 C   0  0  0  0  0  0  0  0  0  0  0  0
    2.3070    8.9880   18.4240 F   0  0  0  0  0  0  0  0  0  0  0  0
    1.1140    6.0840   21.7120 H   0  0  0  0  0  0  0  0  0  0  0  0
    3.3980    4.6170   18.4010 H   0  0  0  0  0  0  0  0  0  0  0  0
   -2.5670   13.9910   22.9550 C   0  0  0  0  0  0  0  0  0  0  0  0
   -2.9070   13.8910   24.1250 O   0  0  0  0  0  0  0  0  0  0  0  0
   -2.8540   15.1150   22.2630 O   0  0  0  0  0  0  0  0  0  0  0  0
   -3.4880   14.8110   21.5780 H   0  0  0  0  0  0  0  0  0  0  0  0
  1  2  1  6  0  0  0
  1 45  1  0  0  0  0
  1 21  1  0  0  0  0
  3  4  2  0  0  0  0
  4  5  1  0  0  0  0
  5  6  1  0  0  0  0
  5  1  1  0  0  0  0
  7  9  1  0  0  0  0
  7  4  1  0  0  0  0
  8  7  1  0  0  0  0
 10 15  1  0  0  0  0
 10  7  1  0  0  0  0
 11 10  2  0  0  0  0
 12 13  2  0  0  0  0
 12 11  1  0  0  0  0
 13 14  1  0  0  0  0
 14 20  1  0  0  0  0
 14 15  2  0  0  0  0
 15 16  1  0  0  0  0
 17 11  1  0  0  0  0
 18 12  1  0  0  0  0
 19 13  1  0  0  0  0
 21 23  1  0  0  0  0
 21 22  1  0  0  0  0
 24 29  1  0  0  0  0
 24 21  1  0  0  0  0
 25 24  2  0  0  0  0
 26 27  2  0  0  0  0
 26 25  1  0  0  0  0
 27 28  1  0  0  0  0
 28 32  1  0  0  0  0
 28 29  2  0  0  0  0
 29 33  1  0  0  0  0
 30 25  1  0  0  0  0
 31 26  1  0  0  0  0
 34 35  1  0  0  0  0
 34 27  1  0  0  0  0
 35 43  1  0  0  0  0
 36 37  1  0  0  0  0
 36 35  2  0  0  0  0
 38 36  1  0  0  0  0
 39 38  2  0  0  0  0
 39 41  1  0  0  0  0
 40 39  1  0  0  0  0
 41 34  2  0  0  0  0
 42 41  1  0  0  0  0
 44 38  1  0  0  0  0
 45 46  2  0  0  0  0
 47 45  1  0  0  0  0
 48 47  1  0  0  0  0
M  END
>  <MODEL>
29

>  <REMARK>
 VINA RESULT:    -7.476      5.618      9.304
 INTER + INTRA:         -11.586
 INTER:                 -10.491
 INTRA:                  -1.095
 UNBOUND:                -0.831
  Name = 
  8 active torsions:
  status: ('A' for Active; 'I' for Inactive)
    1  A    between atoms: C_2  and  C_3
    2  A    between atoms: C_3  and  C_4
    3  A    between atoms: N_11  and  CA_12
    4  A    between atoms: CA_12  and  C_13
    5  A    between atoms: CA_12  and  C_29
    6  A    between atoms: C_13  and  C_14
    7  A    between atoms: C_17  and  C_18
    8  A    between atoms: C_29  and  OXT_31
                            x       y       z     vdW  Elec       q    Type
                         _______ _______ _______ _____ _____    ______ ____

>  <TORSDO>
F 8

$$$$
=
 OpenBabel07192307433D

 48 50  0  0  1  0  0  0  0  0999 V2000
   -0.1690   12.8290   19.1090 C   0  0  2  0  0  0  0  0  0  0  0  0
    0.5460   12.6530   18.2960 H   0  0  0  0  0  0  0  0  0  0  0  0
   -2.4900   12.4310   20.6690 O   0  0  0  0  0  0  0  0  0  0  0  0
   -2.5600   12.2890   19.4500 C   0  0  0  0  0  0  0  0  0  0  0  0
   -1.5160   12.5660   18.5960 N   0  0  0  0  0  0  0  0  0  0  0  0
   -1.5680   12.1590   17.6660 H   0  0  0  0  0  0  0  0  0  0  0  0
   -3.8210   11.8100   18.7590 C   0  0  0  0  0  0  0  0  0  0  0  0
   -4.4580   12.6810   18.5520 H   0  0  0  0  0  0  0  0  0  0  0  0
   -4.3990   11.1820   19.4490 H   0  0  0  0  0  0  0  0  0  0  0  0
   -3.5240   11.0680   17.4840 C   0  0  0  0  0  0  0  0  0  0  0  0
   -4.0660   11.4920   16.2620 C   0  0  0  0  0  0  0  0  0  0  0  0
   -3.7660   10.8080   15.0800 C   0  0  0  0  0  0  0  0  0  0  0  0
   -2.9180    9.7000   15.1070 C   0  0  0  0  0  0  0  0  0  0  0  0
   -2.3640    9.2780   16.3150 C   0  0  0  0  0  0  0  0  0  0  0  0
   -2.6670    9.9650   17.4880 C   0  0  0  0  0  0  0  0  0  0  0  0
   -2.1110    9.5560   18.6400 F   0  0  0  0  0  0  0  0  0  0  0  0
   -4.7220   12.3620   16.2260 H   0  0  0  0  0  0  0  0  0  0  0  0
   -4.1950   11.1420   14.1380 H   0  0  0  0  0  0  0  0  0  0  0  0
   -2.6850    9.1700   14.1880 H   0  0  0  0  0  0  0  0  0  0  0  0
   -1.6970    8.4220   16.3470 H   0  0  0  0  0  0  0  0  0  0  0  0
    0.1930   11.9140   20.2900 C   0  0  0  0  0  0  0  0  0  0  0  0
   -0.6980   11.7190   20.9010 H   0  0  0  0  0  0  0  0  0  0  0  0
    0.8920   12.4440   20.9500 H   0  0  0  0  0  0  0  0  0  0  0  0
    0.8150   10.5900   19.9030 C   0  0  0  0  0  0  0  0  0  0  0  0
    1.0140    9.5880   20.8590 C   0  0  0  0  0  0  0  0  0  0  0  0
    1.5690    8.3570   20.4920 C   0  0  0  0  0  0  0  0  0  0  0  0
    1.9420    8.0920   19.1650 C   0  0  0  0  0  0  0  0  0  0  0  0
    1.7430    9.1090   18.2160 C   0  0  0  0  0  0  0  0  0  0  0  0
    1.1900   10.3410   18.5780 C   0  0  0  0  0  0  0  0  0  0  0  0
    0.7420    9.7530   21.8990 H   0  0  0  0  0  0  0  0  0  0  0  0
    1.7050    7.5990   21.2630 H   0  0  0  0  0  0  0  0  0  0  0  0
    2.0280    8.9570   17.1770 H   0  0  0  0  0  0  0  0  0  0  0  0
    1.0540   11.1040   17.8150 H   0  0  0  0  0  0  0  0  0  0  0  0
    2.5150    6.7900   18.7760 C   0  0  0  0  0  0  0  0  0  0  0  0
    3.4610    6.7010   17.7380 C   0  0  0  0  0  0  0  0  0  0  0  0
    4.0050    5.4690   17.3700 C   0  0  0  0  0  0  0  0  0  0  0  0
    4.9040    5.4200   16.3780 F   0  0  0  0  0  0  0  0  0  0  0  0
    3.6320    4.2990   18.0100 C   0  0  0  0  0  0  0  0  0  0  0  0
    2.6990    4.3700   19.0340 C   0  0  0  0  0  0  0  0  0  0  0  0
    2.3310    3.2450   19.6610 F   0  0  0  0  0  0  0  0  0  0  0  0
    2.1460    5.5930   19.4140 C   0  0  0  0  0  0  0  0  0  0  0  0
    1.2530    5.6100   20.4170 F   0  0  0  0  0  0  0  0  0  0  0  0
    3.7780    7.5880   17.1960 H   0  0  0  0  0  0  0  0  0  0  0  0
    4.0610    3.3470   17.7180 H   0  0  0  0  0  0  0  0  0  0  0  0
   -0.0550   14.3070   19.4820 C   0  0  0  0  0  0  0  0  0  0  0  0
    0.4470   14.7720   20.4950 O   0  0  0  0  0  0  0  0  0  0  0  0
   -0.5830   15.1310   18.5510 O   0  0  0  0  0  0  0  0  0  0  0  0
    0.0290   15.8970   18.5430 H   0  0  0  0  0  0  0  0  0  0  0  0
  1  2  1  6  0  0  0
  1 45  1  0  0  0  0
  1 21  1  0  0  0  0
  4  3  2  0  0  0  0
  5  1  1  0  0  0  0
  5  4  1  0  0  0  0
  6  5  1  0  0  0  0
  7  9  1  0  0  0  0
  7  4  1  0  0  0  0
  8  7  1  0  0  0  0
 10 15  1  0  0  0  0
 10  7  1  0  0  0  0
 11 10  2  0  0  0  0
 12 13  2  0  0  0  0
 12 11  1  0  0  0  0
 13 14  1  0  0  0  0
 14 20  1  0  0  0  0
 14 15  2  0  0  0  0
 15 16  1  0  0  0  0
 17 11  1  0  0  0  0
 18 12  1  0  0  0  0
 19 13  1  0  0  0  0
 21 22  1  0  0  0  0
 21 23  1  0  0  0  0
 24 21  1  0  0  0  0
 24 25  1  0  0  0  0
 25 30  1  0  0  0  0
 26 25  2  0  0  0  0
 26 31  1  0  0  0  0
 27 26  1  0  0  0  0
 28 29  1  0  0  0  0
 28 27  2  0  0  0  0
 29 24  2  0  0  0  0
 32 28  1  0  0  0  0
 33 29  1  0  0  0  0
 34 27  1  0  0  0  0
 34 41  1  0  0  0  0
 35 34  2  0  0  0  0
 36 35  1  0  0  0  0
 36 38  2  0  0  0  0
 37 36  1  0  0  0  0
 38 39  1  0  0  0  0
 39 41  2  0  0  0  0
 39 40  1  0  0  0  0
 41 42  1  0  0  0  0
 43 35  1  0  0  0  0
 44 38  1  0  0  0  0
 45 46  2  0  0  0  0
 47 45  1  0  0  0  0
 48 47  1  0  0  0  0
M  END
>  <MODEL>
30

>  <REMARK>
 VINA RESULT:    -7.451      5.341      8.906
 INTER + INTRA:         -11.549
 INTER:                 -11.191
 INTRA:                  -0.358
 UNBOUND:                -0.831
  Name = 
  8 active torsions:
  status: ('A' for Active; 'I' for Inactive)
    1  A    between atoms: C_2  and  C_3
    2  A    between atoms: C_3  and  C_4
    3  A    between atoms: N_11  and  CA_12
    4  A    between atoms: CA_12  and  C_13
    5  A    between atoms: CA_12  and  C_29
    6  A    between atoms: C_13  and  C_14
    7  A    between atoms: C_17  and  C_18
    8  A    between atoms: C_29  and  OXT_31
                            x       y       z     vdW  Elec       q    Type
                         _______ _______ _______ _____ _____    ______ ____

>  <TORSDO>
F 8

$$$$
=
 OpenBabel07192307433D

 48 50  0  0  1  0  0  0  0  0999 V2000
   -0.9780   12.5740   21.2040 C   0  0  2  0  0  0  0  0  0  0  0  0
   -1.1990   13.6420   21.0870 H   0  0  0  0  0  0  0  0  0  0  0  0
   -3.4050   13.5460   20.1330 O   0  0  0  0  0  0  0  0  0  0  0  0
   -3.1120   12.3640   19.9690 C   0  0  0  0  0  0  0  0  0  0  0  0
   -1.9070   11.8220   20.3560 N   0  0  0  0  0  0  0  0  0  0  0  0
   -1.8670   10.8110   20.4390 H   0  0  0  0  0  0  0  0  0  0  0  0
   -4.0510   11.3810   19.2990 C   0  0  0  0  0  0  0  0  0  0  0  0
   -5.0450   11.8430   19.2230 H   0  0  0  0  0  0  0  0  0  0  0  0
   -4.1850   10.5050   19.9470 H   0  0  0  0  0  0  0  0  0  0  0  0
   -3.5650   10.9670   17.9360 C   0  0  0  0  0  0  0  0  0  0  0  0
   -2.5480   10.0120   17.7940 C   0  0  0  0  0  0  0  0  0  0  0  0
   -2.1200    9.6190   16.5220 C   0  0  0  0  0  0  0  0  0  0  0  0
   -2.7080   10.1720   15.3830 C   0  0  0  0  0  0  0  0  0  0  0  0
   -3.7280   11.1120   15.5130 C   0  0  0  0  0  0  0  0  0  0  0  0
   -4.1510   11.4980   16.7830 C   0  0  0  0  0  0  0  0  0  0  0  0
   -5.1470   12.3910   16.8910 F   0  0  0  0  0  0  0  0  0  0  0  0
   -2.0880    9.5660   18.6760 H   0  0  0  0  0  0  0  0  0  0  0  0
   -1.3270    8.8810   16.4220 H   0  0  0  0  0  0  0  0  0  0  0  0
   -2.3740    9.8650   14.3950 H   0  0  0  0  0  0  0  0  0  0  0  0
   -4.1980   11.5420   14.6350 H   0  0  0  0  0  0  0  0  0  0  0  0
    0.4900   12.3290   20.8200 C   0  0  0  0  0  0  0  0  0  0  0  0
    1.1530   12.7250   21.6010 H   0  0  0  0  0  0  0  0  0  0  0  0
    0.7230   12.9080   19.9160 H   0  0  0  0  0  0  0  0  0  0  0  0
    0.8500   10.8820   20.5650 C   0  0  0  0  0  0  0  0  0  0  0  0
    0.9520   10.3910   19.2600 C   0  0  0  0  0  0  0  0  0  0  0  0
    1.3080    9.0570   19.0290 C   0  0  0  0  0  0  0  0  0  0  0  0
    1.5690    8.1780   20.0920 C   0  0  0  0  0  0  0  0  0  0  0  0
    1.4560    8.6830   21.3980 C   0  0  0  0  0  0  0  0  0  0  0  0
    1.1000   10.0140   21.6330 C   0  0  0  0  0  0  0  0  0  0  0  0
    0.7550   11.0370   18.4070 H   0  0  0  0  0  0  0  0  0  0  0  0
    1.3810    8.7110   17.9980 H   0  0  0  0  0  0  0  0  0  0  0  0
    1.6350    8.0370   22.2560 H   0  0  0  0  0  0  0  0  0  0  0  0
    1.0210   10.3660   22.6600 H   0  0  0  0  0  0  0  0  0  0  0  0
    1.9560    6.7760   19.8470 C   0  0  0  0  0  0  0  0  0  0  0  0
    1.5880    5.7600   20.7490 C   0  0  0  0  0  0  0  0  0  0  0  0
    1.9530    4.4330   20.5190 C   0  0  0  0  0  0  0  0  0  0  0  0
    1.5850    3.4900   21.3980 F   0  0  0  0  0  0  0  0  0  0  0  0
    2.6870    4.0730   19.4010 C   0  0  0  0  0  0  0  0  0  0  0  0
    3.0590    5.0630   18.5040 C   0  0  0  0  0  0  0  0  0  0  0  0
    3.7690    4.7270   17.4180 F   0  0  0  0  0  0  0  0  0  0  0  0
    2.7020    6.3950   18.7190 C   0  0  0  0  0  0  0  0  0  0  0  0
    3.0790    7.3140   17.8160 F   0  0  0  0  0  0  0  0  0  0  0  0
    1.0230    5.9910   21.6480 H   0  0  0  0  0  0  0  0  0  0  0  0
    2.9650    3.0390   19.2300 H   0  0  0  0  0  0  0  0  0  0  0  0
   -1.2470   12.2290   22.6690 C   0  0  0  0  0  0  0  0  0  0  0  0
   -1.6230   11.1540   23.1130 O   0  0  0  0  0  0  0  0  0  0  0  0
   -1.0250   13.2650   23.5070 O   0  0  0  0  0  0  0  0  0  0  0  0
   -0.2470   13.7180   23.1170 H   0  0  0  0  0  0  0  0  0  0  0  0
  1  2  1  6  0  0  0
  1 45  1  0  0  0  0
  4  3  2  0  0  0  0
  4  5  1  0  0  0  0
  5  6  1  0  0  0  0
  5  1  1  0  0  0  0
  7  9  1  0  0  0  0
  7  4  1  0  0  0  0
  8  7  1  0  0  0  0
 10  7  1  0  0  0  0
 11 10  1  0  0  0  0
 11 17  1  0  0  0  0
 12 11  2  0  0  0  0
 13 14  2  0  0  0  0
 13 12  1  0  0  0  0
 14 15  1  0  0  0  0
 15 16  1  0  0  0  0
 15 10  2  0  0  0  0
 18 12  1  0  0  0  0
 19 13  1  0  0  0  0
 20 14  1  0  0  0  0
 21  1  1  0  0  0  0
 21 22  1  0  0  0  0
 23 21  1  0  0  0  0
 24 21  1  0  0  0  0
 24 29  1  0  0  0  0
 25 24  2  0  0  0  0
 26 25  1  0  0  0  0
 26 27  2  0  0  0  0
 27 28  1  0  0  0  0
 28 29  2  0  0  0  0
 28 32  1  0  0  0  0
 29 33  1  0  0  0  0
 30 25  1  0  0  0  0
 31 26  1  0  0  0  0
 34 27  1  0  0  0  0
 34 35  1  0  0  0  0
 35 43  1  0  0  0  0
 36 35  2  0  0  0  0
 36 37  1  0  0  0  0
 38 36  1  0  0  0  0
 39 41  1  0  0  0  0
 39 38  2  0  0  0  0
 40 39  1  0  0  0  0
 41 34  2  0  0  0  0
 42 41  1  0  0  0  0
 44 38  1  0  0  0  0
 45 46  2  0  0  0  0
 45 47  1  0  0  0  0
 48 47  1  0  0  0  0
M  END
>  <MODEL>
31

>  <REMARK>
 VINA RESULT:    -7.394      5.332      9.130
 INTER + INTRA:         -11.467
 INTER:                 -10.621
 INTRA:                  -0.846
 UNBOUND:                -0.831
  Name = 
  8 active torsions:
  status: ('A' for Active; 'I' for Inactive)
    1  A    between atoms: C_2  and  C_3
    2  A    between atoms: C_3  and  C_4
    3  A    between atoms: N_11  and  CA_12
    4  A    between atoms: CA_12  and  C_13
    5  A    between atoms: CA_12  and  C_29
    6  A    between atoms: C_13  and  C_14
    7  A    between atoms: C_17  and  C_18
    8  A    between atoms: C_29  and  OXT_31
                            x       y       z     vdW  Elec       q    Type
                         _______ _______ _______ _____ _____    ______ ____

>  <TORSDO>
F 8

$$$$
=
 OpenBabel07192307433D

 48 50  0  0  1  0  0  0  0  0999 V2000
    0.1870   11.0430   21.6570 C   0  0  2  0  0  0  0  0  0  0  0  0
    1.1000   10.5240   21.9730 H   0  0  0  0  0  0  0  0  0  0  0  0
   -1.1340   12.9580   20.0560 O   0  0  0  0  0  0  0  0  0  0  0  0
   -0.1730   13.3110   20.7360 C   0  0  0  0  0  0  0  0  0  0  0  0
    0.4670   12.4810   21.6290 N   0  0  0  0  0  0  0  0  0  0  0  0
    1.3980   12.7600   21.9240 H   0  0  0  0  0  0  0  0  0  0  0  0
    0.3950   14.7150   20.6720 C   0  0  0  0  0  0  0  0  0  0  0  0
    0.4660   15.1100   21.6950 H   0  0  0  0  0  0  0  0  0  0  0  0
   -0.3140   15.3720   20.1530 H   0  0  0  0  0  0  0  0  0  0  0  0
    1.7440   14.7530   20.0050 C   0  0  0  0  0  0  0  0  0  0  0  0
    1.8560   14.7530   18.6070 C   0  0  0  0  0  0  0  0  0  0  0  0
    3.1130   14.8110   17.9990 C   0  0  0  0  0  0  0  0  0  0  0  0
    4.2680   14.8760   18.7800 C   0  0  0  0  0  0  0  0  0  0  0  0
    4.1670   14.8900   20.1700 C   0  0  0  0  0  0  0  0  0  0  0  0
    2.9110   14.8330   20.7700 C   0  0  0  0  0  0  0  0  0  0  0  0
    2.8300   14.8650   22.1100 F   0  0  0  0  0  0  0  0  0  0  0  0
    0.9610   14.7120   17.9860 H   0  0  0  0  0  0  0  0  0  0  0  0
    3.1900   14.8050   16.9140 H   0  0  0  0  0  0  0  0  0  0  0  0
    5.2450   14.9220   18.3060 H   0  0  0  0  0  0  0  0  0  0  0  0
    5.0570   14.9480   20.7880 H   0  0  0  0  0  0  0  0  0  0  0  0
   -0.2340   10.5040   20.2810 C   0  0  0  0  0  0  0  0  0  0  0  0
   -0.3580   11.3360   19.5740 H   0  0  0  0  0  0  0  0  0  0  0  0
   -1.2270   10.0420   20.3670 H   0  0  0  0  0  0  0  0  0  0  0  0
    0.7120    9.4900   19.6750 C   0  0  0  0  0  0  0  0  0  0  0  0
    1.2610    8.4700   20.4570 C   0  0  0  0  0  0  0  0  0  0  0  0
    2.1180    7.5210   19.8870 C   0  0  0  0  0  0  0  0  0  0  0  0
    2.4500    7.5650   18.5240 C   0  0  0  0  0  0  0  0  0  0  0  0
    1.8950    8.5990   17.7510 C   0  0  0  0  0  0  0  0  0  0  0  0
    1.0410    9.5500   18.3160 C   0  0  0  0  0  0  0  0  0  0  0  0
    1.0330    8.4010   21.5190 H   0  0  0  0  0  0  0  0  0  0  0  0
    2.5240    6.7380   20.5270 H   0  0  0  0  0  0  0  0  0  0  0  0
    2.1330    8.6840   16.6920 H   0  0  0  0  0  0  0  0  0  0  0  0
    0.6340   10.3370   17.6840 H   0  0  0  0  0  0  0  0  0  0  0  0
    3.3430    6.5570   17.9210 C   0  0  0  0  0  0  0  0  0  0  0  0
    4.6120    6.9200   17.4330 C   0  0  0  0  0  0  0  0  0  0  0  0
    5.4580    5.9680   16.8630 C   0  0  0  0  0  0  0  0  0  0  0  0
    6.6610    6.3470   16.4100 F   0  0  0  0  0  0  0  0  0  0  0  0
    5.0770    4.6400   16.7570 C   0  0  0  0  0  0  0  0  0  0  0  0
    3.8280    4.2680   17.2300 C   0  0  0  0  0  0  0  0  0  0  0  0
    3.4480    2.9860   17.1330 F   0  0  0  0  0  0  0  0  0  0  0  0
    2.9700    5.2080   17.8030 C   0  0  0  0  0  0  0  0  0  0  0  0
    1.7750    4.7940   18.2550 F   0  0  0  0  0  0  0  0  0  0  0  0
    4.9540    7.9510   17.4820 H   0  0  0  0  0  0  0  0  0  0  0  0
    5.7410    3.9080   16.3130 H   0  0  0  0  0  0  0  0  0  0  0  0
   -0.8700   10.7590   22.7250 C   0  0  0  0  0  0  0  0  0  0  0  0
   -1.8350   11.4550   23.0050 O   0  0  0  0  0  0  0  0  0  0  0  0
   -0.6550    9.6030   23.3890 O   0  0  0  0  0  0  0  0  0  0  0  0
   -1.3820    9.5740   24.0480 H   0  0  0  0  0  0  0  0  0  0  0  0
  1  2  1  1  0  0  0
  1 45  1  0  0  0  0
  3  4  2  0  0  0  0
  4  5  1  0  0  0  0
  5  1  1  0  0  0  0
  5  6  1  0  0  0  0
  7  4  1  0  0  0  0
  7  8  1  0  0  0  0
  9  7  1  0  0  0  0
 10  7  1  0  0  0  0
 10 15  1  0  0  0  0
 11 10  2  0  0  0  0
 12 11  1  0  0  0  0
 12 13  2  0  0  0  0
 13 14  1  0  0  0  0
 14 15  2  0  0  0  0
 14 20  1  0  0  0  0
 15 16  1  0  0  0  0
 17 11  1  0  0  0  0
 18 12  1  0  0  0  0
 19 13  1  0  0  0  0
 21 23  1  0  0  0  0
 21  1  1  0  0  0  0
 22 21  1  0  0  0  0
 24 21  1  0  0  0  0
 24 25  1  0  0  0  0
 25 30  1  0  0  0  0
 26 25  2  0  0  0  0
 26 31  1  0  0  0  0
 27 26  1  0  0  0  0
 28 29  1  0  0  0  0
 28 27  2  0  0  0  0
 29 24  2  0  0  0  0
 32 28  1  0  0  0  0
 33 29  1  0  0  0  0
 34 27  1  0  0  0  0
 35 43  1  0  0  0  0
 35 34  2  0  0  0  0
 36 35  1  0  0  0  0
 37 36  1  0  0  0  0
 38 36  2  0  0  0  0
 38 39  1  0  0  0  0
 39 41  2  0  0  0  0
 40 39  1  0  0  0  0
 41 34  1  0  0  0  0
 41 42  1  0  0  0  0
 44 38  1  0  0  0  0
 45 46  2  0  0  0  0
 45 47  1  0  0  0  0
 47 48  1  0  0  0  0
M  END
>  <MODEL>
32

>  <REMARK>
 VINA RESULT:    -7.340      5.280      9.541
 INTER + INTRA:         -11.389
 INTER:                 -10.894
 INTRA:                  -0.496
 UNBOUND:                -0.831
  Name = 
  8 active torsions:
  status: ('A' for Active; 'I' for Inactive)
    1  A    between atoms: C_2  and  C_3
    2  A    between atoms: C_3  and  C_4
    3  A    between atoms: N_11  and  CA_12
    4  A    between atoms: CA_12  and  C_13
    5  A    between atoms: CA_12  and  C_29
    6  A    between atoms: C_13  and  C_14
    7  A    between atoms: C_17  and  C_18
    8  A    between atoms: C_29  and  OXT_31
                            x       y       z     vdW  Elec       q    Type
                         _______ _______ _______ _____ _____    ______ ____

>  <TORSDO>
F 8

$$$$
=
 OpenBabel07192307433D

 48 50  0  0  1  0  0  0  0  0999 V2000
    0.6940   11.4080   20.9400 C   0  0  2  0  0  0  0  0  0  0  0  0
    1.3740   10.7190   21.4550 H   0  0  0  0  0  0  0  0  0  0  0  0
   -0.2270   13.7070   19.5800 O   0  0  0  0  0  0  0  0  0  0  0  0
    0.7590   13.8000   20.3080 C   0  0  0  0  0  0  0  0  0  0  0  0
    1.2180   12.7670   21.0950 N   0  0  0  0  0  0  0  0  0  0  0  0
    2.1740   12.8410   21.4310 H   0  0  0  0  0  0  0  0  0  0  0  0
    1.5630   15.0800   20.4260 C   0  0  0  0  0  0  0  0  0  0  0  0
    1.8450   15.2180   21.4790 H   0  0  0  0  0  0  0  0  0  0  0  0
    0.9230   15.9360   20.1800 H   0  0  0  0  0  0  0  0  0  0  0  0
    2.7910   15.0630   19.5570 C   0  0  0  0  0  0  0  0  0  0  0  0
    2.6950   15.2630   18.1720 C   0  0  0  0  0  0  0  0  0  0  0  0
    3.8450   15.2670   17.3770 C   0  0  0  0  0  0  0  0  0  0  0  0
    5.1000   15.0780   17.9580 C   0  0  0  0  0  0  0  0  0  0  0  0
    5.2070   14.8920   19.3350 C   0  0  0  0  0  0  0  0  0  0  0  0
    4.0570   14.8900   20.1220 C   0  0  0  0  0  0  0  0  0  0  0  0
    4.1800   14.7270   21.4490 F   0  0  0  0  0  0  0  0  0  0  0  0
    1.7220   15.4200   17.7070 H   0  0  0  0  0  0  0  0  0  0  0  0
    3.7600   15.4180   16.3030 H   0  0  0  0  0  0  0  0  0  0  0  0
    5.9930   15.0830   17.3390 H   0  0  0  0  0  0  0  0  0  0  0  0
    6.1780   14.7530   19.7990 H   0  0  0  0  0  0  0  0  0  0  0  0
    0.5930   10.9880   19.4650 C   0  0  0  0  0  0  0  0  0  0  0  0
    1.0350   11.7610   18.8230 H   0  0  0  0  0  0  0  0  0  0  0  0
   -0.4670   10.9400   19.1790 H   0  0  0  0  0  0  0  0  0  0  0  0
    1.2350    9.6580   19.1340 C   0  0  0  0  0  0  0  0  0  0  0  0
    1.4040    8.6820   20.1210 C   0  0  0  0  0  0  0  0  0  0  0  0
    1.9780    7.4450   19.8050 C   0  0  0  0  0  0  0  0  0  0  0  0
    2.3990    7.1490   18.4990 C   0  0  0  0  0  0  0  0  0  0  0  0
    2.2290    8.1410   17.5190 C   0  0  0  0  0  0  0  0  0  0  0  0
    1.6570    9.3790   17.8300 C   0  0  0  0  0  0  0  0  0  0  0  0
    1.0950    8.8710   21.1470 H   0  0  0  0  0  0  0  0  0  0  0  0
    2.0910    6.7080   20.5990 H   0  0  0  0  0  0  0  0  0  0  0  0
    2.5520    7.9650   16.4940 H   0  0  0  0  0  0  0  0  0  0  0  0
    1.5450   10.1220   17.0430 H   0  0  0  0  0  0  0  0  0  0  0  0
    2.9920    5.8410   18.1640 C   0  0  0  0  0  0  0  0  0  0  0  0
    2.1970    4.6820   18.1130 C   0  0  0  0  0  0  0  0  0  0  0  0
    2.7560    3.4430   17.7960 C   0  0  0  0  0  0  0  0  0  0  0  0
    1.9700    2.3590   17.7540 F   0  0  0  0  0  0  0  0  0  0  0  0
    4.1090    3.3150   17.5230 C   0  0  0  0  0  0  0  0  0  0  0  0
    4.9060    4.4480   17.5720 C   0  0  0  0  0  0  0  0  0  0  0  0
    6.2160    4.3370   17.3100 F   0  0  0  0  0  0  0  0  0  0  0  0
    4.3620    5.6940   17.8870 C   0  0  0  0  0  0  0  0  0  0  0  0
    5.1760    6.7620   17.9120 F   0  0  0  0  0  0  0  0  0  0  0  0
    1.1320    4.7260   18.3310 H   0  0  0  0  0  0  0  0  0  0  0  0
    4.5340    2.3490   17.2760 H   0  0  0  0  0  0  0  0  0  0  0  0
   -0.6560   11.3070   21.6510 C   0  0  0  0  0  0  0  0  0  0  0  0
   -0.8450   11.0570   22.8330 O   0  0  0  0  0  0  0  0  0  0  0  0
   -1.7050   11.5300   20.8310 O   0  0  0  0  0  0  0  0  0  0  0  0
   -1.3130   12.0230   20.0790 H   0  0  0  0  0  0  0  0  0  0  0  0
  1  5  1  0  0  0  0
  1  2  1  1  0  0  0
  1 45  1  0  0  0  0
  3  4  2  0  0  0  0
  4  7  1  0  0  0  0
  4  5  1  0  0  0  0
  5  6  1  0  0  0  0
  7  8  1  0  0  0  0
  9  7  1  0  0  0  0
 10 15  1  0  0  0  0
 10  7  1  0  0  0  0
 11 10  2  0  0  0  0
 12 13  2  0  0  0  0
 12 11  1  0  0  0  0
 13 14  1  0  0  0  0
 14 20  1  0  0  0  0
 14 15  2  0  0  0  0
 15 16  1  0  0  0  0
 17 11  1  0  0  0  0
 18 12  1  0  0  0  0
 19 13  1  0  0  0  0
 21  1  1  0  0  0  0
 22 21  1  0  0  0  0
 23 21  1  0  0  0  0
 24 21  1  0  0  0  0
 24 25  1  0  0  0  0
 25 30  1  0  0  0  0
 26 25  2  0  0  0  0
 26 31  1  0  0  0  0
 27 26  1  0  0  0  0
 28 29  1  0  0  0  0
 28 27  2  0  0  0  0
 29 24  2  0  0  0  0
 32 28  1  0  0  0  0
 33 29  1  0  0  0  0
 34 27  1  0  0  0  0
 35 34  1  0  0  0  0
 35 43  1  0  0  0  0
 36 35  2  0  0  0  0
 37 36  1  0  0  0  0
 38 39  2  0  0  0  0
 38 36  1  0  0  0  0
 39 41  1  0  0  0  0
 40 39  1  0  0  0  0
 41 42  1  0  0  0  0
 41 34  2  0  0  0  0
 44 38  1  0  0  0  0
 45 46  2  0  0  0  0
 47 45  1  0  0  0  0
 48 47  1  0  0  0  0
M  END
>  <MODEL>
33

>  <REMARK>
 VINA RESULT:    -7.124      5.438      9.586
 INTER + INTRA:         -11.079
 INTER:                 -10.248
 INTRA:                  -0.831
 UNBOUND:                -0.831
  Name = 
  8 active torsions:
  status: ('A' for Active; 'I' for Inactive)
    1  A    between atoms: C_2  and  C_3
    2  A    between atoms: C_3  and  C_4
    3  A    between atoms: N_11  and  CA_12
    4  A    between atoms: CA_12  and  C_13
    5  A    between atoms: CA_12  and  C_29
    6  A    between atoms: C_13  and  C_14
    7  A    between atoms: C_17  and  C_18
    8  A    between atoms: C_29  and  OXT_31
                            x       y       z     vdW  Elec       q    Type
                         _______ _______ _______ _____ _____    ______ ____

>  <TORSDO>
F 8

$$$$
