=
 OpenBabel07192307433D

 43 45  0  0  1  0  0  0  0  0999 V2000
    2.5540    3.3960   20.3950 C   0  0  2  0  0  0  0  0  0  0  0  0
    1.7210    2.1060   20.3420 C   0  0  0  0  0  0  0  0  0  0  0  0
    1.2360    2.0180   18.9080 C   0  0  0  0  0  0  0  0  0  0  0  0
    1.0260    3.4730   18.5080 C   0  0  0  0  0  0  0  0  0  0  0  0
    1.9790    4.2350   19.3220 N   0  0  0  0  0  0  0  0  0  0  0  0
    2.4010    3.8430   21.3850 H   0  0  0  0  0  0  0  0  0  0  0  0
    0.8520    2.2100   21.0060 H   0  0  0  0  0  0  0  0  0  0  0  0
    2.2730    1.2170   20.6590 H   0  0  0  0  0  0  0  0  0  0  0  0
    0.3190    1.4280   18.8110 H   0  0  0  0  0  0  0  0  0  0  0  0
    1.9910    1.5520   18.2680 H   0  0  0  0  0  0  0  0  0  0  0  0
   -0.0010    3.7780   18.7420 H   0  0  0  0  0  0  0  0  0  0  0  0
    1.2050    3.5980   17.4350 H   0  0  0  0  0  0  0  0  0  0  0  0
    2.0150    5.6160   19.3010 C   0  0  0  0  0  0  0  0  0  0  0  0
    2.3590    6.3440   18.1500 C   0  0  0  0  0  0  0  0  0  0  0  0
    2.3820    7.7460   18.1290 C   0  0  0  0  0  0  0  0  0  0  0  0
    2.0510    8.4660   19.2690 C   0  0  0  0  0  0  0  0  0  0  0  0
    1.6960    7.7820   20.4230 C   0  0  0  0  0  0  0  0  0  0  0  0
    1.6790    6.3800   20.4320 C   0  0  0  0  0  0  0  0  0  0  0  0
    2.6220    5.8360   17.2280 H   0  0  0  0  0  0  0  0  0  0  0  0
    2.6530    8.2670   17.2160 H   0  0  0  0  0  0  0  0  0  0  0  0
    2.0620    9.5520   19.2560 H   0  0  0  0  0  0  0  0  0  0  0  0
    1.4220    8.3280   21.3220 H   0  0  0  0  0  0  0  0  0  0  0  0
    1.3760    5.8950   21.3550 H   0  0  0  0  0  0  0  0  0  0  0  0
    4.0680    3.1590   20.1850 C   0  0  0  0  0  0  0  0  0  0  0  0
    4.3330    2.1460   20.5040 H   0  0  0  0  0  0  0  0  0  0  0  0
    4.6430    3.8570   20.8030 H   0  0  0  0  0  0  0  0  0  0  0  0
    5.3160    4.4470   18.4640 C   0  0  0  0  0  0  0  0  0  0  0  0
    5.6210    5.3370   19.2550 O   0  0  0  0  0  0  0  0  0  0  0  0
    4.5110    3.3900   18.8230 N   0  0  0  0  0  0  0  0  0  0  0  0
    4.3700    2.6210   18.1740 H   0  0  0  0  0  0  0  0  0  0  0  0
    6.7130    4.5500   14.3780 C   0  0  0  0  0  0  0  0  0  0  0  0
    5.3550    4.3590   14.6880 C   0  0  0  0  0  0  0  0  0  0  0  0
    4.9180    4.3230   16.0150 C   0  0  0  0  0  0  0  0  0  0  0  0
    5.8320    4.4730   17.0670 C   0  0  0  0  0  0  0  0  0  0  0  0
    7.1830    4.6620   16.7580 C   0  0  0  0  0  0  0  0  0  0  0  0
    8.0970    4.8290   17.7290 F   0  0  0  0  0  0  0  0  0  0  0  0
    7.6210    4.7000   15.4360 C   0  0  0  0  0  0  0  0  0  0  0  0
    4.6380    4.2420   13.8750 H   0  0  0  0  0  0  0  0  0  0  0  0
    3.8590    4.1790   16.2200 H   0  0  0  0  0  0  0  0  0  0  0  0
    8.6760    4.8510   15.2230 H   0  0  0  0  0  0  0  0  0  0  0  0
    6.6800    3.7480   12.1430 O   0  0  0  0  0  0  0  0  0  0  0  0
    7.1870    4.5970   12.9400 C   0  0  0  0  0  0  0  0  0  0  0  0
    8.0540    5.4770   12.6470 O   0  0  0  0  0  1  0  0  0  0  0  0
  1  6  1  1  0  0  0
  2  1  1  0  0  0  0
  2  8  1  0  0  0  0
  2  7  1  0  0  0  0
  3  2  1  0  0  0  0
  4 11  1  0  0  0  0
  4  3  1  0  0  0  0
  4  5  1  0  0  0  0
  5  1  1  0  0  0  0
  9  3  1  0  0  0  0
 10  3  1  0  0  0  0
 12  4  1  0  0  0  0
 13  5  1  0  0  0  0
 13 18  1  0  0  0  0
 14 13  2  0  0  0  0
 15 14  1  0  0  0  0
 15 16  2  0  0  0  0
 16 17  1  0  0  0  0
 17 18  2  0  0  0  0
 17 22  1  0  0  0  0
 18 23  1  0  0  0  0
 19 14  1  0  0  0  0
 20 15  1  0  0  0  0
 21 16  1  0  0  0  0
 24  1  1  0  0  0  0
 24 25  1  0  0  0  0
 24 26  1  0  0  0  0
 27 29  1  0  0  0  0
 27 28  2  0  0  0  0
 29 24  1  0  0  0  0
 30 29  1  0  0  0  0
 31 32  2  0  0  0  0
 31 37  1  0  0  0  0
 32 33  1  0  0  0  0
 33 39  1  0  0  0  0
 33 34  2  0  0  0  0
 34 27  1  0  0  0  0
 35 34  1  0  0  0  0
 35 36  1  0  0  0  0
 37 35  2  0  0  0  0
 38 32  1  0  0  0  0
 40 37  1  0  0  0  0
 41 42  2  0  0  0  0
 42 31  1  0  0  0  0
 43 42  1  0  0  0  0
M  END
>  <MODEL>
1

>  <REMARK>
 VINA RESULT:    -8.302      0.000      0.000
 INTER + INTRA:         -11.232
 INTER:                 -10.249
 INTRA:                  -0.983
 UNBOUND:                -0.503
  Name = 
  5 active torsions:
  status: ('A' for Active; 'I' for Inactive)
    1  A    between atoms: C_2  and  C_4
    2  A    between atoms: C_7  and  C_8
    3  A    between atoms: N_10  and  C_11
    4  A    between atoms: C_11  and  C_12
    5  A    between atoms: N_16  and  C_17
                            x       y       z     vdW  Elec       q    Type
                         _______ _______ _______ _____ _____    ______ ____

>  <TORSDO>
F 5

$$$$
=
 OpenBabel07192307433D

 43 45  0  0  1  0  0  0  0  0999 V2000
    5.4490    6.0950   17.7030 C   0  0  2  0  0  0  0  0  0  0  0  0
    6.9190    6.3790   17.3600 C   0  0  0  0  0  0  0  0  0  0  0  0
    7.2680    5.3640   16.2880 C   0  0  0  0  0  0  0  0  0  0  0  0
    6.4530    4.1370   16.6730 C   0  0  0  0  0  0  0  0  0  0  0  0
    5.2780    4.6630   17.3750 N   0  0  0  0  0  0  0  0  0  0  0  0
    5.3220    6.2820   18.7770 H   0  0  0  0  0  0  0  0  0  0  0  0
    7.5400    6.1890   18.2460 H   0  0  0  0  0  0  0  0  0  0  0  0
    7.1020    7.4100   17.0450 H   0  0  0  0  0  0  0  0  0  0  0  0
    8.3410    5.1510   16.2470 H   0  0  0  0  0  0  0  0  0  0  0  0
    6.9710    5.7240   15.2980 H   0  0  0  0  0  0  0  0  0  0  0  0
    7.0390    3.4970   17.3430 H   0  0  0  0  0  0  0  0  0  0  0  0
    6.1800    3.5690   15.7770 H   0  0  0  0  0  0  0  0  0  0  0  0
    4.3440    3.8300   17.9610 C   0  0  0  0  0  0  0  0  0  0  0  0
    4.2950    3.6080   19.3480 C   0  0  0  0  0  0  0  0  0  0  0  0
    3.3380    2.7720   19.9390 C   0  0  0  0  0  0  0  0  0  0  0  0
    2.3880    2.1330   19.1530 C   0  0  0  0  0  0  0  0  0  0  0  0
    2.3990    2.3350   17.7800 C   0  0  0  0  0  0  0  0  0  0  0  0
    3.3620    3.1720   17.2010 C   0  0  0  0  0  0  0  0  0  0  0  0
    5.0080    4.0850   20.0130 H   0  0  0  0  0  0  0  0  0  0  0  0
    3.3370    2.6310   21.0160 H   0  0  0  0  0  0  0  0  0  0  0  0
    1.6410    1.4880   19.6080 H   0  0  0  0  0  0  0  0  0  0  0  0
    1.6570    1.8530   17.1500 H   0  0  0  0  0  0  0  0  0  0  0  0
    3.3130    3.3100   16.1250 H   0  0  0  0  0  0  0  0  0  0  0  0
    4.4520    6.9830   16.9230 C   0  0  0  0  0  0  0  0  0  0  0  0
    3.8560    6.3640   16.2440 H   0  0  0  0  0  0  0  0  0  0  0  0
    4.9990    7.7060   16.3090 H   0  0  0  0  0  0  0  0  0  0  0  0
    2.4290    7.2790   18.3360 C   0  0  0  0  0  0  0  0  0  0  0  0
    1.9910    6.1640   18.0590 O   0  0  0  0  0  0  0  0  0  0  0  0
    3.5840    7.7730   17.7750 N   0  0  0  0  0  0  0  0  0  0  0  0
    3.9700    8.6520   18.1090 H   0  0  0  0  0  0  0  0  0  0  0  0
    0.4290    9.7330   21.2750 C   0  0  0  0  0  0  0  0  0  0  0  0
    1.0000    8.4950   21.6150 C   0  0  0  0  0  0  0  0  0  0  0  0
    1.6400    7.7080   20.6520 C   0  0  0  0  0  0  0  0  0  0  0  0
    1.7200    8.1420   19.3220 C   0  0  0  0  0  0  0  0  0  0  0  0
    1.1510    9.3730   18.9840 C   0  0  0  0  0  0  0  0  0  0  0  0
    1.2150    9.8430   17.7270 F   0  0  0  0  0  0  0  0  0  0  0  0
    0.5140   10.1590   19.9420 C   0  0  0  0  0  0  0  0  0  0  0  0
    0.9430    8.1510   22.6490 H   0  0  0  0  0  0  0  0  0  0  0  0
    2.0770    6.7580   20.9500 H   0  0  0  0  0  0  0  0  0  0  0  0
    0.0810   11.1150   19.6530 H   0  0  0  0  0  0  0  0  0  0  0  0
   -0.3580   11.8300   22.0650 O   0  0  0  0  0  0  0  0  0  0  0  0
   -0.2580   10.5890   22.3190 C   0  0  0  0  0  0  0  0  0  0  0  0
   -0.6750   10.0010   23.3640 O   0  0  0  0  0  1  0  0  0  0  0  0
  1  6  1  1  0  0  0
  2  1  1  0  0  0  0
  2  7  1  0  0  0  0
  3  4  1  0  0  0  0
  3  2  1  0  0  0  0
  4 11  1  0  0  0  0
  4  5  1  0  0  0  0
  5  1  1  0  0  0  0
  5 13  1  0  0  0  0
  8  2  1  0  0  0  0
  9  3  1  0  0  0  0
 10  3  1  0  0  0  0
 12  4  1  0  0  0  0
 13 14  1  0  0  0  0
 14 15  2  0  0  0  0
 14 19  1  0  0  0  0
 15 20  1  0  0  0  0
 16 21  1  0  0  0  0
 16 15  1  0  0  0  0
 17 16  2  0  0  0  0
 18 17  1  0  0  0  0
 18 13  2  0  0  0  0
 22 17  1  0  0  0  0
 23 18  1  0  0  0  0
 24  1  1  0  0  0  0
 24 29  1  0  0  0  0
 25 24  1  0  0  0  0
 26 24  1  0  0  0  0
 27 34  1  0  0  0  0
 28 27  2  0  0  0  0
 29 30  1  0  0  0  0
 29 27  1  0  0  0  0
 31 32  1  0  0  0  0
 31 42  1  0  0  0  0
 32 38  1  0  0  0  0
 33 39  1  0  0  0  0
 33 32  2  0  0  0  0
 34 33  1  0  0  0  0
 35 34  2  0  0  0  0
 35 37  1  0  0  0  0
 36 35  1  0  0  0  0
 37 31  2  0  0  0  0
 40 37  1  0  0  0  0
 41 42  2  0  0  0  0
 42 43  1  0  0  0  0
M  END
>  <MODEL>
2

>  <REMARK>
 VINA RESULT:    -7.891      3.645      7.820
 INTER + INTRA:         -10.701
 INTER:                  -9.775
 INTRA:                  -0.925
 UNBOUND:                -0.503
  Name = 
  5 active torsions:
  status: ('A' for Active; 'I' for Inactive)
    1  A    between atoms: C_2  and  C_4
    2  A    between atoms: C_7  and  C_8
    3  A    between atoms: N_10  and  C_11
    4  A    between atoms: C_11  and  C_12
    5  A    between atoms: N_16  and  C_17
                            x       y       z     vdW  Elec       q    Type
                         _______ _______ _______ _____ _____    ______ ____

>  <TORSDO>
F 5

$$$$
=
 OpenBabel07192307433D

 43 45  0  0  1  0  0  0  0  0999 V2000
    2.6850    4.4930   18.5400 C   0  0  2  0  0  0  0  0  0  0  0  0
    1.3790    3.6860   18.5120 C   0  0  0  0  0  0  0  0  0  0  0  0
    1.8190    2.2360   18.5730 C   0  0  0  0  0  0  0  0  0  0  0  0
    3.1290    2.2240   17.7960 C   0  0  0  0  0  0  0  0  0  0  0  0
    3.6860    3.5700   17.9630 N   0  0  0  0  0  0  0  0  0  0  0  0
    2.5370    5.3770   17.9070 H   0  0  0  0  0  0  0  0  0  0  0  0
    0.8660    3.8620   17.5570 H   0  0  0  0  0  0  0  0  0  0  0  0
    0.6830    3.9530   19.3130 H   0  0  0  0  0  0  0  0  0  0  0  0
    1.0790    1.5550   18.1420 H   0  0  0  0  0  0  0  0  0  0  0  0
    1.9870    1.9220   19.6080 H   0  0  0  0  0  0  0  0  0  0  0  0
    2.9310    2.0250   16.7360 H   0  0  0  0  0  0  0  0  0  0  0  0
    3.7940    1.4490   18.1910 H   0  0  0  0  0  0  0  0  0  0  0  0
    4.8390    3.9690   17.3150 C   0  0  0  0  0  0  0  0  0  0  0  0
    4.9300    4.0470   15.9160 C   0  0  0  0  0  0  0  0  0  0  0  0
    6.0980    4.4640   15.2630 C   0  0  0  0  0  0  0  0  0  0  0  0
    7.2180    4.8260   15.9990 C   0  0  0  0  0  0  0  0  0  0  0  0
    7.1640    4.7710   17.3850 C   0  0  0  0  0  0  0  0  0  0  0  0
    5.9910    4.3510   18.0260 C   0  0  0  0  0  0  0  0  0  0  0  0
    4.0860    3.7820   15.2880 H   0  0  0  0  0  0  0  0  0  0  0  0
    6.1220    4.5100   14.1780 H   0  0  0  0  0  0  0  0  0  0  0  0
    8.1240    5.1550   15.4980 H   0  0  0  0  0  0  0  0  0  0  0  0
    8.0260    5.0610   17.9790 H   0  0  0  0  0  0  0  0  0  0  0  0
    5.9960    4.3440   19.1120 H   0  0  0  0  0  0  0  0  0  0  0  0
    3.0900    4.9600   19.9580 C   0  0  0  0  0  0  0  0  0  0  0  0
    4.1720    5.1210   20.0010 H   0  0  0  0  0  0  0  0  0  0  0  0
    2.8460    4.1830   20.6900 H   0  0  0  0  0  0  0  0  0  0  0  0
    2.3280    7.3080   19.6670 C   0  0  0  0  0  0  0  0  0  0  0  0
    2.9680    7.4570   18.6280 O   0  0  0  0  0  0  0  0  0  0  0  0
    2.3860    6.1480   20.4040 N   0  0  0  0  0  0  0  0  0  0  0  0
    1.7620    6.0230   21.1970 H   0  0  0  0  0  0  0  0  0  0  0  0
   -0.2110   10.4460   21.2040 C   0  0  0  0  0  0  0  0  0  0  0  0
    0.3930    9.5040   22.0540 C   0  0  0  0  0  0  0  0  0  0  0  0
    1.2090    8.4910   21.5430 C   0  0  0  0  0  0  0  0  0  0  0  0
    1.4360    8.3930   20.1630 C   0  0  0  0  0  0  0  0  0  0  0  0
    0.8340    9.3290   19.3170 C   0  0  0  0  0  0  0  0  0  0  0  0
    1.0340    9.2910   17.9890 F   0  0  0  0  0  0  0  0  0  0  0  0
    0.0220   10.3410   19.8250 C   0  0  0  0  0  0  0  0  0  0  0  0
    0.2210    9.5740   23.1300 H   0  0  0  0  0  0  0  0  0  0  0  0
    1.6650    7.7810   22.2290 H   0  0  0  0  0  0  0  0  0  0  0  0
   -0.4320   11.0590   19.1460 H   0  0  0  0  0  0  0  0  0  0  0  0
   -1.0460   11.7380   23.0130 O   0  0  0  0  0  1  0  0  0  0  0  0
   -1.0890   11.5500   21.7580 C   0  0  0  0  0  0  0  0  0  0  0  0
   -1.7980   12.1940   20.9260 O   0  0  0  0  0  0  0  0  0  0  0  0
  1  6  1  6  0  0  0
  1 24  1  0  0  0  0
  2  1  1  0  0  0  0
  2  3  1  0  0  0  0
  2  8  1  0  0  0  0
  3 10  1  0  0  0  0
  4  5  1  0  0  0  0
  4 12  1  0  0  0  0
  4  3  1  0  0  0  0
  5  1  1  0  0  0  0
  7  2  1  0  0  0  0
  9  3  1  0  0  0  0
 11  4  1  0  0  0  0
 13  5  1  0  0  0  0
 13 18  1  0  0  0  0
 14 13  2  0  0  0  0
 15 14  1  0  0  0  0
 15 16  2  0  0  0  0
 16 17  1  0  0  0  0
 17 22  1  0  0  0  0
 17 18  2  0  0  0  0
 18 23  1  0  0  0  0
 19 14  1  0  0  0  0
 20 15  1  0  0  0  0
 21 16  1  0  0  0  0
 24 25  1  0  0  0  0
 24 29  1  0  0  0  0
 24 26  1  0  0  0  0
 27 34  1  0  0  0  0
 27 29  1  0  0  0  0
 28 27  2  0  0  0  0
 29 30  1  0  0  0  0
 31 42  1  0  0  0  0
 31 32  1  0  0  0  0
 32 38  1  0  0  0  0
 33 32  2  0  0  0  0
 33 39  1  0  0  0  0
 34 33  1  0  0  0  0
 35 37  1  0  0  0  0
 35 34  2  0  0  0  0
 36 35  1  0  0  0  0
 37 31  2  0  0  0  0
 40 37  1  0  0  0  0
 42 41  1  0  0  0  0
 43 42  2  0  0  0  0
M  END
>  <MODEL>
3

>  <REMARK>
 VINA RESULT:    -7.886      3.808      7.743
 INTER + INTRA:         -10.694
 INTER:                 -10.488
 INTRA:                  -0.206
 UNBOUND:                -0.503
  Name = 
  5 active torsions:
  status: ('A' for Active; 'I' for Inactive)
    1  A    between atoms: C_2  and  C_4
    2  A    between atoms: C_7  and  C_8
    3  A    between atoms: N_10  and  C_11
    4  A    between atoms: C_11  and  C_12
    5  A    between atoms: N_16  and  C_17
                            x       y       z     vdW  Elec       q    Type
                         _______ _______ _______ _____ _____    ______ ____

>  <TORSDO>
F 5

$$$$
=
 OpenBabel07192307433D

 43 45  0  0  1  0  0  0  0  0999 V2000
    2.6990    4.4780   18.5280 C   0  0  2  0  0  0  0  0  0  0  0  0
    1.4100    3.6420   18.5060 C   0  0  0  0  0  0  0  0  0  0  0  0
    1.8820    2.2030   18.5770 C   0  0  0  0  0  0  0  0  0  0  0  0
    3.1920    2.2130   17.8000 C   0  0  0  0  0  0  0  0  0  0  0  0
    3.7200    3.5730   17.9570 N   0  0  0  0  0  0  0  0  0  0  0  0
    2.5320    5.3530   17.8880 H   0  0  0  0  0  0  0  0  0  0  0  0
    0.8930    3.8010   17.5490 H   0  0  0  0  0  0  0  0  0  0  0  0
    0.7090    3.9000   19.3050 H   0  0  0  0  0  0  0  0  0  0  0  0
    1.1560    1.5030   18.1510 H   0  0  0  0  0  0  0  0  0  0  0  0
    2.0560    1.9000   19.6140 H   0  0  0  0  0  0  0  0  0  0  0  0
    2.9980    2.0020   16.7410 H   0  0  0  0  0  0  0  0  0  0  0  0
    3.8730    1.4550   18.2000 H   0  0  0  0  0  0  0  0  0  0  0  0
    4.8640    3.9910   17.3060 C   0  0  0  0  0  0  0  0  0  0  0  0
    6.0210    4.3910   17.9950 C   0  0  0  0  0  0  0  0  0  0  0  0
    7.1840    4.8020   17.3290 C   0  0  0  0  0  0  0  0  0  0  0  0
    7.2270    4.8170   15.9420 C   0  0  0  0  0  0  0  0  0  0  0  0
    6.1060    4.4190   15.2260 C   0  0  0  0  0  0  0  0  0  0  0  0
    4.9490    4.0120   15.9030 C   0  0  0  0  0  0  0  0  0  0  0  0
    6.0490    4.3950   19.0790 H   0  0  0  0  0  0  0  0  0  0  0  0
    8.0560    5.1020   17.9040 H   0  0  0  0  0  0  0  0  0  0  0  0
    8.1280    5.1300   15.4220 H   0  0  0  0  0  0  0  0  0  0  0  0
    6.1240    4.4130   14.1400 H   0  0  0  0  0  0  0  0  0  0  0  0
    4.1070    3.6930   15.2950 H   0  0  0  0  0  0  0  0  0  0  0  0
    3.0930    4.9640   19.9420 C   0  0  0  0  0  0  0  0  0  0  0  0
    4.1750    5.1250   19.9910 H   0  0  0  0  0  0  0  0  0  0  0  0
    2.8450    4.1960   20.6820 H   0  0  0  0  0  0  0  0  0  0  0  0
    2.3510    7.3140   19.6240 C   0  0  0  0  0  0  0  0  0  0  0  0
    3.0150    7.4550   18.5990 O   0  0  0  0  0  0  0  0  0  0  0  0
    2.3860    6.1570   20.3670 N   0  0  0  0  0  0  0  0  0  0  0  0
    1.7450    6.0390   21.1470 H   0  0  0  0  0  0  0  0  0  0  0  0
   -0.2050   10.4710   21.0910 C   0  0  0  0  0  0  0  0  0  0  0  0
    0.3650    9.5230   21.9570 C   0  0  0  0  0  0  0  0  0  0  0  0
    1.1870    8.5030   21.4680 C   0  0  0  0  0  0  0  0  0  0  0  0
    1.4540    8.4060   20.0960 C   0  0  0  0  0  0  0  0  0  0  0  0
    0.8870    9.3490   19.2340 C   0  0  0  0  0  0  0  0  0  0  0  0
    1.1260    9.3110   17.9130 F   0  0  0  0  0  0  0  0  0  0  0  0
    0.0690   10.3670   19.7200 C   0  0  0  0  0  0  0  0  0  0  0  0
    0.1620    9.5930   23.0270 H   0  0  0  0  0  0  0  0  0  0  0  0
    1.6170    7.7880   22.1660 H   0  0  0  0  0  0  0  0  0  0  0  0
   -0.3590   11.0900   19.0290 H   0  0  0  0  0  0  0  0  0  0  0  0
   -1.7280   12.2640   20.7610 O   0  0  0  0  0  0  0  0  0  0  0  0
   -1.0890   11.5820   21.6210 C   0  0  0  0  0  0  0  0  0  0  0  0
   -1.1190   11.7440   22.8800 O   0  0  0  0  0  1  0  0  0  0  0  0
  1  6  1  6  0  0  0
  1 24  1  0  0  0  0
  2  1  1  0  0  0  0
  2  3  1  0  0  0  0
  2  8  1  0  0  0  0
  3 10  1  0  0  0  0
  4  5  1  0  0  0  0
  4 12  1  0  0  0  0
  4  3  1  0  0  0  0
  5  1  1  0  0  0  0
  7  2  1  0  0  0  0
  9  3  1  0  0  0  0
 11  4  1  0  0  0  0
 13  5  1  0  0  0  0
 13 14  1  0  0  0  0
 14 19  1  0  0  0  0
 15 20  1  0  0  0  0
 15 14  2  0  0  0  0
 16 15  1  0  0  0  0
 17 18  1  0  0  0  0
 17 16  2  0  0  0  0
 18 13  2  0  0  0  0
 21 16  1  0  0  0  0
 22 17  1  0  0  0  0
 23 18  1  0  0  0  0
 24 25  1  0  0  0  0
 24 29  1  0  0  0  0
 24 26  1  0  0  0  0
 27 34  1  0  0  0  0
 27 29  1  0  0  0  0
 28 27  2  0  0  0  0
 29 30  1  0  0  0  0
 31 42  1  0  0  0  0
 31 32  1  0  0  0  0
 32 38  1  0  0  0  0
 33 32  2  0  0  0  0
 33 39  1  0  0  0  0
 34 33  1  0  0  0  0
 35 37  1  0  0  0  0
 35 34  2  0  0  0  0
 36 35  1  0  0  0  0
 37 31  2  0  0  0  0
 40 37  1  0  0  0  0
 41 42  2  0  0  0  0
 42 43  1  0  0  0  0
M  END
>  <MODEL>
4

>  <REMARK>
 VINA RESULT:    -7.882      3.796      7.750
 INTER + INTRA:         -10.690
 INTER:                 -10.457
 INTRA:                  -0.233
 UNBOUND:                -0.503
  Name = 
  5 active torsions:
  status: ('A' for Active; 'I' for Inactive)
    1  A    between atoms: C_2  and  C_4
    2  A    between atoms: C_7  and  C_8
    3  A    between atoms: N_10  and  C_11
    4  A    between atoms: C_11  and  C_12
    5  A    between atoms: N_16  and  C_17
                            x       y       z     vdW  Elec       q    Type
                         _______ _______ _______ _____ _____    ______ ____

>  <TORSDO>
F 5

$$$$
=
 OpenBabel07192307433D

 43 45  0  0  1  0  0  0  0  0999 V2000
    2.7490    4.5510   18.3760 C   0  0  2  0  0  0  0  0  0  0  0  0
    1.5370    3.6210   18.5290 C   0  0  0  0  0  0  0  0  0  0  0  0
    2.1300    2.2630   18.8520 C   0  0  0  0  0  0  0  0  0  0  0  0
    3.4310    2.2410   18.0620 C   0  0  0  0  0  0  0  0  0  0  0  0
    3.8420    3.6450   17.9600 N   0  0  0  0  0  0  0  0  0  0  0  0
    2.5060    5.2780   17.5910 H   0  0  0  0  0  0  0  0  0  0  0  0
    1.0050    3.5580   17.5690 H   0  0  0  0  0  0  0  0  0  0  0  0
    0.8180    3.9610   19.2810 H   0  0  0  0  0  0  0  0  0  0  0  0
    1.4650    1.4390   18.5740 H   0  0  0  0  0  0  0  0  0  0  0  0
    2.3320    2.1700   19.9230 H   0  0  0  0  0  0  0  0  0  0  0  0
    3.2530    1.8250   17.0630 H   0  0  0  0  0  0  0  0  0  0  0  0
    4.1760    1.6280   18.5810 H   0  0  0  0  0  0  0  0  0  0  0  0
    4.9450    4.0320   17.2230 C   0  0  0  0  0  0  0  0  0  0  0  0
    6.1630    4.3950   17.8210 C   0  0  0  0  0  0  0  0  0  0  0  0
    7.2830    4.7730   17.0680 C   0  0  0  0  0  0  0  0  0  0  0  0
    7.2190    4.7930   15.6820 C   0  0  0  0  0  0  0  0  0  0  0  0
    6.0350    4.4300   15.0540 C   0  0  0  0  0  0  0  0  0  0  0  0
    4.9210    4.0560   15.8180 C   0  0  0  0  0  0  0  0  0  0  0  0
    6.2750    4.3930   18.9000 H   0  0  0  0  0  0  0  0  0  0  0  0
    8.2050    5.0450   17.5740 H   0  0  0  0  0  0  0  0  0  0  0  0
    8.0860    5.0800   15.0940 H   0  0  0  0  0  0  0  0  0  0  0  0
    5.9680    4.4280   13.9700 H   0  0  0  0  0  0  0  0  0  0  0  0
    4.0260    3.7640   15.2760 H   0  0  0  0  0  0  0  0  0  0  0  0
    3.1040    5.3180   19.6710 C   0  0  0  0  0  0  0  0  0  0  0  0
    4.1670    5.5810   19.6670 H   0  0  0  0  0  0  0  0  0  0  0  0
    2.9310    4.6780   20.5420 H   0  0  0  0  0  0  0  0  0  0  0  0
    2.3620    7.6160   19.0860 C   0  0  0  0  0  0  0  0  0  0  0  0
    3.1990    7.7320   18.1940 O   0  0  0  0  0  0  0  0  0  0  0  0
    2.2940    6.5010   19.8890 N   0  0  0  0  0  0  0  0  0  0  0  0
    1.5230    6.3960   20.5430 H   0  0  0  0  0  0  0  0  0  0  0  0
   -0.5780   10.7270   19.6650 C   0  0  0  0  0  0  0  0  0  0  0  0
   -0.1050   10.3900   18.3850 C   0  0  0  0  0  0  0  0  0  0  0  0
    0.8500    9.3840   18.2130 C   0  0  0  0  0  0  0  0  0  0  0  0
    1.3590    8.6930   19.3210 C   0  0  0  0  0  0  0  0  0  0  0  0
    0.8890    9.0300   20.5940 C   0  0  0  0  0  0  0  0  0  0  0  0
    1.3320    8.3870   21.6880 F   0  0  0  0  0  0  0  0  0  0  0  0
   -0.0640   10.0310   20.7680 C   0  0  0  0  0  0  0  0  0  0  0  0
   -0.4980   10.9220   17.5170 H   0  0  0  0  0  0  0  0  0  0  0  0
    1.1910    9.1430   17.2080 H   0  0  0  0  0  0  0  0  0  0  0  0
   -0.4160   10.2720   21.7680 H   0  0  0  0  0  0  0  0  0  0  0  0
   -1.4220   12.6380   20.7960 O   0  0  0  0  0  1  0  0  0  0  0  0
   -1.6200   11.8120   19.8520 C   0  0  0  0  0  0  0  0  0  0  0  0
   -2.6070   11.8070   19.0540 O   0  0  0  0  0  0  0  0  0  0  0  0
  1  6  1  6  0  0  0
  1  2  1  0  0  0  0
  1 24  1  0  0  0  0
  2  3  1  0  0  0  0
  2  8  1  0  0  0  0
  3 10  1  0  0  0  0
  4 12  1  0  0  0  0
  4  3  1  0  0  0  0
  5  4  1  0  0  0  0
  5  1  1  0  0  0  0
  7  2  1  0  0  0  0
  9  3  1  0  0  0  0
 11  4  1  0  0  0  0
 13 14  1  0  0  0  0
 13  5  1  0  0  0  0
 14 19  1  0  0  0  0
 15 20  1  0  0  0  0
 15 14  2  0  0  0  0
 16 15  1  0  0  0  0
 17 16  2  0  0  0  0
 17 18  1  0  0  0  0
 18 13  2  0  0  0  0
 21 16  1  0  0  0  0
 22 17  1  0  0  0  0
 23 18  1  0  0  0  0
 24 29  1  0  0  0  0
 24 26  1  0  0  0  0
 25 24  1  0  0  0  0
 27 34  1  0  0  0  0
 27 29  1  0  0  0  0
 28 27  2  0  0  0  0
 29 30  1  0  0  0  0
 31 42  1  0  0  0  0
 31 37  1  0  0  0  0
 32 31  2  0  0  0  0
 33 32  1  0  0  0  0
 33 34  2  0  0  0  0
 34 35  1  0  0  0  0
 35 37  2  0  0  0  0
 35 36  1  0  0  0  0
 37 40  1  0  0  0  0
 38 32  1  0  0  0  0
 39 33  1  0  0  0  0
 42 41  1  0  0  0  0
 43 42  2  0  0  0  0
M  END
>  <MODEL>
5

>  <REMARK>
 VINA RESULT:    -7.785      3.917      7.589
 INTER + INTRA:         -10.564
 INTER:                 -10.191
 INTRA:                  -0.373
 UNBOUND:                -0.503
  Name = 
  5 active torsions:
  status: ('A' for Active; 'I' for Inactive)
    1  A    between atoms: C_2  and  C_4
    2  A    between atoms: C_7  and  C_8
    3  A    between atoms: N_10  and  C_11
    4  A    between atoms: C_11  and  C_12
    5  A    between atoms: N_16  and  C_17
                            x       y       z     vdW  Elec       q    Type
                         _______ _______ _______ _____ _____    ______ ____

>  <TORSDO>
F 5

$$$$
=
 OpenBabel07192307433D

 43 45  0  0  1  0  0  0  0  0999 V2000
    0.7550   11.3140   18.9190 C   0  0  2  0  0  0  0  0  0  0  0  0
    1.3120   11.6630   20.3070 C   0  0  0  0  0  0  0  0  0  0  0  0
    0.6440   10.6810   21.2500 C   0  0  0  0  0  0  0  0  0  0  0  0
   -0.7400   10.4850   20.6450 C   0  0  0  0  0  0  0  0  0  0  0  0
   -0.5650   10.7120   19.2070 N   0  0  0  0  0  0  0  0  0  0  0  0
    0.6580   12.2530   18.3600 H   0  0  0  0  0  0  0  0  0  0  0  0
    1.0010   12.6820   20.5760 H   0  0  0  0  0  0  0  0  0  0  0  0
    2.4040   11.6280   20.3610 H   0  0  0  0  0  0  0  0  0  0  0  0
    0.5950   11.0550   22.2780 H   0  0  0  0  0  0  0  0  0  0  0  0
    1.1880    9.7320   21.2750 H   0  0  0  0  0  0  0  0  0  0  0  0
   -1.4370   11.2210   21.0630 H   0  0  0  0  0  0  0  0  0  0  0  0
   -1.1070    9.4760   20.8630 H   0  0  0  0  0  0  0  0  0  0  0  0
   -1.6340   10.7110   18.3320 C   0  0  0  0  0  0  0  0  0  0  0  0
   -1.6940    9.8650   17.2130 C   0  0  0  0  0  0  0  0  0  0  0  0
   -2.7880    9.8580   16.3360 C   0  0  0  0  0  0  0  0  0  0  0  0
   -3.8670   10.7010   16.5600 C   0  0  0  0  0  0  0  0  0  0  0  0
   -3.8490   11.5460   17.6620 C   0  0  0  0  0  0  0  0  0  0  0  0
   -2.7490   11.5440   18.5300 C   0  0  0  0  0  0  0  0  0  0  0  0
   -0.8820    9.1800   16.9900 H   0  0  0  0  0  0  0  0  0  0  0  0
   -2.7900    9.1850   15.4840 H   0  0  0  0  0  0  0  0  0  0  0  0
   -4.7190   10.6950   15.8860 H   0  0  0  0  0  0  0  0  0  0  0  0
   -4.6900   12.2050   17.8600 H   0  0  0  0  0  0  0  0  0  0  0  0
   -2.7950   12.2110   19.3860 H   0  0  0  0  0  0  0  0  0  0  0  0
    1.6600   10.3490   18.1180 C   0  0  0  0  0  0  0  0  0  0  0  0
    2.7090   10.6430   18.2320 H   0  0  0  0  0  0  0  0  0  0  0  0
    1.4190   10.4120   17.0520 H   0  0  0  0  0  0  0  0  0  0  0  0
    2.4630    8.0030   18.2860 C   0  0  0  0  0  0  0  0  0  0  0  0
    3.5120    8.2490   17.6940 O   0  0  0  0  0  0  0  0  0  0  0  0
    1.4870    8.9540   18.4750 N   0  0  0  0  0  0  0  0  0  0  0  0
    0.6840    8.7430   19.0610 H   0  0  0  0  0  0  0  0  0  0  0  0
    1.8110    4.0240   19.8350 C   0  0  0  0  0  0  0  0  0  0  0  0
    2.1780    4.2420   18.4970 C   0  0  0  0  0  0  0  0  0  0  0  0
    2.3810    5.5360   18.0070 C   0  0  0  0  0  0  0  0  0  0  0  0
    2.2170    6.6450   18.8480 C   0  0  0  0  0  0  0  0  0  0  0  0
    1.8510    6.4280   20.1800 C   0  0  0  0  0  0  0  0  0  0  0  0
    1.6980    7.4560   21.0320 F   0  0  0  0  0  0  0  0  0  0  0  0
    1.6490    5.1390   20.6700 C   0  0  0  0  0  0  0  0  0  0  0  0
    2.3090    3.3840   17.8360 H   0  0  0  0  0  0  0  0  0  0  0  0
    2.6700    5.6700   16.9670 H   0  0  0  0  0  0  0  0  0  0  0  0
    1.3680    4.9970   21.7100 H   0  0  0  0  0  0  0  0  0  0  0  0
    1.6370    1.6760   19.5220 O   0  0  0  0  0  0  0  0  0  0  0  0
    1.5990    2.6220   20.3690 C   0  0  0  0  0  0  0  0  0  0  0  0
    1.3960    2.5040   21.6160 O   0  0  0  0  0  1  0  0  0  0  0  0
  1  6  1  6  0  0  0
  1  5  1  0  0  0  0
  1  2  1  0  0  0  0
  2  8  1  0  0  0  0
  2  7  1  0  0  0  0
  2  3  1  0  0  0  0
  3 10  1  0  0  0  0
  3  9  1  0  0  0  0
  4 12  1  0  0  0  0
  4 11  1  0  0  0  0
  4  3  1  0  0  0  0
  5  4  1  0  0  0  0
 13 18  1  0  0  0  0
 13  5  1  0  0  0  0
 14 13  2  0  0  0  0
 15 16  2  0  0  0  0
 15 14  1  0  0  0  0
 16 17  1  0  0  0  0
 17 22  1  0  0  0  0
 17 18  2  0  0  0  0
 18 23  1  0  0  0  0
 19 14  1  0  0  0  0
 20 15  1  0  0  0  0
 21 16  1  0  0  0  0
 24 25  1  0  0  0  0
 24 29  1  0  0  0  0
 24  1  1  0  0  0  0
 26 24  1  0  0  0  0
 27 29  1  0  0  0  0
 27 34  1  0  0  0  0
 28 27  2  0  0  0  0
 29 30  1  0  0  0  0
 31 42  1  0  0  0  0
 31 37  1  0  0  0  0
 32 31  2  0  0  0  0
 33 32  1  0  0  0  0
 33 34  2  0  0  0  0
 34 35  1  0  0  0  0
 35 37  2  0  0  0  0
 35 36  1  0  0  0  0
 37 40  1  0  0  0  0
 38 32  1  0  0  0  0
 39 33  1  0  0  0  0
 41 42  2  0  0  0  0
 42 43  1  0  0  0  0
M  END
>  <MODEL>
6

>  <REMARK>
 VINA RESULT:    -7.766      4.334      7.275
 INTER + INTRA:         -10.539
 INTER:                  -9.879
 INTRA:                  -0.660
 UNBOUND:                -0.503
  Name = 
  5 active torsions:
  status: ('A' for Active; 'I' for Inactive)
    1  A    between atoms: C_2  and  C_4
    2  A    between atoms: C_7  and  C_8
    3  A    between atoms: N_10  and  C_11
    4  A    between atoms: C_11  and  C_12
    5  A    between atoms: N_16  and  C_17
                            x       y       z     vdW  Elec       q    Type
                         _______ _______ _______ _____ _____    ______ ____

>  <TORSDO>
F 5

$$$$
=
 OpenBabel07192307433D

 43 45  0  0  1  0  0  0  0  0999 V2000
    2.7570    4.4800   18.4810 C   0  0  2  0  0  0  0  0  0  0  0  0
    1.5320    3.5640   18.6210 C   0  0  0  0  0  0  0  0  0  0  0  0
    2.1070    2.1900   18.9040 C   0  0  0  0  0  0  0  0  0  0  0  0
    3.4020    2.1680   18.1040 C   0  0  0  0  0  0  0  0  0  0  0  0
    3.8330    3.5690   18.0350 N   0  0  0  0  0  0  0  0  0  0  0  0
    2.5190    5.2300   17.7170 H   0  0  0  0  0  0  0  0  0  0  0  0
    0.9920    3.5340   17.6640 H   0  0  0  0  0  0  0  0  0  0  0  0
    0.8240    3.8950   19.3870 H   0  0  0  0  0  0  0  0  0  0  0  0
    1.4280    1.3830   18.6110 H   0  0  0  0  0  0  0  0  0  0  0  0
    2.3160    2.0660   19.9710 H   0  0  0  0  0  0  0  0  0  0  0  0
    3.2100    1.7810   17.0960 H   0  0  0  0  0  0  0  0  0  0  0  0
    4.1420    1.5320   18.6000 H   0  0  0  0  0  0  0  0  0  0  0  0
    4.9350    3.9580   17.2990 C   0  0  0  0  0  0  0  0  0  0  0  0
    4.9260    4.0090   15.8950 C   0  0  0  0  0  0  0  0  0  0  0  0
    6.0430    4.4180   15.1530 C   0  0  0  0  0  0  0  0  0  0  0  0
    7.2110    4.7970   15.8010 C   0  0  0  0  0  0  0  0  0  0  0  0
    7.2560    4.7680   17.1880 C   0  0  0  0  0  0  0  0  0  0  0  0
    6.1330    4.3570   17.9180 C   0  0  0  0  0  0  0  0  0  0  0  0
    4.0400    3.7310   15.3340 H   0  0  0  0  0  0  0  0  0  0  0  0
    5.9900    4.4430   14.0680 H   0  0  0  0  0  0  0  0  0  0  0  0
    8.0770    5.1190   15.2300 H   0  0  0  0  0  0  0  0  0  0  0  0
    8.1570    5.0720   17.7130 H   0  0  0  0  0  0  0  0  0  0  0  0
    6.2150    4.3710   19.0010 H   0  0  0  0  0  0  0  0  0  0  0  0
    3.1340    5.2080   19.7930 C   0  0  0  0  0  0  0  0  0  0  0  0
    4.2080    5.4190   19.8050 H   0  0  0  0  0  0  0  0  0  0  0  0
    2.9180    4.5640   20.6510 H   0  0  0  0  0  0  0  0  0  0  0  0
    2.4070    7.4990   19.1620 C   0  0  0  0  0  0  0  0  0  0  0  0
    3.1660    7.5460   18.1960 O   0  0  0  0  0  0  0  0  0  0  0  0
    2.3790    6.4260   20.0220 N   0  0  0  0  0  0  0  0  0  0  0  0
    1.6660    6.3770   20.7440 H   0  0  0  0  0  0  0  0  0  0  0  0
   -0.3710   10.7380   19.8320 C   0  0  0  0  0  0  0  0  0  0  0  0
    0.1200   10.4420   18.5480 C   0  0  0  0  0  0  0  0  0  0  0  0
    1.0230    9.3940   18.3470 C   0  0  0  0  0  0  0  0  0  0  0  0
    1.4600    8.6180   19.4290 C   0  0  0  0  0  0  0  0  0  0  0  0
    0.9720    8.9130   20.7050 C   0  0  0  0  0  0  0  0  0  0  0  0
    1.3460    8.1880   21.7730 F   0  0  0  0  0  0  0  0  0  0  0  0
    0.0720    9.9570   20.9080 C   0  0  0  0  0  0  0  0  0  0  0  0
   -0.2170   11.0420   17.7010 H   0  0  0  0  0  0  0  0  0  0  0  0
    1.3790    9.1880   17.3400 H   0  0  0  0  0  0  0  0  0  0  0  0
   -0.2950   10.1640   21.9110 H   0  0  0  0  0  0  0  0  0  0  0  0
   -1.8450   12.4090   19.0100 O   0  0  0  0  0  0  0  0  0  0  0  0
   -1.3550   11.8700   20.0500 C   0  0  0  0  0  0  0  0  0  0  0  0
   -1.6080   12.1890   21.2520 O   0  0  0  0  0  1  0  0  0  0  0  0
  1  6  1  6  0  0  0
  1  2  1  0  0  0  0
  1 24  1  0  0  0  0
  2  3  1  0  0  0  0
  2  8  1  0  0  0  0
  3 10  1  0  0  0  0
  4 12  1  0  0  0  0
  4  3  1  0  0  0  0
  5  4  1  0  0  0  0
  5  1  1  0  0  0  0
  7  2  1  0  0  0  0
  9  3  1  0  0  0  0
 11  4  1  0  0  0  0
 13 18  1  0  0  0  0
 13  5  1  0  0  0  0
 14 13  2  0  0  0  0
 15 16  2  0  0  0  0
 15 14  1  0  0  0  0
 16 17  1  0  0  0  0
 17 22  1  0  0  0  0
 17 18  2  0  0  0  0
 18 23  1  0  0  0  0
 19 14  1  0  0  0  0
 20 15  1  0  0  0  0
 21 16  1  0  0  0  0
 24 25  1  0  0  0  0
 24 29  1  0  0  0  0
 24 26  1  0  0  0  0
 27 34  1  0  0  0  0
 27 29  1  0  0  0  0
 28 27  2  0  0  0  0
 29 30  1  0  0  0  0
 31 42  1  0  0  0  0
 31 37  1  0  0  0  0
 32 31  2  0  0  0  0
 33 32  1  0  0  0  0
 33 34  2  0  0  0  0
 34 35  1  0  0  0  0
 35 37  2  0  0  0  0
 35 36  1  0  0  0  0
 37 40  1  0  0  0  0
 38 32  1  0  0  0  0
 39 33  1  0  0  0  0
 41 42  2  0  0  0  0
 42 43  1  0  0  0  0
M  END
>  <MODEL>
7

>  <REMARK>
 VINA RESULT:    -7.751      3.856      7.490
 INTER + INTRA:         -10.520
 INTER:                 -10.310
 INTRA:                  -0.210
 UNBOUND:                -0.503
  Name = 
  5 active torsions:
  status: ('A' for Active; 'I' for Inactive)
    1  A    between atoms: C_2  and  C_4
    2  A    between atoms: C_7  and  C_8
    3  A    between atoms: N_10  and  C_11
    4  A    between atoms: C_11  and  C_12
    5  A    between atoms: N_16  and  C_17
                            x       y       z     vdW  Elec       q    Type
                         _______ _______ _______ _____ _____    ______ ____

>  <TORSDO>
F 5

$$$$
=
 OpenBabel07192307433D

 43 45  0  0  1  0  0  0  0  0999 V2000
    4.2050    6.4110   18.0160 C   0  0  2  0  0  0  0  0  0  0  0  0
    5.5860    6.3450   17.3470 C   0  0  0  0  0  0  0  0  0  0  0  0
    5.4450    5.2850   16.2720 C   0  0  0  0  0  0  0  0  0  0  0  0
    4.4770    4.2800   16.8820 C   0  0  0  0  0  0  0  0  0  0  0  0
    3.6400    5.0610   17.7990 N   0  0  0  0  0  0  0  0  0  0  0  0
    4.3670    6.6150   19.0820 H   0  0  0  0  0  0  0  0  0  0  0  0
    6.3290    6.0090   18.0840 H   0  0  0  0  0  0  0  0  0  0  0  0
    5.9260    7.3070   16.9530 H   0  0  0  0  0  0  0  0  0  0  0  0
    6.4040    4.8260   16.0090 H   0  0  0  0  0  0  0  0  0  0  0  0
    5.0260    5.7110   15.3560 H   0  0  0  0  0  0  0  0  0  0  0  0
    5.0350    3.5150   17.4360 H   0  0  0  0  0  0  0  0  0  0  0  0
    3.8890    3.7980   16.0940 H   0  0  0  0  0  0  0  0  0  0  0  0
    2.6950    4.4650   18.6110 C   0  0  0  0  0  0  0  0  0  0  0  0
    1.8680    3.4210   18.1670 C   0  0  0  0  0  0  0  0  0  0  0  0
    0.9200    2.8100   18.9990 C   0  0  0  0  0  0  0  0  0  0  0  0
    0.7760    3.2260   20.3150 C   0  0  0  0  0  0  0  0  0  0  0  0
    1.5820    4.2490   20.7940 C   0  0  0  0  0  0  0  0  0  0  0  0
    2.5250    4.8530   19.9520 C   0  0  0  0  0  0  0  0  0  0  0  0
    1.9390    3.0490   17.1490 H   0  0  0  0  0  0  0  0  0  0  0  0
    0.3020    2.0050   18.6120 H   0  0  0  0  0  0  0  0  0  0  0  0
    0.0460    2.7520   20.9650 H   0  0  0  0  0  0  0  0  0  0  0  0
    1.4920    4.5810   21.8250 H   0  0  0  0  0  0  0  0  0  0  0  0
    3.1430    5.6360   20.3820 H   0  0  0  0  0  0  0  0  0  0  0  0
    3.2900    7.5130   17.4320 C   0  0  0  0  0  0  0  0  0  0  0  0
    2.5320    7.0610   16.7840 H   0  0  0  0  0  0  0  0  0  0  0  0
    3.8800    8.1980   16.8150 H   0  0  0  0  0  0  0  0  0  0  0  0
    1.4380    8.9480   18.2600 C   0  0  0  0  0  0  0  0  0  0  0  0
    0.8450    8.9190   17.1840 O   0  0  0  0  0  0  0  0  0  0  0  0
    2.6600    8.3430   18.4410 N   0  0  0  0  0  0  0  0  0  0  0  0
    3.0670    8.2970   19.3710 H   0  0  0  0  0  0  0  0  0  0  0  0
   -0.3720   11.0080   21.5970 C   0  0  0  0  0  0  0  0  0  0  0  0
   -0.2150   11.6290   20.3460 C   0  0  0  0  0  0  0  0  0  0  0  0
    0.3770   10.9510   19.2760 C   0  0  0  0  0  0  0  0  0  0  0  0
    0.8310    9.6350   19.4350 C   0  0  0  0  0  0  0  0  0  0  0  0
    0.6760    9.0190   20.6800 C   0  0  0  0  0  0  0  0  0  0  0  0
    1.0780    7.7520   20.8800 F   0  0  0  0  0  0  0  0  0  0  0  0
    0.0850    9.6910   21.7470 C   0  0  0  0  0  0  0  0  0  0  0  0
   -0.5670   12.6530   20.2140 H   0  0  0  0  0  0  0  0  0  0  0  0
    0.4790   11.4590   18.3190 H   0  0  0  0  0  0  0  0  0  0  0  0
   -0.0270    9.1880   22.7050 H   0  0  0  0  0  0  0  0  0  0  0  0
   -0.6790   12.9500   22.9310 O   0  0  0  0  0  0  0  0  0  0  0  0
   -1.0200   11.7390   22.7560 C   0  0  0  0  0  0  0  0  0  0  0  0
   -1.8490   11.0830   23.4590 O   0  0  0  0  0  1  0  0  0  0  0  0
  1  6  1  1  0  0  0
  2  1  1  0  0  0  0
  2  7  1  0  0  0  0
  3  4  1  0  0  0  0
  3  2  1  0  0  0  0
  4 11  1  0  0  0  0
  4  5  1  0  0  0  0
  5  1  1  0  0  0  0
  5 13  1  0  0  0  0
  8  2  1  0  0  0  0
  9  3  1  0  0  0  0
 10  3  1  0  0  0  0
 12  4  1  0  0  0  0
 13 18  1  0  0  0  0
 14 13  2  0  0  0  0
 14 15  1  0  0  0  0
 15 16  2  0  0  0  0
 16 17  1  0  0  0  0
 16 21  1  0  0  0  0
 17 22  1  0  0  0  0
 18 23  1  0  0  0  0
 18 17  2  0  0  0  0
 19 14  1  0  0  0  0
 20 15  1  0  0  0  0
 24  1  1  0  0  0  0
 24 29  1  0  0  0  0
 25 24  1  0  0  0  0
 26 24  1  0  0  0  0
 27 29  1  0  0  0  0
 27 34  1  0  0  0  0
 28 27  2  0  0  0  0
 29 30  1  0  0  0  0
 31 37  1  0  0  0  0
 31 42  1  0  0  0  0
 32 31  2  0  0  0  0
 33 34  2  0  0  0  0
 33 32  1  0  0  0  0
 34 35  1  0  0  0  0
 35 36  1  0  0  0  0
 35 37  2  0  0  0  0
 37 40  1  0  0  0  0
 38 32  1  0  0  0  0
 39 33  1  0  0  0  0
 42 41  2  0  0  0  0
 42 43  1  0  0  0  0
M  END
>  <MODEL>
8

>  <REMARK>
 VINA RESULT:    -7.696      4.255      8.259
 INTER + INTRA:         -10.448
 INTER:                  -9.575
 INTRA:                  -0.873
 UNBOUND:                -0.503
  Name = 
  5 active torsions:
  status: ('A' for Active; 'I' for Inactive)
    1  A    between atoms: C_2  and  C_4
    2  A    between atoms: C_7  and  C_8
    3  A    between atoms: N_10  and  C_11
    4  A    between atoms: C_11  and  C_12
    5  A    between atoms: N_16  and  C_17
                            x       y       z     vdW  Elec       q    Type
                         _______ _______ _______ _____ _____    ______ ____

>  <TORSDO>
F 5

$$$$
=
 OpenBabel07192307433D

 43 45  0  0  1  0  0  0  0  0999 V2000
    3.6000    6.7430   18.1900 C   0  0  2  0  0  0  0  0  0  0  0  0
    4.9080    6.9660   17.4170 C   0  0  0  0  0  0  0  0  0  0  0  0
    4.9100    5.8950   16.3430 C   0  0  0  0  0  0  0  0  0  0  0  0
    4.2240    4.7120   17.0120 C   0  0  0  0  0  0  0  0  0  0  0  0
    3.3150    5.3040   18.0000 N   0  0  0  0  0  0  0  0  0  0  0  0
    3.7970    6.9800   19.2420 H   0  0  0  0  0  0  0  0  0  0  0  0
    5.7590    6.7950   18.0910 H   0  0  0  0  0  0  0  0  0  0  0  0
    5.0080    7.9760   17.0100 H   0  0  0  0  0  0  0  0  0  0  0  0
    5.9200    5.6460   16.0010 H   0  0  0  0  0  0  0  0  0  0  0  0
    4.3420    6.2200   15.4670 H   0  0  0  0  0  0  0  0  0  0  0  0
    4.9700    4.0830   17.5130 H   0  0  0  0  0  0  0  0  0  0  0  0
    3.6900    4.1140   16.2650 H   0  0  0  0  0  0  0  0  0  0  0  0
    2.5810    4.5270   18.8740 C   0  0  0  0  0  0  0  0  0  0  0  0
    2.6570    4.6820   20.2680 C   0  0  0  0  0  0  0  0  0  0  0  0
    1.9000    3.9000   21.1520 C   0  0  0  0  0  0  0  0  0  0  0  0
    1.0320    2.9350   20.6610 C   0  0  0  0  0  0  0  0  0  0  0  0
    0.9220    2.7580   19.2890 C   0  0  0  0  0  0  0  0  0  0  0  0
    1.6850    3.5450   18.4160 C   0  0  0  0  0  0  0  0  0  0  0  0
    3.3140    5.4240   20.7110 H   0  0  0  0  0  0  0  0  0  0  0  0
    1.9910    4.0560   22.2230 H   0  0  0  0  0  0  0  0  0  0  0  0
    0.4390    2.3300   21.3420 H   0  0  0  0  0  0  0  0  0  0  0  0
    0.2390    2.0160   18.8850 H   0  0  0  0  0  0  0  0  0  0  0  0
    1.5470    3.3790   17.3510 H   0  0  0  0  0  0  0  0  0  0  0  0
    2.4320    7.6260   17.6910 C   0  0  0  0  0  0  0  0  0  0  0  0
    1.7000    7.0090   17.1610 H   0  0  0  0  0  0  0  0  0  0  0  0
    2.8060    8.3710   16.9810 H   0  0  0  0  0  0  0  0  0  0  0  0
    1.6230    9.7500   18.6950 C   0  0  0  0  0  0  0  0  0  0  0  0
    2.1210   10.4380   17.8070 O   0  0  0  0  0  0  0  0  0  0  0  0
    1.7840    8.3850   18.7440 N   0  0  0  0  0  0  0  0  0  0  0  0
    1.2690    7.8400   19.4300 H   0  0  0  0  0  0  0  0  0  0  0  0
   -0.7150   11.5350   21.8590 C   0  0  0  0  0  0  0  0  0  0  0  0
    0.0670   10.3880   22.0780 C   0  0  0  0  0  0  0  0  0  0  0  0
    0.8150    9.8180   21.0440 C   0  0  0  0  0  0  0  0  0  0  0  0
    0.7940   10.3820   19.7610 C   0  0  0  0  0  0  0  0  0  0  0  0
    0.0150   11.5220   19.5430 C   0  0  0  0  0  0  0  0  0  0  0  0
   -0.0250   12.1120   18.3360 F   0  0  0  0  0  0  0  0  0  0  0  0
   -0.7290   12.0930   20.5730 C   0  0  0  0  0  0  0  0  0  0  0  0
    0.0890    9.9440   23.0750 H   0  0  0  0  0  0  0  0  0  0  0  0
    1.4140    8.9340   21.2490 H   0  0  0  0  0  0  0  0  0  0  0  0
   -1.3250   12.9820   20.3780 H   0  0  0  0  0  0  0  0  0  0  0  0
   -1.1290   13.2910   23.4040 O   0  0  0  0  0  0  0  0  0  0  0  0
   -1.5190   12.1590   22.9810 C   0  0  0  0  0  0  0  0  0  0  0  0
   -2.5150   11.4990   23.4120 O   0  0  0  0  0  1  0  0  0  0  0  0
  1  6  1  1  0  0  0
  2  7  1  0  0  0  0
  2  1  1  0  0  0  0
  3  4  1  0  0  0  0
  3  2  1  0  0  0  0
  4 11  1  0  0  0  0
  4  5  1  0  0  0  0
  5  1  1  0  0  0  0
  5 13  1  0  0  0  0
  8  2  1  0  0  0  0
  9  3  1  0  0  0  0
 10  3  1  0  0  0  0
 12  4  1  0  0  0  0
 13 14  1  0  0  0  0
 14 19  1  0  0  0  0
 14 15  2  0  0  0  0
 15 20  1  0  0  0  0
 16 15  1  0  0  0  0
 16 21  1  0  0  0  0
 17 16  2  0  0  0  0
 18 13  2  0  0  0  0
 18 17  1  0  0  0  0
 22 17  1  0  0  0  0
 23 18  1  0  0  0  0
 24  1  1  0  0  0  0
 24 29  1  0  0  0  0
 25 24  1  0  0  0  0
 26 24  1  0  0  0  0
 27 29  1  0  0  0  0
 27 34  1  0  0  0  0
 28 27  2  0  0  0  0
 29 30  1  0  0  0  0
 31 32  1  0  0  0  0
 31 42  1  0  0  0  0
 32 38  1  0  0  0  0
 33 39  1  0  0  0  0
 33 32  2  0  0  0  0
 34 33  1  0  0  0  0
 35 34  2  0  0  0  0
 35 37  1  0  0  0  0
 36 35  1  0  0  0  0
 37 31  2  0  0  0  0
 40 37  1  0  0  0  0
 42 41  2  0  0  0  0
 42 43  1  0  0  0  0
M  END
>  <MODEL>
9

>  <REMARK>
 VINA RESULT:    -7.607      4.772      8.796
 INTER + INTRA:         -10.334
 INTER:                  -9.738
 INTRA:                  -0.595
 UNBOUND:                -0.503
  Name = 
  5 active torsions:
  status: ('A' for Active; 'I' for Inactive)
    1  A    between atoms: C_2  and  C_4
    2  A    between atoms: C_7  and  C_8
    3  A    between atoms: N_10  and  C_11
    4  A    between atoms: C_11  and  C_12
    5  A    between atoms: N_16  and  C_17
                            x       y       z     vdW  Elec       q    Type
                         _______ _______ _______ _____ _____    ______ ____

>  <TORSDO>
F 5

$$$$
=
 OpenBabel07192307433D

 43 45  0  0  1  0  0  0  0  0999 V2000
    3.7060    6.5970   18.2080 C   0  0  2  0  0  0  0  0  0  0  0  0
    4.9990    6.7570   17.3950 C   0  0  0  0  0  0  0  0  0  0  0  0
    4.9170    5.6860   16.3240 C   0  0  0  0  0  0  0  0  0  0  0  0
    4.1970    4.5370   17.0180 C   0  0  0  0  0  0  0  0  0  0  0  0
    3.3480    5.1740   18.0310 N   0  0  0  0  0  0  0  0  0  0  0  0
    3.9460    6.8270   19.2530 H   0  0  0  0  0  0  0  0  0  0  0  0
    5.8610    6.5480   18.0420 H   0  0  0  0  0  0  0  0  0  0  0  0
    5.1330    7.7610   16.9820 H   0  0  0  0  0  0  0  0  0  0  0  0
    5.9020    5.3890   15.9520 H   0  0  0  0  0  0  0  0  0  0  0  0
    4.3370    6.0360   15.4650 H   0  0  0  0  0  0  0  0  0  0  0  0
    4.9280    3.8750   17.4970 H   0  0  0  0  0  0  0  0  0  0  0  0
    3.6130    3.9640   16.2900 H   0  0  0  0  0  0  0  0  0  0  0  0
    2.6060    4.4330   18.9310 C   0  0  0  0  0  0  0  0  0  0  0  0
    2.7480    4.5720   20.3220 C   0  0  0  0  0  0  0  0  0  0  0  0
    1.9840    3.8270   21.2310 C   0  0  0  0  0  0  0  0  0  0  0  0
    1.0400    2.9190   20.7700 C   0  0  0  0  0  0  0  0  0  0  0  0
    0.8640    2.7610   19.4030 C   0  0  0  0  0  0  0  0  0  0  0  0
    1.6360    3.5100   18.5040 C   0  0  0  0  0  0  0  0  0  0  0  0
    3.4660    5.2700   20.7410 H   0  0  0  0  0  0  0  0  0  0  0  0
    2.1270    3.9690   22.2980 H   0  0  0  0  0  0  0  0  0  0  0  0
    0.4420    2.3440   21.4710 H   0  0  0  0  0  0  0  0  0  0  0  0
    0.1220    2.0640   19.0230 H   0  0  0  0  0  0  0  0  0  0  0  0
    1.4440    3.3610   17.4450 H   0  0  0  0  0  0  0  0  0  0  0  0
    2.5660    7.5340   17.7430 C   0  0  0  0  0  0  0  0  0  0  0  0
    1.8080    6.9570   17.2040 H   0  0  0  0  0  0  0  0  0  0  0  0
    2.9600    8.2840   17.0490 H   0  0  0  0  0  0  0  0  0  0  0  0
    1.6200    9.6170   18.7130 C   0  0  0  0  0  0  0  0  0  0  0  0
    1.9260   10.2920   17.7330 O   0  0  0  0  0  0  0  0  0  0  0  0
    1.9530    8.2870   18.8210 N   0  0  0  0  0  0  0  0  0  0  0  0
    1.5910    7.7380   19.5960 H   0  0  0  0  0  0  0  0  0  0  0  0
   -0.6580   11.4530   21.8910 C   0  0  0  0  0  0  0  0  0  0  0  0
   -0.2860   12.1710   20.7410 C   0  0  0  0  0  0  0  0  0  0  0  0
    0.4560   11.5660   19.7230 C   0  0  0  0  0  0  0  0  0  0  0  0
    0.8470   10.2250   19.8330 C   0  0  0  0  0  0  0  0  0  0  0  0
    0.4780    9.5110   20.9770 C   0  0  0  0  0  0  0  0  0  0  0  0
    0.8130    8.2180   21.1240 F   0  0  0  0  0  0  0  0  0  0  0  0
   -0.2630   10.1120   21.9930 C   0  0  0  0  0  0  0  0  0  0  0  0
   -0.5880   13.2160   20.6480 H   0  0  0  0  0  0  0  0  0  0  0  0
    0.7220   12.1480   18.8440 H   0  0  0  0  0  0  0  0  0  0  0  0
   -0.5400    9.5340   22.8710 H   0  0  0  0  0  0  0  0  0  0  0  0
   -2.4470   11.4400   23.4530 O   0  0  0  0  0  1  0  0  0  0  0  0
   -1.4690   12.1070   22.9920 C   0  0  0  0  0  0  0  0  0  0  0  0
   -1.1100   13.2660   23.3620 O   0  0  0  0  0  0  0  0  0  0  0  0
  1  6  1  1  0  0  0
  2  7  1  0  0  0  0
  2  1  1  0  0  0  0
  3  4  1  0  0  0  0
  3  2  1  0  0  0  0
  4 11  1  0  0  0  0
  4  5  1  0  0  0  0
  5  1  1  0  0  0  0
  5 13  1  0  0  0  0
  8  2  1  0  0  0  0
  9  3  1  0  0  0  0
 10  3  1  0  0  0  0
 12  4  1  0  0  0  0
 13 14  1  0  0  0  0
 14 19  1  0  0  0  0
 14 15  2  0  0  0  0
 15 20  1  0  0  0  0
 16 15  1  0  0  0  0
 16 21  1  0  0  0  0
 17 16  2  0  0  0  0
 18 13  2  0  0  0  0
 18 17  1  0  0  0  0
 22 17  1  0  0  0  0
 23 18  1  0  0  0  0
 24  1  1  0  0  0  0
 24 29  1  0  0  0  0
 25 24  1  0  0  0  0
 26 24  1  0  0  0  0
 27 29  1  0  0  0  0
 27 34  1  0  0  0  0
 28 27  2  0  0  0  0
 29 30  1  0  0  0  0
 31 37  1  0  0  0  0
 31 42  1  0  0  0  0
 32 31  2  0  0  0  0
 33 34  2  0  0  0  0
 33 32  1  0  0  0  0
 34 35  1  0  0  0  0
 35 36  1  0  0  0  0
 35 37  2  0  0  0  0
 37 40  1  0  0  0  0
 38 32  1  0  0  0  0
 39 33  1  0  0  0  0
 42 43  2  0  0  0  0
 42 41  1  0  0  0  0
M  END
>  <MODEL>
10

>  <REMARK>
 VINA RESULT:    -7.602      4.538      8.613
 INTER + INTRA:         -10.327
 INTER:                  -9.959
 INTRA:                  -0.369
 UNBOUND:                -0.503
  Name = 
  5 active torsions:
  status: ('A' for Active; 'I' for Inactive)
    1  A    between atoms: C_2  and  C_4
    2  A    between atoms: C_7  and  C_8
    3  A    between atoms: N_10  and  C_11
    4  A    between atoms: C_11  and  C_12
    5  A    between atoms: N_16  and  C_17
                            x       y       z     vdW  Elec       q    Type
                         _______ _______ _______ _____ _____    ______ ____

>  <TORSDO>
F 5

$$$$
=
 OpenBabel07192307433D

 43 45  0  0  1  0  0  0  0  0999 V2000
    3.1850    3.0760   19.6830 C   0  0  2  0  0  0  0  0  0  0  0  0
    2.4120    1.7580   19.8340 C   0  0  0  0  0  0  0  0  0  0  0  0
    1.4400    1.7440   18.6690 C   0  0  0  0  0  0  0  0  0  0  0  0
    1.0750    3.2110   18.4870 C   0  0  0  0  0  0  0  0  0  0  0  0
    2.2450    3.9590   18.9590 N   0  0  0  0  0  0  0  0  0  0  0  0
    3.3940    3.4510   20.6930 H   0  0  0  0  0  0  0  0  0  0  0  0
    1.8410    1.7800   20.7730 H   0  0  0  0  0  0  0  0  0  0  0  0
    3.0560    0.8750   19.8610 H   0  0  0  0  0  0  0  0  0  0  0  0
    0.5610    1.1220   18.8640 H   0  0  0  0  0  0  0  0  0  0  0  0
    1.9200    1.3550   17.7660 H   0  0  0  0  0  0  0  0  0  0  0  0
    0.1980    3.4550   19.0980 H   0  0  0  0  0  0  0  0  0  0  0  0
    0.8500    3.4150   17.4340 H   0  0  0  0  0  0  0  0  0  0  0  0
    2.2480    5.3390   19.0330 C   0  0  0  0  0  0  0  0  0  0  0  0
    2.5260    6.1540   17.9230 C   0  0  0  0  0  0  0  0  0  0  0  0
    2.5140    7.5540   18.0000 C   0  0  0  0  0  0  0  0  0  0  0  0
    2.2150    8.1840   19.2000 C   0  0  0  0  0  0  0  0  0  0  0  0
    1.9250    7.4120   20.3170 C   0  0  0  0  0  0  0  0  0  0  0  0
    1.9420    6.0140   20.2280 C   0  0  0  0  0  0  0  0  0  0  0  0
    2.7610    5.7180   16.9580 H   0  0  0  0  0  0  0  0  0  0  0  0
    2.7340    8.1440   17.1160 H   0  0  0  0  0  0  0  0  0  0  0  0
    2.2000    9.2680   19.2630 H   0  0  0  0  0  0  0  0  0  0  0  0
    1.6780    7.8880   21.2620 H   0  0  0  0  0  0  0  0  0  0  0  0
    1.6900    5.4580   21.1260 H   0  0  0  0  0  0  0  0  0  0  0  0
    4.5230    2.9210   18.9230 C   0  0  0  0  0  0  0  0  0  0  0  0
    4.3300    2.6170   17.8890 H   0  0  0  0  0  0  0  0  0  0  0  0
    5.1260    2.1340   19.3870 H   0  0  0  0  0  0  0  0  0  0  0  0
    5.9690    4.6230   17.8330 C   0  0  0  0  0  0  0  0  0  0  0  0
    5.9550    4.0400   16.7510 O   0  0  0  0  0  0  0  0  0  0  0  0
    5.3520    4.1120   18.9510 N   0  0  0  0  0  0  0  0  0  0  0  0
    5.2940    4.6730   19.7960 H   0  0  0  0  0  0  0  0  0  0  0  0
    8.0370    8.3900   18.2680 C   0  0  0  0  0  0  0  0  0  0  0  0
    8.3820    7.2680   19.0390 C   0  0  0  0  0  0  0  0  0  0  0  0
    7.7010    6.0560   18.8920 C   0  0  0  0  0  0  0  0  0  0  0  0
    6.6530    5.9410   17.9690 C   0  0  0  0  0  0  0  0  0  0  0  0
    6.3090    7.0580   17.2020 C   0  0  0  0  0  0  0  0  0  0  0  0
    5.3230    6.9950   16.2910 F   0  0  0  0  0  0  0  0  0  0  0  0
    6.9880    8.2660   17.3470 C   0  0  0  0  0  0  0  0  0  0  0  0
    9.1980    7.3490   19.7590 H   0  0  0  0  0  0  0  0  0  0  0  0
    7.9970    5.2040   19.5000 H   0  0  0  0  0  0  0  0  0  0  0  0
    6.7030    9.1200   16.7360 H   0  0  0  0  0  0  0  0  0  0  0  0
    9.5310    9.8180   19.4390 O   0  0  0  0  0  1  0  0  0  0  0  0
    8.7800    9.7020   18.4210 C   0  0  0  0  0  0  0  0  0  0  0  0
    8.5910   10.5800   17.5240 O   0  0  0  0  0  0  0  0  0  0  0  0
  1  2  1  0  0  0  0
  1  6  1  1  0  0  0
  2  8  1  0  0  0  0
  2  7  1  0  0  0  0
  3  9  1  0  0  0  0
  3  2  1  0  0  0  0
  4  3  1  0  0  0  0
  4  5  1  0  0  0  0
  4 11  1  0  0  0  0
  5 13  1  0  0  0  0
  5  1  1  0  0  0  0
 10  3  1  0  0  0  0
 12  4  1  0  0  0  0
 13 18  1  0  0  0  0
 14 15  1  0  0  0  0
 14 13  2  0  0  0  0
 15 16  2  0  0  0  0
 16 21  1  0  0  0  0
 16 17  1  0  0  0  0
 17 22  1  0  0  0  0
 18 17  2  0  0  0  0
 18 23  1  0  0  0  0
 19 14  1  0  0  0  0
 20 15  1  0  0  0  0
 24 29  1  0  0  0  0
 24 26  1  0  0  0  0
 24  1  1  0  0  0  0
 25 24  1  0  0  0  0
 27 34  1  0  0  0  0
 27 29  1  0  0  0  0
 28 27  2  0  0  0  0
 29 30  1  0  0  0  0
 31 42  1  0  0  0  0
 31 32  1  0  0  0  0
 32 38  1  0  0  0  0
 33 32  2  0  0  0  0
 33 39  1  0  0  0  0
 34 33  1  0  0  0  0
 35 37  1  0  0  0  0
 35 34  2  0  0  0  0
 36 35  1  0  0  0  0
 37 31  2  0  0  0  0
 40 37  1  0  0  0  0
 42 41  1  0  0  0  0
 43 42  2  0  0  0  0
M  END
>  <MODEL>
11

>  <REMARK>
 VINA RESULT:    -7.580      2.797      3.748
 INTER + INTRA:         -10.299
 INTER:                  -9.074
 INTRA:                  -1.225
 UNBOUND:                -0.503
  Name = 
  5 active torsions:
  status: ('A' for Active; 'I' for Inactive)
    1  A    between atoms: C_2  and  C_4
    2  A    between atoms: C_7  and  C_8
    3  A    between atoms: N_10  and  C_11
    4  A    between atoms: C_11  and  C_12
    5  A    between atoms: N_16  and  C_17
                            x       y       z     vdW  Elec       q    Type
                         _______ _______ _______ _____ _____    ______ ____

>  <TORSDO>
F 5

$$$$
=
 OpenBabel07192307433D

 43 45  0  0  1  0  0  0  0  0999 V2000
    1.0420    9.4070   21.9480 C   0  0  2  0  0  0  0  0  0  0  0  0
    0.3220    9.4330   23.3050 C   0  0  0  0  0  0  0  0  0  0  0  0
   -0.9860   10.1520   23.0330 C   0  0  0  0  0  0  0  0  0  0  0  0
   -0.6200   11.1780   21.9690 C   0  0  0  0  0  0  0  0  0  0  0  0
    0.5040   10.5850   21.2360 N   0  0  0  0  0  0  0  0  0  0  0  0
    2.1170    9.5090   22.1460 H   0  0  0  0  0  0  0  0  0  0  0  0
    0.9130   10.0270   24.0160 H   0  0  0  0  0  0  0  0  0  0  0  0
    0.1790    8.4410   23.7430 H   0  0  0  0  0  0  0  0  0  0  0  0
   -1.4010   10.6200   23.9310 H   0  0  0  0  0  0  0  0  0  0  0  0
   -1.7400    9.4580   22.6500 H   0  0  0  0  0  0  0  0  0  0  0  0
   -0.3090   12.1150   22.4470 H   0  0  0  0  0  0  0  0  0  0  0  0
   -1.4810   11.3720   21.3210 H   0  0  0  0  0  0  0  0  0  0  0  0
    1.1720   11.2750   20.2430 C   0  0  0  0  0  0  0  0  0  0  0  0
    1.3860   10.7380   18.9630 C   0  0  0  0  0  0  0  0  0  0  0  0
    2.0530   11.4470   17.9540 C   0  0  0  0  0  0  0  0  0  0  0  0
    2.5230   12.7300   18.1970 C   0  0  0  0  0  0  0  0  0  0  0  0
    2.3220   13.2990   19.4470 C   0  0  0  0  0  0  0  0  0  0  0  0
    1.6560   12.5790   20.4480 C   0  0  0  0  0  0  0  0  0  0  0  0
    1.0360    9.7410   18.7130 H   0  0  0  0  0  0  0  0  0  0  0  0
    2.1940   10.9910   16.9790 H   0  0  0  0  0  0  0  0  0  0  0  0
    3.0360   13.2850   17.4170 H   0  0  0  0  0  0  0  0  0  0  0  0
    2.6730   14.3070   19.6530 H   0  0  0  0  0  0  0  0  0  0  0  0
    1.5090   13.0790   21.4010 H   0  0  0  0  0  0  0  0  0  0  0  0
    0.8060    8.1020   21.1520 C   0  0  0  0  0  0  0  0  0  0  0  0
   -0.0180    8.2430   20.4450 H   0  0  0  0  0  0  0  0  0  0  0  0
    0.5160    7.2960   21.8340 H   0  0  0  0  0  0  0  0  0  0  0  0
    2.1500    6.3070   20.0800 C   0  0  0  0  0  0  0  0  0  0  0  0
    1.3550    5.4270   20.4030 O   0  0  0  0  0  0  0  0  0  0  0  0
    1.9860    7.6190   20.4600 N   0  0  0  0  0  0  0  0  0  0  0  0
    2.6040    8.3330   20.0850 H   0  0  0  0  0  0  0  0  0  0  0  0
    5.5770    5.2600   17.6690 C   0  0  0  0  0  0  0  0  0  0  0  0
    5.3050    4.6080   18.8840 C   0  0  0  0  0  0  0  0  0  0  0  0
    4.1940    4.9600   19.6570 C   0  0  0  0  0  0  0  0  0  0  0  0
    3.3310    5.9800   19.2320 C   0  0  0  0  0  0  0  0  0  0  0  0
    3.6030    6.6290   18.0240 C   0  0  0  0  0  0  0  0  0  0  0  0
    2.7970    7.6000   17.5640 F   0  0  0  0  0  0  0  0  0  0  0  0
    4.7080    6.2780   17.2520 C   0  0  0  0  0  0  0  0  0  0  0  0
    5.9710    3.8130   19.2200 H   0  0  0  0  0  0  0  0  0  0  0  0
    4.0090    4.4320   20.5890 H   0  0  0  0  0  0  0  0  0  0  0  0
    4.8970    6.7960   16.3150 H   0  0  0  0  0  0  0  0  0  0  0  0
    6.6830    5.0680   15.5750 O   0  0  0  0  0  0  0  0  0  0  0  0
    6.7760    4.8730   16.8270 C   0  0  0  0  0  0  0  0  0  0  0  0
    7.7760    4.3830   17.4370 O   0  0  0  0  0  1  0  0  0  0  0  0
  1  6  1  1  0  0  0
  1  2  1  0  0  0  0
  2  8  1  0  0  0  0
  2  7  1  0  0  0  0
  3  2  1  0  0  0  0
  3  9  1  0  0  0  0
  4 11  1  0  0  0  0
  4  3  1  0  0  0  0
  5  1  1  0  0  0  0
  5  4  1  0  0  0  0
 10  3  1  0  0  0  0
 12  4  1  0  0  0  0
 13 18  1  0  0  0  0
 13  5  1  0  0  0  0
 14 13  2  0  0  0  0
 15 16  2  0  0  0  0
 15 14  1  0  0  0  0
 16 17  1  0  0  0  0
 17 22  1  0  0  0  0
 17 18  2  0  0  0  0
 18 23  1  0  0  0  0
 19 14  1  0  0  0  0
 20 15  1  0  0  0  0
 21 16  1  0  0  0  0
 24 26  1  0  0  0  0
 24  1  1  0  0  0  0
 25 24  1  0  0  0  0
 27 28  2  0  0  0  0
 27 29  1  0  0  0  0
 29 24  1  0  0  0  0
 30 29  1  0  0  0  0
 31 32  1  0  0  0  0
 32 38  1  0  0  0  0
 32 33  2  0  0  0  0
 33 39  1  0  0  0  0
 34 33  1  0  0  0  0
 34 27  1  0  0  0  0
 35 34  2  0  0  0  0
 36 35  1  0  0  0  0
 37 31  2  0  0  0  0
 37 35  1  0  0  0  0
 40 37  1  0  0  0  0
 41 42  2  0  0  0  0
 42 43  1  0  0  0  0
 42 31  1  0  0  0  0
M  END
>  <MODEL>
12

>  <REMARK>
 VINA RESULT:    -7.534      3.421      5.475
 INTER + INTRA:         -10.240
 INTER:                  -9.539
 INTRA:                  -0.701
 UNBOUND:                -0.503
  Name = 
  5 active torsions:
  status: ('A' for Active; 'I' for Inactive)
    1  A    between atoms: C_2  and  C_4
    2  A    between atoms: C_7  and  C_8
    3  A    between atoms: N_10  and  C_11
    4  A    between atoms: C_11  and  C_12
    5  A    between atoms: N_16  and  C_17
                            x       y       z     vdW  Elec       q    Type
                         _______ _______ _______ _____ _____    ______ ____

>  <TORSDO>
F 5

$$$$
=
 OpenBabel07192307433D

 43 45  0  0  1  0  0  0  0  0999 V2000
    3.2590    3.1550   17.7690 C   0  0  2  0  0  0  0  0  0  0  0  0
    2.4590    2.0640   18.4960 C   0  0  0  0  0  0  0  0  0  0  0  0
    2.4650    2.4880   19.9530 C   0  0  0  0  0  0  0  0  0  0  0  0
    3.8250    3.1480   20.1310 C   0  0  0  0  0  0  0  0  0  0  0  0
    4.1670    3.6840   18.8090 N   0  0  0  0  0  0  0  0  0  0  0  0
    3.8130    2.6680   16.9570 H   0  0  0  0  0  0  0  0  0  0  0  0
    2.9870    1.1060   18.4020 H   0  0  0  0  0  0  0  0  0  0  0  0
    1.4500    1.9250   18.0980 H   0  0  0  0  0  0  0  0  0  0  0  0
    2.3240    1.6430   20.6350 H   0  0  0  0  0  0  0  0  0  0  0  0
    1.6630    3.2050   20.1540 H   0  0  0  0  0  0  0  0  0  0  0  0
    4.5650    2.4000   20.4390 H   0  0  0  0  0  0  0  0  0  0  0  0
    3.7660    3.9330   20.8930 H   0  0  0  0  0  0  0  0  0  0  0  0
    5.3880    4.2790   18.5560 C   0  0  0  0  0  0  0  0  0  0  0  0
    6.0550    4.1420   17.3280 C   0  0  0  0  0  0  0  0  0  0  0  0
    7.2870    4.7590   17.0710 C   0  0  0  0  0  0  0  0  0  0  0  0
    7.8900    5.5450   18.0440 C   0  0  0  0  0  0  0  0  0  0  0  0
    7.2570    5.7130   19.2680 C   0  0  0  0  0  0  0  0  0  0  0  0
    6.0260    5.0890   19.5120 C   0  0  0  0  0  0  0  0  0  0  0  0
    5.6300    3.5450   16.5280 H   0  0  0  0  0  0  0  0  0  0  0  0
    7.7660    4.6260   16.1060 H   0  0  0  0  0  0  0  0  0  0  0  0
    8.8430    6.0300   17.8480 H   0  0  0  0  0  0  0  0  0  0  0  0
    7.7070    6.3330   20.0370 H   0  0  0  0  0  0  0  0  0  0  0  0
    5.5650    5.2680   20.4790 H   0  0  0  0  0  0  0  0  0  0  0  0
    2.3720    4.2700   17.1650 C   0  0  0  0  0  0  0  0  0  0  0  0
    1.4820    3.8280   16.7050 H   0  0  0  0  0  0  0  0  0  0  0  0
    2.9200    4.7950   16.3760 H   0  0  0  0  0  0  0  0  0  0  0  0
    2.5640    6.5430   18.1510 C   0  0  0  0  0  0  0  0  0  0  0  0
    3.5240    6.8410   17.4440 O   0  0  0  0  0  0  0  0  0  0  0  0
    1.9900    5.2930   18.1200 N   0  0  0  0  0  0  0  0  0  0  0  0
    1.1340    5.1180   18.6390 H   0  0  0  0  0  0  0  0  0  0  0  0
    0.8750    9.4130   20.9010 C   0  0  0  0  0  0  0  0  0  0  0  0
    1.2750    8.1340   21.3250 C   0  0  0  0  0  0  0  0  0  0  0  0
    1.8160    7.2130   20.4230 C   0  0  0  0  0  0  0  0  0  0  0  0
    1.9650    7.5500   19.0710 C   0  0  0  0  0  0  0  0  0  0  0  0
    1.5660    8.8220   18.6490 C   0  0  0  0  0  0  0  0  0  0  0  0
    1.7040    9.2010   17.3680 F   0  0  0  0  0  0  0  0  0  0  0  0
    1.0280    9.7420   19.5470 C   0  0  0  0  0  0  0  0  0  0  0  0
    1.1630    7.8650   22.3760 H   0  0  0  0  0  0  0  0  0  0  0  0
    2.1200    6.2340   20.7850 H   0  0  0  0  0  0  0  0  0  0  0  0
    0.7280   10.7260   19.1950 H   0  0  0  0  0  0  0  0  0  0  0  0
    0.2140   11.6190   21.4840 O   0  0  0  0  0  0  0  0  0  0  0  0
    0.2960   10.4150   21.8800 C   0  0  0  0  0  0  0  0  0  0  0  0
   -0.0570    9.9730   23.0160 O   0  0  0  0  0  1  0  0  0  0  0  0
  1  6  1  6  0  0  0
  1  2  1  0  0  0  0
  1  5  1  0  0  0  0
  2  3  1  0  0  0  0
  3  4  1  0  0  0  0
  3 10  1  0  0  0  0
  3  9  1  0  0  0  0
  4 11  1  0  0  0  0
  4 12  1  0  0  0  0
  5  4  1  0  0  0  0
  7  2  1  0  0  0  0
  8  2  1  0  0  0  0
 13  5  1  0  0  0  0
 13 18  1  0  0  0  0
 14 13  2  0  0  0  0
 15 14  1  0  0  0  0
 15 16  2  0  0  0  0
 16 17  1  0  0  0  0
 17 18  2  0  0  0  0
 17 22  1  0  0  0  0
 18 23  1  0  0  0  0
 19 14  1  0  0  0  0
 20 15  1  0  0  0  0
 21 16  1  0  0  0  0
 24  1  1  0  0  0  0
 24 29  1  0  0  0  0
 25 24  1  0  0  0  0
 26 24  1  0  0  0  0
 27 34  1  0  0  0  0
 28 27  2  0  0  0  0
 29 27  1  0  0  0  0
 29 30  1  0  0  0  0
 31 32  1  0  0  0  0
 31 42  1  0  0  0  0
 32 38  1  0  0  0  0
 33 39  1  0  0  0  0
 33 32  2  0  0  0  0
 34 33  1  0  0  0  0
 35 34  2  0  0  0  0
 35 37  1  0  0  0  0
 36 35  1  0  0  0  0
 37 31  2  0  0  0  0
 40 37  1  0  0  0  0
 41 42  2  0  0  0  0
 42 43  1  0  0  0  0
M  END
>  <MODEL>
13

>  <REMARK>
 VINA RESULT:    -7.428      3.217      7.015
 INTER + INTRA:         -10.103
 INTER:                  -9.244
 INTRA:                  -0.858
 UNBOUND:                -0.503
  Name = 
  5 active torsions:
  status: ('A' for Active; 'I' for Inactive)
    1  A    between atoms: C_2  and  C_4
    2  A    between atoms: C_7  and  C_8
    3  A    between atoms: N_10  and  C_11
    4  A    between atoms: C_11  and  C_12
    5  A    between atoms: N_16  and  C_17
                            x       y       z     vdW  Elec       q    Type
                         _______ _______ _______ _____ _____    ______ ____

>  <TORSDO>
F 5

$$$$
=
 OpenBabel07192307433D

 43 45  0  0  1  0  0  0  0  0999 V2000
    0.7240   10.7140   18.8550 C   0  0  2  0  0  0  0  0  0  0  0  0
    1.6100   11.7490   19.5630 C   0  0  0  0  0  0  0  0  0  0  0  0
    0.7350   12.3180   20.6640 C   0  0  0  0  0  0  0  0  0  0  0  0
   -0.6610   12.3080   20.0560 C   0  0  0  0  0  0  0  0  0  0  0  0
   -0.6520   11.2000   19.0940 N   0  0  0  0  0  0  0  0  0  0  0  0
    0.9810   10.7380   17.7880 H   0  0  0  0  0  0  0  0  0  0  0  0
    1.8620   12.5530   18.8580 H   0  0  0  0  0  0  0  0  0  0  0  0
    2.5500   11.3340   19.9390 H   0  0  0  0  0  0  0  0  0  0  0  0
    1.0450   13.3230   20.9680 H   0  0  0  0  0  0  0  0  0  0  0  0
    0.7680   11.6840   21.5550 H   0  0  0  0  0  0  0  0  0  0  0  0
   -0.8490   13.2570   19.5400 H   0  0  0  0  0  0  0  0  0  0  0  0
   -1.4120   12.1680   20.8410 H   0  0  0  0  0  0  0  0  0  0  0  0
   -1.7320   10.9390   18.2730 C   0  0  0  0  0  0  0  0  0  0  0  0
   -2.9810   11.5570   18.4480 C   0  0  0  0  0  0  0  0  0  0  0  0
   -4.0700   11.2990   17.6030 C   0  0  0  0  0  0  0  0  0  0  0  0
   -3.9360   10.4120   16.5440 C   0  0  0  0  0  0  0  0  0  0  0  0
   -2.7140    9.7890   16.3320 C   0  0  0  0  0  0  0  0  0  0  0  0
   -1.6340   10.0540   17.1850 C   0  0  0  0  0  0  0  0  0  0  0  0
   -3.1440   12.2640   19.2550 H   0  0  0  0  0  0  0  0  0  0  0  0
   -5.0170   11.8010   17.7770 H   0  0  0  0  0  0  0  0  0  0  0  0
   -4.7760   10.2130   15.8840 H   0  0  0  0  0  0  0  0  0  0  0  0
   -2.5870    9.1000   15.5020 H   0  0  0  0  0  0  0  0  0  0  0  0
   -0.6950    9.5540   16.9630 H   0  0  0  0  0  0  0  0  0  0  0  0
    0.9190    9.2730   19.3800 C   0  0  0  0  0  0  0  0  0  0  0  0
   -0.0400    8.7460   19.3840 H   0  0  0  0  0  0  0  0  0  0  0  0
    1.2810    9.2990   20.4130 H   0  0  0  0  0  0  0  0  0  0  0  0
    2.3490    7.2700   19.0370 C   0  0  0  0  0  0  0  0  0  0  0  0
    2.0200    6.7680   20.1090 O   0  0  0  0  0  0  0  0  0  0  0  0
    1.9080    8.5110   18.6410 N   0  0  0  0  0  0  0  0  0  0  0  0
    2.1160    8.8450   17.7040 H   0  0  0  0  0  0  0  0  0  0  0  0
    5.0060    5.1990   16.3330 C   0  0  0  0  0  0  0  0  0  0  0  0
    5.0910    6.5870   16.5290 C   0  0  0  0  0  0  0  0  0  0  0  0
    4.2210    7.2460   17.4030 C   0  0  0  0  0  0  0  0  0  0  0  0
    3.2410    6.5270   18.1010 C   0  0  0  0  0  0  0  0  0  0  0  0
    3.1560    5.1460   17.9060 C   0  0  0  0  0  0  0  0  0  0  0  0
    2.2460    4.4080   18.5640 F   0  0  0  0  0  0  0  0  0  0  0  0
    4.0230    4.4880   17.0360 C   0  0  0  0  0  0  0  0  0  0  0  0
    5.8520    7.1530   15.9900 H   0  0  0  0  0  0  0  0  0  0  0  0
    4.3170    8.3210   17.5360 H   0  0  0  0  0  0  0  0  0  0  0  0
    3.9380    3.4120   16.9040 H   0  0  0  0  0  0  0  0  0  0  0  0
    7.1530    4.3430   15.7850 O   0  0  0  0  0  1  0  0  0  0  0  0
    5.9530    4.4830   15.3920 C   0  0  0  0  0  0  0  0  0  0  0  0
    5.4750    4.0840   14.2860 O   0  0  0  0  0  0  0  0  0  0  0  0
  1  6  1  6  0  0  0
  1  5  1  0  0  0  0
  1 24  1  0  0  0  0
  1  2  1  0  0  0  0
  2  8  1  0  0  0  0
  2  3  1  0  0  0  0
  3  9  1  0  0  0  0
  3 10  1  0  0  0  0
  4  3  1  0  0  0  0
  4 12  1  0  0  0  0
  5  4  1  0  0  0  0
  7  2  1  0  0  0  0
 11  4  1  0  0  0  0
 13 14  1  0  0  0  0
 13  5  1  0  0  0  0
 14 19  1  0  0  0  0
 15 20  1  0  0  0  0
 15 14  2  0  0  0  0
 16 15  1  0  0  0  0
 17 16  2  0  0  0  0
 17 18  1  0  0  0  0
 18 13  2  0  0  0  0
 21 16  1  0  0  0  0
 22 17  1  0  0  0  0
 23 18  1  0  0  0  0
 24 25  1  0  0  0  0
 24 26  1  0  0  0  0
 27 28  2  0  0  0  0
 29 27  1  0  0  0  0
 29 24  1  0  0  0  0
 30 29  1  0  0  0  0
 31 32  2  0  0  0  0
 31 37  1  0  0  0  0
 32 33  1  0  0  0  0
 33 39  1  0  0  0  0
 33 34  2  0  0  0  0
 34 27  1  0  0  0  0
 35 34  1  0  0  0  0
 35 36  1  0  0  0  0
 37 35  2  0  0  0  0
 38 32  1  0  0  0  0
 40 37  1  0  0  0  0
 42 41  1  0  0  0  0
 42 31  1  0  0  0  0
 43 42  2  0  0  0  0
M  END
>  <MODEL>
14

>  <REMARK>
 VINA RESULT:    -7.401      4.134      6.101
 INTER + INTRA:         -10.068
 INTER:                  -9.612
 INTRA:                  -0.456
 UNBOUND:                -0.503
  Name = 
  5 active torsions:
  status: ('A' for Active; 'I' for Inactive)
    1  A    between atoms: C_2  and  C_4
    2  A    between atoms: C_7  and  C_8
    3  A    between atoms: N_10  and  C_11
    4  A    between atoms: C_11  and  C_12
    5  A    between atoms: N_16  and  C_17
                            x       y       z     vdW  Elec       q    Type
                         _______ _______ _______ _____ _____    ______ ____

>  <TORSDO>
F 5

$$$$
=
 OpenBabel07192307433D

 43 45  0  0  1  0  0  0  0  0999 V2000
    2.6980    5.1940   18.5200 C   0  0  2  0  0  0  0  0  0  0  0  0
    1.6980    4.2280   17.8680 C   0  0  0  0  0  0  0  0  0  0  0  0
    2.4160    2.8930   17.8340 C   0  0  0  0  0  0  0  0  0  0  0  0
    3.8730    3.2730   17.6110 C   0  0  0  0  0  0  0  0  0  0  0  0
    4.0170    4.6060   18.2060 N   0  0  0  0  0  0  0  0  0  0  0  0
    2.5670    6.1730   18.0420 H   0  0  0  0  0  0  0  0  0  0  0  0
    1.5020    4.5530   16.8360 H   0  0  0  0  0  0  0  0  0  0  0  0
    0.7350    4.1810   18.3850 H   0  0  0  0  0  0  0  0  0  0  0  0
    2.0370    2.2330   17.0480 H   0  0  0  0  0  0  0  0  0  0  0  0
    2.3010    2.3640   18.7850 H   0  0  0  0  0  0  0  0  0  0  0  0
    4.0870    3.3120   16.5360 H   0  0  0  0  0  0  0  0  0  0  0  0
    4.5310    2.5350   18.0830 H   0  0  0  0  0  0  0  0  0  0  0  0
    5.1950    5.3230   18.1130 C   0  0  0  0  0  0  0  0  0  0  0  0
    5.3960    6.3220   17.1470 C   0  0  0  0  0  0  0  0  0  0  0  0
    6.5880    7.0560   17.0650 C   0  0  0  0  0  0  0  0  0  0  0  0
    7.6190    6.8140   17.9630 C   0  0  0  0  0  0  0  0  0  0  0  0
    7.4540    5.8410   18.9390 C   0  0  0  0  0  0  0  0  0  0  0  0
    6.2590    5.1130   19.0080 C   0  0  0  0  0  0  0  0  0  0  0  0
    4.6240    6.5590   16.4220 H   0  0  0  0  0  0  0  0  0  0  0  0
    6.6990    7.8200   16.3020 H   0  0  0  0  0  0  0  0  0  0  0  0
    8.5420    7.3840   17.9070 H   0  0  0  0  0  0  0  0  0  0  0  0
    8.2450    5.6460   19.6570 H   0  0  0  0  0  0  0  0  0  0  0  0
    6.1740    4.3770   19.8020 H   0  0  0  0  0  0  0  0  0  0  0  0
    2.4930    5.3550   20.0450 C   0  0  0  0  0  0  0  0  0  0  0  0
    3.4580    5.2950   20.5570 H   0  0  0  0  0  0  0  0  0  0  0  0
    1.8700    4.5390   20.4250 H   0  0  0  0  0  0  0  0  0  0  0  0
    1.9560    7.7620   19.7340 C   0  0  0  0  0  0  0  0  0  0  0  0
    2.7800    7.8980   18.8330 O   0  0  0  0  0  0  0  0  0  0  0  0
    1.8020    6.5760   20.4150 N   0  0  0  0  0  0  0  0  0  0  0  0
    1.0400    6.4710   21.0780 H   0  0  0  0  0  0  0  0  0  0  0  0
   -0.6820   11.0290   20.7460 C   0  0  0  0  0  0  0  0  0  0  0  0
   -0.4750   10.6350   19.4130 C   0  0  0  0  0  0  0  0  0  0  0  0
    0.3850    9.5790   19.0990 C   0  0  0  0  0  0  0  0  0  0  0  0
    1.0640    8.8930   20.1160 C   0  0  0  0  0  0  0  0  0  0  0  0
    0.8600    9.2860   21.4420 C   0  0  0  0  0  0  0  0  0  0  0  0
    1.4730    8.6500   22.4540 F   0  0  0  0  0  0  0  0  0  0  0  0
    0.0010   10.3370   21.7560 C   0  0  0  0  0  0  0  0  0  0  0  0
   -1.0010   11.1630   18.6170 H   0  0  0  0  0  0  0  0  0  0  0  0
    0.5180    9.2950   18.0580 H   0  0  0  0  0  0  0  0  0  0  0  0
   -0.1430   10.6220   22.7960 H   0  0  0  0  0  0  0  0  0  0  0  0
   -2.0050   12.9000   20.1230 O   0  0  0  0  0  0  0  0  0  0  0  0
   -1.6200   12.1690   21.0870 C   0  0  0  0  0  0  0  0  0  0  0  0
   -1.9430   12.3040   22.3080 O   0  0  0  0  0  1  0  0  0  0  0  0
  1  6  1  6  0  0  0
  1 24  1  0  0  0  0
  2  8  1  0  0  0  0
  2  1  1  0  0  0  0
  3  2  1  0  0  0  0
  3 10  1  0  0  0  0
  4  3  1  0  0  0  0
  4 12  1  0  0  0  0
  4  5  1  0  0  0  0
  5  1  1  0  0  0  0
  7  2  1  0  0  0  0
  9  3  1  0  0  0  0
 11  4  1  0  0  0  0
 13  5  1  0  0  0  0
 13 18  1  0  0  0  0
 14 13  2  0  0  0  0
 15 14  1  0  0  0  0
 15 16  2  0  0  0  0
 16 17  1  0  0  0  0
 17 18  2  0  0  0  0
 17 22  1  0  0  0  0
 18 23  1  0  0  0  0
 19 14  1  0  0  0  0
 20 15  1  0  0  0  0
 21 16  1  0  0  0  0
 24 29  1  0  0  0  0
 24 26  1  0  0  0  0
 24 25  1  0  0  0  0
 27 34  1  0  0  0  0
 27 29  1  0  0  0  0
 28 27  2  0  0  0  0
 29 30  1  0  0  0  0
 31 42  1  0  0  0  0
 31 37  1  0  0  0  0
 32 31  2  0  0  0  0
 33 32  1  0  0  0  0
 33 34  2  0  0  0  0
 34 35  1  0  0  0  0
 35 37  2  0  0  0  0
 35 36  1  0  0  0  0
 37 40  1  0  0  0  0
 38 32  1  0  0  0  0
 39 33  1  0  0  0  0
 41 42  2  0  0  0  0
 42 43  1  0  0  0  0
M  END
>  <MODEL>
15

>  <REMARK>
 VINA RESULT:    -7.396      4.244      7.853
 INTER + INTRA:         -10.061
 INTER:                  -9.915
 INTRA:                  -0.146
 UNBOUND:                -0.503
  Name = 
  5 active torsions:
  status: ('A' for Active; 'I' for Inactive)
    1  A    between atoms: C_2  and  C_4
    2  A    between atoms: C_7  and  C_8
    3  A    between atoms: N_10  and  C_11
    4  A    between atoms: C_11  and  C_12
    5  A    between atoms: N_16  and  C_17
                            x       y       z     vdW  Elec       q    Type
                         _______ _______ _______ _____ _____    ______ ____

>  <TORSDO>
F 5

$$$$
=
 OpenBabel07192307433D

 43 45  0  0  1  0  0  0  0  0999 V2000
    2.9320    3.1370   17.9320 C   0  0  2  0  0  0  0  0  0  0  0  0
    2.1480    2.0850   18.7310 C   0  0  0  0  0  0  0  0  0  0  0  0
    2.2250    2.5560   20.1700 C   0  0  0  0  0  0  0  0  0  0  0  0
    3.6020    3.2000   20.2660 C   0  0  0  0  0  0  0  0  0  0  0  0
    3.8930    3.6850   18.9130 N   0  0  0  0  0  0  0  0  0  0  0  0
    3.4420    2.6140   17.1140 H   0  0  0  0  0  0  0  0  0  0  0  0
    2.6570    1.1150   18.6460 H   0  0  0  0  0  0  0  0  0  0  0  0
    1.1200    1.9490   18.3830 H   0  0  0  0  0  0  0  0  0  0  0  0
    2.1020    1.7380   20.8860 H   0  0  0  0  0  0  0  0  0  0  0  0
    1.4440    3.2930   20.3820 H   0  0  0  0  0  0  0  0  0  0  0  0
    4.3430    2.4490   20.5670 H   0  0  0  0  0  0  0  0  0  0  0  0
    3.5890    4.0100   21.0030 H   0  0  0  0  0  0  0  0  0  0  0  0
    5.1110    4.2510   18.5870 C   0  0  0  0  0  0  0  0  0  0  0  0
    5.8390    5.0450   19.4880 C   0  0  0  0  0  0  0  0  0  0  0  0
    7.0810    5.6060   19.1580 C   0  0  0  0  0  0  0  0  0  0  0  0
    7.6380    5.3800   17.9060 C   0  0  0  0  0  0  0  0  0  0  0  0
    6.9520    4.5930   16.9920 C   0  0  0  0  0  0  0  0  0  0  0  0
    5.7110    4.0390   17.3340 C   0  0  0  0  0  0  0  0  0  0  0  0
    5.4580    5.2510   20.4830 H   0  0  0  0  0  0  0  0  0  0  0  0
    7.6090    6.2120   19.8870 H   0  0  0  0  0  0  0  0  0  0  0  0
    8.6020    5.8090   17.6480 H   0  0  0  0  0  0  0  0  0  0  0  0
    7.3770    4.3960   16.0120 H   0  0  0  0  0  0  0  0  0  0  0  0
    5.2260    3.4160   16.5880 H   0  0  0  0  0  0  0  0  0  0  0  0
    2.0360    4.2460   17.3300 C   0  0  0  0  0  0  0  0  0  0  0  0
    1.1050    3.8080   16.9550 H   0  0  0  0  0  0  0  0  0  0  0  0
    2.5430    4.7120   16.4790 H   0  0  0  0  0  0  0  0  0  0  0  0
    2.3960    6.5410   18.2120 C   0  0  0  0  0  0  0  0  0  0  0  0
    3.3470    6.7520   17.4630 O   0  0  0  0  0  0  0  0  0  0  0  0
    1.7480    5.3280   18.2520 N   0  0  0  0  0  0  0  0  0  0  0  0
    0.9020    5.2260   18.8050 H   0  0  0  0  0  0  0  0  0  0  0  0
    0.8860    9.7190   20.7180 C   0  0  0  0  0  0  0  0  0  0  0  0
    1.1210    9.9110   19.3460 C   0  0  0  0  0  0  0  0  0  0  0  0
    1.6150    8.8750   18.5480 C   0  0  0  0  0  0  0  0  0  0  0  0
    1.8890    7.6200   19.1070 C   0  0  0  0  0  0  0  0  0  0  0  0
    1.6560    7.4280   20.4720 C   0  0  0  0  0  0  0  0  0  0  0  0
    1.8860    6.2390   21.0530 F   0  0  0  0  0  0  0  0  0  0  0  0
    1.1630    8.4590   21.2690 C   0  0  0  0  0  0  0  0  0  0  0  0
    0.9090   10.8860   18.9040 H   0  0  0  0  0  0  0  0  0  0  0  0
    1.7800    9.0560   17.4880 H   0  0  0  0  0  0  0  0  0  0  0  0
    0.9870    8.2840   22.3280 H   0  0  0  0  0  0  0  0  0  0  0  0
   -0.2820   10.4970   22.6340 O   0  0  0  0  0  1  0  0  0  0  0  0
    0.3430   10.8390   21.5830 C   0  0  0  0  0  0  0  0  0  0  0  0
    0.5530   12.0260   21.1870 O   0  0  0  0  0  0  0  0  0  0  0  0
  1  6  1  6  0  0  0
  1  2  1  0  0  0  0
  1  5  1  0  0  0  0
  2  3  1  0  0  0  0
  3  4  1  0  0  0  0
  3 10  1  0  0  0  0
  3  9  1  0  0  0  0
  4 11  1  0  0  0  0
  4 12  1  0  0  0  0
  5  4  1  0  0  0  0
  7  2  1  0  0  0  0
  8  2  1  0  0  0  0
 13  5  1  0  0  0  0
 13 14  1  0  0  0  0
 14 19  1  0  0  0  0
 15 14  2  0  0  0  0
 15 20  1  0  0  0  0
 16 15  1  0  0  0  0
 17 18  1  0  0  0  0
 17 16  2  0  0  0  0
 18 13  2  0  0  0  0
 21 16  1  0  0  0  0
 22 17  1  0  0  0  0
 23 18  1  0  0  0  0
 24  1  1  0  0  0  0
 24 29  1  0  0  0  0
 25 24  1  0  0  0  0
 26 24  1  0  0  0  0
 27 29  1  0  0  0  0
 27 34  1  0  0  0  0
 28 27  2  0  0  0  0
 29 30  1  0  0  0  0
 31 37  1  0  0  0  0
 31 42  1  0  0  0  0
 32 31  2  0  0  0  0
 33 34  2  0  0  0  0
 33 32  1  0  0  0  0
 34 35  1  0  0  0  0
 35 36  1  0  0  0  0
 35 37  2  0  0  0  0
 37 40  1  0  0  0  0
 38 32  1  0  0  0  0
 39 33  1  0  0  0  0
 42 41  1  0  0  0  0
 43 42  2  0  0  0  0
M  END
>  <MODEL>
16

>  <REMARK>
 VINA RESULT:    -7.325      3.181      6.992
 INTER + INTRA:          -9.970
 INTER:                  -9.220
 INTRA:                  -0.750
 UNBOUND:                -0.503
  Name = 
  5 active torsions:
  status: ('A' for Active; 'I' for Inactive)
    1  A    between atoms: C_2  and  C_4
    2  A    between atoms: C_7  and  C_8
    3  A    between atoms: N_10  and  C_11
    4  A    between atoms: C_11  and  C_12
    5  A    between atoms: N_16  and  C_17
                            x       y       z     vdW  Elec       q    Type
                         _______ _______ _______ _____ _____    ______ ____

>  <TORSDO>
F 5

$$$$
=
 OpenBabel07192307433D

 43 45  0  0  1  0  0  0  0  0999 V2000
    1.0730    9.1060   21.4010 C   0  0  2  0  0  0  0  0  0  0  0  0
    1.5100    9.2760   22.8630 C   0  0  0  0  0  0  0  0  0  0  0  0
    0.2190    9.4890   23.6300 C   0  0  0  0  0  0  0  0  0  0  0  0
   -0.6560   10.2640   22.6530 C   0  0  0  0  0  0  0  0  0  0  0  0
   -0.2010    9.8520   21.3210 N   0  0  0  0  0  0  0  0  0  0  0  0
    1.8490    9.5630   20.7730 H   0  0  0  0  0  0  0  0  0  0  0  0
    2.1300   10.1780   22.9530 H   0  0  0  0  0  0  0  0  0  0  0  0
    2.0960    8.4350   23.2440 H   0  0  0  0  0  0  0  0  0  0  0  0
    0.3730   10.0350   24.5660 H   0  0  0  0  0  0  0  0  0  0  0  0
   -0.2470    8.5330   23.8840 H   0  0  0  0  0  0  0  0  0  0  0  0
   -0.5030   11.3410   22.7900 H   0  0  0  0  0  0  0  0  0  0  0  0
   -1.7120   10.0250   22.8230 H   0  0  0  0  0  0  0  0  0  0  0  0
   -0.7070   10.4220   20.1690 C   0  0  0  0  0  0  0  0  0  0  0  0
   -1.3790   11.6550   20.1690 C   0  0  0  0  0  0  0  0  0  0  0  0
   -1.8780   12.2360   18.9950 C   0  0  0  0  0  0  0  0  0  0  0  0
   -1.7120   11.5970   17.7740 C   0  0  0  0  0  0  0  0  0  0  0  0
   -1.0440   10.3810   17.7320 C   0  0  0  0  0  0  0  0  0  0  0  0
   -0.5510    9.8090   18.9130 C   0  0  0  0  0  0  0  0  0  0  0  0
   -1.5340   12.2050   21.0920 H   0  0  0  0  0  0  0  0  0  0  0  0
   -2.3900   13.1930   19.0430 H   0  0  0  0  0  0  0  0  0  0  0  0
   -2.0930   12.0460   16.8610 H   0  0  0  0  0  0  0  0  0  0  0  0
   -0.8950    9.8710   16.7850 H   0  0  0  0  0  0  0  0  0  0  0  0
   -0.0210    8.8660   18.8220 H   0  0  0  0  0  0  0  0  0  0  0  0
    0.8980    7.6290   20.9780 C   0  0  0  0  0  0  0  0  0  0  0  0
   -0.0560    7.5030   20.4550 H   0  0  0  0  0  0  0  0  0  0  0  0
    0.8690    6.9890   21.8660 H   0  0  0  0  0  0  0  0  0  0  0  0
    2.2870    5.7810   20.0660 C   0  0  0  0  0  0  0  0  0  0  0  0
    1.7230    4.9300   20.7500 O   0  0  0  0  0  0  0  0  0  0  0  0
    1.9880    7.1200   20.1670 N   0  0  0  0  0  0  0  0  0  0  0  0
    2.3980    7.7800   19.5120 H   0  0  0  0  0  0  0  0  0  0  0  0
    5.3610    4.6140   17.2650 C   0  0  0  0  0  0  0  0  0  0  0  0
    5.6780    5.1350   18.5310 C   0  0  0  0  0  0  0  0  0  0  0  0
    4.6730    5.5140   19.4260 C   0  0  0  0  0  0  0  0  0  0  0  0
    3.3230    5.3830   19.0720 C   0  0  0  0  0  0  0  0  0  0  0  0
    3.0080    4.8650   17.8120 C   0  0  0  0  0  0  0  0  0  0  0  0
    1.7300    4.7030   17.4300 F   0  0  0  0  0  0  0  0  0  0  0  0
    4.0080    4.4860   16.9190 C   0  0  0  0  0  0  0  0  0  0  0  0
    6.7260    5.2390   18.8150 H   0  0  0  0  0  0  0  0  0  0  0  0
    4.9520    5.9080   20.4000 H   0  0  0  0  0  0  0  0  0  0  0  0
    3.7370    4.0830   15.9460 H   0  0  0  0  0  0  0  0  0  0  0  0
    6.0730    3.6630   15.2080 O   0  0  0  0  0  0  0  0  0  0  0  0
    6.4500    4.1960   16.2970 C   0  0  0  0  0  0  0  0  0  0  0  0
    7.6500    4.4080   16.6530 O   0  0  0  0  0  1  0  0  0  0  0  0
  1  6  1  6  0  0  0
  1  2  1  0  0  0  0
  2  7  1  0  0  0  0
  2  8  1  0  0  0  0
  2  3  1  0  0  0  0
  3 10  1  0  0  0  0
  3  9  1  0  0  0  0
  4 11  1  0  0  0  0
  4 12  1  0  0  0  0
  4  3  1  0  0  0  0
  5  1  1  0  0  0  0
  5  4  1  0  0  0  0
 13  5  1  0  0  0  0
 14 13  1  0  0  0  0
 14 19  1  0  0  0  0
 15 20  1  0  0  0  0
 15 14  2  0  0  0  0
 16 15  1  0  0  0  0
 17 16  2  0  0  0  0
 17 18  1  0  0  0  0
 18 13  2  0  0  0  0
 21 16  1  0  0  0  0
 22 17  1  0  0  0  0
 23 18  1  0  0  0  0
 24  1  1  0  0  0  0
 24 26  1  0  0  0  0
 25 24  1  0  0  0  0
 27 29  1  0  0  0  0
 27 28  2  0  0  0  0
 29 24  1  0  0  0  0
 30 29  1  0  0  0  0
 31 32  1  0  0  0  0
 32 38  1  0  0  0  0
 32 33  2  0  0  0  0
 33 39  1  0  0  0  0
 34 33  1  0  0  0  0
 34 27  1  0  0  0  0
 35 34  2  0  0  0  0
 36 35  1  0  0  0  0
 37 31  2  0  0  0  0
 37 35  1  0  0  0  0
 40 37  1  0  0  0  0
 41 42  2  0  0  0  0
 42 43  1  0  0  0  0
 42 31  1  0  0  0  0
M  END
>  <MODEL>
17

>  <REMARK>
 VINA RESULT:    -7.322      3.463      5.329
 INTER + INTRA:          -9.965
 INTER:                  -9.436
 INTRA:                  -0.529
 UNBOUND:                -0.503
  Name = 
  5 active torsions:
  status: ('A' for Active; 'I' for Inactive)
    1  A    between atoms: C_2  and  C_4
    2  A    between atoms: C_7  and  C_8
    3  A    between atoms: N_10  and  C_11
    4  A    between atoms: C_11  and  C_12
    5  A    between atoms: N_16  and  C_17
                            x       y       z     vdW  Elec       q    Type
                         _______ _______ _______ _____ _____    ______ ____

>  <TORSDO>
F 5

$$$$
=
 OpenBabel07192307433D

 43 45  0  0  1  0  0  0  0  0999 V2000
    2.7150    6.0650   18.1150 C   0  0  2  0  0  0  0  0  0  0  0  0
    1.7030    5.4910   19.1170 C   0  0  0  0  0  0  0  0  0  0  0  0
    2.5400    5.0610   20.3070 C   0  0  0  0  0  0  0  0  0  0  0  0
    3.8450    4.5900   19.6800 C   0  0  0  0  0  0  0  0  0  0  0  0
    3.9760    5.3650   18.4410 N   0  0  0  0  0  0  0  0  0  0  0  0
    2.3600    5.8100   17.1090 H   0  0  0  0  0  0  0  0  0  0  0  0
    1.2250    4.6040   18.6800 H   0  0  0  0  0  0  0  0  0  0  0  0
    0.9090    6.1930   19.3870 H   0  0  0  0  0  0  0  0  0  0  0  0
    2.0580    4.2740   20.8960 H   0  0  0  0  0  0  0  0  0  0  0  0
    2.7230    5.9040   20.9800 H   0  0  0  0  0  0  0  0  0  0  0  0
    3.7830    3.5190   19.4520 H   0  0  0  0  0  0  0  0  0  0  0  0
    4.6790    4.7650   20.3680 H   0  0  0  0  0  0  0  0  0  0  0  0
    5.0040    5.1420   17.5460 C   0  0  0  0  0  0  0  0  0  0  0  0
    4.8120    5.1600   16.1550 C   0  0  0  0  0  0  0  0  0  0  0  0
    5.8610    4.9460   15.2510 C   0  0  0  0  0  0  0  0  0  0  0  0
    7.1480    4.7130   15.7170 C   0  0  0  0  0  0  0  0  0  0  0  0
    7.3800    4.6980   17.0850 C   0  0  0  0  0  0  0  0  0  0  0  0
    6.3220    4.9110   17.9790 C   0  0  0  0  0  0  0  0  0  0  0  0
    3.8290    5.3420   15.7320 H   0  0  0  0  0  0  0  0  0  0  0  0
    5.6650    4.9700   14.1830 H   0  0  0  0  0  0  0  0  0  0  0  0
    7.9650    4.5520   15.0190 H   0  0  0  0  0  0  0  0  0  0  0  0
    8.3820    4.5290   17.4690 H   0  0  0  0  0  0  0  0  0  0  0  0
    6.5620    4.9070   19.0380 H   0  0  0  0  0  0  0  0  0  0  0  0
    2.8730    7.6010   18.2110 C   0  0  0  0  0  0  0  0  0  0  0  0
    3.3680    7.9800   17.3110 H   0  0  0  0  0  0  0  0  0  0  0  0
    3.5090    7.8560   19.0650 H   0  0  0  0  0  0  0  0  0  0  0  0
    1.4520    9.6380   18.1460 C   0  0  0  0  0  0  0  0  0  0  0  0
    2.3830   10.3570   17.7900 O   0  0  0  0  0  0  0  0  0  0  0  0
    1.6230    8.3030   18.4320 N   0  0  0  0  0  0  0  0  0  0  0  0
    0.8130    7.7190   18.6190 H   0  0  0  0  0  0  0  0  0  0  0  0
   -2.5800   11.1580   18.4430 C   0  0  0  0  0  0  0  0  0  0  0  0
   -2.2340   10.1660   17.5100 C   0  0  0  0  0  0  0  0  0  0  0  0
   -0.9240    9.6860   17.4210 C   0  0  0  0  0  0  0  0  0  0  0  0
    0.0740   10.1940   18.2650 C   0  0  0  0  0  0  0  0  0  0  0  0
   -0.2700   11.1820   19.1920 C   0  0  0  0  0  0  0  0  0  0  0  0
    0.6450   11.6880   20.0350 F   0  0  0  0  0  0  0  0  0  0  0  0
   -1.5760   11.6600   19.2830 C   0  0  0  0  0  0  0  0  0  0  0  0
   -3.0060    9.7660   16.8510 H   0  0  0  0  0  0  0  0  0  0  0  0
   -0.6910    8.9140   16.6920 H   0  0  0  0  0  0  0  0  0  0  0  0
   -1.8190   12.4260   20.0150 H   0  0  0  0  0  0  0  0  0  0  0  0
   -4.7750   11.4150   17.5710 O   0  0  0  0  0  0  0  0  0  0  0  0
   -4.0020   11.6730   18.5450 C   0  0  0  0  0  0  0  0  0  0  0  0
   -4.3060   12.3230   19.5920 O   0  0  0  0  0  1  0  0  0  0  0  0
  1  6  1  6  0  0  0
  1 24  1  0  0  0  0
  1  5  1  0  0  0  0
  1  2  1  0  0  0  0
  2  8  1  0  0  0  0
  2  3  1  0  0  0  0
  3  9  1  0  0  0  0
  3 10  1  0  0  0  0
  4  3  1  0  0  0  0
  4 12  1  0  0  0  0
  5  4  1  0  0  0  0
  7  2  1  0  0  0  0
 11  4  1  0  0  0  0
 13 18  1  0  0  0  0
 13  5  1  0  0  0  0
 14 13  2  0  0  0  0
 15 16  2  0  0  0  0
 15 14  1  0  0  0  0
 16 17  1  0  0  0  0
 17 22  1  0  0  0  0
 17 18  2  0  0  0  0
 18 23  1  0  0  0  0
 19 14  1  0  0  0  0
 20 15  1  0  0  0  0
 21 16  1  0  0  0  0
 24 29  1  0  0  0  0
 24 26  1  0  0  0  0
 25 24  1  0  0  0  0
 27 34  1  0  0  0  0
 27 29  1  0  0  0  0
 28 27  2  0  0  0  0
 29 30  1  0  0  0  0
 31 42  1  0  0  0  0
 31 37  1  0  0  0  0
 32 31  2  0  0  0  0
 33 32  1  0  0  0  0
 33 34  2  0  0  0  0
 34 35  1  0  0  0  0
 35 37  2  0  0  0  0
 35 36  1  0  0  0  0
 37 40  1  0  0  0  0
 38 32  1  0  0  0  0
 39 33  1  0  0  0  0
 41 42  2  0  0  0  0
 42 43  1  0  0  0  0
M  END
>  <MODEL>
18

>  <REMARK>
 VINA RESULT:    -7.318      5.036      8.465
 INTER + INTRA:          -9.960
 INTER:                  -9.230
 INTRA:                  -0.730
 UNBOUND:                -0.503
  Name = 
  5 active torsions:
  status: ('A' for Active; 'I' for Inactive)
    1  A    between atoms: C_2  and  C_4
    2  A    between atoms: C_7  and  C_8
    3  A    between atoms: N_10  and  C_11
    4  A    between atoms: C_11  and  C_12
    5  A    between atoms: N_16  and  C_17
                            x       y       z     vdW  Elec       q    Type
                         _______ _______ _______ _____ _____    ______ ____

>  <TORSDO>
F 5

$$$$
=
 OpenBabel07192307433D

 43 45  0  0  1  0  0  0  0  0999 V2000
    0.8430    9.2500   19.1210 C   0  0  2  0  0  0  0  0  0  0  0  0
    1.3130    9.7130   17.7340 C   0  0  0  0  0  0  0  0  0  0  0  0
    2.1450   10.9520   18.0020 C   0  0  0  0  0  0  0  0  0  0  0  0
    1.4550   11.6000   19.1950 C   0  0  0  0  0  0  0  0  0  0  0  0
    0.8330   10.4900   19.9260 N   0  0  0  0  0  0  0  0  0  0  0  0
   -0.1660    8.8350   19.0040 H   0  0  0  0  0  0  0  0  0  0  0  0
    0.4380    9.9950   17.1330 H   0  0  0  0  0  0  0  0  0  0  0  0
    1.8600    8.9450   17.1800 H   0  0  0  0  0  0  0  0  0  0  0  0
    2.1880   11.6230   17.1380 H   0  0  0  0  0  0  0  0  0  0  0  0
    3.1740   10.6840   18.2570 H   0  0  0  0  0  0  0  0  0  0  0  0
    0.6870   12.3010   18.8460 H   0  0  0  0  0  0  0  0  0  0  0  0
    2.1860   12.1390   19.8070 H   0  0  0  0  0  0  0  0  0  0  0  0
    0.0300   10.7030   21.0300 C   0  0  0  0  0  0  0  0  0  0  0  0
    0.0570    9.8630   22.1560 C   0  0  0  0  0  0  0  0  0  0  0  0
   -0.7500   10.0910   23.2800 C   0  0  0  0  0  0  0  0  0  0  0  0
   -1.6100   11.1800   23.3130 C   0  0  0  0  0  0  0  0  0  0  0  0
   -1.6570   12.0380   22.2230 C   0  0  0  0  0  0  0  0  0  0  0  0
   -0.8470   11.7990   21.1050 C   0  0  0  0  0  0  0  0  0  0  0  0
    0.7130    9.0000   22.1910 H   0  0  0  0  0  0  0  0  0  0  0  0
   -0.6950    9.4160   24.1290 H   0  0  0  0  0  0  0  0  0  0  0  0
   -2.2330   11.3630   24.1840 H   0  0  0  0  0  0  0  0  0  0  0  0
   -2.3160   12.9020   22.2350 H   0  0  0  0  0  0  0  0  0  0  0  0
   -0.9100   12.5110   20.2870 H   0  0  0  0  0  0  0  0  0  0  0  0
    1.7540    8.1690   19.7500 C   0  0  0  0  0  0  0  0  0  0  0  0
    1.1400    7.3900   20.2130 H   0  0  0  0  0  0  0  0  0  0  0  0
    2.3670    8.6130   20.5410 H   0  0  0  0  0  0  0  0  0  0  0  0
    2.9990    6.2390   18.8010 C   0  0  0  0  0  0  0  0  0  0  0  0
    2.5830    5.4630   19.6590 O   0  0  0  0  0  0  0  0  0  0  0  0
    2.6930    7.5810   18.8140 N   0  0  0  0  0  0  0  0  0  0  0  0
    2.9660    8.1680   18.0320 H   0  0  0  0  0  0  0  0  0  0  0  0
    5.5240    4.8860   15.5690 C   0  0  0  0  0  0  0  0  0  0  0  0
    5.3930    6.2500   15.8780 C   0  0  0  0  0  0  0  0  0  0  0  0
    4.5680    6.6750   16.9240 C   0  0  0  0  0  0  0  0  0  0  0  0
    3.8500    5.7410   17.6840 C   0  0  0  0  0  0  0  0  0  0  0  0
    3.9810    4.3830   17.3750 C   0  0  0  0  0  0  0  0  0  0  0  0
    3.3280    3.4470   18.0840 F   0  0  0  0  0  0  0  0  0  0  0  0
    4.8030    3.9580   16.3340 C   0  0  0  0  0  0  0  0  0  0  0  0
    5.9490    6.9830   15.2920 H   0  0  0  0  0  0  0  0  0  0  0  0
    4.4920    7.7380   17.1410 H   0  0  0  0  0  0  0  0  0  0  0  0
    4.8900    2.8960   16.1160 H   0  0  0  0  0  0  0  0  0  0  0  0
    7.5520    4.9990   14.3370 O   0  0  0  0  0  1  0  0  0  0  0  0
    6.4240    4.4240   14.4410 C   0  0  0  0  0  0  0  0  0  0  0  0
    5.9790    3.5030   13.6880 O   0  0  0  0  0  0  0  0  0  0  0  0
  1  6  1  6  0  0  0
  1 24  1  0  0  0  0
  1  5  1  0  0  0  0
  2  3  1  0  0  0  0
  2  1  1  0  0  0  0
  3 10  1  0  0  0  0
  3  4  1  0  0  0  0
  4 12  1  0  0  0  0
  4  5  1  0  0  0  0
  5 13  1  0  0  0  0
  7  2  1  0  0  0  0
  8  2  1  0  0  0  0
  9  3  1  0  0  0  0
 11  4  1  0  0  0  0
 13 18  2  0  0  0  0
 13 14  1  0  0  0  0
 14 19  1  0  0  0  0
 14 15  2  0  0  0  0
 15 16  1  0  0  0  0
 15 20  1  0  0  0  0
 16 21  1  0  0  0  0
 17 22  1  0  0  0  0
 17 16  2  0  0  0  0
 18 17  1  0  0  0  0
 23 18  1  0  0  0  0
 24 25  1  0  0  0  0
 24 26  1  0  0  0  0
 27 29  1  0  0  0  0
 27 28  2  0  0  0  0
 29 24  1  0  0  0  0
 30 29  1  0  0  0  0
 31 32  2  0  0  0  0
 31 37  1  0  0  0  0
 32 33  1  0  0  0  0
 33 39  1  0  0  0  0
 33 34  2  0  0  0  0
 34 27  1  0  0  0  0
 35 34  1  0  0  0  0
 35 36  1  0  0  0  0
 37 35  2  0  0  0  0
 38 32  1  0  0  0  0
 40 37  1  0  0  0  0
 41 42  1  0  0  0  0
 42 31  1  0  0  0  0
 43 42  2  0  0  0  0
M  END
>  <MODEL>
19

>  <REMARK>
 VINA RESULT:    -7.287      3.248      5.142
 INTER + INTRA:          -9.920
 INTER:                  -9.582
 INTRA:                  -0.338
 UNBOUND:                -0.503
  Name = 
  5 active torsions:
  status: ('A' for Active; 'I' for Inactive)
    1  A    between atoms: C_2  and  C_4
    2  A    between atoms: C_7  and  C_8
    3  A    between atoms: N_10  and  C_11
    4  A    between atoms: C_11  and  C_12
    5  A    between atoms: N_16  and  C_17
                            x       y       z     vdW  Elec       q    Type
                         _______ _______ _______ _____ _____    ______ ____

>  <TORSDO>
F 5

$$$$
=
 OpenBabel07192307433D

 43 45  0  0  1  0  0  0  0  0999 V2000
    0.9810    9.4330   21.9860 C   0  0  2  0  0  0  0  0  0  0  0  0
    0.3020    9.4880   23.3630 C   0  0  0  0  0  0  0  0  0  0  0  0
   -0.9890   10.2470   23.1280 C   0  0  0  0  0  0  0  0  0  0  0  0
   -0.6220   11.2580   22.0490 C   0  0  0  0  0  0  0  0  0  0  0  0
    0.4600   10.6270   21.2860 N   0  0  0  0  0  0  0  0  0  0  0  0
    2.0630    9.5020   22.1520 H   0  0  0  0  0  0  0  0  0  0  0  0
    0.9330   10.0640   24.0540 H   0  0  0  0  0  0  0  0  0  0  0  0
    0.1410    8.5020   23.8090 H   0  0  0  0  0  0  0  0  0  0  0  0
   -1.3620   10.7310   24.0360 H   0  0  0  0  0  0  0  0  0  0  0  0
   -1.7770    9.5770   22.7700 H   0  0  0  0  0  0  0  0  0  0  0  0
   -0.2670   12.1850   22.5140 H   0  0  0  0  0  0  0  0  0  0  0  0
   -1.4960   11.4770   21.4260 H   0  0  0  0  0  0  0  0  0  0  0  0
    1.1200   11.2920   20.2700 C   0  0  0  0  0  0  0  0  0  0  0  0
    1.6600   12.5770   20.4360 C   0  0  0  0  0  0  0  0  0  0  0  0
    2.3410   13.2430   19.4070 C   0  0  0  0  0  0  0  0  0  0  0  0
    2.5080   12.6310   18.1720 C   0  0  0  0  0  0  0  0  0  0  0  0
    1.9970   11.3560   17.9730 C   0  0  0  0  0  0  0  0  0  0  0  0
    1.3170   10.7030   19.0090 C   0  0  0  0  0  0  0  0  0  0  0  0
    1.5660   13.1030   21.3810 H   0  0  0  0  0  0  0  0  0  0  0  0
    2.7430   14.2360   19.5810 H   0  0  0  0  0  0  0  0  0  0  0  0
    3.0400   13.1410   17.3730 H   0  0  0  0  0  0  0  0  0  0  0  0
    2.1280   10.8570   17.0170 H   0  0  0  0  0  0  0  0  0  0  0  0
    0.9530    9.7000   18.8060 H   0  0  0  0  0  0  0  0  0  0  0  0
    0.6790    8.1340   21.2020 C   0  0  0  0  0  0  0  0  0  0  0  0
   -0.1790    8.2910   20.5410 H   0  0  0  0  0  0  0  0  0  0  0  0
    0.4120    7.3330   21.8990 H   0  0  0  0  0  0  0  0  0  0  0  0
    2.0020    6.2970   20.1790 C   0  0  0  0  0  0  0  0  0  0  0  0
    1.2850    5.4220   20.6610 O   0  0  0  0  0  0  0  0  0  0  0  0
    1.8110    7.6320   20.4470 N   0  0  0  0  0  0  0  0  0  0  0  0
    2.3560    8.3300   19.9480 H   0  0  0  0  0  0  0  0  0  0  0  0
    5.2330    5.3500   17.4720 C   0  0  0  0  0  0  0  0  0  0  0  0
    4.4680    6.5200   17.3260 C   0  0  0  0  0  0  0  0  0  0  0  0
    3.4220    6.8120   18.2070 C   0  0  0  0  0  0  0  0  0  0  0  0
    3.1130    5.9340   19.2550 C   0  0  0  0  0  0  0  0  0  0  0  0
    3.8730    4.7690   19.3990 C   0  0  0  0  0  0  0  0  0  0  0  0
    3.6290    3.9040   20.3970 F   0  0  0  0  0  0  0  0  0  0  0  0
    4.9170    4.4780   18.5240 C   0  0  0  0  0  0  0  0  0  0  0  0
    4.7040    7.2090   16.5140 H   0  0  0  0  0  0  0  0  0  0  0  0
    2.8540    7.7290   18.0690 H   0  0  0  0  0  0  0  0  0  0  0  0
    5.4950    3.5670   18.6600 H   0  0  0  0  0  0  0  0  0  0  0  0
    7.3640    4.4100   17.0090 O   0  0  0  0  0  1  0  0  0  0  0  0
    6.3720    5.0370   16.5230 C   0  0  0  0  0  0  0  0  0  0  0  0
    6.2450    5.4280   15.3220 O   0  0  0  0  0  0  0  0  0  0  0  0
  1  6  1  1  0  0  0
  1  2  1  0  0  0  0
  2  8  1  0  0  0  0
  2  7  1  0  0  0  0
  3  2  1  0  0  0  0
  3  9  1  0  0  0  0
  4 11  1  0  0  0  0
  4  3  1  0  0  0  0
  5  1  1  0  0  0  0
  5  4  1  0  0  0  0
 10  3  1  0  0  0  0
 12  4  1  0  0  0  0
 13 14  1  0  0  0  0
 13  5  1  0  0  0  0
 14 19  1  0  0  0  0
 15 20  1  0  0  0  0
 15 14  2  0  0  0  0
 16 15  1  0  0  0  0
 17 16  2  0  0  0  0
 17 18  1  0  0  0  0
 18 13  2  0  0  0  0
 21 16  1  0  0  0  0
 22 17  1  0  0  0  0
 23 18  1  0  0  0  0
 24 26  1  0  0  0  0
 24  1  1  0  0  0  0
 25 24  1  0  0  0  0
 27 29  1  0  0  0  0
 27 28  2  0  0  0  0
 29 24  1  0  0  0  0
 30 29  1  0  0  0  0
 31 37  1  0  0  0  0
 32 31  2  0  0  0  0
 32 33  1  0  0  0  0
 33 34  2  0  0  0  0
 34 35  1  0  0  0  0
 34 27  1  0  0  0  0
 35 36  1  0  0  0  0
 37 40  1  0  0  0  0
 37 35  2  0  0  0  0
 38 32  1  0  0  0  0
 39 33  1  0  0  0  0
 42 41  1  0  0  0  0
 42 31  1  0  0  0  0
 43 42  2  0  0  0  0
M  END
>  <MODEL>
20

>  <REMARK>
 VINA RESULT:    -7.284      3.397      5.501
 INTER + INTRA:          -9.917
 INTER:                  -9.385
 INTRA:                  -0.531
 UNBOUND:                -0.503
  Name = 
  5 active torsions:
  status: ('A' for Active; 'I' for Inactive)
    1  A    between atoms: C_2  and  C_4
    2  A    between atoms: C_7  and  C_8
    3  A    between atoms: N_10  and  C_11
    4  A    between atoms: C_11  and  C_12
    5  A    between atoms: N_16  and  C_17
                            x       y       z     vdW  Elec       q    Type
                         _______ _______ _______ _____ _____    ______ ____

>  <TORSDO>
F 5

$$$$
=
 OpenBabel07192307433D

 43 45  0  0  1  0  0  0  0  0999 V2000
    1.9160    4.8200   19.8650 C   0  0  2  0  0  0  0  0  0  0  0  0
    0.8290    3.8560   20.3630 C   0  0  0  0  0  0  0  0  0  0  0  0
    1.5910    2.7170   21.0120 C   0  0  0  0  0  0  0  0  0  0  0  0
    2.8520    2.5990   20.1670 C   0  0  0  0  0  0  0  0  0  0  0  0
    3.0890    3.9480   19.6430 N   0  0  0  0  0  0  0  0  0  0  0  0
    1.5560    5.2610   18.9260 H   0  0  0  0  0  0  0  0  0  0  0  0
    0.2690    3.4660   19.5020 H   0  0  0  0  0  0  0  0  0  0  0  0
    0.1070    4.3240   21.0400 H   0  0  0  0  0  0  0  0  0  0  0  0
    1.0170    1.7850   21.0280 H   0  0  0  0  0  0  0  0  0  0  0  0
    1.8470    2.9580   22.0480 H   0  0  0  0  0  0  0  0  0  0  0  0
    2.6830    1.8970   19.3420 H   0  0  0  0  0  0  0  0  0  0  0  0
    3.6850    2.2410   20.7810 H   0  0  0  0  0  0  0  0  0  0  0  0
    4.1070    4.2150   18.7470 C   0  0  0  0  0  0  0  0  0  0  0  0
    5.3180    4.8110   19.1360 C   0  0  0  0  0  0  0  0  0  0  0  0
    6.3530    5.0670   18.2260 C   0  0  0  0  0  0  0  0  0  0  0  0
    6.2080    4.7240   16.8890 C   0  0  0  0  0  0  0  0  0  0  0  0
    5.0300    4.1230   16.4680 C   0  0  0  0  0  0  0  0  0  0  0  0
    4.0010    3.8750   17.3870 C   0  0  0  0  0  0  0  0  0  0  0  0
    5.4910    5.0960   20.1690 H   0  0  0  0  0  0  0  0  0  0  0  0
    7.2730    5.5290   18.5730 H   0  0  0  0  0  0  0  0  0  0  0  0
    7.0100    4.9160   16.1820 H   0  0  0  0  0  0  0  0  0  0  0  0
    4.9020    3.8370   15.4280 H   0  0  0  0  0  0  0  0  0  0  0  0
    3.1080    3.3860   17.0090 H   0  0  0  0  0  0  0  0  0  0  0  0
    2.2320    5.9600   20.8610 C   0  0  0  0  0  0  0  0  0  0  0  0
    3.2580    5.8590   21.2270 H   0  0  0  0  0  0  0  0  0  0  0  0
    1.5670    5.8910   21.7280 H   0  0  0  0  0  0  0  0  0  0  0  0
    1.0040    8.1170   20.7270 C   0  0  0  0  0  0  0  0  0  0  0  0
    0.1310    7.7450   21.5080 O   0  0  0  0  0  0  0  0  0  0  0  0
    2.0210    7.2870   20.3140 N   0  0  0  0  0  0  0  0  0  0  0  0
    2.7810    7.6630   19.7540 H   0  0  0  0  0  0  0  0  0  0  0  0
    1.0250   12.1980   19.3120 C   0  0  0  0  0  0  0  0  0  0  0  0
    0.8860   11.8920   20.6760 C   0  0  0  0  0  0  0  0  0  0  0  0
    0.8760   10.5660   21.1200 C   0  0  0  0  0  0  0  0  0  0  0  0
    1.0010    9.5120   20.2050 C   0  0  0  0  0  0  0  0  0  0  0  0
    1.1390    9.8160   18.8470 C   0  0  0  0  0  0  0  0  0  0  0  0
    1.2800    8.8440   17.9310 F   0  0  0  0  0  0  0  0  0  0  0  0
    1.1500   11.1370   18.4030 C   0  0  0  0  0  0  0  0  0  0  0  0
    0.7890   12.7070   21.3950 H   0  0  0  0  0  0  0  0  0  0  0  0
    0.7720   10.3650   22.1840 H   0  0  0  0  0  0  0  0  0  0  0  0
    1.2620   11.3470   17.3420 H   0  0  0  0  0  0  0  0  0  0  0  0
    2.1810   14.1970   18.7570 O   0  0  0  0  0  1  0  0  0  0  0  0
    1.0450   13.6340   18.8310 C   0  0  0  0  0  0  0  0  0  0  0  0
   -0.0740   14.1610   18.5440 O   0  0  0  0  0  0  0  0  0  0  0  0
  1  6  1  6  0  0  0
  1  2  1  0  0  0  0
  1 24  1  0  0  0  0
  2  3  1  0  0  0  0
  2  8  1  0  0  0  0
  3  9  1  0  0  0  0
  3 10  1  0  0  0  0
  4 12  1  0  0  0  0
  4  3  1  0  0  0  0
  5  1  1  0  0  0  0
  5  4  1  0  0  0  0
  7  2  1  0  0  0  0
 11  4  1  0  0  0  0
 13 14  1  0  0  0  0
 13  5  1  0  0  0  0
 14 19  1  0  0  0  0
 15 20  1  0  0  0  0
 15 14  2  0  0  0  0
 16 15  1  0  0  0  0
 17 16  2  0  0  0  0
 17 18  1  0  0  0  0
 18 13  2  0  0  0  0
 21 16  1  0  0  0  0
 22 17  1  0  0  0  0
 23 18  1  0  0  0  0
 24 25  1  0  0  0  0
 24 26  1  0  0  0  0
 27 28  2  0  0  0  0
 29 27  1  0  0  0  0
 29 24  1  0  0  0  0
 30 29  1  0  0  0  0
 31 32  1  0  0  0  0
 32 33  2  0  0  0  0
 32 38  1  0  0  0  0
 33 39  1  0  0  0  0
 34 27  1  0  0  0  0
 34 33  1  0  0  0  0
 35 34  2  0  0  0  0
 36 35  1  0  0  0  0
 37 35  1  0  0  0  0
 37 31  2  0  0  0  0
 40 37  1  0  0  0  0
 41 42  1  0  0  0  0
 42 31  1  0  0  0  0
 43 42  2  0  0  0  0
M  END
>  <MODEL>
21

>  <REMARK>
 VINA RESULT:    -7.275      4.300      7.393
 INTER + INTRA:          -9.905
 INTER:                  -9.249
 INTRA:                  -0.656
 UNBOUND:                -0.503
  Name = 
  5 active torsions:
  status: ('A' for Active; 'I' for Inactive)
    1  A    between atoms: C_2  and  C_4
    2  A    between atoms: C_7  and  C_8
    3  A    between atoms: N_10  and  C_11
    4  A    between atoms: C_11  and  C_12
    5  A    between atoms: N_16  and  C_17
                            x       y       z     vdW  Elec       q    Type
                         _______ _______ _______ _____ _____    ______ ____

>  <TORSDO>
F 5

$$$$
=
 OpenBabel07192307433D

 43 45  0  0  1  0  0  0  0  0999 V2000
    5.0250    5.2420   15.7890 C   0  0  2  0  0  0  0  0  0  0  0  0
    4.9680    4.6060   14.3920 C   0  0  0  0  0  0  0  0  0  0  0  0
    6.1270    3.6280   14.3650 C   0  0  0  0  0  0  0  0  0  0  0  0
    7.1920    4.3080   15.2140 C   0  0  0  0  0  0  0  0  0  0  0  0
    6.4490    5.1360   16.1700 N   0  0  0  0  0  0  0  0  0  0  0  0
    4.7100    6.2870   15.6850 H   0  0  0  0  0  0  0  0  0  0  0  0
    5.1400    5.3820   13.6340 H   0  0  0  0  0  0  0  0  0  0  0  0
    4.0070    4.1330   14.1660 H   0  0  0  0  0  0  0  0  0  0  0  0
    6.4780    3.4230   13.3490 H   0  0  0  0  0  0  0  0  0  0  0  0
    5.8390    2.6700   14.8090 H   0  0  0  0  0  0  0  0  0  0  0  0
    7.8270    4.9380   14.5800 H   0  0  0  0  0  0  0  0  0  0  0  0
    7.8130    3.5560   15.7130 H   0  0  0  0  0  0  0  0  0  0  0  0
    7.0900    5.9830   17.0540 C   0  0  0  0  0  0  0  0  0  0  0  0
    7.2370    7.3580   16.8100 C   0  0  0  0  0  0  0  0  0  0  0  0
    7.8770    8.2160   17.7170 C   0  0  0  0  0  0  0  0  0  0  0  0
    8.3860    7.7170   18.9080 C   0  0  0  0  0  0  0  0  0  0  0  0
    8.2510    6.3650   19.1890 C   0  0  0  0  0  0  0  0  0  0  0  0
    7.6120    5.5180   18.2740 C   0  0  0  0  0  0  0  0  0  0  0  0
    6.8550    7.8060   15.8990 H   0  0  0  0  0  0  0  0  0  0  0  0
    7.9660    9.2730   17.4860 H   0  0  0  0  0  0  0  0  0  0  0  0
    8.8770    8.3790   19.6160 H   0  0  0  0  0  0  0  0  0  0  0  0
    8.6330    5.9590   20.1220 H   0  0  0  0  0  0  0  0  0  0  0  0
    7.5170    4.4720   18.5520 H   0  0  0  0  0  0  0  0  0  0  0  0
    4.1050    4.5460   16.8200 C   0  0  0  0  0  0  0  0  0  0  0  0
    4.7120    3.9950   17.5460 H   0  0  0  0  0  0  0  0  0  0  0  0
    3.4620    3.8180   16.3140 H   0  0  0  0  0  0  0  0  0  0  0  0
    3.4630    5.9740   18.7490 C   0  0  0  0  0  0  0  0  0  0  0  0
    4.4280    5.6150   19.4220 O   0  0  0  0  0  0  0  0  0  0  0  0
    3.2030    5.4530   17.5030 N   0  0  0  0  0  0  0  0  0  0  0  0
    2.4600    5.8520   16.9350 H   0  0  0  0  0  0  0  0  0  0  0  0
    0.7950    8.9750   20.3420 C   0  0  0  0  0  0  0  0  0  0  0  0
    1.1260    7.8210   21.0720 C   0  0  0  0  0  0  0  0  0  0  0  0
    1.9870    6.8550   20.5430 C   0  0  0  0  0  0  0  0  0  0  0  0
    2.5360    7.0210   19.2640 C   0  0  0  0  0  0  0  0  0  0  0  0
    2.2060    8.1690   18.5370 C   0  0  0  0  0  0  0  0  0  0  0  0
    2.7190    8.3840   17.3140 F   0  0  0  0  0  0  0  0  0  0  0  0
    1.3490    9.1330   19.0640 C   0  0  0  0  0  0  0  0  0  0  0  0
    0.7030    7.6850   22.0690 H   0  0  0  0  0  0  0  0  0  0  0  0
    2.2260    5.9760   21.1360 H   0  0  0  0  0  0  0  0  0  0  0  0
    1.1110   10.0180   18.4790 H   0  0  0  0  0  0  0  0  0  0  0  0
   -0.2040   10.0910   22.1850 O   0  0  0  0  0  1  0  0  0  0  0  0
   -0.1320   10.0260   20.9190 C   0  0  0  0  0  0  0  0  0  0  0  0
   -0.7630   10.7530   20.0920 O   0  0  0  0  0  0  0  0  0  0  0  0
  1  6  1  6  0  0  0
  1  5  1  0  0  0  0
  1 24  1  0  0  0  0
  2  1  1  0  0  0  0
  3  2  1  0  0  0  0
  3 10  1  0  0  0  0
  3  4  1  0  0  0  0
  4 12  1  0  0  0  0
  4  5  1  0  0  0  0
  5 13  1  0  0  0  0
  7  2  1  0  0  0  0
  8  2  1  0  0  0  0
  9  3  1  0  0  0  0
 11  4  1  0  0  0  0
 13 18  1  0  0  0  0
 14 13  2  0  0  0  0
 14 15  1  0  0  0  0
 15 16  2  0  0  0  0
 16 17  1  0  0  0  0
 16 21  1  0  0  0  0
 17 22  1  0  0  0  0
 18 23  1  0  0  0  0
 18 17  2  0  0  0  0
 19 14  1  0  0  0  0
 20 15  1  0  0  0  0
 24 29  1  0  0  0  0
 24 25  1  0  0  0  0
 26 24  1  0  0  0  0
 27 34  1  0  0  0  0
 27 28  2  0  0  0  0
 29 27  1  0  0  0  0
 30 29  1  0  0  0  0
 31 42  1  0  0  0  0
 31 32  1  0  0  0  0
 32 38  1  0  0  0  0
 33 32  2  0  0  0  0
 33 39  1  0  0  0  0
 34 33  1  0  0  0  0
 35 37  1  0  0  0  0
 35 34  2  0  0  0  0
 36 35  1  0  0  0  0
 37 31  2  0  0  0  0
 40 37  1  0  0  0  0
 42 41  1  0  0  0  0
 43 42  2  0  0  0  0
M  END
>  <MODEL>
22

>  <REMARK>
 VINA RESULT:    -7.243      3.298      7.276
 INTER + INTRA:          -9.864
 INTER:                  -8.969
 INTRA:                  -0.895
 UNBOUND:                -0.503
  Name = 
  5 active torsions:
  status: ('A' for Active; 'I' for Inactive)
    1  A    between atoms: C_2  and  C_4
    2  A    between atoms: C_7  and  C_8
    3  A    between atoms: N_10  and  C_11
    4  A    between atoms: C_11  and  C_12
    5  A    between atoms: N_16  and  C_17
                            x       y       z     vdW  Elec       q    Type
                         _______ _______ _______ _____ _____    ______ ____

>  <TORSDO>
F 5

$$$$
=
 OpenBabel07192307433D

 43 45  0  0  1  0  0  0  0  0999 V2000
   -0.6800   11.6850   20.3270 C   0  0  2  0  0  0  0  0  0  0  0  0
   -0.4390   12.9220   21.2050 C   0  0  0  0  0  0  0  0  0  0  0  0
   -1.8260   13.3740   21.6230 C   0  0  0  0  0  0  0  0  0  0  0  0
   -2.6930   13.0410   20.4170 C   0  0  0  0  0  0  0  0  0  0  0  0
   -2.0350   11.8980   19.7750 N   0  0  0  0  0  0  0  0  0  0  0  0
    0.0830   11.6910   19.5380 H   0  0  0  0  0  0  0  0  0  0  0  0
    0.0240   13.7120   20.5970 H   0  0  0  0  0  0  0  0  0  0  0  0
    0.2210   12.7320   22.0560 H   0  0  0  0  0  0  0  0  0  0  0  0
   -1.8610   14.4380   21.8760 H   0  0  0  0  0  0  0  0  0  0  0  0
   -2.1670   12.8200   22.5030 H   0  0  0  0  0  0  0  0  0  0  0  0
   -2.7200   13.8970   19.7310 H   0  0  0  0  0  0  0  0  0  0  0  0
   -3.7120   12.8040   20.7400 H   0  0  0  0  0  0  0  0  0  0  0  0
   -2.4890   11.3700   18.5820 C   0  0  0  0  0  0  0  0  0  0  0  0
   -1.6850   10.5650   17.7580 C   0  0  0  0  0  0  0  0  0  0  0  0
   -2.1550   10.0210   16.5550 C   0  0  0  0  0  0  0  0  0  0  0  0
   -3.4570   10.2630   16.1400 C   0  0  0  0  0  0  0  0  0  0  0  0
   -4.2850   11.0460   16.9320 C   0  0  0  0  0  0  0  0  0  0  0  0
   -3.8040   11.5860   18.1320 C   0  0  0  0  0  0  0  0  0  0  0  0
   -0.6610   10.3360   18.0330 H   0  0  0  0  0  0  0  0  0  0  0  0
   -1.4970    9.4030   15.9500 H   0  0  0  0  0  0  0  0  0  0  0  0
   -3.8270    9.8390   15.2110 H   0  0  0  0  0  0  0  0  0  0  0  0
   -5.3110   11.2370   16.6300 H   0  0  0  0  0  0  0  0  0  0  0  0
   -4.4980   12.1760   18.7230 H   0  0  0  0  0  0  0  0  0  0  0  0
   -0.5820   10.3510   21.1030 C   0  0  0  0  0  0  0  0  0  0  0  0
   -1.5860    9.9950   21.3560 H   0  0  0  0  0  0  0  0  0  0  0  0
   -0.0440   10.5060   22.0440 H   0  0  0  0  0  0  0  0  0  0  0  0
    1.1800    8.6030   20.9750 C   0  0  0  0  0  0  0  0  0  0  0  0
    1.6190    8.8690   22.0920 O   0  0  0  0  0  0  0  0  0  0  0  0
    0.1560    9.3190   20.3990 N   0  0  0  0  0  0  0  0  0  0  0  0
   -0.2490    9.0030   19.5220 H   0  0  0  0  0  0  0  0  0  0  0  0
    2.7410    5.2280   18.7770 C   0  0  0  0  0  0  0  0  0  0  0  0
    2.1180    5.0690   20.0260 C   0  0  0  0  0  0  0  0  0  0  0  0
    1.6220    6.1710   20.7290 C   0  0  0  0  0  0  0  0  0  0  0  0
    1.7420    7.4620   20.1980 C   0  0  0  0  0  0  0  0  0  0  0  0
    2.3630    7.6210   18.9550 C   0  0  0  0  0  0  0  0  0  0  0  0
    2.4870    8.8350   18.3940 F   0  0  0  0  0  0  0  0  0  0  0  0
    2.8570    6.5240   18.2530 C   0  0  0  0  0  0  0  0  0  0  0  0
    2.0200    4.0670   20.4460 H   0  0  0  0  0  0  0  0  0  0  0  0
    1.1400    6.0120   21.6910 H   0  0  0  0  0  0  0  0  0  0  0  0
    3.3330    6.6730   17.2870 H   0  0  0  0  0  0  0  0  0  0  0  0
    2.4530    3.4330   17.2490 O   0  0  0  0  0  0  0  0  0  0  0  0
    3.2720    4.0340   18.0110 C   0  0  0  0  0  0  0  0  0  0  0  0
    4.4910    3.7270   18.1940 O   0  0  0  0  0  1  0  0  0  0  0  0
  1  6  1  6  0  0  0
  1 24  1  0  0  0  0
  1  2  1  0  0  0  0
  2  3  1  0  0  0  0
  2  8  1  0  0  0  0
  3  9  1  0  0  0  0
  3 10  1  0  0  0  0
  4 12  1  0  0  0  0
  4  3  1  0  0  0  0
  5  1  1  0  0  0  0
  5  4  1  0  0  0  0
  7  2  1  0  0  0  0
 11  4  1  0  0  0  0
 13  5  1  0  0  0  0
 14 19  1  0  0  0  0
 14 13  2  0  0  0  0
 15 14  1  0  0  0  0
 16 15  2  0  0  0  0
 16 17  1  0  0  0  0
 17 18  2  0  0  0  0
 18 13  1  0  0  0  0
 18 23  1  0  0  0  0
 20 15  1  0  0  0  0
 21 16  1  0  0  0  0
 22 17  1  0  0  0  0
 24 25  1  0  0  0  0
 24 26  1  0  0  0  0
 27 28  2  0  0  0  0
 29 27  1  0  0  0  0
 29 24  1  0  0  0  0
 30 29  1  0  0  0  0
 31 32  1  0  0  0  0
 32 38  1  0  0  0  0
 32 33  2  0  0  0  0
 33 39  1  0  0  0  0
 34 33  1  0  0  0  0
 34 27  1  0  0  0  0
 35 34  2  0  0  0  0
 36 35  1  0  0  0  0
 37 31  2  0  0  0  0
 37 35  1  0  0  0  0
 40 37  1  0  0  0  0
 41 42  2  0  0  0  0
 42 43  1  0  0  0  0
 42 31  1  0  0  0  0
M  END
>  <MODEL>
23

>  <REMARK>
 VINA RESULT:    -7.225      4.859      7.531
 INTER + INTRA:          -9.840
 INTER:                  -9.167
 INTRA:                  -0.673
 UNBOUND:                -0.503
  Name = 
  5 active torsions:
  status: ('A' for Active; 'I' for Inactive)
    1  A    between atoms: C_2  and  C_4
    2  A    between atoms: C_7  and  C_8
    3  A    between atoms: N_10  and  C_11
    4  A    between atoms: C_11  and  C_12
    5  A    between atoms: N_16  and  C_17
                            x       y       z     vdW  Elec       q    Type
                         _______ _______ _______ _____ _____    ______ ____

>  <TORSDO>
F 5

$$$$
=
 OpenBabel07192307433D

 43 45  0  0  1  0  0  0  0  0999 V2000
    0.4970    9.5730   19.7000 C   0  0  2  0  0  0  0  0  0  0  0  0
    0.9410    9.5540   18.2300 C   0  0  0  0  0  0  0  0  0  0  0  0
    1.9780   10.6560   18.1250 C   0  0  0  0  0  0  0  0  0  0  0  0
    1.4820   11.7120   19.1040 C   0  0  0  0  0  0  0  0  0  0  0  0
    0.7400   10.9680   20.1270 N   0  0  0  0  0  0  0  0  0  0  0  0
   -0.5710    9.3230   19.7230 H   0  0  0  0  0  0  0  0  0  0  0  0
    0.0840    9.8090   17.5910 H   0  0  0  0  0  0  0  0  0  0  0  0
    1.3190    8.5820   17.9010 H   0  0  0  0  0  0  0  0  0  0  0  0
    2.0700   11.0480   17.1080 H   0  0  0  0  0  0  0  0  0  0  0  0
    2.9650   10.2920   18.4240 H   0  0  0  0  0  0  0  0  0  0  0  0
    0.8160   12.4140   18.5880 H   0  0  0  0  0  0  0  0  0  0  0  0
    2.3300   12.2620   19.5260 H   0  0  0  0  0  0  0  0  0  0  0  0
    0.0580   11.6080   21.1440 C   0  0  0  0  0  0  0  0  0  0  0  0
    0.1490   12.9930   21.3590 C   0  0  0  0  0  0  0  0  0  0  0  0
   -0.5560   13.6400   22.3840 C   0  0  0  0  0  0  0  0  0  0  0  0
   -1.3860   12.9140   23.2260 C   0  0  0  0  0  0  0  0  0  0  0  0
   -1.5100   11.5440   23.0390 C   0  0  0  0  0  0  0  0  0  0  0  0
   -0.7990   10.9080   22.0120 C   0  0  0  0  0  0  0  0  0  0  0  0
    0.7780   13.6140   20.7290 H   0  0  0  0  0  0  0  0  0  0  0  0
   -0.4550   14.7140   22.5120 H   0  0  0  0  0  0  0  0  0  0  0  0
   -1.9380   13.4120   24.0180 H   0  0  0  0  0  0  0  0  0  0  0  0
   -2.1640   10.9610   23.6810 H   0  0  0  0  0  0  0  0  0  0  0  0
   -0.9470    9.8390   21.8980 H   0  0  0  0  0  0  0  0  0  0  0  0
    1.2620    8.5630   20.5870 C   0  0  0  0  0  0  0  0  0  0  0  0
    0.5560    7.8620   21.0450 H   0  0  0  0  0  0  0  0  0  0  0  0
    1.7700    9.0920   21.4000 H   0  0  0  0  0  0  0  0  0  0  0  0
    2.3480    6.4660   19.8130 C   0  0  0  0  0  0  0  0  0  0  0  0
    1.5700    5.7520   20.4420 O   0  0  0  0  0  0  0  0  0  0  0  0
    2.3030    7.8390   19.8830 N   0  0  0  0  0  0  0  0  0  0  0  0
    2.8910    8.3950   19.2680 H   0  0  0  0  0  0  0  0  0  0  0  0
    5.3480    4.8000   17.1900 C   0  0  0  0  0  0  0  0  0  0  0  0
    4.7560    6.0480   16.9320 C   0  0  0  0  0  0  0  0  0  0  0  0
    3.7820    6.5730   17.7870 C   0  0  0  0  0  0  0  0  0  0  0  0
    3.3750    5.8570   18.9210 C   0  0  0  0  0  0  0  0  0  0  0  0
    3.9630    4.6150   19.1770 C   0  0  0  0  0  0  0  0  0  0  0  0
    3.6210    3.8970   20.2590 F   0  0  0  0  0  0  0  0  0  0  0  0
    4.9340    4.0900   18.3270 C   0  0  0  0  0  0  0  0  0  0  0  0
    5.0680    6.6120   16.0520 H   0  0  0  0  0  0  0  0  0  0  0  0
    3.3480    7.5440   17.5620 H   0  0  0  0  0  0  0  0  0  0  0  0
    5.3790    3.1230   18.5490 H   0  0  0  0  0  0  0  0  0  0  0  0
    7.6170    4.3730   16.6340 O   0  0  0  0  0  1  0  0  0  0  0  0
    6.4090    4.2330   16.2680 C   0  0  0  0  0  0  0  0  0  0  0  0
    6.0060    3.6690   15.2050 O   0  0  0  0  0  0  0  0  0  0  0  0
  1  6  1  1  0  0  0
  1  5  1  0  0  0  0
  1 24  1  0  0  0  0
  2  1  1  0  0  0  0
  3  2  1  0  0  0  0
  3 10  1  0  0  0  0
  3  4  1  0  0  0  0
  4 12  1  0  0  0  0
  4  5  1  0  0  0  0
  5 13  1  0  0  0  0
  7  2  1  0  0  0  0
  8  2  1  0  0  0  0
  9  3  1  0  0  0  0
 11  4  1  0  0  0  0
 13 14  2  0  0  0  0
 13 18  1  0  0  0  0
 14 15  1  0  0  0  0
 15 20  1  0  0  0  0
 15 16  2  0  0  0  0
 16 21  1  0  0  0  0
 17 16  1  0  0  0  0
 17 22  1  0  0  0  0
 18 17  2  0  0  0  0
 19 14  1  0  0  0  0
 23 18  1  0  0  0  0
 24 25  1  0  0  0  0
 24 26  1  0  0  0  0
 27 29  1  0  0  0  0
 27 28  2  0  0  0  0
 29 24  1  0  0  0  0
 30 29  1  0  0  0  0
 31 37  1  0  0  0  0
 32 31  2  0  0  0  0
 32 33  1  0  0  0  0
 33 34  2  0  0  0  0
 34 35  1  0  0  0  0
 34 27  1  0  0  0  0
 35 36  1  0  0  0  0
 37 40  1  0  0  0  0
 37 35  2  0  0  0  0
 38 32  1  0  0  0  0
 39 33  1  0  0  0  0
 42 41  1  0  0  0  0
 42 31  1  0  0  0  0
 43 42  2  0  0  0  0
M  END
>  <MODEL>
24

>  <REMARK>
 VINA RESULT:    -7.154      3.732      5.686
 INTER + INTRA:          -9.749
 INTER:                  -9.287
 INTRA:                  -0.462
 UNBOUND:                -0.503
  Name = 
  5 active torsions:
  status: ('A' for Active; 'I' for Inactive)
    1  A    between atoms: C_2  and  C_4
    2  A    between atoms: C_7  and  C_8
    3  A    between atoms: N_10  and  C_11
    4  A    between atoms: C_11  and  C_12
    5  A    between atoms: N_16  and  C_17
                            x       y       z     vdW  Elec       q    Type
                         _______ _______ _______ _____ _____    ______ ____

>  <TORSDO>
F 5

$$$$
=
 OpenBabel07192307433D

 43 45  0  0  1  0  0  0  0  0999 V2000
    4.4830    3.9790   17.5790 C   0  0  2  0  0  0  0  0  0  0  0  0
    4.7990    4.0120   19.0820 C   0  0  0  0  0  0  0  0  0  0  0  0
    5.5840    5.2940   19.2830 C   0  0  0  0  0  0  0  0  0  0  0  0
    6.3830    5.4350   17.9940 C   0  0  0  0  0  0  0  0  0  0  0  0
    5.5750    4.7670   16.9680 N   0  0  0  0  0  0  0  0  0  0  0  0
    4.5140    2.9290   17.2610 H   0  0  0  0  0  0  0  0  0  0  0  0
    5.4420    3.1580   19.3340 H   0  0  0  0  0  0  0  0  0  0  0  0
    3.9100    3.9540   19.7160 H   0  0  0  0  0  0  0  0  0  0  0  0
    6.2290    5.2560   20.1660 H   0  0  0  0  0  0  0  0  0  0  0  0
    4.9110    6.1480   19.4090 H   0  0  0  0  0  0  0  0  0  0  0  0
    7.3510    4.9320   18.1000 H   0  0  0  0  0  0  0  0  0  0  0  0
    6.5480    6.4930   17.7660 H   0  0  0  0  0  0  0  0  0  0  0  0
    6.0260    4.6090   15.6720 C   0  0  0  0  0  0  0  0  0  0  0  0
    5.3580    3.8070   14.7320 C   0  0  0  0  0  0  0  0  0  0  0  0
    5.8130    3.6610   13.4140 C   0  0  0  0  0  0  0  0  0  0  0  0
    6.9570    4.3240   12.9920 C   0  0  0  0  0  0  0  0  0  0  0  0
    7.6400    5.1340   13.8900 C   0  0  0  0  0  0  0  0  0  0  0  0
    7.1760    5.2700   15.2050 C   0  0  0  0  0  0  0  0  0  0  0  0
    4.4550    3.2690   15.0010 H   0  0  0  0  0  0  0  0  0  0  0  0
    5.2630    3.0310   12.7210 H   0  0  0  0  0  0  0  0  0  0  0  0
    7.3100    4.2180   11.9710 H   0  0  0  0  0  0  0  0  0  0  0  0
    8.5300    5.6700   13.5760 H   0  0  0  0  0  0  0  0  0  0  0  0
    7.7370    5.9300   15.8610 H   0  0  0  0  0  0  0  0  0  0  0  0
    3.0930    4.5620   17.2290 C   0  0  0  0  0  0  0  0  0  0  0  0
    2.3740    3.7480   17.0880 H   0  0  0  0  0  0  0  0  0  0  0  0
    3.1490    5.1150   16.2860 H   0  0  0  0  0  0  0  0  0  0  0  0
    2.7810    6.8690   18.0990 C   0  0  0  0  0  0  0  0  0  0  0  0
    3.4840    7.3660   17.2220 O   0  0  0  0  0  0  0  0  0  0  0  0
    2.5950    5.5100   18.2080 N   0  0  0  0  0  0  0  0  0  0  0  0
    1.9240    5.1450   18.8770 H   0  0  0  0  0  0  0  0  0  0  0  0
    0.7940    9.3410   21.0310 C   0  0  0  0  0  0  0  0  0  0  0  0
    1.3420    8.0920   21.3710 C   0  0  0  0  0  0  0  0  0  0  0  0
    1.9780    7.2990   20.4100 C   0  0  0  0  0  0  0  0  0  0  0  0
    2.0770    7.7390   19.0830 C   0  0  0  0  0  0  0  0  0  0  0  0
    1.5320    8.9810   18.7450 C   0  0  0  0  0  0  0  0  0  0  0  0
    1.6160    9.4560   17.4910 F   0  0  0  0  0  0  0  0  0  0  0  0
    0.8980    9.7720   19.7010 C   0  0  0  0  0  0  0  0  0  0  0  0
    1.2690    7.7440   22.4020 H   0  0  0  0  0  0  0  0  0  0  0  0
    2.3960    6.3400   20.7070 H   0  0  0  0  0  0  0  0  0  0  0  0
    0.4850   10.7360   19.4140 H   0  0  0  0  0  0  0  0  0  0  0  0
   -0.2070   11.3810   21.7200 O   0  0  0  0  0  0  0  0  0  0  0  0
    0.1110   10.2030   22.0730 C   0  0  0  0  0  0  0  0  0  0  0  0
   -0.0850    9.6830   23.2140 O   0  0  0  0  0  1  0  0  0  0  0  0
  1  6  1  6  0  0  0
  1  2  1  0  0  0  0
  2  3  1  0  0  0  0
  2  7  1  0  0  0  0
  2  8  1  0  0  0  0
  3 10  1  0  0  0  0
  3  9  1  0  0  0  0
  4 11  1  0  0  0  0
  4  3  1  0  0  0  0
  5  1  1  0  0  0  0
  5  4  1  0  0  0  0
 12  4  1  0  0  0  0
 13  5  1  0  0  0  0
 14 19  1  0  0  0  0
 14 13  2  0  0  0  0
 15 14  1  0  0  0  0
 16 15  2  0  0  0  0
 16 17  1  0  0  0  0
 17 18  2  0  0  0  0
 18 13  1  0  0  0  0
 18 23  1  0  0  0  0
 20 15  1  0  0  0  0
 21 16  1  0  0  0  0
 22 17  1  0  0  0  0
 24  1  1  0  0  0  0
 24 29  1  0  0  0  0
 25 24  1  0  0  0  0
 26 24  1  0  0  0  0
 27 29  1  0  0  0  0
 27 34  1  0  0  0  0
 28 27  2  0  0  0  0
 29 30  1  0  0  0  0
 31 32  1  0  0  0  0
 31 42  1  0  0  0  0
 32 38  1  0  0  0  0
 33 39  1  0  0  0  0
 33 32  2  0  0  0  0
 34 33  1  0  0  0  0
 35 34  2  0  0  0  0
 35 37  1  0  0  0  0
 36 35  1  0  0  0  0
 37 31  2  0  0  0  0
 40 37  1  0  0  0  0
 41 42  2  0  0  0  0
 42 43  1  0  0  0  0
M  END
>  <MODEL>
25

>  <REMARK>
 VINA RESULT:    -7.144      3.272      7.729
 INTER + INTRA:          -9.736
 INTER:                  -9.187
 INTRA:                  -0.549
 UNBOUND:                -0.503
  Name = 
  5 active torsions:
  status: ('A' for Active; 'I' for Inactive)
    1  A    between atoms: C_2  and  C_4
    2  A    between atoms: C_7  and  C_8
    3  A    between atoms: N_10  and  C_11
    4  A    between atoms: C_11  and  C_12
    5  A    between atoms: N_16  and  C_17
                            x       y       z     vdW  Elec       q    Type
                         _______ _______ _______ _____ _____    ______ ____

>  <TORSDO>
F 5

$$$$
=
 OpenBabel07192307433D

 43 45  0  0  1  0  0  0  0  0999 V2000
    5.6780    4.2340   18.1240 C   0  0  2  0  0  0  0  0  0  0  0  0
    6.7650    4.3830   17.0490 C   0  0  0  0  0  0  0  0  0  0  0  0
    6.0530    5.0050   15.8630 C   0  0  0  0  0  0  0  0  0  0  0  0
    4.6540    4.4070   15.9280 C   0  0  0  0  0  0  0  0  0  0  0  0
    4.4240    4.1240   17.3480 N   0  0  0  0  0  0  0  0  0  0  0  0
    5.8910    3.3130   18.6800 H   0  0  0  0  0  0  0  0  0  0  0  0
    7.1290    3.3870   16.7630 H   0  0  0  0  0  0  0  0  0  0  0  0
    7.6290    4.9660   17.3800 H   0  0  0  0  0  0  0  0  0  0  0  0
    6.5510    4.7860   14.9140 H   0  0  0  0  0  0  0  0  0  0  0  0
    6.0080    6.0940   15.9630 H   0  0  0  0  0  0  0  0  0  0  0  0
    4.6190    3.4780   15.3460 H   0  0  0  0  0  0  0  0  0  0  0  0
    3.9230    5.1150   15.5230 H   0  0  0  0  0  0  0  0  0  0  0  0
    3.2820    3.4830   17.7890 C   0  0  0  0  0  0  0  0  0  0  0  0
    3.3220    2.2690   18.4940 C   0  0  0  0  0  0  0  0  0  0  0  0
    2.1620    1.6280   18.9500 C   0  0  0  0  0  0  0  0  0  0  0  0
    0.9150    2.1940   18.7180 C   0  0  0  0  0  0  0  0  0  0  0  0
    0.8350    3.3980   18.0340 C   0  0  0  0  0  0  0  0  0  0  0  0
    2.0030    4.0280   17.5810 C   0  0  0  0  0  0  0  0  0  0  0  0
    4.2680    1.7820   18.7090 H   0  0  0  0  0  0  0  0  0  0  0  0
    2.2420    0.6900   19.4920 H   0  0  0  0  0  0  0  0  0  0  0  0
    0.0140    1.7040   19.0750 H   0  0  0  0  0  0  0  0  0  0  0  0
   -0.1300    3.8620   17.8530 H   0  0  0  0  0  0  0  0  0  0  0  0
    1.8850    4.9770   17.0670 H   0  0  0  0  0  0  0  0  0  0  0  0
    5.6310    5.4160   19.1200 C   0  0  0  0  0  0  0  0  0  0  0  0
    6.5980    5.9300   19.1320 H   0  0  0  0  0  0  0  0  0  0  0  0
    5.4490    5.0420   20.1330 H   0  0  0  0  0  0  0  0  0  0  0  0
    3.3880    6.3850   19.5720 C   0  0  0  0  0  0  0  0  0  0  0  0
    3.1150    5.5310   20.4130 O   0  0  0  0  0  0  0  0  0  0  0  0
    4.5620    6.3610   18.8560 N   0  0  0  0  0  0  0  0  0  0  0  0
    4.7990    7.1400   18.2490 H   0  0  0  0  0  0  0  0  0  0  0  0
    0.6570    9.6170   18.7010 C   0  0  0  0  0  0  0  0  0  0  0  0
    1.4840    9.0640   17.7090 C   0  0  0  0  0  0  0  0  0  0  0  0
    2.3670    8.0210   18.0060 C   0  0  0  0  0  0  0  0  0  0  0  0
    2.4460    7.5090   19.3080 C   0  0  0  0  0  0  0  0  0  0  0  0
    1.6240    8.0600   20.2960 C   0  0  0  0  0  0  0  0  0  0  0  0
    1.6480    7.5940   21.5550 F   0  0  0  0  0  0  0  0  0  0  0  0
    0.7420    9.0980   20.0010 C   0  0  0  0  0  0  0  0  0  0  0  0
    1.4280    9.4560   16.6920 H   0  0  0  0  0  0  0  0  0  0  0  0
    2.9900    7.6120   17.2130 H   0  0  0  0  0  0  0  0  0  0  0  0
    0.1110    9.5070   20.7870 H   0  0  0  0  0  0  0  0  0  0  0  0
    0.0030   11.8980   18.8030 O   0  0  0  0  0  1  0  0  0  0  0  0
   -0.3060   10.7410   18.3780 C   0  0  0  0  0  0  0  0  0  0  0  0
   -1.3440   10.4380   17.7140 O   0  0  0  0  0  0  0  0  0  0  0  0
  1  6  1  1  0  0  0
  1 24  1  0  0  0  0
  2  8  1  0  0  0  0
  2  1  1  0  0  0  0
  3  4  1  0  0  0  0
  3 10  1  0  0  0  0
  3  2  1  0  0  0  0
  4  5  1  0  0  0  0
  5 13  1  0  0  0  0
  5  1  1  0  0  0  0
  7  2  1  0  0  0  0
  9  3  1  0  0  0  0
 11  4  1  0  0  0  0
 12  4  1  0  0  0  0
 13 14  1  0  0  0  0
 14 19  1  0  0  0  0
 14 15  2  0  0  0  0
 15 20  1  0  0  0  0
 16 15  1  0  0  0  0
 16 21  1  0  0  0  0
 17 16  2  0  0  0  0
 18 13  2  0  0  0  0
 18 17  1  0  0  0  0
 22 17  1  0  0  0  0
 23 18  1  0  0  0  0
 24 25  1  0  0  0  0
 24 26  1  0  0  0  0
 27 28  2  0  0  0  0
 29 24  1  0  0  0  0
 29 27  1  0  0  0  0
 30 29  1  0  0  0  0
 31 37  1  0  0  0  0
 32 33  1  0  0  0  0
 32 31  2  0  0  0  0
 33 34  2  0  0  0  0
 34 27  1  0  0  0  0
 34 35  1  0  0  0  0
 35 36  1  0  0  0  0
 37 35  2  0  0  0  0
 37 40  1  0  0  0  0
 38 32  1  0  0  0  0
 39 33  1  0  0  0  0
 42 31  1  0  0  0  0
 42 41  1  0  0  0  0
 43 42  2  0  0  0  0
M  END
>  <MODEL>
26

>  <REMARK>
 VINA RESULT:    -7.088      3.430      6.659
 INTER + INTRA:          -9.663
 INTER:                  -9.074
 INTRA:                  -0.589
 UNBOUND:                -0.503
  Name = 
  5 active torsions:
  status: ('A' for Active; 'I' for Inactive)
    1  A    between atoms: C_2  and  C_4
    2  A    between atoms: C_7  and  C_8
    3  A    between atoms: N_10  and  C_11
    4  A    between atoms: C_11  and  C_12
    5  A    between atoms: N_16  and  C_17
                            x       y       z     vdW  Elec       q    Type
                         _______ _______ _______ _____ _____    ______ ____

>  <TORSDO>
F 5

$$$$
=
 OpenBabel07192307433D

 43 45  0  0  1  0  0  0  0  0999 V2000
    0.6000   11.3350   18.8660 C   0  0  2  0  0  0  0  0  0  0  0  0
    1.5870   12.5070   18.9820 C   0  0  0  0  0  0  0  0  0  0  0  0
    0.8000   13.6080   19.6680 C   0  0  0  0  0  0  0  0  0  0  0  0
   -0.6170   13.4190   19.1420 C   0  0  0  0  0  0  0  0  0  0  0  0
   -0.7260   11.9880   18.8400 N   0  0  0  0  0  0  0  0  0  0  0  0
    0.8160   10.8180   17.9230 H   0  0  0  0  0  0  0  0  0  0  0  0
    1.8670   12.8440   17.9750 H   0  0  0  0  0  0  0  0  0  0  0  0
    2.5090   12.2500   19.5120 H   0  0  0  0  0  0  0  0  0  0  0  0
    1.1930   14.6040   19.4440 H   0  0  0  0  0  0  0  0  0  0  0  0
    0.8240   13.4850   20.7550 H   0  0  0  0  0  0  0  0  0  0  0  0
   -0.7570   14.0110   18.2300 H   0  0  0  0  0  0  0  0  0  0  0  0
   -1.3440   13.7400   19.8960 H   0  0  0  0  0  0  0  0  0  0  0  0
   -1.8540   11.4510   18.2490 C   0  0  0  0  0  0  0  0  0  0  0  0
   -3.1530   11.8630   18.5900 C   0  0  0  0  0  0  0  0  0  0  0  0
   -4.2940   11.3250   17.9780 C   0  0  0  0  0  0  0  0  0  0  0  0
   -4.1660   10.3550   16.9940 C   0  0  0  0  0  0  0  0  0  0  0  0
   -2.8980    9.9300   16.6230 C   0  0  0  0  0  0  0  0  0  0  0  0
   -1.7650   10.4740   17.2430 C   0  0  0  0  0  0  0  0  0  0  0  0
   -3.3150   12.6220   19.3490 H   0  0  0  0  0  0  0  0  0  0  0  0
   -5.2790   11.6750   18.2730 H   0  0  0  0  0  0  0  0  0  0  0  0
   -5.0470    9.9390   16.5130 H   0  0  0  0  0  0  0  0  0  0  0  0
   -2.7780    9.1800   15.8460 H   0  0  0  0  0  0  0  0  0  0  0  0
   -0.7970   10.1190   16.9020 H   0  0  0  0  0  0  0  0  0  0  0  0
    0.7130   10.3180   20.0270 C   0  0  0  0  0  0  0  0  0  0  0  0
   -0.2680   10.1750   20.4910 H   0  0  0  0  0  0  0  0  0  0  0  0
    1.3850   10.7080   20.7980 H   0  0  0  0  0  0  0  0  0  0  0  0
    1.6420    8.0700   20.5330 C   0  0  0  0  0  0  0  0  0  0  0  0
    1.6290    8.2640   21.7470 O   0  0  0  0  0  0  0  0  0  0  0  0
    1.2740    9.0410   19.6300 N   0  0  0  0  0  0  0  0  0  0  0  0
    1.1970    8.8090   18.6440 H   0  0  0  0  0  0  0  0  0  0  0  0
    2.7390    4.1800   19.0100 C   0  0  0  0  0  0  0  0  0  0  0  0
    2.0150    4.3250   20.2050 C   0  0  0  0  0  0  0  0  0  0  0  0
    1.6710    5.5910   20.6900 C   0  0  0  0  0  0  0  0  0  0  0  0
    2.0490    6.7440   19.9880 C   0  0  0  0  0  0  0  0  0  0  0  0
    2.7700    6.5990   18.7990 C   0  0  0  0  0  0  0  0  0  0  0  0
    3.1400    7.6720   18.0800 F   0  0  0  0  0  0  0  0  0  0  0  0
    3.1120    5.3390   18.3140 C   0  0  0  0  0  0  0  0  0  0  0  0
    1.7170    3.4320   20.7570 H   0  0  0  0  0  0  0  0  0  0  0  0
    1.1060    5.6680   21.6150 H   0  0  0  0  0  0  0  0  0  0  0  0
    3.6710    5.2530   17.3850 H   0  0  0  0  0  0  0  0  0  0  0  0
    2.5020    2.4200   17.4330 O   0  0  0  0  0  0  0  0  0  0  0  0
    3.1060    2.8080   18.4800 C   0  0  0  0  0  0  0  0  0  0  0  0
    3.9830    2.1560   19.1260 O   0  0  0  0  0  1  0  0  0  0  0  0
  1  6  1  6  0  0  0
  1  2  1  0  0  0  0
  1 24  1  0  0  0  0
  2  8  1  0  0  0  0
  2  3  1  0  0  0  0
  3 10  1  0  0  0  0
  4  3  1  0  0  0  0
  4 12  1  0  0  0  0
  5  1  1  0  0  0  0
  5  4  1  0  0  0  0
  7  2  1  0  0  0  0
  9  3  1  0  0  0  0
 11  4  1  0  0  0  0
 13 14  1  0  0  0  0
 13  5  1  0  0  0  0
 14 19  1  0  0  0  0
 15 20  1  0  0  0  0
 15 14  2  0  0  0  0
 16 15  1  0  0  0  0
 17 16  2  0  0  0  0
 17 18  1  0  0  0  0
 18 13  2  0  0  0  0
 21 16  1  0  0  0  0
 22 17  1  0  0  0  0
 23 18  1  0  0  0  0
 24 25  1  0  0  0  0
 24 26  1  0  0  0  0
 27 28  2  0  0  0  0
 29 24  1  0  0  0  0
 29 27  1  0  0  0  0
 30 29  1  0  0  0  0
 31 32  1  0  0  0  0
 32 33  2  0  0  0  0
 32 38  1  0  0  0  0
 33 39  1  0  0  0  0
 34 27  1  0  0  0  0
 34 33  1  0  0  0  0
 35 34  2  0  0  0  0
 36 35  1  0  0  0  0
 37 35  1  0  0  0  0
 37 31  2  0  0  0  0
 40 37  1  0  0  0  0
 41 42  2  0  0  0  0
 42 31  1  0  0  0  0
 42 43  1  0  0  0  0
M  END
>  <MODEL>
27

>  <REMARK>
 VINA RESULT:    -7.088      4.522      7.331
 INTER + INTRA:          -9.663
 INTER:                  -9.162
 INTRA:                  -0.500
 UNBOUND:                -0.503
  Name = 
  5 active torsions:
  status: ('A' for Active; 'I' for Inactive)
    1  A    between atoms: C_2  and  C_4
    2  A    between atoms: C_7  and  C_8
    3  A    between atoms: N_10  and  C_11
    4  A    between atoms: C_11  and  C_12
    5  A    between atoms: N_16  and  C_17
                            x       y       z     vdW  Elec       q    Type
                         _______ _______ _______ _____ _____    ______ ____

>  <TORSDO>
F 5

$$$$
=
 OpenBabel07192307433D

 43 45  0  0  1  0  0  0  0  0999 V2000
    2.6330    6.2320   18.1080 C   0  0  2  0  0  0  0  0  0  0  0  0
    1.6610    5.6990   19.1700 C   0  0  0  0  0  0  0  0  0  0  0  0
    2.5470    5.2780   20.3270 C   0  0  0  0  0  0  0  0  0  0  0  0
    3.8110    4.7680   19.6470 C   0  0  0  0  0  0  0  0  0  0  0  0
    3.8950    5.5150   18.3870 N   0  0  0  0  0  0  0  0  0  0  0  0
    2.2240    5.9630   17.1260 H   0  0  0  0  0  0  0  0  0  0  0  0
    1.1460    4.8120   18.7760 H   0  0  0  0  0  0  0  0  0  0  0  0
    0.8950    6.4220   19.4630 H   0  0  0  0  0  0  0  0  0  0  0  0
    2.0810    4.5120   20.9550 H   0  0  0  0  0  0  0  0  0  0  0  0
    2.7790    6.1310   20.9720 H   0  0  0  0  0  0  0  0  0  0  0  0
    3.7180    3.6940   19.4450 H   0  0  0  0  0  0  0  0  0  0  0  0
    4.6810    4.9410   20.2900 H   0  0  0  0  0  0  0  0  0  0  0  0
    4.8740    5.2530   17.4480 C   0  0  0  0  0  0  0  0  0  0  0  0
    4.7070    4.3010   16.4290 C   0  0  0  0  0  0  0  0  0  0  0  0
    5.6990    4.0480   15.4700 C   0  0  0  0  0  0  0  0  0  0  0  0
    6.8940    4.7530   15.5000 C   0  0  0  0  0  0  0  0  0  0  0  0
    7.0920    5.7090   16.4860 C   0  0  0  0  0  0  0  0  0  0  0  0
    6.0940    5.9510   17.4400 C   0  0  0  0  0  0  0  0  0  0  0  0
    3.7920    3.7230   16.3520 H   0  0  0  0  0  0  0  0  0  0  0  0
    5.5250    3.3030   14.6990 H   0  0  0  0  0  0  0  0  0  0  0  0
    7.6630    4.5640   14.7550 H   0  0  0  0  0  0  0  0  0  0  0  0
    8.0160    6.2790   16.5180 H   0  0  0  0  0  0  0  0  0  0  0  0
    6.2930    6.7230   18.1780 H   0  0  0  0  0  0  0  0  0  0  0  0
    2.8240    7.7660   18.1630 C   0  0  0  0  0  0  0  0  0  0  0  0
    3.1990    8.1280   17.2000 H   0  0  0  0  0  0  0  0  0  0  0  0
    3.5720    8.0210   18.9200 H   0  0  0  0  0  0  0  0  0  0  0  0
    1.4360    9.8250   18.2640 C   0  0  0  0  0  0  0  0  0  0  0  0
    2.3200   10.5260   17.7780 O   0  0  0  0  0  0  0  0  0  0  0  0
    1.6250    8.4900   18.5410 N   0  0  0  0  0  0  0  0  0  0  0  0
    0.8390    7.9210   18.8410 H   0  0  0  0  0  0  0  0  0  0  0  0
   -2.4040   11.5840   19.1710 C   0  0  0  0  0  0  0  0  0  0  0  0
   -1.2580   11.8860   19.9260 C   0  0  0  0  0  0  0  0  0  0  0  0
   -0.0220   11.3060   19.6250 C   0  0  0  0  0  0  0  0  0  0  0  0
    0.0940   10.4030   18.5590 C   0  0  0  0  0  0  0  0  0  0  0  0
   -1.0460   10.1010   17.8080 C   0  0  0  0  0  0  0  0  0  0  0  0
   -0.9840    9.2560   16.7660 F   0  0  0  0  0  0  0  0  0  0  0  0
   -2.2780   10.6800   18.1060 C   0  0  0  0  0  0  0  0  0  0  0  0
   -1.3410   12.5890   20.7570 H   0  0  0  0  0  0  0  0  0  0  0  0
    0.8460   11.5660   20.2260 H   0  0  0  0  0  0  0  0  0  0  0  0
   -3.1490   10.4310   17.5050 H   0  0  0  0  0  0  0  0  0  0  0  0
   -3.7400   13.1490   20.3560 O   0  0  0  0  0  1  0  0  0  0  0  0
   -3.7420   12.2190   19.4920 C   0  0  0  0  0  0  0  0  0  0  0  0
   -4.7560   11.7690   18.8760 O   0  0  0  0  0  0  0  0  0  0  0  0
  1  6  1  6  0  0  0
  1 24  1  0  0  0  0
  1  5  1  0  0  0  0
  1  2  1  0  0  0  0
  2  8  1  0  0  0  0
  2  3  1  0  0  0  0
  3  9  1  0  0  0  0
  3 10  1  0  0  0  0
  4 12  1  0  0  0  0
  4  3  1  0  0  0  0
  5  4  1  0  0  0  0
  7  2  1  0  0  0  0
 11  4  1  0  0  0  0
 13  5  1  0  0  0  0
 14 13  2  0  0  0  0
 15 16  2  0  0  0  0
 15 14  1  0  0  0  0
 16 17  1  0  0  0  0
 17 22  1  0  0  0  0
 17 18  2  0  0  0  0
 18 13  1  0  0  0  0
 18 23  1  0  0  0  0
 19 14  1  0  0  0  0
 20 15  1  0  0  0  0
 21 16  1  0  0  0  0
 24 29  1  0  0  0  0
 24 26  1  0  0  0  0
 25 24  1  0  0  0  0
 27 29  1  0  0  0  0
 27 34  1  0  0  0  0
 28 27  2  0  0  0  0
 29 30  1  0  0  0  0
 31 42  1  0  0  0  0
 31 32  1  0  0  0  0
 32 38  1  0  0  0  0
 33 32  2  0  0  0  0
 33 39  1  0  0  0  0
 34 33  1  0  0  0  0
 35 37  1  0  0  0  0
 35 34  2  0  0  0  0
 36 35  1  0  0  0  0
 37 31  2  0  0  0  0
 40 37  1  0  0  0  0
 42 41  1  0  0  0  0
 43 42  2  0  0  0  0
M  END
>  <MODEL>
28

>  <REMARK>
 VINA RESULT:    -7.054      5.064      8.715
 INTER + INTRA:          -9.619
 INTER:                  -8.888
 INTRA:                  -0.731
 UNBOUND:                -0.503
  Name = 
  5 active torsions:
  status: ('A' for Active; 'I' for Inactive)
    1  A    between atoms: C_2  and  C_4
    2  A    between atoms: C_7  and  C_8
    3  A    between atoms: N_10  and  C_11
    4  A    between atoms: C_11  and  C_12
    5  A    between atoms: N_16  and  C_17
                            x       y       z     vdW  Elec       q    Type
                         _______ _______ _______ _____ _____    ______ ____

>  <TORSDO>
F 5

$$$$
=
 OpenBabel07192307433D

 43 45  0  0  1  0  0  0  0  0999 V2000
   -1.1010   10.3540   18.7340 C   0  0  2  0  0  0  0  0  0  0  0  0
   -1.7910    9.9070   17.4370 C   0  0  0  0  0  0  0  0  0  0  0  0
   -2.4600   11.1590   16.9040 C   0  0  0  0  0  0  0  0  0  0  0  0
   -2.8770   11.9090   18.1620 C   0  0  0  0  0  0  0  0  0  0  0  0
   -1.9060   11.5080   19.1860 N   0  0  0  0  0  0  0  0  0  0  0  0
   -1.1600    9.5170   19.4410 H   0  0  0  0  0  0  0  0  0  0  0  0
   -2.5650    9.1640   17.6760 H   0  0  0  0  0  0  0  0  0  0  0  0
   -1.1090    9.4490   16.7140 H   0  0  0  0  0  0  0  0  0  0  0  0
   -3.3130   10.9350   16.2560 H   0  0  0  0  0  0  0  0  0  0  0  0
   -1.7560   11.7580   16.3180 H   0  0  0  0  0  0  0  0  0  0  0  0
   -3.8880   11.6040   18.4580 H   0  0  0  0  0  0  0  0  0  0  0  0
   -2.8640   12.9880   17.9790 H   0  0  0  0  0  0  0  0  0  0  0  0
   -2.0200   11.9200   20.5000 C   0  0  0  0  0  0  0  0  0  0  0  0
   -3.0690   12.7410   20.9450 C   0  0  0  0  0  0  0  0  0  0  0  0
   -3.1880   13.1450   22.2820 C   0  0  0  0  0  0  0  0  0  0  0  0
   -2.2550   12.7290   23.2230 C   0  0  0  0  0  0  0  0  0  0  0  0
   -1.2100   11.9090   22.8230 C   0  0  0  0  0  0  0  0  0  0  0  0
   -1.1010   11.5130   21.4830 C   0  0  0  0  0  0  0  0  0  0  0  0
   -3.8310   13.0930   20.2570 H   0  0  0  0  0  0  0  0  0  0  0  0
   -4.0170   13.7800   22.5820 H   0  0  0  0  0  0  0  0  0  0  0  0
   -2.3470   13.0360   24.2610 H   0  0  0  0  0  0  0  0  0  0  0  0
   -0.4770   11.5640   23.5460 H   0  0  0  0  0  0  0  0  0  0  0  0
   -0.2750   10.8560   21.2270 H   0  0  0  0  0  0  0  0  0  0  0  0
    0.3860   10.7350   18.5400 C   0  0  0  0  0  0  0  0  0  0  0  0
    0.7290   11.3340   19.3900 H   0  0  0  0  0  0  0  0  0  0  0  0
    0.4970   11.3510   17.6420 H   0  0  0  0  0  0  0  0  0  0  0  0
    1.5900    8.7180   19.3480 C   0  0  0  0  0  0  0  0  0  0  0  0
    1.2580    8.9060   20.5170 O   0  0  0  0  0  0  0  0  0  0  0  0
    1.2600    9.5950   18.3410 N   0  0  0  0  0  0  0  0  0  0  0  0
    1.4590    9.3520   17.3750 H   0  0  0  0  0  0  0  0  0  0  0  0
    3.8940    5.2480   18.2020 C   0  0  0  0  0  0  0  0  0  0  0  0
    3.9510    6.4450   17.4680 C   0  0  0  0  0  0  0  0  0  0  0  0
    3.1960    7.5590   17.8480 C   0  0  0  0  0  0  0  0  0  0  0  0
    2.3610    7.4990   18.9720 C   0  0  0  0  0  0  0  0  0  0  0  0
    2.3030    6.3080   19.7010 C   0  0  0  0  0  0  0  0  0  0  0  0
    1.5320    6.2030   20.7960 F   0  0  0  0  0  0  0  0  0  0  0  0
    3.0560    5.1970   19.3250 C   0  0  0  0  0  0  0  0  0  0  0  0
    4.6000    6.5000   16.5930 H   0  0  0  0  0  0  0  0  0  0  0  0
    3.2670    8.4720   17.2610 H   0  0  0  0  0  0  0  0  0  0  0  0
    2.9960    4.2830   19.9110 H   0  0  0  0  0  0  0  0  0  0  0  0
    5.9240    4.2610   17.4630 O   0  0  0  0  0  0  0  0  0  0  0  0
    4.7180    4.0430   17.7960 C   0  0  0  0  0  0  0  0  0  0  0  0
    4.1370    2.9140   17.8170 O   0  0  0  0  0  1  0  0  0  0  0  0
  1  5  1  0  0  0  0
  1  6  1  1  0  0  0
  2  7  1  0  0  0  0
  2  1  1  0  0  0  0
  3  2  1  0  0  0  0
  3  4  1  0  0  0  0
  4 11  1  0  0  0  0
  4  5  1  0  0  0  0
  5 13  1  0  0  0  0
  8  2  1  0  0  0  0
  9  3  1  0  0  0  0
 10  3  1  0  0  0  0
 12  4  1  0  0  0  0
 13 14  2  0  0  0  0
 13 18  1  0  0  0  0
 14 15  1  0  0  0  0
 15 20  1  0  0  0  0
 15 16  2  0  0  0  0
 16 21  1  0  0  0  0
 17 16  1  0  0  0  0
 17 22  1  0  0  0  0
 18 17  2  0  0  0  0
 19 14  1  0  0  0  0
 23 18  1  0  0  0  0
 24  1  1  0  0  0  0
 24 25  1  0  0  0  0
 26 24  1  0  0  0  0
 27 28  2  0  0  0  0
 29 24  1  0  0  0  0
 29 27  1  0  0  0  0
 30 29  1  0  0  0  0
 31 37  1  0  0  0  0
 32 33  1  0  0  0  0
 32 31  2  0  0  0  0
 33 34  2  0  0  0  0
 34 27  1  0  0  0  0
 34 35  1  0  0  0  0
 35 36  1  0  0  0  0
 37 35  2  0  0  0  0
 37 40  1  0  0  0  0
 38 32  1  0  0  0  0
 39 33  1  0  0  0  0
 41 42  2  0  0  0  0
 42 43  1  0  0  0  0
 42 31  1  0  0  0  0
M  END
>  <MODEL>
29

>  <REMARK>
 VINA RESULT:    -6.958      4.731      7.029
 INTER + INTRA:          -9.495
 INTER:                  -9.116
 INTRA:                  -0.379
 UNBOUND:                -0.503
  Name = 
  5 active torsions:
  status: ('A' for Active; 'I' for Inactive)
    1  A    between atoms: C_2  and  C_4
    2  A    between atoms: C_7  and  C_8
    3  A    between atoms: N_10  and  C_11
    4  A    between atoms: C_11  and  C_12
    5  A    between atoms: N_16  and  C_17
                            x       y       z     vdW  Elec       q    Type
                         _______ _______ _______ _____ _____    ______ ____

>  <TORSDO>
F 5

$$$$
=
 OpenBabel07192307433D

 43 45  0  0  1  0  0  0  0  0999 V2000
   -0.7820    9.7800   18.2280 C   0  0  2  0  0  0  0  0  0  0  0  0
   -1.6840   10.3910   17.1460 C   0  0  0  0  0  0  0  0  0  0  0  0
   -1.6420   11.8850   17.4060 C   0  0  0  0  0  0  0  0  0  0  0  0
   -1.5320   11.9840   18.9220 C   0  0  0  0  0  0  0  0  0  0  0  0
   -0.8450   10.7560   19.3370 N   0  0  0  0  0  0  0  0  0  0  0  0
   -1.2210    8.8150   18.5130 H   0  0  0  0  0  0  0  0  0  0  0  0
   -2.7130   10.0340   17.2900 H   0  0  0  0  0  0  0  0  0  0  0  0
   -1.3840   10.1280   16.1280 H   0  0  0  0  0  0  0  0  0  0  0  0
   -2.5270   12.4020   17.0230 H   0  0  0  0  0  0  0  0  0  0  0  0
   -0.7680   12.3390   16.9300 H   0  0  0  0  0  0  0  0  0  0  0  0
   -2.5330   12.0260   19.3660 H   0  0  0  0  0  0  0  0  0  0  0  0
   -0.9740   12.8840   19.2010 H   0  0  0  0  0  0  0  0  0  0  0  0
   -0.6470   10.4460   20.6690 C   0  0  0  0  0  0  0  0  0  0  0  0
   -1.1000   11.2700   21.7120 C   0  0  0  0  0  0  0  0  0  0  0  0
   -0.9090   10.9440   23.0620 C   0  0  0  0  0  0  0  0  0  0  0  0
   -0.2570    9.7690   23.4100 C   0  0  0  0  0  0  0  0  0  0  0  0
    0.1970    8.9230   22.4080 C   0  0  0  0  0  0  0  0  0  0  0  0
    0.0010    9.2610   21.0620 C   0  0  0  0  0  0  0  0  0  0  0  0
   -1.6210   12.1980   21.5010 H   0  0  0  0  0  0  0  0  0  0  0  0
   -1.2770   11.6120   23.8350 H   0  0  0  0  0  0  0  0  0  0  0  0
   -0.1110    9.5100   24.4550 H   0  0  0  0  0  0  0  0  0  0  0  0
    0.6990    7.9940   22.6610 H   0  0  0  0  0  0  0  0  0  0  0  0
    0.3590    8.5560   20.3180 H   0  0  0  0  0  0  0  0  0  0  0  0
    0.6720    9.5440   17.7570 C   0  0  0  0  0  0  0  0  0  0  0  0
    1.3450   10.2430   18.2650 H   0  0  0  0  0  0  0  0  0  0  0  0
    0.7510    9.7390   16.6820 H   0  0  0  0  0  0  0  0  0  0  0  0
    2.4630    7.8390   18.0030 C   0  0  0  0  0  0  0  0  0  0  0  0
    3.3590    8.6530   17.7920 O   0  0  0  0  0  0  0  0  0  0  0  0
    1.1310    8.1810   17.9400 N   0  0  0  0  0  0  0  0  0  0  0  0
    0.4240    7.5090   18.2250 H   0  0  0  0  0  0  0  0  0  0  0  0
    3.5080    3.7600   18.9680 C   0  0  0  0  0  0  0  0  0  0  0  0
    3.9240    4.3630   17.7690 C   0  0  0  0  0  0  0  0  0  0  0  0
    3.5740    5.6830   17.4670 C   0  0  0  0  0  0  0  0  0  0  0  0
    2.7940    6.4300   18.3590 C   0  0  0  0  0  0  0  0  0  0  0  0
    2.3780    5.8300   19.5510 C   0  0  0  0  0  0  0  0  0  0  0  0
    1.6430    6.5090   20.4480 F   0  0  0  0  0  0  0  0  0  0  0  0
    2.7270    4.5160   19.8550 C   0  0  0  0  0  0  0  0  0  0  0  0
    4.5330    3.7880   17.0700 H   0  0  0  0  0  0  0  0  0  0  0  0
    3.9180    6.1210   16.5330 H   0  0  0  0  0  0  0  0  0  0  0  0
    2.3940    4.0730   20.7900 H   0  0  0  0  0  0  0  0  0  0  0  0
    3.4720    1.4300   18.5120 O   0  0  0  0  0  0  0  0  0  0  0  0
    3.8930    2.3330   19.3000 C   0  0  0  0  0  0  0  0  0  0  0  0
    4.6000    2.1530   20.3380 O   0  0  0  0  0  1  0  0  0  0  0  0
  1  6  1  1  0  0  0
  1  5  1  0  0  0  0
  2  7  1  0  0  0  0
  2  3  1  0  0  0  0
  2  1  1  0  0  0  0
  3  4  1  0  0  0  0
  4 12  1  0  0  0  0
  4  5  1  0  0  0  0
  4 11  1  0  0  0  0
  5 13  1  0  0  0  0
  8  2  1  0  0  0  0
  9  3  1  0  0  0  0
 10  3  1  0  0  0  0
 13 18  2  0  0  0  0
 13 14  1  0  0  0  0
 14 15  2  0  0  0  0
 15 16  1  0  0  0  0
 15 20  1  0  0  0  0
 16 21  1  0  0  0  0
 17 22  1  0  0  0  0
 17 16  2  0  0  0  0
 18 17  1  0  0  0  0
 19 14  1  0  0  0  0
 23 18  1  0  0  0  0
 24 29  1  0  0  0  0
 24  1  1  0  0  0  0
 24 25  1  0  0  0  0
 26 24  1  0  0  0  0
 27 34  1  0  0  0  0
 28 27  2  0  0  0  0
 29 27  1  0  0  0  0
 29 30  1  0  0  0  0
 31 42  1  0  0  0  0
 31 37  1  0  0  0  0
 32 31  2  0  0  0  0
 33 32  1  0  0  0  0
 33 34  2  0  0  0  0
 34 35  1  0  0  0  0
 35 37  2  0  0  0  0
 35 36  1  0  0  0  0
 37 40  1  0  0  0  0
 38 32  1  0  0  0  0
 39 33  1  0  0  0  0
 41 42  2  0  0  0  0
 42 43  1  0  0  0  0
M  END
>  <MODEL>
30

>  <REMARK>
 VINA RESULT:    -6.903      3.848      6.549
 INTER + INTRA:          -9.424
 INTER:                  -8.729
 INTRA:                  -0.696
 UNBOUND:                -0.503
  Name = 
  5 active torsions:
  status: ('A' for Active; 'I' for Inactive)
    1  A    between atoms: C_2  and  C_4
    2  A    between atoms: C_7  and  C_8
    3  A    between atoms: N_10  and  C_11
    4  A    between atoms: C_11  and  C_12
    5  A    between atoms: N_16  and  C_17
                            x       y       z     vdW  Elec       q    Type
                         _______ _______ _______ _____ _____    ______ ____

>  <TORSDO>
F 5

$$$$
=
 OpenBabel07192307433D

 43 45  0  0  1  0  0  0  0  0999 V2000
    0.8960   11.3220   19.2710 C   0  0  2  0  0  0  0  0  0  0  0  0
   -0.6270   11.1540   19.3810 C   0  0  0  0  0  0  0  0  0  0  0  0
   -1.1990   12.2010   18.4440 C   0  0  0  0  0  0  0  0  0  0  0  0
   -0.2160   13.3590   18.5520 C   0  0  0  0  0  0  0  0  0  0  0  0
    1.0710   12.7380   18.8840 N   0  0  0  0  0  0  0  0  0  0  0  0
    1.3200   11.1180   20.2620 H   0  0  0  0  0  0  0  0  0  0  0  0
   -0.9420   11.3860   20.4080 H   0  0  0  0  0  0  0  0  0  0  0  0
   -0.9720   10.1430   19.1510 H   0  0  0  0  0  0  0  0  0  0  0  0
   -2.2170   12.4970   18.7190 H   0  0  0  0  0  0  0  0  0  0  0  0
   -1.2360   11.8260   17.4170 H   0  0  0  0  0  0  0  0  0  0  0  0
   -0.5280   14.0380   19.3550 H   0  0  0  0  0  0  0  0  0  0  0  0
   -0.1790   13.9100   17.6070 H   0  0  0  0  0  0  0  0  0  0  0  0
    2.1960   13.4930   19.1550 C   0  0  0  0  0  0  0  0  0  0  0  0
    2.6450   13.7360   20.4630 C   0  0  0  0  0  0  0  0  0  0  0  0
    3.7950   14.4910   20.7330 C   0  0  0  0  0  0  0  0  0  0  0  0
    4.5400   15.0240   19.6900 C   0  0  0  0  0  0  0  0  0  0  0  0
    4.1340   14.7970   18.3820 C   0  0  0  0  0  0  0  0  0  0  0  0
    2.9820   14.0420   18.1260 C   0  0  0  0  0  0  0  0  0  0  0  0
    2.1070   13.3410   21.3190 H   0  0  0  0  0  0  0  0  0  0  0  0
    4.1050   14.6530   21.7610 H   0  0  0  0  0  0  0  0  0  0  0  0
    5.4350   15.6060   19.8940 H   0  0  0  0  0  0  0  0  0  0  0  0
    4.7110   15.1960   17.5520 H   0  0  0  0  0  0  0  0  0  0  0  0
    2.7190   13.8790   17.0850 H   0  0  0  0  0  0  0  0  0  0  0  0
    1.5480   10.3650   18.2450 C   0  0  0  0  0  0  0  0  0  0  0  0
    2.6050   10.6200   18.1200 H   0  0  0  0  0  0  0  0  0  0  0  0
    1.0670   10.4830   17.2680 H   0  0  0  0  0  0  0  0  0  0  0  0
    2.3840    8.0270   18.3390 C   0  0  0  0  0  0  0  0  0  0  0  0
    3.4060    8.2970   17.7120 O   0  0  0  0  0  0  0  0  0  0  0  0
    1.4040    8.9620   18.5830 N   0  0  0  0  0  0  0  0  0  0  0  0
    0.6270    8.7300   19.1950 H   0  0  0  0  0  0  0  0  0  0  0  0
    1.8430    4.0140   19.8410 C   0  0  0  0  0  0  0  0  0  0  0  0
    2.2070    4.2570   18.5060 C   0  0  0  0  0  0  0  0  0  0  0  0
    2.3740    5.5620   18.0320 C   0  0  0  0  0  0  0  0  0  0  0  0
    2.1760    6.6560   18.8850 C   0  0  0  0  0  0  0  0  0  0  0  0
    1.8130    6.4140   20.2130 C   0  0  0  0  0  0  0  0  0  0  0  0
    1.6280    7.4270   21.0760 F   0  0  0  0  0  0  0  0  0  0  0  0
    1.6470    5.1140   20.6880 C   0  0  0  0  0  0  0  0  0  0  0  0
    2.3640    3.4110   17.8360 H   0  0  0  0  0  0  0  0  0  0  0  0
    2.6610    5.7160   16.9940 H   0  0  0  0  0  0  0  0  0  0  0  0
    1.3680    4.9520   21.7260 H   0  0  0  0  0  0  0  0  0  0  0  0
    1.4160    2.4710   21.5960 O   0  0  0  0  0  1  0  0  0  0  0  0
    1.6700    2.6000   20.3580 C   0  0  0  0  0  0  0  0  0  0  0  0
    1.7950    1.6590   19.5160 O   0  0  0  0  0  0  0  0  0  0  0  0
  1  2  1  0  0  0  0
  1  6  1  1  0  0  0
  2  7  1  0  0  0  0
  3  4  1  0  0  0  0
  3  9  1  0  0  0  0
  3  2  1  0  0  0  0
  4  5  1  0  0  0  0
  4 11  1  0  0  0  0
  5 13  1  0  0  0  0
  5  1  1  0  0  0  0
  8  2  1  0  0  0  0
 10  3  1  0  0  0  0
 12  4  1  0  0  0  0
 13 14  1  0  0  0  0
 14 15  2  0  0  0  0
 14 19  1  0  0  0  0
 15 20  1  0  0  0  0
 16 21  1  0  0  0  0
 16 15  1  0  0  0  0
 17 16  2  0  0  0  0
 18 17  1  0  0  0  0
 18 13  2  0  0  0  0
 22 17  1  0  0  0  0
 23 18  1  0  0  0  0
 24 29  1  0  0  0  0
 24  1  1  0  0  0  0
 25 24  1  0  0  0  0
 26 24  1  0  0  0  0
 27 29  1  0  0  0  0
 27 34  1  0  0  0  0
 28 27  2  0  0  0  0
 29 30  1  0  0  0  0
 31 42  1  0  0  0  0
 31 37  1  0  0  0  0
 32 31  2  0  0  0  0
 33 32  1  0  0  0  0
 33 34  2  0  0  0  0
 34 35  1  0  0  0  0
 35 37  2  0  0  0  0
 35 36  1  0  0  0  0
 37 40  1  0  0  0  0
 38 32  1  0  0  0  0
 39 33  1  0  0  0  0
 42 41  1  0  0  0  0
 43 42  2  0  0  0  0
M  END
>  <MODEL>
31

>  <REMARK>
 VINA RESULT:    -6.891      4.675      7.789
 INTER + INTRA:          -9.409
 INTER:                  -8.811
 INTRA:                  -0.597
 UNBOUND:                -0.503
  Name = 
  5 active torsions:
  status: ('A' for Active; 'I' for Inactive)
    1  A    between atoms: C_2  and  C_4
    2  A    between atoms: C_7  and  C_8
    3  A    between atoms: N_10  and  C_11
    4  A    between atoms: C_11  and  C_12
    5  A    between atoms: N_16  and  C_17
                            x       y       z     vdW  Elec       q    Type
                         _______ _______ _______ _____ _____    ______ ____

>  <TORSDO>
F 5

$$$$
=
 OpenBabel07192307433D

 43 45  0  0  1  0  0  0  0  0999 V2000
   -0.7970   10.1490   18.8600 C   0  0  2  0  0  0  0  0  0  0  0  0
   -1.5560    9.7460   17.5870 C   0  0  0  0  0  0  0  0  0  0  0  0
   -2.0260   11.0570   16.9860 C   0  0  0  0  0  0  0  0  0  0  0  0
   -2.3150   11.9280   18.2020 C   0  0  0  0  0  0  0  0  0  0  0  0
   -1.4120   11.4370   19.2480 N   0  0  0  0  0  0  0  0  0  0  0  0
   -0.9820    9.3700   19.6110 H   0  0  0  0  0  0  0  0  0  0  0  0
   -2.4340    9.1470   17.8640 H   0  0  0  0  0  0  0  0  0  0  0  0
   -0.9570    9.1510   16.8920 H   0  0  0  0  0  0  0  0  0  0  0  0
   -2.9070   10.9340   16.3490 H   0  0  0  0  0  0  0  0  0  0  0  0
   -1.2410   11.5090   16.3720 H   0  0  0  0  0  0  0  0  0  0  0  0
   -3.3590   11.8000   18.5110 H   0  0  0  0  0  0  0  0  0  0  0  0
   -2.1360   12.9810   17.9620 H   0  0  0  0  0  0  0  0  0  0  0  0
   -1.4530   11.9300   20.5380 C   0  0  0  0  0  0  0  0  0  0  0  0
   -1.0730   11.1630   21.6520 C   0  0  0  0  0  0  0  0  0  0  0  0
   -1.1040   11.6730   22.9580 C   0  0  0  0  0  0  0  0  0  0  0  0
   -1.5130   12.9790   23.1880 C   0  0  0  0  0  0  0  0  0  0  0  0
   -1.8870   13.7710   22.1110 C   0  0  0  0  0  0  0  0  0  0  0  0
   -1.8540   13.2500   20.8110 C   0  0  0  0  0  0  0  0  0  0  0  0
   -0.7390   10.1380   21.5340 H   0  0  0  0  0  0  0  0  0  0  0  0
   -0.8000   11.0430   23.7890 H   0  0  0  0  0  0  0  0  0  0  0  0
   -1.5330   13.3800   24.1970 H   0  0  0  0  0  0  0  0  0  0  0  0
   -2.1990   14.8000   22.2700 H   0  0  0  0  0  0  0  0  0  0  0  0
   -2.1380   13.9180   20.0030 H   0  0  0  0  0  0  0  0  0  0  0  0
    0.7290   10.2850   18.6500 C   0  0  0  0  0  0  0  0  0  0  0  0
    1.1560   10.9190   19.4340 H   0  0  0  0  0  0  0  0  0  0  0  0
    0.9310   10.7730   17.6910 H   0  0  0  0  0  0  0  0  0  0  0  0
    1.7340    8.2770   19.7150 C   0  0  0  0  0  0  0  0  0  0  0  0
    1.5410    8.7010   20.8520 O   0  0  0  0  0  0  0  0  0  0  0  0
    1.4260    9.0140   18.5940 N   0  0  0  0  0  0  0  0  0  0  0  0
    1.5000    8.5890   17.6750 H   0  0  0  0  0  0  0  0  0  0  0  0
    3.2960    4.2880   19.1660 C   0  0  0  0  0  0  0  0  0  0  0  0
    2.4240    4.5980   20.2220 C   0  0  0  0  0  0  0  0  0  0  0  0
    1.9290    5.8950   20.3910 C   0  0  0  0  0  0  0  0  0  0  0  0
    2.3010    6.9150   19.5060 C   0  0  0  0  0  0  0  0  0  0  0  0
    3.1700    6.6070   18.4550 C   0  0  0  0  0  0  0  0  0  0  0  0
    3.5440    7.5440   17.5680 F   0  0  0  0  0  0  0  0  0  0  0  0
    3.6630    5.3150   18.2840 C   0  0  0  0  0  0  0  0  0  0  0  0
    2.1290    3.8080   20.9150 H   0  0  0  0  0  0  0  0  0  0  0  0
    1.2510    6.1000   21.2170 H   0  0  0  0  0  0  0  0  0  0  0  0
    4.3350    5.1000   17.4570 H   0  0  0  0  0  0  0  0  0  0  0  0
    3.6310    2.3430   17.8430 O   0  0  0  0  0  0  0  0  0  0  0  0
    3.8270    2.8810   18.9770 C   0  0  0  0  0  0  0  0  0  0  0  0
    4.4200    2.3510   19.9660 O   0  0  0  0  0  1  0  0  0  0  0  0
  1  5  1  0  0  0  0
  1  6  1  1  0  0  0
  2  7  1  0  0  0  0
  2  1  1  0  0  0  0
  3  2  1  0  0  0  0
  3  4  1  0  0  0  0
  4 11  1  0  0  0  0
  4  5  1  0  0  0  0
  5 13  1  0  0  0  0
  8  2  1  0  0  0  0
  9  3  1  0  0  0  0
 10  3  1  0  0  0  0
 12  4  1  0  0  0  0
 13 18  2  0  0  0  0
 13 14  1  0  0  0  0
 14 15  2  0  0  0  0
 15 16  1  0  0  0  0
 15 20  1  0  0  0  0
 16 21  1  0  0  0  0
 17 22  1  0  0  0  0
 17 16  2  0  0  0  0
 18 17  1  0  0  0  0
 19 14  1  0  0  0  0
 23 18  1  0  0  0  0
 24  1  1  0  0  0  0
 24 25  1  0  0  0  0
 26 24  1  0  0  0  0
 27 28  2  0  0  0  0
 29 24  1  0  0  0  0
 29 27  1  0  0  0  0
 30 29  1  0  0  0  0
 31 32  1  0  0  0  0
 32 33  2  0  0  0  0
 32 38  1  0  0  0  0
 33 39  1  0  0  0  0
 34 27  1  0  0  0  0
 34 33  1  0  0  0  0
 35 34  2  0  0  0  0
 36 35  1  0  0  0  0
 37 35  1  0  0  0  0
 37 31  2  0  0  0  0
 40 37  1  0  0  0  0
 41 42  2  0  0  0  0
 42 31  1  0  0  0  0
 42 43  1  0  0  0  0
M  END
>  <MODEL>
32

>  <REMARK>
 VINA RESULT:    -6.839      4.431      7.013
 INTER + INTRA:          -9.341
 INTER:                  -8.875
 INTRA:                  -0.466
 UNBOUND:                -0.503
  Name = 
  5 active torsions:
  status: ('A' for Active; 'I' for Inactive)
    1  A    between atoms: C_2  and  C_4
    2  A    between atoms: C_7  and  C_8
    3  A    between atoms: N_10  and  C_11
    4  A    between atoms: C_11  and  C_12
    5  A    between atoms: N_16  and  C_17
                            x       y       z     vdW  Elec       q    Type
                         _______ _______ _______ _____ _____    ______ ____

>  <TORSDO>
F 5

$$$$
=
 OpenBabel07192307433D

 43 45  0  0  1  0  0  0  0  0999 V2000
    1.9190    5.0650   19.8410 C   0  0  2  0  0  0  0  0  0  0  0  0
    0.8470    4.1230   20.4080 C   0  0  0  0  0  0  0  0  0  0  0  0
    1.6270    3.0450   21.1370 C   0  0  0  0  0  0  0  0  0  0  0  0
    2.8900    2.8870   20.3020 C   0  0  0  0  0  0  0  0  0  0  0  0
    3.1070    4.1990   19.6820 N   0  0  0  0  0  0  0  0  0  0  0  0
    1.5540    5.4320   18.8740 H   0  0  0  0  0  0  0  0  0  0  0  0
    0.2950    3.6630   19.5780 H   0  0  0  0  0  0  0  0  0  0  0  0
    0.1180    4.6270   21.0490 H   0  0  0  0  0  0  0  0  0  0  0  0
    1.0680    2.1080   21.2200 H   0  0  0  0  0  0  0  0  0  0  0  0
    1.8780    3.3640   22.1530 H   0  0  0  0  0  0  0  0  0  0  0  0
    2.7330    2.1240   19.5300 H   0  0  0  0  0  0  0  0  0  0  0  0
    3.7280    2.5870   20.9400 H   0  0  0  0  0  0  0  0  0  0  0  0
    4.1210    4.4160   18.7700 C   0  0  0  0  0  0  0  0  0  0  0  0
    5.3570    4.9760   19.1340 C   0  0  0  0  0  0  0  0  0  0  0  0
    6.3880    5.1820   18.2070 C   0  0  0  0  0  0  0  0  0  0  0  0
    6.2130    4.8240   16.8770 C   0  0  0  0  0  0  0  0  0  0  0  0
    5.0090    4.2580   16.4810 C   0  0  0  0  0  0  0  0  0  0  0  0
    3.9850    4.0590   17.4170 C   0  0  0  0  0  0  0  0  0  0  0  0
    5.5530    5.2710   20.1590 H   0  0  0  0  0  0  0  0  0  0  0  0
    7.3270    5.6180   18.5340 H   0  0  0  0  0  0  0  0  0  0  0  0
    7.0110    4.9770   16.1570 H   0  0  0  0  0  0  0  0  0  0  0  0
    4.8580    3.9600   15.4470 H   0  0  0  0  0  0  0  0  0  0  0  0
    3.0710    3.5950   17.0580 H   0  0  0  0  0  0  0  0  0  0  0  0
    2.2160    6.2790   20.7530 C   0  0  0  0  0  0  0  0  0  0  0  0
    3.2310    6.6450   20.5650 H   0  0  0  0  0  0  0  0  0  0  0  0
    2.1680    5.9760   21.8040 H   0  0  0  0  0  0  0  0  0  0  0  0
    1.2890    8.4930   21.3950 C   0  0  0  0  0  0  0  0  0  0  0  0
    2.0620    8.6170   22.3430 O   0  0  0  0  0  0  0  0  0  0  0  0
    1.2590    7.3600   20.6160 N   0  0  0  0  0  0  0  0  0  0  0  0
    0.6820    7.3390   19.7790 H   0  0  0  0  0  0  0  0  0  0  0  0
   -1.4160   11.7300   20.4670 C   0  0  0  0  0  0  0  0  0  0  0  0
   -1.1800   11.3250   21.7920 C   0  0  0  0  0  0  0  0  0  0  0  0
   -0.3050   10.2720   22.0780 C   0  0  0  0  0  0  0  0  0  0  0  0
    0.3510    9.5960   21.0400 C   0  0  0  0  0  0  0  0  0  0  0  0
    0.1150    9.9980   19.7230 C   0  0  0  0  0  0  0  0  0  0  0  0
    0.7330    9.3950   18.6940 F   0  0  0  0  0  0  0  0  0  0  0  0
   -0.7550   11.0480   19.4360 C   0  0  0  0  0  0  0  0  0  0  0  0
   -1.6870   11.8470   22.6040 H   0  0  0  0  0  0  0  0  0  0  0  0
   -0.1400    9.9870   23.1140 H   0  0  0  0  0  0  0  0  0  0  0  0
   -0.9190   11.3440   18.4020 H   0  0  0  0  0  0  0  0  0  0  0  0
   -3.5590   12.5700   19.8770 O   0  0  0  0  0  0  0  0  0  0  0  0
   -2.3580   12.8760   20.1570 C   0  0  0  0  0  0  0  0  0  0  0  0
   -1.8720   14.0480   20.1970 O   0  0  0  0  0  1  0  0  0  0  0  0
  1  6  1  6  0  0  0
  1  2  1  0  0  0  0
  1 24  1  0  0  0  0
  2  8  1  0  0  0  0
  2  3  1  0  0  0  0
  3  9  1  0  0  0  0
  3 10  1  0  0  0  0
  4 12  1  0  0  0  0
  4  3  1  0  0  0  0
  5  1  1  0  0  0  0
  5  4  1  0  0  0  0
  7  2  1  0  0  0  0
 11  4  1  0  0  0  0
 13 14  1  0  0  0  0
 13  5  1  0  0  0  0
 14 19  1  0  0  0  0
 15 20  1  0  0  0  0
 15 14  2  0  0  0  0
 16 15  1  0  0  0  0
 17 16  2  0  0  0  0
 17 18  1  0  0  0  0
 18 13  2  0  0  0  0
 21 16  1  0  0  0  0
 22 17  1  0  0  0  0
 23 18  1  0  0  0  0
 24 26  1  0  0  0  0
 25 24  1  0  0  0  0
 27 28  2  0  0  0  0
 29 24  1  0  0  0  0
 29 27  1  0  0  0  0
 30 29  1  0  0  0  0
 31 32  1  0  0  0  0
 32 33  2  0  0  0  0
 32 38  1  0  0  0  0
 33 39  1  0  0  0  0
 34 27  1  0  0  0  0
 34 33  1  0  0  0  0
 35 34  2  0  0  0  0
 36 35  1  0  0  0  0
 37 35  1  0  0  0  0
 37 31  2  0  0  0  0
 40 37  1  0  0  0  0
 41 42  2  0  0  0  0
 42 43  1  0  0  0  0
 42 31  1  0  0  0  0
M  END
>  <MODEL>
33

>  <REMARK>
 VINA RESULT:    -6.778      4.619      8.286
 INTER + INTRA:          -9.262
 INTER:                  -8.759
 INTRA:                  -0.503
 UNBOUND:                -0.503
  Name = 
  5 active torsions:
  status: ('A' for Active; 'I' for Inactive)
    1  A    between atoms: C_2  and  C_4
    2  A    between atoms: C_7  and  C_8
    3  A    between atoms: N_10  and  C_11
    4  A    between atoms: C_11  and  C_12
    5  A    between atoms: N_16  and  C_17
                            x       y       z     vdW  Elec       q    Type
                         _______ _______ _______ _____ _____    ______ ____

>  <TORSDO>
F 5

$$$$
