=
 OpenBabel07192307433D

 50 53  0  0  1  0  0  0  0  0999 V2000
    1.5040   10.3030   18.7070 C   0  0  0  0  0  0  0  0  0  0  0  0
    2.4040   11.0620   18.3420 O   0  0  0  0  0  0  0  0  0  0  0  0
    0.1960   10.7570   18.8000 N   0  0  0  0  0  0  0  0  0  0  0  0
   -0.1260   12.1470   18.5300 C   0  0  0  0  0  0  0  0  0  0  0  0
   -1.5640   12.3380   19.0190 C   0  0  1  0  0  0  0  0  0  0  0  0
   -2.1820   10.9320   18.8270 C   0  0  2  0  0  0  0  0  0  0  0  0
   -1.0020    9.9840   19.1080 C   0  0  0  0  0  0  0  0  0  0  0  0
   -0.0570   12.2950   17.4460 H   0  0  0  0  0  0  0  0  0  0  0  0
    0.6040   12.8090   19.0050 H   0  0  0  0  0  0  0  0  0  0  0  0
   -2.0730   13.0980   18.4120 H   0  0  0  0  0  0  0  0  0  0  0  0
   -2.9640   10.7250   19.5700 H   0  0  0  0  0  0  0  0  0  0  0  0
   -1.0410    9.0580   18.5280 H   0  0  0  0  0  0  0  0  0  0  0  0
   -0.9600    9.7370   20.1750 H   0  0  0  0  0  0  0  0  0  0  0  0
   -2.8320   10.8000   17.4560 C   0  0  0  0  0  0  0  0  0  0  0  0
   -3.9700   11.5260   17.0710 C   0  0  0  0  0  0  0  0  0  0  0  0
   -4.5350   11.3500   15.8060 C   0  0  0  0  0  0  0  0  0  0  0  0
   -3.9780   10.4420   14.9100 C   0  0  0  0  0  0  0  0  0  0  0  0
   -2.8550    9.7070   15.2770 C   0  0  0  0  0  0  0  0  0  0  0  0
   -2.2890    9.8820   16.5420 C   0  0  0  0  0  0  0  0  0  0  0  0
   -4.4390   12.2360   17.7470 H   0  0  0  0  0  0  0  0  0  0  0  0
   -5.4150   11.9220   15.5220 H   0  0  0  0  0  0  0  0  0  0  0  0
   -4.4190   10.3080   13.9250 H   0  0  0  0  0  0  0  0  0  0  0  0
   -2.4190    8.9960   14.5800 H   0  0  0  0  0  0  0  0  0  0  0  0
   -1.4140    9.2930   16.8090 H   0  0  0  0  0  0  0  0  0  0  0  0
    1.6250    8.3490   20.3100 C   0  0  0  0  0  0  0  0  0  0  0  0
    1.9890    7.0350   20.2460 O   0  0  0  0  0  0  0  0  0  0  0  0
    2.3670    6.8430   18.9420 C   0  0  0  0  0  0  0  0  0  0  0  0
    2.2680    7.9280   18.1990 N   0  0  0  0  0  0  0  0  0  0  0  0
    1.7970    8.9100   19.0580 C   0  0  0  0  0  0  0  0  0  0  0  0
    2.8640    5.4860   18.3940 C   0  0  0  0  0  0  0  0  0  0  0  0
    3.8340    5.2560   17.4060 C   0  0  0  0  0  0  0  0  0  0  0  0
    4.0170    3.9510   17.1770 N   0  0  0  0  0  0  0  0  0  0  0  0
    3.1550    3.3570   18.0270 N   0  0  0  0  0  0  0  0  0  0  0  0
    2.4380    4.2380   18.7820 C   0  0  0  0  0  0  0  0  0  0  0  0
    4.4120    5.9800   16.8460 H   0  0  0  0  0  0  0  0  0  0  0  0
    1.7060    3.9170   19.5090 H   0  0  0  0  0  0  0  0  0  0  0  0
    3.0720    1.9170   18.0590 C   0  0  0  0  0  0  0  0  0  0  0  0
    4.0420    1.5230   18.3730 H   0  0  0  0  0  0  0  0  0  0  0  0
    2.8180    1.5630   17.0570 H   0  0  0  0  0  0  0  0  0  0  0  0
    2.2980    1.6130   18.7690 H   0  0  0  0  0  0  0  0  0  0  0  0
    1.1560    8.8520   21.6150 C   0  0  0  0  0  0  0  0  0  0  0  0
    0.9360    8.0200   22.2910 H   0  0  0  0  0  0  0  0  0  0  0  0
    1.9200    9.4840   22.0780 H   0  0  0  0  0  0  0  0  0  0  0  0
    0.2450    9.4490   21.5060 H   0  0  0  0  0  0  0  0  0  0  0  0
   -1.6400   12.7690   20.4950 C   0  0  0  0  0  0  0  0  0  0  0  0
   -1.3240   13.8110   20.6190 H   0  0  0  0  0  0  0  0  0  0  0  0
   -0.9490   12.1580   21.0850 H   0  0  0  0  0  0  0  0  0  0  0  0
   -2.9710   12.6120   21.0730 N   0  0  0  0  0  0  0  0  0  0  0  0
   -2.9870   11.8200   21.7140 H   0  0  0  0  0  0  0  0  0  0  0  0
   -3.6590   12.4120   20.3470 H   0  0  0  0  0  0  0  0  0  0  0  0
  1  3  1  0  0  0  0
  1 29  1  0  0  0  0
  2  1  2  0  0  0  0
  3  7  1  0  0  0  0
  4  3  1  0  0  0  0
  4  9  1  0  0  0  0
  4  5  1  0  0  0  0
  5 10  1  6  0  0  0
  5 45  1  0  0  0  0
  6  5  1  0  0  0  0
  6  7  1  0  0  0  0
  6 11  1  1  0  0  0
  7 13  1  0  0  0  0
  8  4  1  0  0  0  0
 12  7  1  0  0  0  0
 14  6  1  0  0  0  0
 15 14  1  0  0  0  0
 15 20  1  0  0  0  0
 16 15  2  0  0  0  0
 17 18  2  0  0  0  0
 17 16  1  0  0  0  0
 18 19  1  0  0  0  0
 19 24  1  0  0  0  0
 19 14  2  0  0  0  0
 21 16  1  0  0  0  0
 22 17  1  0  0  0  0
 23 18  1  0  0  0  0
 25 41  1  0  0  0  0
 26 25  1  0  0  0  0
 27 26  1  0  0  0  0
 28 27  2  0  0  0  0
 28 29  1  0  0  0  0
 29 25  2  0  0  0  0
 30 34  2  0  0  0  0
 30 27  1  0  0  0  0
 31 30  1  0  0  0  0
 32 31  2  0  0  0  0
 32 33  1  0  0  0  0
 33 37  1  0  0  0  0
 33 34  1  0  0  0  0
 34 36  1  0  0  0  0
 35 31  1  0  0  0  0
 37 38  1  0  0  0  0
 37 40  1  0  0  0  0
 39 37  1  0  0  0  0
 41 43  1  0  0  0  0
 41 42  1  0  0  0  0
 44 41  1  0  0  0  0
 45 46  1  0  0  0  0
 45 48  1  0  0  0  0
 45 47  1  0  0  0  0
 48 49  1  0  0  0  0
 50 48  1  0  0  0  0
M  END
>  <MODEL>
1

>  <REMARK>
 VINA RESULT:    -6.606      0.000      0.000
 INTER + INTRA:          -9.460
 INTER:                  -8.866
 INTRA:                  -0.594
 UNBOUND:                -0.730
  Name = 
  7 active torsions:
  status: ('A' for Active; 'I' for Inactive)
    1  A    between atoms: C_1  and  C_2
    2  A    between atoms: C_4  and  C_5
    3  A    between atoms: N_8  and  C_9
    4  A    between atoms: C_12  and  C_13
    5  A    between atoms: C_17  and  C_18
    6  A    between atoms: C_18  and  N_19
    7  A    between atoms: C_20  and  C_21
                            x       y       z     vdW  Elec       q    Type
                         _______ _______ _______ _____ _____    ______ ____

>  <TORSDO>
F 7

$$$$
=
 OpenBabel07192307433D

 50 53  0  0  1  0  0  0  0  0999 V2000
    4.2160    4.2430   19.7440 C   0  0  0  0  0  0  0  0  0  0  0  0
    4.3640    3.1670   20.3270 O   0  0  0  0  0  0  0  0  0  0  0  0
    5.2100    4.7320   18.9090 N   0  0  0  0  0  0  0  0  0  0  0  0
    6.4640    4.0190   18.7550 C   0  0  0  0  0  0  0  0  0  0  0  0
    7.4000    4.9860   18.0250 C   0  0  1  0  0  0  0  0  0  0  0  0
    6.4230    5.8360   17.1780 C   0  0  2  0  0  0  0  0  0  0  0  0
    5.1660    5.9200   18.0640 C   0  0  0  0  0  0  0  0  0  0  0  0
    6.2650    3.1310   18.1440 H   0  0  0  0  0  0  0  0  0  0  0  0
    6.8360    3.6800   19.7270 H   0  0  0  0  0  0  0  0  0  0  0  0
    8.1090    4.4290   17.3990 H   0  0  0  0  0  0  0  0  0  0  0  0
    6.7970    6.8580   17.0270 H   0  0  0  0  0  0  0  0  0  0  0  0
    4.2350    5.9720   17.4930 H   0  0  0  0  0  0  0  0  0  0  0  0
    5.2280    6.7900   18.7280 H   0  0  0  0  0  0  0  0  0  0  0  0
    6.2250    5.2320   15.7950 C   0  0  0  0  0  0  0  0  0  0  0  0
    5.0210    4.6440   15.3770 C   0  0  0  0  0  0  0  0  0  0  0  0
    4.9030    4.0870   14.1010 C   0  0  0  0  0  0  0  0  0  0  0  0
    5.9860    4.1020   13.2270 C   0  0  0  0  0  0  0  0  0  0  0  0
    7.1910    4.6730   13.6270 C   0  0  0  0  0  0  0  0  0  0  0  0
    7.3100    5.2300   14.9020 C   0  0  0  0  0  0  0  0  0  0  0  0
    4.1570    4.6040   16.0340 H   0  0  0  0  0  0  0  0  0  0  0  0
    3.9630    3.6380   13.7920 H   0  0  0  0  0  0  0  0  0  0  0  0
    5.8920    3.6690   12.2340 H   0  0  0  0  0  0  0  0  0  0  0  0
    8.0390    4.6840   12.9480 H   0  0  0  0  0  0  0  0  0  0  0  0
    8.2630    5.6670   15.1950 H   0  0  0  0  0  0  0  0  0  0  0  0
    1.7080    4.5210   19.9350 C   0  0  0  0  0  0  0  0  0  0  0  0
    0.8380    5.5510   20.1450 O   0  0  0  0  0  0  0  0  0  0  0  0
    1.6350    6.6590   20.2660 C   0  0  0  0  0  0  0  0  0  0  0  0
    2.9220    6.3990   20.1460 N   0  0  0  0  0  0  0  0  0  0  0  0
    2.9920    5.0310   19.9280 C   0  0  0  0  0  0  0  0  0  0  0  0
    1.0810    8.0800   20.5170 C   0  0  0  0  0  0  0  0  0  0  0  0
    1.1860    9.2080   19.6890 C   0  0  0  0  0  0  0  0  0  0  0  0
    0.5870   10.2790   20.2200 N   0  0  0  0  0  0  0  0  0  0  0  0
    0.1020    9.8210   21.3920 N   0  0  0  0  0  0  0  0  0  0  0  0
    0.3730    8.5020   21.6170 C   0  0  0  0  0  0  0  0  0  0  0  0
    1.6720    9.2950   18.7250 H   0  0  0  0  0  0  0  0  0  0  0  0
    0.0510    7.9890   22.5110 H   0  0  0  0  0  0  0  0  0  0  0  0
   -0.6220   10.7190   22.2580 C   0  0  0  0  0  0  0  0  0  0  0  0
   -0.0720   11.6620   22.3140 H   0  0  0  0  0  0  0  0  0  0  0  0
   -0.6970   10.2590   23.2470 H   0  0  0  0  0  0  0  0  0  0  0  0
   -1.6210   10.8920   21.8500 H   0  0  0  0  0  0  0  0  0  0  0  0
    1.1270    3.1750   19.7720 C   0  0  0  0  0  0  0  0  0  0  0  0
    1.7770    2.5480   19.1540 H   0  0  0  0  0  0  0  0  0  0  0  0
    1.0020    2.6920   20.7450 H   0  0  0  0  0  0  0  0  0  0  0  0
    0.1450    3.2220   19.2900 H   0  0  0  0  0  0  0  0  0  0  0  0
    8.2050    5.8780   18.9870 C   0  0  0  0  0  0  0  0  0  0  0  0
    7.8930    6.9260   18.9090 H   0  0  0  0  0  0  0  0  0  0  0  0
    9.2640    5.8430   18.7110 H   0  0  0  0  0  0  0  0  0  0  0  0
    8.1000    5.4620   20.3820 N   0  0  0  0  0  0  0  0  0  0  0  0
    7.4330    4.6970   20.4740 H   0  0  0  0  0  0  0  0  0  0  0  0
    7.7490    6.2250   20.9600 H   0  0  0  0  0  0  0  0  0  0  0  0
  1 29  1  0  0  0  0
  1  2  2  0  0  0  0
  3  1  1  0  0  0  0
  4  3  1  0  0  0  0
  4  9  1  0  0  0  0
  5 10  1  6  0  0  0
  5  4  1  0  0  0  0
  5 45  1  0  0  0  0
  6 11  1  6  0  0  0
  6  5  1  0  0  0  0
  6  7  1  0  0  0  0
  7 13  1  0  0  0  0
  7  3  1  0  0  0  0
  8  4  1  0  0  0  0
 12  7  1  0  0  0  0
 14  6  1  0  0  0  0
 15 14  1  0  0  0  0
 15 20  1  0  0  0  0
 16 15  2  0  0  0  0
 17 18  2  0  0  0  0
 17 16  1  0  0  0  0
 18 19  1  0  0  0  0
 19 24  1  0  0  0  0
 19 14  2  0  0  0  0
 21 16  1  0  0  0  0
 22 17  1  0  0  0  0
 23 18  1  0  0  0  0
 25 26  1  0  0  0  0
 26 27  1  0  0  0  0
 27 30  1  0  0  0  0
 28 27  2  0  0  0  0
 29 25  2  0  0  0  0
 29 28  1  0  0  0  0
 30 34  2  0  0  0  0
 31 32  2  0  0  0  0
 31 30  1  0  0  0  0
 32 33  1  0  0  0  0
 33 34  1  0  0  0  0
 33 37  1  0  0  0  0
 34 36  1  0  0  0  0
 35 31  1  0  0  0  0
 37 38  1  0  0  0  0
 37 39  1  0  0  0  0
 40 37  1  0  0  0  0
 41 25  1  0  0  0  0
 41 43  1  0  0  0  0
 42 41  1  0  0  0  0
 44 41  1  0  0  0  0
 45 48  1  0  0  0  0
 46 45  1  0  0  0  0
 47 45  1  0  0  0  0
 48 49  1  0  0  0  0
 48 50  1  0  0  0  0
M  END
>  <MODEL>
2

>  <REMARK>
 VINA RESULT:    -6.042      3.743      8.746
 INTER + INTRA:          -8.715
 INTER:                  -8.238
 INTRA:                  -0.477
 UNBOUND:                -0.730
  Name = 
  7 active torsions:
  status: ('A' for Active; 'I' for Inactive)
    1  A    between atoms: C_1  and  C_2
    2  A    between atoms: C_4  and  C_5
    3  A    between atoms: N_8  and  C_9
    4  A    between atoms: C_12  and  C_13
    5  A    between atoms: C_17  and  C_18
    6  A    between atoms: C_18  and  N_19
    7  A    between atoms: C_20  and  C_21
                            x       y       z     vdW  Elec       q    Type
                         _______ _______ _______ _____ _____    ______ ____

>  <TORSDO>
F 7

$$$$
=
 OpenBabel07192307433D

 50 53  0  0  1  0  0  0  0  0999 V2000
    0.3840   10.2370   18.6450 C   0  0  0  0  0  0  0  0  0  0  0  0
   -0.4400   10.1300   17.7350 O   0  0  0  0  0  0  0  0  0  0  0  0
    0.6630   11.4800   19.1970 N   0  0  0  0  0  0  0  0  0  0  0  0
    0.0370   12.6790   18.6720 C   0  0  0  0  0  0  0  0  0  0  0  0
    0.7970   13.8490   19.3040 C   0  0  1  0  0  0  0  0  0  0  0  0
    1.2610   13.2650   20.6600 C   0  0  2  0  0  0  0  0  0  0  0  0
    1.5190   11.7820   20.3370 C   0  0  0  0  0  0  0  0  0  0  0  0
   -1.0100   12.6720   18.9960 H   0  0  0  0  0  0  0  0  0  0  0  0
    0.0490   12.6730   17.5780 H   0  0  0  0  0  0  0  0  0  0  0  0
    0.1280   14.7100   19.4350 H   0  0  0  0  0  0  0  0  0  0  0  0
    2.2090   13.7080   20.9920 H   0  0  0  0  0  0  0  0  0  0  0  0
    1.3180   11.1130   21.1790 H   0  0  0  0  0  0  0  0  0  0  0  0
    2.5550   11.6410   20.0080 H   0  0  0  0  0  0  0  0  0  0  0  0
    0.2400   13.5410   21.7560 C   0  0  0  0  0  0  0  0  0  0  0  0
   -0.6190   12.5590   22.2730 C   0  0  0  0  0  0  0  0  0  0  0  0
   -1.5500   12.8750   23.2650 C   0  0  0  0  0  0  0  0  0  0  0  0
   -1.6430   14.1760   23.7510 C   0  0  0  0  0  0  0  0  0  0  0  0
   -0.8050   15.1660   23.2440 C   0  0  0  0  0  0  0  0  0  0  0  0
    0.1260   14.8510   22.2520 C   0  0  0  0  0  0  0  0  0  0  0  0
   -0.5840   11.5350   21.9120 H   0  0  0  0  0  0  0  0  0  0  0  0
   -2.2070   12.1030   23.6570 H   0  0  0  0  0  0  0  0  0  0  0  0
   -2.3680   14.4200   24.5240 H   0  0  0  0  0  0  0  0  0  0  0  0
   -0.8760   16.1830   23.6190 H   0  0  0  0  0  0  0  0  0  0  0  0
    0.7670   15.6420   21.8670 H   0  0  0  0  0  0  0  0  0  0  0  0
    0.9170    8.5050   20.4100 C   0  0  0  0  0  0  0  0  0  0  0  0
    1.7350    7.4170   20.5170 O   0  0  0  0  0  0  0  0  0  0  0  0
    2.3790    7.3470   19.3080 C   0  0  0  0  0  0  0  0  0  0  0  0
    2.0270    8.3010   18.4670 N   0  0  0  0  0  0  0  0  0  0  0  0
    1.0920    9.0590   19.1560 C   0  0  0  0  0  0  0  0  0  0  0  0
    3.4180    6.2570   18.9620 C   0  0  0  0  0  0  0  0  0  0  0  0
    3.7140    5.0870   19.6770 C   0  0  0  0  0  0  0  0  0  0  0  0
    4.6740    4.3660   19.0880 N   0  0  0  0  0  0  0  0  0  0  0  0
    4.9840    5.0900   17.9930 N   0  0  0  0  0  0  0  0  0  0  0  0
    4.2560    6.2380   17.8720 C   0  0  0  0  0  0  0  0  0  0  0  0
    3.2730    4.7300   20.6000 H   0  0  0  0  0  0  0  0  0  0  0  0
    4.3880    6.9250   17.0490 H   0  0  0  0  0  0  0  0  0  0  0  0
    6.0070    4.6120   17.0940 C   0  0  0  0  0  0  0  0  0  0  0  0
    5.9000    3.5280   16.9970 H   0  0  0  0  0  0  0  0  0  0  0  0
    6.9820    4.8670   17.5150 H   0  0  0  0  0  0  0  0  0  0  0  0
    5.8850    5.0890   16.1180 H   0  0  0  0  0  0  0  0  0  0  0  0
    0.0790    8.8300   21.5790 C   0  0  0  0  0  0  0  0  0  0  0  0
    0.5210    9.6500   22.1530 H   0  0  0  0  0  0  0  0  0  0  0  0
   -0.9230    9.1310   21.2590 H   0  0  0  0  0  0  0  0  0  0  0  0
   -0.0240    7.9680   22.2460 H   0  0  0  0  0  0  0  0  0  0  0  0
    2.0040   14.3000   18.4640 C   0  0  0  0  0  0  0  0  0  0  0  0
    2.8940   14.4380   19.0900 H   0  0  0  0  0  0  0  0  0  0  0  0
    1.7860   15.2720   18.0090 H   0  0  0  0  0  0  0  0  0  0  0  0
    2.3330   13.3730   17.3850 N   0  0  0  0  0  0  0  0  0  0  0  0
    2.4950   12.4390   17.7580 H   0  0  0  0  0  0  0  0  0  0  0  0
    3.1950   13.6540   16.9180 H   0  0  0  0  0  0  0  0  0  0  0  0
  1 29  1  0  0  0  0
  1  3  1  0  0  0  0
  2  1  2  0  0  0  0
  3  7  1  0  0  0  0
  4  8  1  0  0  0  0
  4  3  1  0  0  0  0
  4  5  1  0  0  0  0
  5 10  1  1  0  0  0
  5  6  1  0  0  0  0
  6 11  1  1  0  0  0
  6 14  1  0  0  0  0
  7  6  1  0  0  0  0
  7 12  1  0  0  0  0
  9  4  1  0  0  0  0
 13  7  1  0  0  0  0
 14 19  2  0  0  0  0
 14 15  1  0  0  0  0
 15 16  2  0  0  0  0
 16 21  1  0  0  0  0
 16 17  1  0  0  0  0
 17 22  1  0  0  0  0
 18 23  1  0  0  0  0
 18 17  2  0  0  0  0
 19 18  1  0  0  0  0
 20 15  1  0  0  0  0
 24 19  1  0  0  0  0
 25 26  1  0  0  0  0
 25 41  1  0  0  0  0
 27 26  1  0  0  0  0
 28 29  1  0  0  0  0
 28 27  2  0  0  0  0
 29 25  2  0  0  0  0
 30 27  1  0  0  0  0
 30 31  1  0  0  0  0
 31 35  1  0  0  0  0
 32 31  2  0  0  0  0
 33 32  1  0  0  0  0
 34 33  1  0  0  0  0
 34 30  2  0  0  0  0
 36 34  1  0  0  0  0
 37 39  1  0  0  0  0
 37 33  1  0  0  0  0
 38 37  1  0  0  0  0
 40 37  1  0  0  0  0
 41 42  1  0  0  0  0
 41 44  1  0  0  0  0
 43 41  1  0  0  0  0
 45 46  1  0  0  0  0
 45  5  1  0  0  0  0
 47 45  1  0  0  0  0
 48 49  1  0  0  0  0
 48 45  1  0  0  0  0
 50 48  1  0  0  0  0
M  END
>  <MODEL>
3

>  <REMARK>
 VINA RESULT:    -6.018      2.757      4.548
 INTER + INTRA:          -8.683
 INTER:                  -8.180
 INTRA:                  -0.503
 UNBOUND:                -0.730
  Name = 
  7 active torsions:
  status: ('A' for Active; 'I' for Inactive)
    1  A    between atoms: C_1  and  C_2
    2  A    between atoms: C_4  and  C_5
    3  A    between atoms: N_8  and  C_9
    4  A    between atoms: C_12  and  C_13
    5  A    between atoms: C_17  and  C_18
    6  A    between atoms: C_18  and  N_19
    7  A    between atoms: C_20  and  C_21
                            x       y       z     vdW  Elec       q    Type
                         _______ _______ _______ _____ _____    ______ ____

>  <TORSDO>
F 7

$$$$
=
 OpenBabel07192307433D

 50 53  0  0  1  0  0  0  0  0999 V2000
    1.3760    7.8570   20.4480 C   0  0  0  0  0  0  0  0  0  0  0  0
    1.0060    7.6000   21.5950 O   0  0  0  0  0  0  0  0  0  0  0  0
    0.9600    9.0220   19.8190 N   0  0  0  0  0  0  0  0  0  0  0  0
    0.0340    9.9260   20.4760 C   0  0  0  0  0  0  0  0  0  0  0  0
   -0.4210   10.9080   19.3920 C   0  0  1  0  0  0  0  0  0  0  0  0
    0.8020   10.9650   18.4450 C   0  0  2  0  0  0  0  0  0  0  0  0
    1.3750    9.5370   18.5200 C   0  0  0  0  0  0  0  0  0  0  0  0
    0.5870   10.4450   21.2670 H   0  0  0  0  0  0  0  0  0  0  0  0
   -0.7800    9.3680   20.9490 H   0  0  0  0  0  0  0  0  0  0  0  0
   -0.6430   11.8870   19.8360 H   0  0  0  0  0  0  0  0  0  0  0  0
    0.5050   11.1540   17.4050 H   0  0  0  0  0  0  0  0  0  0  0  0
    2.4620    9.4990   18.4020 H   0  0  0  0  0  0  0  0  0  0  0  0
    0.9100    8.9020   17.7580 H   0  0  0  0  0  0  0  0  0  0  0  0
    1.7520   12.0870   18.8420 C   0  0  0  0  0  0  0  0  0  0  0  0
    1.7830   12.6520   20.1250 C   0  0  0  0  0  0  0  0  0  0  0  0
    2.6630   13.6940   20.4270 C   0  0  0  0  0  0  0  0  0  0  0  0
    3.5220   14.1910   19.4500 C   0  0  0  0  0  0  0  0  0  0  0  0
    3.5000   13.6480   18.1680 C   0  0  0  0  0  0  0  0  0  0  0  0
    2.6200   12.6070   17.8660 C   0  0  0  0  0  0  0  0  0  0  0  0
    1.1210   12.2980   20.9120 H   0  0  0  0  0  0  0  0  0  0  0  0
    2.6760   14.1190   21.4270 H   0  0  0  0  0  0  0  0  0  0  0  0
    4.2070   15.0010   19.6870 H   0  0  0  0  0  0  0  0  0  0  0  0
    4.1670   14.0350   17.4030 H   0  0  0  0  0  0  0  0  0  0  0  0
    2.6170   12.2010   16.8560 H   0  0  0  0  0  0  0  0  0  0  0  0
    2.1730    5.5550   19.7630 C   0  0  0  0  0  0  0  0  0  0  0  0
    3.1430    5.0430   18.9500 O   0  0  0  0  0  0  0  0  0  0  0  0
    3.7800    6.1420   18.4350 C   0  0  0  0  0  0  0  0  0  0  0  0
    3.2850    7.2870   18.8620 N   0  0  0  0  0  0  0  0  0  0  0  0
    2.2540    6.9340   19.7200 C   0  0  0  0  0  0  0  0  0  0  0  0
    4.9660    6.0500   17.4480 C   0  0  0  0  0  0  0  0  0  0  0  0
    6.1630    6.7800   17.4650 C   0  0  0  0  0  0  0  0  0  0  0  0
    6.9720    6.4440   16.4540 N   0  0  0  0  0  0  0  0  0  0  0  0
    6.2760    5.4950   15.7960 N   0  0  0  0  0  0  0  0  0  0  0  0
    5.0620    5.2220   16.3550 C   0  0  0  0  0  0  0  0  0  0  0  0
    6.4800    7.5400   18.1690 H   0  0  0  0  0  0  0  0  0  0  0  0
    4.3860    4.4860   15.9430 H   0  0  0  0  0  0  0  0  0  0  0  0
    6.8480    4.8850   14.6200 C   0  0  0  0  0  0  0  0  0  0  0  0
    6.1420    4.1430   14.2400 H   0  0  0  0  0  0  0  0  0  0  0  0
    7.7910    4.4110   14.9010 H   0  0  0  0  0  0  0  0  0  0  0  0
    7.0270    5.6530   13.8630 H   0  0  0  0  0  0  0  0  0  0  0  0
    1.3050    4.5890   20.4620 C   0  0  0  0  0  0  0  0  0  0  0  0
    1.8950    3.7550   20.8530 H   0  0  0  0  0  0  0  0  0  0  0  0
    0.7900    5.0720   21.2970 H   0  0  0  0  0  0  0  0  0  0  0  0
    0.5450    4.1790   19.7890 H   0  0  0  0  0  0  0  0  0  0  0  0
   -1.6720   10.4250   18.6370 C   0  0  0  0  0  0  0  0  0  0  0  0
   -2.5890   10.7280   19.1560 H   0  0  0  0  0  0  0  0  0  0  0  0
   -1.6750    9.3300   18.6060 H   0  0  0  0  0  0  0  0  0  0  0  0
   -1.7340   10.9040   17.2600 N   0  0  0  0  0  0  0  0  0  0  0  0
   -1.9770   10.1400   16.6310 H   0  0  0  0  0  0  0  0  0  0  0  0
   -0.8260   11.2530   16.9570 H   0  0  0  0  0  0  0  0  0  0  0  0
  1  2  2  0  0  0  0
  3  1  1  0  0  0  0
  3  4  1  0  0  0  0
  4  9  1  0  0  0  0
  4  8  1  0  0  0  0
  5 10  1  1  0  0  0
  5  4  1  0  0  0  0
  6 11  1  6  0  0  0
  6  7  1  0  0  0  0
  6 14  1  0  0  0  0
  6  5  1  0  0  0  0
  7  3  1  0  0  0  0
 12  7  1  0  0  0  0
 13  7  1  0  0  0  0
 14 15  1  0  0  0  0
 15 16  2  0  0  0  0
 15 20  1  0  0  0  0
 16 21  1  0  0  0  0
 17 22  1  0  0  0  0
 17 16  1  0  0  0  0
 18 17  2  0  0  0  0
 19 18  1  0  0  0  0
 19 14  2  0  0  0  0
 23 18  1  0  0  0  0
 24 19  1  0  0  0  0
 25 41  1  0  0  0  0
 26 25  1  0  0  0  0
 27 28  2  0  0  0  0
 27 26  1  0  0  0  0
 28 29  1  0  0  0  0
 29 25  2  0  0  0  0
 29  1  1  0  0  0  0
 30 31  1  0  0  0  0
 30 27  1  0  0  0  0
 31 35  1  0  0  0  0
 32 31  2  0  0  0  0
 33 34  1  0  0  0  0
 33 32  1  0  0  0  0
 34 30  2  0  0  0  0
 36 34  1  0  0  0  0
 37 39  1  0  0  0  0
 37 33  1  0  0  0  0
 38 37  1  0  0  0  0
 40 37  1  0  0  0  0
 41 42  1  0  0  0  0
 41 43  1  0  0  0  0
 44 41  1  0  0  0  0
 45 46  1  0  0  0  0
 45  5  1  0  0  0  0
 47 45  1  0  0  0  0
 48 45  1  0  0  0  0
 49 48  1  0  0  0  0
 50 48  1  0  0  0  0
M  END
>  <MODEL>
4

>  <REMARK>
 VINA RESULT:    -5.900      2.619      4.594
 INTER + INTRA:          -8.527
 INTER:                  -8.456
 INTRA:                  -0.072
 UNBOUND:                -0.730
  Name = 
  7 active torsions:
  status: ('A' for Active; 'I' for Inactive)
    1  A    between atoms: C_1  and  C_2
    2  A    between atoms: C_4  and  C_5
    3  A    between atoms: N_8  and  C_9
    4  A    between atoms: C_12  and  C_13
    5  A    between atoms: C_17  and  C_18
    6  A    between atoms: C_18  and  N_19
    7  A    between atoms: C_20  and  C_21
                            x       y       z     vdW  Elec       q    Type
                         _______ _______ _______ _____ _____    ______ ____

>  <TORSDO>
F 7

$$$$
=
 OpenBabel07192307433D

 50 53  0  0  1  0  0  0  0  0999 V2000
    5.5280    5.4620   19.1580 C   0  0  0  0  0  0  0  0  0  0  0  0
    6.2120    5.2680   20.1650 O   0  0  0  0  0  0  0  0  0  0  0  0
    4.1550    5.6350   19.2640 N   0  0  0  0  0  0  0  0  0  0  0  0
    3.4930    5.5290   20.5520 C   0  0  0  0  0  0  0  0  0  0  0  0
    1.9950    5.4720   20.2400 C   0  0  1  0  0  0  0  0  0  0  0  0
    1.8850    6.2860   18.9280 C   0  0  2  0  0  0  0  0  0  0  0  0
    3.2100    5.9760   18.2070 C   0  0  0  0  0  0  0  0  0  0  0  0
    3.7400    6.4310   21.1230 H   0  0  0  0  0  0  0  0  0  0  0  0
    3.8710    4.6660   21.1080 H   0  0  0  0  0  0  0  0  0  0  0  0
    1.4200    5.9280   21.0560 H   0  0  0  0  0  0  0  0  0  0  0  0
    1.0640    5.9270   18.2930 H   0  0  0  0  0  0  0  0  0  0  0  0
    3.5760    6.8050   17.5950 H   0  0  0  0  0  0  0  0  0  0  0  0
    3.0990    5.0870   17.5760 H   0  0  0  0  0  0  0  0  0  0  0  0
    1.6100    7.7550   19.2150 C   0  0  0  0  0  0  0  0  0  0  0  0
    1.1160    8.2210   20.4430 C   0  0  0  0  0  0  0  0  0  0  0  0
    0.8630    9.5790   20.6430 C   0  0  0  0  0  0  0  0  0  0  0  0
    1.0930   10.4930   19.6190 C   0  0  0  0  0  0  0  0  0  0  0  0
    1.5750   10.0500   18.3900 C   0  0  0  0  0  0  0  0  0  0  0  0
    1.8270    8.6910   18.1900 C   0  0  0  0  0  0  0  0  0  0  0  0
    0.9140    7.5360   21.2640 H   0  0  0  0  0  0  0  0  0  0  0  0
    0.4830    9.9240   21.6010 H   0  0  0  0  0  0  0  0  0  0  0  0
    0.8960   11.5510   19.7770 H   0  0  0  0  0  0  0  0  0  0  0  0
    1.7530   10.7600   17.5880 H   0  0  0  0  0  0  0  0  0  0  0  0
    2.1990    8.3670   17.2190 H   0  0  0  0  0  0  0  0  0  0  0  0
    7.1620    6.3630   17.4500 C   0  0  0  0  0  0  0  0  0  0  0  0
    7.4850    6.0980   16.1500 O   0  0  0  0  0  0  0  0  0  0  0  0
    6.6490    5.0740   15.7870 C   0  0  0  0  0  0  0  0  0  0  0  0
    5.8380    4.6870   16.7530 N   0  0  0  0  0  0  0  0  0  0  0  0
    6.1470    5.5050   17.8300 C   0  0  0  0  0  0  0  0  0  0  0  0
    6.6530    4.4330   14.3810 C   0  0  0  0  0  0  0  0  0  0  0  0
    7.4150    4.8060   13.2630 C   0  0  0  0  0  0  0  0  0  0  0  0
    7.1660    4.0300   12.2030 N   0  0  0  0  0  0  0  0  0  0  0  0
    6.2400    3.1620   12.6580 N   0  0  0  0  0  0  0  0  0  0  0  0
    5.8970    3.3630   13.9640 C   0  0  0  0  0  0  0  0  0  0  0  0
    8.1380    5.6070   13.1770 H   0  0  0  0  0  0  0  0  0  0  0  0
    5.1680    2.7500   14.4730 H   0  0  0  0  0  0  0  0  0  0  0  0
    5.7190    2.1510   11.7700 C   0  0  0  0  0  0  0  0  0  0  0  0
    5.9310    2.4550   10.7410 H   0  0  0  0  0  0  0  0  0  0  0  0
    4.6420    2.0700   11.9330 H   0  0  0  0  0  0  0  0  0  0  0  0
    6.2020    1.1940   11.9850 H   0  0  0  0  0  0  0  0  0  0  0  0
    7.9170    7.4360   18.1230 C   0  0  0  0  0  0  0  0  0  0  0  0
    8.9870    7.3440   17.9110 H   0  0  0  0  0  0  0  0  0  0  0  0
    7.5780    8.4170   17.7780 H   0  0  0  0  0  0  0  0  0  0  0  0
    7.7840    7.3950   19.2090 H   0  0  0  0  0  0  0  0  0  0  0  0
    1.4830    4.0350   20.0340 C   0  0  0  0  0  0  0  0  0  0  0  0
    1.9410    3.5740   19.1500 H   0  0  0  0  0  0  0  0  0  0  0  0
    0.4030    4.0590   19.8520 H   0  0  0  0  0  0  0  0  0  0  0  0
    1.7160    3.1690   21.1850 N   0  0  0  0  0  0  0  0  0  0  0  0
    1.9260    3.7280   22.0110 H   0  0  0  0  0  0  0  0  0  0  0  0
    2.5240    2.5680   21.0280 H   0  0  0  0  0  0  0  0  0  0  0  0
  1  3  1  0  0  0  0
  1  2  2  0  0  0  0
  3  4  1  0  0  0  0
  4  9  1  0  0  0  0
  4  8  1  0  0  0  0
  5  4  1  0  0  0  0
  5 10  1  1  0  0  0
  6 11  1  6  0  0  0
  6 14  1  0  0  0  0
  6  5  1  0  0  0  0
  7  6  1  0  0  0  0
  7  3  1  0  0  0  0
 12  7  1  0  0  0  0
 13  7  1  0  0  0  0
 14 15  1  0  0  0  0
 15 16  2  0  0  0  0
 15 20  1  0  0  0  0
 16 21  1  0  0  0  0
 17 22  1  0  0  0  0
 17 16  1  0  0  0  0
 18 17  2  0  0  0  0
 19 18  1  0  0  0  0
 19 14  2  0  0  0  0
 23 18  1  0  0  0  0
 24 19  1  0  0  0  0
 25 29  2  0  0  0  0
 25 41  1  0  0  0  0
 26 25  1  0  0  0  0
 27 26  1  0  0  0  0
 27 28  2  0  0  0  0
 28 29  1  0  0  0  0
 29  1  1  0  0  0  0
 30 27  1  0  0  0  0
 31 30  1  0  0  0  0
 32 33  1  0  0  0  0
 32 31  2  0  0  0  0
 33 34  1  0  0  0  0
 34 30  2  0  0  0  0
 34 36  1  0  0  0  0
 35 31  1  0  0  0  0
 37 39  1  0  0  0  0
 37 40  1  0  0  0  0
 37 33  1  0  0  0  0
 38 37  1  0  0  0  0
 41 44  1  0  0  0  0
 42 41  1  0  0  0  0
 43 41  1  0  0  0  0
 45  5  1  0  0  0  0
 45 48  1  0  0  0  0
 46 45  1  0  0  0  0
 47 45  1  0  0  0  0
 48 49  1  0  0  0  0
 50 48  1  0  0  0  0
M  END
>  <MODEL>
5

>  <REMARK>
 VINA RESULT:    -5.677      4.276      6.713
 INTER + INTRA:          -8.233
 INTER:                  -7.536
 INTRA:                  -0.697
 UNBOUND:                -0.730
  Name = 
  7 active torsions:
  status: ('A' for Active; 'I' for Inactive)
    1  A    between atoms: C_1  and  C_2
    2  A    between atoms: C_4  and  C_5
    3  A    between atoms: N_8  and  C_9
    4  A    between atoms: C_12  and  C_13
    5  A    between atoms: C_17  and  C_18
    6  A    between atoms: C_18  and  N_19
    7  A    between atoms: C_20  and  C_21
                            x       y       z     vdW  Elec       q    Type
                         _______ _______ _______ _____ _____    ______ ____

>  <TORSDO>
F 7

$$$$
=
 OpenBabel07192307433D

 50 53  0  0  1  0  0  0  0  0999 V2000
    3.6910    5.7030   19.6730 C   0  0  0  0  0  0  0  0  0  0  0  0
    3.4000    4.7450   20.3930 O   0  0  0  0  0  0  0  0  0  0  0  0
    4.8740    5.7040   18.9490 N   0  0  0  0  0  0  0  0  0  0  0  0
    5.8190    4.6090   19.0740 C   0  0  0  0  0  0  0  0  0  0  0  0
    7.1010    5.0910   18.3900 C   0  0  1  0  0  0  0  0  0  0  0  0
    6.5680    6.0640   17.3100 C   0  0  2  0  0  0  0  0  0  0  0  0
    5.3290    6.6900   17.9760 C   0  0  0  0  0  0  0  0  0  0  0  0
    5.3940    3.7470   18.5470 H   0  0  0  0  0  0  0  0  0  0  0  0
    5.9470    4.3290   20.1240 H   0  0  0  0  0  0  0  0  0  0  0  0
    7.6380    4.2420   17.9490 H   0  0  0  0  0  0  0  0  0  0  0  0
    7.2820    6.8720   17.1000 H   0  0  0  0  0  0  0  0  0  0  0  0
    4.5380    6.9480   17.2670 H   0  0  0  0  0  0  0  0  0  0  0  0
    5.6140    7.5880   18.5370 H   0  0  0  0  0  0  0  0  0  0  0  0
    6.3230    5.3410   15.9920 C   0  0  0  0  0  0  0  0  0  0  0  0
    5.1120    4.7090   15.6740 C   0  0  0  0  0  0  0  0  0  0  0  0
    4.9500    4.0440   14.4570 C   0  0  0  0  0  0  0  0  0  0  0  0
    5.9980    3.9940   13.5410 C   0  0  0  0  0  0  0  0  0  0  0  0
    7.2100    4.6090   13.8420 C   0  0  0  0  0  0  0  0  0  0  0  0
    7.3720    5.2730   15.0590 C   0  0  0  0  0  0  0  0  0  0  0  0
    4.2740    4.7170   16.3670 H   0  0  0  0  0  0  0  0  0  0  0  0
    4.0050    3.5620   14.2240 H   0  0  0  0  0  0  0  0  0  0  0  0
    5.8700    3.4770   12.5930 H   0  0  0  0  0  0  0  0  0  0  0  0
    8.0310    4.5690   13.1310 H   0  0  0  0  0  0  0  0  0  0  0  0
    8.3310    5.7420   15.2750 H   0  0  0  0  0  0  0  0  0  0  0  0
    2.4960    7.5390   18.4070 C   0  0  0  0  0  0  0  0  0  0  0  0
    1.6250    8.5460   18.7080 O   0  0  0  0  0  0  0  0  0  0  0  0
    1.4250    8.4390   20.0600 C   0  0  0  0  0  0  0  0  0  0  0  0
    2.0990    7.4520   20.6170 N   0  0  0  0  0  0  0  0  0  0  0  0
    2.7980    6.8620   19.5740 C   0  0  0  0  0  0  0  0  0  0  0  0
    0.4990    9.3850   20.8580 C   0  0  0  0  0  0  0  0  0  0  0  0
    0.1420    9.3050   22.2130 C   0  0  0  0  0  0  0  0  0  0  0  0
   -0.6830   10.2940   22.5750 N   0  0  0  0  0  0  0  0  0  0  0  0
   -0.8460   11.0010   21.4380 N   0  0  0  0  0  0  0  0  0  0  0  0
   -0.1550   10.4940   20.3760 C   0  0  0  0  0  0  0  0  0  0  0  0
    0.4460    8.5720   22.9490 H   0  0  0  0  0  0  0  0  0  0  0  0
   -0.1840   10.9470   19.3950 H   0  0  0  0  0  0  0  0  0  0  0  0
   -1.6930   12.1680   21.4450 C   0  0  0  0  0  0  0  0  0  0  0  0
   -1.1180   13.0090   21.8420 H   0  0  0  0  0  0  0  0  0  0  0  0
   -2.5600   11.9620   22.0780 H   0  0  0  0  0  0  0  0  0  0  0  0
   -2.0200   12.3870   20.4250 H   0  0  0  0  0  0  0  0  0  0  0  0
    2.8970    7.3990   16.9950 C   0  0  0  0  0  0  0  0  0  0  0  0
    3.1090    6.3520   16.7570 H   0  0  0  0  0  0  0  0  0  0  0  0
    2.1000    7.7510   16.3340 H   0  0  0  0  0  0  0  0  0  0  0  0
    3.7970    7.9830   16.7780 H   0  0  0  0  0  0  0  0  0  0  0  0
    8.0550    5.8180   19.3540 C   0  0  0  0  0  0  0  0  0  0  0  0
    7.8260    6.8890   19.4050 H   0  0  0  0  0  0  0  0  0  0  0  0
    9.0810    5.7320   18.9800 H   0  0  0  0  0  0  0  0  0  0  0  0
    8.0330    5.2710   20.7070 N   0  0  0  0  0  0  0  0  0  0  0  0
    8.9770    5.0310   21.0070 H   0  0  0  0  0  0  0  0  0  0  0  0
    7.4890    4.4100   20.7390 H   0  0  0  0  0  0  0  0  0  0  0  0
  1  2  2  0  0  0  0
  3  4  1  0  0  0  0
  3  1  1  0  0  0  0
  4  9  1  0  0  0  0
  5 10  1  6  0  0  0
  5  4  1  0  0  0  0
  5 45  1  0  0  0  0
  6 11  1  6  0  0  0
  6  7  1  0  0  0  0
  6  5  1  0  0  0  0
  7 13  1  0  0  0  0
  7  3  1  0  0  0  0
  8  4  1  0  0  0  0
 12  7  1  0  0  0  0
 14  6  1  0  0  0  0
 15 14  1  0  0  0  0
 15 20  1  0  0  0  0
 16 15  2  0  0  0  0
 17 18  2  0  0  0  0
 17 16  1  0  0  0  0
 18 19  1  0  0  0  0
 19 24  1  0  0  0  0
 19 14  2  0  0  0  0
 21 16  1  0  0  0  0
 22 17  1  0  0  0  0
 23 18  1  0  0  0  0
 25 26  1  0  0  0  0
 25 29  2  0  0  0  0
 26 27  1  0  0  0  0
 27 28  2  0  0  0  0
 27 30  1  0  0  0  0
 29  1  1  0  0  0  0
 29 28  1  0  0  0  0
 30 31  1  0  0  0  0
 31 32  2  0  0  0  0
 31 35  1  0  0  0  0
 33 37  1  0  0  0  0
 33 32  1  0  0  0  0
 34 30  2  0  0  0  0
 34 33  1  0  0  0  0
 36 34  1  0  0  0  0
 37 38  1  0  0  0  0
 37 39  1  0  0  0  0
 40 37  1  0  0  0  0
 41 25  1  0  0  0  0
 42 41  1  0  0  0  0
 43 41  1  0  0  0  0
 44 41  1  0  0  0  0
 45 46  1  0  0  0  0
 45 48  1  0  0  0  0
 47 45  1  0  0  0  0
 48 50  1  0  0  0  0
 48 49  1  0  0  0  0
M  END
>  <MODEL>
6

>  <REMARK>
 VINA RESULT:    -5.502      3.262      8.802
 INTER + INTRA:          -8.002
 INTER:                  -8.830
 INTRA:                   0.828
 UNBOUND:                -0.730
  Name = 
  7 active torsions:
  status: ('A' for Active; 'I' for Inactive)
    1  A    between atoms: C_1  and  C_2
    2  A    between atoms: C_4  and  C_5
    3  A    between atoms: N_8  and  C_9
    4  A    between atoms: C_12  and  C_13
    5  A    between atoms: C_17  and  C_18
    6  A    between atoms: C_18  and  N_19
    7  A    between atoms: C_20  and  C_21
                            x       y       z     vdW  Elec       q    Type
                         _______ _______ _______ _____ _____    ______ ____

>  <TORSDO>
F 7

$$$$
=
 OpenBabel07192307433D

 50 53  0  0  1  0  0  0  0  0999 V2000
    4.1870    4.4610   19.7680 C   0  0  0  0  0  0  0  0  0  0  0  0
    4.2450    3.4020   20.3950 O   0  0  0  0  0  0  0  0  0  0  0  0
    5.2370    4.8510   18.9480 N   0  0  0  0  0  0  0  0  0  0  0  0
    6.4450    4.0500   18.8620 C   0  0  0  0  0  0  0  0  0  0  0  0
    7.4650    4.9250   18.1280 C   0  0  1  0  0  0  0  0  0  0  0  0
    6.5740    5.8040   17.2190 C   0  0  2  0  0  0  0  0  0  0  0  0
    5.2990    6.0040   18.0590 C   0  0  0  0  0  0  0  0  0  0  0  0
    6.2050    3.1540   18.2790 H   0  0  0  0  0  0  0  0  0  0  0  0
    6.7620    3.7260   19.8580 H   0  0  0  0  0  0  0  0  0  0  0  0
    8.1540    4.2970   17.5470 H   0  0  0  0  0  0  0  0  0  0  0  0
    7.0200    6.7920   17.0420 H   0  0  0  0  0  0  0  0  0  0  0  0
    4.3910    6.0960   17.4550 H   0  0  0  0  0  0  0  0  0  0  0  0
    5.3990    6.8940   18.6920 H   0  0  0  0  0  0  0  0  0  0  0  0
    6.3780    5.1590   15.8530 C   0  0  0  0  0  0  0  0  0  0  0  0
    7.3820    5.1110   14.8740 C   0  0  0  0  0  0  0  0  0  0  0  0
    7.1400    4.5240   13.6300 C   0  0  0  0  0  0  0  0  0  0  0  0
    5.8900    3.9820   13.3430 C   0  0  0  0  0  0  0  0  0  0  0  0
    4.8780    4.0280   14.2980 C   0  0  0  0  0  0  0  0  0  0  0  0
    5.1200    4.6160   15.5410 C   0  0  0  0  0  0  0  0  0  0  0  0
    8.3670    5.5320   15.0570 H   0  0  0  0  0  0  0  0  0  0  0  0
    7.9290    4.4910   12.8840 H   0  0  0  0  0  0  0  0  0  0  0  0
    5.7030    3.5240   12.3740 H   0  0  0  0  0  0  0  0  0  0  0  0
    3.9010    3.6090   14.0760 H   0  0  0  0  0  0  0  0  0  0  0  0
    4.3130    4.6450   16.2710 H   0  0  0  0  0  0  0  0  0  0  0  0
    1.7330    4.9150   20.1830 C   0  0  0  0  0  0  0  0  0  0  0  0
    0.9180    6.0090   20.2130 O   0  0  0  0  0  0  0  0  0  0  0  0
    1.7450    7.0650   19.9320 C   0  0  0  0  0  0  0  0  0  0  0  0
    3.0000    6.7130   19.7300 N   0  0  0  0  0  0  0  0  0  0  0  0
    3.0140    5.3350   19.8810 C   0  0  0  0  0  0  0  0  0  0  0  0
    1.2570    8.5300   19.8570 C   0  0  0  0  0  0  0  0  0  0  0  0
    0.3070    9.1670   20.6710 C   0  0  0  0  0  0  0  0  0  0  0  0
    0.1250   10.4460   20.3240 N   0  0  0  0  0  0  0  0  0  0  0  0
    0.9660   10.6130   19.2830 N   0  0  0  0  0  0  0  0  0  0  0  0
    1.6700    9.4890   18.9630 C   0  0  0  0  0  0  0  0  0  0  0  0
   -0.2570    8.7560   21.4980 H   0  0  0  0  0  0  0  0  0  0  0  0
    2.3840    9.4620   18.1530 H   0  0  0  0  0  0  0  0  0  0  0  0
    1.0430   11.8990   18.6340 C   0  0  0  0  0  0  0  0  0  0  0  0
    2.0000   12.3590   18.8920 H   0  0  0  0  0  0  0  0  0  0  0  0
    0.2120   12.5140   18.9880 H   0  0  0  0  0  0  0  0  0  0  0  0
    0.9720   11.7650   17.5510 H   0  0  0  0  0  0  0  0  0  0  0  0
    1.1100    3.6070   20.4620 C   0  0  0  0  0  0  0  0  0  0  0  0
    0.5650    3.6360   21.4110 H   0  0  0  0  0  0  0  0  0  0  0  0
    0.4080    3.3400   19.6660 H   0  0  0  0  0  0  0  0  0  0  0  0
    1.8620    2.8150   20.5280 H   0  0  0  0  0  0  0  0  0  0  0  0
    8.2980    5.7990   19.0830 C   0  0  0  0  0  0  0  0  0  0  0  0
    7.9710    6.8450   19.0490 H   0  0  0  0  0  0  0  0  0  0  0  0
    9.3460    5.7860   18.7620 H   0  0  0  0  0  0  0  0  0  0  0  0
    8.2560    5.3400   20.4680 N   0  0  0  0  0  0  0  0  0  0  0  0
    7.3040    5.0860   20.7280 H   0  0  0  0  0  0  0  0  0  0  0  0
    8.5420    6.0850   21.1030 H   0  0  0  0  0  0  0  0  0  0  0  0
  1 29  1  0  0  0  0
  1  2  2  0  0  0  0
  3  1  1  0  0  0  0
  4  3  1  0  0  0  0
  4  9  1  0  0  0  0
  5 10  1  6  0  0  0
  5  4  1  0  0  0  0
  5 45  1  0  0  0  0
  6 11  1  6  0  0  0
  6  7  1  0  0  0  0
  6  5  1  0  0  0  0
  7 13  1  0  0  0  0
  7  3  1  0  0  0  0
  8  4  1  0  0  0  0
 12  7  1  0  0  0  0
 14  6  1  0  0  0  0
 15 20  1  0  0  0  0
 15 14  2  0  0  0  0
 16 15  1  0  0  0  0
 17 16  2  0  0  0  0
 17 18  1  0  0  0  0
 18 19  2  0  0  0  0
 19 14  1  0  0  0  0
 19 24  1  0  0  0  0
 21 16  1  0  0  0  0
 22 17  1  0  0  0  0
 23 18  1  0  0  0  0
 25 26  1  0  0  0  0
 25 41  1  0  0  0  0
 27 26  1  0  0  0  0
 28 29  1  0  0  0  0
 28 27  2  0  0  0  0
 29 25  2  0  0  0  0
 30 27  1  0  0  0  0
 30 31  1  0  0  0  0
 31 35  1  0  0  0  0
 32 31  2  0  0  0  0
 33 32  1  0  0  0  0
 34 33  1  0  0  0  0
 34 30  2  0  0  0  0
 36 34  1  0  0  0  0
 37 38  1  0  0  0  0
 37 39  1  0  0  0  0
 37 33  1  0  0  0  0
 40 37  1  0  0  0  0
 41 44  1  0  0  0  0
 41 42  1  0  0  0  0
 43 41  1  0  0  0  0
 45 48  1  0  0  0  0
 46 45  1  0  0  0  0
 47 45  1  0  0  0  0
 48 49  1  0  0  0  0
 48 50  1  0  0  0  0
M  END
>  <MODEL>
7

>  <REMARK>
 VINA RESULT:    -5.473      3.348      8.778
 INTER + INTRA:          -7.964
 INTER:                  -7.837
 INTRA:                  -0.127
 UNBOUND:                -0.730
  Name = 
  7 active torsions:
  status: ('A' for Active; 'I' for Inactive)
    1  A    between atoms: C_1  and  C_2
    2  A    between atoms: C_4  and  C_5
    3  A    between atoms: N_8  and  C_9
    4  A    between atoms: C_12  and  C_13
    5  A    between atoms: C_17  and  C_18
    6  A    between atoms: C_18  and  N_19
    7  A    between atoms: C_20  and  C_21
                            x       y       z     vdW  Elec       q    Type
                         _______ _______ _______ _____ _____    ______ ____

>  <TORSDO>
F 7

$$$$
=
 OpenBabel07192307433D

 50 53  0  0  1  0  0  0  0  0999 V2000
   -0.2770   12.7260   18.8290 C   0  0  0  0  0  0  0  0  0  0  0  0
   -0.6020   13.4990   17.9260 O   0  0  0  0  0  0  0  0  0  0  0  0
   -0.1450   13.1830   20.1330 N   0  0  0  0  0  0  0  0  0  0  0  0
   -0.3260   14.5890   20.4450 C   0  0  0  0  0  0  0  0  0  0  0  0
    0.1860   14.7600   21.8790 C   0  0  1  0  0  0  0  0  0  0  0  0
   -0.0880   13.3730   22.5090 C   0  0  2  0  0  0  0  0  0  0  0  0
    0.1240   12.4010   21.3340 C   0  0  0  0  0  0  0  0  0  0  0  0
   -1.3990   14.8030   20.3850 H   0  0  0  0  0  0  0  0  0  0  0  0
    0.1830   15.2150   19.7070 H   0  0  0  0  0  0  0  0  0  0  0  0
   -0.3690   15.5590   22.3860 H   0  0  0  0  0  0  0  0  0  0  0  0
    0.6470   13.1270   23.2870 H   0  0  0  0  0  0  0  0  0  0  0  0
   -0.5120   11.5130   21.3850 H   0  0  0  0  0  0  0  0  0  0  0  0
    1.1730   12.0880   21.2860 H   0  0  0  0  0  0  0  0  0  0  0  0
   -1.4590   13.3310   23.1710 C   0  0  0  0  0  0  0  0  0  0  0  0
   -2.3290   12.2350   23.0710 C   0  0  0  0  0  0  0  0  0  0  0  0
   -3.5830   12.2600   23.6840 C   0  0  0  0  0  0  0  0  0  0  0  0
   -3.9910   13.3820   24.4000 C   0  0  0  0  0  0  0  0  0  0  0  0
   -3.1450   14.4830   24.5030 C   0  0  0  0  0  0  0  0  0  0  0  0
   -1.8910   14.4590   23.8900 C   0  0  0  0  0  0  0  0  0  0  0  0
   -2.0500   11.3450   22.5130 H   0  0  0  0  0  0  0  0  0  0  0  0
   -4.2440   11.4020   23.6000 H   0  0  0  0  0  0  0  0  0  0  0  0
   -4.9680   13.3990   24.8770 H   0  0  0  0  0  0  0  0  0  0  0  0
   -3.4620   15.3610   25.0590 H   0  0  0  0  0  0  0  0  0  0  0  0
   -1.2480   15.3330   23.9800 H   0  0  0  0  0  0  0  0  0  0  0  0
   -0.9330   10.4190   18.0230 C   0  0  0  0  0  0  0  0  0  0  0  0
   -0.3220    9.2060   17.8850 O   0  0  0  0  0  0  0  0  0  0  0  0
    0.9590    9.4100   18.3270 C   0  0  0  0  0  0  0  0  0  0  0  0
    1.1880   10.6460   18.7270 N   0  0  0  0  0  0  0  0  0  0  0  0
   -0.0150   11.3110   18.5440 C   0  0  0  0  0  0  0  0  0  0  0  0
    2.0340    8.3000   18.3570 C   0  0  0  0  0  0  0  0  0  0  0  0
    3.0380    8.0430   17.4110 C   0  0  0  0  0  0  0  0  0  0  0  0
    3.7980    6.9980   17.7560 N   0  0  0  0  0  0  0  0  0  0  0  0
    3.2660    6.5940   18.9280 N   0  0  0  0  0  0  0  0  0  0  0  0
    2.2020    7.3460   19.3330 C   0  0  0  0  0  0  0  0  0  0  0  0
    3.2470    8.5710   16.4890 H   0  0  0  0  0  0  0  0  0  0  0  0
    1.6680    7.1480   20.2510 H   0  0  0  0  0  0  0  0  0  0  0  0
    3.8400    5.4620   19.6130 C   0  0  0  0  0  0  0  0  0  0  0  0
    3.2660    5.2850   20.5270 H   0  0  0  0  0  0  0  0  0  0  0  0
    4.8810    5.6940   19.8520 H   0  0  0  0  0  0  0  0  0  0  0  0
    3.7920    4.5820   18.9660 H   0  0  0  0  0  0  0  0  0  0  0  0
   -2.3460   10.5090   17.6100 C   0  0  0  0  0  0  0  0  0  0  0  0
   -2.5270    9.8950   16.7230 H   0  0  0  0  0  0  0  0  0  0  0  0
   -3.0020   10.1610   18.4140 H   0  0  0  0  0  0  0  0  0  0  0  0
   -2.6250   11.5400   17.3700 H   0  0  0  0  0  0  0  0  0  0  0  0
    1.6850   15.0990   21.9400 C   0  0  0  0  0  0  0  0  0  0  0  0
    2.2400   14.3430   22.5070 H   0  0  0  0  0  0  0  0  0  0  0  0
    1.8190   16.0500   22.4680 H   0  0  0  0  0  0  0  0  0  0  0  0
    2.2990   15.2380   20.6220 N   0  0  0  0  0  0  0  0  0  0  0  0
    2.4870   14.3200   20.2220 H   0  0  0  0  0  0  0  0  0  0  0  0
    3.1970   15.7150   20.6910 H   0  0  0  0  0  0  0  0  0  0  0  0
  1  3  1  0  0  0  0
  2  1  2  0  0  0  0
  3  4  1  0  0  0  0
  3  7  1  0  0  0  0
  4  5  1  0  0  0  0
  5 45  1  0  0  0  0
  5 10  1  1  0  0  0
  5  6  1  0  0  0  0
  6 14  1  0  0  0  0
  6 11  1  1  0  0  0
  7 12  1  0  0  0  0
  7  6  1  0  0  0  0
  8  4  1  0  0  0  0
  9  4  1  0  0  0  0
 13  7  1  0  0  0  0
 14 19  1  0  0  0  0
 15 14  2  0  0  0  0
 15 16  1  0  0  0  0
 16 17  2  0  0  0  0
 17 18  1  0  0  0  0
 17 22  1  0  0  0  0
 18 23  1  0  0  0  0
 19 24  1  0  0  0  0
 19 18  2  0  0  0  0
 20 15  1  0  0  0  0
 21 16  1  0  0  0  0
 25 29  2  0  0  0  0
 26 25  1  0  0  0  0
 26 27  1  0  0  0  0
 27 30  1  0  0  0  0
 27 28  2  0  0  0  0
 29 28  1  0  0  0  0
 29  1  1  0  0  0  0
 30 34  2  0  0  0  0
 31 32  2  0  0  0  0
 31 30  1  0  0  0  0
 32 33  1  0  0  0  0
 33 34  1  0  0  0  0
 33 37  1  0  0  0  0
 34 36  1  0  0  0  0
 35 31  1  0  0  0  0
 37 39  1  0  0  0  0
 37 38  1  0  0  0  0
 40 37  1  0  0  0  0
 41 25  1  0  0  0  0
 41 43  1  0  0  0  0
 42 41  1  0  0  0  0
 44 41  1  0  0  0  0
 45 47  1  0  0  0  0
 45 46  1  0  0  0  0
 48 50  1  0  0  0  0
 48 45  1  0  0  0  0
 49 48  1  0  0  0  0
M  END
>  <MODEL>
8

>  <REMARK>
 VINA RESULT:    -5.395      2.797      5.190
 INTER + INTRA:          -7.860
 INTER:                  -7.112
 INTRA:                  -0.749
 UNBOUND:                -0.730
  Name = 
  7 active torsions:
  status: ('A' for Active; 'I' for Inactive)
    1  A    between atoms: C_1  and  C_2
    2  A    between atoms: C_4  and  C_5
    3  A    between atoms: N_8  and  C_9
    4  A    between atoms: C_12  and  C_13
    5  A    between atoms: C_17  and  C_18
    6  A    between atoms: C_18  and  N_19
    7  A    between atoms: C_20  and  C_21
                            x       y       z     vdW  Elec       q    Type
                         _______ _______ _______ _____ _____    ______ ____

>  <TORSDO>
F 7

$$$$
=
 OpenBabel07192307433D

 50 53  0  0  1  0  0  0  0  0999 V2000
    0.9150   11.1280   20.1380 C   0  0  0  0  0  0  0  0  0  0  0  0
    0.4900   10.9740   21.2840 O   0  0  0  0  0  0  0  0  0  0  0  0
    1.2260   12.3960   19.6680 N   0  0  0  0  0  0  0  0  0  0  0  0
    0.9990   13.5670   20.4950 C   0  0  0  0  0  0  0  0  0  0  0  0
    1.1640   14.7680   19.5590 C   0  0  1  0  0  0  0  0  0  0  0  0
    2.1790   14.2510   18.5110 C   0  0  2  0  0  0  0  0  0  0  0  0
    1.8340   12.7550   18.3920 C   0  0  0  0  0  0  0  0  0  0  0  0
    1.7670   13.5710   21.2770 H   0  0  0  0  0  0  0  0  0  0  0  0
    0.0230   13.5080   20.9850 H   0  0  0  0  0  0  0  0  0  0  0  0
    1.5520   15.6320   20.1150 H   0  0  0  0  0  0  0  0  0  0  0  0
    2.0200   14.7120   17.5270 H   0  0  0  0  0  0  0  0  0  0  0  0
    2.7000   12.1260   18.1690 H   0  0  0  0  0  0  0  0  0  0  0  0
    1.0720   12.6020   17.6190 H   0  0  0  0  0  0  0  0  0  0  0  0
    3.6080   14.5750   18.9230 C   0  0  0  0  0  0  0  0  0  0  0  0
    3.9740   14.9090   20.2360 C   0  0  0  0  0  0  0  0  0  0  0  0
    5.2990   15.2170   20.5520 C   0  0  0  0  0  0  0  0  0  0  0  0
    6.2780   15.2010   19.5630 C   0  0  0  0  0  0  0  0  0  0  0  0
    5.9320   14.8800   18.2530 C   0  0  0  0  0  0  0  0  0  0  0  0
    4.6080   14.5740   17.9360 C   0  0  0  0  0  0  0  0  0  0  0  0
    3.2370   14.9420   21.0340 H   0  0  0  0  0  0  0  0  0  0  0  0
    5.5670   15.4710   21.5750 H   0  0  0  0  0  0  0  0  0  0  0  0
    7.3090   15.4400   19.8110 H   0  0  0  0  0  0  0  0  0  0  0  0
    6.6940   14.8700   17.4770 H   0  0  0  0  0  0  0  0  0  0  0  0
    4.3610   14.3300   16.9040 H   0  0  0  0  0  0  0  0  0  0  0  0
    0.2530    9.6440   18.1980 C   0  0  0  0  0  0  0  0  0  0  0  0
    0.7470    8.5260   17.5910 O   0  0  0  0  0  0  0  0  0  0  0  0
    1.8830    8.2220   18.2960 C   0  0  0  0  0  0  0  0  0  0  0  0
    2.1290    9.0580   19.2860 N   0  0  0  0  0  0  0  0  0  0  0  0
    1.0910    9.9780   19.2450 C   0  0  0  0  0  0  0  0  0  0  0  0
    2.7890    7.0150   17.9650 C   0  0  0  0  0  0  0  0  0  0  0  0
    4.0820    7.0280   17.4200 C   0  0  0  0  0  0  0  0  0  0  0  0
    4.5750    5.7950   17.2640 N   0  0  0  0  0  0  0  0  0  0  0  0
    3.5830    4.9990   17.7130 N   0  0  0  0  0  0  0  0  0  0  0  0
    2.4860    5.6860   18.1470 C   0  0  0  0  0  0  0  0  0  0  0  0
    4.6840    7.8810   17.1320 H   0  0  0  0  0  0  0  0  0  0  0  0
    1.6080    5.1910   18.5360 H   0  0  0  0  0  0  0  0  0  0  0  0
    3.7600    3.5680   17.6960 C   0  0  0  0  0  0  0  0  0  0  0  0
    2.7820    3.1020   17.5470 H   0  0  0  0  0  0  0  0  0  0  0  0
    4.1900    3.2620   18.6530 H   0  0  0  0  0  0  0  0  0  0  0  0
    4.4330    3.2940   16.8800 H   0  0  0  0  0  0  0  0  0  0  0  0
   -0.9870   10.2170   17.6410 C   0  0  0  0  0  0  0  0  0  0  0  0
   -0.7630   10.8510   16.7770 H   0  0  0  0  0  0  0  0  0  0  0  0
   -1.6660    9.4220   17.3210 H   0  0  0  0  0  0  0  0  0  0  0  0
   -1.5100   10.8300   18.3820 H   0  0  0  0  0  0  0  0  0  0  0  0
   -0.1540   15.1820   18.8830 C   0  0  0  0  0  0  0  0  0  0  0  0
   -0.2290   14.7640   17.8720 H   0  0  0  0  0  0  0  0  0  0  0  0
   -0.1780   16.2720   18.7740 H   0  0  0  0  0  0  0  0  0  0  0  0
   -1.3390   14.7900   19.6400 N   0  0  0  0  0  0  0  0  0  0  0  0
   -1.3790   13.7760   19.7320 H   0  0  0  0  0  0  0  0  0  0  0  0
   -2.1890   15.0720   19.1520 H   0  0  0  0  0  0  0  0  0  0  0  0
  1  2  2  0  0  0  0
  3  1  1  0  0  0  0
  3  4  1  0  0  0  0
  4  9  1  0  0  0  0
  4  8  1  0  0  0  0
  5 10  1  1  0  0  0
  5  4  1  0  0  0  0
  6 11  1  6  0  0  0
  6 14  1  0  0  0  0
  6  5  1  0  0  0  0
  7  6  1  0  0  0  0
  7  3  1  0  0  0  0
 12  7  1  0  0  0  0
 13  7  1  0  0  0  0
 14 15  1  0  0  0  0
 15 16  2  0  0  0  0
 15 20  1  0  0  0  0
 16 21  1  0  0  0  0
 17 22  1  0  0  0  0
 17 16  1  0  0  0  0
 18 17  2  0  0  0  0
 19 18  1  0  0  0  0
 19 14  2  0  0  0  0
 23 18  1  0  0  0  0
 24 19  1  0  0  0  0
 25 29  2  0  0  0  0
 26 25  1  0  0  0  0
 26 27  1  0  0  0  0
 27 28  2  0  0  0  0
 29 28  1  0  0  0  0
 29  1  1  0  0  0  0
 30 34  2  0  0  0  0
 30 27  1  0  0  0  0
 31 30  1  0  0  0  0
 32 31  2  0  0  0  0
 32 33  1  0  0  0  0
 33 34  1  0  0  0  0
 34 36  1  0  0  0  0
 35 31  1  0  0  0  0
 37 33  1  0  0  0  0
 37 39  1  0  0  0  0
 38 37  1  0  0  0  0
 40 37  1  0  0  0  0
 41 25  1  0  0  0  0
 41 44  1  0  0  0  0
 42 41  1  0  0  0  0
 43 41  1  0  0  0  0
 45  5  1  0  0  0  0
 45 48  1  0  0  0  0
 46 45  1  0  0  0  0
 47 45  1  0  0  0  0
 48 49  1  0  0  0  0
 50 48  1  0  0  0  0
M  END
>  <MODEL>
9

>  <REMARK>
 VINA RESULT:    -5.374      3.370      5.387
 INTER + INTRA:          -7.832
 INTER:                  -7.219
 INTRA:                  -0.613
 UNBOUND:                -0.730
  Name = 
  7 active torsions:
  status: ('A' for Active; 'I' for Inactive)
    1  A    between atoms: C_1  and  C_2
    2  A    between atoms: C_4  and  C_5
    3  A    between atoms: N_8  and  C_9
    4  A    between atoms: C_12  and  C_13
    5  A    between atoms: C_17  and  C_18
    6  A    between atoms: C_18  and  N_19
    7  A    between atoms: C_20  and  C_21
                            x       y       z     vdW  Elec       q    Type
                         _______ _______ _______ _____ _____    ______ ____

>  <TORSDO>
F 7

$$$$
=
 OpenBabel07192307433D

 50 53  0  0  1  0  0  0  0  0999 V2000
    1.8180    5.1510   19.3270 C   0  0  0  0  0  0  0  0  0  0  0  0
    0.8380    4.4220   19.1680 O   0  0  0  0  0  0  0  0  0  0  0  0
    3.1020    4.6420   19.1940 N   0  0  0  0  0  0  0  0  0  0  0  0
    3.3140    3.2310   18.9270 C   0  0  0  0  0  0  0  0  0  0  0  0
    4.8110    2.9920   19.1480 C   0  0  1  0  0  0  0  0  0  0  0  0
    5.4350    4.3610   18.7860 C   0  0  2  0  0  0  0  0  0  0  0  0
    4.3650    5.3700   19.2420 C   0  0  0  0  0  0  0  0  0  0  0  0
    3.0390    3.0500   17.8820 H   0  0  0  0  0  0  0  0  0  0  0  0
    2.6620    2.6180   19.5560 H   0  0  0  0  0  0  0  0  0  0  0  0
    5.1680    2.1900   18.4880 H   0  0  0  0  0  0  0  0  0  0  0  0
    6.3500    4.5570   19.3610 H   0  0  0  0  0  0  0  0  0  0  0  0
    4.3300    6.2740   18.6260 H   0  0  0  0  0  0  0  0  0  0  0  0
    4.5330    5.6540   20.2870 H   0  0  0  0  0  0  0  0  0  0  0  0
    5.8210    4.4170   17.3140 C   0  0  0  0  0  0  0  0  0  0  0  0
    4.9360    4.0960   16.2730 C   0  0  0  0  0  0  0  0  0  0  0  0
    5.3520    4.1460   14.9410 C   0  0  0  0  0  0  0  0  0  0  0  0
    6.6580    4.5120   14.6280 C   0  0  0  0  0  0  0  0  0  0  0  0
    7.5530    4.8260   15.6470 C   0  0  0  0  0  0  0  0  0  0  0  0
    7.1380    4.7750   16.9790 C   0  0  0  0  0  0  0  0  0  0  0  0
    3.9120    3.7970   16.4780 H   0  0  0  0  0  0  0  0  0  0  0  0
    4.6540    3.8980   14.1460 H   0  0  0  0  0  0  0  0  0  0  0  0
    6.9800    4.5520   13.5900 H   0  0  0  0  0  0  0  0  0  0  0  0
    8.5740    5.1080   15.4060 H   0  0  0  0  0  0  0  0  0  0  0  0
    7.8560    5.0200   17.7600 H   0  0  0  0  0  0  0  0  0  0  0  0
    2.1830    7.6280   18.9610 C   0  0  0  0  0  0  0  0  0  0  0  0
    1.8010    8.7880   19.5720 O   0  0  0  0  0  0  0  0  0  0  0  0
    1.0360    8.3840   20.6350 C   0  0  0  0  0  0  0  0  0  0  0  0
    0.9170    7.0740   20.7320 N   0  0  0  0  0  0  0  0  0  0  0  0
    1.6500    6.5680   19.6690 C   0  0  0  0  0  0  0  0  0  0  0  0
    0.3770    9.3680   21.6290 C   0  0  0  0  0  0  0  0  0  0  0  0
   -0.0410    9.1170   22.9440 C   0  0  0  0  0  0  0  0  0  0  0  0
   -0.5730   10.2020   23.5180 N   0  0  0  0  0  0  0  0  0  0  0  0
   -0.4890   11.1420   22.5540 N   0  0  0  0  0  0  0  0  0  0  0  0
    0.0760   10.6890   21.3970 C   0  0  0  0  0  0  0  0  0  0  0  0
    0.0190    8.1940   23.5080 H   0  0  0  0  0  0  0  0  0  0  0  0
    0.2130   11.3220   20.5320 H   0  0  0  0  0  0  0  0  0  0  0  0
   -0.9790   12.4730   22.8180 C   0  0  0  0  0  0  0  0  0  0  0  0
   -1.7630   12.4070   23.5780 H   0  0  0  0  0  0  0  0  0  0  0  0
   -1.3790   12.8840   21.8880 H   0  0  0  0  0  0  0  0  0  0  0  0
   -0.1590   13.0980   23.1800 H   0  0  0  0  0  0  0  0  0  0  0  0
    3.0260    7.7510   17.7570 C   0  0  0  0  0  0  0  0  0  0  0  0
    2.5610    7.2400   16.9090 H   0  0  0  0  0  0  0  0  0  0  0  0
    3.1680    8.8030   17.4940 H   0  0  0  0  0  0  0  0  0  0  0  0
    4.0150    7.3080   17.9170 H   0  0  0  0  0  0  0  0  0  0  0  0
    5.1450    2.6070   20.6000 C   0  0  0  0  0  0  0  0  0  0  0  0
    4.3420    2.9050   21.2840 H   0  0  0  0  0  0  0  0  0  0  0  0
    6.0450    3.1460   20.9180 H   0  0  0  0  0  0  0  0  0  0  0  0
    5.4020    1.1810   20.7740 N   0  0  0  0  0  0  0  0  0  0  0  0
    6.2620    1.0390   21.3030 H   0  0  0  0  0  0  0  0  0  0  0  0
    5.5380    0.7260   19.8720 H   0  0  0  0  0  0  0  0  0  0  0  0
  1 29  1  0  0  0  0
  2  1  2  0  0  0  0
  3  7  1  0  0  0  0
  3  1  1  0  0  0  0
  4  5  1  0  0  0  0
  4  3  1  0  0  0  0
  4  9  1  0  0  0  0
  5 10  1  6  0  0  0
  5 45  1  0  0  0  0
  6  5  1  0  0  0  0
  6  7  1  0  0  0  0
  6 11  1  1  0  0  0
  7 13  1  0  0  0  0
  8  4  1  0  0  0  0
 12  7  1  0  0  0  0
 14  6  1  0  0  0  0
 15 20  1  0  0  0  0
 15 14  2  0  0  0  0
 16 15  1  0  0  0  0
 17 16  2  0  0  0  0
 17 18  1  0  0  0  0
 18 19  2  0  0  0  0
 19 14  1  0  0  0  0
 19 24  1  0  0  0  0
 21 16  1  0  0  0  0
 22 17  1  0  0  0  0
 23 18  1  0  0  0  0
 25 26  1  0  0  0  0
 25 29  2  0  0  0  0
 26 27  1  0  0  0  0
 27 28  2  0  0  0  0
 27 30  1  0  0  0  0
 29 28  1  0  0  0  0
 30 31  1  0  0  0  0
 31 35  1  0  0  0  0
 31 32  2  0  0  0  0
 33 37  1  0  0  0  0
 33 32  1  0  0  0  0
 34 30  2  0  0  0  0
 34 33  1  0  0  0  0
 36 34  1  0  0  0  0
 37 40  1  0  0  0  0
 37 38  1  0  0  0  0
 39 37  1  0  0  0  0
 41 44  1  0  0  0  0
 41 25  1  0  0  0  0
 42 41  1  0  0  0  0
 43 41  1  0  0  0  0
 45 48  1  0  0  0  0
 45 47  1  0  0  0  0
 45 46  1  0  0  0  0
 48 49  1  0  0  0  0
 50 48  1  0  0  0  0
M  END
>  <MODEL>
10

>  <REMARK>
 VINA RESULT:    -5.325      3.676      8.980
 INTER + INTRA:          -7.767
 INTER:                  -8.009
 INTRA:                   0.241
 UNBOUND:                -0.730
  Name = 
  7 active torsions:
  status: ('A' for Active; 'I' for Inactive)
    1  A    between atoms: C_1  and  C_2
    2  A    between atoms: C_4  and  C_5
    3  A    between atoms: N_8  and  C_9
    4  A    between atoms: C_12  and  C_13
    5  A    between atoms: C_17  and  C_18
    6  A    between atoms: C_18  and  N_19
    7  A    between atoms: C_20  and  C_21
                            x       y       z     vdW  Elec       q    Type
                         _______ _______ _______ _____ _____    ______ ____

>  <TORSDO>
F 7

$$$$
=
 OpenBabel07192307433D

 50 53  0  0  1  0  0  0  0  0999 V2000
   -0.8690   10.8130   19.3610 C   0  0  0  0  0  0  0  0  0  0  0  0
   -1.6480   10.6940   18.4130 O   0  0  0  0  0  0  0  0  0  0  0  0
   -0.8370   11.9860   20.1010 N   0  0  0  0  0  0  0  0  0  0  0  0
   -1.6740   13.1140   19.7350 C   0  0  0  0  0  0  0  0  0  0  0  0
   -1.1580   14.2950   20.5630 C   0  0  1  0  0  0  0  0  0  0  0  0
   -0.6060   13.6070   21.8350 C   0  0  2  0  0  0  0  0  0  0  0  0
   -0.0660   12.2650   21.3070 C   0  0  0  0  0  0  0  0  0  0  0  0
   -2.7040   12.8630   20.0130 H   0  0  0  0  0  0  0  0  0  0  0  0
   -1.6500   13.2770   18.6540 H   0  0  0  0  0  0  0  0  0  0  0  0
   -1.9790   14.9860   20.7920 H   0  0  0  0  0  0  0  0  0  0  0  0
    0.2380   14.1630   22.2660 H   0  0  0  0  0  0  0  0  0  0  0  0
   -0.1460   11.4500   22.0310 H   0  0  0  0  0  0  0  0  0  0  0  0
    0.9810   12.3720   21.0010 H   0  0  0  0  0  0  0  0  0  0  0  0
   -1.6720   13.5180   22.9180 C   0  0  0  0  0  0  0  0  0  0  0  0
   -1.9000   14.5330   23.8590 C   0  0  0  0  0  0  0  0  0  0  0  0
   -2.8800   14.3880   24.8440 C   0  0  0  0  0  0  0  0  0  0  0  0
   -3.6430   13.2250   24.9070 C   0  0  0  0  0  0  0  0  0  0  0  0
   -3.4250   12.2030   23.9870 C   0  0  0  0  0  0  0  0  0  0  0  0
   -2.4450   12.3480   23.0030 C   0  0  0  0  0  0  0  0  0  0  0  0
   -1.3180   15.4510   23.8480 H   0  0  0  0  0  0  0  0  0  0  0  0
   -3.0460   15.1850   25.5640 H   0  0  0  0  0  0  0  0  0  0  0  0
   -4.4060   13.1150   25.6740 H   0  0  0  0  0  0  0  0  0  0  0  0
   -4.0170   11.2940   24.0360 H   0  0  0  0  0  0  0  0  0  0  0  0
   -2.2900   11.5340   22.2970 H   0  0  0  0  0  0  0  0  0  0  0  0
    0.1030    9.1050   20.9540 C   0  0  0  0  0  0  0  0  0  0  0  0
    1.0620    8.1350   20.9040 O   0  0  0  0  0  0  0  0  0  0  0  0
    1.5510    8.1970   19.6250 C   0  0  0  0  0  0  0  0  0  0  0  0
    0.9760    9.1240   18.8850 N   0  0  0  0  0  0  0  0  0  0  0  0
    0.0450    9.7240   19.7200 C   0  0  0  0  0  0  0  0  0  0  0  0
    2.6710    7.2710   19.0990 C   0  0  0  0  0  0  0  0  0  0  0  0
    3.4190    7.4020   17.9200 C   0  0  0  0  0  0  0  0  0  0  0  0
    4.3100    6.4150   17.7760 N   0  0  0  0  0  0  0  0  0  0  0  0
    4.1200    5.6570   18.8750 N   0  0  0  0  0  0  0  0  0  0  0  0
    3.1440    6.1300   19.7030 C   0  0  0  0  0  0  0  0  0  0  0  0
    3.3530    8.1720   17.1610 H   0  0  0  0  0  0  0  0  0  0  0  0
    2.8730    5.6330   20.6240 H   0  0  0  0  0  0  0  0  0  0  0  0
    4.9230    4.4740   19.0670 C   0  0  0  0  0  0  0  0  0  0  0  0
    5.5540    4.6250   19.9470 H   0  0  0  0  0  0  0  0  0  0  0  0
    5.5370    4.3250   18.1750 H   0  0  0  0  0  0  0  0  0  0  0  0
    4.2700    3.6110   19.2180 H   0  0  0  0  0  0  0  0  0  0  0  0
   -0.6160    9.2710   22.2310 C   0  0  0  0  0  0  0  0  0  0  0  0
   -1.5620    9.7990   22.0740 H   0  0  0  0  0  0  0  0  0  0  0  0
   -0.8330    8.2960   22.6780 H   0  0  0  0  0  0  0  0  0  0  0  0
   -0.0240    9.8470   22.9490 H   0  0  0  0  0  0  0  0  0  0  0  0
   -0.0490   15.0850   19.8460 C   0  0  0  0  0  0  0  0  0  0  0  0
    0.9270   14.6010   19.9720 H   0  0  0  0  0  0  0  0  0  0  0  0
    0.0340   16.0810   20.2960 H   0  0  0  0  0  0  0  0  0  0  0  0
   -0.3000   15.2670   18.4200 N   0  0  0  0  0  0  0  0  0  0  0  0
   -1.2210   15.6780   18.2730 H   0  0  0  0  0  0  0  0  0  0  0  0
   -0.3010   14.3690   17.9370 H   0  0  0  0  0  0  0  0  0  0  0  0
  1 29  1  0  0  0  0
  1  3  1  0  0  0  0
  2  1  2  0  0  0  0
  3  7  1  0  0  0  0
  4  8  1  0  0  0  0
  4  3  1  0  0  0  0
  4  5  1  0  0  0  0
  5 10  1  1  0  0  0
  5  6  1  0  0  0  0
  6 11  1  1  0  0  0
  6 14  1  0  0  0  0
  7  6  1  0  0  0  0
  7 12  1  0  0  0  0
  9  4  1  0  0  0  0
 13  7  1  0  0  0  0
 14 19  2  0  0  0  0
 14 15  1  0  0  0  0
 15 16  2  0  0  0  0
 16 17  1  0  0  0  0
 16 21  1  0  0  0  0
 17 22  1  0  0  0  0
 18 23  1  0  0  0  0
 18 17  2  0  0  0  0
 19 18  1  0  0  0  0
 20 15  1  0  0  0  0
 24 19  1  0  0  0  0
 25 41  1  0  0  0  0
 26 25  1  0  0  0  0
 27 26  1  0  0  0  0
 28 27  2  0  0  0  0
 28 29  1  0  0  0  0
 29 25  2  0  0  0  0
 30 27  1  0  0  0  0
 30 34  2  0  0  0  0
 31 30  1  0  0  0  0
 32 31  2  0  0  0  0
 32 33  1  0  0  0  0
 33 37  1  0  0  0  0
 33 34  1  0  0  0  0
 34 36  1  0  0  0  0
 35 31  1  0  0  0  0
 37 40  1  0  0  0  0
 37 38  1  0  0  0  0
 39 37  1  0  0  0  0
 41 43  1  0  0  0  0
 41 44  1  0  0  0  0
 42 41  1  0  0  0  0
 45 46  1  0  0  0  0
 45 47  1  0  0  0  0
 45  5  1  0  0  0  0
 48 45  1  0  0  0  0
 49 48  1  0  0  0  0
 50 48  1  0  0  0  0
M  END
>  <MODEL>
11

>  <REMARK>
 VINA RESULT:    -5.295      2.671      4.657
 INTER + INTRA:          -7.727
 INTER:                  -7.642
 INTRA:                  -0.085
 UNBOUND:                -0.730
  Name = 
  7 active torsions:
  status: ('A' for Active; 'I' for Inactive)
    1  A    between atoms: C_1  and  C_2
    2  A    between atoms: C_4  and  C_5
    3  A    between atoms: N_8  and  C_9
    4  A    between atoms: C_12  and  C_13
    5  A    between atoms: C_17  and  C_18
    6  A    between atoms: C_18  and  N_19
    7  A    between atoms: C_20  and  C_21
                            x       y       z     vdW  Elec       q    Type
                         _______ _______ _______ _____ _____    ______ ____

>  <TORSDO>
F 7

$$$$
=
 OpenBabel07192307433D

 50 53  0  0  1  0  0  0  0  0999 V2000
    0.3560   12.6500   19.8720 C   0  0  0  0  0  0  0  0  0  0  0  0
   -0.6610   12.9970   19.2690 O   0  0  0  0  0  0  0  0  0  0  0  0
    0.4210   11.4070   20.4850 N   0  0  0  0  0  0  0  0  0  0  0  0
   -0.7280   10.5200   20.4800 C   0  0  0  0  0  0  0  0  0  0  0  0
   -0.3950    9.4120   21.4850 C   0  0  1  0  0  0  0  0  0  0  0  0
    1.1490    9.3330   21.4100 C   0  0  2  0  0  0  0  0  0  0  0  0
    1.5660   10.7910   21.1440 C   0  0  0  0  0  0  0  0  0  0  0  0
   -0.8250   10.1130   19.4670 H   0  0  0  0  0  0  0  0  0  0  0  0
   -1.6430   11.0740   20.7080 H   0  0  0  0  0  0  0  0  0  0  0  0
   -0.8710    8.4700   21.1810 H   0  0  0  0  0  0  0  0  0  0  0  0
    1.5880    9.0250   22.3680 H   0  0  0  0  0  0  0  0  0  0  0  0
    2.4730   10.8800   20.5400 H   0  0  0  0  0  0  0  0  0  0  0  0
    1.7150   11.3210   22.0930 H   0  0  0  0  0  0  0  0  0  0  0  0
    1.5970    8.3110   20.3730 C   0  0  0  0  0  0  0  0  0  0  0  0
    1.9720    8.6550   19.0660 C   0  0  0  0  0  0  0  0  0  0  0  0
    2.3560    7.6730   18.1510 C   0  0  0  0  0  0  0  0  0  0  0  0
    2.3660    6.3320   18.5250 C   0  0  0  0  0  0  0  0  0  0  0  0
    1.9880    5.9700   19.8150 C   0  0  0  0  0  0  0  0  0  0  0  0
    1.6040    6.9520   20.7300 C   0  0  0  0  0  0  0  0  0  0  0  0
    1.9680    9.6900   18.7330 H   0  0  0  0  0  0  0  0  0  0  0  0
    2.6470    7.9560   17.1420 H   0  0  0  0  0  0  0  0  0  0  0  0
    2.6660    5.5680   17.8110 H   0  0  0  0  0  0  0  0  0  0  0  0
    1.9920    4.9240   20.1090 H   0  0  0  0  0  0  0  0  0  0  0  0
    1.3080    6.6460   21.7320 H   0  0  0  0  0  0  0  0  0  0  0  0
    1.6140   14.6390   20.8010 C   0  0  0  0  0  0  0  0  0  0  0  0
    2.8380   15.2150   20.6130 O   0  0  0  0  0  0  0  0  0  0  0  0
    3.4440   14.4370   19.6600 C   0  0  0  0  0  0  0  0  0  0  0  0
    2.6970   13.4320   19.2450 N   0  0  0  0  0  0  0  0  0  0  0  0
    1.5150   13.5450   19.9610 C   0  0  0  0  0  0  0  0  0  0  0  0
    4.8670   14.7100   19.1210 C   0  0  0  0  0  0  0  0  0  0  0  0
    5.2680   14.8850   17.7880 C   0  0  0  0  0  0  0  0  0  0  0  0
    6.5830   15.1040   17.6830 N   0  0  0  0  0  0  0  0  0  0  0  0
    7.0120   15.0670   18.9610 N   0  0  0  0  0  0  0  0  0  0  0  0
    6.0160   14.8330   19.8650 C   0  0  0  0  0  0  0  0  0  0  0  0
    4.6600   14.8610   16.8920 H   0  0  0  0  0  0  0  0  0  0  0  0
    6.2000   14.7730   20.9280 H   0  0  0  0  0  0  0  0  0  0  0  0
    8.4120   15.2670   19.2450 C   0  0  0  0  0  0  0  0  0  0  0  0
    8.5880   15.0300   20.2980 H   0  0  0  0  0  0  0  0  0  0  0  0
    8.6610   16.3100   19.0380 H   0  0  0  0  0  0  0  0  0  0  0  0
    9.0100   14.6080   18.6090 H   0  0  0  0  0  0  0  0  0  0  0  0
    0.7240   15.2670   21.7940 C   0  0  0  0  0  0  0  0  0  0  0  0
   -0.1130   15.7680   21.2980 H   0  0  0  0  0  0  0  0  0  0  0  0
    0.3220   14.5140   22.4790 H   0  0  0  0  0  0  0  0  0  0  0  0
    1.2580   16.0140   22.3910 H   0  0  0  0  0  0  0  0  0  0  0  0
   -0.8550    9.7460   22.9150 C   0  0  0  0  0  0  0  0  0  0  0  0
   -1.8340    9.3030   23.1300 H   0  0  0  0  0  0  0  0  0  0  0  0
   -0.9720   10.8310   23.0130 H   0  0  0  0  0  0  0  0  0  0  0  0
    0.0890    9.3110   23.9400 N   0  0  0  0  0  0  0  0  0  0  0  0
    1.0450    9.3900   23.5960 H   0  0  0  0  0  0  0  0  0  0  0  0
   -0.0560    8.3290   24.1710 H   0  0  0  0  0  0  0  0  0  0  0  0
  1 29  1  0  0  0  0
  1  3  1  0  0  0  0
  2  1  2  0  0  0  0
  3  7  1  0  0  0  0
  4  3  1  0  0  0  0
  4  9  1  0  0  0  0
  4  5  1  0  0  0  0
  5 10  1  6  0  0  0
  5 45  1  0  0  0  0
  6  5  1  0  0  0  0
  6 11  1  1  0  0  0
  7  6  1  0  0  0  0
  7 13  1  0  0  0  0
  8  4  1  0  0  0  0
 12  7  1  0  0  0  0
 14 19  1  0  0  0  0
 14  6  1  0  0  0  0
 15 14  2  0  0  0  0
 16 17  2  0  0  0  0
 16 15  1  0  0  0  0
 17 18  1  0  0  0  0
 18 23  1  0  0  0  0
 18 19  2  0  0  0  0
 19 24  1  0  0  0  0
 20 15  1  0  0  0  0
 21 16  1  0  0  0  0
 22 17  1  0  0  0  0
 25 41  1  0  0  0  0
 26 25  1  0  0  0  0
 27 26  1  0  0  0  0
 28 27  2  0  0  0  0
 28 29  1  0  0  0  0
 29 25  2  0  0  0  0
 30 27  1  0  0  0  0
 30 34  2  0  0  0  0
 31 30  1  0  0  0  0
 32 31  2  0  0  0  0
 32 33  1  0  0  0  0
 33 37  1  0  0  0  0
 33 34  1  0  0  0  0
 34 36  1  0  0  0  0
 35 31  1  0  0  0  0
 37 38  1  0  0  0  0
 39 37  1  0  0  0  0
 40 37  1  0  0  0  0
 41 44  1  0  0  0  0
 41 43  1  0  0  0  0
 42 41  1  0  0  0  0
 45 47  1  0  0  0  0
 45 46  1  0  0  0  0
 45 48  1  0  0  0  0
 48 50  1  0  0  0  0
 49 48  1  0  0  0  0
M  END
>  <MODEL>
12

>  <REMARK>
 VINA RESULT:    -5.230      4.177      7.471
 INTER + INTRA:          -7.641
 INTER:                  -6.857
 INTRA:                  -0.784
 UNBOUND:                -0.730
  Name = 
  7 active torsions:
  status: ('A' for Active; 'I' for Inactive)
    1  A    between atoms: C_1  and  C_2
    2  A    between atoms: C_4  and  C_5
    3  A    between atoms: N_8  and  C_9
    4  A    between atoms: C_12  and  C_13
    5  A    between atoms: C_17  and  C_18
    6  A    between atoms: C_18  and  N_19
    7  A    between atoms: C_20  and  C_21
                            x       y       z     vdW  Elec       q    Type
                         _______ _______ _______ _____ _____    ______ ____

>  <TORSDO>
F 7

$$$$
=
 OpenBabel07192307433D

 50 53  0  0  1  0  0  0  0  0999 V2000
    0.8530   11.2190   20.1810 C   0  0  0  0  0  0  0  0  0  0  0  0
    0.4310   11.0750   21.3300 O   0  0  0  0  0  0  0  0  0  0  0  0
    1.1660   12.4830   19.7000 N   0  0  0  0  0  0  0  0  0  0  0  0
    0.9450   13.6610   20.5190 C   0  0  0  0  0  0  0  0  0  0  0  0
    1.1100   14.8540   19.5740 C   0  0  1  0  0  0  0  0  0  0  0  0
    2.1190   14.3260   18.5260 C   0  0  2  0  0  0  0  0  0  0  0  0
    1.7700   12.8300   18.4200 C   0  0  0  0  0  0  0  0  0  0  0  0
    1.7160   13.6690   21.2980 H   0  0  0  0  0  0  0  0  0  0  0  0
   -0.0300   13.6090   21.0130 H   0  0  0  0  0  0  0  0  0  0  0  0
    1.5010   15.7210   20.1220 H   0  0  0  0  0  0  0  0  0  0  0  0
    1.9580   14.7810   17.5390 H   0  0  0  0  0  0  0  0  0  0  0  0
    2.6340   12.1970   18.1980 H   0  0  0  0  0  0  0  0  0  0  0  0
    1.0050   12.6740   17.6500 H   0  0  0  0  0  0  0  0  0  0  0  0
    3.5510   14.6500   18.9310 C   0  0  0  0  0  0  0  0  0  0  0  0
    4.6310   14.6110   18.0360 C   0  0  0  0  0  0  0  0  0  0  0  0
    5.9280   14.8990   18.4680 C   0  0  0  0  0  0  0  0  0  0  0  0
    6.1660   15.2240   19.8010 C   0  0  0  0  0  0  0  0  0  0  0  0
    5.1080   15.2600   20.7050 C   0  0  0  0  0  0  0  0  0  0  0  0
    3.8120   14.9710   20.2730 C   0  0  0  0  0  0  0  0  0  0  0  0
    4.4860   14.3510   16.9900 H   0  0  0  0  0  0  0  0  0  0  0  0
    6.7530   14.8670   17.7620 H   0  0  0  0  0  0  0  0  0  0  0  0
    7.1760   15.4490   20.1350 H   0  0  0  0  0  0  0  0  0  0  0  0
    5.2920   15.5110   21.7460 H   0  0  0  0  0  0  0  0  0  0  0  0
    3.0010   15.0010   20.9990 H   0  0  0  0  0  0  0  0  0  0  0  0
    0.1850    9.7270   18.2500 C   0  0  0  0  0  0  0  0  0  0  0  0
    0.6720    8.6010   17.6520 O   0  0  0  0  0  0  0  0  0  0  0  0
    1.8040    8.2940   18.3610 C   0  0  0  0  0  0  0  0  0  0  0  0
    2.0540    9.1350   19.3460 N   0  0  0  0  0  0  0  0  0  0  0  0
    1.0230   10.0620   19.2960 C   0  0  0  0  0  0  0  0  0  0  0  0
    2.7030    7.0790   18.0400 C   0  0  0  0  0  0  0  0  0  0  0  0
    2.4710    5.7280   18.3410 C   0  0  0  0  0  0  0  0  0  0  0  0
    3.4630    4.9400   17.9150 N   0  0  0  0  0  0  0  0  0  0  0  0
    4.3270    5.8020   17.3420 N   0  0  0  0  0  0  0  0  0  0  0  0
    3.9150    7.1020   17.3920 C   0  0  0  0  0  0  0  0  0  0  0  0
    1.6230    5.2860   18.8510 H   0  0  0  0  0  0  0  0  0  0  0  0
    4.4980    7.9120   16.9760 H   0  0  0  0  0  0  0  0  0  0  0  0
    5.5480    5.3000   16.7580 C   0  0  0  0  0  0  0  0  0  0  0  0
    5.3460    4.3110   16.3380 H   0  0  0  0  0  0  0  0  0  0  0  0
    6.3050    5.2380   17.5430 H   0  0  0  0  0  0  0  0  0  0  0  0
    5.8810    5.9800   15.9700 H   0  0  0  0  0  0  0  0  0  0  0  0
   -1.0500   10.3050   17.6860 C   0  0  0  0  0  0  0  0  0  0  0  0
   -0.9350   11.3830   17.5350 H   0  0  0  0  0  0  0  0  0  0  0  0
   -1.2840    9.8420   16.7230 H   0  0  0  0  0  0  0  0  0  0  0  0
   -1.9030   10.1470   18.3530 H   0  0  0  0  0  0  0  0  0  0  0  0
   -0.2100   15.2670   18.8980 C   0  0  0  0  0  0  0  0  0  0  0  0
   -0.2840   14.8520   17.8860 H   0  0  0  0  0  0  0  0  0  0  0  0
   -0.2370   16.3570   18.7940 H   0  0  0  0  0  0  0  0  0  0  0  0
   -1.3940   14.8680   19.6540 N   0  0  0  0  0  0  0  0  0  0  0  0
   -1.8680   15.6880   20.0280 H   0  0  0  0  0  0  0  0  0  0  0  0
   -1.1340   14.2920   20.4540 H   0  0  0  0  0  0  0  0  0  0  0  0
  1  2  2  0  0  0  0
  3  1  1  0  0  0  0
  3  4  1  0  0  0  0
  4  9  1  0  0  0  0
  4  8  1  0  0  0  0
  5 10  1  1  0  0  0
  5  4  1  0  0  0  0
  6 11  1  6  0  0  0
  6 14  1  0  0  0  0
  6  5  1  0  0  0  0
  7  6  1  0  0  0  0
  7  3  1  0  0  0  0
 12  7  1  0  0  0  0
 13  7  1  0  0  0  0
 14 19  1  0  0  0  0
 15 16  1  0  0  0  0
 15 14  2  0  0  0  0
 16 17  2  0  0  0  0
 17 22  1  0  0  0  0
 17 18  1  0  0  0  0
 18 23  1  0  0  0  0
 19 18  2  0  0  0  0
 19 24  1  0  0  0  0
 20 15  1  0  0  0  0
 21 16  1  0  0  0  0
 25 29  2  0  0  0  0
 26 25  1  0  0  0  0
 26 27  1  0  0  0  0
 27 28  2  0  0  0  0
 29 28  1  0  0  0  0
 29  1  1  0  0  0  0
 30 31  1  0  0  0  0
 30 27  1  0  0  0  0
 31 35  1  0  0  0  0
 32 31  2  0  0  0  0
 33 34  1  0  0  0  0
 33 32  1  0  0  0  0
 34 30  2  0  0  0  0
 36 34  1  0  0  0  0
 37 33  1  0  0  0  0
 37 39  1  0  0  0  0
 38 37  1  0  0  0  0
 40 37  1  0  0  0  0
 41 25  1  0  0  0  0
 41 44  1  0  0  0  0
 42 41  1  0  0  0  0
 43 41  1  0  0  0  0
 45  5  1  0  0  0  0
 45 48  1  0  0  0  0
 46 45  1  0  0  0  0
 47 45  1  0  0  0  0
 48 49  1  0  0  0  0
 48 50  1  0  0  0  0
M  END
>  <MODEL>
13

>  <REMARK>
 VINA RESULT:    -5.119      3.377      5.533
 INTER + INTRA:          -7.495
 INTER:                  -6.990
 INTRA:                  -0.505
 UNBOUND:                -0.730
  Name = 
  7 active torsions:
  status: ('A' for Active; 'I' for Inactive)
    1  A    between atoms: C_1  and  C_2
    2  A    between atoms: C_4  and  C_5
    3  A    between atoms: N_8  and  C_9
    4  A    between atoms: C_12  and  C_13
    5  A    between atoms: C_17  and  C_18
    6  A    between atoms: C_18  and  N_19
    7  A    between atoms: C_20  and  C_21
                            x       y       z     vdW  Elec       q    Type
                         _______ _______ _______ _____ _____    ______ ____

>  <TORSDO>
F 7

$$$$
=
 OpenBabel07192307433D

 50 53  0  0  1  0  0  0  0  0999 V2000
    1.1970    9.0620   21.0390 C   0  0  0  0  0  0  0  0  0  0  0  0
    1.3530    9.0280   22.2610 O   0  0  0  0  0  0  0  0  0  0  0  0
    0.6060   10.1630   20.4360 N   0  0  0  0  0  0  0  0  0  0  0  0
    0.1070   11.2660   21.2370 C   0  0  0  0  0  0  0  0  0  0  0  0
   -0.7270   12.1240   20.2810 C   0  0  1  0  0  0  0  0  0  0  0  0
   -0.0390   11.8830   18.9150 C   0  0  2  0  0  0  0  0  0  0  0  0
    0.4370   10.4220   19.0110 C   0  0  0  0  0  0  0  0  0  0  0  0
    0.9750   11.8230   21.6070 H   0  0  0  0  0  0  0  0  0  0  0  0
   -0.4450   10.8920   22.1040 H   0  0  0  0  0  0  0  0  0  0  0  0
   -0.6840   13.1780   20.5830 H   0  0  0  0  0  0  0  0  0  0  0  0
   -0.7520   11.9510   18.0820 H   0  0  0  0  0  0  0  0  0  0  0  0
    1.3600   10.2290   18.4560 H   0  0  0  0  0  0  0  0  0  0  0  0
   -0.3460    9.7440   18.6510 H   0  0  0  0  0  0  0  0  0  0  0  0
    1.0420   12.9220   18.6540 C   0  0  0  0  0  0  0  0  0  0  0  0
    2.3320   12.5950   18.2060 C   0  0  0  0  0  0  0  0  0  0  0  0
    3.2910   13.5900   18.0020 C   0  0  0  0  0  0  0  0  0  0  0  0
    2.9800   14.9240   18.2470 C   0  0  0  0  0  0  0  0  0  0  0  0
    1.7090   15.2670   18.7000 C   0  0  0  0  0  0  0  0  0  0  0  0
    0.7500   14.2730   18.9050 C   0  0  0  0  0  0  0  0  0  0  0  0
    2.6150   11.5640   18.0130 H   0  0  0  0  0  0  0  0  0  0  0  0
    4.2840   13.3200   17.6520 H   0  0  0  0  0  0  0  0  0  0  0  0
    3.7270   15.6970   18.0860 H   0  0  0  0  0  0  0  0  0  0  0  0
    1.4640   16.3070   18.8950 H   0  0  0  0  0  0  0  0  0  0  0  0
   -0.2360   14.5640   19.2640 H   0  0  0  0  0  0  0  0  0  0  0  0
    2.1690    8.0480   18.9350 C   0  0  0  0  0  0  0  0  0  0  0  0
    2.4500    6.7930   18.4760 O   0  0  0  0  0  0  0  0  0  0  0  0
    2.0640    5.9580   19.4930 C   0  0  0  0  0  0  0  0  0  0  0  0
    1.5690    6.5930   20.5380 N   0  0  0  0  0  0  0  0  0  0  0  0
    1.6220    7.9370   20.1990 C   0  0  0  0  0  0  0  0  0  0  0  0
    2.1950    4.4200   19.4240 C   0  0  0  0  0  0  0  0  0  0  0  0
    1.3270    3.4530   19.9540 C   0  0  0  0  0  0  0  0  0  0  0  0
    1.7500    2.2090   19.7080 N   0  0  0  0  0  0  0  0  0  0  0  0
    2.8930    2.3940   19.0180 N   0  0  0  0  0  0  0  0  0  0  0  0
    3.2050    3.7080   18.8210 C   0  0  0  0  0  0  0  0  0  0  0  0
    0.4080    3.6030   20.5070 H   0  0  0  0  0  0  0  0  0  0  0  0
    4.0910    4.0200   18.2870 H   0  0  0  0  0  0  0  0  0  0  0  0
    3.6470    1.2470   18.5740 C   0  0  0  0  0  0  0  0  0  0  0  0
    4.1920    1.5240   17.6670 H   0  0  0  0  0  0  0  0  0  0  0  0
    2.9480    0.4330   18.3700 H   0  0  0  0  0  0  0  0  0  0  0  0
    4.3500    0.9480   19.3560 H   0  0  0  0  0  0  0  0  0  0  0  0
    2.4910    9.1750   18.0400 C   0  0  0  0  0  0  0  0  0  0  0  0
    2.7490    8.8110   17.0410 H   0  0  0  0  0  0  0  0  0  0  0  0
    1.6350    9.8510   17.9530 H   0  0  0  0  0  0  0  0  0  0  0  0
    3.3400    9.7530   18.4190 H   0  0  0  0  0  0  0  0  0  0  0  0
   -2.2040   11.6960   20.2300 C   0  0  0  0  0  0  0  0  0  0  0  0
   -2.7370   12.0050   21.1370 H   0  0  0  0  0  0  0  0  0  0  0  0
   -2.2620   10.6030   20.1870 H   0  0  0  0  0  0  0  0  0  0  0  0
   -2.9160   12.2200   19.0690 N   0  0  0  0  0  0  0  0  0  0  0  0
   -2.9810   13.2360   19.1230 H   0  0  0  0  0  0  0  0  0  0  0  0
   -3.8720   11.8680   19.0420 H   0  0  0  0  0  0  0  0  0  0  0  0
  1  2  2  0  0  0  0
  3  1  1  0  0  0  0
  3  4  1  0  0  0  0
  4  8  1  0  0  0  0
  4  9  1  0  0  0  0
  5 10  1  1  0  0  0
  5  4  1  0  0  0  0
  6 11  1  6  0  0  0
  6  7  1  0  0  0  0
  6  5  1  0  0  0  0
  7  3  1  0  0  0  0
 12  7  1  0  0  0  0
 13  7  1  0  0  0  0
 14 19  1  0  0  0  0
 14  6  1  0  0  0  0
 15 14  2  0  0  0  0
 16 15  1  0  0  0  0
 16 17  2  0  0  0  0
 17 18  1  0  0  0  0
 18 23  1  0  0  0  0
 18 19  2  0  0  0  0
 19 24  1  0  0  0  0
 20 15  1  0  0  0  0
 21 16  1  0  0  0  0
 22 17  1  0  0  0  0
 25 29  2  0  0  0  0
 26 25  1  0  0  0  0
 26 27  1  0  0  0  0
 27 28  2  0  0  0  0
 29 28  1  0  0  0  0
 29  1  1  0  0  0  0
 30 27  1  0  0  0  0
 30 31  1  0  0  0  0
 31 35  1  0  0  0  0
 32 31  2  0  0  0  0
 33 32  1  0  0  0  0
 34 33  1  0  0  0  0
 34 30  2  0  0  0  0
 36 34  1  0  0  0  0
 37 33  1  0  0  0  0
 37 40  1  0  0  0  0
 38 37  1  0  0  0  0
 39 37  1  0  0  0  0
 41 44  1  0  0  0  0
 41 25  1  0  0  0  0
 42 41  1  0  0  0  0
 43 41  1  0  0  0  0
 45  5  1  0  0  0  0
 45 46  1  0  0  0  0
 47 45  1  0  0  0  0
 48 49  1  0  0  0  0
 48 45  1  0  0  0  0
 50 48  1  0  0  0  0
M  END
>  <MODEL>
14

>  <REMARK>
 VINA RESULT:    -5.097      2.625      4.013
 INTER + INTRA:          -7.466
 INTER:                  -8.543
 INTRA:                   1.078
 UNBOUND:                -0.730
  Name = 
  7 active torsions:
  status: ('A' for Active; 'I' for Inactive)
    1  A    between atoms: C_1  and  C_2
    2  A    between atoms: C_4  and  C_5
    3  A    between atoms: N_8  and  C_9
    4  A    between atoms: C_12  and  C_13
    5  A    between atoms: C_17  and  C_18
    6  A    between atoms: C_18  and  N_19
    7  A    between atoms: C_20  and  C_21
                            x       y       z     vdW  Elec       q    Type
                         _______ _______ _______ _____ _____    ______ ____

>  <TORSDO>
F 7

$$$$
=
 OpenBabel07192307433D

 50 53  0  0  1  0  0  0  0  0999 V2000
    2.3090    9.4770   18.1520 C   0  0  0  0  0  0  0  0  0  0  0  0
    3.1730   10.2030   17.6560 O   0  0  0  0  0  0  0  0  0  0  0  0
    1.1250   10.0190   18.6310 N   0  0  0  0  0  0  0  0  0  0  0  0
    0.9080   11.4540   18.6130 C   0  0  0  0  0  0  0  0  0  0  0  0
   -0.3350   11.6920   19.4760 C   0  0  1  0  0  0  0  0  0  0  0  0
   -1.1380   10.3820   19.2900 C   0  0  2  0  0  0  0  0  0  0  0  0
   -0.0410    9.3110   19.1460 C   0  0  0  0  0  0  0  0  0  0  0  0
    0.7250   11.7460   17.5730 H   0  0  0  0  0  0  0  0  0  0  0  0
    1.8030   11.9820   18.9560 H   0  0  0  0  0  0  0  0  0  0  0  0
   -0.8870   12.5680   19.1110 H   0  0  0  0  0  0  0  0  0  0  0  0
   -1.7320   10.1380   20.1810 H   0  0  0  0  0  0  0  0  0  0  0  0
   -0.3280    8.4810   18.4940 H   0  0  0  0  0  0  0  0  0  0  0  0
    0.2330    8.9150   20.1310 H   0  0  0  0  0  0  0  0  0  0  0  0
   -2.1150   10.4970   18.1280 C   0  0  0  0  0  0  0  0  0  0  0  0
   -1.9640    9.7940   16.9230 C   0  0  0  0  0  0  0  0  0  0  0  0
   -2.8820    9.9530   15.8830 C   0  0  0  0  0  0  0  0  0  0  0  0
   -3.9610   10.8210   16.0270 C   0  0  0  0  0  0  0  0  0  0  0  0
   -4.1230   11.5330   17.2130 C   0  0  0  0  0  0  0  0  0  0  0  0
   -3.2050   11.3740   18.2520 C   0  0  0  0  0  0  0  0  0  0  0  0
   -1.1290    9.1150   16.7690 H   0  0  0  0  0  0  0  0  0  0  0  0
   -2.7530    9.4000   14.9570 H   0  0  0  0  0  0  0  0  0  0  0  0
   -4.6760   10.9420   15.2170 H   0  0  0  0  0  0  0  0  0  0  0  0
   -4.9630   12.2130   17.3270 H   0  0  0  0  0  0  0  0  0  0  0  0
   -3.3500   11.9450   19.1680 H   0  0  0  0  0  0  0  0  0  0  0  0
    3.4750    7.3100   17.5640 C   0  0  0  0  0  0  0  0  0  0  0  0
    3.3740    5.9980   17.9280 O   0  0  0  0  0  0  0  0  0  0  0  0
    2.3510    5.9700   18.8400 C   0  0  0  0  0  0  0  0  0  0  0  0
    1.8140    7.1530   19.0670 N   0  0  0  0  0  0  0  0  0  0  0  0
    2.5180    8.0280   18.2540 C   0  0  0  0  0  0  0  0  0  0  0  0
    1.8700    4.6760   19.5360 C   0  0  0  0  0  0  0  0  0  0  0  0
    1.2240    3.5730   18.9590 C   0  0  0  0  0  0  0  0  0  0  0  0
    0.9490    2.6230   19.8600 N   0  0  0  0  0  0  0  0  0  0  0  0
    1.4270    3.1350   21.0130 N   0  0  0  0  0  0  0  0  0  0  0  0
    1.9910    4.3690   20.8710 C   0  0  0  0  0  0  0  0  0  0  0  0
    0.9430    3.4210   17.9250 H   0  0  0  0  0  0  0  0  0  0  0  0
    2.4180    4.9110   21.7020 H   0  0  0  0  0  0  0  0  0  0  0  0
    1.3040    2.3710   22.2310 C   0  0  0  0  0  0  0  0  0  0  0  0
    1.1630    3.0690   23.0610 H   0  0  0  0  0  0  0  0  0  0  0  0
    2.2190    1.7900   22.3680 H   0  0  0  0  0  0  0  0  0  0  0  0
    0.4440    1.7010   22.1550 H   0  0  0  0  0  0  0  0  0  0  0  0
    4.5180    7.6530   16.5780 C   0  0  0  0  0  0  0  0  0  0  0  0
    5.4250    7.9970   17.0830 H   0  0  0  0  0  0  0  0  0  0  0  0
    4.7690    6.7810   15.9670 H   0  0  0  0  0  0  0  0  0  0  0  0
    4.1830    8.4500   15.9060 H   0  0  0  0  0  0  0  0  0  0  0  0
    0.0040   11.9180   20.9600 C   0  0  0  0  0  0  0  0  0  0  0  0
    0.1540   12.9820   21.1740 H   0  0  0  0  0  0  0  0  0  0  0  0
    0.9460   11.4130   21.1960 H   0  0  0  0  0  0  0  0  0  0  0  0
   -1.0140   11.3980   21.8680 N   0  0  0  0  0  0  0  0  0  0  0  0
   -1.5380   10.6480   21.4200 H   0  0  0  0  0  0  0  0  0  0  0  0
   -1.6900   12.1230   22.1060 H   0  0  0  0  0  0  0  0  0  0  0  0
  1 29  1  0  0  0  0
  1  3  1  0  0  0  0
  2  1  2  0  0  0  0
  3  7  1  0  0  0  0
  4  3  1  0  0  0  0
  4  9  1  0  0  0  0
  4  5  1  0  0  0  0
  5 10  1  6  0  0  0
  5 45  1  0  0  0  0
  6  5  1  0  0  0  0
  6 11  1  1  0  0  0
  7  6  1  0  0  0  0
  7 13  1  0  0  0  0
  8  4  1  0  0  0  0
 12  7  1  0  0  0  0
 14 19  1  0  0  0  0
 14  6  1  0  0  0  0
 15 14  2  0  0  0  0
 16 17  2  0  0  0  0
 16 15  1  0  0  0  0
 17 18  1  0  0  0  0
 18 23  1  0  0  0  0
 18 19  2  0  0  0  0
 19 24  1  0  0  0  0
 20 15  1  0  0  0  0
 21 16  1  0  0  0  0
 22 17  1  0  0  0  0
 25 26  1  0  0  0  0
 25 29  2  0  0  0  0
 26 27  1  0  0  0  0
 27 28  2  0  0  0  0
 27 30  1  0  0  0  0
 29 28  1  0  0  0  0
 30 34  2  0  0  0  0
 31 30  1  0  0  0  0
 31 32  2  0  0  0  0
 32 33  1  0  0  0  0
 33 37  1  0  0  0  0
 34 33  1  0  0  0  0
 34 36  1  0  0  0  0
 35 31  1  0  0  0  0
 37 39  1  0  0  0  0
 37 38  1  0  0  0  0
 40 37  1  0  0  0  0
 41 42  1  0  0  0  0
 41 25  1  0  0  0  0
 43 41  1  0  0  0  0
 44 41  1  0  0  0  0
 45 46  1  0  0  0  0
 45 47  1  0  0  0  0
 45 48  1  0  0  0  0
 48 50  1  0  0  0  0
 49 48  1  0  0  0  0
M  END
>  <MODEL>
15

>  <REMARK>
 VINA RESULT:    -5.010      1.820      2.607
 INTER + INTRA:          -7.350
 INTER:                  -7.283
 INTRA:                  -0.068
 UNBOUND:                -0.730
  Name = 
  7 active torsions:
  status: ('A' for Active; 'I' for Inactive)
    1  A    between atoms: C_1  and  C_2
    2  A    between atoms: C_4  and  C_5
    3  A    between atoms: N_8  and  C_9
    4  A    between atoms: C_12  and  C_13
    5  A    between atoms: C_17  and  C_18
    6  A    between atoms: C_18  and  N_19
    7  A    between atoms: C_20  and  C_21
                            x       y       z     vdW  Elec       q    Type
                         _______ _______ _______ _____ _____    ______ ____

>  <TORSDO>
F 7

$$$$
=
 OpenBabel07192307433D

 50 53  0  0  1  0  0  0  0  0999 V2000
    1.9480   13.7800   19.3930 C   0  0  0  0  0  0  0  0  0  0  0  0
    1.9360   14.4500   18.3590 O   0  0  0  0  0  0  0  0  0  0  0  0
    1.1860   12.6240   19.4910 N   0  0  0  0  0  0  0  0  0  0  0  0
    0.3150   12.2180   18.4030 C   0  0  0  0  0  0  0  0  0  0  0  0
   -0.5680   11.1070   18.9770 C   0  0  1  0  0  0  0  0  0  0  0  0
    0.3410   10.4660   20.0530 C   0  0  2  0  0  0  0  0  0  0  0  0
    1.1560   11.6600   20.5840 C   0  0  0  0  0  0  0  0  0  0  0  0
    0.9530   11.8360   17.5980 H   0  0  0  0  0  0  0  0  0  0  0  0
   -0.2380   13.0770   18.0120 H   0  0  0  0  0  0  0  0  0  0  0  0
   -0.8380   10.3920   18.1880 H   0  0  0  0  0  0  0  0  0  0  0  0
   -0.2420   10.0580   20.8890 H   0  0  0  0  0  0  0  0  0  0  0  0
    2.1660   11.3870   20.9060 H   0  0  0  0  0  0  0  0  0  0  0  0
    0.6300   12.1360   21.4200 H   0  0  0  0  0  0  0  0  0  0  0  0
    1.1470    9.3110   19.4750 C   0  0  0  0  0  0  0  0  0  0  0  0
    1.5540    9.2520   18.1340 C   0  0  0  0  0  0  0  0  0  0  0  0
    2.2760    8.1570   17.6540 C   0  0  0  0  0  0  0  0  0  0  0  0
    2.5980    7.1030   18.5040 C   0  0  0  0  0  0  0  0  0  0  0  0
    2.1960    7.1400   19.8360 C   0  0  0  0  0  0  0  0  0  0  0  0
    1.4740    8.2340   20.3160 C   0  0  0  0  0  0  0  0  0  0  0  0
    1.3130   10.0510   17.4370 H   0  0  0  0  0  0  0  0  0  0  0  0
    2.5860    8.1270   16.6120 H   0  0  0  0  0  0  0  0  0  0  0  0
    3.1610    6.2520   18.1280 H   0  0  0  0  0  0  0  0  0  0  0  0
    2.4440    6.3170   20.5020 H   0  0  0  0  0  0  0  0  0  0  0  0
    1.1660    8.2390   21.3610 H   0  0  0  0  0  0  0  0  0  0  0  0
    2.2750   14.8170   21.6770 C   0  0  0  0  0  0  0  0  0  0  0  0
    3.3200   15.0330   22.5290 O   0  0  0  0  0  0  0  0  0  0  0  0
    4.4110   14.5200   21.8750 C   0  0  0  0  0  0  0  0  0  0  0  0
    4.1250   14.0090   20.6930 N   0  0  0  0  0  0  0  0  0  0  0  0
    2.7590   14.1930   20.5430 C   0  0  0  0  0  0  0  0  0  0  0  0
    5.8400   14.5400   22.4640 C   0  0  0  0  0  0  0  0  0  0  0  0
    6.2210   14.4420   23.8110 C   0  0  0  0  0  0  0  0  0  0  0  0
    7.5480   14.4950   23.9630 N   0  0  0  0  0  0  0  0  0  0  0  0
    8.0050   14.6270   22.7010 N   0  0  0  0  0  0  0  0  0  0  0  0
    7.0150   14.6590   21.7620 C   0  0  0  0  0  0  0  0  0  0  0  0
    5.5900   14.3360   24.6850 H   0  0  0  0  0  0  0  0  0  0  0  0
    7.2210   14.7610   20.7060 H   0  0  0  0  0  0  0  0  0  0  0  0
    9.4260   14.7180   22.4680 C   0  0  0  0  0  0  0  0  0  0  0  0
    9.6730   14.1010   21.6000 H   0  0  0  0  0  0  0  0  0  0  0  0
    9.9460   14.3560   23.3580 H   0  0  0  0  0  0  0  0  0  0  0  0
    9.6970   15.7600   22.2760 H   0  0  0  0  0  0  0  0  0  0  0  0
    0.9430   15.2670   22.1240 C   0  0  0  0  0  0  0  0  0  0  0  0
    0.6010   16.1130   21.5210 H   0  0  0  0  0  0  0  0  0  0  0  0
    0.2150   14.4560   22.0320 H   0  0  0  0  0  0  0  0  0  0  0  0
    0.9620   15.5860   23.1720 H   0  0  0  0  0  0  0  0  0  0  0  0
   -1.8660   11.6420   19.6080 C   0  0  0  0  0  0  0  0  0  0  0  0
   -1.6690   12.5240   20.2290 H   0  0  0  0  0  0  0  0  0  0  0  0
   -2.2870   10.8780   20.2700 H   0  0  0  0  0  0  0  0  0  0  0  0
   -2.8870   11.9830   18.6230 N   0  0  0  0  0  0  0  0  0  0  0  0
   -3.2900   12.8960   18.8320 H   0  0  0  0  0  0  0  0  0  0  0  0
   -3.6550   11.3130   18.6520 H   0  0  0  0  0  0  0  0  0  0  0  0
  1  3  1  0  0  0  0
  1 29  1  0  0  0  0
  2  1  2  0  0  0  0
  3  7  1  0  0  0  0
  4  5  1  0  0  0  0
  4  3  1  0  0  0  0
  5 10  1  6  0  0  0
  5 45  1  0  0  0  0
  5  6  1  0  0  0  0
  6  7  1  0  0  0  0
  6 11  1  1  0  0  0
  7 12  1  0  0  0  0
  7 13  1  0  0  0  0
  8  4  1  0  0  0  0
  9  4  1  0  0  0  0
 14  6  1  0  0  0  0
 14 19  1  0  0  0  0
 15 14  2  0  0  0  0
 16 15  1  0  0  0  0
 16 17  2  0  0  0  0
 17 18  1  0  0  0  0
 18 19  2  0  0  0  0
 18 23  1  0  0  0  0
 19 24  1  0  0  0  0
 20 15  1  0  0  0  0
 21 16  1  0  0  0  0
 22 17  1  0  0  0  0
 25 41  1  0  0  0  0
 25 26  1  0  0  0  0
 27 30  1  0  0  0  0
 27 26  1  0  0  0  0
 28 27  2  0  0  0  0
 29 28  1  0  0  0  0
 29 25  2  0  0  0  0
 30 31  1  0  0  0  0
 31 32  2  0  0  0  0
 31 35  1  0  0  0  0
 33 32  1  0  0  0  0
 34 30  2  0  0  0  0
 34 33  1  0  0  0  0
 36 34  1  0  0  0  0
 37 33  1  0  0  0  0
 37 39  1  0  0  0  0
 38 37  1  0  0  0  0
 40 37  1  0  0  0  0
 41 44  1  0  0  0  0
 42 41  1  0  0  0  0
 43 41  1  0  0  0  0
 45 46  1  0  0  0  0
 45 47  1  0  0  0  0
 48 50  1  0  0  0  0
 48 49  1  0  0  0  0
 48 45  1  0  0  0  0
M  END
>  <MODEL>
16

>  <REMARK>
 VINA RESULT:    -5.006      4.922      7.643
 INTER + INTRA:          -7.345
 INTER:                  -6.820
 INTRA:                  -0.525
 UNBOUND:                -0.730
  Name = 
  7 active torsions:
  status: ('A' for Active; 'I' for Inactive)
    1  A    between atoms: C_1  and  C_2
    2  A    between atoms: C_4  and  C_5
    3  A    between atoms: N_8  and  C_9
    4  A    between atoms: C_12  and  C_13
    5  A    between atoms: C_17  and  C_18
    6  A    between atoms: C_18  and  N_19
    7  A    between atoms: C_20  and  C_21
                            x       y       z     vdW  Elec       q    Type
                         _______ _______ _______ _____ _____    ______ ____

>  <TORSDO>
F 7

$$$$
=
 OpenBabel07192307433D

 50 53  0  0  1  0  0  0  0  0999 V2000
    1.8730    5.3800   17.8690 C   0  0  0  0  0  0  0  0  0  0  0  0
    0.8580    4.8900   17.3700 O   0  0  0  0  0  0  0  0  0  0  0  0
    3.0770    4.6930   17.8300 N   0  0  0  0  0  0  0  0  0  0  0  0
    3.1500    3.3610   17.2570 C   0  0  0  0  0  0  0  0  0  0  0  0
    4.5240    2.8160   17.6580 C   0  0  1  0  0  0  0  0  0  0  0  0
    5.3850    4.0980   17.7600 C   0  0  2  0  0  0  0  0  0  0  0  0
    4.3880    5.1550   18.2680 C   0  0  0  0  0  0  0  0  0  0  0  0
    3.0730    3.4660   16.1690 H   0  0  0  0  0  0  0  0  0  0  0  0
    2.3070    2.7500   17.5950 H   0  0  0  0  0  0  0  0  0  0  0  0
    4.8990    2.1280   16.8890 H   0  0  0  0  0  0  0  0  0  0  0  0
    6.1810    3.9960   18.5110 H   0  0  0  0  0  0  0  0  0  0  0  0
    4.6010    6.1640   17.9020 H   0  0  0  0  0  0  0  0  0  0  0  0
    4.3760    5.1680   19.3640 H   0  0  0  0  0  0  0  0  0  0  0  0
    6.0690    4.4070   16.4350 C   0  0  0  0  0  0  0  0  0  0  0  0
    7.0420    5.4070   16.2860 C   0  0  0  0  0  0  0  0  0  0  0  0
    7.6220    5.6600   15.0410 C   0  0  0  0  0  0  0  0  0  0  0  0
    7.2350    4.9230   13.9250 C   0  0  0  0  0  0  0  0  0  0  0  0
    6.2650    3.9320   14.0520 C   0  0  0  0  0  0  0  0  0  0  0  0
    5.6850    3.6790   15.2960 C   0  0  0  0  0  0  0  0  0  0  0  0
    7.3620    6.0100   17.1310 H   0  0  0  0  0  0  0  0  0  0  0  0
    8.3760    6.4360   14.9420 H   0  0  0  0  0  0  0  0  0  0  0  0
    7.6890    5.1200   12.9570 H   0  0  0  0  0  0  0  0  0  0  0  0
    5.9600    3.3570   13.1820 H   0  0  0  0  0  0  0  0  0  0  0  0
    4.9250    2.9030   15.3700 H   0  0  0  0  0  0  0  0  0  0  0  0
    1.8640    6.9080   19.8850 C   0  0  0  0  0  0  0  0  0  0  0  0
    1.8160    8.2540   20.1100 O   0  0  0  0  0  0  0  0  0  0  0  0
    1.7580    8.8120   18.8590 C   0  0  0  0  0  0  0  0  0  0  0  0
    1.7640    7.9240   17.8840 N   0  0  0  0  0  0  0  0  0  0  0  0
    1.8270    6.6930   18.5210 C   0  0  0  0  0  0  0  0  0  0  0  0
    1.6900   10.3370   18.6130 C   0  0  0  0  0  0  0  0  0  0  0  0
    2.5660   11.1300   17.8580 C   0  0  0  0  0  0  0  0  0  0  0  0
    2.2060   12.4180   17.8590 N   0  0  0  0  0  0  0  0  0  0  0  0
    1.0930   12.4340   18.6200 N   0  0  0  0  0  0  0  0  0  0  0  0
    0.7410   11.2050   19.0980 C   0  0  0  0  0  0  0  0  0  0  0  0
    3.4500   10.8270   17.3100 H   0  0  0  0  0  0  0  0  0  0  0  0
   -0.1270   11.0530   19.7240 H   0  0  0  0  0  0  0  0  0  0  0  0
    0.4100   13.6830   18.8510 C   0  0  0  0  0  0  0  0  0  0  0  0
    1.0850   14.5000   18.5810 H   0  0  0  0  0  0  0  0  0  0  0  0
    0.1420   13.7400   19.9090 H   0  0  0  0  0  0  0  0  0  0  0  0
   -0.4920   13.7250   18.2340 H   0  0  0  0  0  0  0  0  0  0  0  0
    1.9410    6.0330   21.0700 C   0  0  0  0  0  0  0  0  0  0  0  0
    1.6140    5.0190   20.8210 H   0  0  0  0  0  0  0  0  0  0  0  0
    2.9670    5.9860   21.4450 H   0  0  0  0  0  0  0  0  0  0  0  0
    1.3030    6.4040   21.8790 H   0  0  0  0  0  0  0  0  0  0  0  0
    4.5000    2.0680   19.0030 C   0  0  0  0  0  0  0  0  0  0  0  0
    3.7210    2.4660   19.6640 H   0  0  0  0  0  0  0  0  0  0  0  0
    5.4550    2.2180   19.5170 H   0  0  0  0  0  0  0  0  0  0  0  0
    4.2990    0.6290   18.8580 N   0  0  0  0  0  0  0  0  0  0  0  0
    4.4260    0.1630   19.7560 H   0  0  0  0  0  0  0  0  0  0  0  0
    4.9890    0.2300   18.2230 H   0  0  0  0  0  0  0  0  0  0  0  0
  1 29  1  0  0  0  0
  2  1  2  0  0  0  0
  3  1  1  0  0  0  0
  3  7  1  0  0  0  0
  4  9  1  0  0  0  0
  4  5  1  0  0  0  0
  4  3  1  0  0  0  0
  5 10  1  6  0  0  0
  5  6  1  0  0  0  0
  5 45  1  0  0  0  0
  6  7  1  0  0  0  0
  6 11  1  1  0  0  0
  7 13  1  0  0  0  0
  8  4  1  0  0  0  0
 12  7  1  0  0  0  0
 14  6  1  0  0  0  0
 15 14  1  0  0  0  0
 15 20  1  0  0  0  0
 16 15  2  0  0  0  0
 17 18  2  0  0  0  0
 17 16  1  0  0  0  0
 18 19  1  0  0  0  0
 19 24  1  0  0  0  0
 19 14  2  0  0  0  0
 21 16  1  0  0  0  0
 22 17  1  0  0  0  0
 23 18  1  0  0  0  0
 25 26  1  0  0  0  0
 25 41  1  0  0  0  0
 27 26  1  0  0  0  0
 28 29  1  0  0  0  0
 28 27  2  0  0  0  0
 29 25  2  0  0  0  0
 30 27  1  0  0  0  0
 30 34  2  0  0  0  0
 31 32  2  0  0  0  0
 31 30  1  0  0  0  0
 32 33  1  0  0  0  0
 33 37  1  0  0  0  0
 33 34  1  0  0  0  0
 34 36  1  0  0  0  0
 35 31  1  0  0  0  0
 37 39  1  0  0  0  0
 38 37  1  0  0  0  0
 40 37  1  0  0  0  0
 41 43  1  0  0  0  0
 41 44  1  0  0  0  0
 42 41  1  0  0  0  0
 45 47  1  0  0  0  0
 45 46  1  0  0  0  0
 48 45  1  0  0  0  0
 48 49  1  0  0  0  0
 50 48  1  0  0  0  0
M  END
>  <MODEL>
17

>  <REMARK>
 VINA RESULT:    -4.792      3.090      8.881
 INTER + INTRA:          -7.063
 INTER:                  -6.546
 INTRA:                  -0.517
 UNBOUND:                -0.730
  Name = 
  7 active torsions:
  status: ('A' for Active; 'I' for Inactive)
    1  A    between atoms: C_1  and  C_2
    2  A    between atoms: C_4  and  C_5
    3  A    between atoms: N_8  and  C_9
    4  A    between atoms: C_12  and  C_13
    5  A    between atoms: C_17  and  C_18
    6  A    between atoms: C_18  and  N_19
    7  A    between atoms: C_20  and  C_21
                            x       y       z     vdW  Elec       q    Type
                         _______ _______ _______ _____ _____    ______ ____

>  <TORSDO>
F 7

$$$$
=
 OpenBabel07192307433D

 50 53  0  0  1  0  0  0  0  0999 V2000
    1.6730    8.6700   20.0580 C   0  0  0  0  0  0  0  0  0  0  0  0
    2.2560    9.0170   21.0880 O   0  0  0  0  0  0  0  0  0  0  0  0
    2.1870    7.6510   19.2690 N   0  0  0  0  0  0  0  0  0  0  0  0
    3.4480    7.0180   19.6070 C   0  0  0  0  0  0  0  0  0  0  0  0
    3.8310    6.1850   18.3800 C   0  0  1  0  0  0  0  0  0  0  0  0
    2.4570    5.8120   17.7750 C   0  0  2  0  0  0  0  0  0  0  0  0
    1.5860    7.0430   18.0880 C   0  0  0  0  0  0  0  0  0  0  0  0
    3.2710    6.3750   20.4770 H   0  0  0  0  0  0  0  0  0  0  0  0
    4.1910    7.7690   19.8920 H   0  0  0  0  0  0  0  0  0  0  0  0
    4.4000    5.2980   18.6870 H   0  0  0  0  0  0  0  0  0  0  0  0
    2.5070    5.7040   16.6830 H   0  0  0  0  0  0  0  0  0  0  0  0
    0.5330    6.7990   18.2540 H   0  0  0  0  0  0  0  0  0  0  0  0
    1.6600    7.7750   17.2760 H   0  0  0  0  0  0  0  0  0  0  0  0
    1.9560    4.4840   18.3250 C   0  0  0  0  0  0  0  0  0  0  0  0
    1.1790    4.3760   19.4890 C   0  0  0  0  0  0  0  0  0  0  0  0
    0.7640    3.1280   19.9580 C   0  0  0  0  0  0  0  0  0  0  0  0
    1.1240    1.9680   19.2770 C   0  0  0  0  0  0  0  0  0  0  0  0
    1.9020    2.0540   18.1260 C   0  0  0  0  0  0  0  0  0  0  0  0
    2.3170    3.3020   17.6560 C   0  0  0  0  0  0  0  0  0  0  0  0
    0.8860    5.2580   20.0530 H   0  0  0  0  0  0  0  0  0  0  0  0
    0.1600    3.0610   20.8590 H   0  0  0  0  0  0  0  0  0  0  0  0
    0.7990    0.9970   19.6430 H   0  0  0  0  0  0  0  0  0  0  0  0
    2.1860    1.1510   17.5930 H   0  0  0  0  0  0  0  0  0  0  0  0
    2.9290    3.3440   16.7570 H   0  0  0  0  0  0  0  0  0  0  0  0
   -0.4140   10.0370   20.4770 C   0  0  0  0  0  0  0  0  0  0  0  0
   -1.4510   10.5180   19.7300 O   0  0  0  0  0  0  0  0  0  0  0  0
   -1.1890   10.0880   18.4550 C   0  0  0  0  0  0  0  0  0  0  0  0
   -0.0790    9.3830   18.3540 N   0  0  0  0  0  0  0  0  0  0  0  0
    0.4330    9.3330   19.6420 C   0  0  0  0  0  0  0  0  0  0  0  0
   -2.1050   10.3990   17.2490 C   0  0  0  0  0  0  0  0  0  0  0  0
   -3.1040   11.3790   17.1530 C   0  0  0  0  0  0  0  0  0  0  0  0
   -3.7050   11.3690   15.9580 N   0  0  0  0  0  0  0  0  0  0  0  0
   -3.0780   10.3730   15.2980 N   0  0  0  0  0  0  0  0  0  0  0  0
   -2.1060    9.7580   16.0330 C   0  0  0  0  0  0  0  0  0  0  0  0
   -3.4190   12.0980   17.8990 H   0  0  0  0  0  0  0  0  0  0  0  0
   -1.5150    8.9410   15.6450 H   0  0  0  0  0  0  0  0  0  0  0  0
   -3.4710   10.0630   13.9450 C   0  0  0  0  0  0  0  0  0  0  0  0
   -2.5760    9.7850   13.3820 H   0  0  0  0  0  0  0  0  0  0  0  0
   -3.9400   10.9480   13.5110 H   0  0  0  0  0  0  0  0  0  0  0  0
   -4.1800    9.2300   13.9540 H   0  0  0  0  0  0  0  0  0  0  0  0
   -0.4220   10.3550   21.9170 C   0  0  0  0  0  0  0  0  0  0  0  0
   -0.7750   11.3770   22.0830 H   0  0  0  0  0  0  0  0  0  0  0  0
   -1.0800    9.6680   22.4570 H   0  0  0  0  0  0  0  0  0  0  0  0
    0.5810   10.2690   22.3480 H   0  0  0  0  0  0  0  0  0  0  0  0
    4.6780    6.9730   17.3650 C   0  0  0  0  0  0  0  0  0  0  0  0
    5.6190    7.3140   17.8130 H   0  0  0  0  0  0  0  0  0  0  0  0
    4.1310    7.8730   17.0600 H   0  0  0  0  0  0  0  0  0  0  0  0
    4.9830    6.2140   16.1570 N   0  0  0  0  0  0  0  0  0  0  0  0
    5.1590    6.8460   15.3770 H   0  0  0  0  0  0  0  0  0  0  0  0
    4.1920    5.6310   15.8860 H   0  0  0  0  0  0  0  0  0  0  0  0
  1  2  2  0  0  0  0
  3  4  1  0  0  0  0
  3  1  1  0  0  0  0
  4  9  1  0  0  0  0
  4  8  1  0  0  0  0
  5 10  1  1  0  0  0
  5  4  1  0  0  0  0
  6 11  1  6  0  0  0
  6  7  1  0  0  0  0
  6 14  1  0  0  0  0
  6  5  1  0  0  0  0
  7 12  1  0  0  0  0
  7  3  1  0  0  0  0
 13  7  1  0  0  0  0
 14 15  1  0  0  0  0
 15 16  2  0  0  0  0
 15 20  1  0  0  0  0
 16 21  1  0  0  0  0
 17 22  1  0  0  0  0
 17 16  1  0  0  0  0
 18 17  2  0  0  0  0
 19 18  1  0  0  0  0
 19 14  2  0  0  0  0
 23 18  1  0  0  0  0
 24 19  1  0  0  0  0
 25 41  1  0  0  0  0
 26 25  1  0  0  0  0
 27 26  1  0  0  0  0
 28 27  2  0  0  0  0
 28 29  1  0  0  0  0
 29  1  1  0  0  0  0
 29 25  2  0  0  0  0
 30 27  1  0  0  0  0
 31 30  1  0  0  0  0
 31 35  1  0  0  0  0
 32 31  2  0  0  0  0
 33 32  1  0  0  0  0
 33 34  1  0  0  0  0
 34 30  2  0  0  0  0
 36 34  1  0  0  0  0
 37 40  1  0  0  0  0
 37 33  1  0  0  0  0
 38 37  1  0  0  0  0
 39 37  1  0  0  0  0
 41 42  1  0  0  0  0
 41 44  1  0  0  0  0
 41 43  1  0  0  0  0
 45 46  1  0  0  0  0
 45  5  1  0  0  0  0
 47 45  1  0  0  0  0
 48 45  1  0  0  0  0
 49 48  1  0  0  0  0
 50 48  1  0  0  0  0
M  END
>  <MODEL>
18

>  <REMARK>
 VINA RESULT:    -4.676      2.087      7.573
 INTER + INTRA:          -6.909
 INTER:                  -6.935
 INTRA:                   0.026
 UNBOUND:                -0.730
  Name = 
  7 active torsions:
  status: ('A' for Active; 'I' for Inactive)
    1  A    between atoms: C_1  and  C_2
    2  A    between atoms: C_4  and  C_5
    3  A    between atoms: N_8  and  C_9
    4  A    between atoms: C_12  and  C_13
    5  A    between atoms: C_17  and  C_18
    6  A    between atoms: C_18  and  N_19
    7  A    between atoms: C_20  and  C_21
                            x       y       z     vdW  Elec       q    Type
                         _______ _______ _______ _____ _____    ______ ____

>  <TORSDO>
F 7

$$$$
=
 OpenBabel07192307433D

 50 53  0  0  1  0  0  0  0  0999 V2000
   -1.1930   10.8170   19.4710 C   0  0  0  0  0  0  0  0  0  0  0  0
   -0.9380    9.7410   20.0150 O   0  0  0  0  0  0  0  0  0  0  0  0
   -0.6210   11.9930   19.9360 N   0  0  0  0  0  0  0  0  0  0  0  0
    0.2370   11.9850   21.1070 C   0  0  0  0  0  0  0  0  0  0  0  0
    0.4240   13.4560   21.4890 C   0  0  1  0  0  0  0  0  0  0  0  0
    0.3030   14.1830   20.1280 C   0  0  2  0  0  0  0  0  0  0  0  0
   -0.7220   13.3280   19.3590 C   0  0  0  0  0  0  0  0  0  0  0  0
    1.1910   11.5330   20.8120 H   0  0  0  0  0  0  0  0  0  0  0  0
   -0.1960   11.3660   21.8970 H   0  0  0  0  0  0  0  0  0  0  0  0
    1.4090   13.6060   21.9490 H   0  0  0  0  0  0  0  0  0  0  0  0
   -0.1160   15.1920   20.2400 H   0  0  0  0  0  0  0  0  0  0  0  0
   -0.5510   13.3120   18.2790 H   0  0  0  0  0  0  0  0  0  0  0  0
   -1.7380   13.6880   19.5560 H   0  0  0  0  0  0  0  0  0  0  0  0
    1.6660   14.3440   19.4680 C   0  0  0  0  0  0  0  0  0  0  0  0
    2.0040   13.7470   18.2440 C   0  0  0  0  0  0  0  0  0  0  0  0
    3.2780   13.9140   17.6950 C   0  0  0  0  0  0  0  0  0  0  0  0
    4.2340   14.6740   18.3630 C   0  0  0  0  0  0  0  0  0  0  0  0
    3.9200   15.2670   19.5830 C   0  0  0  0  0  0  0  0  0  0  0  0
    2.6470   15.1000   20.1320 C   0  0  0  0  0  0  0  0  0  0  0  0
    1.2880   13.1390   17.6980 H   0  0  0  0  0  0  0  0  0  0  0  0
    3.5230   13.4480   16.7450 H   0  0  0  0  0  0  0  0  0  0  0  0
    5.2250   14.8040   17.9330 H   0  0  0  0  0  0  0  0  0  0  0  0
    4.6650   15.8580   20.1070 H   0  0  0  0  0  0  0  0  0  0  0  0
    2.4250   15.5690   21.0890 H   0  0  0  0  0  0  0  0  0  0  0  0
   -3.3400   11.5120   18.3280 C   0  0  0  0  0  0  0  0  0  0  0  0
   -3.8950   11.3680   17.0890 O   0  0  0  0  0  0  0  0  0  0  0  0
   -2.9700   10.6510   16.3750 C   0  0  0  0  0  0  0  0  0  0  0  0
   -1.8940   10.3400   17.0700 N   0  0  0  0  0  0  0  0  0  0  0  0
   -2.1120   10.8790   18.3300 C   0  0  0  0  0  0  0  0  0  0  0  0
   -3.1690   10.2430   14.8980 C   0  0  0  0  0  0  0  0  0  0  0  0
   -2.2390    9.6450   14.0340 C   0  0  0  0  0  0  0  0  0  0  0  0
   -2.7500    9.4300   12.8170 N   0  0  0  0  0  0  0  0  0  0  0  0
   -4.0110    9.8970   12.9170 N   0  0  0  0  0  0  0  0  0  0  0  0
   -4.3120   10.3970   14.1500 C   0  0  0  0  0  0  0  0  0  0  0  0
   -1.2150    9.3580   14.2380 H   0  0  0  0  0  0  0  0  0  0  0  0
   -5.2820   10.8090   14.3880 H   0  0  0  0  0  0  0  0  0  0  0  0
   -4.8840    9.8300   11.7700 C   0  0  0  0  0  0  0  0  0  0  0  0
   -4.3940    9.2310   10.9980 H   0  0  0  0  0  0  0  0  0  0  0  0
   -5.0620   10.8470   11.4120 H   0  0  0  0  0  0  0  0  0  0  0  0
   -5.8300    9.3650   12.0600 H   0  0  0  0  0  0  0  0  0  0  0  0
   -4.1200   12.2640   19.3290 C   0  0  0  0  0  0  0  0  0  0  0  0
   -4.3090   13.2840   18.9810 H   0  0  0  0  0  0  0  0  0  0  0  0
   -5.0820   11.7750   19.5110 H   0  0  0  0  0  0  0  0  0  0  0  0
   -3.5870   12.3250   20.2830 H   0  0  0  0  0  0  0  0  0  0  0  0
   -0.6490   13.9580   22.4710 C   0  0  0  0  0  0  0  0  0  0  0  0
   -1.5160   14.3640   21.9370 H   0  0  0  0  0  0  0  0  0  0  0  0
   -0.2360   14.7770   23.0700 H   0  0  0  0  0  0  0  0  0  0  0  0
   -1.1110   12.9270   23.3950 N   0  0  0  0  0  0  0  0  0  0  0  0
   -0.3200   12.5060   23.8800 H   0  0  0  0  0  0  0  0  0  0  0  0
   -1.5790   12.1740   22.8920 H   0  0  0  0  0  0  0  0  0  0  0  0
  1  3  1  0  0  0  0
  1  2  2  0  0  0  0
  3  4  1  0  0  0  0
  4  5  1  0  0  0  0
  4  9  1  0  0  0  0
  5 10  1  1  0  0  0
  5 45  1  0  0  0  0
  6 11  1  1  0  0  0
  6  5  1  0  0  0  0
  7 13  1  0  0  0  0
  7  3  1  0  0  0  0
  7  6  1  0  0  0  0
  8  4  1  0  0  0  0
 12  7  1  0  0  0  0
 14  6  1  0  0  0  0
 14 19  1  0  0  0  0
 15 14  2  0  0  0  0
 16 15  1  0  0  0  0
 16 17  2  0  0  0  0
 17 18  1  0  0  0  0
 18 23  1  0  0  0  0
 18 19  2  0  0  0  0
 19 24  1  0  0  0  0
 20 15  1  0  0  0  0
 21 16  1  0  0  0  0
 22 17  1  0  0  0  0
 25 29  2  0  0  0  0
 25 41  1  0  0  0  0
 26 25  1  0  0  0  0
 27 28  2  0  0  0  0
 27 26  1  0  0  0  0
 28 29  1  0  0  0  0
 29  1  1  0  0  0  0
 30 27  1  0  0  0  0
 31 35  1  0  0  0  0
 31 30  1  0  0  0  0
 32 33  1  0  0  0  0
 32 31  2  0  0  0  0
 33 34  1  0  0  0  0
 34 36  1  0  0  0  0
 34 30  2  0  0  0  0
 37 40  1  0  0  0  0
 37 33  1  0  0  0  0
 38 37  1  0  0  0  0
 39 37  1  0  0  0  0
 41 43  1  0  0  0  0
 41 44  1  0  0  0  0
 42 41  1  0  0  0  0
 45 47  1  0  0  0  0
 45 48  1  0  0  0  0
 46 45  1  0  0  0  0
 48 49  1  0  0  0  0
 50 48  1  0  0  0  0
M  END
>  <MODEL>
19

>  <REMARK>
 VINA RESULT:    -4.620      4.604      7.103
 INTER + INTRA:          -6.835
 INTER:                  -6.123
 INTRA:                  -0.712
 UNBOUND:                -0.730
  Name = 
  7 active torsions:
  status: ('A' for Active; 'I' for Inactive)
    1  A    between atoms: C_1  and  C_2
    2  A    between atoms: C_4  and  C_5
    3  A    between atoms: N_8  and  C_9
    4  A    between atoms: C_12  and  C_13
    5  A    between atoms: C_17  and  C_18
    6  A    between atoms: C_18  and  N_19
    7  A    between atoms: C_20  and  C_21
                            x       y       z     vdW  Elec       q    Type
                         _______ _______ _______ _____ _____    ______ ____

>  <TORSDO>
F 7

$$$$
=
 OpenBabel07192307433D

 50 53  0  0  1  0  0  0  0  0999 V2000
    0.9090    9.5570   20.6500 C   0  0  0  0  0  0  0  0  0  0  0  0
    0.4250    9.3130   21.7570 O   0  0  0  0  0  0  0  0  0  0  0  0
    0.8710   10.8450   20.1340 N   0  0  0  0  0  0  0  0  0  0  0  0
    0.2070   11.9130   20.8590 C   0  0  0  0  0  0  0  0  0  0  0  0
    0.1020   13.0770   19.8710 C   0  0  1  0  0  0  0  0  0  0  0  0
    1.3370   12.8680   18.9610 C   0  0  2  0  0  0  0  0  0  0  0  0
    1.4790   11.3360   18.9040 C   0  0  0  0  0  0  0  0  0  0  0  0
    0.8440   12.1770   21.7110 H   0  0  0  0  0  0  0  0  0  0  0  0
   -0.7540   11.5700   21.2540 H   0  0  0  0  0  0  0  0  0  0  0  0
    0.1440   14.0350   20.4070 H   0  0  0  0  0  0  0  0  0  0  0  0
    1.1570   13.2290   17.9400 H   0  0  0  0  0  0  0  0  0  0  0  0
    2.5150   10.9990   18.8060 H   0  0  0  0  0  0  0  0  0  0  0  0
    0.8920   10.9320   18.0710 H   0  0  0  0  0  0  0  0  0  0  0  0
    2.5450   13.6310   19.4900 C   0  0  0  0  0  0  0  0  0  0  0  0
    3.5110   14.2140   18.6570 C   0  0  0  0  0  0  0  0  0  0  0  0
    4.6100   14.8860   19.1990 C   0  0  0  0  0  0  0  0  0  0  0  0
    4.7630   14.9800   20.5790 C   0  0  0  0  0  0  0  0  0  0  0  0
    3.8180   14.3990   21.4220 C   0  0  0  0  0  0  0  0  0  0  0  0
    2.7210   13.7270   20.8810 C   0  0  0  0  0  0  0  0  0  0  0  0
    3.4320   14.1540   17.5750 H   0  0  0  0  0  0  0  0  0  0  0  0
    5.3480   15.3350   18.5400 H   0  0  0  0  0  0  0  0  0  0  0  0
    5.6180   15.5040   20.9990 H   0  0  0  0  0  0  0  0  0  0  0  0
    3.9370   14.4680   22.5000 H   0  0  0  0  0  0  0  0  0  0  0  0
    1.9970   13.2770   21.5590 H   0  0  0  0  0  0  0  0  0  0  0  0
    1.4340    8.3690   18.4790 C   0  0  0  0  0  0  0  0  0  0  0  0
    2.1460    7.2680   18.0980 O   0  0  0  0  0  0  0  0  0  0  0  0
    2.6540    6.7620   19.2660 C   0  0  0  0  0  0  0  0  0  0  0  0
    2.3140    7.4580   20.3340 N   0  0  0  0  0  0  0  0  0  0  0  0
    1.5260    8.4920   19.8520 C   0  0  0  0  0  0  0  0  0  0  0  0
    3.5400    5.4970   19.3290 C   0  0  0  0  0  0  0  0  0  0  0  0
    4.8850    5.3650   18.9530 C   0  0  0  0  0  0  0  0  0  0  0  0
    5.3400    4.1210   19.1410 N   0  0  0  0  0  0  0  0  0  0  0  0
    4.2710    3.4670   19.6390 N   0  0  0  0  0  0  0  0  0  0  0  0
    3.1630    4.2520   19.7710 C   0  0  0  0  0  0  0  0  0  0  0  0
    5.5510    6.1180   18.5510 H   0  0  0  0  0  0  0  0  0  0  0  0
    2.2260    3.8730   20.1560 H   0  0  0  0  0  0  0  0  0  0  0  0
    4.3880    2.0670   19.9700 C   0  0  0  0  0  0  0  0  0  0  0  0
    4.0390    1.4810   19.1150 H   0  0  0  0  0  0  0  0  0  0  0  0
    3.7730    1.8680   20.8500 H   0  0  0  0  0  0  0  0  0  0  0  0
    5.4340    1.8300   20.1840 H   0  0  0  0  0  0  0  0  0  0  0  0
    0.7660    9.1370   17.4120 C   0  0  0  0  0  0  0  0  0  0  0  0
    0.4910    8.4810   16.5800 H   0  0  0  0  0  0  0  0  0  0  0  0
   -0.1420    9.6130   17.7940 H   0  0  0  0  0  0  0  0  0  0  0  0
    1.4190    9.9230   17.0200 H   0  0  0  0  0  0  0  0  0  0  0  0
   -1.1950   13.0430   19.0440 C   0  0  0  0  0  0  0  0  0  0  0  0
   -1.8290   13.9100   19.2640 H   0  0  0  0  0  0  0  0  0  0  0  0
   -1.7730   12.1540   19.3150 H   0  0  0  0  0  0  0  0  0  0  0  0
   -0.9590   12.9920   17.6040 N   0  0  0  0  0  0  0  0  0  0  0  0
   -0.6740   13.9080   17.2600 H   0  0  0  0  0  0  0  0  0  0  0  0
   -1.8150   12.7480   17.1070 H   0  0  0  0  0  0  0  0  0  0  0  0
  1  2  2  0  0  0  0
  3  1  1  0  0  0  0
  3  4  1  0  0  0  0
  4  9  1  0  0  0  0
  4  8  1  0  0  0  0
  5 10  1  1  0  0  0
  5  4  1  0  0  0  0
  6 11  1  6  0  0  0
  6 14  1  0  0  0  0
  6  5  1  0  0  0  0
  7  6  1  0  0  0  0
  7  3  1  0  0  0  0
 12  7  1  0  0  0  0
 13  7  1  0  0  0  0
 14 19  1  0  0  0  0
 15 16  1  0  0  0  0
 15 14  2  0  0  0  0
 16 17  2  0  0  0  0
 17 22  1  0  0  0  0
 17 18  1  0  0  0  0
 18 23  1  0  0  0  0
 19 18  2  0  0  0  0
 19 24  1  0  0  0  0
 20 15  1  0  0  0  0
 21 16  1  0  0  0  0
 25 29  2  0  0  0  0
 26 25  1  0  0  0  0
 26 27  1  0  0  0  0
 27 30  1  0  0  0  0
 27 28  2  0  0  0  0
 29 28  1  0  0  0  0
 29  1  1  0  0  0  0
 30 34  2  0  0  0  0
 31 32  2  0  0  0  0
 31 30  1  0  0  0  0
 32 33  1  0  0  0  0
 33 34  1  0  0  0  0
 33 37  1  0  0  0  0
 34 36  1  0  0  0  0
 35 31  1  0  0  0  0
 37 40  1  0  0  0  0
 37 39  1  0  0  0  0
 38 37  1  0  0  0  0
 41 43  1  0  0  0  0
 41 25  1  0  0  0  0
 42 41  1  0  0  0  0
 44 41  1  0  0  0  0
 45 46  1  0  0  0  0
 45 47  1  0  0  0  0
 45  5  1  0  0  0  0
 48 45  1  0  0  0  0
 49 48  1  0  0  0  0
 50 48  1  0  0  0  0
M  END
>  <MODEL>
20

>  <REMARK>
 VINA RESULT:    -4.283      2.774      4.860
 INTER + INTRA:          -6.390
 INTER:                  -7.791
 INTRA:                   1.401
 UNBOUND:                -0.730
  Name = 
  7 active torsions:
  status: ('A' for Active; 'I' for Inactive)
    1  A    between atoms: C_1  and  C_2
    2  A    between atoms: C_4  and  C_5
    3  A    between atoms: N_8  and  C_9
    4  A    between atoms: C_12  and  C_13
    5  A    between atoms: C_17  and  C_18
    6  A    between atoms: C_18  and  N_19
    7  A    between atoms: C_20  and  C_21
                            x       y       z     vdW  Elec       q    Type
                         _______ _______ _______ _____ _____    ______ ____

>  <TORSDO>
F 7

$$$$
=
 OpenBabel07192307433D

 50 53  0  0  1  0  0  0  0  0999 V2000
    1.9190    9.0660   18.8260 C   0  0  0  0  0  0  0  0  0  0  0  0
    2.7050    9.8520   19.3580 O   0  0  0  0  0  0  0  0  0  0  0  0
    2.3480    7.8110   18.4170 N   0  0  0  0  0  0  0  0  0  0  0  0
    3.7400    7.4260   18.5520 C   0  0  0  0  0  0  0  0  0  0  0  0
    3.8910    6.1370   17.7380 C   0  0  1  0  0  0  0  0  0  0  0  0
    2.4830    5.5020   17.8370 C   0  0  2  0  0  0  0  0  0  0  0  0
    1.5450    6.7230   17.8730 C   0  0  0  0  0  0  0  0  0  0  0  0
    3.9290    7.2410   19.6160 H   0  0  0  0  0  0  0  0  0  0  0  0
    4.3980    8.2400   18.2330 H   0  0  0  0  0  0  0  0  0  0  0  0
    4.6630    5.4960   18.1820 H   0  0  0  0  0  0  0  0  0  0  0  0
    2.2370    4.9140   16.9430 H   0  0  0  0  0  0  0  0  0  0  0  0
    0.6390    6.5580   18.4630 H   0  0  0  0  0  0  0  0  0  0  0  0
    1.2600    7.0110   16.8540 H   0  0  0  0  0  0  0  0  0  0  0  0
    2.3890    4.5550   19.0260 C   0  0  0  0  0  0  0  0  0  0  0  0
    1.2590    4.4660   19.8520 C   0  0  0  0  0  0  0  0  0  0  0  0
    1.2370    3.5910   20.9410 C   0  0  0  0  0  0  0  0  0  0  0  0
    2.3450    2.7970   21.2250 C   0  0  0  0  0  0  0  0  0  0  0  0
    3.4790    2.8780   20.4210 C   0  0  0  0  0  0  0  0  0  0  0  0
    3.5020    3.7520   19.3330 C   0  0  0  0  0  0  0  0  0  0  0  0
    0.3790    5.0760   19.6690 H   0  0  0  0  0  0  0  0  0  0  0  0
    0.3530    3.5320   21.5700 H   0  0  0  0  0  0  0  0  0  0  0  0
    2.3260    2.1170   22.0730 H   0  0  0  0  0  0  0  0  0  0  0  0
    4.3460    2.2620   20.6420 H   0  0  0  0  0  0  0  0  0  0  0  0
    4.4010    3.8020   18.7210 H   0  0  0  0  0  0  0  0  0  0  0  0
   -0.3980    9.7260   19.6010 C   0  0  0  0  0  0  0  0  0  0  0  0
   -1.5860   10.0480   19.0120 O   0  0  0  0  0  0  0  0  0  0  0  0
   -1.3430    9.9530   17.6660 C   0  0  0  0  0  0  0  0  0  0  0  0
   -0.1060    9.5990   17.3770 N   0  0  0  0  0  0  0  0  0  0  0  0
    0.5190    9.4430   18.6060 C   0  0  0  0  0  0  0  0  0  0  0  0
   -2.4150   10.2330   16.5880 C   0  0  0  0  0  0  0  0  0  0  0  0
   -3.5180   11.0960   16.6700 C   0  0  0  0  0  0  0  0  0  0  0  0
   -4.2430   11.0930   15.5460 N   0  0  0  0  0  0  0  0  0  0  0  0
   -3.5900   10.2210   14.7510 N   0  0  0  0  0  0  0  0  0  0  0  0
   -2.4820    9.6760   15.3330 C   0  0  0  0  0  0  0  0  0  0  0  0
   -3.8240   11.7240   17.4970 H   0  0  0  0  0  0  0  0  0  0  0  0
   -1.8540    8.9590   14.8250 H   0  0  0  0  0  0  0  0  0  0  0  0
   -4.0950    9.9550   13.4260 C   0  0  0  0  0  0  0  0  0  0  0  0
   -4.2280    8.8750   13.3190 H   0  0  0  0  0  0  0  0  0  0  0  0
   -3.3690   10.3270   12.7000 H   0  0  0  0  0  0  0  0  0  0  0  0
   -5.0520   10.4650   13.2920 H   0  0  0  0  0  0  0  0  0  0  0  0
   -0.3520    9.7500   21.0750 C   0  0  0  0  0  0  0  0  0  0  0  0
   -0.0890    8.7630   21.4670 H   0  0  0  0  0  0  0  0  0  0  0  0
    0.3920   10.4720   21.4230 H   0  0  0  0  0  0  0  0  0  0  0  0
   -1.3210   10.0340   21.4980 H   0  0  0  0  0  0  0  0  0  0  0  0
    4.2670    6.4000   16.2700 C   0  0  0  0  0  0  0  0  0  0  0  0
    3.7150    7.2560   15.8660 H   0  0  0  0  0  0  0  0  0  0  0  0
    3.9870    5.5310   15.6640 H   0  0  0  0  0  0  0  0  0  0  0  0
    5.6950    6.6310   16.0730 N   0  0  0  0  0  0  0  0  0  0  0  0
    6.0380    6.0790   15.2890 H   0  0  0  0  0  0  0  0  0  0  0  0
    6.2250    6.3340   16.8920 H   0  0  0  0  0  0  0  0  0  0  0  0
  1  2  2  0  0  0  0
  3  4  1  0  0  0  0
  3  1  1  0  0  0  0
  4  8  1  0  0  0  0
  5  6  1  0  0  0  0
  5 10  1  1  0  0  0
  5  4  1  0  0  0  0
  6 11  1  6  0  0  0
  6  7  1  0  0  0  0
  6 14  1  0  0  0  0
  7  3  1  0  0  0  0
  7 12  1  0  0  0  0
  9  4  1  0  0  0  0
 13  7  1  0  0  0  0
 14 19  2  0  0  0  0
 14 15  1  0  0  0  0
 15 16  2  0  0  0  0
 16 17  1  0  0  0  0
 16 21  1  0  0  0  0
 17 22  1  0  0  0  0
 18 23  1  0  0  0  0
 18 17  2  0  0  0  0
 19 18  1  0  0  0  0
 20 15  1  0  0  0  0
 24 19  1  0  0  0  0
 25 41  1  0  0  0  0
 26 25  1  0  0  0  0
 27 26  1  0  0  0  0
 28 27  2  0  0  0  0
 28 29  1  0  0  0  0
 29  1  1  0  0  0  0
 29 25  2  0  0  0  0
 30 31  1  0  0  0  0
 30 27  1  0  0  0  0
 31 35  1  0  0  0  0
 32 31  2  0  0  0  0
 33 34  1  0  0  0  0
 33 32  1  0  0  0  0
 34 30  2  0  0  0  0
 36 34  1  0  0  0  0
 37 33  1  0  0  0  0
 38 37  1  0  0  0  0
 39 37  1  0  0  0  0
 40 37  1  0  0  0  0
 41 43  1  0  0  0  0
 41 42  1  0  0  0  0
 41 44  1  0  0  0  0
 45  5  1  0  0  0  0
 46 45  1  0  0  0  0
 47 45  1  0  0  0  0
 48 45  1  0  0  0  0
 48 50  1  0  0  0  0
 49 48  1  0  0  0  0
M  END
>  <MODEL>
21

>  <REMARK>
 VINA RESULT:    -4.252      2.281      7.862
 INTER + INTRA:          -6.349
 INTER:                  -5.532
 INTRA:                  -0.817
 UNBOUND:                -0.730
  Name = 
  7 active torsions:
  status: ('A' for Active; 'I' for Inactive)
    1  A    between atoms: C_1  and  C_2
    2  A    between atoms: C_4  and  C_5
    3  A    between atoms: N_8  and  C_9
    4  A    between atoms: C_12  and  C_13
    5  A    between atoms: C_17  and  C_18
    6  A    between atoms: C_18  and  N_19
    7  A    between atoms: C_20  and  C_21
                            x       y       z     vdW  Elec       q    Type
                         _______ _______ _______ _____ _____    ______ ____

>  <TORSDO>
F 7

$$$$
=
 OpenBabel07192307433D

 50 53  0  0  1  0  0  0  0  0999 V2000
    1.9930   11.8430   18.1570 C   0  0  0  0  0  0  0  0  0  0  0  0
    2.3960   12.4960   17.1920 O   0  0  0  0  0  0  0  0  0  0  0  0
    1.6300   12.4810   19.3350 N   0  0  0  0  0  0  0  0  0  0  0  0
    1.7760   13.9180   19.4730 C   0  0  0  0  0  0  0  0  0  0  0  0
    1.5750   14.2110   20.9630 C   0  0  1  0  0  0  0  0  0  0  0  0
    0.6160   13.0810   21.4080 C   0  0  2  0  0  0  0  0  0  0  0  0
    1.0390   11.8890   20.5290 C   0  0  0  0  0  0  0  0  0  0  0  0
    0.9890   14.3880   18.8720 H   0  0  0  0  0  0  0  0  0  0  0  0
    2.7410   14.2470   19.0760 H   0  0  0  0  0  0  0  0  0  0  0  0
    1.1300   15.2050   21.0970 H   0  0  0  0  0  0  0  0  0  0  0  0
    0.7760   12.7990   22.4570 H   0  0  0  0  0  0  0  0  0  0  0  0
    0.2110   11.2200   20.2770 H   0  0  0  0  0  0  0  0  0  0  0  0
    1.8270   11.3130   21.0270 H   0  0  0  0  0  0  0  0  0  0  0  0
   -0.8390   13.5150   21.2870 C   0  0  0  0  0  0  0  0  0  0  0  0
   -1.3290   14.7190   21.8160 C   0  0  0  0  0  0  0  0  0  0  0  0
   -2.6780   15.0580   21.6920 C   0  0  0  0  0  0  0  0  0  0  0  0
   -3.5600   14.1970   21.0440 C   0  0  0  0  0  0  0  0  0  0  0  0
   -3.0940   12.9940   20.5210 C   0  0  0  0  0  0  0  0  0  0  0  0
   -1.7450   12.6550   20.6450 C   0  0  0  0  0  0  0  0  0  0  0  0
   -0.6730   15.4130   22.3370 H   0  0  0  0  0  0  0  0  0  0  0  0
   -3.0410   15.9950   22.1040 H   0  0  0  0  0  0  0  0  0  0  0  0
   -4.6100   14.4620   20.9480 H   0  0  0  0  0  0  0  0  0  0  0  0
   -3.7800   12.3180   20.0170 H   0  0  0  0  0  0  0  0  0  0  0  0
   -1.4040   11.7070   20.2320 H   0  0  0  0  0  0  0  0  0  0  0  0
    0.7240    9.6640   17.9590 C   0  0  0  0  0  0  0  0  0  0  0  0
    1.0360    8.3350   17.9100 O   0  0  0  0  0  0  0  0  0  0  0  0
    2.4030    8.2960   18.0020 C   0  0  0  0  0  0  0  0  0  0  0  0
    2.9590    9.4880   18.1050 N   0  0  0  0  0  0  0  0  0  0  0  0
    1.8980   10.3810   18.0840 C   0  0  0  0  0  0  0  0  0  0  0  0
    3.2170    6.9830   17.9880 C   0  0  0  0  0  0  0  0  0  0  0  0
    2.9390    5.7860   18.6660 C   0  0  0  0  0  0  0  0  0  0  0  0
    3.8610    4.8470   18.4260 N   0  0  0  0  0  0  0  0  0  0  0  0
    4.7260    5.4590   17.5920 N   0  0  0  0  0  0  0  0  0  0  0  0
    4.3820    6.7460   17.2970 C   0  0  0  0  0  0  0  0  0  0  0  0
    2.1080    5.5590   19.3210 H   0  0  0  0  0  0  0  0  0  0  0  0
    4.9740    7.3690   16.6430 H   0  0  0  0  0  0  0  0  0  0  0  0
    5.8770    4.7360   17.1100 C   0  0  0  0  0  0  0  0  0  0  0  0
    6.0860    3.9190   17.8060 H   0  0  0  0  0  0  0  0  0  0  0  0
    6.7230    5.4260   17.0620 H   0  0  0  0  0  0  0  0  0  0  0  0
    5.6650    4.3350   16.1160 H   0  0  0  0  0  0  0  0  0  0  0  0
   -0.7040   10.0200   17.8730 C   0  0  0  0  0  0  0  0  0  0  0  0
   -1.2230    9.7590   18.8000 H   0  0  0  0  0  0  0  0  0  0  0  0
   -0.8210   11.0940   17.7000 H   0  0  0  0  0  0  0  0  0  0  0  0
   -1.1970    9.4910   17.0510 H   0  0  0  0  0  0  0  0  0  0  0  0
    2.8880   14.1570   21.7630 C   0  0  0  0  0  0  0  0  0  0  0  0
    3.0270   13.1750   22.2320 H   0  0  0  0  0  0  0  0  0  0  0  0
    2.8460   14.8900   22.5760 H   0  0  0  0  0  0  0  0  0  0  0  0
    4.0670   14.4600   20.9580 N   0  0  0  0  0  0  0  0  0  0  0  0
    4.4110   15.3950   21.1730 H   0  0  0  0  0  0  0  0  0  0  0  0
    3.8370   14.4560   19.9650 H   0  0  0  0  0  0  0  0  0  0  0  0
  1  3  1  0  0  0  0
  2  1  2  0  0  0  0
  3  4  1  0  0  0  0
  3  7  1  0  0  0  0
  4  5  1  0  0  0  0
  5 10  1  1  0  0  0
  5  6  1  0  0  0  0
  5 45  1  0  0  0  0
  6 11  1  1  0  0  0
  7 13  1  0  0  0  0
  7  6  1  0  0  0  0
  8  4  1  0  0  0  0
  9  4  1  0  0  0  0
 12  7  1  0  0  0  0
 14  6  1  0  0  0  0
 14 15  1  0  0  0  0
 15 20  1  0  0  0  0
 16 15  2  0  0  0  0
 16 21  1  0  0  0  0
 17 16  1  0  0  0  0
 18 19  1  0  0  0  0
 18 17  2  0  0  0  0
 19 14  2  0  0  0  0
 22 17  1  0  0  0  0
 23 18  1  0  0  0  0
 24 19  1  0  0  0  0
 25 29  2  0  0  0  0
 26 25  1  0  0  0  0
 26 27  1  0  0  0  0
 27 28  2  0  0  0  0
 29 28  1  0  0  0  0
 29  1  1  0  0  0  0
 30 27  1  0  0  0  0
 30 31  1  0  0  0  0
 31 35  1  0  0  0  0
 32 31  2  0  0  0  0
 33 32  1  0  0  0  0
 34 33  1  0  0  0  0
 34 30  2  0  0  0  0
 36 34  1  0  0  0  0
 37 33  1  0  0  0  0
 37 38  1  0  0  0  0
 39 37  1  0  0  0  0
 40 37  1  0  0  0  0
 41 25  1  0  0  0  0
 41 42  1  0  0  0  0
 43 41  1  0  0  0  0
 44 41  1  0  0  0  0
 45 46  1  0  0  0  0
 45 47  1  0  0  0  0
 48 49  1  0  0  0  0
 48 45  1  0  0  0  0
 50 48  1  0  0  0  0
M  END
>  <MODEL>
22

>  <REMARK>
 VINA RESULT:    -4.240      2.570      4.139
 INTER + INTRA:          -6.334
 INTER:                  -5.395
 INTRA:                  -0.939
 UNBOUND:                -0.730
  Name = 
  7 active torsions:
  status: ('A' for Active; 'I' for Inactive)
    1  A    between atoms: C_1  and  C_2
    2  A    between atoms: C_4  and  C_5
    3  A    between atoms: N_8  and  C_9
    4  A    between atoms: C_12  and  C_13
    5  A    between atoms: C_17  and  C_18
    6  A    between atoms: C_18  and  N_19
    7  A    between atoms: C_20  and  C_21
                            x       y       z     vdW  Elec       q    Type
                         _______ _______ _______ _____ _____    ______ ____

>  <TORSDO>
F 7

$$$$
=
 OpenBabel07192307433D

 50 53  0  0  1  0  0  0  0  0999 V2000
    0.9740   12.5800   19.9360 C   0  0  0  0  0  0  0  0  0  0  0  0
    0.0490   13.0660   19.2820 O   0  0  0  0  0  0  0  0  0  0  0  0
    0.8400   11.3290   20.5210 N   0  0  0  0  0  0  0  0  0  0  0  0
   -0.4110   10.5980   20.4270 C   0  0  0  0  0  0  0  0  0  0  0  0
   -0.2860    9.4410   21.4220 C   0  0  1  0  0  0  0  0  0  0  0  0
    1.2360    9.1630   21.4370 C   0  0  2  0  0  0  0  0  0  0  0  0
    1.8530   10.5590   21.2330 C   0  0  0  0  0  0  0  0  0  0  0  0
   -0.4970   10.2250   19.4000 H   0  0  0  0  0  0  0  0  0  0  0  0
   -1.2600   11.2630   20.6130 H   0  0  0  0  0  0  0  0  0  0  0  0
   -0.8590    8.5730   21.0680 H   0  0  0  0  0  0  0  0  0  0  0  0
    1.5720    8.7860   22.4120 H   0  0  0  0  0  0  0  0  0  0  0  0
    2.8000   10.5390   20.6850 H   0  0  0  0  0  0  0  0  0  0  0  0
    2.0090   11.0490   22.2000 H   0  0  0  0  0  0  0  0  0  0  0  0
    1.6130    8.1090   20.4040 C   0  0  0  0  0  0  0  0  0  0  0  0
    1.6510    6.7350   20.6860 C   0  0  0  0  0  0  0  0  0  0  0  0
    2.0230    5.8150   19.7030 C   0  0  0  0  0  0  0  0  0  0  0  0
    2.3690    6.2520   18.4280 C   0  0  0  0  0  0  0  0  0  0  0  0
    2.3460    7.6130   18.1320 C   0  0  0  0  0  0  0  0  0  0  0  0
    1.9740    8.5330   19.1140 C   0  0  0  0  0  0  0  0  0  0  0  0
    1.3980    6.3560   21.6720 H   0  0  0  0  0  0  0  0  0  0  0  0
    2.0450    4.7530   19.9360 H   0  0  0  0  0  0  0  0  0  0  0  0
    2.6570    5.5340   17.6640 H   0  0  0  0  0  0  0  0  0  0  0  0
    2.6180    7.9580   17.1390 H   0  0  0  0  0  0  0  0  0  0  0  0
    1.9670    9.5920   18.8620 H   0  0  0  0  0  0  0  0  0  0  0  0
    2.8830   14.0320   19.1310 C   0  0  0  0  0  0  0  0  0  0  0  0
    4.0040   14.5880   19.6760 O   0  0  0  0  0  0  0  0  0  0  0  0
    3.9860   14.1900   20.9880 C   0  0  0  0  0  0  0  0  0  0  0  0
    2.9500   13.4350   21.2960 N   0  0  0  0  0  0  0  0  0  0  0  0
    2.2290   13.3160   20.1160 C   0  0  0  0  0  0  0  0  0  0  0  0
    5.0760   14.5850   22.0100 C   0  0  0  0  0  0  0  0  0  0  0  0
    4.9050   14.9980   23.3400 C   0  0  0  0  0  0  0  0  0  0  0  0
    6.0710   15.2640   23.9380 N   0  0  0  0  0  0  0  0  0  0  0  0
    6.9830   15.0180   22.9750 N   0  0  0  0  0  0  0  0  0  0  0  0
    6.4330   14.6060   21.7960 C   0  0  0  0  0  0  0  0  0  0  0  0
    3.9830   15.1150   23.8970 H   0  0  0  0  0  0  0  0  0  0  0  0
    7.0330   14.3700   20.9280 H   0  0  0  0  0  0  0  0  0  0  0  0
    8.3840   15.2020   23.2630 C   0  0  0  0  0  0  0  0  0  0  0  0
    8.9640   14.6560   22.5140 H   0  0  0  0  0  0  0  0  0  0  0  0
    8.5850   14.8130   24.2640 H   0  0  0  0  0  0  0  0  0  0  0  0
    8.6270   16.2670   23.2210 H   0  0  0  0  0  0  0  0  0  0  0  0
    2.6290   14.2990   17.7030 C   0  0  0  0  0  0  0  0  0  0  0  0
    1.7210   14.8980   17.5800 H   0  0  0  0  0  0  0  0  0  0  0  0
    3.4680   14.8440   17.2600 H   0  0  0  0  0  0  0  0  0  0  0  0
    2.4970   13.3690   17.1420 H   0  0  0  0  0  0  0  0  0  0  0  0
   -0.7870    9.8080   22.8300 C   0  0  0  0  0  0  0  0  0  0  0  0
   -1.7800    9.3840   23.0200 H   0  0  0  0  0  0  0  0  0  0  0  0
   -0.8900   10.8960   22.9040 H   0  0  0  0  0  0  0  0  0  0  0  0
    0.1160    9.3780   23.8930 N   0  0  0  0  0  0  0  0  0  0  0  0
    0.0640   10.0200   24.6820 H   0  0  0  0  0  0  0  0  0  0  0  0
    1.0830    9.3890   23.5720 H   0  0  0  0  0  0  0  0  0  0  0  0
  1 29  1  0  0  0  0
  1  3  1  0  0  0  0
  2  1  2  0  0  0  0
  3  7  1  0  0  0  0
  4  3  1  0  0  0  0
  4  9  1  0  0  0  0
  4  5  1  0  0  0  0
  5 10  1  6  0  0  0
  5  6  1  0  0  0  0
  5 45  1  0  0  0  0
  6 11  1  1  0  0  0
  7  6  1  0  0  0  0
  7 13  1  0  0  0  0
  8  4  1  0  0  0  0
 12  7  1  0  0  0  0
 14 15  1  0  0  0  0
 14  6  1  0  0  0  0
 15 20  1  0  0  0  0
 16 21  1  0  0  0  0
 16 15  2  0  0  0  0
 17 16  1  0  0  0  0
 18 17  2  0  0  0  0
 18 19  1  0  0  0  0
 19 14  2  0  0  0  0
 22 17  1  0  0  0  0
 23 18  1  0  0  0  0
 24 19  1  0  0  0  0
 25 26  1  0  0  0  0
 25 29  2  0  0  0  0
 26 27  1  0  0  0  0
 27 28  2  0  0  0  0
 27 30  1  0  0  0  0
 29 28  1  0  0  0  0
 30 31  1  0  0  0  0
 31 35  1  0  0  0  0
 31 32  2  0  0  0  0
 33 37  1  0  0  0  0
 33 32  1  0  0  0  0
 34 30  2  0  0  0  0
 34 33  1  0  0  0  0
 36 34  1  0  0  0  0
 37 39  1  0  0  0  0
 38 37  1  0  0  0  0
 40 37  1  0  0  0  0
 41 25  1  0  0  0  0
 42 41  1  0  0  0  0
 43 41  1  0  0  0  0
 44 41  1  0  0  0  0
 45 47  1  0  0  0  0
 45 46  1  0  0  0  0
 45 48  1  0  0  0  0
 48 49  1  0  0  0  0
 50 48  1  0  0  0  0
M  END
>  <MODEL>
23

>  <REMARK>
 VINA RESULT:    -4.232      4.596      7.851
 INTER + INTRA:          -6.322
 INTER:                  -6.170
 INTRA:                  -0.153
 UNBOUND:                -0.730
  Name = 
  7 active torsions:
  status: ('A' for Active; 'I' for Inactive)
    1  A    between atoms: C_1  and  C_2
    2  A    between atoms: C_4  and  C_5
    3  A    between atoms: N_8  and  C_9
    4  A    between atoms: C_12  and  C_13
    5  A    between atoms: C_17  and  C_18
    6  A    between atoms: C_18  and  N_19
    7  A    between atoms: C_20  and  C_21
                            x       y       z     vdW  Elec       q    Type
                         _______ _______ _______ _____ _____    ______ ____

>  <TORSDO>
F 7

$$$$
=
 OpenBabel07192307433D

 50 53  0  0  1  0  0  0  0  0999 V2000
   -0.2750   11.2130   20.6260 C   0  0  0  0  0  0  0  0  0  0  0  0
   -0.3050   10.4480   21.5920 O   0  0  0  0  0  0  0  0  0  0  0  0
    0.0520   12.5510   20.7990 N   0  0  0  0  0  0  0  0  0  0  0  0
    0.3030   13.0850   22.1250 C   0  0  0  0  0  0  0  0  0  0  0  0
    0.3260   14.6070   21.9570 C   0  0  1  0  0  0  0  0  0  0  0  0
    0.8320   14.7850   20.5050 C   0  0  2  0  0  0  0  0  0  0  0  0
    0.2390   13.5680   19.7710 C   0  0  0  0  0  0  0  0  0  0  0  0
    1.2810   12.7130   22.4500 H   0  0  0  0  0  0  0  0  0  0  0  0
   -0.4460   12.7220   22.8350 H   0  0  0  0  0  0  0  0  0  0  0  0
    1.0080   15.0600   22.6880 H   0  0  0  0  0  0  0  0  0  0  0  0
    0.4230   15.6910   20.0380 H   0  0  0  0  0  0  0  0  0  0  0  0
    0.8700   13.2030   18.9560 H   0  0  0  0  0  0  0  0  0  0  0  0
   -0.7540   13.8110   19.3750 H   0  0  0  0  0  0  0  0  0  0  0  0
    2.3480   14.9150   20.4630 C   0  0  0  0  0  0  0  0  0  0  0  0
    3.1000   14.7910   19.2850 C   0  0  0  0  0  0  0  0  0  0  0  0
    4.4920   14.9000   19.3100 C   0  0  0  0  0  0  0  0  0  0  0  0
    5.1550   15.1300   20.5120 C   0  0  0  0  0  0  0  0  0  0  0  0
    4.4270   15.2480   21.6930 C   0  0  0  0  0  0  0  0  0  0  0  0
    3.0350   15.1380   21.6690 C   0  0  0  0  0  0  0  0  0  0  0  0
    2.6190   14.6010   18.3290 H   0  0  0  0  0  0  0  0  0  0  0  0
    5.0590   14.8040   18.3880 H   0  0  0  0  0  0  0  0  0  0  0  0
    6.2390   15.2170   20.5300 H   0  0  0  0  0  0  0  0  0  0  0  0
    4.9420   15.4250   22.6340 H   0  0  0  0  0  0  0  0  0  0  0  0
    2.4870   15.2290   22.6050 H   0  0  0  0  0  0  0  0  0  0  0  0
    0.1900    9.8650   18.5360 C   0  0  0  0  0  0  0  0  0  0  0  0
   -0.4350    9.6350   17.3450 O   0  0  0  0  0  0  0  0  0  0  0  0
   -1.5900   10.3710   17.4120 C   0  0  0  0  0  0  0  0  0  0  0  0
   -1.7270   11.0360   18.5420 N   0  0  0  0  0  0  0  0  0  0  0  0
   -0.5920   10.7290   19.2790 C   0  0  0  0  0  0  0  0  0  0  0  0
   -2.6320   10.4200   16.2710 C   0  0  0  0  0  0  0  0  0  0  0  0
   -3.8860   11.0480   16.2730 C   0  0  0  0  0  0  0  0  0  0  0  0
   -4.5300   10.8880   15.1120 N   0  0  0  0  0  0  0  0  0  0  0  0
   -3.6740   10.1530   14.3750 N   0  0  0  0  0  0  0  0  0  0  0  0
   -2.5160    9.8450   15.0280 C   0  0  0  0  0  0  0  0  0  0  0  0
   -4.3570   11.6140   17.0680 H   0  0  0  0  0  0  0  0  0  0  0  0
   -1.7300    9.2600   14.5720 H   0  0  0  0  0  0  0  0  0  0  0  0
   -4.0390    9.7750   13.0310 C   0  0  0  0  0  0  0  0  0  0  0  0
   -3.8850   10.6380   12.3770 H   0  0  0  0  0  0  0  0  0  0  0  0
   -5.0890    9.4740   13.0300 H   0  0  0  0  0  0  0  0  0  0  0  0
   -3.4120    8.9420   12.7040 H   0  0  0  0  0  0  0  0  0  0  0  0
    1.4800    9.1860   18.7580 C   0  0  0  0  0  0  0  0  0  0  0  0
    2.2620    9.9140   18.9960 H   0  0  0  0  0  0  0  0  0  0  0  0
    1.4020    8.4770   19.5880 H   0  0  0  0  0  0  0  0  0  0  0  0
    1.7950    8.6300   17.8690 H   0  0  0  0  0  0  0  0  0  0  0  0
   -1.0630   15.2470   22.1310 C   0  0  0  0  0  0  0  0  0  0  0  0
   -1.7090   15.0320   21.2720 H   0  0  0  0  0  0  0  0  0  0  0  0
   -0.9550   16.3360   22.1790 H   0  0  0  0  0  0  0  0  0  0  0  0
   -1.7460   14.8190   23.3480 N   0  0  0  0  0  0  0  0  0  0  0  0
   -2.2730   15.5940   23.7490 H   0  0  0  0  0  0  0  0  0  0  0  0
   -1.0730   14.5290   24.0570 H   0  0  0  0  0  0  0  0  0  0  0  0
  1  3  1  0  0  0  0
  1  2  2  0  0  0  0
  3  4  1  0  0  0  0
  4  8  1  0  0  0  0
  4  9  1  0  0  0  0
  5  4  1  0  0  0  0
  5 45  1  0  0  0  0
  5 10  1  1  0  0  0
  6 11  1  6  0  0  0
  6  5  1  0  0  0  0
  7  6  1  0  0  0  0
  7  3  1  0  0  0  0
 12  7  1  0  0  0  0
 13  7  1  0  0  0  0
 14  6  1  0  0  0  0
 14 19  1  0  0  0  0
 15 16  1  0  0  0  0
 15 14  2  0  0  0  0
 16 17  2  0  0  0  0
 17 22  1  0  0  0  0
 17 18  1  0  0  0  0
 18 23  1  0  0  0  0
 19 18  2  0  0  0  0
 19 24  1  0  0  0  0
 20 15  1  0  0  0  0
 21 16  1  0  0  0  0
 25 41  1  0  0  0  0
 25 29  2  0  0  0  0
 26 27  1  0  0  0  0
 26 25  1  0  0  0  0
 27 28  2  0  0  0  0
 28 29  1  0  0  0  0
 29  1  1  0  0  0  0
 30 31  1  0  0  0  0
 30 27  1  0  0  0  0
 31 35  1  0  0  0  0
 32 31  2  0  0  0  0
 33 34  1  0  0  0  0
 33 32  1  0  0  0  0
 34 30  2  0  0  0  0
 36 34  1  0  0  0  0
 37 33  1  0  0  0  0
 38 37  1  0  0  0  0
 39 37  1  0  0  0  0
 40 37  1  0  0  0  0
 41 42  1  0  0  0  0
 41 43  1  0  0  0  0
 44 41  1  0  0  0  0
 45 47  1  0  0  0  0
 45 48  1  0  0  0  0
 46 45  1  0  0  0  0
 48 49  1  0  0  0  0
 48 50  1  0  0  0  0
M  END
>  <MODEL>
24

>  <REMARK>
 VINA RESULT:    -4.231      3.830      7.176
 INTER + INTRA:          -6.322
 INTER:                  -5.539
 INTRA:                  -0.783
 UNBOUND:                -0.730
  Name = 
  7 active torsions:
  status: ('A' for Active; 'I' for Inactive)
    1  A    between atoms: C_1  and  C_2
    2  A    between atoms: C_4  and  C_5
    3  A    between atoms: N_8  and  C_9
    4  A    between atoms: C_12  and  C_13
    5  A    between atoms: C_17  and  C_18
    6  A    between atoms: C_18  and  N_19
    7  A    between atoms: C_20  and  C_21
                            x       y       z     vdW  Elec       q    Type
                         _______ _______ _______ _____ _____    ______ ____

>  <TORSDO>
F 7

$$$$
=
 OpenBabel07192307433D

 50 53  0  0  1  0  0  0  0  0999 V2000
    0.3980   11.3870   20.9890 C   0  0  0  0  0  0  0  0  0  0  0  0
   -0.3830   11.8140   21.8420 O   0  0  0  0  0  0  0  0  0  0  0  0
    0.8930   12.2300   20.0040 N   0  0  0  0  0  0  0  0  0  0  0  0
    0.4520   13.6110   19.9230 C   0  0  0  0  0  0  0  0  0  0  0  0
    0.9570   14.1240   18.5710 C   0  0  1  0  0  0  0  0  0  0  0  0
    2.2380   13.2860   18.3430 C   0  0  2  0  0  0  0  0  0  0  0  0
    1.8960   11.9310   18.9890 C   0  0  0  0  0  0  0  0  0  0  0  0
    0.9220   14.1550   20.7490 H   0  0  0  0  0  0  0  0  0  0  0  0
   -0.6320   13.6770   20.0530 H   0  0  0  0  0  0  0  0  0  0  0  0
    1.1740   15.1990   18.6310 H   0  0  0  0  0  0  0  0  0  0  0  0
    2.4270   13.1120   17.2750 H   0  0  0  0  0  0  0  0  0  0  0  0
    2.7640   11.4240   19.4200 H   0  0  0  0  0  0  0  0  0  0  0  0
    1.4230   11.2700   18.2540 H   0  0  0  0  0  0  0  0  0  0  0  0
    3.4660   13.9970   18.8950 C   0  0  0  0  0  0  0  0  0  0  0  0
    4.5090   14.4730   18.0850 C   0  0  0  0  0  0  0  0  0  0  0  0
    5.6220   15.1010   18.6490 C   0  0  0  0  0  0  0  0  0  0  0  0
    5.7130   15.2590   20.0290 C   0  0  0  0  0  0  0  0  0  0  0  0
    4.6920   14.7860   20.8490 C   0  0  0  0  0  0  0  0  0  0  0  0
    3.5800   14.1570   20.2860 C   0  0  0  0  0  0  0  0  0  0  0  0
    4.4790   14.3600   17.0050 H   0  0  0  0  0  0  0  0  0  0  0  0
    6.4200   15.4670   18.0080 H   0  0  0  0  0  0  0  0  0  0  0  0
    6.5790   15.7490   20.4660 H   0  0  0  0  0  0  0  0  0  0  0  0
    4.7620   14.9050   21.9270 H   0  0  0  0  0  0  0  0  0  0  0  0
    2.7960   13.7910   20.9470 H   0  0  0  0  0  0  0  0  0  0  0  0
    0.6750    9.1110   22.0570 C   0  0  0  0  0  0  0  0  0  0  0  0
    1.1600    7.8910   21.6820 O   0  0  0  0  0  0  0  0  0  0  0  0
    1.5740    8.0670   20.3870 C   0  0  0  0  0  0  0  0  0  0  0  0
    1.3860    9.2910   19.9340 N   0  0  0  0  0  0  0  0  0  0  0  0
    0.8130    9.9810   20.9930 C   0  0  0  0  0  0  0  0  0  0  0  0
    2.2030    6.9400   19.5360 C   0  0  0  0  0  0  0  0  0  0  0  0
    2.7910    7.0400   18.2660 C   0  0  0  0  0  0  0  0  0  0  0  0
    3.2350    5.8590   17.8230 N   0  0  0  0  0  0  0  0  0  0  0  0
    2.9230    5.0090   18.8220 N   0  0  0  0  0  0  0  0  0  0  0  0
    2.3000    5.6110   19.8770 C   0  0  0  0  0  0  0  0  0  0  0  0
    2.9140    7.9200   17.6470 H   0  0  0  0  0  0  0  0  0  0  0  0
    1.9860    5.0650   20.7540 H   0  0  0  0  0  0  0  0  0  0  0  0
    3.2570    3.6120   18.6940 C   0  0  0  0  0  0  0  0  0  0  0  0
    2.4420    3.0220   19.1230 H   0  0  0  0  0  0  0  0  0  0  0  0
    4.1890    3.4290   19.2340 H   0  0  0  0  0  0  0  0  0  0  0  0
    3.3820    3.3630   17.6370 H   0  0  0  0  0  0  0  0  0  0  0  0
    0.1420    9.2260   23.4280 C   0  0  0  0  0  0  0  0  0  0  0  0
    0.1260    8.2480   23.9180 H   0  0  0  0  0  0  0  0  0  0  0  0
    0.7610    9.9030   24.0230 H   0  0  0  0  0  0  0  0  0  0  0  0
   -0.8800    9.6190   23.4250 H   0  0  0  0  0  0  0  0  0  0  0  0
   -0.0520   13.8980   17.4320 C   0  0  0  0  0  0  0  0  0  0  0  0
    0.4450   13.5170   16.5320 H   0  0  0  0  0  0  0  0  0  0  0  0
   -0.5080   14.8550   17.1580 H   0  0  0  0  0  0  0  0  0  0  0  0
   -1.1310   12.9830   17.7910 N   0  0  0  0  0  0  0  0  0  0  0  0
   -1.7700   13.4300   18.4470 H   0  0  0  0  0  0  0  0  0  0  0  0
   -0.7630   12.1570   18.2610 H   0  0  0  0  0  0  0  0  0  0  0  0
  1 29  1  0  0  0  0
  1  2  2  0  0  0  0
  3  1  1  0  0  0  0
  4  3  1  0  0  0  0
  4  9  1  0  0  0  0
  4  8  1  0  0  0  0
  5 10  1  1  0  0  0
  5  4  1  0  0  0  0
  6 11  1  6  0  0  0
  6  5  1  0  0  0  0
  6 14  1  0  0  0  0
  6  7  1  0  0  0  0
  7 12  1  0  0  0  0
  7  3  1  0  0  0  0
 13  7  1  0  0  0  0
 14 19  1  0  0  0  0
 15 16  1  0  0  0  0
 15 14  2  0  0  0  0
 16 17  2  0  0  0  0
 17 22  1  0  0  0  0
 17 18  1  0  0  0  0
 18 23  1  0  0  0  0
 19 18  2  0  0  0  0
 19 24  1  0  0  0  0
 20 15  1  0  0  0  0
 21 16  1  0  0  0  0
 25 41  1  0  0  0  0
 26 25  1  0  0  0  0
 27 26  1  0  0  0  0
 28 27  2  0  0  0  0
 28 29  1  0  0  0  0
 29 25  2  0  0  0  0
 30 34  2  0  0  0  0
 30 27  1  0  0  0  0
 31 30  1  0  0  0  0
 32 31  2  0  0  0  0
 32 33  1  0  0  0  0
 33 34  1  0  0  0  0
 34 36  1  0  0  0  0
 35 31  1  0  0  0  0
 37 33  1  0  0  0  0
 37 38  1  0  0  0  0
 37 39  1  0  0  0  0
 40 37  1  0  0  0  0
 41 42  1  0  0  0  0
 41 43  1  0  0  0  0
 44 41  1  0  0  0  0
 45 48  1  0  0  0  0
 45  5  1  0  0  0  0
 46 45  1  0  0  0  0
 47 45  1  0  0  0  0
 48 50  1  0  0  0  0
 48 49  1  0  0  0  0
M  END
>  <MODEL>
25

>  <REMARK>
 VINA RESULT:    -4.066      3.180      5.256
 INTER + INTRA:          -6.103
 INTER:                  -6.779
 INTRA:                   0.676
 UNBOUND:                -0.730
  Name = 
  7 active torsions:
  status: ('A' for Active; 'I' for Inactive)
    1  A    between atoms: C_1  and  C_2
    2  A    between atoms: C_4  and  C_5
    3  A    between atoms: N_8  and  C_9
    4  A    between atoms: C_12  and  C_13
    5  A    between atoms: C_17  and  C_18
    6  A    between atoms: C_18  and  N_19
    7  A    between atoms: C_20  and  C_21
                            x       y       z     vdW  Elec       q    Type
                         _______ _______ _______ _____ _____    ______ ____

>  <TORSDO>
F 7

$$$$
=
 OpenBabel07192307433D

 50 53  0  0  1  0  0  0  0  0999 V2000
    1.4710    7.3660   18.0870 C   0  0  0  0  0  0  0  0  0  0  0  0
    0.7290    7.1330   17.1310 O   0  0  0  0  0  0  0  0  0  0  0  0
    2.2710    6.3630   18.6170 N   0  0  0  0  0  0  0  0  0  0  0  0
    2.2030    5.0100   18.0950 C   0  0  0  0  0  0  0  0  0  0  0  0
    2.9730    4.1450   19.0970 C   0  0  1  0  0  0  0  0  0  0  0  0
    4.0200    5.1310   19.6690 C   0  0  2  0  0  0  0  0  0  0  0  0
    3.2770    6.4790   19.6650 C   0  0  0  0  0  0  0  0  0  0  0  0
    2.6970    5.0100   17.1170 H   0  0  0  0  0  0  0  0  0  0  0  0
    1.1620    4.7080   17.9450 H   0  0  0  0  0  0  0  0  0  0  0  0
    3.4440    3.2970   18.5830 H   0  0  0  0  0  0  0  0  0  0  0  0
    4.2800    4.8920   20.7090 H   0  0  0  0  0  0  0  0  0  0  0  0
    3.9350    7.3370   19.4980 H   0  0  0  0  0  0  0  0  0  0  0  0
    2.7410    6.6180   20.6110 H   0  0  0  0  0  0  0  0  0  0  0  0
    5.3160    5.0810   18.8700 C   0  0  0  0  0  0  0  0  0  0  0  0
    6.5300    5.6030   19.3390 C   0  0  0  0  0  0  0  0  0  0  0  0
    7.6840    5.5470   18.5530 C   0  0  0  0  0  0  0  0  0  0  0  0
    7.6410    4.9730   17.2850 C   0  0  0  0  0  0  0  0  0  0  0  0
    6.4420    4.4570   16.7990 C   0  0  0  0  0  0  0  0  0  0  0  0
    5.2890    4.5140   17.5840 C   0  0  0  0  0  0  0  0  0  0  0  0
    6.6010    6.0680   20.3190 H   0  0  0  0  0  0  0  0  0  0  0  0
    8.6170    5.9540   18.9320 H   0  0  0  0  0  0  0  0  0  0  0  0
    8.5400    4.9290   16.6760 H   0  0  0  0  0  0  0  0  0  0  0  0
    6.4050    4.0110   15.8090 H   0  0  0  0  0  0  0  0  0  0  0  0
    4.3630    4.1080   17.1810 H   0  0  0  0  0  0  0  0  0  0  0  0
    1.2870    8.9840   20.0230 C   0  0  0  0  0  0  0  0  0  0  0  0
    1.4320   10.3290   20.2090 O   0  0  0  0  0  0  0  0  0  0  0  0
    1.7550   10.8170   18.9700 C   0  0  0  0  0  0  0  0  0  0  0  0
    1.8200    9.8880   18.0370 N   0  0  0  0  0  0  0  0  0  0  0  0
    1.5180    8.7020   18.6900 C   0  0  0  0  0  0  0  0  0  0  0  0
    2.0180   12.3150   18.6900 C   0  0  0  0  0  0  0  0  0  0  0  0
    1.1760   13.4050   18.9560 C   0  0  0  0  0  0  0  0  0  0  0  0
    1.7230   14.5660   18.5820 N   0  0  0  0  0  0  0  0  0  0  0  0
    2.9190   14.2030   18.0770 N   0  0  0  0  0  0  0  0  0  0  0  0
    3.1450   12.8580   18.1190 C   0  0  0  0  0  0  0  0  0  0  0  0
    0.1900   13.4020   19.4040 H   0  0  0  0  0  0  0  0  0  0  0  0
    4.0570   12.4110   17.7520 H   0  0  0  0  0  0  0  0  0  0  0  0
    3.8080   15.2160   17.5630 C   0  0  0  0  0  0  0  0  0  0  0  0
    4.8370   14.9070   17.7660 H   0  0  0  0  0  0  0  0  0  0  0  0
    3.5840   16.1600   18.0650 H   0  0  0  0  0  0  0  0  0  0  0  0
    3.6560   15.3220   16.4850 H   0  0  0  0  0  0  0  0  0  0  0  0
    0.9400    8.1780   21.2080 C   0  0  0  0  0  0  0  0  0  0  0  0
    0.2970    8.7470   21.8860 H   0  0  0  0  0  0  0  0  0  0  0  0
    0.4100    7.2680   20.9100 H   0  0  0  0  0  0  0  0  0  0  0  0
    1.8350    7.8800   21.7630 H   0  0  0  0  0  0  0  0  0  0  0  0
    2.0770    3.5910   20.2190 C   0  0  0  0  0  0  0  0  0  0  0  0
    2.0830    4.2520   21.0940 H   0  0  0  0  0  0  0  0  0  0  0  0
    2.4710    2.6250   20.5520 H   0  0  0  0  0  0  0  0  0  0  0  0
    0.6940    3.3830   19.8020 N   0  0  0  0  0  0  0  0  0  0  0  0
    0.5690    3.6750   18.8340 H   0  0  0  0  0  0  0  0  0  0  0  0
    0.0580    3.9500   20.3620 H   0  0  0  0  0  0  0  0  0  0  0  0
  1  3  1  0  0  0  0
  1 29  1  0  0  0  0
  2  1  2  0  0  0  0
  3  7  1  0  0  0  0
  4  3  1  0  0  0  0
  4  5  1  0  0  0  0
  5 10  1  6  0  0  0
  5  6  1  0  0  0  0
  5 45  1  0  0  0  0
  6 11  1  1  0  0  0
  7  6  1  0  0  0  0
  7 13  1  0  0  0  0
  8  4  1  0  0  0  0
  9  4  1  0  0  0  0
 12  7  1  0  0  0  0
 14 15  1  0  0  0  0
 14  6  1  0  0  0  0
 15 20  1  0  0  0  0
 16 21  1  0  0  0  0
 16 15  2  0  0  0  0
 17 16  1  0  0  0  0
 18 17  2  0  0  0  0
 18 19  1  0  0  0  0
 19 14  2  0  0  0  0
 22 17  1  0  0  0  0
 23 18  1  0  0  0  0
 24 19  1  0  0  0  0
 25 26  1  0  0  0  0
 25 41  1  0  0  0  0
 27 26  1  0  0  0  0
 28 29  1  0  0  0  0
 28 27  2  0  0  0  0
 29 25  2  0  0  0  0
 30 31  1  0  0  0  0
 30 27  1  0  0  0  0
 31 35  1  0  0  0  0
 32 31  2  0  0  0  0
 33 34  1  0  0  0  0
 33 32  1  0  0  0  0
 34 30  2  0  0  0  0
 36 34  1  0  0  0  0
 37 38  1  0  0  0  0
 37 39  1  0  0  0  0
 37 33  1  0  0  0  0
 40 37  1  0  0  0  0
 41 44  1  0  0  0  0
 41 42  1  0  0  0  0
 43 41  1  0  0  0  0
 45 47  1  0  0  0  0
 45 46  1  0  0  0  0
 48 45  1  0  0  0  0
 48 50  1  0  0  0  0
 49 48  1  0  0  0  0
M  END
>  <MODEL>
26

>  <REMARK>
 VINA RESULT:    -4.037      3.533      8.524
 INTER + INTRA:          -6.065
 INTER:                  -6.074
 INTRA:                   0.009
 UNBOUND:                -0.730
  Name = 
  7 active torsions:
  status: ('A' for Active; 'I' for Inactive)
    1  A    between atoms: C_1  and  C_2
    2  A    between atoms: C_4  and  C_5
    3  A    between atoms: N_8  and  C_9
    4  A    between atoms: C_12  and  C_13
    5  A    between atoms: C_17  and  C_18
    6  A    between atoms: C_18  and  N_19
    7  A    between atoms: C_20  and  C_21
                            x       y       z     vdW  Elec       q    Type
                         _______ _______ _______ _____ _____    ______ ____

>  <TORSDO>
F 7

$$$$
=
 OpenBabel07192307433D

 50 53  0  0  1  0  0  0  0  0999 V2000
    0.9510    8.4970   18.0430 C   0  0  0  0  0  0  0  0  0  0  0  0
    0.3180    8.4480   16.9870 O   0  0  0  0  0  0  0  0  0  0  0  0
    1.7170    7.4160   18.4550 N   0  0  0  0  0  0  0  0  0  0  0  0
    1.7370    6.1870   17.6820 C   0  0  0  0  0  0  0  0  0  0  0  0
    2.4220    5.1510   18.5780 C   0  0  1  0  0  0  0  0  0  0  0  0
    3.3800    6.0150   19.4330 C   0  0  2  0  0  0  0  0  0  0  0  0
    2.6070    7.3350   19.6070 C   0  0  0  0  0  0  0  0  0  0  0  0
    2.3290    6.3760   16.7790 H   0  0  0  0  0  0  0  0  0  0  0  0
    0.7260    5.9140   17.3680 H   0  0  0  0  0  0  0  0  0  0  0  0
    2.9640    4.4190   17.9650 H   0  0  0  0  0  0  0  0  0  0  0  0
    3.5370    5.5830   20.4310 H   0  0  0  0  0  0  0  0  0  0  0  0
    3.2570    8.2120   19.6750 H   0  0  0  0  0  0  0  0  0  0  0  0
    1.9730    7.2880   20.5000 H   0  0  0  0  0  0  0  0  0  0  0  0
    4.7510    6.1240   18.7810 C   0  0  0  0  0  0  0  0  0  0  0  0
    5.0040    6.9150   17.6490 C   0  0  0  0  0  0  0  0  0  0  0  0
    6.2790    6.9620   17.0810 C   0  0  0  0  0  0  0  0  0  0  0  0
    7.3190    6.2170   17.6290 C   0  0  0  0  0  0  0  0  0  0  0  0
    7.0850    5.4200   18.7460 C   0  0  0  0  0  0  0  0  0  0  0  0
    5.8110    5.3720   19.3150 C   0  0  0  0  0  0  0  0  0  0  0  0
    4.2150    7.5040   17.1870 H   0  0  0  0  0  0  0  0  0  0  0  0
    6.4590    7.5820   16.2060 H   0  0  0  0  0  0  0  0  0  0  0  0
    8.3110    6.2560   17.1860 H   0  0  0  0  0  0  0  0  0  0  0  0
    7.8940    4.8340   19.1750 H   0  0  0  0  0  0  0  0  0  0  0  0
    5.6500    4.7380   20.1850 H   0  0  0  0  0  0  0  0  0  0  0  0
    1.6750   10.8270   18.7160 C   0  0  0  0  0  0  0  0  0  0  0  0
    1.3390   11.7290   19.6840 O   0  0  0  0  0  0  0  0  0  0  0  0
    0.3600   11.1050   20.4140 C   0  0  0  0  0  0  0  0  0  0  0  0
    0.0660    9.8960   19.9770 N   0  0  0  0  0  0  0  0  0  0  0  0
    0.9020    9.6940   18.8890 C   0  0  0  0  0  0  0  0  0  0  0  0
   -0.3330   11.7560   21.6330 C   0  0  0  0  0  0  0  0  0  0  0  0
   -1.1270   11.1340   22.6090 C   0  0  0  0  0  0  0  0  0  0  0  0
   -1.5690   12.0030   23.5240 N   0  0  0  0  0  0  0  0  0  0  0  0
   -1.0490   13.1800   23.1200 N   0  0  0  0  0  0  0  0  0  0  0  0
   -0.2970   13.0840   21.9860 C   0  0  0  0  0  0  0  0  0  0  0  0
   -1.4010   10.0900   22.6910 H   0  0  0  0  0  0  0  0  0  0  0  0
    0.1860   13.9390   21.5360 H   0  0  0  0  0  0  0  0  0  0  0  0
   -1.3210   14.3740   23.8830 C   0  0  0  0  0  0  0  0  0  0  0  0
   -1.3940   14.0980   24.9390 H   0  0  0  0  0  0  0  0  0  0  0  0
   -2.2620   14.8010   23.5310 H   0  0  0  0  0  0  0  0  0  0  0  0
   -0.5080   15.0900   23.7390 H   0  0  0  0  0  0  0  0  0  0  0  0
    2.7200   11.2310   17.7560 C   0  0  0  0  0  0  0  0  0  0  0  0
    3.3690   11.9950   18.1950 H   0  0  0  0  0  0  0  0  0  0  0  0
    3.3350   10.3710   17.4750 H   0  0  0  0  0  0  0  0  0  0  0  0
    2.2810   11.6450   16.8430 H   0  0  0  0  0  0  0  0  0  0  0  0
    1.4290    4.3890   19.4740 C   0  0  0  0  0  0  0  0  0  0  0  0
    1.0890    3.4650   18.9910 H   0  0  0  0  0  0  0  0  0  0  0  0
    0.5390    5.0070   19.6340 H   0  0  0  0  0  0  0  0  0  0  0  0
    1.9760    4.0560   20.7860 N   0  0  0  0  0  0  0  0  0  0  0  0
    2.6140    3.2640   20.7130 H   0  0  0  0  0  0  0  0  0  0  0  0
    1.2340    3.7730   21.4250 H   0  0  0  0  0  0  0  0  0  0  0  0
  1  3  1  0  0  0  0
  1 29  1  0  0  0  0
  2  1  2  0  0  0  0
  3  7  1  0  0  0  0
  4  3  1  0  0  0  0
  4  5  1  0  0  0  0
  5 10  1  6  0  0  0
  5  6  1  0  0  0  0
  5 45  1  0  0  0  0
  6  7  1  0  0  0  0
  6 11  1  1  0  0  0
  7 12  1  0  0  0  0
  7 13  1  0  0  0  0
  8  4  1  0  0  0  0
  9  4  1  0  0  0  0
 14 19  1  0  0  0  0
 14  6  1  0  0  0  0
 15 14  2  0  0  0  0
 16 17  2  0  0  0  0
 16 15  1  0  0  0  0
 17 18  1  0  0  0  0
 18 23  1  0  0  0  0
 18 19  2  0  0  0  0
 19 24  1  0  0  0  0
 20 15  1  0  0  0  0
 21 16  1  0  0  0  0
 22 17  1  0  0  0  0
 25 29  2  0  0  0  0
 25 26  1  0  0  0  0
 26 27  1  0  0  0  0
 27 30  1  0  0  0  0
 28 27  2  0  0  0  0
 29 28  1  0  0  0  0
 30 34  2  0  0  0  0
 30 31  1  0  0  0  0
 31 35  1  0  0  0  0
 31 32  2  0  0  0  0
 33 32  1  0  0  0  0
 33 37  1  0  0  0  0
 34 33  1  0  0  0  0
 36 34  1  0  0  0  0
 37 38  1  0  0  0  0
 39 37  1  0  0  0  0
 40 37  1  0  0  0  0
 41 42  1  0  0  0  0
 41 25  1  0  0  0  0
 43 41  1  0  0  0  0
 44 41  1  0  0  0  0
 45 47  1  0  0  0  0
 45 48  1  0  0  0  0
 46 45  1  0  0  0  0
 48 50  1  0  0  0  0
 49 48  1  0  0  0  0
M  END
>  <MODEL>
27

>  <REMARK>
 VINA RESULT:    -4.018      3.209      8.407
 INTER + INTRA:          -6.040
 INTER:                  -5.348
 INTRA:                  -0.692
 UNBOUND:                -0.730
  Name = 
  7 active torsions:
  status: ('A' for Active; 'I' for Inactive)
    1  A    between atoms: C_1  and  C_2
    2  A    between atoms: C_4  and  C_5
    3  A    between atoms: N_8  and  C_9
    4  A    between atoms: C_12  and  C_13
    5  A    between atoms: C_17  and  C_18
    6  A    between atoms: C_18  and  N_19
    7  A    between atoms: C_20  and  C_21
                            x       y       z     vdW  Elec       q    Type
                         _______ _______ _______ _____ _____    ______ ____

>  <TORSDO>
F 7

$$$$
=
 OpenBabel07192307433D

 50 53  0  0  1  0  0  0  0  0999 V2000
   -0.3840   10.5580   18.2380 C   0  0  0  0  0  0  0  0  0  0  0  0
   -1.2320   10.3020   17.3810 O   0  0  0  0  0  0  0  0  0  0  0  0
   -0.4830   11.7110   19.0020 N   0  0  0  0  0  0  0  0  0  0  0  0
   -1.5500   12.6660   18.7650 C   0  0  0  0  0  0  0  0  0  0  0  0
   -1.1670   13.9170   19.5610 C   0  0  1  0  0  0  0  0  0  0  0  0
   -0.3540   13.3360   20.7430 C   0  0  2  0  0  0  0  0  0  0  0  0
    0.3580   12.1210   20.1200 C   0  0  0  0  0  0  0  0  0  0  0  0
   -2.4770   12.2260   19.1500 H   0  0  0  0  0  0  0  0  0  0  0  0
   -1.6810   12.8380   17.6920 H   0  0  0  0  0  0  0  0  0  0  0  0
   -2.0690   14.4410   19.9010 H   0  0  0  0  0  0  0  0  0  0  0  0
    0.4170   14.0360   21.0920 H   0  0  0  0  0  0  0  0  0  0  0  0
    0.5150   11.3000   20.8270 H   0  0  0  0  0  0  0  0  0  0  0  0
    1.3260   12.4230   19.7020 H   0  0  0  0  0  0  0  0  0  0  0  0
   -1.2530   13.0430   21.9370 C   0  0  0  0  0  0  0  0  0  0  0  0
   -1.5340   11.7440   22.3880 C   0  0  0  0  0  0  0  0  0  0  0  0
   -2.3820   11.5340   23.4780 C   0  0  0  0  0  0  0  0  0  0  0  0
   -2.9670   12.6170   24.1290 C   0  0  0  0  0  0  0  0  0  0  0  0
   -2.7070   13.9120   23.6900 C   0  0  0  0  0  0  0  0  0  0  0  0
   -1.8590   14.1220   22.6010 C   0  0  0  0  0  0  0  0  0  0  0  0
   -1.1040   10.8730   21.8990 H   0  0  0  0  0  0  0  0  0  0  0  0
   -2.5880   10.5220   23.8170 H   0  0  0  0  0  0  0  0  0  0  0  0
   -3.6270   12.4510   24.9770 H   0  0  0  0  0  0  0  0  0  0  0  0
   -3.1640   14.7590   24.1950 H   0  0  0  0  0  0  0  0  0  0  0  0
   -1.6740   15.1440   22.2730 H   0  0  0  0  0  0  0  0  0  0  0  0
    2.0660    9.9310   18.1390 C   0  0  0  0  0  0  0  0  0  0  0  0
    2.8320    8.8630   18.5070 O   0  0  0  0  0  0  0  0  0  0  0  0
    1.9450    7.9710   19.0500 C   0  0  0  0  0  0  0  0  0  0  0  0
    0.6970    8.3990   19.0460 N   0  0  0  0  0  0  0  0  0  0  0  0
    0.7510    9.6550   18.4610 C   0  0  0  0  0  0  0  0  0  0  0  0
    2.3640    6.5930   19.6120 C   0  0  0  0  0  0  0  0  0  0  0  0
    3.5120    5.8470   19.3060 C   0  0  0  0  0  0  0  0  0  0  0  0
    3.5560    4.6930   19.9800 N   0  0  0  0  0  0  0  0  0  0  0  0
    2.4260    4.7140   20.7160 N   0  0  0  0  0  0  0  0  0  0  0  0
    1.6740    5.8370   20.5300 C   0  0  0  0  0  0  0  0  0  0  0  0
    4.3150    6.0950   18.6230 H   0  0  0  0  0  0  0  0  0  0  0  0
    0.7400    6.0020   21.0470 H   0  0  0  0  0  0  0  0  0  0  0  0
    2.1280    3.6040   21.5880 C   0  0  0  0  0  0  0  0  0  0  0  0
    2.5510    3.8170   22.5730 H   0  0  0  0  0  0  0  0  0  0  0  0
    2.5760    2.7020   21.1640 H   0  0  0  0  0  0  0  0  0  0  0  0
    1.0450    3.4820   21.6640 H   0  0  0  0  0  0  0  0  0  0  0  0
    2.7620   11.0740   17.5190 C   0  0  0  0  0  0  0  0  0  0  0  0
    2.1470   11.9770   17.5780 H   0  0  0  0  0  0  0  0  0  0  0  0
    3.7110   11.2670   18.0290 H   0  0  0  0  0  0  0  0  0  0  0  0
    2.9800   10.8820   16.4640 H   0  0  0  0  0  0  0  0  0  0  0  0
   -0.3130   14.9040   18.7470 C   0  0  0  0  0  0  0  0  0  0  0  0
   -0.8710   15.8220   18.5260 H   0  0  0  0  0  0  0  0  0  0  0  0
   -0.0580   14.4510   17.7820 H   0  0  0  0  0  0  0  0  0  0  0  0
    0.9380   15.2660   19.4070 N   0  0  0  0  0  0  0  0  0  0  0  0
    1.2350   16.1960   19.1160 H   0  0  0  0  0  0  0  0  0  0  0  0
    1.6850   14.6250   19.1420 H   0  0  0  0  0  0  0  0  0  0  0  0
  1 29  1  0  0  0  0
  1  3  1  0  0  0  0
  2  1  2  0  0  0  0
  3  7  1  0  0  0  0
  4  3  1  0  0  0  0
  4  8  1  0  0  0  0
  4  5  1  0  0  0  0
  5 10  1  1  0  0  0
  5  6  1  0  0  0  0
  6 11  1  1  0  0  0
  6 14  1  0  0  0  0
  7  6  1  0  0  0  0
  7 12  1  0  0  0  0
  9  4  1  0  0  0  0
 13  7  1  0  0  0  0
 14 15  2  0  0  0  0
 14 19  1  0  0  0  0
 15 16  1  0  0  0  0
 16 21  1  0  0  0  0
 16 17  2  0  0  0  0
 17 22  1  0  0  0  0
 18 17  1  0  0  0  0
 18 23  1  0  0  0  0
 19 18  2  0  0  0  0
 20 15  1  0  0  0  0
 24 19  1  0  0  0  0
 25 29  2  0  0  0  0
 25 26  1  0  0  0  0
 26 27  1  0  0  0  0
 27 30  1  0  0  0  0
 28 27  2  0  0  0  0
 29 28  1  0  0  0  0
 30 34  2  0  0  0  0
 31 30  1  0  0  0  0
 31 32  2  0  0  0  0
 32 33  1  0  0  0  0
 33 37  1  0  0  0  0
 34 33  1  0  0  0  0
 34 36  1  0  0  0  0
 35 31  1  0  0  0  0
 37 40  1  0  0  0  0
 37 38  1  0  0  0  0
 39 37  1  0  0  0  0
 41 42  1  0  0  0  0
 41 43  1  0  0  0  0
 41 25  1  0  0  0  0
 44 41  1  0  0  0  0
 45 48  1  0  0  0  0
 45  5  1  0  0  0  0
 46 45  1  0  0  0  0
 47 45  1  0  0  0  0
 49 48  1  0  0  0  0
 50 48  1  0  0  0  0
M  END
>  <MODEL>
28

>  <REMARK>
 VINA RESULT:    -3.995      2.527      4.442
 INTER + INTRA:          -6.010
 INTER:                  -5.342
 INTRA:                  -0.668
 UNBOUND:                -0.730
  Name = 
  7 active torsions:
  status: ('A' for Active; 'I' for Inactive)
    1  A    between atoms: C_1  and  C_2
    2  A    between atoms: C_4  and  C_5
    3  A    between atoms: N_8  and  C_9
    4  A    between atoms: C_12  and  C_13
    5  A    between atoms: C_17  and  C_18
    6  A    between atoms: C_18  and  N_19
    7  A    between atoms: C_20  and  C_21
                            x       y       z     vdW  Elec       q    Type
                         _______ _______ _______ _____ _____    ______ ____

>  <TORSDO>
F 7

$$$$
=
 OpenBabel07192307433D

 50 53  0  0  1  0  0  0  0  0999 V2000
    5.7310    5.5200   18.9450 C   0  0  0  0  0  0  0  0  0  0  0  0
    6.1560    4.5870   19.6280 O   0  0  0  0  0  0  0  0  0  0  0  0
    4.3680    5.6690   18.7290 N   0  0  0  0  0  0  0  0  0  0  0  0
    3.4260    4.6960   19.2500 C   0  0  0  0  0  0  0  0  0  0  0  0
    2.0900    5.0120   18.5710 C   0  0  1  0  0  0  0  0  0  0  0  0
    2.1850    6.5370   18.3220 C   0  0  2  0  0  0  0  0  0  0  0  0
    3.6830    6.7590   18.0440 C   0  0  0  0  0  0  0  0  0  0  0  0
    3.3610    4.8490   20.3330 H   0  0  0  0  0  0  0  0  0  0  0  0
    3.7890    3.6780   19.0780 H   0  0  0  0  0  0  0  0  0  0  0  0
    1.2560    4.7560   19.2370 H   0  0  0  0  0  0  0  0  0  0  0  0
    1.6280    6.8390   17.4250 H   0  0  0  0  0  0  0  0  0  0  0  0
    4.0470    7.7350   18.3790 H   0  0  0  0  0  0  0  0  0  0  0  0
    3.8900    6.6470   16.9740 H   0  0  0  0  0  0  0  0  0  0  0  0
    1.5990    7.3220   19.4880 C   0  0  0  0  0  0  0  0  0  0  0  0
    1.2010    6.7260   20.6940 C   0  0  0  0  0  0  0  0  0  0  0  0
    0.6510    7.4940   21.7230 C   0  0  0  0  0  0  0  0  0  0  0  0
    0.4840    8.8660   21.5610 C   0  0  0  0  0  0  0  0  0  0  0  0
    0.8650    9.4740   20.3680 C   0  0  0  0  0  0  0  0  0  0  0  0
    1.4140    8.7070   19.3390 C   0  0  0  0  0  0  0  0  0  0  0  0
    1.3060    5.6560   20.8540 H   0  0  0  0  0  0  0  0  0  0  0  0
    0.3510    7.0180   22.6530 H   0  0  0  0  0  0  0  0  0  0  0  0
    0.0570    9.4620   22.3640 H   0  0  0  0  0  0  0  0  0  0  0  0
    0.7330   10.5450   20.2370 H   0  0  0  0  0  0  0  0  0  0  0  0
    1.7000    9.2030   18.4130 H   0  0  0  0  0  0  0  0  0  0  0  0
    7.2580    6.3460   17.1050 C   0  0  0  0  0  0  0  0  0  0  0  0
    8.0340    7.4470   16.8790 O   0  0  0  0  0  0  0  0  0  0  0  0
    7.8640    8.2250   17.9950 C   0  0  0  0  0  0  0  0  0  0  0  0
    7.0520    7.6960   18.8890 N   0  0  0  0  0  0  0  0  0  0  0  0
    6.6540    6.4860   18.3400 C   0  0  0  0  0  0  0  0  0  0  0  0
    8.5590    9.5920   18.1890 C   0  0  0  0  0  0  0  0  0  0  0  0
    9.4280    9.9810   19.2200 C   0  0  0  0  0  0  0  0  0  0  0  0
    9.8460   11.2430   19.0750 N   0  0  0  0  0  0  0  0  0  0  0  0
    9.2350   11.6510   17.9440 N   0  0  0  0  0  0  0  0  0  0  0  0
    8.4490   10.6920   17.3730 C   0  0  0  0  0  0  0  0  0  0  0  0
    9.7720    9.4020   20.0670 H   0  0  0  0  0  0  0  0  0  0  0  0
    7.8930   10.8650   16.4620 H   0  0  0  0  0  0  0  0  0  0  0  0
    9.4540   12.9930   17.4640 C   0  0  0  0  0  0  0  0  0  0  0  0
    9.7710   13.6130   18.3080 H   0  0  0  0  0  0  0  0  0  0  0  0
    8.5180   13.3670   17.0430 H   0  0  0  0  0  0  0  0  0  0  0  0
   10.2310   12.9830   16.6960 H   0  0  0  0  0  0  0  0  0  0  0  0
    7.2350    5.3150   16.0510 C   0  0  0  0  0  0  0  0  0  0  0  0
    6.4880    5.5610   15.2890 H   0  0  0  0  0  0  0  0  0  0  0  0
    8.2130    5.2390   15.5670 H   0  0  0  0  0  0  0  0  0  0  0  0
    6.9850    4.3320   16.4620 H   0  0  0  0  0  0  0  0  0  0  0  0
    1.9010    4.2550   17.2450 C   0  0  0  0  0  0  0  0  0  0  0  0
    2.4410    4.7460   16.4270 H   0  0  0  0  0  0  0  0  0  0  0  0
    0.8400    4.2640   16.9730 H   0  0  0  0  0  0  0  0  0  0  0  0
    2.3260    2.8600   17.3130 N   0  0  0  0  0  0  0  0  0  0  0  0
    1.5190    2.2410   17.2420 H   0  0  0  0  0  0  0  0  0  0  0  0
    2.7680    2.6600   18.2100 H   0  0  0  0  0  0  0  0  0  0  0  0
  1  2  2  0  0  0  0
  3  1  1  0  0  0  0
  3  4  1  0  0  0  0
  4  8  1  0  0  0  0
  5 10  1  1  0  0  0
  5  4  1  0  0  0  0
  6 11  1  6  0  0  0
  6  5  1  0  0  0  0
  6 14  1  0  0  0  0
  7  6  1  0  0  0  0
  7 12  1  0  0  0  0
  7  3  1  0  0  0  0
  9  4  1  0  0  0  0
 13  7  1  0  0  0  0
 14 15  1  0  0  0  0
 15 20  1  0  0  0  0
 15 16  2  0  0  0  0
 16 21  1  0  0  0  0
 17 16  1  0  0  0  0
 17 22  1  0  0  0  0
 18 17  2  0  0  0  0
 19 14  2  0  0  0  0
 19 18  1  0  0  0  0
 23 18  1  0  0  0  0
 24 19  1  0  0  0  0
 25 29  2  0  0  0  0
 26 25  1  0  0  0  0
 26 27  1  0  0  0  0
 27 30  1  0  0  0  0
 27 28  2  0  0  0  0
 29 28  1  0  0  0  0
 29  1  1  0  0  0  0
 30 31  1  0  0  0  0
 31 35  1  0  0  0  0
 32 31  2  0  0  0  0
 33 32  1  0  0  0  0
 34 33  1  0  0  0  0
 34 30  2  0  0  0  0
 36 34  1  0  0  0  0
 37 33  1  0  0  0  0
 37 38  1  0  0  0  0
 39 37  1  0  0  0  0
 40 37  1  0  0  0  0
 41 44  1  0  0  0  0
 41 25  1  0  0  0  0
 42 41  1  0  0  0  0
 43 41  1  0  0  0  0
 45 48  1  0  0  0  0
 45  5  1  0  0  0  0
 46 45  1  0  0  0  0
 47 45  1  0  0  0  0
 48 50  1  0  0  0  0
 49 48  1  0  0  0  0
M  END
>  <MODEL>
29

>  <REMARK>
 VINA RESULT:    -3.849      4.488      7.923
 INTER + INTRA:          -5.817
 INTER:                  -5.086
 INTRA:                  -0.730
 UNBOUND:                -0.730
  Name = 
  7 active torsions:
  status: ('A' for Active; 'I' for Inactive)
    1  A    between atoms: C_1  and  C_2
    2  A    between atoms: C_4  and  C_5
    3  A    between atoms: N_8  and  C_9
    4  A    between atoms: C_12  and  C_13
    5  A    between atoms: C_17  and  C_18
    6  A    between atoms: C_18  and  N_19
    7  A    between atoms: C_20  and  C_21
                            x       y       z     vdW  Elec       q    Type
                         _______ _______ _______ _____ _____    ______ ____

>  <TORSDO>
F 7

$$$$
=
 OpenBabel07192307433D

 50 53  0  0  1  0  0  0  0  0999 V2000
    1.8610    8.2230   20.2050 C   0  0  0  0  0  0  0  0  0  0  0  0
    2.0130    8.4160   21.4130 O   0  0  0  0  0  0  0  0  0  0  0  0
    2.5300    7.1870   19.5690 N   0  0  0  0  0  0  0  0  0  0  0  0
    3.4660    6.3520   20.3000 C   0  0  0  0  0  0  0  0  0  0  0  0
    4.2150    5.5450   19.2350 C   0  0  1  0  0  0  0  0  0  0  0  0
    3.1690    5.4200   18.1010 C   0  0  2  0  0  0  0  0  0  0  0  0
    2.3930    6.7480   18.1860 C   0  0  0  0  0  0  0  0  0  0  0  0
    2.8790    5.6930   20.9500 H   0  0  0  0  0  0  0  0  0  0  0  0
    4.1100    6.9640   20.9380 H   0  0  0  0  0  0  0  0  0  0  0  0
    4.5050    4.5660   19.6360 H   0  0  0  0  0  0  0  0  0  0  0  0
    3.6450    5.3710   17.1120 H   0  0  0  0  0  0  0  0  0  0  0  0
    1.3430    6.6560   17.8960 H   0  0  0  0  0  0  0  0  0  0  0  0
    2.8730    7.5070   17.5580 H   0  0  0  0  0  0  0  0  0  0  0  0
    2.3410    4.1520   18.2540 C   0  0  0  0  0  0  0  0  0  0  0  0
    1.1950    4.0740   19.0600 C   0  0  0  0  0  0  0  0  0  0  0  0
    0.4850    2.8770   19.1780 C   0  0  0  0  0  0  0  0  0  0  0  0
    0.9110    1.7390   18.4980 C   0  0  0  0  0  0  0  0  0  0  0  0
    2.0510    1.7950   17.7010 C   0  0  0  0  0  0  0  0  0  0  0  0
    2.7610    2.9910   17.5830 C   0  0  0  0  0  0  0  0  0  0  0  0
    0.8370    4.9380   19.6140 H   0  0  0  0  0  0  0  0  0  0  0  0
   -0.4020    2.8330   19.8040 H   0  0  0  0  0  0  0  0  0  0  0  0
    0.3560    0.8090   18.5910 H   0  0  0  0  0  0  0  0  0  0  0  0
    2.3870    0.9080   17.1710 H   0  0  0  0  0  0  0  0  0  0  0  0
    3.6520    3.0100   16.9570 H   0  0  0  0  0  0  0  0  0  0  0  0
    1.3890    9.9210   18.3900 C   0  0  0  0  0  0  0  0  0  0  0  0
    0.2890   10.5540   17.8860 O   0  0  0  0  0  0  0  0  0  0  0  0
   -0.7580   10.0730   18.6280 C   0  0  0  0  0  0  0  0  0  0  0  0
   -0.3970    9.1980   19.5460 N   0  0  0  0  0  0  0  0  0  0  0  0
    0.9800    9.0890   19.4150 C   0  0  0  0  0  0  0  0  0  0  0  0
   -2.2240   10.5120   18.4110 C   0  0  0  0  0  0  0  0  0  0  0  0
   -3.2240    9.8550   17.6790 C   0  0  0  0  0  0  0  0  0  0  0  0
   -4.3840   10.5220   17.7010 N   0  0  0  0  0  0  0  0  0  0  0  0
   -4.1090   11.6070   18.4530 N   0  0  0  0  0  0  0  0  0  0  0  0
   -2.8220   11.6470   18.9040 C   0  0  0  0  0  0  0  0  0  0  0  0
   -3.1580    8.9230   17.1320 H   0  0  0  0  0  0  0  0  0  0  0  0
   -2.4480   12.4540   19.5180 H   0  0  0  0  0  0  0  0  0  0  0  0
   -5.1470   12.5780   18.7000 C   0  0  0  0  0  0  0  0  0  0  0  0
   -6.1150   12.0930   18.5500 H   0  0  0  0  0  0  0  0  0  0  0  0
   -5.0190   13.4060   17.9980 H   0  0  0  0  0  0  0  0  0  0  0  0
   -5.0660   12.9440   19.7270 H   0  0  0  0  0  0  0  0  0  0  0  0
    2.6890   10.2400   17.7710 C   0  0  0  0  0  0  0  0  0  0  0  0
    3.0350    9.4070   17.1520 H   0  0  0  0  0  0  0  0  0  0  0  0
    2.6040   11.1300   17.1400 H   0  0  0  0  0  0  0  0  0  0  0  0
    3.4530   10.4370   18.5300 H   0  0  0  0  0  0  0  0  0  0  0  0
    5.4830    6.2560   18.7310 C   0  0  0  0  0  0  0  0  0  0  0  0
    6.3310    6.0760   19.4020 H   0  0  0  0  0  0  0  0  0  0  0  0
    5.3120    7.3380   18.7240 H   0  0  0  0  0  0  0  0  0  0  0  0
    5.8660    5.8620   17.3790 N   0  0  0  0  0  0  0  0  0  0  0  0
    5.0950    5.3790   16.9200 H   0  0  0  0  0  0  0  0  0  0  0  0
    6.6470    5.2070   17.4020 H   0  0  0  0  0  0  0  0  0  0  0  0
  1  2  2  0  0  0  0
  3  1  1  0  0  0  0
  3  4  1  0  0  0  0
  4  9  1  0  0  0  0
  4  8  1  0  0  0  0
  5 10  1  1  0  0  0
  5  4  1  0  0  0  0
  6 11  1  6  0  0  0
  6  7  1  0  0  0  0
  6 14  1  0  0  0  0
  6  5  1  0  0  0  0
  7  3  1  0  0  0  0
 12  7  1  0  0  0  0
 13  7  1  0  0  0  0
 14 15  1  0  0  0  0
 15 16  2  0  0  0  0
 15 20  1  0  0  0  0
 16 21  1  0  0  0  0
 17 22  1  0  0  0  0
 17 16  1  0  0  0  0
 18 17  2  0  0  0  0
 19 18  1  0  0  0  0
 19 14  2  0  0  0  0
 23 18  1  0  0  0  0
 24 19  1  0  0  0  0
 25 29  2  0  0  0  0
 26 25  1  0  0  0  0
 26 27  1  0  0  0  0
 27 28  2  0  0  0  0
 29 28  1  0  0  0  0
 29  1  1  0  0  0  0
 30 27  1  0  0  0  0
 30 34  2  0  0  0  0
 31 32  2  0  0  0  0
 31 30  1  0  0  0  0
 32 33  1  0  0  0  0
 33 37  1  0  0  0  0
 33 34  1  0  0  0  0
 34 36  1  0  0  0  0
 35 31  1  0  0  0  0
 37 40  1  0  0  0  0
 38 37  1  0  0  0  0
 39 37  1  0  0  0  0
 41 25  1  0  0  0  0
 41 44  1  0  0  0  0
 42 41  1  0  0  0  0
 43 41  1  0  0  0  0
 45  5  1  0  0  0  0
 45 46  1  0  0  0  0
 47 45  1  0  0  0  0
 48 50  1  0  0  0  0
 48 45  1  0  0  0  0
 49 48  1  0  0  0  0
M  END
>  <MODEL>
30

>  <REMARK>
 VINA RESULT:    -3.812      1.858      8.009
 INTER + INTRA:          -5.768
 INTER:                  -5.279
 INTRA:                  -0.490
 UNBOUND:                -0.730
  Name = 
  7 active torsions:
  status: ('A' for Active; 'I' for Inactive)
    1  A    between atoms: C_1  and  C_2
    2  A    between atoms: C_4  and  C_5
    3  A    between atoms: N_8  and  C_9
    4  A    between atoms: C_12  and  C_13
    5  A    between atoms: C_17  and  C_18
    6  A    between atoms: C_18  and  N_19
    7  A    between atoms: C_20  and  C_21
                            x       y       z     vdW  Elec       q    Type
                         _______ _______ _______ _____ _____    ______ ____

>  <TORSDO>
F 7

$$$$
=
 OpenBabel07192307433D

 50 53  0  0  1  0  0  0  0  0999 V2000
    1.4040   11.3950   18.4920 C   0  0  0  0  0  0  0  0  0  0  0  0
    2.1150   12.2590   17.9760 O   0  0  0  0  0  0  0  0  0  0  0  0
    0.3850   11.7520   19.3650 N   0  0  0  0  0  0  0  0  0  0  0  0
    0.1780   13.1410   19.7320 C   0  0  0  0  0  0  0  0  0  0  0  0
   -0.8000   13.1130   20.9100 C   0  0  1  0  0  0  0  0  0  0  0  0
   -1.6300   11.8350   20.6370 C   0  0  2  0  0  0  0  0  0  0  0  0
   -0.6120   10.8840   19.9810 C   0  0  0  0  0  0  0  0  0  0  0  0
   -0.2650   13.6460   18.8660 H   0  0  0  0  0  0  0  0  0  0  0  0
    1.1330   13.6270   19.9500 H   0  0  0  0  0  0  0  0  0  0  0  0
   -1.4230   14.0160   20.9070 H   0  0  0  0  0  0  0  0  0  0  0  0
   -1.9760   11.3670   21.5680 H   0  0  0  0  0  0  0  0  0  0  0  0
   -1.0600   10.2060   19.2490 H   0  0  0  0  0  0  0  0  0  0  0  0
   -0.0960   10.2950   20.7470 H   0  0  0  0  0  0  0  0  0  0  0  0
   -2.8730   12.1520   19.8160 C   0  0  0  0  0  0  0  0  0  0  0  0
   -3.9180   12.9630   20.2840 C   0  0  0  0  0  0  0  0  0  0  0  0
   -5.0440   13.2040   19.4930 C   0  0  0  0  0  0  0  0  0  0  0  0
   -5.1470   12.6330   18.2280 C   0  0  0  0  0  0  0  0  0  0  0  0
   -4.1240   11.8180   17.7500 C   0  0  0  0  0  0  0  0  0  0  0  0
   -2.9980   11.5770   18.5400 C   0  0  0  0  0  0  0  0  0  0  0  0
   -3.8780   13.4180   21.2700 H   0  0  0  0  0  0  0  0  0  0  0  0
   -5.8430   13.8370   19.8690 H   0  0  0  0  0  0  0  0  0  0  0  0
   -6.0240   12.8220   17.6140 H   0  0  0  0  0  0  0  0  0  0  0  0
   -4.2030   11.3690   16.7640 H   0  0  0  0  0  0  0  0  0  0  0  0
   -2.2130   10.9320   18.1480 H   0  0  0  0  0  0  0  0  0  0  0  0
    0.7010    9.1240   17.6270 C   0  0  0  0  0  0  0  0  0  0  0  0
    1.2710    7.8890   17.5060 O   0  0  0  0  0  0  0  0  0  0  0  0
    2.5350    8.0390   18.0130 C   0  0  0  0  0  0  0  0  0  0  0  0
    2.7920    9.2610   18.4380 N   0  0  0  0  0  0  0  0  0  0  0  0
    1.6250    9.9740   18.2040 C   0  0  0  0  0  0  0  0  0  0  0  0
    3.5640    6.8880   18.0830 C   0  0  0  0  0  0  0  0  0  0  0  0
    4.7230    6.7160   17.3120 C   0  0  0  0  0  0  0  0  0  0  0  0
    5.3840    5.6000   17.6390 N   0  0  0  0  0  0  0  0  0  0  0  0
    4.6340    5.0660   18.6240 N   0  0  0  0  0  0  0  0  0  0  0  0
    3.5270    5.8040   18.9280 C   0  0  0  0  0  0  0  0  0  0  0  0
    5.1130    7.3540   16.5280 H   0  0  0  0  0  0  0  0  0  0  0  0
    2.8250    5.5080   19.6950 H   0  0  0  0  0  0  0  0  0  0  0  0
    5.0460    3.8260   19.2360 C   0  0  0  0  0  0  0  0  0  0  0  0
    5.6150    4.0610   20.1400 H   0  0  0  0  0  0  0  0  0  0  0  0
    5.6660    3.2790   18.5220 H   0  0  0  0  0  0  0  0  0  0  0  0
    4.1630    3.2360   19.4930 H   0  0  0  0  0  0  0  0  0  0  0  0
   -0.6850    9.2730   17.1470 C   0  0  0  0  0  0  0  0  0  0  0  0
   -1.3810    8.7600   17.8180 H   0  0  0  0  0  0  0  0  0  0  0  0
   -0.9620   10.3300   17.0990 H   0  0  0  0  0  0  0  0  0  0  0  0
   -0.8060    8.8460   16.1460 H   0  0  0  0  0  0  0  0  0  0  0  0
   -0.0900   13.0210   22.2720 C   0  0  0  0  0  0  0  0  0  0  0  0
    0.5160   13.9140   22.4640 H   0  0  0  0  0  0  0  0  0  0  0  0
    0.5990   12.1690   22.2640 H   0  0  0  0  0  0  0  0  0  0  0  0
   -1.0100   12.8310   23.3890 N   0  0  0  0  0  0  0  0  0  0  0  0
   -1.2060   11.8400   23.5220 H   0  0  0  0  0  0  0  0  0  0  0  0
   -1.9050   13.2820   23.2010 H   0  0  0  0  0  0  0  0  0  0  0  0
  1  3  1  0  0  0  0
  2  1  2  0  0  0  0
  3  4  1  0  0  0  0
  3  7  1  0  0  0  0
  4  9  1  0  0  0  0
  4  5  1  0  0  0  0
  5 10  1  6  0  0  0
  5 45  1  0  0  0  0
  6  5  1  0  0  0  0
  6 11  1  1  0  0  0
  7  6  1  0  0  0  0
  7 13  1  0  0  0  0
  8  4  1  0  0  0  0
 12  7  1  0  0  0  0
 14 15  1  0  0  0  0
 14  6  1  0  0  0  0
 15 20  1  0  0  0  0
 16 21  1  0  0  0  0
 16 15  2  0  0  0  0
 17 16  1  0  0  0  0
 18 17  2  0  0  0  0
 18 19  1  0  0  0  0
 19 14  2  0  0  0  0
 22 17  1  0  0  0  0
 23 18  1  0  0  0  0
 24 19  1  0  0  0  0
 25 29  2  0  0  0  0
 26 25  1  0  0  0  0
 26 27  1  0  0  0  0
 27 30  1  0  0  0  0
 27 28  2  0  0  0  0
 29 28  1  0  0  0  0
 29  1  1  0  0  0  0
 30 34  2  0  0  0  0
 31 32  2  0  0  0  0
 31 30  1  0  0  0  0
 32 33  1  0  0  0  0
 33 34  1  0  0  0  0
 33 37  1  0  0  0  0
 34 36  1  0  0  0  0
 35 31  1  0  0  0  0
 37 40  1  0  0  0  0
 37 38  1  0  0  0  0
 39 37  1  0  0  0  0
 41 25  1  0  0  0  0
 41 42  1  0  0  0  0
 43 41  1  0  0  0  0
 44 41  1  0  0  0  0
 45 46  1  0  0  0  0
 45 48  1  0  0  0  0
 47 45  1  0  0  0  0
 48 49  1  0  0  0  0
 50 48  1  0  0  0  0
M  END
>  <MODEL>
31

>  <REMARK>
 VINA RESULT:    -3.798      1.981      2.596
 INTER + INTRA:          -5.750
 INTER:                  -5.364
 INTRA:                  -0.386
 UNBOUND:                -0.730
  Name = 
  7 active torsions:
  status: ('A' for Active; 'I' for Inactive)
    1  A    between atoms: C_1  and  C_2
    2  A    between atoms: C_4  and  C_5
    3  A    between atoms: N_8  and  C_9
    4  A    between atoms: C_12  and  C_13
    5  A    between atoms: C_17  and  C_18
    6  A    between atoms: C_18  and  N_19
    7  A    between atoms: C_20  and  C_21
                            x       y       z     vdW  Elec       q    Type
                         _______ _______ _______ _____ _____    ______ ____

>  <TORSDO>
F 7

$$$$
=
 OpenBabel07192307433D

 50 53  0  0  1  0  0  0  0  0999 V2000
   -0.3930    9.6940   21.2420 C   0  0  0  0  0  0  0  0  0  0  0  0
   -1.0890    9.9170   22.2340 O   0  0  0  0  0  0  0  0  0  0  0  0
   -0.4640   10.5240   20.1320 N   0  0  0  0  0  0  0  0  0  0  0  0
   -1.4010   11.6320   20.0960 C   0  0  0  0  0  0  0  0  0  0  0  0
   -1.4110   12.1140   18.6420 C   0  0  1  0  0  0  0  0  0  0  0  0
    0.0170   11.7700   18.1560 C   0  0  2  0  0  0  0  0  0  0  0  0
    0.3510   10.4780   18.9240 C   0  0  0  0  0  0  0  0  0  0  0  0
   -1.0160   12.4100   20.7640 H   0  0  0  0  0  0  0  0  0  0  0  0
   -2.3800   11.3200   20.4740 H   0  0  0  0  0  0  0  0  0  0  0  0
   -1.6110   13.1930   18.6020 H   0  0  0  0  0  0  0  0  0  0  0  0
    0.0380   11.5390   17.0830 H   0  0  0  0  0  0  0  0  0  0  0  0
    1.4140   10.3760   19.1610 H   0  0  0  0  0  0  0  0  0  0  0  0
    0.0270    9.6020   18.3500 H   0  0  0  0  0  0  0  0  0  0  0  0
    0.9680   12.9400   18.3730 C   0  0  0  0  0  0  0  0  0  0  0  0
    0.5360   14.2270   18.7290 C   0  0  0  0  0  0  0  0  0  0  0  0
    1.4530   15.2670   18.8950 C   0  0  0  0  0  0  0  0  0  0  0  0
    2.8130   15.0400   18.7040 C   0  0  0  0  0  0  0  0  0  0  0  0
    3.2600   13.7720   18.3420 C   0  0  0  0  0  0  0  0  0  0  0  0
    2.3440   12.7320   18.1750 C   0  0  0  0  0  0  0  0  0  0  0  0
   -0.5180   14.4450   18.8770 H   0  0  0  0  0  0  0  0  0  0  0  0
    1.1030   16.2580   19.1740 H   0  0  0  0  0  0  0  0  0  0  0  0
    3.5250   15.8510   18.8350 H   0  0  0  0  0  0  0  0  0  0  0  0
    4.3200   13.5920   18.1900 H   0  0  0  0  0  0  0  0  0  0  0  0
    2.7150   11.7490   17.8880 H   0  0  0  0  0  0  0  0  0  0  0  0
    1.6970    8.4390   21.9190 C   0  0  0  0  0  0  0  0  0  0  0  0
    2.2580    7.2250   21.6450 O   0  0  0  0  0  0  0  0  0  0  0  0
    1.3840    6.6290   20.7730 C   0  0  0  0  0  0  0  0  0  0  0  0
    0.3330    7.3730   20.4870 N   0  0  0  0  0  0  0  0  0  0  0  0
    0.5160    8.5430   21.2090 C   0  0  0  0  0  0  0  0  0  0  0  0
    1.6070    5.2190   20.1800 C   0  0  0  0  0  0  0  0  0  0  0  0
    0.8550    4.0560   20.4080 C   0  0  0  0  0  0  0  0  0  0  0  0
    1.3320    3.0080   19.7290 N   0  0  0  0  0  0  0  0  0  0  0  0
    2.3930    3.5150   19.0690 N   0  0  0  0  0  0  0  0  0  0  0  0
    2.6000    4.8430   19.3070 C   0  0  0  0  0  0  0  0  0  0  0  0
   -0.0170    3.9290   21.0380 H   0  0  0  0  0  0  0  0  0  0  0  0
    3.4100    5.3940   18.8520 H   0  0  0  0  0  0  0  0  0  0  0  0
    3.1740    2.6540   18.2140 C   0  0  0  0  0  0  0  0  0  0  0  0
    3.9570    2.1890   18.8180 H   0  0  0  0  0  0  0  0  0  0  0  0
    3.6110    3.2620   17.4190 H   0  0  0  0  0  0  0  0  0  0  0  0
    2.5270    1.8850   17.7840 H   0  0  0  0  0  0  0  0  0  0  0  0
    2.4250    9.3170   22.8540 C   0  0  0  0  0  0  0  0  0  0  0  0
    1.9660   10.3100   22.8840 H   0  0  0  0  0  0  0  0  0  0  0  0
    2.4110    8.8970   23.8640 H   0  0  0  0  0  0  0  0  0  0  0  0
    3.4700    9.4380   22.5530 H   0  0  0  0  0  0  0  0  0  0  0  0
   -2.4670   11.3960   17.7830 C   0  0  0  0  0  0  0  0  0  0  0  0
   -3.4740   11.7740   17.9940 H   0  0  0  0  0  0  0  0  0  0  0  0
   -2.4720   10.3290   18.0330 H   0  0  0  0  0  0  0  0  0  0  0  0
   -2.2170   11.5090   16.3490 N   0  0  0  0  0  0  0  0  0  0  0  0
   -2.9060   12.1240   15.9180 H   0  0  0  0  0  0  0  0  0  0  0  0
   -2.3100   10.6020   15.8940 H   0  0  0  0  0  0  0  0  0  0  0  0
  1  2  2  0  0  0  0
  3  1  1  0  0  0  0
  4  3  1  0  0  0  0
  4  9  1  0  0  0  0
  4  8  1  0  0  0  0
  5 10  1  6  0  0  0
  5  4  1  0  0  0  0
  6 11  1  6  0  0  0
  6 14  1  0  0  0  0
  6  5  1  0  0  0  0
  6  7  1  0  0  0  0
  7 12  1  0  0  0  0
  7  3  1  0  0  0  0
 13  7  1  0  0  0  0
 14 15  1  0  0  0  0
 15 20  1  0  0  0  0
 15 16  2  0  0  0  0
 16 21  1  0  0  0  0
 17 22  1  0  0  0  0
 17 16  1  0  0  0  0
 18 17  2  0  0  0  0
 19 18  1  0  0  0  0
 19 14  2  0  0  0  0
 23 18  1  0  0  0  0
 24 19  1  0  0  0  0
 25 41  1  0  0  0  0
 26 25  1  0  0  0  0
 27 26  1  0  0  0  0
 28 27  2  0  0  0  0
 28 29  1  0  0  0  0
 29  1  1  0  0  0  0
 29 25  2  0  0  0  0
 30 31  1  0  0  0  0
 30 27  1  0  0  0  0
 31 35  1  0  0  0  0
 32 31  2  0  0  0  0
 33 34  1  0  0  0  0
 33 32  1  0  0  0  0
 34 30  2  0  0  0  0
 36 34  1  0  0  0  0
 37 38  1  0  0  0  0
 37 33  1  0  0  0  0
 39 37  1  0  0  0  0
 40 37  1  0  0  0  0
 41 42  1  0  0  0  0
 41 43  1  0  0  0  0
 44 41  1  0  0  0  0
 45 46  1  0  0  0  0
 45 47  1  0  0  0  0
 45  5  1  0  0  0  0
 48 45  1  0  0  0  0
 49 48  1  0  0  0  0
 50 48  1  0  0  0  0
M  END
>  <MODEL>
32

>  <REMARK>
 VINA RESULT:    -3.666      2.258      4.064
 INTER + INTRA:          -5.574
 INTER:                  -4.732
 INTRA:                  -0.842
 UNBOUND:                -0.730
  Name = 
  7 active torsions:
  status: ('A' for Active; 'I' for Inactive)
    1  A    between atoms: C_1  and  C_2
    2  A    between atoms: C_4  and  C_5
    3  A    between atoms: N_8  and  C_9
    4  A    between atoms: C_12  and  C_13
    5  A    between atoms: C_17  and  C_18
    6  A    between atoms: C_18  and  N_19
    7  A    between atoms: C_20  and  C_21
                            x       y       z     vdW  Elec       q    Type
                         _______ _______ _______ _____ _____    ______ ____

>  <TORSDO>
F 7

$$$$
