=
 OpenBabel07192307433D

 48 52  0  0  0  0  0  0  0  0999 V2000
    1.2210    8.9250   20.3400 C   0  0  0  0  0  0  0  0  0  0  0  0
    1.7060    9.1580   19.0540 C   0  0  0  0  0  0  0  0  0  0  0  0
    2.3000    8.1290   18.3180 C   0  0  0  0  0  0  0  0  0  0  0  0
    2.4130    6.8420   18.8590 C   0  0  0  0  0  0  0  0  0  0  0  0
    3.0060    5.7930   18.1360 C   0  0  0  0  0  0  0  0  0  0  0  0
    3.1120    4.5050   18.6800 C   0  0  0  0  0  0  0  0  0  0  0  0
    2.6100    4.2680   19.9630 C   0  0  0  0  0  0  0  0  0  0  0  0
    2.0210    5.3030   20.6940 C   0  0  0  0  0  0  0  0  0  0  0  0
    1.9160    6.5950   20.1580 C   0  0  0  0  0  0  0  0  0  0  0  0
    1.3240    7.6440   20.8860 C   0  0  0  0  0  0  0  0  0  0  0  0
    1.6270   10.1500   18.6170 H   0  0  0  0  0  0  0  0  0  0  0  0
    2.6720    8.3420   17.3200 H   0  0  0  0  0  0  0  0  0  0  0  0
    3.3840    5.9810   17.1310 H   0  0  0  0  0  0  0  0  0  0  0  0
    2.6730    3.2760   20.4060 H   0  0  0  0  0  0  0  0  0  0  0  0
    1.6390    5.0890   21.6900 H   0  0  0  0  0  0  0  0  0  0  0  0
    0.9390    7.4250   21.8770 H   0  0  0  0  0  0  0  0  0  0  0  0
    3.7330    3.3850   17.8780 C   0  0  0  0  0  0  0  0  0  0  0  0
    2.9540    2.6410   17.6640 H   0  0  0  0  0  0  0  0  0  0  0  0
    4.4780    2.8610   18.4920 H   0  0  0  0  0  0  0  0  0  0  0  0
    4.3510    3.8510   16.5570 C   0  0  0  0  0  0  0  0  0  0  0  0
    3.8080    4.7240   16.1750 H   0  0  0  0  0  0  0  0  0  0  0  0
    4.2260    3.0540   15.8130 H   0  0  0  0  0  0  0  0  0  0  0  0
    5.7980    4.1550   16.6570 C   0  0  0  0  0  0  0  0  0  0  0  0
    6.4310    4.3940   17.8490 N   0  0  0  0  0  0  0  0  0  0  0  0
    7.7000    4.6370   17.5560 N   0  0  0  0  0  2  0  0  0  0  0  0
    7.7680    4.5240   16.2220 N   0  0  0  0  0  0  0  0  0  0  0  0
    6.6230    4.2040   15.6000 N   0  0  0  0  0  2  0  0  0  0  0  0
    8.6380    4.6700   15.7160 H   0  0  0  0  0  0  0  0  0  0  0  0
    0.6610   10.0190   20.9410 O   0  0  0  0  0  0  0  0  0  0  0  0
    0.5310   11.2220   20.1750 C   0  0  0  0  0  0  0  0  0  0  0  0
    1.2160   11.1270   19.3240 H   0  0  0  0  0  0  0  0  0  0  0  0
    0.8760   12.0960   20.7410 H   0  0  0  0  0  0  0  0  0  0  0  0
   -4.0540   10.2400   14.7630 F   0  0  0  0  0  0  0  0  0  0  0  0
   -3.8390   10.7270   15.9910 C   0  0  0  0  0  0  0  0  0  0  0  0
   -4.8720   11.3650   16.6610 C   0  0  0  0  0  0  0  0  0  0  0  0
   -4.6420   11.8690   17.9380 C   0  0  0  0  0  0  0  0  0  0  0  0
   -3.3740   11.7300   18.5320 C   0  0  0  0  0  0  0  0  0  0  0  0
   -3.1060   12.2230   19.8130 C   0  0  0  0  0  0  0  0  0  0  0  0
   -1.8390   12.0660   20.3620 C   0  0  0  0  0  0  0  0  0  0  0  0
   -0.8610   11.4210   19.6140 C   0  0  0  0  0  0  0  0  0  0  0  0
   -1.1020   10.9260   18.3710 N   0  0  0  0  0  0  0  0  0  0  0  0
   -2.3280   11.0790   17.8410 C   0  0  0  0  0  0  0  0  0  0  0  0
   -2.5830   10.5850   16.5720 C   0  0  0  0  0  0  0  0  0  0  0  0
   -5.8430   11.4640   16.1870 H   0  0  0  0  0  0  0  0  0  0  0  0
   -5.4500   12.3700   18.4660 H   0  0  0  0  0  0  0  0  0  0  0  0
   -3.8760   12.7320   20.3870 H   0  0  0  0  0  0  0  0  0  0  0  0
   -1.6160   12.4500   21.3530 H   0  0  0  0  0  0  0  0  0  0  0  0
   -1.7950   10.0810   16.0210 H   0  0  0  0  0  0  0  0  0  0  0  0
  1 10  1  0  0  0  0
  1 29  1  0  0  0  0
  2  1  2  0  0  0  0
  3  4  2  0  0  0  0
  3  2  1  0  0  0  0
  4  9  1  0  0  0  0
  5  6  2  0  0  0  0
  5  4  1  0  0  0  0
  6  7  1  0  0  0  0
  7 14  1  0  0  0  0
  7  8  2  0  0  0  0
  8 15  1  0  0  0  0
  9  8  1  0  0  0  0
  9 10  2  0  0  0  0
 10 16  1  0  0  0  0
 11  2  1  0  0  0  0
 12  3  1  0  0  0  0
 13  5  1  0  0  0  0
 17 19  1  0  0  0  0
 17  6  1  0  0  0  0
 18 17  1  0  0  0  0
 20 23  1  0  0  0  0
 20 17  1  0  0  0  0
 21 20  1  0  0  0  0
 22 20  1  0  0  0  0
 23 24  2  0  0  0  0
 25 24  1  0  0  0  0
 26 25  1  0  0  0  0
 27 26  1  0  0  0  0
 27 23  1  0  0  0  0
 28 26  1  0  0  0  0
 30 32  1  0  0  0  0
 30 29  1  0  0  0  0
 31 30  1  0  0  0  0
 33 34  1  0  0  0  0
 34 43  2  0  0  0  0
 34 35  1  0  0  0  0
 35 36  2  0  0  0  0
 36 45  1  0  0  0  0
 36 37  1  0  0  0  0
 37 38  1  0  0  0  0
 38 39  2  0  0  0  0
 38 46  1  0  0  0  0
 39 47  1  0  0  0  0
 40 30  1  0  0  0  0
 40 39  1  0  0  0  0
 41 40  2  0  0  0  0
 42 41  1  0  0  0  0
 42 37  2  0  0  0  0
 43 42  1  0  0  0  0
 44 35  1  0  0  0  0
 48 43  1  0  0  0  0
M  END
>  <MODEL>
1

>  <REMARK>
 VINA RESULT:    -9.405      0.000      0.000
 INTER + INTRA:         -12.817
 INTER:                 -12.262
 INTRA:                  -0.555
 UNBOUND:                -0.112
  Name = 
  6 active torsions:
  status: ('A' for Active; 'I' for Inactive)
    1  A    between atoms: C_8  and  C_9
    2  A    between atoms: C_9  and  O_10
    3  A    between atoms: O_10  and  C_11
    4  A    between atoms: C_16  and  C_17
    5  A    between atoms: C_17  and  C_18
    6  A    between atoms: C_18  and  C_19
                            x       y       z     vdW  Elec       q    Type
                         _______ _______ _______ _____ _____    ______ ____

>  <TORSDO>
F 6

$$$$
=
 OpenBabel07192307433D

 48 52  0  0  0  0  0  0  0  0999 V2000
    2.6720    5.1250   19.1330 C   0  0  0  0  0  0  0  0  0  0  0  0
    2.0950    5.2960   20.3900 C   0  0  0  0  0  0  0  0  0  0  0  0
    1.5870    6.5370   20.7800 C   0  0  0  0  0  0  0  0  0  0  0  0
    1.6430    7.6340   19.9100 C   0  0  0  0  0  0  0  0  0  0  0  0
    1.1370    8.8900   20.2820 C   0  0  0  0  0  0  0  0  0  0  0  0
    1.1910    9.9830   19.4060 C   0  0  0  0  0  0  0  0  0  0  0  0
    1.7550    9.8080   18.1380 C   0  0  0  0  0  0  0  0  0  0  0  0
    2.2640    8.5650   17.7570 C   0  0  0  0  0  0  0  0  0  0  0  0
    2.2170    7.4690   18.6310 C   0  0  0  0  0  0  0  0  0  0  0  0
    2.7270    6.2110   18.2560 C   0  0  0  0  0  0  0  0  0  0  0  0
    2.0420    4.4560   21.0790 H   0  0  0  0  0  0  0  0  0  0  0  0
    1.1460    6.6390   21.7690 H   0  0  0  0  0  0  0  0  0  0  0  0
    0.6880    9.0170   21.2670 H   0  0  0  0  0  0  0  0  0  0  0  0
    1.8020   10.6380   17.4360 H   0  0  0  0  0  0  0  0  0  0  0  0
    2.6960    8.4580   16.7640 H   0  0  0  0  0  0  0  0  0  0  0  0
    3.1530    6.1080   17.2630 H   0  0  0  0  0  0  0  0  0  0  0  0
    0.6220   11.3210   19.8160 C   0  0  0  0  0  0  0  0  0  0  0  0
    0.9750   12.0800   19.1050 H   0  0  0  0  0  0  0  0  0  0  0  0
    1.0370   11.6170   20.7890 H   0  0  0  0  0  0  0  0  0  0  0  0
   -0.9090   11.3480   19.8510 C   0  0  0  0  0  0  0  0  0  0  0  0
   -1.2580   12.2770   20.3190 H   0  0  0  0  0  0  0  0  0  0  0  0
   -1.2570   10.5260   20.4880 H   0  0  0  0  0  0  0  0  0  0  0  0
   -1.5330   11.1860   18.5160 C   0  0  0  0  0  0  0  0  0  0  0  0
   -2.1640   10.0350   18.1220 N   0  0  0  0  0  0  0  0  0  0  0  0
   -2.5840   10.2470   16.8830 N   0  0  0  0  0  2  0  0  0  0  0  0
   -2.1980   11.4990   16.6020 N   0  0  0  0  0  0  0  0  0  0  0  0
   -1.5570   12.1500   17.5840 N   0  0  0  0  0  2  0  0  0  0  0  0
   -2.3860   11.9270   15.6990 H   0  0  0  0  0  0  0  0  0  0  0  0
    3.1220    3.8580   18.8820 O   0  0  0  0  0  0  0  0  0  0  0  0
    4.5150    3.5840   19.0680 C   0  0  0  0  0  0  0  0  0  0  0  0
    4.6130    2.4940   19.1420 H   0  0  0  0  0  0  0  0  0  0  0  0
    4.8780    3.9830   20.0230 H   0  0  0  0  0  0  0  0  0  0  0  0
    5.6850    3.5610   12.0030 F   0  0  0  0  0  0  0  0  0  0  0  0
    6.0740    3.9770   13.2150 C   0  0  0  0  0  0  0  0  0  0  0  0
    7.2020    4.7760   13.3310 C   0  0  0  0  0  0  0  0  0  0  0  0
    7.6010    5.2050   14.5930 C   0  0  0  0  0  0  0  0  0  0  0  0
    6.8650    4.8280   15.7300 C   0  0  0  0  0  0  0  0  0  0  0  0
    7.2350    5.2410   17.0150 C   0  0  0  0  0  0  0  0  0  0  0  0
    6.4800    4.8430   18.1120 C   0  0  0  0  0  0  0  0  0  0  0  0
    5.3690    4.0340   17.9020 C   0  0  0  0  0  0  0  0  0  0  0  0
    4.9860    3.6290   16.6630 N   0  0  0  0  0  0  0  0  0  0  0  0
    5.7170    4.0140   15.6030 C   0  0  0  0  0  0  0  0  0  0  0  0
    5.3410    3.6000   14.3350 C   0  0  0  0  0  0  0  0  0  0  0  0
    7.7590    5.0560   12.4420 H   0  0  0  0  0  0  0  0  0  0  0  0
    8.4850    5.8320   14.6870 H   0  0  0  0  0  0  0  0  0  0  0  0
    8.1090    5.8670   17.1690 H   0  0  0  0  0  0  0  0  0  0  0  0
    6.7610    5.1510   19.1150 H   0  0  0  0  0  0  0  0  0  0  0  0
    4.4630    2.9750   14.2110 H   0  0  0  0  0  0  0  0  0  0  0  0
  1  2  1  0  0  0  0
  2  3  2  0  0  0  0
  2 11  1  0  0  0  0
  3 12  1  0  0  0  0
  4  5  1  0  0  0  0
  4  3  1  0  0  0  0
  5 13  1  0  0  0  0
  6 17  1  0  0  0  0
  6  5  2  0  0  0  0
  7  6  1  0  0  0  0
  8  7  2  0  0  0  0
  8  9  1  0  0  0  0
  9  4  2  0  0  0  0
 10  9  1  0  0  0  0
 10  1  2  0  0  0  0
 14  7  1  0  0  0  0
 15  8  1  0  0  0  0
 16 10  1  0  0  0  0
 17 20  1  0  0  0  0
 17 19  1  0  0  0  0
 18 17  1  0  0  0  0
 20 21  1  0  0  0  0
 20 22  1  0  0  0  0
 23 20  1  0  0  0  0
 24 23  2  0  0  0  0
 25 24  1  0  0  0  0
 26 25  1  0  0  0  0
 26 27  1  0  0  0  0
 27 23  1  0  0  0  0
 28 26  1  0  0  0  0
 29 30  1  0  0  0  0
 29  1  1  0  0  0  0
 30 31  1  0  0  0  0
 30 32  1  0  0  0  0
 33 34  1  0  0  0  0
 34 35  2  0  0  0  0
 34 43  1  0  0  0  0
 35 36  1  0  0  0  0
 36 45  1  0  0  0  0
 36 37  2  0  0  0  0
 37 38  1  0  0  0  0
 38 46  1  0  0  0  0
 38 39  2  0  0  0  0
 39 47  1  0  0  0  0
 40 39  1  0  0  0  0
 40 30  1  0  0  0  0
 41 40  2  0  0  0  0
 42 37  1  0  0  0  0
 42 41  1  0  0  0  0
 43 42  2  0  0  0  0
 44 35  1  0  0  0  0
 48 43  1  0  0  0  0
M  END
>  <MODEL>
2

>  <REMARK>
 VINA RESULT:    -9.382      3.108      9.441
 INTER + INTRA:         -12.785
 INTER:                 -11.874
 INTRA:                  -0.910
 UNBOUND:                -0.112
  Name = 
  6 active torsions:
  status: ('A' for Active; 'I' for Inactive)
    1  A    between atoms: C_8  and  C_9
    2  A    between atoms: C_9  and  O_10
    3  A    between atoms: O_10  and  C_11
    4  A    between atoms: C_16  and  C_17
    5  A    between atoms: C_17  and  C_18
    6  A    between atoms: C_18  and  C_19
                            x       y       z     vdW  Elec       q    Type
                         _______ _______ _______ _____ _____    ______ ____

>  <TORSDO>
F 6

$$$$
=
 OpenBabel07192307433D

 48 52  0  0  0  0  0  0  0  0999 V2000
    1.9050    8.0400   19.4120 C   0  0  0  0  0  0  0  0  0  0  0  0
    2.3510    8.6280   18.2290 C   0  0  0  0  0  0  0  0  0  0  0  0
    3.2520    7.9610   17.3960 C   0  0  0  0  0  0  0  0  0  0  0  0
    3.7200    6.6840   17.7320 C   0  0  0  0  0  0  0  0  0  0  0  0
    4.6250    5.9950   16.9080 C   0  0  0  0  0  0  0  0  0  0  0  0
    5.0860    4.7150   17.2460 C   0  0  0  0  0  0  0  0  0  0  0  0
    4.6260    4.1190   18.4240 C   0  0  0  0  0  0  0  0  0  0  0  0
    3.7280    4.7930   19.2540 C   0  0  0  0  0  0  0  0  0  0  0  0
    3.2670    6.0760   18.9240 C   0  0  0  0  0  0  0  0  0  0  0  0
    2.3610    6.7650   19.7530 C   0  0  0  0  0  0  0  0  0  0  0  0
    1.9980    9.6180   17.9510 H   0  0  0  0  0  0  0  0  0  0  0  0
    3.5840    8.4470   16.4820 H   0  0  0  0  0  0  0  0  0  0  0  0
    4.9710    6.4600   15.9840 H   0  0  0  0  0  0  0  0  0  0  0  0
    4.9620    3.1230   18.7060 H   0  0  0  0  0  0  0  0  0  0  0  0
    3.3870    4.3050   20.1640 H   0  0  0  0  0  0  0  0  0  0  0  0
    2.0190    6.2710   20.6570 H   0  0  0  0  0  0  0  0  0  0  0  0
    6.0430    3.9810   16.3360 C   0  0  0  0  0  0  0  0  0  0  0  0
    5.4610    3.3050   15.6970 H   0  0  0  0  0  0  0  0  0  0  0  0
    6.6950    3.3300   16.9330 H   0  0  0  0  0  0  0  0  0  0  0  0
    6.8740    4.9110   15.4470 C   0  0  0  0  0  0  0  0  0  0  0  0
    7.9090    4.9530   15.8110 H   0  0  0  0  0  0  0  0  0  0  0  0
    6.4710    5.9280   15.5330 H   0  0  0  0  0  0  0  0  0  0  0  0
    6.8530    4.5330   14.0150 C   0  0  0  0  0  0  0  0  0  0  0  0
    5.9910    3.6020   13.5000 N   0  0  0  0  0  0  0  0  0  0  0  0
    6.2630    3.5160   12.2060 N   0  0  0  0  0  2  0  0  0  0  0  0
    7.2550    4.3950   12.0080 N   0  0  0  0  0  0  0  0  0  0  0  0
    7.6570    5.0800   13.0900 N   0  0  0  0  0  2  0  0  0  0  0  0
    7.6720    4.5340   11.0920 H   0  0  0  0  0  0  0  0  0  0  0  0
    1.0220    8.8030   20.1260 O   0  0  0  0  0  0  0  0  0  0  0  0
    0.9620   10.2060   19.8520 C   0  0  0  0  0  0  0  0  0  0  0  0
    1.7010   10.4050   19.0670 H   0  0  0  0  0  0  0  0  0  0  0  0
    1.2800   10.7980   20.7200 H   0  0  0  0  0  0  0  0  0  0  0  0
   -3.9540    9.8940   14.6540 F   0  0  0  0  0  0  0  0  0  0  0  0
   -3.5940   10.3880   15.8460 C   0  0  0  0  0  0  0  0  0  0  0  0
   -4.4520   11.2510   16.5110 C   0  0  0  0  0  0  0  0  0  0  0  0
   -4.0720   11.7620   17.7490 C   0  0  0  0  0  0  0  0  0  0  0  0
   -2.8330   11.4020   18.3090 C   0  0  0  0  0  0  0  0  0  0  0  0
   -2.4180   11.8940   19.5510 C   0  0  0  0  0  0  0  0  0  0  0  0
   -1.1840   11.5150   20.0660 C   0  0  0  0  0  0  0  0  0  0  0  0
   -0.3860   10.6520   19.3250 C   0  0  0  0  0  0  0  0  0  0  0  0
   -0.7730   10.1540   18.1210 N   0  0  0  0  0  0  0  0  0  0  0  0
   -1.9660   10.5220   17.6230 C   0  0  0  0  0  0  0  0  0  0  0  0
   -2.3670   10.0270   16.3930 C   0  0  0  0  0  0  0  0  0  0  0  0
   -5.4030   11.5190   16.0640 H   0  0  0  0  0  0  0  0  0  0  0  0
   -4.7420   12.4390   18.2740 H   0  0  0  0  0  0  0  0  0  0  0  0
   -3.0470   12.5740   20.1200 H   0  0  0  0  0  0  0  0  0  0  0  0
   -0.8480   11.8950   21.0270 H   0  0  0  0  0  0  0  0  0  0  0  0
   -1.7190    9.3500   15.8470 H   0  0  0  0  0  0  0  0  0  0  0  0
  1 10  1  0  0  0  0
  1 29  1  0  0  0  0
  2  1  2  0  0  0  0
  3  4  2  0  0  0  0
  3  2  1  0  0  0  0
  4  9  1  0  0  0  0
  5  6  2  0  0  0  0
  5  4  1  0  0  0  0
  6  7  1  0  0  0  0
  7 14  1  0  0  0  0
  7  8  2  0  0  0  0
  8 15  1  0  0  0  0
  9  8  1  0  0  0  0
  9 10  2  0  0  0  0
 10 16  1  0  0  0  0
 11  2  1  0  0  0  0
 12  3  1  0  0  0  0
 13  5  1  0  0  0  0
 17 19  1  0  0  0  0
 17  6  1  0  0  0  0
 18 17  1  0  0  0  0
 20 22  1  0  0  0  0
 20 21  1  0  0  0  0
 20 17  1  0  0  0  0
 23 20  1  0  0  0  0
 24 23  2  0  0  0  0
 25 24  1  0  0  0  0
 26 25  1  0  0  0  0
 26 27  1  0  0  0  0
 27 23  1  0  0  0  0
 28 26  1  0  0  0  0
 30 29  1  0  0  0  0
 30 32  1  0  0  0  0
 31 30  1  0  0  0  0
 33 34  1  0  0  0  0
 34 43  2  0  0  0  0
 34 35  1  0  0  0  0
 35 36  2  0  0  0  0
 36 45  1  0  0  0  0
 36 37  1  0  0  0  0
 37 38  1  0  0  0  0
 38 39  2  0  0  0  0
 38 46  1  0  0  0  0
 39 47  1  0  0  0  0
 40 30  1  0  0  0  0
 40 39  1  0  0  0  0
 41 40  2  0  0  0  0
 42 41  1  0  0  0  0
 42 37  2  0  0  0  0
 43 42  1  0  0  0  0
 44 35  1  0  0  0  0
 48 43  1  0  0  0  0
M  END
>  <MODEL>
3

>  <REMARK>
 VINA RESULT:    -9.379      1.647      2.227
 INTER + INTRA:         -12.781
 INTER:                 -12.141
 INTRA:                  -0.640
 UNBOUND:                -0.112
  Name = 
  6 active torsions:
  status: ('A' for Active; 'I' for Inactive)
    1  A    between atoms: C_8  and  C_9
    2  A    between atoms: C_9  and  O_10
    3  A    between atoms: O_10  and  C_11
    4  A    between atoms: C_16  and  C_17
    5  A    between atoms: C_17  and  C_18
    6  A    between atoms: C_18  and  C_19
                            x       y       z     vdW  Elec       q    Type
                         _______ _______ _______ _____ _____    ______ ____

>  <TORSDO>
F 6

$$$$
=
 OpenBabel07192307433D

 48 52  0  0  0  0  0  0  0  0999 V2000
    1.1370    9.5710   19.9010 C   0  0  0  0  0  0  0  0  0  0  0  0
    1.5940    9.6520   18.5860 C   0  0  0  0  0  0  0  0  0  0  0  0
    2.1730    8.5450   17.9620 C   0  0  0  0  0  0  0  0  0  0  0  0
    2.3000    7.3290   18.6460 C   0  0  0  0  0  0  0  0  0  0  0  0
    2.8780    6.2030   18.0360 C   0  0  0  0  0  0  0  0  0  0  0  0
    2.9980    4.9860   18.7240 C   0  0  0  0  0  0  0  0  0  0  0  0
    2.5250    4.9000   20.0360 C   0  0  0  0  0  0  0  0  0  0  0  0
    1.9500    6.0130   20.6550 C   0  0  0  0  0  0  0  0  0  0  0  0
    1.8320    7.2340   19.9750 C   0  0  0  0  0  0  0  0  0  0  0  0
    1.2540    8.3610   20.5890 C   0  0  0  0  0  0  0  0  0  0  0  0
    1.5040   10.5880   18.0400 H   0  0  0  0  0  0  0  0  0  0  0  0
    2.5230    8.6400   16.9380 H   0  0  0  0  0  0  0  0  0  0  0  0
    3.2340    6.2730   17.0080 H   0  0  0  0  0  0  0  0  0  0  0  0
    2.5980    3.9660   20.5890 H   0  0  0  0  0  0  0  0  0  0  0  0
    1.5910    5.9160   21.6770 H   0  0  0  0  0  0  0  0  0  0  0  0
    0.8910    8.2590   21.6070 H   0  0  0  0  0  0  0  0  0  0  0  0
    3.6030    3.7800   18.0440 C   0  0  0  0  0  0  0  0  0  0  0  0
    2.8120    3.0330   17.8970 H   0  0  0  0  0  0  0  0  0  0  0  0
    4.3330    3.3060   18.7140 H   0  0  0  0  0  0  0  0  0  0  0  0
    4.2410    4.1000   16.6880 C   0  0  0  0  0  0  0  0  0  0  0  0
    3.7730    4.9930   16.2540 H   0  0  0  0  0  0  0  0  0  0  0  0
    4.0320    3.2710   16.0010 H   0  0  0  0  0  0  0  0  0  0  0  0
    5.7110    4.2760   16.7550 C   0  0  0  0  0  0  0  0  0  0  0  0
    6.4040    4.3320   17.9350 N   0  0  0  0  0  0  0  0  0  0  0  0
    7.6780    4.5040   17.6120 N   0  0  0  0  0  2  0  0  0  0  0  0
    7.6870    4.5330   16.2720 N   0  0  0  0  0  0  0  0  0  0  0  0
    6.4970    4.3740   15.6730 N   0  0  0  0  0  2  0  0  0  0  0  0
    8.5470    4.6630   15.7460 H   0  0  0  0  0  0  0  0  0  0  0  0
    0.5890   10.7280   20.3830 O   0  0  0  0  0  0  0  0  0  0  0  0
   -0.2670   11.4830   19.5200 C   0  0  0  0  0  0  0  0  0  0  0  0
   -0.5220   10.8280   18.6780 H   0  0  0  0  0  0  0  0  0  0  0  0
    0.2600   12.3410   19.0840 H   0  0  0  0  0  0  0  0  0  0  0  0
   -3.9730   12.4990   25.5630 F   0  0  0  0  0  0  0  0  0  0  0  0
   -3.9520   12.5470   24.2250 C   0  0  0  0  0  0  0  0  0  0  0  0
   -5.0860   12.9590   23.5410 C   0  0  0  0  0  0  0  0  0  0  0  0
   -5.0570   13.0060   22.1500 C   0  0  0  0  0  0  0  0  0  0  0  0
   -3.8900   12.6390   21.4570 C   0  0  0  0  0  0  0  0  0  0  0  0
   -3.8240   12.6750   20.0600 C   0  0  0  0  0  0  0  0  0  0  0  0
   -2.6510   12.3000   19.4140 C   0  0  0  0  0  0  0  0  0  0  0  0
   -1.5660   11.8920   20.1810 C   0  0  0  0  0  0  0  0  0  0  0  0
   -1.6060   11.8590   21.5390 N   0  0  0  0  0  0  0  0  0  0  0  0
   -2.7400   12.2200   22.1620 C   0  0  0  0  0  0  0  0  0  0  0  0
   -2.7940   12.1820   23.5460 C   0  0  0  0  0  0  0  0  0  0  0  0
   -5.9780   13.2380   24.0920 H   0  0  0  0  0  0  0  0  0  0  0  0
   -5.9450   13.3290   21.6100 H   0  0  0  0  0  0  0  0  0  0  0  0
   -4.6800   12.9890   19.4690 H   0  0  0  0  0  0  0  0  0  0  0  0
   -2.5900   12.3170   18.3300 H   0  0  0  0  0  0  0  0  0  0  0  0
   -1.9240   11.8640   24.1110 H   0  0  0  0  0  0  0  0  0  0  0  0
  1 29  1  0  0  0  0
  1 10  1  0  0  0  0
  2  1  2  0  0  0  0
  3  2  1  0  0  0  0
  3  4  2  0  0  0  0
  4  9  1  0  0  0  0
  5  4  1  0  0  0  0
  5  6  2  0  0  0  0
  6  7  1  0  0  0  0
  7 14  1  0  0  0  0
  7  8  2  0  0  0  0
  8 15  1  0  0  0  0
  9 10  2  0  0  0  0
  9  8  1  0  0  0  0
 10 16  1  0  0  0  0
 11  2  1  0  0  0  0
 12  3  1  0  0  0  0
 13  5  1  0  0  0  0
 17 19  1  0  0  0  0
 17  6  1  0  0  0  0
 18 17  1  0  0  0  0
 20 23  1  0  0  0  0
 20 17  1  0  0  0  0
 21 20  1  0  0  0  0
 22 20  1  0  0  0  0
 23 24  2  0  0  0  0
 25 24  1  0  0  0  0
 26 25  1  0  0  0  0
 27 26  1  0  0  0  0
 27 23  1  0  0  0  0
 28 26  1  0  0  0  0
 30 40  1  0  0  0  0
 30 29  1  0  0  0  0
 31 30  1  0  0  0  0
 32 30  1  0  0  0  0
 34 33  1  0  0  0  0
 35 44  1  0  0  0  0
 35 34  2  0  0  0  0
 36 35  1  0  0  0  0
 37 36  2  0  0  0  0
 37 42  1  0  0  0  0
 38 37  1  0  0  0  0
 39 38  2  0  0  0  0
 39 40  1  0  0  0  0
 40 41  2  0  0  0  0
 41 42  1  0  0  0  0
 42 43  2  0  0  0  0
 43 48  1  0  0  0  0
 43 34  1  0  0  0  0
 45 36  1  0  0  0  0
 46 38  1  0  0  0  0
 47 39  1  0  0  0  0
M  END
>  <MODEL>
4

>  <REMARK>
 VINA RESULT:    -9.164      2.622      3.484
 INTER + INTRA:         -12.491
 INTER:                 -11.817
 INTRA:                  -0.674
 UNBOUND:                -0.112
  Name = 
  6 active torsions:
  status: ('A' for Active; 'I' for Inactive)
    1  A    between atoms: C_8  and  C_9
    2  A    between atoms: C_9  and  O_10
    3  A    between atoms: O_10  and  C_11
    4  A    between atoms: C_16  and  C_17
    5  A    between atoms: C_17  and  C_18
    6  A    between atoms: C_18  and  C_19
                            x       y       z     vdW  Elec       q    Type
                         _______ _______ _______ _____ _____    ______ ____

>  <TORSDO>
F 6

$$$$
=
 OpenBabel07192307433D

 48 52  0  0  0  0  0  0  0  0999 V2000
    2.5320    5.8200   19.3260 C   0  0  0  0  0  0  0  0  0  0  0  0
    2.6450    6.5530   18.1450 C   0  0  0  0  0  0  0  0  0  0  0  0
    2.2290    7.8850   18.0890 C   0  0  0  0  0  0  0  0  0  0  0  0
    1.6950    8.5110   19.2230 C   0  0  0  0  0  0  0  0  0  0  0  0
    1.2710    9.8500   19.1890 C   0  0  0  0  0  0  0  0  0  0  0  0
    0.7420   10.4740   20.3280 C   0  0  0  0  0  0  0  0  0  0  0  0
    0.6450    9.7440   21.5160 C   0  0  0  0  0  0  0  0  0  0  0  0
    1.0600    8.4110   21.5630 C   0  0  0  0  0  0  0  0  0  0  0  0
    1.5850    7.7800   20.4260 C   0  0  0  0  0  0  0  0  0  0  0  0
    2.0070    6.4370   20.4630 C   0  0  0  0  0  0  0  0  0  0  0  0
    3.0570    6.0840   17.2550 H   0  0  0  0  0  0  0  0  0  0  0  0
    2.3260    8.4290   17.1530 H   0  0  0  0  0  0  0  0  0  0  0  0
    1.3620   10.4170   18.2620 H   0  0  0  0  0  0  0  0  0  0  0  0
    0.2450   10.2060   22.4170 H   0  0  0  0  0  0  0  0  0  0  0  0
    0.9720    7.8680   22.5020 H   0  0  0  0  0  0  0  0  0  0  0  0
    1.9230    5.9010   21.4030 H   0  0  0  0  0  0  0  0  0  0  0  0
    0.3130   11.9210   20.2770 C   0  0  0  0  0  0  0  0  0  0  0  0
    0.7360   12.3760   19.3720 H   0  0  0  0  0  0  0  0  0  0  0  0
    0.7610   12.4690   21.1170 H   0  0  0  0  0  0  0  0  0  0  0  0
   -1.2080   12.1060   20.2610 C   0  0  0  0  0  0  0  0  0  0  0  0
   -1.4720   13.0790   20.6930 H   0  0  0  0  0  0  0  0  0  0  0  0
   -1.6580   11.3430   20.9080 H   0  0  0  0  0  0  0  0  0  0  0  0
   -1.8050   11.9690   18.9120 C   0  0  0  0  0  0  0  0  0  0  0  0
   -3.0930   11.5520   18.7030 N   0  0  0  0  0  0  0  0  0  0  0  0
   -3.2730   11.5390   17.3910 N   0  0  0  0  0  2  0  0  0  0  0  0
   -2.1040   11.9530   16.8830 N   0  0  0  0  0  0  0  0  0  0  0  0
   -1.1510   12.2590   17.7770 N   0  0  0  0  0  2  0  0  0  0  0  0
   -1.9540   12.0330   15.8810 H   0  0  0  0  0  0  0  0  0  0  0  0
    2.9830    4.5310   19.2380 O   0  0  0  0  0  0  0  0  0  0  0  0
    4.3660    4.2770   19.5060 C   0  0  0  0  0  0  0  0  0  0  0  0
    4.4490    3.2080   19.7380 H   0  0  0  0  0  0  0  0  0  0  0  0
    4.7040    4.8050   20.4060 H   0  0  0  0  0  0  0  0  0  0  0  0
    5.6290    3.4360   12.5080 F   0  0  0  0  0  0  0  0  0  0  0  0
    6.0260    3.9550   13.6770 C   0  0  0  0  0  0  0  0  0  0  0  0
    7.1980    4.6950   13.7300 C   0  0  0  0  0  0  0  0  0  0  0  0
    7.6040    5.2320   14.9480 C   0  0  0  0  0  0  0  0  0  0  0  0
    6.8310    5.0210   16.1040 C   0  0  0  0  0  0  0  0  0  0  0  0
    7.2080    5.5450   17.3450 C   0  0  0  0  0  0  0  0  0  0  0  0
    6.4160    5.3110   18.4620 C   0  0  0  0  0  0  0  0  0  0  0  0
    5.2620    4.5500   18.3170 C   0  0  0  0  0  0  0  0  0  0  0  0
    4.8720    4.0390   17.1190 N   0  0  0  0  0  0  0  0  0  0  0  0
    5.6390    4.2660   16.0390 C   0  0  0  0  0  0  0  0  0  0  0  0
    5.2560    3.7430   14.8150 C   0  0  0  0  0  0  0  0  0  0  0  0
    7.7820    4.8460   12.8280 H   0  0  0  0  0  0  0  0  0  0  0  0
    8.5230    5.8120   14.9930 H   0  0  0  0  0  0  0  0  0  0  0  0
    8.1160    6.1330   17.4490 H   0  0  0  0  0  0  0  0  0  0  0  0
    6.7010    5.7070   19.4320 H   0  0  0  0  0  0  0  0  0  0  0  0
    4.3440    3.1590   14.7400 H   0  0  0  0  0  0  0  0  0  0  0  0
  1 10  1  0  0  0  0
  2  1  2  0  0  0  0
  3  2  1  0  0  0  0
  3  4  2  0  0  0  0
  4  9  1  0  0  0  0
  5  4  1  0  0  0  0
  5  6  2  0  0  0  0
  6  7  1  0  0  0  0
  7  8  2  0  0  0  0
  7 14  1  0  0  0  0
  8 15  1  0  0  0  0
  9 10  2  0  0  0  0
  9  8  1  0  0  0  0
 10 16  1  0  0  0  0
 11  2  1  0  0  0  0
 12  3  1  0  0  0  0
 13  5  1  0  0  0  0
 17  6  1  0  0  0  0
 17 19  1  0  0  0  0
 18 17  1  0  0  0  0
 20 17  1  0  0  0  0
 20 21  1  0  0  0  0
 20 22  1  0  0  0  0
 23 20  1  0  0  0  0
 24 23  2  0  0  0  0
 25 24  1  0  0  0  0
 26 25  1  0  0  0  0
 26 27  1  0  0  0  0
 27 23  1  0  0  0  0
 28 26  1  0  0  0  0
 29  1  1  0  0  0  0
 29 30  1  0  0  0  0
 30 31  1  0  0  0  0
 30 32  1  0  0  0  0
 33 34  1  0  0  0  0
 34 35  2  0  0  0  0
 34 43  1  0  0  0  0
 35 36  1  0  0  0  0
 36 45  1  0  0  0  0
 36 37  2  0  0  0  0
 37 38  1  0  0  0  0
 38 46  1  0  0  0  0
 38 39  2  0  0  0  0
 39 47  1  0  0  0  0
 40 39  1  0  0  0  0
 40 30  1  0  0  0  0
 41 40  2  0  0  0  0
 42 37  1  0  0  0  0
 42 41  1  0  0  0  0
 43 42  2  0  0  0  0
 44 35  1  0  0  0  0
 48 43  1  0  0  0  0
M  END
>  <MODEL>
5

>  <REMARK>
 VINA RESULT:    -9.125      3.078      9.458
 INTER + INTRA:         -12.438
 INTER:                 -11.681
 INTRA:                  -0.757
 UNBOUND:                -0.112
  Name = 
  6 active torsions:
  status: ('A' for Active; 'I' for Inactive)
    1  A    between atoms: C_8  and  C_9
    2  A    between atoms: C_9  and  O_10
    3  A    between atoms: O_10  and  C_11
    4  A    between atoms: C_16  and  C_17
    5  A    between atoms: C_17  and  C_18
    6  A    between atoms: C_18  and  C_19
                            x       y       z     vdW  Elec       q    Type
                         _______ _______ _______ _____ _____    ______ ____

>  <TORSDO>
F 6

$$$$
=
 OpenBabel07192307433D

 48 52  0  0  0  0  0  0  0  0999 V2000
    1.0100    9.5020   19.6050 C   0  0  0  0  0  0  0  0  0  0  0  0
    1.5400    9.5920   18.3180 C   0  0  0  0  0  0  0  0  0  0  0  0
    2.2950    8.5460   17.7830 C   0  0  0  0  0  0  0  0  0  0  0  0
    2.5270    7.3820   18.5280 C   0  0  0  0  0  0  0  0  0  0  0  0
    3.2820    6.3180   18.0070 C   0  0  0  0  0  0  0  0  0  0  0  0
    3.5070    5.1530   18.7550 C   0  0  0  0  0  0  0  0  0  0  0  0
    2.9620    5.0560   20.0390 C   0  0  0  0  0  0  0  0  0  0  0  0
    2.2110    6.1080   20.5690 C   0  0  0  0  0  0  0  0  0  0  0  0
    1.9870    7.2780   19.8280 C   0  0  0  0  0  0  0  0  0  0  0  0
    1.2320    8.3440   20.3530 C   0  0  0  0  0  0  0  0  0  0  0  0
    1.3700   10.4870   17.7250 H   0  0  0  0  0  0  0  0  0  0  0  0
    2.6980    8.6470   16.7780 H   0  0  0  0  0  0  0  0  0  0  0  0
    3.6940    6.3940   17.0010 H   0  0  0  0  0  0  0  0  0  0  0  0
    3.1150    4.1600   20.6370 H   0  0  0  0  0  0  0  0  0  0  0  0
    1.7990    6.0050   21.5700 H   0  0  0  0  0  0  0  0  0  0  0  0
    0.8170    8.2340   21.3500 H   0  0  0  0  0  0  0  0  0  0  0  0
    4.3030    4.0100   18.1700 C   0  0  0  0  0  0  0  0  0  0  0  0
    3.8880    3.0690   18.5520 H   0  0  0  0  0  0  0  0  0  0  0  0
    5.3350    4.0490   18.5440 H   0  0  0  0  0  0  0  0  0  0  0  0
    4.2850    3.9750   16.6390 C   0  0  0  0  0  0  0  0  0  0  0  0
    3.4930    4.6330   16.2570 H   0  0  0  0  0  0  0  0  0  0  0  0
    4.0290    2.9580   16.3170 H   0  0  0  0  0  0  0  0  0  0  0  0
    5.5850    4.3330   16.0240 C   0  0  0  0  0  0  0  0  0  0  0  0
    5.7590    4.4740   14.6730 N   0  0  0  0  0  0  0  0  0  0  0  0
    7.0350    4.7840   14.4920 N   0  0  0  0  0  2  0  0  0  0  0  0
    7.5540    4.8230   15.7270 N   0  0  0  0  0  0  0  0  0  0  0  0
    6.7000    4.5730   16.7310 N   0  0  0  0  0  2  0  0  0  0  0  0
    8.5350    5.0330   15.8880 H   0  0  0  0  0  0  0  0  0  0  0  0
    0.2900   10.5960   19.9990 O   0  0  0  0  0  0  0  0  0  0  0  0
    0.9830   11.6690   20.6440 C   0  0  0  0  0  0  0  0  0  0  0  0
    1.3510   12.3290   19.8480 H   0  0  0  0  0  0  0  0  0  0  0  0
    1.8760   11.3100   21.1700 H   0  0  0  0  0  0  0  0  0  0  0  0
   -4.7810   12.0030   24.8790 F   0  0  0  0  0  0  0  0  0  0  0  0
   -3.7360   12.6400   24.3350 C   0  0  0  0  0  0  0  0  0  0  0  0
   -3.5340   13.9820   24.6180 C   0  0  0  0  0  0  0  0  0  0  0  0
   -2.4460   14.6380   24.0490 C   0  0  0  0  0  0  0  0  0  0  0  0
   -1.5690   13.9400   23.2000 C   0  0  0  0  0  0  0  0  0  0  0  0
   -0.4650   14.5660   22.6110 C   0  0  0  0  0  0  0  0  0  0  0  0
    0.3750   13.8400   21.7750 C   0  0  0  0  0  0  0  0  0  0  0  0
    0.0910   12.5000   21.5410 C   0  0  0  0  0  0  0  0  0  0  0  0
   -0.9710   11.8700   22.1100 N   0  0  0  0  0  0  0  0  0  0  0  0
   -1.7830   12.5730   22.9170 C   0  0  0  0  0  0  0  0  0  0  0  0
   -2.8730   11.9430   23.4960 C   0  0  0  0  0  0  0  0  0  0  0  0
   -4.2220   14.5050   25.2750 H   0  0  0  0  0  0  0  0  0  0  0  0
   -2.2850   15.6910   24.2690 H   0  0  0  0  0  0  0  0  0  0  0  0
   -0.2560   15.6160   22.7950 H   0  0  0  0  0  0  0  0  0  0  0  0
    1.2310   14.3160   21.3060 H   0  0  0  0  0  0  0  0  0  0  0  0
   -3.0580   10.8930   23.2950 H   0  0  0  0  0  0  0  0  0  0  0  0
  1 29  1  0  0  0  0
  1 10  1  0  0  0  0
  2  1  2  0  0  0  0
  3  2  1  0  0  0  0
  3  4  2  0  0  0  0
  4  9  1  0  0  0  0
  5  4  1  0  0  0  0
  5  6  2  0  0  0  0
  6  7  1  0  0  0  0
  7  8  2  0  0  0  0
  7 14  1  0  0  0  0
  8 15  1  0  0  0  0
  9 10  2  0  0  0  0
  9  8  1  0  0  0  0
 10 16  1  0  0  0  0
 11  2  1  0  0  0  0
 12  3  1  0  0  0  0
 13  5  1  0  0  0  0
 17 19  1  0  0  0  0
 17 18  1  0  0  0  0
 17  6  1  0  0  0  0
 20 17  1  0  0  0  0
 21 20  1  0  0  0  0
 22 20  1  0  0  0  0
 23 20  1  0  0  0  0
 23 27  1  0  0  0  0
 24 23  2  0  0  0  0
 25 24  1  0  0  0  0
 25 26  1  0  0  0  0
 26 28  1  0  0  0  0
 26 27  1  0  0  0  0
 29 30  1  0  0  0  0
 30 32  1  0  0  0  0
 30 40  1  0  0  0  0
 31 30  1  0  0  0  0
 34 35  1  0  0  0  0
 34 33  1  0  0  0  0
 35 44  1  0  0  0  0
 36 45  1  0  0  0  0
 36 35  2  0  0  0  0
 37 36  1  0  0  0  0
 38 46  1  0  0  0  0
 38 37  2  0  0  0  0
 39 38  1  0  0  0  0
 40 39  2  0  0  0  0
 40 41  1  0  0  0  0
 41 42  2  0  0  0  0
 42 37  1  0  0  0  0
 42 43  1  0  0  0  0
 43 34  2  0  0  0  0
 47 39  1  0  0  0  0
 48 43  1  0  0  0  0
M  END
>  <MODEL>
6

>  <REMARK>
 VINA RESULT:    -9.081      3.322      4.049
 INTER + INTRA:         -12.378
 INTER:                 -11.767
 INTRA:                  -0.611
 UNBOUND:                -0.112
  Name = 
  6 active torsions:
  status: ('A' for Active; 'I' for Inactive)
    1  A    between atoms: C_8  and  C_9
    2  A    between atoms: C_9  and  O_10
    3  A    between atoms: O_10  and  C_11
    4  A    between atoms: C_16  and  C_17
    5  A    between atoms: C_17  and  C_18
    6  A    between atoms: C_18  and  C_19
                            x       y       z     vdW  Elec       q    Type
                         _______ _______ _______ _____ _____    ______ ____

>  <TORSDO>
F 6

$$$$
=
 OpenBabel07192307433D

 48 52  0  0  0  0  0  0  0  0999 V2000
    1.1290    9.6480   19.1140 C   0  0  0  0  0  0  0  0  0  0  0  0
    1.0050    8.9940   20.3380 C   0  0  0  0  0  0  0  0  0  0  0  0
    1.6360    7.7670   20.5600 C   0  0  0  0  0  0  0  0  0  0  0  0
    2.4130    7.1760   19.5550 C   0  0  0  0  0  0  0  0  0  0  0  0
    3.0580    5.9440   19.7570 C   0  0  0  0  0  0  0  0  0  0  0  0
    3.8380    5.3590   18.7500 C   0  0  0  0  0  0  0  0  0  0  0  0
    3.9770    6.0240   17.5280 C   0  0  0  0  0  0  0  0  0  0  0  0
    3.3390    7.2480   17.3130 C   0  0  0  0  0  0  0  0  0  0  0  0
    2.5530    7.8360   18.3140 C   0  0  0  0  0  0  0  0  0  0  0  0
    1.9060    9.0700   18.1080 C   0  0  0  0  0  0  0  0  0  0  0  0
    0.4060    9.4370   21.1300 H   0  0  0  0  0  0  0  0  0  0  0  0
    1.5180    7.2800   21.5240 H   0  0  0  0  0  0  0  0  0  0  0  0
    2.9560    5.4370   20.7170 H   0  0  0  0  0  0  0  0  0  0  0  0
    4.5830    5.5960   16.7320 H   0  0  0  0  0  0  0  0  0  0  0  0
    3.4650    7.7420   16.3520 H   0  0  0  0  0  0  0  0  0  0  0  0
    2.0390    9.5620   17.1500 H   0  0  0  0  0  0  0  0  0  0  0  0
    4.5420    4.0450   18.9940 C   0  0  0  0  0  0  0  0  0  0  0  0
    4.9470    4.0540   20.0140 H   0  0  0  0  0  0  0  0  0  0  0  0
    5.4160    3.9650   18.3330 H   0  0  0  0  0  0  0  0  0  0  0  0
    3.6290    2.8250   18.8330 C   0  0  0  0  0  0  0  0  0  0  0  0
    4.2170    1.9030   18.9190 H   0  0  0  0  0  0  0  0  0  0  0  0
    3.2100    2.8360   17.8190 H   0  0  0  0  0  0  0  0  0  0  0  0
    2.5000    2.8020   19.7920 C   0  0  0  0  0  0  0  0  0  0  0  0
    2.6700    2.6510   21.1430 N   0  0  0  0  0  0  0  0  0  0  0  0
    1.4570    2.6660   21.6760 N   0  0  0  0  0  2  0  0  0  0  0  0
    0.6300    2.8330   20.6340 N   0  0  0  0  0  0  0  0  0  0  0  0
    1.2160    2.9470   19.4320 N   0  0  0  0  0  2  0  0  0  0  0  0
   -0.3780    2.8740   20.7530 H   0  0  0  0  0  0  0  0  0  0  0  0
    0.4630   10.8410   19.0380 O   0  0  0  0  0  0  0  0  0  0  0  0
    0.4210   11.6690   20.2050 C   0  0  0  0  0  0  0  0  0  0  0  0
    0.9440   12.5990   19.9480 H   0  0  0  0  0  0  0  0  0  0  0  0
    0.9890   11.2260   21.0320 H   0  0  0  0  0  0  0  0  0  0  0  0
   -4.4100   12.3640   25.4440 F   0  0  0  0  0  0  0  0  0  0  0  0
   -4.1270   12.4830   24.1410 C   0  0  0  0  0  0  0  0  0  0  0  0
   -5.1080   12.9320   23.2690 C   0  0  0  0  0  0  0  0  0  0  0  0
   -4.8070   13.0540   21.9160 C   0  0  0  0  0  0  0  0  0  0  0  0
   -3.5230   12.7230   21.4480 C   0  0  0  0  0  0  0  0  0  0  0  0
   -3.1830   12.8330   20.0950 C   0  0  0  0  0  0  0  0  0  0  0  0
   -1.9030   12.4930   19.6740 C   0  0  0  0  0  0  0  0  0  0  0  0
   -0.9870   12.0430   20.6170 C   0  0  0  0  0  0  0  0  0  0  0  0
   -1.2920   11.9370   21.9380 N   0  0  0  0  0  0  0  0  0  0  0  0
   -2.5300   12.2660   22.3430 C   0  0  0  0  0  0  0  0  0  0  0  0
   -2.8550   12.1540   23.6850 C   0  0  0  0  0  0  0  0  0  0  0  0
   -6.0940   13.1820   23.6480 H   0  0  0  0  0  0  0  0  0  0  0  0
   -5.5740   13.4060   21.2300 H   0  0  0  0  0  0  0  0  0  0  0  0
   -3.9100   13.1800   19.3650 H   0  0  0  0  0  0  0  0  0  0  0  0
   -1.6300   12.5680   18.6260 H   0  0  0  0  0  0  0  0  0  0  0  0
   -2.1100   11.8060   24.3930 H   0  0  0  0  0  0  0  0  0  0  0  0
  1  2  1  0  0  0  0
  2  3  2  0  0  0  0
  2 11  1  0  0  0  0
  3 12  1  0  0  0  0
  4  5  1  0  0  0  0
  4  3  1  0  0  0  0
  5 13  1  0  0  0  0
  6 17  1  0  0  0  0
  6  5  2  0  0  0  0
  7  6  1  0  0  0  0
  8  7  2  0  0  0  0
  8  9  1  0  0  0  0
  9  4  2  0  0  0  0
 10  9  1  0  0  0  0
 10  1  2  0  0  0  0
 14  7  1  0  0  0  0
 15  8  1  0  0  0  0
 16 10  1  0  0  0  0
 17 18  1  0  0  0  0
 19 17  1  0  0  0  0
 20 21  1  0  0  0  0
 20 17  1  0  0  0  0
 20 23  1  0  0  0  0
 22 20  1  0  0  0  0
 23 24  2  0  0  0  0
 24 25  1  0  0  0  0
 26 28  1  0  0  0  0
 26 25  1  0  0  0  0
 27 23  1  0  0  0  0
 27 26  1  0  0  0  0
 29  1  1  0  0  0  0
 29 30  1  0  0  0  0
 30 40  1  0  0  0  0
 30 32  1  0  0  0  0
 31 30  1  0  0  0  0
 34 33  1  0  0  0  0
 35 44  1  0  0  0  0
 35 34  2  0  0  0  0
 36 35  1  0  0  0  0
 37 36  2  0  0  0  0
 37 42  1  0  0  0  0
 38 37  1  0  0  0  0
 39 38  2  0  0  0  0
 39 40  1  0  0  0  0
 40 41  2  0  0  0  0
 41 42  1  0  0  0  0
 42 43  2  0  0  0  0
 43 34  1  0  0  0  0
 43 48  1  0  0  0  0
 45 36  1  0  0  0  0
 46 38  1  0  0  0  0
 47 39  1  0  0  0  0
M  END
>  <MODEL>
7

>  <REMARK>
 VINA RESULT:    -9.015      3.654      4.665
 INTER + INTRA:         -12.290
 INTER:                 -11.808
 INTRA:                  -0.482
 UNBOUND:                -0.112
  Name = 
  6 active torsions:
  status: ('A' for Active; 'I' for Inactive)
    1  A    between atoms: C_8  and  C_9
    2  A    between atoms: C_9  and  O_10
    3  A    between atoms: O_10  and  C_11
    4  A    between atoms: C_16  and  C_17
    5  A    between atoms: C_17  and  C_18
    6  A    between atoms: C_18  and  C_19
                            x       y       z     vdW  Elec       q    Type
                         _______ _______ _______ _____ _____    ______ ____

>  <TORSDO>
F 6

$$$$
=
 OpenBabel07192307433D

 48 52  0  0  0  0  0  0  0  0999 V2000
    1.2510    8.3530   20.3600 C   0  0  0  0  0  0  0  0  0  0  0  0
    1.2980    7.1030   20.9760 C   0  0  0  0  0  0  0  0  0  0  0  0
    2.0310    6.0570   20.4120 C   0  0  0  0  0  0  0  0  0  0  0  0
    2.7400    6.2470   19.2190 C   0  0  0  0  0  0  0  0  0  0  0  0
    3.4850    5.2080   18.6360 C   0  0  0  0  0  0  0  0  0  0  0  0
    4.1960    5.4050   17.4440 C   0  0  0  0  0  0  0  0  0  0  0  0
    4.1640    6.6640   16.8360 C   0  0  0  0  0  0  0  0  0  0  0  0
    3.4250    7.7040   17.4030 C   0  0  0  0  0  0  0  0  0  0  0  0
    2.7070    7.5120   18.5930 C   0  0  0  0  0  0  0  0  0  0  0  0
    1.9590    8.5540   19.1740 C   0  0  0  0  0  0  0  0  0  0  0  0
    0.7540    6.9370   21.9030 H   0  0  0  0  0  0  0  0  0  0  0  0
    2.0450    5.0930   20.9140 H   0  0  0  0  0  0  0  0  0  0  0  0
    3.5160    4.2330   19.1220 H   0  0  0  0  0  0  0  0  0  0  0  0
    4.7140    6.8460   15.9140 H   0  0  0  0  0  0  0  0  0  0  0  0
    3.4180    8.6730   16.9080 H   0  0  0  0  0  0  0  0  0  0  0  0
    1.9600    9.5210   18.6790 H   0  0  0  0  0  0  0  0  0  0  0  0
    5.0100    4.2820   16.8440 C   0  0  0  0  0  0  0  0  0  0  0  0
    4.4880    3.9170   15.9500 H   0  0  0  0  0  0  0  0  0  0  0  0
    5.0320    3.4310   17.5380 H   0  0  0  0  0  0  0  0  0  0  0  0
    6.4310    4.6990   16.4540 C   0  0  0  0  0  0  0  0  0  0  0  0
    6.4100    5.2820   15.5250 H   0  0  0  0  0  0  0  0  0  0  0  0
    7.0140    3.7930   16.2430 H   0  0  0  0  0  0  0  0  0  0  0  0
    7.1360    5.4570   17.5150 C   0  0  0  0  0  0  0  0  0  0  0  0
    7.5270    6.7610   17.3670 N   0  0  0  0  0  0  0  0  0  0  0  0
    8.1290    7.1010   18.4980 N   0  0  0  0  0  2  0  0  0  0  0  0
    8.0610    6.0020   19.2620 N   0  0  0  0  0  0  0  0  0  0  0  0
    7.4350    4.9460   18.7190 N   0  0  0  0  0  2  0  0  0  0  0  0
    8.4580    5.9750   20.1980 H   0  0  0  0  0  0  0  0  0  0  0  0
    0.5010    9.2850   21.0240 O   0  0  0  0  0  0  0  0  0  0  0  0
    0.4930   10.6280   20.5290 C   0  0  0  0  0  0  0  0  0  0  0  0
    1.3380   10.7110   19.8330 H   0  0  0  0  0  0  0  0  0  0  0  0
    0.6930   11.3510   21.3290 H   0  0  0  0  0  0  0  0  0  0  0  0
   -3.5050    9.6560   14.6680 F   0  0  0  0  0  0  0  0  0  0  0  0
   -3.3570   10.2680   15.8500 C   0  0  0  0  0  0  0  0  0  0  0  0
   -4.3330   11.1500   16.2870 C   0  0  0  0  0  0  0  0  0  0  0  0
   -4.1720   11.7830   17.5160 C   0  0  0  0  0  0  0  0  0  0  0  0
   -3.0320   11.5250   18.2970 C   0  0  0  0  0  0  0  0  0  0  0  0
   -2.8360   12.1410   19.5380 C   0  0  0  0  0  0  0  0  0  0  0  0
   -1.6930   11.8610   20.2760 C   0  0  0  0  0  0  0  0  0  0  0  0
   -0.7620   10.9690   19.7550 C   0  0  0  0  0  0  0  0  0  0  0  0
   -0.9360   10.3520   18.5570 N   0  0  0  0  0  0  0  0  0  0  0  0
   -2.0420   10.6250   17.8430 C   0  0  0  0  0  0  0  0  0  0  0  0
   -2.2250   10.0070   16.6170 C   0  0  0  0  0  0  0  0  0  0  0  0
   -5.2070   11.3370   15.6710 H   0  0  0  0  0  0  0  0  0  0  0  0
   -4.9370   12.4750   17.8620 H   0  0  0  0  0  0  0  0  0  0  0  0
   -3.5670   12.8420   19.9330 H   0  0  0  0  0  0  0  0  0  0  0  0
   -1.5260   12.3370   21.2370 H   0  0  0  0  0  0  0  0  0  0  0  0
   -1.4800    9.3110   16.2460 H   0  0  0  0  0  0  0  0  0  0  0  0
  1  2  1  0  0  0  0
  1 29  1  0  0  0  0
  2 11  1  0  0  0  0
  3 12  1  0  0  0  0
  3  2  2  0  0  0  0
  4  3  1  0  0  0  0
  5 13  1  0  0  0  0
  5  4  1  0  0  0  0
  6  5  2  0  0  0  0
  7  8  2  0  0  0  0
  7  6  1  0  0  0  0
  8  9  1  0  0  0  0
  9 10  1  0  0  0  0
  9  4  2  0  0  0  0
 10  1  2  0  0  0  0
 14  7  1  0  0  0  0
 15  8  1  0  0  0  0
 16 10  1  0  0  0  0
 17  6  1  0  0  0  0
 17 19  1  0  0  0  0
 18 17  1  0  0  0  0
 20 17  1  0  0  0  0
 20 23  1  0  0  0  0
 21 20  1  0  0  0  0
 22 20  1  0  0  0  0
 23 27  1  0  0  0  0
 24 23  2  0  0  0  0
 24 25  1  0  0  0  0
 25 26  1  0  0  0  0
 26 28  1  0  0  0  0
 27 26  1  0  0  0  0
 30 29  1  0  0  0  0
 30 32  1  0  0  0  0
 31 30  1  0  0  0  0
 33 34  1  0  0  0  0
 34 35  2  0  0  0  0
 34 43  1  0  0  0  0
 35 36  1  0  0  0  0
 36 45  1  0  0  0  0
 36 37  2  0  0  0  0
 37 38  1  0  0  0  0
 38 46  1  0  0  0  0
 38 39  2  0  0  0  0
 39 47  1  0  0  0  0
 40 39  1  0  0  0  0
 40 30  1  0  0  0  0
 41 40  2  0  0  0  0
 42 37  1  0  0  0  0
 42 41  1  0  0  0  0
 43 42  2  0  0  0  0
 44 35  1  0  0  0  0
 48 43  1  0  0  0  0
M  END
>  <MODEL>
8

>  <REMARK>
 VINA RESULT:    -8.902      1.155      2.008
 INTER + INTRA:         -12.137
 INTER:                 -11.618
 INTRA:                  -0.519
 UNBOUND:                -0.112
  Name = 
  6 active torsions:
  status: ('A' for Active; 'I' for Inactive)
    1  A    between atoms: C_8  and  C_9
    2  A    between atoms: C_9  and  O_10
    3  A    between atoms: O_10  and  C_11
    4  A    between atoms: C_16  and  C_17
    5  A    between atoms: C_17  and  C_18
    6  A    between atoms: C_18  and  C_19
                            x       y       z     vdW  Elec       q    Type
                         _______ _______ _______ _____ _____    ______ ____

>  <TORSDO>
F 6

$$$$
=
 OpenBabel07192307433D

 48 52  0  0  0  0  0  0  0  0999 V2000
    2.6510    5.2650   19.3310 C   0  0  0  0  0  0  0  0  0  0  0  0
    2.0450    5.5420   20.5560 C   0  0  0  0  0  0  0  0  0  0  0  0
    1.5360    6.8140   20.8290 C   0  0  0  0  0  0  0  0  0  0  0  0
    1.6200    7.8340   19.8720 C   0  0  0  0  0  0  0  0  0  0  0  0
    1.1130    9.1200   20.1260 C   0  0  0  0  0  0  0  0  0  0  0  0
    1.1960   10.1360   19.1630 C   0  0  0  0  0  0  0  0  0  0  0  0
    1.7880    9.8530   17.9290 C   0  0  0  0  0  0  0  0  0  0  0  0
    2.2980    8.5800   17.6650 C   0  0  0  0  0  0  0  0  0  0  0  0
    2.2240    7.5610   18.6250 C   0  0  0  0  0  0  0  0  0  0  0  0
    2.7350    6.2740   18.3690 C   0  0  0  0  0  0  0  0  0  0  0  0
    1.9700    4.7630   21.3100 H   0  0  0  0  0  0  0  0  0  0  0  0
    1.0720    7.0000   21.7940 H   0  0  0  0  0  0  0  0  0  0  0  0
    0.6410    9.3300   21.0860 H   0  0  0  0  0  0  0  0  0  0  0  0
    1.8580   10.6220   17.1610 H   0  0  0  0  0  0  0  0  0  0  0  0
    2.7540    8.3890   16.6960 H   0  0  0  0  0  0  0  0  0  0  0  0
    3.1830    6.0860   17.3990 H   0  0  0  0  0  0  0  0  0  0  0  0
    0.6250   11.5060   19.4460 C   0  0  0  0  0  0  0  0  0  0  0  0
   -0.2920   11.3830   20.0380 H   0  0  0  0  0  0  0  0  0  0  0  0
    0.3060   11.9750   18.5060 H   0  0  0  0  0  0  0  0  0  0  0  0
    1.5880   12.4220   20.2080 C   0  0  0  0  0  0  0  0  0  0  0  0
    2.2520   11.8240   20.8440 H   0  0  0  0  0  0  0  0  0  0  0  0
    1.0020   13.0610   20.8800 H   0  0  0  0  0  0  0  0  0  0  0  0
    2.3870   13.3030   19.3240 C   0  0  0  0  0  0  0  0  0  0  0  0
    3.3870   14.1170   19.7860 N   0  0  0  0  0  0  0  0  0  0  0  0
    3.8660   14.7570   18.7300 N   0  0  0  0  0  2  0  0  0  0  0  0
    3.1460   14.2950   17.6970 N   0  0  0  0  0  0  0  0  0  0  0  0
    2.2210   13.3700   17.9940 N   0  0  0  0  0  2  0  0  0  0  0  0
    3.2990   14.6260   16.7490 H   0  0  0  0  0  0  0  0  0  0  0  0
    3.0990    3.9800   19.1980 O   0  0  0  0  0  0  0  0  0  0  0  0
    4.4940    3.7240   19.3920 C   0  0  0  0  0  0  0  0  0  0  0  0
    4.6020    2.6380   19.5010 H   0  0  0  0  0  0  0  0  0  0  0  0
    4.8540    4.1560   20.3340 H   0  0  0  0  0  0  0  0  0  0  0  0
    5.6450    3.5160   12.3280 F   0  0  0  0  0  0  0  0  0  0  0  0
    6.0370    3.9640   13.5270 C   0  0  0  0  0  0  0  0  0  0  0  0
    7.1640    4.7680   13.6180 C   0  0  0  0  0  0  0  0  0  0  0  0
    7.5660    5.2300   14.8680 C   0  0  0  0  0  0  0  0  0  0  0  0
    6.8330    4.8830   16.0160 C   0  0  0  0  0  0  0  0  0  0  0  0
    7.2060    5.3300   17.2880 C   0  0  0  0  0  0  0  0  0  0  0  0
    6.4550    4.9600   18.3980 C   0  0  0  0  0  0  0  0  0  0  0  0
    5.3450    4.1440   18.2130 C   0  0  0  0  0  0  0  0  0  0  0  0
    4.9590    3.7060   16.9850 N   0  0  0  0  0  0  0  0  0  0  0  0
    5.6870    4.0640   15.9130 C   0  0  0  0  0  0  0  0  0  0  0  0
    5.3070    3.6160   14.6580 C   0  0  0  0  0  0  0  0  0  0  0  0
    7.7180    5.0250   12.7210 H   0  0  0  0  0  0  0  0  0  0  0  0
    8.4490    5.8610   14.9420 H   0  0  0  0  0  0  0  0  0  0  0  0
    8.0800    5.9620   17.4230 H   0  0  0  0  0  0  0  0  0  0  0  0
    6.7380    5.2950   19.3910 H   0  0  0  0  0  0  0  0  0  0  0  0
    4.4300    2.9860   14.5530 H   0  0  0  0  0  0  0  0  0  0  0  0
  1  2  1  0  0  0  0
  2  3  2  0  0  0  0
  2 11  1  0  0  0  0
  3 12  1  0  0  0  0
  4  5  1  0  0  0  0
  4  3  1  0  0  0  0
  5 13  1  0  0  0  0
  6 17  1  0  0  0  0
  6  5  2  0  0  0  0
  7  6  1  0  0  0  0
  8  7  2  0  0  0  0
  8  9  1  0  0  0  0
  9  4  2  0  0  0  0
 10  9  1  0  0  0  0
 10  1  2  0  0  0  0
 14  7  1  0  0  0  0
 15  8  1  0  0  0  0
 16 10  1  0  0  0  0
 17 18  1  0  0  0  0
 17 20  1  0  0  0  0
 19 17  1  0  0  0  0
 20 21  1  0  0  0  0
 20 22  1  0  0  0  0
 23 24  2  0  0  0  0
 23 20  1  0  0  0  0
 25 24  1  0  0  0  0
 26 27  1  0  0  0  0
 26 25  1  0  0  0  0
 27 23  1  0  0  0  0
 28 26  1  0  0  0  0
 29  1  1  0  0  0  0
 29 30  1  0  0  0  0
 30 31  1  0  0  0  0
 30 32  1  0  0  0  0
 33 34  1  0  0  0  0
 34 35  2  0  0  0  0
 34 43  1  0  0  0  0
 35 36  1  0  0  0  0
 36 45  1  0  0  0  0
 36 37  2  0  0  0  0
 37 38  1  0  0  0  0
 38 46  1  0  0  0  0
 38 39  2  0  0  0  0
 39 47  1  0  0  0  0
 40 39  1  0  0  0  0
 40 30  1  0  0  0  0
 41 40  2  0  0  0  0
 42 37  1  0  0  0  0
 42 41  1  0  0  0  0
 43 42  2  0  0  0  0
 44 35  1  0  0  0  0
 48 43  1  0  0  0  0
M  END
>  <MODEL>
9

>  <REMARK>
 VINA RESULT:    -8.900      3.740      9.247
 INTER + INTRA:         -12.133
 INTER:                 -11.338
 INTRA:                  -0.796
 UNBOUND:                -0.112
  Name = 
  6 active torsions:
  status: ('A' for Active; 'I' for Inactive)
    1  A    between atoms: C_8  and  C_9
    2  A    between atoms: C_9  and  O_10
    3  A    between atoms: O_10  and  C_11
    4  A    between atoms: C_16  and  C_17
    5  A    between atoms: C_17  and  C_18
    6  A    between atoms: C_18  and  C_19
                            x       y       z     vdW  Elec       q    Type
                         _______ _______ _______ _____ _____    ______ ____

>  <TORSDO>
F 6

$$$$
=
 OpenBabel07192307433D

 48 52  0  0  0  0  0  0  0  0999 V2000
    0.1960   10.3680   21.1890 C   0  0  0  0  0  0  0  0  0  0  0  0
    0.3700    9.2410   21.9900 C   0  0  0  0  0  0  0  0  0  0  0  0
    1.0510    8.1210   21.5070 C   0  0  0  0  0  0  0  0  0  0  0  0
    1.5770    8.1130   20.2090 C   0  0  0  0  0  0  0  0  0  0  0  0
    2.2660    6.9980   19.7040 C   0  0  0  0  0  0  0  0  0  0  0  0
    2.7950    6.9970   18.4050 C   0  0  0  0  0  0  0  0  0  0  0  0
    2.6340    8.1340   17.6080 C   0  0  0  0  0  0  0  0  0  0  0  0
    1.9490    9.2490   18.0970 C   0  0  0  0  0  0  0  0  0  0  0  0
    1.4130    9.2540   19.3930 C   0  0  0  0  0  0  0  0  0  0  0  0
    0.7210   10.3730   19.8950 C   0  0  0  0  0  0  0  0  0  0  0  0
   -0.0300    9.2280   23.0010 H   0  0  0  0  0  0  0  0  0  0  0  0
    1.1680    7.2550   22.1540 H   0  0  0  0  0  0  0  0  0  0  0  0
    2.3990    6.1190   20.3350 H   0  0  0  0  0  0  0  0  0  0  0  0
    3.0410    8.1630   16.5990 H   0  0  0  0  0  0  0  0  0  0  0  0
    1.8390   10.1200   17.4540 H   0  0  0  0  0  0  0  0  0  0  0  0
    0.6190   11.2410   19.2530 H   0  0  0  0  0  0  0  0  0  0  0  0
    3.5520    5.7960   17.8880 C   0  0  0  0  0  0  0  0  0  0  0  0
    4.3760    5.5830   18.5810 H   0  0  0  0  0  0  0  0  0  0  0  0
    4.0300    6.0460   16.9320 H   0  0  0  0  0  0  0  0  0  0  0  0
    2.6840    4.5420   17.7480 C   0  0  0  0  0  0  0  0  0  0  0  0
    2.4030    4.3960   16.6970 H   0  0  0  0  0  0  0  0  0  0  0  0
    1.7500    4.7000   18.3030 H   0  0  0  0  0  0  0  0  0  0  0  0
    3.3270    3.3170   18.2790 C   0  0  0  0  0  0  0  0  0  0  0  0
    2.9950    2.0560   17.8580 N   0  0  0  0  0  0  0  0  0  0  0  0
    3.7550    1.2200   18.5490 N   0  0  0  0  0  2  0  0  0  0  0  0
    4.5030    2.0090   19.3330 N   0  0  0  0  0  0  0  0  0  0  0  0
    4.3030    3.3290   19.1990 N   0  0  0  0  0  2  0  0  0  0  0  0
    5.1830    1.6270   19.9840 H   0  0  0  0  0  0  0  0  0  0  0  0
   -0.4840   11.3910   21.7910 O   0  0  0  0  0  0  0  0  0  0  0  0
   -0.8080   12.5450   21.0070 C   0  0  0  0  0  0  0  0  0  0  0  0
    0.0940   12.8010   20.4380 H   0  0  0  0  0  0  0  0  0  0  0  0
   -1.0170   13.4150   21.6420 H   0  0  0  0  0  0  0  0  0  0  0  0
   -2.7290   10.3050   14.4830 F   0  0  0  0  0  0  0  0  0  0  0  0
   -3.1080   10.7880   15.6720 C   0  0  0  0  0  0  0  0  0  0  0  0
   -4.4540   11.0190   15.9150 C   0  0  0  0  0  0  0  0  0  0  0  0
   -4.8420   11.5210   17.1540 C   0  0  0  0  0  0  0  0  0  0  0  0
   -3.8760   11.7880   18.1390 C   0  0  0  0  0  0  0  0  0  0  0  0
   -4.2280   12.2920   19.3960 C   0  0  0  0  0  0  0  0  0  0  0  0
   -3.2400   12.5450   20.3400 C   0  0  0  0  0  0  0  0  0  0  0  0
   -1.9150   12.2920   20.0070 C   0  0  0  0  0  0  0  0  0  0  0  0
   -1.5510   11.7930   18.7960 N   0  0  0  0  0  0  0  0  0  0  0  0
   -2.5070   11.5500   17.8830 C   0  0  0  0  0  0  0  0  0  0  0  0
   -2.1460   11.0490   16.6420 C   0  0  0  0  0  0  0  0  0  0  0  0
   -5.1860   10.8070   15.1420 H   0  0  0  0  0  0  0  0  0  0  0  0
   -5.8970   11.7030   17.3470 H   0  0  0  0  0  0  0  0  0  0  0  0
   -5.2670   12.4930   19.6440 H   0  0  0  0  0  0  0  0  0  0  0  0
   -3.5000   12.9420   21.3170 H   0  0  0  0  0  0  0  0  0  0  0  0
   -1.1020   10.8580   16.4210 H   0  0  0  0  0  0  0  0  0  0  0  0
  1 29  1  0  0  0  0
  1  2  1  0  0  0  0
  2 11  1  0  0  0  0
  3  2  2  0  0  0  0
  3 12  1  0  0  0  0
  4  3  1  0  0  0  0
  5  4  1  0  0  0  0
  5 13  1  0  0  0  0
  6  5  2  0  0  0  0
  7  8  2  0  0  0  0
  7  6  1  0  0  0  0
  8  9  1  0  0  0  0
  9 10  1  0  0  0  0
  9  4  2  0  0  0  0
 10  1  2  0  0  0  0
 14  7  1  0  0  0  0
 15  8  1  0  0  0  0
 16 10  1  0  0  0  0
 17  6  1  0  0  0  0
 17 18  1  0  0  0  0
 19 17  1  0  0  0  0
 20 17  1  0  0  0  0
 20 23  1  0  0  0  0
 20 22  1  0  0  0  0
 21 20  1  0  0  0  0
 23 27  1  0  0  0  0
 24 23  2  0  0  0  0
 24 25  1  0  0  0  0
 25 26  1  0  0  0  0
 26 28  1  0  0  0  0
 27 26  1  0  0  0  0
 30 32  1  0  0  0  0
 30 29  1  0  0  0  0
 31 30  1  0  0  0  0
 33 34  1  0  0  0  0
 34 35  2  0  0  0  0
 34 43  1  0  0  0  0
 35 36  1  0  0  0  0
 36 45  1  0  0  0  0
 36 37  2  0  0  0  0
 37 38  1  0  0  0  0
 38 46  1  0  0  0  0
 38 39  2  0  0  0  0
 39 47  1  0  0  0  0
 40 39  1  0  0  0  0
 40 30  1  0  0  0  0
 41 40  2  0  0  0  0
 42 37  1  0  0  0  0
 42 41  1  0  0  0  0
 43 42  2  0  0  0  0
 44 35  1  0  0  0  0
 48 43  1  0  0  0  0
M  END
>  <MODEL>
10

>  <REMARK>
 VINA RESULT:    -8.899      1.864      2.780
 INTER + INTRA:         -12.133
 INTER:                 -12.055
 INTRA:                  -0.078
 UNBOUND:                -0.112
  Name = 
  6 active torsions:
  status: ('A' for Active; 'I' for Inactive)
    1  A    between atoms: C_8  and  C_9
    2  A    between atoms: C_9  and  O_10
    3  A    between atoms: O_10  and  C_11
    4  A    between atoms: C_16  and  C_17
    5  A    between atoms: C_17  and  C_18
    6  A    between atoms: C_18  and  C_19
                            x       y       z     vdW  Elec       q    Type
                         _______ _______ _______ _____ _____    ______ ____

>  <TORSDO>
F 6

$$$$
=
 OpenBabel07192307433D

 48 52  0  0  0  0  0  0  0  0999 V2000
    0.5860   10.1380   19.7810 C   0  0  0  0  0  0  0  0  0  0  0  0
    0.5110    9.3710   20.9430 C   0  0  0  0  0  0  0  0  0  0  0  0
    1.1570    8.1350   21.0250 C   0  0  0  0  0  0  0  0  0  0  0  0
    1.8980    7.6460   19.9420 C   0  0  0  0  0  0  0  0  0  0  0  0
    2.5560    6.4070   20.0040 C   0  0  0  0  0  0  0  0  0  0  0  0
    3.3000    5.9240   18.9180 C   0  0  0  0  0  0  0  0  0  0  0  0
    3.3890    6.7000   17.7590 C   0  0  0  0  0  0  0  0  0  0  0  0
    2.7370    7.9340   17.6830 C   0  0  0  0  0  0  0  0  0  0  0  0
    1.9870    8.4200   18.7630 C   0  0  0  0  0  0  0  0  0  0  0  0
    1.3260    9.6620   18.6970 C   0  0  0  0  0  0  0  0  0  0  0  0
   -0.0590    9.7350   21.7950 H   0  0  0  0  0  0  0  0  0  0  0  0
    1.0780    7.5590   21.9440 H   0  0  0  0  0  0  0  0  0  0  0  0
    2.4930    5.8120   20.9150 H   0  0  0  0  0  0  0  0  0  0  0  0
    3.9660    6.3530   16.9040 H   0  0  0  0  0  0  0  0  0  0  0  0
    2.8230    8.5160   16.7680 H   0  0  0  0  0  0  0  0  0  0  0  0
    1.4200   10.2420   17.7850 H   0  0  0  0  0  0  0  0  0  0  0  0
    4.0190    4.5990   19.0120 C   0  0  0  0  0  0  0  0  0  0  0  0
    3.8100    4.0270   18.0990 H   0  0  0  0  0  0  0  0  0  0  0  0
    3.5940    4.0050   19.8330 H   0  0  0  0  0  0  0  0  0  0  0  0
    5.5360    4.7370   19.1750 C   0  0  0  0  0  0  0  0  0  0  0  0
    5.8990    4.0270   19.9280 H   0  0  0  0  0  0  0  0  0  0  0  0
    5.7540    5.7420   19.5590 H   0  0  0  0  0  0  0  0  0  0  0  0
    6.2840    4.5630   17.9070 C   0  0  0  0  0  0  0  0  0  0  0  0
    5.6890    4.1750   16.7360 N   0  0  0  0  0  0  0  0  0  0  0  0
    6.6540    4.1140   15.8300 N   0  0  0  0  0  2  0  0  0  0  0  0
    7.7630    4.4730   16.4900 N   0  0  0  0  0  0  0  0  0  0  0  0
    7.6000    4.7880   17.7840 N   0  0  0  0  0  2  0  0  0  0  0  0
    8.6700    4.5070   16.0330 H   0  0  0  0  0  0  0  0  0  0  0  0
   -0.0890   11.3260   19.8420 O   0  0  0  0  0  0  0  0  0  0  0  0
    0.5670   12.4490   20.4410 C   0  0  0  0  0  0  0  0  0  0  0  0
    0.6910   13.1990   19.6500 H   0  0  0  0  0  0  0  0  0  0  0  0
    1.5820   12.1910   20.7700 H   0  0  0  0  0  0  0  0  0  0  0  0
   -4.9640   12.0280   24.9700 F   0  0  0  0  0  0  0  0  0  0  0  0
   -3.9190   12.7340   24.5190 C   0  0  0  0  0  0  0  0  0  0  0  0
   -3.6450   13.9740   25.0760 C   0  0  0  0  0  0  0  0  0  0  0  0
   -2.5590   14.7040   24.6030 C   0  0  0  0  0  0  0  0  0  0  0  0
   -1.7550   14.1820   23.5730 C   0  0  0  0  0  0  0  0  0  0  0  0
   -0.6550   14.8860   23.0720 C   0  0  0  0  0  0  0  0  0  0  0  0
    0.1110   14.3350   22.0510 C   0  0  0  0  0  0  0  0  0  0  0  0
   -0.2430   13.0900   21.5470 C   0  0  0  0  0  0  0  0  0  0  0  0
   -1.3030   12.3840   22.0250 N   0  0  0  0  0  0  0  0  0  0  0  0
   -2.0430   12.9190   23.0110 C   0  0  0  0  0  0  0  0  0  0  0  0
   -3.1300   12.2120   23.5000 C   0  0  0  0  0  0  0  0  0  0  0  0
   -4.2760   14.3620   25.8700 H   0  0  0  0  0  0  0  0  0  0  0  0
   -2.3410   15.6770   25.0380 H   0  0  0  0  0  0  0  0  0  0  0  0
   -0.3900   15.8630   23.4690 H   0  0  0  0  0  0  0  0  0  0  0  0
    0.9640   14.8750   21.6500 H   0  0  0  0  0  0  0  0  0  0  0  0
   -3.3710   11.2390   23.0850 H   0  0  0  0  0  0  0  0  0  0  0  0
  1 29  1  0  0  0  0
  1  2  1  0  0  0  0
  2  3  2  0  0  0  0
  2 11  1  0  0  0  0
  3 12  1  0  0  0  0
  4  5  1  0  0  0  0
  4  3  1  0  0  0  0
  5 13  1  0  0  0  0
  6 17  1  0  0  0  0
  6  5  2  0  0  0  0
  7  6  1  0  0  0  0
  8  7  2  0  0  0  0
  8  9  1  0  0  0  0
  9  4  2  0  0  0  0
 10  9  1  0  0  0  0
 10  1  2  0  0  0  0
 14  7  1  0  0  0  0
 15  8  1  0  0  0  0
 16 10  1  0  0  0  0
 17 20  1  0  0  0  0
 17 19  1  0  0  0  0
 18 17  1  0  0  0  0
 20 22  1  0  0  0  0
 20 21  1  0  0  0  0
 23 20  1  0  0  0  0
 24 23  2  0  0  0  0
 25 26  1  0  0  0  0
 25 24  1  0  0  0  0
 26 27  1  0  0  0  0
 27 23  1  0  0  0  0
 28 26  1  0  0  0  0
 29 30  1  0  0  0  0
 30 32  1  0  0  0  0
 30 40  1  0  0  0  0
 31 30  1  0  0  0  0
 34 33  1  0  0  0  0
 34 35  1  0  0  0  0
 35 44  1  0  0  0  0
 36 45  1  0  0  0  0
 36 35  2  0  0  0  0
 37 36  1  0  0  0  0
 38 46  1  0  0  0  0
 38 37  1  0  0  0  0
 39 38  2  0  0  0  0
 40 41  2  0  0  0  0
 40 39  1  0  0  0  0
 41 42  1  0  0  0  0
 42 43  1  0  0  0  0
 42 37  2  0  0  0  0
 43 34  2  0  0  0  0
 47 39  1  0  0  0  0
 48 43  1  0  0  0  0
M  END
>  <MODEL>
11

>  <REMARK>
 VINA RESULT:    -8.872      3.340      4.440
 INTER + INTRA:         -12.096
 INTER:                 -11.418
 INTRA:                  -0.678
 UNBOUND:                -0.112
  Name = 
  6 active torsions:
  status: ('A' for Active; 'I' for Inactive)
    1  A    between atoms: C_8  and  C_9
    2  A    between atoms: C_9  and  O_10
    3  A    between atoms: O_10  and  C_11
    4  A    between atoms: C_16  and  C_17
    5  A    between atoms: C_17  and  C_18
    6  A    between atoms: C_18  and  C_19
                            x       y       z     vdW  Elec       q    Type
                         _______ _______ _______ _____ _____    ______ ____

>  <TORSDO>
F 6

$$$$
=
 OpenBabel07192307433D

 48 52  0  0  0  0  0  0  0  0999 V2000
    0.7720   10.6850   20.4760 C   0  0  0  0  0  0  0  0  0  0  0  0
    0.7120    9.8260   21.5730 C   0  0  0  0  0  0  0  0  0  0  0  0
    1.1310    8.4980   21.4630 C   0  0  0  0  0  0  0  0  0  0  0  0
    1.6240    8.0070   20.2470 C   0  0  0  0  0  0  0  0  0  0  0  0
    2.0520    6.6750   20.1160 C   0  0  0  0  0  0  0  0  0  0  0  0
    2.5500    6.1890   18.8980 C   0  0  0  0  0  0  0  0  0  0  0  0
    2.6250    7.0550   17.8030 C   0  0  0  0  0  0  0  0  0  0  0  0
    2.2020    8.3810   17.9200 C   0  0  0  0  0  0  0  0  0  0  0  0
    1.6970    8.8720   19.1340 C   0  0  0  0  0  0  0  0  0  0  0  0
    1.2680   10.2060   19.2620 C   0  0  0  0  0  0  0  0  0  0  0  0
    0.3320   10.1900   22.5250 H   0  0  0  0  0  0  0  0  0  0  0  0
    1.0690    7.8520   22.3340 H   0  0  0  0  0  0  0  0  0  0  0  0
    2.0020    6.0080   20.9760 H   0  0  0  0  0  0  0  0  0  0  0  0
    3.0150    6.7060   16.8490 H   0  0  0  0  0  0  0  0  0  0  0  0
    2.2720    9.0320   17.0510 H   0  0  0  0  0  0  0  0  0  0  0  0
    1.3460   10.8540   18.3940 H   0  0  0  0  0  0  0  0  0  0  0  0
    3.0250    4.7600   18.7820 C   0  0  0  0  0  0  0  0  0  0  0  0
    2.1550    4.0970   18.8800 H   0  0  0  0  0  0  0  0  0  0  0  0
    3.6750    4.5160   19.6330 H   0  0  0  0  0  0  0  0  0  0  0  0
    3.7330    4.4580   17.4580 C   0  0  0  0  0  0  0  0  0  0  0  0
    3.4270    5.1840   16.6950 H   0  0  0  0  0  0  0  0  0  0  0  0
    3.4020    3.4730   17.1030 H   0  0  0  0  0  0  0  0  0  0  0  0
    5.2100    4.4280   17.5710 C   0  0  0  0  0  0  0  0  0  0  0  0
    6.0440    4.4370   16.4840 N   0  0  0  0  0  0  0  0  0  0  0  0
    7.2790    4.3930   16.9610 N   0  0  0  0  0  2  0  0  0  0  0  0
    7.1290    4.3700   18.2930 N   0  0  0  0  0  0  0  0  0  0  0  0
    5.8650    4.4120   18.7420 N   0  0  0  0  0  2  0  0  0  0  0  0
    7.9270    4.3270   18.9200 H   0  0  0  0  0  0  0  0  0  0  0  0
    0.3360   11.9570   20.7280 O   0  0  0  0  0  0  0  0  0  0  0  0
   -1.0110   12.1360   21.1790 C   0  0  0  0  0  0  0  0  0  0  0  0
   -1.0820   13.1630   21.5560 H   0  0  0  0  0  0  0  0  0  0  0  0
   -1.2360   11.4870   22.0350 H   0  0  0  0  0  0  0  0  0  0  0  0
   -2.5160    9.9650   14.5230 F   0  0  0  0  0  0  0  0  0  0  0  0
   -2.9530   10.5220   15.6600 C   0  0  0  0  0  0  0  0  0  0  0  0
   -4.2780   10.9200   15.7560 C   0  0  0  0  0  0  0  0  0  0  0  0
   -4.7260   11.4990   16.9400 C   0  0  0  0  0  0  0  0  0  0  0  0
   -3.8400   11.6750   18.0180 C   0  0  0  0  0  0  0  0  0  0  0  0
   -4.2540   12.2530   19.2230 C   0  0  0  0  0  0  0  0  0  0  0  0
   -3.3440   12.4110   20.2610 C   0  0  0  0  0  0  0  0  0  0  0  0
   -2.0330   11.9900   20.0720 C   0  0  0  0  0  0  0  0  0  0  0  0
   -1.6110   11.4180   18.9130 N   0  0  0  0  0  0  0  0  0  0  0  0
   -2.4920   11.2670   17.9090 C   0  0  0  0  0  0  0  0  0  0  0  0
   -2.0700   10.6930   16.7210 C   0  0  0  0  0  0  0  0  0  0  0  0
   -4.9480   10.7780   14.9140 H   0  0  0  0  0  0  0  0  0  0  0  0
   -5.7650   11.8120   17.0190 H   0  0  0  0  0  0  0  0  0  0  0  0
   -5.2800   12.5840   19.3580 H   0  0  0  0  0  0  0  0  0  0  0  0
   -3.6520   12.8630   21.1990 H   0  0  0  0  0  0  0  0  0  0  0  0
   -1.0400   10.3710   16.6130 H   0  0  0  0  0  0  0  0  0  0  0  0
  1 29  1  0  0  0  0
  1  2  1  0  0  0  0
  2 11  1  0  0  0  0
  3  2  2  0  0  0  0
  3 12  1  0  0  0  0
  4  3  1  0  0  0  0
  5  4  1  0  0  0  0
  5 13  1  0  0  0  0
  6  5  2  0  0  0  0
  7  8  2  0  0  0  0
  7  6  1  0  0  0  0
  8  9  1  0  0  0  0
  9 10  1  0  0  0  0
  9  4  2  0  0  0  0
 10  1  2  0  0  0  0
 14  7  1  0  0  0  0
 15  8  1  0  0  0  0
 16 10  1  0  0  0  0
 17 18  1  0  0  0  0
 17  6  1  0  0  0  0
 17 19  1  0  0  0  0
 20 23  1  0  0  0  0
 20 17  1  0  0  0  0
 21 20  1  0  0  0  0
 22 20  1  0  0  0  0
 23 27  1  0  0  0  0
 24 25  1  0  0  0  0
 24 23  2  0  0  0  0
 25 26  1  0  0  0  0
 26 27  1  0  0  0  0
 26 28  1  0  0  0  0
 29 30  1  0  0  0  0
 30 31  1  0  0  0  0
 30 32  1  0  0  0  0
 33 34  1  0  0  0  0
 34 35  2  0  0  0  0
 34 43  1  0  0  0  0
 35 36  1  0  0  0  0
 36 45  1  0  0  0  0
 36 37  2  0  0  0  0
 37 38  1  0  0  0  0
 38 46  1  0  0  0  0
 38 39  2  0  0  0  0
 39 47  1  0  0  0  0
 40 39  1  0  0  0  0
 40 30  1  0  0  0  0
 41 40  2  0  0  0  0
 42 37  1  0  0  0  0
 42 41  1  0  0  0  0
 43 42  2  0  0  0  0
 44 35  1  0  0  0  0
 48 43  1  0  0  0  0
M  END
>  <MODEL>
12

>  <REMARK>
 VINA RESULT:    -8.868      0.949      2.048
 INTER + INTRA:         -12.091
 INTER:                 -11.788
 INTRA:                  -0.304
 UNBOUND:                -0.112
  Name = 
  6 active torsions:
  status: ('A' for Active; 'I' for Inactive)
    1  A    between atoms: C_8  and  C_9
    2  A    between atoms: C_9  and  O_10
    3  A    between atoms: O_10  and  C_11
    4  A    between atoms: C_16  and  C_17
    5  A    between atoms: C_17  and  C_18
    6  A    between atoms: C_18  and  C_19
                            x       y       z     vdW  Elec       q    Type
                         _______ _______ _______ _____ _____    ______ ____

>  <TORSDO>
F 6

$$$$
=
 OpenBabel07192307433D

 48 52  0  0  0  0  0  0  0  0999 V2000
    2.6330    5.1420   19.2650 C   0  0  0  0  0  0  0  0  0  0  0  0
    2.0700    5.3840   20.5170 C   0  0  0  0  0  0  0  0  0  0  0  0
    1.5850    6.6510   20.8490 C   0  0  0  0  0  0  0  0  0  0  0  0
    1.6490    7.7020   19.9240 C   0  0  0  0  0  0  0  0  0  0  0  0
    1.1650    8.9830   20.2370 C   0  0  0  0  0  0  0  0  0  0  0  0
    1.2270   10.0300   19.3060 C   0  0  0  0  0  0  0  0  0  0  0  0
    1.7760    9.7830   18.0440 C   0  0  0  0  0  0  0  0  0  0  0  0
    2.2620    8.5140   17.7210 C   0  0  0  0  0  0  0  0  0  0  0  0
    2.2080    7.4640   18.6500 C   0  0  0  0  0  0  0  0  0  0  0  0
    2.6960    6.1820   18.3340 C   0  0  0  0  0  0  0  0  0  0  0  0
    2.0110    4.5810   21.2480 H   0  0  0  0  0  0  0  0  0  0  0  0
    1.1550    6.8100   21.8340 H   0  0  0  0  0  0  0  0  0  0  0  0
    0.7270    9.1660   21.2180 H   0  0  0  0  0  0  0  0  0  0  0  0
    1.8280   10.5760   17.3010 H   0  0  0  0  0  0  0  0  0  0  0  0
    2.6840    8.3510   16.7320 H   0  0  0  0  0  0  0  0  0  0  0  0
    3.1100    6.0220   17.3440 H   0  0  0  0  0  0  0  0  0  0  0  0
    0.6810   11.3950   19.6530 C   0  0  0  0  0  0  0  0  0  0  0  0
    0.8930   12.0750   18.8180 H   0  0  0  0  0  0  0  0  0  0  0  0
    1.2310   11.8060   20.5110 H   0  0  0  0  0  0  0  0  0  0  0  0
   -0.8260   11.3990   19.9270 C   0  0  0  0  0  0  0  0  0  0  0  0
   -1.2610   10.4320   19.6450 H   0  0  0  0  0  0  0  0  0  0  0  0
   -1.2950   12.1530   19.2830 H   0  0  0  0  0  0  0  0  0  0  0  0
   -1.1700   11.7220   21.3320 C   0  0  0  0  0  0  0  0  0  0  0  0
   -1.9910   12.7630   21.6800 N   0  0  0  0  0  0  0  0  0  0  0  0
   -2.0620   12.7550   23.0030 N   0  0  0  0  0  2  0  0  0  0  0  0
   -1.3000   11.7190   23.3780 N   0  0  0  0  0  0  0  0  0  0  0  0
   -0.7320   11.0170   22.3850 N   0  0  0  0  0  2  0  0  0  0  0  0
   -1.1670   11.4800   24.3570 H   0  0  0  0  0  0  0  0  0  0  0  0
    3.0620    3.8580   19.0750 O   0  0  0  0  0  0  0  0  0  0  0  0
    4.4500    3.5690   19.2720 C   0  0  0  0  0  0  0  0  0  0  0  0
    4.5360    2.4790   19.3490 H   0  0  0  0  0  0  0  0  0  0  0  0
    4.8090    3.9660   20.2300 H   0  0  0  0  0  0  0  0  0  0  0  0
    5.6430    3.5810   12.2120 F   0  0  0  0  0  0  0  0  0  0  0  0
    6.0380    3.9770   13.4280 C   0  0  0  0  0  0  0  0  0  0  0  0
    7.1840    4.7470   13.5550 C   0  0  0  0  0  0  0  0  0  0  0  0
    7.5890    5.1550   14.8220 C   0  0  0  0  0  0  0  0  0  0  0  0
    6.8400    4.7860   15.9540 C   0  0  0  0  0  0  0  0  0  0  0  0
    7.2160    5.1790   17.2430 C   0  0  0  0  0  0  0  0  0  0  0  0
    6.4480    4.7890   18.3340 C   0  0  0  0  0  0  0  0  0  0  0  0
    5.3190    4.0090   18.1140 C   0  0  0  0  0  0  0  0  0  0  0  0
    4.9300    3.6250   16.8690 N   0  0  0  0  0  0  0  0  0  0  0  0
    5.6740    4.0010   15.8150 C   0  0  0  0  0  0  0  0  0  0  0  0
    5.2920    3.6080   14.5430 C   0  0  0  0  0  0  0  0  0  0  0  0
    7.7500    5.0220   12.6700 H   0  0  0  0  0  0  0  0  0  0  0  0
    8.4880    5.7600   14.9240 H   0  0  0  0  0  0  0  0  0  0  0  0
    8.1040    5.7830   17.4050 H   0  0  0  0  0  0  0  0  0  0  0  0
    6.7330    5.0820   19.3400 H   0  0  0  0  0  0  0  0  0  0  0  0
    4.4000    3.0040   14.4100 H   0  0  0  0  0  0  0  0  0  0  0  0
  1  2  1  0  0  0  0
  2  3  2  0  0  0  0
  2 11  1  0  0  0  0
  3 12  1  0  0  0  0
  4  5  1  0  0  0  0
  4  3  1  0  0  0  0
  5 13  1  0  0  0  0
  6 17  1  0  0  0  0
  6  5  2  0  0  0  0
  7  6  1  0  0  0  0
  8  7  2  0  0  0  0
  8  9  1  0  0  0  0
  9  4  2  0  0  0  0
 10  9  1  0  0  0  0
 10  1  2  0  0  0  0
 14  7  1  0  0  0  0
 15  8  1  0  0  0  0
 16 10  1  0  0  0  0
 17 20  1  0  0  0  0
 17 19  1  0  0  0  0
 18 17  1  0  0  0  0
 20 23  1  0  0  0  0
 21 20  1  0  0  0  0
 22 20  1  0  0  0  0
 23 24  2  0  0  0  0
 23 27  1  0  0  0  0
 24 25  1  0  0  0  0
 25 26  1  0  0  0  0
 26 28  1  0  0  0  0
 27 26  1  0  0  0  0
 29  1  1  0  0  0  0
 29 30  1  0  0  0  0
 30 31  1  0  0  0  0
 30 32  1  0  0  0  0
 33 34  1  0  0  0  0
 34 35  2  0  0  0  0
 34 43  1  0  0  0  0
 35 36  1  0  0  0  0
 36 45  1  0  0  0  0
 36 37  2  0  0  0  0
 37 38  1  0  0  0  0
 38 46  1  0  0  0  0
 38 39  2  0  0  0  0
 39 47  1  0  0  0  0
 40 39  1  0  0  0  0
 40 30  1  0  0  0  0
 41 40  2  0  0  0  0
 42 37  1  0  0  0  0
 42 41  1  0  0  0  0
 43 42  2  0  0  0  0
 44 35  1  0  0  0  0
 48 43  1  0  0  0  0
M  END
>  <MODEL>
13

>  <REMARK>
 VINA RESULT:    -8.848      3.440      9.714
 INTER + INTRA:         -12.064
 INTER:                 -11.232
 INTRA:                  -0.833
 UNBOUND:                -0.112
  Name = 
  6 active torsions:
  status: ('A' for Active; 'I' for Inactive)
    1  A    between atoms: C_8  and  C_9
    2  A    between atoms: C_9  and  O_10
    3  A    between atoms: O_10  and  C_11
    4  A    between atoms: C_16  and  C_17
    5  A    between atoms: C_17  and  C_18
    6  A    between atoms: C_18  and  C_19
                            x       y       z     vdW  Elec       q    Type
                         _______ _______ _______ _____ _____    ______ ____

>  <TORSDO>
F 6

$$$$
=
 OpenBabel07192307433D

 48 52  0  0  0  0  0  0  0  0999 V2000
    0.7690    9.6780   19.6700 C   0  0  0  0  0  0  0  0  0  0  0  0
    0.7710    8.8240   20.7720 C   0  0  0  0  0  0  0  0  0  0  0  0
    1.5380    7.6570   20.7680 C   0  0  0  0  0  0  0  0  0  0  0  0
    2.3260    7.3270   19.6580 C   0  0  0  0  0  0  0  0  0  0  0  0
    3.1070    6.1590   19.6350 C   0  0  0  0  0  0  0  0  0  0  0  0
    3.8980    5.8360   18.5230 C   0  0  0  0  0  0  0  0  0  0  0  0
    3.9090    6.7020   17.4250 C   0  0  0  0  0  0  0  0  0  0  0  0
    3.1360    7.8650   17.4340 C   0  0  0  0  0  0  0  0  0  0  0  0
    2.3380    8.1910   18.5410 C   0  0  0  0  0  0  0  0  0  0  0  0
    1.5560    9.3610   18.5610 C   0  0  0  0  0  0  0  0  0  0  0  0
    0.1660    9.0630   21.6420 H   0  0  0  0  0  0  0  0  0  0  0  0
    1.5170    7.0090   21.6400 H   0  0  0  0  0  0  0  0  0  0  0  0
    3.1040    5.4950   20.4990 H   0  0  0  0  0  0  0  0  0  0  0  0
    4.5200    6.4790   16.5520 H   0  0  0  0  0  0  0  0  0  0  0  0
    3.1640    8.5200   16.5660 H   0  0  0  0  0  0  0  0  0  0  0  0
    1.5920   10.0140   17.6950 H   0  0  0  0  0  0  0  0  0  0  0  0
    4.7480    4.5870   18.5250 C   0  0  0  0  0  0  0  0  0  0  0  0
    4.7610    4.1800   19.5450 H   0  0  0  0  0  0  0  0  0  0  0  0
    5.7910    4.8490   18.3010 H   0  0  0  0  0  0  0  0  0  0  0  0
    4.2440    3.5050   17.5660 C   0  0  0  0  0  0  0  0  0  0  0  0
    5.0480    2.7900   17.3500 H   0  0  0  0  0  0  0  0  0  0  0  0
    3.9820    3.9790   16.6120 H   0  0  0  0  0  0  0  0  0  0  0  0
    3.0460    2.7880   18.0620 C   0  0  0  0  0  0  0  0  0  0  0  0
    1.7770    3.2970   17.9660 N   0  0  0  0  0  0  0  0  0  0  0  0
    0.9720    2.3980   18.5150 N   0  0  0  0  0  2  0  0  0  0  0  0
    1.7850    1.4040   18.8990 N   0  0  0  0  0  0  0  0  0  0  0  0
    3.0880    1.5720   18.6260 N   0  0  0  0  0  2  0  0  0  0  0  0
    1.4300    0.5730   19.3640 H   0  0  0  0  0  0  0  0  0  0  0  0
   -0.0230   10.7840   19.8120 O   0  0  0  0  0  0  0  0  0  0  0  0
    0.5980   12.0190   20.1870 C   0  0  0  0  0  0  0  0  0  0  0  0
    0.5780   12.6620   19.2980 H   0  0  0  0  0  0  0  0  0  0  0  0
    1.6580   11.8770   20.4300 H   0  0  0  0  0  0  0  0  0  0  0  0
   -4.8280   12.0960   24.8590 F   0  0  0  0  0  0  0  0  0  0  0  0
   -3.7560   12.7220   24.3560 C   0  0  0  0  0  0  0  0  0  0  0  0
   -3.3960   13.9640   24.8580 C   0  0  0  0  0  0  0  0  0  0  0  0
   -2.2810   14.6090   24.3310 C   0  0  0  0  0  0  0  0  0  0  0  0
   -1.5370   14.0030   23.3040 C   0  0  0  0  0  0  0  0  0  0  0  0
   -0.4100   14.6210   22.7500 C   0  0  0  0  0  0  0  0  0  0  0  0
    0.2940   13.9880   21.7330 C   0  0  0  0  0  0  0  0  0  0  0  0
   -0.1450   12.7480   21.2860 C   0  0  0  0  0  0  0  0  0  0  0  0
   -1.2310   12.1250   21.8160 N   0  0  0  0  0  0  0  0  0  0  0  0
   -1.9120   12.7390   22.7980 C   0  0  0  0  0  0  0  0  0  0  0  0
   -3.0250   12.1160   23.3400 C   0  0  0  0  0  0  0  0  0  0  0  0
   -3.9820   14.4170   25.6510 H   0  0  0  0  0  0  0  0  0  0  0  0
   -1.9950   15.5830   24.7230 H   0  0  0  0  0  0  0  0  0  0  0  0
   -0.0790   15.5940   23.1020 H   0  0  0  0  0  0  0  0  0  0  0  0
    1.1670   14.4600   21.2910 H   0  0  0  0  0  0  0  0  0  0  0  0
   -3.3340   11.1440   22.9690 H   0  0  0  0  0  0  0  0  0  0  0  0
  1 29  1  0  0  0  0
  1  2  1  0  0  0  0
  2 11  1  0  0  0  0
  3  2  2  0  0  0  0
  3 12  1  0  0  0  0
  4  3  1  0  0  0  0
  5  4  1  0  0  0  0
  5 13  1  0  0  0  0
  6 17  1  0  0  0  0
  6  5  2  0  0  0  0
  7  8  2  0  0  0  0
  7  6  1  0  0  0  0
  8  9  1  0  0  0  0
  9 10  1  0  0  0  0
  9  4  2  0  0  0  0
 10  1  2  0  0  0  0
 14  7  1  0  0  0  0
 15  8  1  0  0  0  0
 16 10  1  0  0  0  0
 17 18  1  0  0  0  0
 19 17  1  0  0  0  0
 20 23  1  0  0  0  0
 20 17  1  0  0  0  0
 21 20  1  0  0  0  0
 22 20  1  0  0  0  0
 23 27  1  0  0  0  0
 24 23  2  0  0  0  0
 24 25  1  0  0  0  0
 25 26  1  0  0  0  0
 26 28  1  0  0  0  0
 27 26  1  0  0  0  0
 29 30  1  0  0  0  0
 30 32  1  0  0  0  0
 30 40  1  0  0  0  0
 31 30  1  0  0  0  0
 34 35  1  0  0  0  0
 34 33  1  0  0  0  0
 35 44  1  0  0  0  0
 36 45  1  0  0  0  0
 36 35  2  0  0  0  0
 37 36  1  0  0  0  0
 38 46  1  0  0  0  0
 38 37  2  0  0  0  0
 39 38  1  0  0  0  0
 40 39  2  0  0  0  0
 40 41  1  0  0  0  0
 41 42  2  0  0  0  0
 42 37  1  0  0  0  0
 42 43  1  0  0  0  0
 43 34  2  0  0  0  0
 47 39  1  0  0  0  0
 48 43  1  0  0  0  0
M  END
>  <MODEL>
14

>  <REMARK>
 VINA RESULT:    -8.809      3.831      4.848
 INTER + INTRA:         -12.012
 INTER:                 -11.361
 INTRA:                  -0.651
 UNBOUND:                -0.112
  Name = 
  6 active torsions:
  status: ('A' for Active; 'I' for Inactive)
    1  A    between atoms: C_8  and  C_9
    2  A    between atoms: C_9  and  O_10
    3  A    between atoms: O_10  and  C_11
    4  A    between atoms: C_16  and  C_17
    5  A    between atoms: C_17  and  C_18
    6  A    between atoms: C_18  and  C_19
                            x       y       z     vdW  Elec       q    Type
                         _______ _______ _______ _____ _____    ______ ____

>  <TORSDO>
F 6

$$$$
=
 OpenBabel07192307433D

 48 52  0  0  0  0  0  0  0  0999 V2000
    1.6660    6.8770   20.3960 C   0  0  0  0  0  0  0  0  0  0  0  0
    1.8420    5.5390   20.7490 C   0  0  0  0  0  0  0  0  0  0  0  0
    2.6870    4.7110   20.0060 C   0  0  0  0  0  0  0  0  0  0  0  0
    3.3770    5.2120   18.8950 C   0  0  0  0  0  0  0  0  0  0  0  0
    4.2330    4.3960   18.1350 C   0  0  0  0  0  0  0  0  0  0  0  0
    4.9260    4.9050   17.0270 C   0  0  0  0  0  0  0  0  0  0  0  0
    4.7620    6.2500   16.6830 C   0  0  0  0  0  0  0  0  0  0  0  0
    3.9130    7.0710   17.4290 C   0  0  0  0  0  0  0  0  0  0  0  0
    3.2130    6.5680   18.5350 C   0  0  0  0  0  0  0  0  0  0  0  0
    2.3550    7.3870   19.2940 C   0  0  0  0  0  0  0  0  0  0  0  0
    1.3150    5.1330   21.6080 H   0  0  0  0  0  0  0  0  0  0  0  0
    2.8010    3.6720   20.3030 H   0  0  0  0  0  0  0  0  0  0  0  0
    4.3660    3.3520   18.4150 H   0  0  0  0  0  0  0  0  0  0  0  0
    5.2940    6.6710   15.8330 H   0  0  0  0  0  0  0  0  0  0  0  0
    3.8050    8.1140   17.1390 H   0  0  0  0  0  0  0  0  0  0  0  0
    2.2550    8.4280   19.0040 H   0  0  0  0  0  0  0  0  0  0  0  0
    5.8580    4.0170   16.2350 C   0  0  0  0  0  0  0  0  0  0  0  0
    5.2550    3.4030   15.5540 H   0  0  0  0  0  0  0  0  0  0  0  0
    6.3520    3.3050   16.9100 H   0  0  0  0  0  0  0  0  0  0  0  0
    6.8930    4.7950   15.4180 C   0  0  0  0  0  0  0  0  0  0  0  0
    7.8970    4.6330   15.8310 H   0  0  0  0  0  0  0  0  0  0  0  0
    6.6830    5.8670   15.5190 H   0  0  0  0  0  0  0  0  0  0  0  0
    6.8770    4.4620   13.9740 C   0  0  0  0  0  0  0  0  0  0  0  0
    7.6820    5.0810   13.0550 N   0  0  0  0  0  0  0  0  0  0  0  0
    7.3900    4.5430   11.8800 N   0  0  0  0  0  2  0  0  0  0  0  0
    6.4440    3.6330   12.1490 N   0  0  0  0  0  0  0  0  0  0  0  0
    6.0920    3.5150   13.4380 N   0  0  0  0  0  2  0  0  0  0  0  0
    6.0230    3.0660   11.4180 H   0  0  0  0  0  0  0  0  0  0  0  0
    0.8160    7.5710   21.2130 O   0  0  0  0  0  0  0  0  0  0  0  0
    1.2290    8.8580   21.6850 C   0  0  0  0  0  0  0  0  0  0  0  0
    2.1450    9.1130   21.1380 H   0  0  0  0  0  0  0  0  0  0  0  0
    1.5130    8.8240   22.7440 H   0  0  0  0  0  0  0  0  0  0  0  0
   -3.7630   13.3350   24.1950 F   0  0  0  0  0  0  0  0  0  0  0  0
   -3.0710   12.8860   23.1410 C   0  0  0  0  0  0  0  0  0  0  0  0
   -3.3100   13.4300   21.8880 C   0  0  0  0  0  0  0  0  0  0  0  0
   -2.5870   12.9590   20.7960 C   0  0  0  0  0  0  0  0  0  0  0  0
   -1.6300   11.9440   20.9700 C   0  0  0  0  0  0  0  0  0  0  0  0
   -0.8840   11.4450   19.8970 C   0  0  0  0  0  0  0  0  0  0  0  0
    0.0500   10.4390   20.1130 C   0  0  0  0  0  0  0  0  0  0  0  0
    0.2180    9.9470   21.4020 C   0  0  0  0  0  0  0  0  0  0  0  0
   -0.4900   10.4230   22.4610 N   0  0  0  0  0  0  0  0  0  0  0  0
   -1.3940   11.3950   22.2510 C   0  0  0  0  0  0  0  0  0  0  0  0
   -2.1250   11.8820   23.3210 C   0  0  0  0  0  0  0  0  0  0  0  0
   -4.0540   14.2120   21.7710 H   0  0  0  0  0  0  0  0  0  0  0  0
   -2.7720   13.3830   19.8120 H   0  0  0  0  0  0  0  0  0  0  0  0
   -1.0270   11.8320   18.8910 H   0  0  0  0  0  0  0  0  0  0  0  0
    0.6310   10.0400   19.2870 H   0  0  0  0  0  0  0  0  0  0  0  0
   -1.9620   11.4770   24.3150 H   0  0  0  0  0  0  0  0  0  0  0  0
  1  2  1  0  0  0  0
  1 29  1  0  0  0  0
  2 11  1  0  0  0  0
  3 12  1  0  0  0  0
  3  2  2  0  0  0  0
  4  3  1  0  0  0  0
  5 13  1  0  0  0  0
  5  4  2  0  0  0  0
  6  5  1  0  0  0  0
  7  6  2  0  0  0  0
  7  8  1  0  0  0  0
  8  9  2  0  0  0  0
  9  4  1  0  0  0  0
  9 10  1  0  0  0  0
 10  1  2  0  0  0  0
 14  7  1  0  0  0  0
 15  8  1  0  0  0  0
 16 10  1  0  0  0  0
 17 19  1  0  0  0  0
 17  6  1  0  0  0  0
 18 17  1  0  0  0  0
 20 22  1  0  0  0  0
 20 21  1  0  0  0  0
 20 17  1  0  0  0  0
 23 20  1  0  0  0  0
 24 23  2  0  0  0  0
 25 26  1  0  0  0  0
 25 24  1  0  0  0  0
 26 27  1  0  0  0  0
 27 23  1  0  0  0  0
 28 26  1  0  0  0  0
 29 30  1  0  0  0  0
 30 32  1  0  0  0  0
 31 30  1  0  0  0  0
 34 43  1  0  0  0  0
 34 33  1  0  0  0  0
 35 34  2  0  0  0  0
 36 37  2  0  0  0  0
 36 35  1  0  0  0  0
 37 42  1  0  0  0  0
 38 39  2  0  0  0  0
 38 37  1  0  0  0  0
 39 40  1  0  0  0  0
 40 30  1  0  0  0  0
 40 41  2  0  0  0  0
 42 41  1  0  0  0  0
 42 43  2  0  0  0  0
 43 48  1  0  0  0  0
 44 35  1  0  0  0  0
 45 36  1  0  0  0  0
 46 38  1  0  0  0  0
 47 39  1  0  0  0  0
M  END
>  <MODEL>
15

>  <REMARK>
 VINA RESULT:    -8.737      3.091      4.200
 INTER + INTRA:         -11.915
 INTER:                 -11.234
 INTRA:                  -0.681
 UNBOUND:                -0.112
  Name = 
  6 active torsions:
  status: ('A' for Active; 'I' for Inactive)
    1  A    between atoms: C_8  and  C_9
    2  A    between atoms: C_9  and  O_10
    3  A    between atoms: O_10  and  C_11
    4  A    between atoms: C_16  and  C_17
    5  A    between atoms: C_17  and  C_18
    6  A    between atoms: C_18  and  C_19
                            x       y       z     vdW  Elec       q    Type
                         _______ _______ _______ _____ _____    ______ ____

>  <TORSDO>
F 6

$$$$
=
 OpenBabel07192307433D

 48 52  0  0  0  0  0  0  0  0999 V2000
    0.4850    9.7190   17.9490 C   0  0  0  0  0  0  0  0  0  0  0  0
    0.8990   10.4970   19.0290 C   0  0  0  0  0  0  0  0  0  0  0  0
   -0.0030   11.3270   19.6990 C   0  0  0  0  0  0  0  0  0  0  0  0
   -1.3440   11.3870   19.2990 C   0  0  0  0  0  0  0  0  0  0  0  0
   -2.2690   12.2140   19.9600 C   0  0  0  0  0  0  0  0  0  0  0  0
   -3.6110   12.2670   19.5590 C   0  0  0  0  0  0  0  0  0  0  0  0
   -4.0300   11.4750   18.4870 C   0  0  0  0  0  0  0  0  0  0  0  0
   -3.1210   10.6500   17.8200 C   0  0  0  0  0  0  0  0  0  0  0  0
   -1.7750   10.5960   18.2120 C   0  0  0  0  0  0  0  0  0  0  0  0
   -0.8510    9.7680   17.5470 C   0  0  0  0  0  0  0  0  0  0  0  0
    1.9370   10.4630   19.3540 H   0  0  0  0  0  0  0  0  0  0  0  0
    0.3510   11.9230   20.5360 H   0  0  0  0  0  0  0  0  0  0  0  0
   -1.9390   12.8200   20.8040 H   0  0  0  0  0  0  0  0  0  0  0  0
   -5.0680   11.4910   18.1600 H   0  0  0  0  0  0  0  0  0  0  0  0
   -3.4750   10.0450   16.9880 H   0  0  0  0  0  0  0  0  0  0  0  0
   -1.2100    9.1610   16.7220 H   0  0  0  0  0  0  0  0  0  0  0  0
   -4.5950   13.1460   20.2960 C   0  0  0  0  0  0  0  0  0  0  0  0
   -5.3660   12.5040   20.7410 H   0  0  0  0  0  0  0  0  0  0  0  0
   -5.1260   13.7870   19.5800 H   0  0  0  0  0  0  0  0  0  0  0  0
   -3.9520   13.9880   21.4020 C   0  0  0  0  0  0  0  0  0  0  0  0
   -4.2830   15.0310   21.3200 H   0  0  0  0  0  0  0  0  0  0  0  0
   -2.8650   13.9920   21.2490 H   0  0  0  0  0  0  0  0  0  0  0  0
   -4.2180   13.4740   22.7660 C   0  0  0  0  0  0  0  0  0  0  0  0
   -3.5190   12.4350   23.3230 N   0  0  0  0  0  0  0  0  0  0  0  0
   -4.0310   12.2470   24.5310 N   0  0  0  0  0  2  0  0  0  0  0  0
   -4.9920   13.1750   24.6420 N   0  0  0  0  0  0  0  0  0  0  0  0
   -5.1470   13.9880   23.5860 N   0  0  0  0  0  2  0  0  0  0  0  0
   -5.5630   13.2560   25.4780 H   0  0  0  0  0  0  0  0  0  0  0  0
    1.4710    8.9520   17.3920 O   0  0  0  0  0  0  0  0  0  0  0  0
    2.5660    8.5480   18.2210 C   0  0  0  0  0  0  0  0  0  0  0  0
    2.2170    8.6160   19.2580 H   0  0  0  0  0  0  0  0  0  0  0  0
    3.4080    9.2480   18.1420 H   0  0  0  0  0  0  0  0  0  0  0  0
    1.0550    1.5690   18.7510 F   0  0  0  0  0  0  0  0  0  0  0  0
    1.9200    2.5150   18.3630 C   0  0  0  0  0  0  0  0  0  0  0  0
    3.1210    2.1400   17.7810 C   0  0  0  0  0  0  0  0  0  0  0  0
    4.0160    3.1290   17.3800 C   0  0  0  0  0  0  0  0  0  0  0  0
    3.6970    4.4850   17.5680 C   0  0  0  0  0  0  0  0  0  0  0  0
    4.5700    5.5060   17.1770 C   0  0  0  0  0  0  0  0  0  0  0  0
    4.2170    6.8340   17.3840 C   0  0  0  0  0  0  0  0  0  0  0  0
    2.9950    7.1160   17.9840 C   0  0  0  0  0  0  0  0  0  0  0  0
    2.1270    6.1400   18.3630 N   0  0  0  0  0  0  0  0  0  0  0  0
    2.4710    4.8560   18.1630 C   0  0  0  0  0  0  0  0  0  0  0  0
    1.5970    3.8540   18.5520 C   0  0  0  0  0  0  0  0  0  0  0  0
    3.3510    1.0890   17.6440 H   0  0  0  0  0  0  0  0  0  0  0  0
    4.9590    2.8390   16.9220 H   0  0  0  0  0  0  0  0  0  0  0  0
    5.5260    5.2750   16.7150 H   0  0  0  0  0  0  0  0  0  0  0  0
    4.8890    7.6350   17.0910 H   0  0  0  0  0  0  0  0  0  0  0  0
    0.6490    4.1140   19.0110 H   0  0  0  0  0  0  0  0  0  0  0  0
  1  2  1  0  0  0  0
  2 11  1  0  0  0  0
  2  3  2  0  0  0  0
  3 12  1  0  0  0  0
  4  3  1  0  0  0  0
  4  5  1  0  0  0  0
  5 13  1  0  0  0  0
  6  5  2  0  0  0  0
  6 17  1  0  0  0  0
  7  6  1  0  0  0  0
  8  9  1  0  0  0  0
  8  7  2  0  0  0  0
  9  4  2  0  0  0  0
 10  1  2  0  0  0  0
 10  9  1  0  0  0  0
 14  7  1  0  0  0  0
 15  8  1  0  0  0  0
 16 10  1  0  0  0  0
 17 18  1  0  0  0  0
 17 20  1  0  0  0  0
 19 17  1  0  0  0  0
 20 23  1  0  0  0  0
 21 20  1  0  0  0  0
 22 20  1  0  0  0  0
 23 24  2  0  0  0  0
 23 27  1  0  0  0  0
 24 25  1  0  0  0  0
 25 26  1  0  0  0  0
 26 28  1  0  0  0  0
 27 26  1  0  0  0  0
 29  1  1  0  0  0  0
 29 30  1  0  0  0  0
 30 31  1  0  0  0  0
 32 30  1  0  0  0  0
 34 43  1  0  0  0  0
 34 33  1  0  0  0  0
 35 34  2  0  0  0  0
 36 37  2  0  0  0  0
 36 35  1  0  0  0  0
 37 42  1  0  0  0  0
 38 39  2  0  0  0  0
 38 37  1  0  0  0  0
 39 40  1  0  0  0  0
 40 30  1  0  0  0  0
 40 41  2  0  0  0  0
 42 41  1  0  0  0  0
 42 43  2  0  0  0  0
 43 48  1  0  0  0  0
 44 35  1  0  0  0  0
 45 36  1  0  0  0  0
 46 38  1  0  0  0  0
 47 39  1  0  0  0  0
M  END
>  <MODEL>
16

>  <REMARK>
 VINA RESULT:    -8.666      3.650     10.215
 INTER + INTRA:         -11.818
 INTER:                 -11.159
 INTRA:                  -0.659
 UNBOUND:                -0.112
  Name = 
  6 active torsions:
  status: ('A' for Active; 'I' for Inactive)
    1  A    between atoms: C_8  and  C_9
    2  A    between atoms: C_9  and  O_10
    3  A    between atoms: O_10  and  C_11
    4  A    between atoms: C_16  and  C_17
    5  A    between atoms: C_17  and  C_18
    6  A    between atoms: C_18  and  C_19
                            x       y       z     vdW  Elec       q    Type
                         _______ _______ _______ _____ _____    ______ ____

>  <TORSDO>
F 6

$$$$
=
 OpenBabel07192307433D

 48 52  0  0  0  0  0  0  0  0999 V2000
    2.4200    6.2380   19.3500 C   0  0  0  0  0  0  0  0  0  0  0  0
    2.4610    6.9030   18.1250 C   0  0  0  0  0  0  0  0  0  0  0  0
    2.0210    8.2240   18.0140 C   0  0  0  0  0  0  0  0  0  0  0  0
    1.5350    8.9080   19.1360 C   0  0  0  0  0  0  0  0  0  0  0  0
    1.0890   10.2370   19.0470 C   0  0  0  0  0  0  0  0  0  0  0  0
    0.6080   10.9190   20.1740 C   0  0  0  0  0  0  0  0  0  0  0  0
    0.5830   10.2580   21.4060 C   0  0  0  0  0  0  0  0  0  0  0  0
    1.0210    8.9360   21.5080 C   0  0  0  0  0  0  0  0  0  0  0  0
    1.4980    8.2460   20.3830 C   0  0  0  0  0  0  0  0  0  0  0  0
    1.9430    6.9140   20.4750 C   0  0  0  0  0  0  0  0  0  0  0  0
    2.8350    6.3880   17.2430 H   0  0  0  0  0  0  0  0  0  0  0  0
    2.0620    8.7140   17.0450 H   0  0  0  0  0  0  0  0  0  0  0  0
    1.1230   10.7510   18.0870 H   0  0  0  0  0  0  0  0  0  0  0  0
    0.2220   10.7670   22.2980 H   0  0  0  0  0  0  0  0  0  0  0  0
    0.9900    8.4470   22.4790 H   0  0  0  0  0  0  0  0  0  0  0  0
    1.9150    6.4320   21.4480 H   0  0  0  0  0  0  0  0  0  0  0  0
    0.1530   12.3550   20.0630 C   0  0  0  0  0  0  0  0  0  0  0  0
   -0.7660   12.4730   20.6510 H   0  0  0  0  0  0  0  0  0  0  0  0
   -0.1330   12.5720   19.0250 H   0  0  0  0  0  0  0  0  0  0  0  0
    1.1920   13.3650   20.5600 C   0  0  0  0  0  0  0  0  0  0  0  0
    1.6970   12.9760   21.4530 H   0  0  0  0  0  0  0  0  0  0  0  0
    0.6700   14.2790   20.8680 H   0  0  0  0  0  0  0  0  0  0  0  0
    2.1920   13.7370   19.5310 C   0  0  0  0  0  0  0  0  0  0  0  0
    3.4570   14.1660   19.8380 N   0  0  0  0  0  0  0  0  0  0  0  0
    4.0570   14.4150   18.6840 N   0  0  0  0  0  2  0  0  0  0  0  0
    3.1400   14.1180   17.7530 N   0  0  0  0  0  0  0  0  0  0  0  0
    1.9620   13.6680   18.2110 N   0  0  0  0  0  2  0  0  0  0  0  0
    3.3310   14.2250   16.7600 H   0  0  0  0  0  0  0  0  0  0  0  0
    2.8860    4.9530   19.3140 O   0  0  0  0  0  0  0  0  0  0  0  0
    4.2590    4.7200   19.6450 C   0  0  0  0  0  0  0  0  0  0  0  0
    4.3260    3.6820   19.9960 H   0  0  0  0  0  0  0  0  0  0  0  0
    4.5790    5.3420   20.4900 H   0  0  0  0  0  0  0  0  0  0  0  0
    5.4760    3.5090   12.6930 F   0  0  0  0  0  0  0  0  0  0  0  0
    5.9180    4.0220   13.8480 C   0  0  0  0  0  0  0  0  0  0  0  0
    7.1620    4.6320   13.8900 C   0  0  0  0  0  0  0  0  0  0  0  0
    7.6160    5.1630   15.0940 C   0  0  0  0  0  0  0  0  0  0  0  0
    6.8160    5.0770   16.2470 C   0  0  0  0  0  0  0  0  0  0  0  0
    7.2380    5.6000   17.4740 C   0  0  0  0  0  0  0  0  0  0  0  0
    6.4170    5.4900   18.5910 C   0  0  0  0  0  0  0  0  0  0  0  0
    5.1880    4.8540   18.4580 C   0  0  0  0  0  0  0  0  0  0  0  0
    4.7540    4.3480   17.2730 N   0  0  0  0  0  0  0  0  0  0  0  0
    5.5500    4.4530   16.1950 C   0  0  0  0  0  0  0  0  0  0  0  0
    5.1210    3.9330   14.9850 C   0  0  0  0  0  0  0  0  0  0  0  0
    7.7670    4.6890   12.9900 H   0  0  0  0  0  0  0  0  0  0  0  0
    8.5920    5.6430   15.1300 H   0  0  0  0  0  0  0  0  0  0  0  0
    8.2040    6.0890   17.5690 H   0  0  0  0  0  0  0  0  0  0  0  0
    6.7360    5.8860   19.5500 H   0  0  0  0  0  0  0  0  0  0  0  0
    4.1510    3.4500   14.9190 H   0  0  0  0  0  0  0  0  0  0  0  0
  1 10  1  0  0  0  0
  2  1  2  0  0  0  0
  3  2  1  0  0  0  0
  3  4  2  0  0  0  0
  4  9  1  0  0  0  0
  5  4  1  0  0  0  0
  5  6  2  0  0  0  0
  6  7  1  0  0  0  0
  7  8  2  0  0  0  0
  7 14  1  0  0  0  0
  8 15  1  0  0  0  0
  9 10  2  0  0  0  0
  9  8  1  0  0  0  0
 10 16  1  0  0  0  0
 11  2  1  0  0  0  0
 12  3  1  0  0  0  0
 13  5  1  0  0  0  0
 17  6  1  0  0  0  0
 17 20  1  0  0  0  0
 17 18  1  0  0  0  0
 19 17  1  0  0  0  0
 20 22  1  0  0  0  0
 20 21  1  0  0  0  0
 23 24  2  0  0  0  0
 23 20  1  0  0  0  0
 25 24  1  0  0  0  0
 26 27  1  0  0  0  0
 26 25  1  0  0  0  0
 27 23  1  0  0  0  0
 28 26  1  0  0  0  0
 29  1  1  0  0  0  0
 29 30  1  0  0  0  0
 30 31  1  0  0  0  0
 30 32  1  0  0  0  0
 33 34  1  0  0  0  0
 34 35  2  0  0  0  0
 34 43  1  0  0  0  0
 35 36  1  0  0  0  0
 36 45  1  0  0  0  0
 36 37  2  0  0  0  0
 37 38  1  0  0  0  0
 38 46  1  0  0  0  0
 38 39  2  0  0  0  0
 39 47  1  0  0  0  0
 40 39  1  0  0  0  0
 40 30  1  0  0  0  0
 41 40  2  0  0  0  0
 42 37  1  0  0  0  0
 42 41  1  0  0  0  0
 43 42  2  0  0  0  0
 44 35  1  0  0  0  0
 48 43  1  0  0  0  0
M  END
>  <MODEL>
17

>  <REMARK>
 VINA RESULT:    -8.620      3.660      9.149
 INTER + INTRA:         -11.756
 INTER:                 -10.981
 INTRA:                  -0.776
 UNBOUND:                -0.112
  Name = 
  6 active torsions:
  status: ('A' for Active; 'I' for Inactive)
    1  A    between atoms: C_8  and  C_9
    2  A    between atoms: C_9  and  O_10
    3  A    between atoms: O_10  and  C_11
    4  A    between atoms: C_16  and  C_17
    5  A    between atoms: C_17  and  C_18
    6  A    between atoms: C_18  and  C_19
                            x       y       z     vdW  Elec       q    Type
                         _______ _______ _______ _____ _____    ______ ____

>  <TORSDO>
F 6

$$$$
=
 OpenBabel07192307433D

 48 52  0  0  0  0  0  0  0  0999 V2000
    1.3250    9.5740   18.6410 C   0  0  0  0  0  0  0  0  0  0  0  0
    1.5720   10.8900   18.2520 C   0  0  0  0  0  0  0  0  0  0  0  0
    1.1700   11.9590   19.0570 C   0  0  0  0  0  0  0  0  0  0  0  0
    0.5170   11.7270   20.2740 C   0  0  0  0  0  0  0  0  0  0  0  0
    0.1070   12.7870   21.0990 C   0  0  0  0  0  0  0  0  0  0  0  0
   -0.5420   12.5490   22.3190 C   0  0  0  0  0  0  0  0  0  0  0  0
   -0.7740   11.2290   22.7170 C   0  0  0  0  0  0  0  0  0  0  0  0
   -0.3730   10.1660   21.9050 C   0  0  0  0  0  0  0  0  0  0  0  0
    0.2720   10.3970   20.6810 C   0  0  0  0  0  0  0  0  0  0  0  0
    0.6800    9.3320   19.8560 C   0  0  0  0  0  0  0  0  0  0  0  0
    2.0780   11.0890   17.3110 H   0  0  0  0  0  0  0  0  0  0  0  0
    1.3740   12.9730   18.7250 H   0  0  0  0  0  0  0  0  0  0  0  0
    0.3010   13.8140   20.7890 H   0  0  0  0  0  0  0  0  0  0  0  0
   -1.2680   11.0170   23.6630 H   0  0  0  0  0  0  0  0  0  0  0  0
   -0.5670    9.1490   22.2410 H   0  0  0  0  0  0  0  0  0  0  0  0
    0.4900    8.3190   20.1970 H   0  0  0  0  0  0  0  0  0  0  0  0
   -0.9570   13.7030   23.2020 C   0  0  0  0  0  0  0  0  0  0  0  0
   -0.1890   14.4850   23.1330 H   0  0  0  0  0  0  0  0  0  0  0  0
   -0.9530   13.3830   24.2530 H   0  0  0  0  0  0  0  0  0  0  0  0
   -2.3140   14.3040   22.8240 C   0  0  0  0  0  0  0  0  0  0  0  0
   -2.3620   14.4710   21.7410 H   0  0  0  0  0  0  0  0  0  0  0  0
   -2.4020   15.2900   23.2980 H   0  0  0  0  0  0  0  0  0  0  0  0
   -3.4660   13.4830   23.2650 C   0  0  0  0  0  0  0  0  0  0  0  0
   -3.7420   13.2280   24.5830 N   0  0  0  0  0  0  0  0  0  0  0  0
   -4.8240   12.4630   24.5960 N   0  0  0  0  0  2  0  0  0  0  0  0
   -5.1460   12.3070   23.3050 N   0  0  0  0  0  0  0  0  0  0  0  0
   -4.3540   12.9340   22.4220 N   0  0  0  0  0  2  0  0  0  0  0  0
   -5.9450   11.7490   23.0160 H   0  0  0  0  0  0  0  0  0  0  0  0
    1.7770    8.6290   17.7620 O   0  0  0  0  0  0  0  0  0  0  0  0
    3.0740    8.0650   17.9780 C   0  0  0  0  0  0  0  0  0  0  0  0
    3.4760    8.5390   18.8820 H   0  0  0  0  0  0  0  0  0  0  0  0
    3.7670    8.3290   17.1690 H   0  0  0  0  0  0  0  0  0  0  0  0
    0.8490    2.6300   22.0760 F   0  0  0  0  0  0  0  0  0  0  0  0
    1.5240    3.0280   20.9900 C   0  0  0  0  0  0  0  0  0  0  0  0
    2.1310    2.0800   20.1810 C   0  0  0  0  0  0  0  0  0  0  0  0
    2.8300    2.5000   19.0530 C   0  0  0  0  0  0  0  0  0  0  0  0
    2.9150    3.8700   18.7480 C   0  0  0  0  0  0  0  0  0  0  0  0
    3.6090    4.3300   17.6230 C   0  0  0  0  0  0  0  0  0  0  0  0
    3.6710    5.6930   17.3600 C   0  0  0  0  0  0  0  0  0  0  0  0
    3.0390    6.5730   18.2310 C   0  0  0  0  0  0  0  0  0  0  0  0
    2.3520    6.1470   19.3240 N   0  0  0  0  0  0  0  0  0  0  0  0
    2.2940    4.8290   19.5790 C   0  0  0  0  0  0  0  0  0  0  0  0
    1.6030    4.3850   20.6940 C   0  0  0  0  0  0  0  0  0  0  0  0
    2.0560    1.0270   20.4330 H   0  0  0  0  0  0  0  0  0  0  0  0
    3.3080    1.7590   18.4160 H   0  0  0  0  0  0  0  0  0  0  0  0
    4.1050    3.6340   16.9520 H   0  0  0  0  0  0  0  0  0  0  0  0
    4.2120    6.0630   16.4930 H   0  0  0  0  0  0  0  0  0  0  0  0
    1.1170    5.1020   21.3480 H   0  0  0  0  0  0  0  0  0  0  0  0
  1 10  1  0  0  0  0
  2  1  2  0  0  0  0
  2  3  1  0  0  0  0
  3  4  2  0  0  0  0
  4  9  1  0  0  0  0
  4  5  1  0  0  0  0
  5  6  2  0  0  0  0
  6  7  1  0  0  0  0
  6 17  1  0  0  0  0
  7 14  1  0  0  0  0
  8 15  1  0  0  0  0
  8  7  2  0  0  0  0
  9  8  1  0  0  0  0
 10 16  1  0  0  0  0
 10  9  2  0  0  0  0
 11  2  1  0  0  0  0
 12  3  1  0  0  0  0
 13  5  1  0  0  0  0
 17 19  1  0  0  0  0
 18 17  1  0  0  0  0
 20 17  1  0  0  0  0
 20 23  1  0  0  0  0
 20 22  1  0  0  0  0
 21 20  1  0  0  0  0
 23 24  2  0  0  0  0
 24 25  1  0  0  0  0
 26 25  1  0  0  0  0
 27 23  1  0  0  0  0
 27 26  1  0  0  0  0
 28 26  1  0  0  0  0
 29 30  1  0  0  0  0
 29  1  1  0  0  0  0
 30 40  1  0  0  0  0
 30 31  1  0  0  0  0
 32 30  1  0  0  0  0
 34 33  1  0  0  0  0
 35 44  1  0  0  0  0
 35 34  2  0  0  0  0
 36 35  1  0  0  0  0
 37 36  2  0  0  0  0
 37 42  1  0  0  0  0
 38 37  1  0  0  0  0
 39 38  2  0  0  0  0
 39 40  1  0  0  0  0
 40 41  2  0  0  0  0
 41 42  1  0  0  0  0
 42 43  2  0  0  0  0
 43 34  1  0  0  0  0
 43 48  1  0  0  0  0
 45 36  1  0  0  0  0
 46 38  1  0  0  0  0
 47 39  1  0  0  0  0
M  END
>  <MODEL>
18

>  <REMARK>
 VINA RESULT:    -8.597      4.149      9.990
 INTER + INTRA:         -11.724
 INTER:                 -10.952
 INTRA:                  -0.772
 UNBOUND:                -0.112
  Name = 
  6 active torsions:
  status: ('A' for Active; 'I' for Inactive)
    1  A    between atoms: C_8  and  C_9
    2  A    between atoms: C_9  and  O_10
    3  A    between atoms: O_10  and  C_11
    4  A    between atoms: C_16  and  C_17
    5  A    between atoms: C_17  and  C_18
    6  A    between atoms: C_18  and  C_19
                            x       y       z     vdW  Elec       q    Type
                         _______ _______ _______ _____ _____    ______ ____

>  <TORSDO>
F 6

$$$$
=
 OpenBabel07192307433D

 48 52  0  0  0  0  0  0  0  0999 V2000
    1.4820    7.1360   20.5760 C   0  0  0  0  0  0  0  0  0  0  0  0
    1.6910    5.7770   20.8020 C   0  0  0  0  0  0  0  0  0  0  0  0
    2.4920    5.0260   19.9380 C   0  0  0  0  0  0  0  0  0  0  0  0
    3.1050    5.6280   18.8320 C   0  0  0  0  0  0  0  0  0  0  0  0
    3.9150    4.8910   17.9520 C   0  0  0  0  0  0  0  0  0  0  0  0
    4.5300    5.5010   16.8490 C   0  0  0  0  0  0  0  0  0  0  0  0
    4.3340    6.8680   16.6330 C   0  0  0  0  0  0  0  0  0  0  0  0
    3.5290    7.6110   17.4990 C   0  0  0  0  0  0  0  0  0  0  0  0
    2.9060    7.0070   18.6010 C   0  0  0  0  0  0  0  0  0  0  0  0
    2.0930    7.7480   19.4800 C   0  0  0  0  0  0  0  0  0  0  0  0
    1.2240    5.2910   21.6550 H   0  0  0  0  0  0  0  0  0  0  0  0
    2.6340    3.9670   20.1380 H   0  0  0  0  0  0  0  0  0  0  0  0
    4.0750    3.8280   18.1320 H   0  0  0  0  0  0  0  0  0  0  0  0
    4.8060    7.3670   15.7890 H   0  0  0  0  0  0  0  0  0  0  0  0
    3.3930    8.6730   17.3060 H   0  0  0  0  0  0  0  0  0  0  0  0
    1.9660    8.8080   19.2870 H   0  0  0  0  0  0  0  0  0  0  0  0
    5.4160    4.6960   15.9260 C   0  0  0  0  0  0  0  0  0  0  0  0
    4.9860    4.7320   14.9170 H   0  0  0  0  0  0  0  0  0  0  0  0
    5.3880    3.6370   16.2180 H   0  0  0  0  0  0  0  0  0  0  0  0
    6.8600    5.2040   15.8700 C   0  0  0  0  0  0  0  0  0  0  0  0
    6.9460    6.0090   15.1290 H   0  0  0  0  0  0  0  0  0  0  0  0
    7.5030    4.3870   15.5200 H   0  0  0  0  0  0  0  0  0  0  0  0
    7.3760    5.6610   17.1810 C   0  0  0  0  0  0  0  0  0  0  0  0
    7.6230    4.8090   18.2250 N   0  0  0  0  0  0  0  0  0  0  0  0
    8.0600    5.5610   19.2250 N   0  0  0  0  0  2  0  0  0  0  0  0
    8.0630    6.8090   18.7360 N   0  0  0  0  0  0  0  0  0  0  0  0
    7.6700    6.9400   17.4600 N   0  0  0  0  0  2  0  0  0  0  0  0
    8.3510    7.6030   19.3000 H   0  0  0  0  0  0  0  0  0  0  0  0
    0.6820    7.7480   21.5030 O   0  0  0  0  0  0  0  0  0  0  0  0
    1.0660    9.0400   21.9840 C   0  0  0  0  0  0  0  0  0  0  0  0
    1.9970    9.3040   21.4660 H   0  0  0  0  0  0  0  0  0  0  0  0
    1.3160    9.0110   23.0520 H   0  0  0  0  0  0  0  0  0  0  0  0
   -4.1910   13.3260   24.2780 F   0  0  0  0  0  0  0  0  0  0  0  0
   -3.4160   12.9280   23.2610 C   0  0  0  0  0  0  0  0  0  0  0  0
   -3.5780   13.5100   22.0130 C   0  0  0  0  0  0  0  0  0  0  0  0
   -2.7690   13.0920   20.9600 C   0  0  0  0  0  0  0  0  0  0  0  0
   -1.8040   12.0910   21.1690 C   0  0  0  0  0  0  0  0  0  0  0  0
   -0.9730   11.6450   20.1360 C   0  0  0  0  0  0  0  0  0  0  0  0
   -0.0340   10.6510   20.3850 C   0  0  0  0  0  0  0  0  0  0  0  0
    0.0530   10.1180   21.6660 C   0  0  0  0  0  0  0  0  0  0  0  0
   -0.7380   10.5430   22.6870 N   0  0  0  0  0  0  0  0  0  0  0  0
   -1.6470   11.5030   22.4440 C   0  0  0  0  0  0  0  0  0  0  0  0
   -2.4630   11.9380   23.4760 C   0  0  0  0  0  0  0  0  0  0  0  0
   -4.3290   14.2810   21.8700 H   0  0  0  0  0  0  0  0  0  0  0  0
   -2.8940   13.5470   19.9800 H   0  0  0  0  0  0  0  0  0  0  0  0
   -1.0530   12.0640   19.1360 H   0  0  0  0  0  0  0  0  0  0  0  0
    0.6130   10.2920   19.5900 H   0  0  0  0  0  0  0  0  0  0  0  0
   -2.3620   11.5020   24.4640 H   0  0  0  0  0  0  0  0  0  0  0  0
  1  2  1  0  0  0  0
  1 29  1  0  0  0  0
  2 11  1  0  0  0  0
  3 12  1  0  0  0  0
  3  2  2  0  0  0  0
  4  3  1  0  0  0  0
  5 13  1  0  0  0  0
  5  4  2  0  0  0  0
  6  5  1  0  0  0  0
  7  6  2  0  0  0  0
  7  8  1  0  0  0  0
  8  9  2  0  0  0  0
  9  4  1  0  0  0  0
  9 10  1  0  0  0  0
 10  1  2  0  0  0  0
 14  7  1  0  0  0  0
 15  8  1  0  0  0  0
 16 10  1  0  0  0  0
 17 19  1  0  0  0  0
 17  6  1  0  0  0  0
 18 17  1  0  0  0  0
 20 17  1  0  0  0  0
 20 23  1  0  0  0  0
 21 20  1  0  0  0  0
 22 20  1  0  0  0  0
 23 27  1  0  0  0  0
 23 24  2  0  0  0  0
 24 25  1  0  0  0  0
 26 25  1  0  0  0  0
 26 28  1  0  0  0  0
 27 26  1  0  0  0  0
 29 30  1  0  0  0  0
 30 32  1  0  0  0  0
 31 30  1  0  0  0  0
 34 43  1  0  0  0  0
 34 33  1  0  0  0  0
 35 34  2  0  0  0  0
 36 37  2  0  0  0  0
 36 35  1  0  0  0  0
 37 42  1  0  0  0  0
 38 39  2  0  0  0  0
 38 37  1  0  0  0  0
 39 40  1  0  0  0  0
 40 30  1  0  0  0  0
 40 41  2  0  0  0  0
 42 41  1  0  0  0  0
 42 43  2  0  0  0  0
 43 48  1  0  0  0  0
 44 35  1  0  0  0  0
 45 36  1  0  0  0  0
 46 38  1  0  0  0  0
 47 39  1  0  0  0  0
M  END
>  <MODEL>
19

>  <REMARK>
 VINA RESULT:    -8.582      2.929      3.973
 INTER + INTRA:         -11.704
 INTER:                 -11.143
 INTRA:                  -0.561
 UNBOUND:                -0.112
  Name = 
  6 active torsions:
  status: ('A' for Active; 'I' for Inactive)
    1  A    between atoms: C_8  and  C_9
    2  A    between atoms: C_9  and  O_10
    3  A    between atoms: O_10  and  C_11
    4  A    between atoms: C_16  and  C_17
    5  A    between atoms: C_17  and  C_18
    6  A    between atoms: C_18  and  C_19
                            x       y       z     vdW  Elec       q    Type
                         _______ _______ _______ _____ _____    ______ ____

>  <TORSDO>
F 6

$$$$
=
 OpenBabel07192307433D

 48 52  0  0  0  0  0  0  0  0999 V2000
    2.0230    4.1570   19.5510 C   0  0  0  0  0  0  0  0  0  0  0  0
    1.6650    4.5610   20.8360 C   0  0  0  0  0  0  0  0  0  0  0  0
    1.4730    5.9130   21.1310 C   0  0  0  0  0  0  0  0  0  0  0  0
    1.6310    6.8870   20.1370 C   0  0  0  0  0  0  0  0  0  0  0  0
    1.4420    8.2520   20.4130 C   0  0  0  0  0  0  0  0  0  0  0  0
    1.5970    9.2230   19.4130 C   0  0  0  0  0  0  0  0  0  0  0  0
    1.9400    8.8150   18.1200 C   0  0  0  0  0  0  0  0  0  0  0  0
    2.1330    7.4620   17.8340 C   0  0  0  0  0  0  0  0  0  0  0  0
    1.9850    6.4860   18.8300 C   0  0  0  0  0  0  0  0  0  0  0  0
    2.1780    5.1200   18.5520 C   0  0  0  0  0  0  0  0  0  0  0  0
    1.5370    3.8200   21.6210 H   0  0  0  0  0  0  0  0  0  0  0  0
    1.1970    6.1980   22.1430 H   0  0  0  0  0  0  0  0  0  0  0  0
    1.1620    8.5620   21.4190 H   0  0  0  0  0  0  0  0  0  0  0  0
    2.0580    9.5480   17.3240 H   0  0  0  0  0  0  0  0  0  0  0  0
    2.4000    7.1740   16.8190 H   0  0  0  0  0  0  0  0  0  0  0  0
    2.4380    4.8370   17.5370 H   0  0  0  0  0  0  0  0  0  0  0  0
    1.3670   10.6840   19.7230 C   0  0  0  0  0  0  0  0  0  0  0  0
    1.7100   11.2770   18.8650 H   0  0  0  0  0  0  0  0  0  0  0  0
    2.0050   10.9880   20.5630 H   0  0  0  0  0  0  0  0  0  0  0  0
   -0.0990   11.0240   20.0070 C   0  0  0  0  0  0  0  0  0  0  0  0
   -0.1600   11.8450   20.7320 H   0  0  0  0  0  0  0  0  0  0  0  0
   -0.5740   10.1540   20.4770 H   0  0  0  0  0  0  0  0  0  0  0  0
   -0.8730   11.3610   18.7890 C   0  0  0  0  0  0  0  0  0  0  0  0
   -1.7850   10.5100   18.2220 N   0  0  0  0  0  0  0  0  0  0  0  0
   -2.2670   11.1340   17.1580 N   0  0  0  0  0  2  0  0  0  0  0  0
   -1.6380   12.3170   17.1430 N   0  0  0  0  0  0  0  0  0  0  0  0
   -0.7710   12.5330   18.1440 N   0  0  0  0  0  2  0  0  0  0  0  0
   -1.8120   13.0070   16.4170 H   0  0  0  0  0  0  0  0  0  0  0  0
    2.1730    2.8050   19.4040 O   0  0  0  0  0  0  0  0  0  0  0  0
    3.4860    2.2900   19.1580 C   0  0  0  0  0  0  0  0  0  0  0  0
    3.3580    1.3730   18.5710 H   0  0  0  0  0  0  0  0  0  0  0  0
    3.9770    1.9830   20.0900 H   0  0  0  0  0  0  0  0  0  0  0  0
    8.5750    7.3270   19.0400 F   0  0  0  0  0  0  0  0  0  0  0  0
    7.7280    6.5550   18.3470 C   0  0  0  0  0  0  0  0  0  0  0  0
    7.6930    6.6550   16.9640 C   0  0  0  0  0  0  0  0  0  0  0  0
    6.8100    5.8500   16.2500 C   0  0  0  0  0  0  0  0  0  0  0  0
    5.9680    4.9520   16.9300 C   0  0  0  0  0  0  0  0  0  0  0  0
    5.0690    4.1270   16.2460 C   0  0  0  0  0  0  0  0  0  0  0  0
    4.2530    3.2560   16.9570 C   0  0  0  0  0  0  0  0  0  0  0  0
    4.3500    3.2300   18.3440 C   0  0  0  0  0  0  0  0  0  0  0  0
    5.2230    4.0150   19.0280 N   0  0  0  0  0  0  0  0  0  0  0  0
    6.0100    4.8590   18.3390 C   0  0  0  0  0  0  0  0  0  0  0  0
    6.8980    5.6700   19.0270 C   0  0  0  0  0  0  0  0  0  0  0  0
    8.3490    7.3540   16.4560 H   0  0  0  0  0  0  0  0  0  0  0  0
    6.7800    5.9260   15.1650 H   0  0  0  0  0  0  0  0  0  0  0  0
    4.9960    4.1600   15.1620 H   0  0  0  0  0  0  0  0  0  0  0  0
    3.5460    2.6150   16.4380 H   0  0  0  0  0  0  0  0  0  0  0  0
    6.9500    5.6160   20.1090 H   0  0  0  0  0  0  0  0  0  0  0  0
  1  2  1  0  0  0  0
  2  3  2  0  0  0  0
  2 11  1  0  0  0  0
  3 12  1  0  0  0  0
  4  5  1  0  0  0  0
  4  3  1  0  0  0  0
  5 13  1  0  0  0  0
  6 17  1  0  0  0  0
  6  5  2  0  0  0  0
  7  6  1  0  0  0  0
  8  7  2  0  0  0  0
  8  9  1  0  0  0  0
  9  4  2  0  0  0  0
 10  9  1  0  0  0  0
 10  1  2  0  0  0  0
 14  7  1  0  0  0  0
 15  8  1  0  0  0  0
 16 10  1  0  0  0  0
 17 20  1  0  0  0  0
 17 19  1  0  0  0  0
 18 17  1  0  0  0  0
 20 22  1  0  0  0  0
 20 21  1  0  0  0  0
 23 20  1  0  0  0  0
 24 23  2  0  0  0  0
 25 24  1  0  0  0  0
 26 25  1  0  0  0  0
 26 27  1  0  0  0  0
 27 23  1  0  0  0  0
 28 26  1  0  0  0  0
 29  1  1  0  0  0  0
 30 29  1  0  0  0  0
 30 32  1  0  0  0  0
 31 30  1  0  0  0  0
 34 43  1  0  0  0  0
 34 33  1  0  0  0  0
 35 34  2  0  0  0  0
 36 37  2  0  0  0  0
 36 35  1  0  0  0  0
 37 42  1  0  0  0  0
 38 37  1  0  0  0  0
 38 39  2  0  0  0  0
 39 40  1  0  0  0  0
 40 41  2  0  0  0  0
 40 30  1  0  0  0  0
 42 43  2  0  0  0  0
 42 41  1  0  0  0  0
 43 48  1  0  0  0  0
 44 35  1  0  0  0  0
 45 36  1  0  0  0  0
 46 38  1  0  0  0  0
 47 39  1  0  0  0  0
M  END
>  <MODEL>
20

>  <REMARK>
 VINA RESULT:    -8.571      3.532      9.287
 INTER + INTRA:         -11.690
 INTER:                 -11.612
 INTRA:                  -0.079
 UNBOUND:                -0.112
  Name = 
  6 active torsions:
  status: ('A' for Active; 'I' for Inactive)
    1  A    between atoms: C_8  and  C_9
    2  A    between atoms: C_9  and  O_10
    3  A    between atoms: O_10  and  C_11
    4  A    between atoms: C_16  and  C_17
    5  A    between atoms: C_17  and  C_18
    6  A    between atoms: C_18  and  C_19
                            x       y       z     vdW  Elec       q    Type
                         _______ _______ _______ _____ _____    ______ ____

>  <TORSDO>
F 6

$$$$
=
 OpenBabel07192307433D

 48 52  0  0  0  0  0  0  0  0999 V2000
    1.4570    7.1350   20.5810 C   0  0  0  0  0  0  0  0  0  0  0  0
    1.6380    5.7730   20.8150 C   0  0  0  0  0  0  0  0  0  0  0  0
    2.4360    5.0030   19.9650 C   0  0  0  0  0  0  0  0  0  0  0  0
    3.0740    5.5890   18.8650 C   0  0  0  0  0  0  0  0  0  0  0  0
    3.8820    4.8330   17.9990 C   0  0  0  0  0  0  0  0  0  0  0  0
    4.5240    5.4260   16.9020 C   0  0  0  0  0  0  0  0  0  0  0  0
    4.3560    6.7960   16.6770 C   0  0  0  0  0  0  0  0  0  0  0  0
    3.5530    7.5580   17.5290 C   0  0  0  0  0  0  0  0  0  0  0  0
    2.9050    6.9710   18.6250 C   0  0  0  0  0  0  0  0  0  0  0  0
    2.0940    7.7300   19.4900 C   0  0  0  0  0  0  0  0  0  0  0  0
    1.1500    5.3000   21.6640 H   0  0  0  0  0  0  0  0  0  0  0  0
    2.5550    3.9430   20.1710 H   0  0  0  0  0  0  0  0  0  0  0  0
    4.0190    3.7680   18.1860 H   0  0  0  0  0  0  0  0  0  0  0  0
    4.8490    7.2820   15.8380 H   0  0  0  0  0  0  0  0  0  0  0  0
    3.4410    8.6220   17.3300 H   0  0  0  0  0  0  0  0  0  0  0  0
    1.9900    8.7920   19.2910 H   0  0  0  0  0  0  0  0  0  0  0  0
    5.4060    4.6010   15.9940 C   0  0  0  0  0  0  0  0  0  0  0  0
    4.9740    4.6150   14.9850 H   0  0  0  0  0  0  0  0  0  0  0  0
    5.3790    3.5490   16.3090 H   0  0  0  0  0  0  0  0  0  0  0  0
    6.8500    5.1060   15.9230 C   0  0  0  0  0  0  0  0  0  0  0  0
    6.9350    5.8930   15.1630 H   0  0  0  0  0  0  0  0  0  0  0  0
    7.4920    4.2800   15.5920 H   0  0  0  0  0  0  0  0  0  0  0  0
    7.3700    5.5940   17.2230 C   0  0  0  0  0  0  0  0  0  0  0  0
    7.6100    4.7680   18.2890 N   0  0  0  0  0  0  0  0  0  0  0  0
    8.0520    5.5430   19.2690 N   0  0  0  0  0  2  0  0  0  0  0  0
    8.0640    6.7780   18.7470 N   0  0  0  0  0  0  0  0  0  0  0  0
    7.6720    6.8780   17.4670 N   0  0  0  0  0  2  0  0  0  0  0  0
    8.3580    7.5850   19.2900 H   0  0  0  0  0  0  0  0  0  0  0  0
    0.6560    7.7660   21.4940 O   0  0  0  0  0  0  0  0  0  0  0  0
    1.1850    8.8980   22.1920 C   0  0  0  0  0  0  0  0  0  0  0  0
    2.1630    9.1130   21.7460 H   0  0  0  0  0  0  0  0  0  0  0  0
    1.3810    8.6630   23.2460 H   0  0  0  0  0  0  0  0  0  0  0  0
   -0.3640   14.7850   18.4210 F   0  0  0  0  0  0  0  0  0  0  0  0
   -0.6350   14.0160   19.4830 C   0  0  0  0  0  0  0  0  0  0  0  0
   -1.6490   14.3880   20.3520 C   0  0  0  0  0  0  0  0  0  0  0  0
   -1.9250   13.5840   21.4550 C   0  0  0  0  0  0  0  0  0  0  0  0
   -1.1800   12.4120   21.6760 C   0  0  0  0  0  0  0  0  0  0  0  0
   -1.4290   11.5800   22.7720 C   0  0  0  0  0  0  0  0  0  0  0  0
   -0.6670   10.4320   22.9540 C   0  0  0  0  0  0  0  0  0  0  0  0
    0.3360   10.1420   22.0370 C   0  0  0  0  0  0  0  0  0  0  0  0
    0.5890   10.9310   20.9600 N   0  0  0  0  0  0  0  0  0  0  0  0
   -0.1480   12.0410   20.7850 C   0  0  0  0  0  0  0  0  0  0  0  0
    0.1070   12.8580   19.6950 C   0  0  0  0  0  0  0  0  0  0  0  0
   -2.2130   15.2970   20.1670 H   0  0  0  0  0  0  0  0  0  0  0  0
   -2.7200   13.8740   22.1380 H   0  0  0  0  0  0  0  0  0  0  0  0
   -2.2110   11.8190   23.4870 H   0  0  0  0  0  0  0  0  0  0  0  0
   -0.8460    9.7810   23.8050 H   0  0  0  0  0  0  0  0  0  0  0  0
    0.8940   12.5940   18.9960 H   0  0  0  0  0  0  0  0  0  0  0  0
  1  2  1  0  0  0  0
  1 29  1  0  0  0  0
  2 11  1  0  0  0  0
  3 12  1  0  0  0  0
  3  2  2  0  0  0  0
  4  3  1  0  0  0  0
  5 13  1  0  0  0  0
  5  4  2  0  0  0  0
  6  5  1  0  0  0  0
  7  6  2  0  0  0  0
  7  8  1  0  0  0  0
  8  9  2  0  0  0  0
  9  4  1  0  0  0  0
  9 10  1  0  0  0  0
 10  1  2  0  0  0  0
 14  7  1  0  0  0  0
 15  8  1  0  0  0  0
 16 10  1  0  0  0  0
 17 19  1  0  0  0  0
 17  6  1  0  0  0  0
 18 17  1  0  0  0  0
 20 17  1  0  0  0  0
 20 23  1  0  0  0  0
 21 20  1  0  0  0  0
 22 20  1  0  0  0  0
 23 27  1  0  0  0  0
 23 24  2  0  0  0  0
 24 25  1  0  0  0  0
 26 25  1  0  0  0  0
 26 28  1  0  0  0  0
 27 26  1  0  0  0  0
 29 30  1  0  0  0  0
 30 32  1  0  0  0  0
 31 30  1  0  0  0  0
 33 34  1  0  0  0  0
 34 43  2  0  0  0  0
 34 35  1  0  0  0  0
 35 36  2  0  0  0  0
 36 37  1  0  0  0  0
 36 45  1  0  0  0  0
 37 38  1  0  0  0  0
 38 39  2  0  0  0  0
 38 46  1  0  0  0  0
 39 47  1  0  0  0  0
 40 30  1  0  0  0  0
 40 39  1  0  0  0  0
 41 40  2  0  0  0  0
 42 41  1  0  0  0  0
 42 37  2  0  0  0  0
 43 42  1  0  0  0  0
 44 35  1  0  0  0  0
 48 43  1  0  0  0  0
M  END
>  <MODEL>
21

>  <REMARK>
 VINA RESULT:    -8.542      2.834      3.552
 INTER + INTRA:         -11.651
 INTER:                 -11.132
 INTRA:                  -0.519
 UNBOUND:                -0.112
  Name = 
  6 active torsions:
  status: ('A' for Active; 'I' for Inactive)
    1  A    between atoms: C_8  and  C_9
    2  A    between atoms: C_9  and  O_10
    3  A    between atoms: O_10  and  C_11
    4  A    between atoms: C_16  and  C_17
    5  A    between atoms: C_17  and  C_18
    6  A    between atoms: C_18  and  C_19
                            x       y       z     vdW  Elec       q    Type
                         _______ _______ _______ _____ _____    ______ ____

>  <TORSDO>
F 6

$$$$
=
 OpenBabel07192307433D

 48 52  0  0  0  0  0  0  0  0999 V2000
    1.8090    8.1580   19.4330 C   0  0  0  0  0  0  0  0  0  0  0  0
    2.1940    8.7040   18.2090 C   0  0  0  0  0  0  0  0  0  0  0  0
    3.1080    8.0390   17.3870 C   0  0  0  0  0  0  0  0  0  0  0  0
    3.6480    6.8070   17.7760 C   0  0  0  0  0  0  0  0  0  0  0  0
    4.5670    6.1210   16.9640 C   0  0  0  0  0  0  0  0  0  0  0  0
    5.1020    4.8850   17.3550 C   0  0  0  0  0  0  0  0  0  0  0  0
    4.7020    4.3300   18.5740 C   0  0  0  0  0  0  0  0  0  0  0  0
    3.7910    5.0020   19.3920 C   0  0  0  0  0  0  0  0  0  0  0  0
    3.2570    6.2410   19.0090 C   0  0  0  0  0  0  0  0  0  0  0  0
    2.3380    6.9270   19.8260 C   0  0  0  0  0  0  0  0  0  0  0  0
    1.7850    9.6590   17.8900 H   0  0  0  0  0  0  0  0  0  0  0  0
    3.3910    8.4920   16.4410 H   0  0  0  0  0  0  0  0  0  0  0  0
    4.8650    6.5530   16.0080 H   0  0  0  0  0  0  0  0  0  0  0  0
    5.0960    3.3680   18.8980 H   0  0  0  0  0  0  0  0  0  0  0  0
    3.4990    4.5460   20.3360 H   0  0  0  0  0  0  0  0  0  0  0  0
    2.0440    6.4650   20.7640 H   0  0  0  0  0  0  0  0  0  0  0  0
    6.0720    4.1530   16.4580 C   0  0  0  0  0  0  0  0  0  0  0  0
    5.5070    3.4270   15.8580 H   0  0  0  0  0  0  0  0  0  0  0  0
    6.7610    3.5540   17.0690 H   0  0  0  0  0  0  0  0  0  0  0  0
    6.8490    5.0770   15.5160 C   0  0  0  0  0  0  0  0  0  0  0  0
    7.8810    5.1930   15.8710 H   0  0  0  0  0  0  0  0  0  0  0  0
    6.3930    6.0750   15.5520 H   0  0  0  0  0  0  0  0  0  0  0  0
    6.8430    4.6240   14.1060 C   0  0  0  0  0  0  0  0  0  0  0  0
    5.9980    3.6530   13.6360 N   0  0  0  0  0  0  0  0  0  0  0  0
    6.2790    3.5030   12.3500 N   0  0  0  0  0  2  0  0  0  0  0  0
    7.2590    4.3860   12.1120 N   0  0  0  0  0  0  0  0  0  0  0  0
    7.6440    5.1330   13.1580 N   0  0  0  0  0  2  0  0  0  0  0  0
    7.6800    4.4820   11.1910 H   0  0  0  0  0  0  0  0  0  0  0  0
    0.9060    8.9120   20.1300 O   0  0  0  0  0  0  0  0  0  0  0  0
    0.2980   10.0270   19.4690 C   0  0  0  0  0  0  0  0  0  0  0  0
   -0.6790    9.6830   19.1090 H   0  0  0  0  0  0  0  0  0  0  0  0
    0.8620   10.3170   18.5740 H   0  0  0  0  0  0  0  0  0  0  0  0
   -3.7110   13.0060   24.6000 F   0  0  0  0  0  0  0  0  0  0  0  0
   -2.6490   13.1050   23.7910 C   0  0  0  0  0  0  0  0  0  0  0  0
   -1.8570   14.2420   23.8450 C   0  0  0  0  0  0  0  0  0  0  0  0
   -0.7540   14.3390   23.0010 C   0  0  0  0  0  0  0  0  0  0  0  0
   -0.4540   13.2920   22.1110 C   0  0  0  0  0  0  0  0  0  0  0  0
    0.6460   13.3540   21.2490 C   0  0  0  0  0  0  0  0  0  0  0  0
    0.9030   12.2990   20.3820 C   0  0  0  0  0  0  0  0  0  0  0  0
    0.0500   11.2010   20.3910 C   0  0  0  0  0  0  0  0  0  0  0  0
   -1.0190   11.1170   21.2260 N   0  0  0  0  0  0  0  0  0  0  0  0
   -1.2680   12.1380   22.0630 C   0  0  0  0  0  0  0  0  0  0  0  0
   -2.3590   12.0660   22.9130 C   0  0  0  0  0  0  0  0  0  0  0  0
   -2.1030   15.0400   24.5380 H   0  0  0  0  0  0  0  0  0  0  0  0
   -0.1300   15.2290   23.0410 H   0  0  0  0  0  0  0  0  0  0  0  0
    1.3030   14.2200   21.2450 H   0  0  0  0  0  0  0  0  0  0  0  0
    1.7510   12.3370   19.7040 H   0  0  0  0  0  0  0  0  0  0  0  0
   -2.9990   11.1890   22.8960 H   0  0  0  0  0  0  0  0  0  0  0  0
  1 10  1  0  0  0  0
  1 29  1  0  0  0  0
  2  1  2  0  0  0  0
  3  4  2  0  0  0  0
  3  2  1  0  0  0  0
  4  9  1  0  0  0  0
  5  6  2  0  0  0  0
  5  4  1  0  0  0  0
  6  7  1  0  0  0  0
  7 14  1  0  0  0  0
  7  8  2  0  0  0  0
  8 15  1  0  0  0  0
  9  8  1  0  0  0  0
  9 10  2  0  0  0  0
 10 16  1  0  0  0  0
 11  2  1  0  0  0  0
 12  3  1  0  0  0  0
 13  5  1  0  0  0  0
 17 19  1  0  0  0  0
 17  6  1  0  0  0  0
 18 17  1  0  0  0  0
 20 22  1  0  0  0  0
 20 21  1  0  0  0  0
 20 17  1  0  0  0  0
 23 20  1  0  0  0  0
 24 23  2  0  0  0  0
 25 24  1  0  0  0  0
 26 25  1  0  0  0  0
 26 27  1  0  0  0  0
 27 23  1  0  0  0  0
 28 26  1  0  0  0  0
 30 29  1  0  0  0  0
 30 40  1  0  0  0  0
 31 30  1  0  0  0  0
 32 30  1  0  0  0  0
 34 35  1  0  0  0  0
 34 33  1  0  0  0  0
 35 44  1  0  0  0  0
 36 45  1  0  0  0  0
 36 35  2  0  0  0  0
 37 36  1  0  0  0  0
 38 37  2  0  0  0  0
 39 40  2  0  0  0  0
 39 38  1  0  0  0  0
 40 41  1  0  0  0  0
 41 42  2  0  0  0  0
 42 37  1  0  0  0  0
 42 43  1  0  0  0  0
 43 34  2  0  0  0  0
 46 38  1  0  0  0  0
 47 39  1  0  0  0  0
 48 43  1  0  0  0  0
M  END
>  <MODEL>
22

>  <REMARK>
 VINA RESULT:    -8.461      3.355      4.266
 INTER + INTRA:         -11.541
 INTER:                 -10.880
 INTRA:                  -0.660
 UNBOUND:                -0.112
  Name = 
  6 active torsions:
  status: ('A' for Active; 'I' for Inactive)
    1  A    between atoms: C_8  and  C_9
    2  A    between atoms: C_9  and  O_10
    3  A    between atoms: O_10  and  C_11
    4  A    between atoms: C_16  and  C_17
    5  A    between atoms: C_17  and  C_18
    6  A    between atoms: C_18  and  C_19
                            x       y       z     vdW  Elec       q    Type
                         _______ _______ _______ _____ _____    ______ ____

>  <TORSDO>
F 6

$$$$
=
 OpenBabel07192307433D

 48 52  0  0  0  0  0  0  0  0999 V2000
    0.5350    9.7060   18.2490 C   0  0  0  0  0  0  0  0  0  0  0  0
    0.8620   10.4780   19.3630 C   0  0  0  0  0  0  0  0  0  0  0  0
   -0.0900   11.3070   19.9600 C   0  0  0  0  0  0  0  0  0  0  0  0
   -1.3950   11.3730   19.4540 C   0  0  0  0  0  0  0  0  0  0  0  0
   -2.3680   12.2000   20.0400 C   0  0  0  0  0  0  0  0  0  0  0  0
   -3.6730   12.2580   19.5320 C   0  0  0  0  0  0  0  0  0  0  0  0
   -4.0050   11.4710   18.4260 C   0  0  0  0  0  0  0  0  0  0  0  0
   -3.0470   10.6470   17.8310 C   0  0  0  0  0  0  0  0  0  0  0  0
   -1.7380   10.5880   18.3310 C   0  0  0  0  0  0  0  0  0  0  0  0
   -0.7640    9.7600   17.7400 C   0  0  0  0  0  0  0  0  0  0  0  0
    1.8690   10.4400   19.7710 H   0  0  0  0  0  0  0  0  0  0  0  0
    0.1950   11.9000   20.8250 H   0  0  0  0  0  0  0  0  0  0  0  0
   -2.1060   12.8020   20.9110 H   0  0  0  0  0  0  0  0  0  0  0  0
   -5.0140   11.4910   18.0160 H   0  0  0  0  0  0  0  0  0  0  0  0
   -3.3340   10.0450   16.9710 H   0  0  0  0  0  0  0  0  0  0  0  0
   -1.0570    9.1570   16.8860 H   0  0  0  0  0  0  0  0  0  0  0  0
   -4.7110   13.1360   20.1900 C   0  0  0  0  0  0  0  0  0  0  0  0
   -5.4390   12.4900   20.6980 H   0  0  0  0  0  0  0  0  0  0  0  0
   -5.2840   13.6720   19.4210 H   0  0  0  0  0  0  0  0  0  0  0  0
   -4.1240   14.1180   21.2080 C   0  0  0  0  0  0  0  0  0  0  0  0
   -4.4790   15.1350   20.9980 H   0  0  0  0  0  0  0  0  0  0  0  0
   -3.0330   14.1370   21.0850 H   0  0  0  0  0  0  0  0  0  0  0  0
   -4.4170   13.7560   22.6150 C   0  0  0  0  0  0  0  0  0  0  0  0
   -3.9460   12.6140   23.2060 N   0  0  0  0  0  0  0  0  0  0  0  0
   -4.4110   12.6170   24.4470 N   0  0  0  0  0  2  0  0  0  0  0  0
   -5.1200   13.7500   24.5410 N   0  0  0  0  0  0  0  0  0  0  0  0
   -5.1470   14.5190   23.4420 N   0  0  0  0  0  2  0  0  0  0  0  0
   -5.6030   14.0090   25.3970 H   0  0  0  0  0  0  0  0  0  0  0  0
    1.5610    8.9380   17.7710 O   0  0  0  0  0  0  0  0  0  0  0  0
    2.3420    8.1900   18.7090 C   0  0  0  0  0  0  0  0  0  0  0  0
    1.6610    7.8830   19.5110 H   0  0  0  0  0  0  0  0  0  0  0  0
    3.1030    8.8190   19.1880 H   0  0  0  0  0  0  0  0  0  0  0  0
    7.4310    5.1690   14.6760 F   0  0  0  0  0  0  0  0  0  0  0  0
    6.3420    5.0050   15.4380 C   0  0  0  0  0  0  0  0  0  0  0  0
    5.8380    3.7280   15.6390 C   0  0  0  0  0  0  0  0  0  0  0  0
    4.7060    3.5640   16.4320 C   0  0  0  0  0  0  0  0  0  0  0  0
    4.0890    4.6830   17.0170 C   0  0  0  0  0  0  0  0  0  0  0  0
    2.9500    4.5570   17.8210 C   0  0  0  0  0  0  0  0  0  0  0  0
    2.3690    5.6900   18.3780 C   0  0  0  0  0  0  0  0  0  0  0  0
    2.9380    6.9310   18.1160 C   0  0  0  0  0  0  0  0  0  0  0  0
    4.0490    7.0760   17.3460 N   0  0  0  0  0  0  0  0  0  0  0  0
    4.6090    5.9800   16.8070 C   0  0  0  0  0  0  0  0  0  0  0  0
    5.7370    6.1170   16.0140 C   0  0  0  0  0  0  0  0  0  0  0  0
    6.3280    2.8760   15.1780 H   0  0  0  0  0  0  0  0  0  0  0  0
    4.3090    2.5640   16.5910 H   0  0  0  0  0  0  0  0  0  0  0  0
    2.5100    3.5820   18.0140 H   0  0  0  0  0  0  0  0  0  0  0  0
    1.4820    5.6060   18.9980 H   0  0  0  0  0  0  0  0  0  0  0  0
    6.1560    7.1020   15.8380 H   0  0  0  0  0  0  0  0  0  0  0  0
  1  2  1  0  0  0  0
  2 11  1  0  0  0  0
  2  3  2  0  0  0  0
  3 12  1  0  0  0  0
  4  3  1  0  0  0  0
  4  5  1  0  0  0  0
  5 13  1  0  0  0  0
  6  5  2  0  0  0  0
  6 17  1  0  0  0  0
  7  6  1  0  0  0  0
  8  9  1  0  0  0  0
  8  7  2  0  0  0  0
  9  4  2  0  0  0  0
 10  1  2  0  0  0  0
 10  9  1  0  0  0  0
 14  7  1  0  0  0  0
 15  8  1  0  0  0  0
 16 10  1  0  0  0  0
 17 18  1  0  0  0  0
 17 20  1  0  0  0  0
 19 17  1  0  0  0  0
 20 23  1  0  0  0  0
 21 20  1  0  0  0  0
 22 20  1  0  0  0  0
 23 24  2  0  0  0  0
 23 27  1  0  0  0  0
 24 25  1  0  0  0  0
 25 26  1  0  0  0  0
 26 28  1  0  0  0  0
 27 26  1  0  0  0  0
 29  1  1  0  0  0  0
 29 30  1  0  0  0  0
 30 32  1  0  0  0  0
 30 31  1  0  0  0  0
 33 34  1  0  0  0  0
 34 35  2  0  0  0  0
 34 43  1  0  0  0  0
 35 36  1  0  0  0  0
 36 45  1  0  0  0  0
 36 37  2  0  0  0  0
 37 38  1  0  0  0  0
 38 46  1  0  0  0  0
 38 39  2  0  0  0  0
 39 47  1  0  0  0  0
 40 39  1  0  0  0  0
 40 30  1  0  0  0  0
 41 40  2  0  0  0  0
 42 37  1  0  0  0  0
 42 41  1  0  0  0  0
 43 42  2  0  0  0  0
 44 35  1  0  0  0  0
 48 43  1  0  0  0  0
M  END
>  <MODEL>
23

>  <REMARK>
 VINA RESULT:    -8.459      3.805     10.508
 INTER + INTRA:         -11.538
 INTER:                 -10.930
 INTRA:                  -0.608
 UNBOUND:                -0.112
  Name = 
  6 active torsions:
  status: ('A' for Active; 'I' for Inactive)
    1  A    between atoms: C_8  and  C_9
    2  A    between atoms: C_9  and  O_10
    3  A    between atoms: O_10  and  C_11
    4  A    between atoms: C_16  and  C_17
    5  A    between atoms: C_17  and  C_18
    6  A    between atoms: C_18  and  C_19
                            x       y       z     vdW  Elec       q    Type
                         _______ _______ _______ _____ _____    ______ ____

>  <TORSDO>
F 6

$$$$
=
 OpenBabel07192307433D

 48 52  0  0  0  0  0  0  0  0999 V2000
    1.5690    8.7820   19.3760 C   0  0  0  0  0  0  0  0  0  0  0  0
    1.2830    9.9740   18.7100 C   0  0  0  0  0  0  0  0  0  0  0  0
    0.5130   10.9660   19.3220 C   0  0  0  0  0  0  0  0  0  0  0  0
    0.0200   10.7840   20.6210 C   0  0  0  0  0  0  0  0  0  0  0  0
   -0.7540   11.7700   21.2550 C   0  0  0  0  0  0  0  0  0  0  0  0
   -1.2420   11.5850   22.5570 C   0  0  0  0  0  0  0  0  0  0  0  0
   -0.9410   10.3970   23.2300 C   0  0  0  0  0  0  0  0  0  0  0  0
   -0.1740    9.4080   22.6110 C   0  0  0  0  0  0  0  0  0  0  0  0
    0.3120    9.5850   21.3070 C   0  0  0  0  0  0  0  0  0  0  0  0
    1.0860    8.5940   20.6730 C   0  0  0  0  0  0  0  0  0  0  0  0
    1.6570   10.1330   17.7020 H   0  0  0  0  0  0  0  0  0  0  0  0
    0.3040   11.8830   18.7770 H   0  0  0  0  0  0  0  0  0  0  0  0
   -0.9750   12.6990   20.7290 H   0  0  0  0  0  0  0  0  0  0  0  0
   -1.3000   10.2310   24.2440 H   0  0  0  0  0  0  0  0  0  0  0  0
    0.0450    8.4940   23.1590 H   0  0  0  0  0  0  0  0  0  0  0  0
    1.3070    7.6860   21.2260 H   0  0  0  0  0  0  0  0  0  0  0  0
   -2.0540   12.6660   23.2300 C   0  0  0  0  0  0  0  0  0  0  0  0
   -1.7500   13.6360   22.8160 H   0  0  0  0  0  0  0  0  0  0  0  0
   -1.7980   12.7100   24.2970 H   0  0  0  0  0  0  0  0  0  0  0  0
   -3.5650   12.4990   23.0440 C   0  0  0  0  0  0  0  0  0  0  0  0
   -4.0920   12.8100   23.9540 H   0  0  0  0  0  0  0  0  0  0  0  0
   -3.7830   11.4320   22.9050 H   0  0  0  0  0  0  0  0  0  0  0  0
   -4.1000   13.2290   21.8700 C   0  0  0  0  0  0  0  0  0  0  0  0
   -4.5130   14.5340   21.9270 N   0  0  0  0  0  0  0  0  0  0  0  0
   -4.9330   14.8450   20.7090 N   0  0  0  0  0  2  0  0  0  0  0  0
   -4.7450   13.7300   19.9890 N   0  0  0  0  0  0  0  0  0  0  0  0
   -4.2080   12.6910   20.6460 N   0  0  0  0  0  2  0  0  0  0  0  0
   -4.9920   13.6810   19.0050 H   0  0  0  0  0  0  0  0  0  0  0  0
    2.3350    7.9040   18.6610 O   0  0  0  0  0  0  0  0  0  0  0  0
    2.6780    6.6530   19.2670 C   0  0  0  0  0  0  0  0  0  0  0  0
    1.7350    6.1860   19.5770 H   0  0  0  0  0  0  0  0  0  0  0  0
    3.2560    6.7990   20.1890 H   0  0  0  0  0  0  0  0  0  0  0  0
    7.6890    5.5850   14.2650 F   0  0  0  0  0  0  0  0  0  0  0  0
    6.7060    5.0680   15.0130 C   0  0  0  0  0  0  0  0  0  0  0  0
    6.3810    3.7260   14.8770 C   0  0  0  0  0  0  0  0  0  0  0  0
    5.3580    3.1950   15.6570 C   0  0  0  0  0  0  0  0  0  0  0  0
    4.6670    4.0160   16.5670 C   0  0  0  0  0  0  0  0  0  0  0  0
    3.6340    3.5170   17.3670 C   0  0  0  0  0  0  0  0  0  0  0  0
    2.9760    4.3640   18.2510 C   0  0  0  0  0  0  0  0  0  0  0  0
    3.3620    5.6980   18.3130 C   0  0  0  0  0  0  0  0  0  0  0  0
    4.3690    6.2010   17.5520 N   0  0  0  0  0  0  0  0  0  0  0  0
    5.0050    5.3810   16.6970 C   0  0  0  0  0  0  0  0  0  0  0  0
    6.0270    5.8860   15.9100 C   0  0  0  0  0  0  0  0  0  0  0  0
    6.9240    3.1080   14.1700 H   0  0  0  0  0  0  0  0  0  0  0  0
    5.1010    2.1430   15.5530 H   0  0  0  0  0  0  0  0  0  0  0  0
    3.3350    2.4740   17.3050 H   0  0  0  0  0  0  0  0  0  0  0  0
    2.1680    3.9910   18.8730 H   0  0  0  0  0  0  0  0  0  0  0  0
    6.3050    6.9310   15.9920 H   0  0  0  0  0  0  0  0  0  0  0  0
  1 10  1  0  0  0  0
  2  3  1  0  0  0  0
  2  1  2  0  0  0  0
  3  4  2  0  0  0  0
  4  5  1  0  0  0  0
  4  9  1  0  0  0  0
  5  6  2  0  0  0  0
  6 17  1  0  0  0  0
  6  7  1  0  0  0  0
  7 14  1  0  0  0  0
  8 15  1  0  0  0  0
  8  7  2  0  0  0  0
  9  8  1  0  0  0  0
 10 16  1  0  0  0  0
 10  9  2  0  0  0  0
 11  2  1  0  0  0  0
 12  3  1  0  0  0  0
 13  5  1  0  0  0  0
 17 19  1  0  0  0  0
 18 17  1  0  0  0  0
 20 17  1  0  0  0  0
 20 21  1  0  0  0  0
 22 20  1  0  0  0  0
 23 24  2  0  0  0  0
 23 20  1  0  0  0  0
 25 24  1  0  0  0  0
 26 27  1  0  0  0  0
 26 25  1  0  0  0  0
 27 23  1  0  0  0  0
 28 26  1  0  0  0  0
 29 30  1  0  0  0  0
 29  1  1  0  0  0  0
 30 31  1  0  0  0  0
 30 32  1  0  0  0  0
 33 34  1  0  0  0  0
 34 43  1  0  0  0  0
 35 34  2  0  0  0  0
 35 36  1  0  0  0  0
 36 37  2  0  0  0  0
 37 42  1  0  0  0  0
 37 38  1  0  0  0  0
 38 39  2  0  0  0  0
 39 40  1  0  0  0  0
 39 47  1  0  0  0  0
 40 30  1  0  0  0  0
 41 40  2  0  0  0  0
 42 41  1  0  0  0  0
 43 48  1  0  0  0  0
 43 42  2  0  0  0  0
 44 35  1  0  0  0  0
 45 36  1  0  0  0  0
 46 38  1  0  0  0  0
M  END
>  <MODEL>
24

>  <REMARK>
 VINA RESULT:    -8.438      3.590     10.237
 INTER + INTRA:         -11.510
 INTER:                 -10.897
 INTRA:                  -0.613
 UNBOUND:                -0.112
  Name = 
  6 active torsions:
  status: ('A' for Active; 'I' for Inactive)
    1  A    between atoms: C_8  and  C_9
    2  A    between atoms: C_9  and  O_10
    3  A    between atoms: O_10  and  C_11
    4  A    between atoms: C_16  and  C_17
    5  A    between atoms: C_17  and  C_18
    6  A    between atoms: C_18  and  C_19
                            x       y       z     vdW  Elec       q    Type
                         _______ _______ _______ _____ _____    ______ ____

>  <TORSDO>
F 6

$$$$
=
 OpenBabel07192307433D

 48 52  0  0  0  0  0  0  0  0999 V2000
    1.6020    7.5890   20.5410 C   0  0  0  0  0  0  0  0  0  0  0  0
    1.5930    8.4200   19.4220 C   0  0  0  0  0  0  0  0  0  0  0  0
    0.9420    9.6560   19.4560 C   0  0  0  0  0  0  0  0  0  0  0  0
    0.2920   10.0850   20.6200 C   0  0  0  0  0  0  0  0  0  0  0  0
   -0.3670   11.3250   20.6760 C   0  0  0  0  0  0  0  0  0  0  0  0
   -1.0120   11.7520   21.8460 C   0  0  0  0  0  0  0  0  0  0  0  0
   -0.9880   10.9260   22.9730 C   0  0  0  0  0  0  0  0  0  0  0  0
   -0.3380    9.6910   22.9300 C   0  0  0  0  0  0  0  0  0  0  0  0
    0.3040    9.2550   21.7620 C   0  0  0  0  0  0  0  0  0  0  0  0
    0.9620    8.0110   21.7080 C   0  0  0  0  0  0  0  0  0  0  0  0
    2.0920    8.1040   18.5090 H   0  0  0  0  0  0  0  0  0  0  0  0
    0.9490   10.2800   18.5660 H   0  0  0  0  0  0  0  0  0  0  0  0
   -0.3720   11.9700   19.7970 H   0  0  0  0  0  0  0  0  0  0  0  0
   -1.4740   11.2380   23.8960 H   0  0  0  0  0  0  0  0  0  0  0  0
   -0.3360    9.0690   23.8230 H   0  0  0  0  0  0  0  0  0  0  0  0
    0.9670    7.3970   22.6030 H   0  0  0  0  0  0  0  0  0  0  0  0
   -1.6970   13.0980   21.8930 C   0  0  0  0  0  0  0  0  0  0  0  0
   -2.6850   13.0000   21.4260 H   0  0  0  0  0  0  0  0  0  0  0  0
   -1.1480   13.8140   21.2670 H   0  0  0  0  0  0  0  0  0  0  0  0
   -1.8710   13.6450   23.3130 C   0  0  0  0  0  0  0  0  0  0  0  0
   -1.5030   14.6770   23.3660 H   0  0  0  0  0  0  0  0  0  0  0  0
   -1.2440   13.0530   23.9930 H   0  0  0  0  0  0  0  0  0  0  0  0
   -3.2670   13.5750   23.8050 C   0  0  0  0  0  0  0  0  0  0  0  0
   -3.9360   12.3940   23.9930 N   0  0  0  0  0  0  0  0  0  0  0  0
   -5.1470   12.7160   24.4240 N   0  0  0  0  0  2  0  0  0  0  0  0
   -5.1430   14.0550   24.4830 N   0  0  0  0  0  0  0  0  0  0  0  0
   -3.9950   14.6540   24.1310 N   0  0  0  0  0  2  0  0  0  0  0  0
   -5.9610   14.5800   24.7790 H   0  0  0  0  0  0  0  0  0  0  0  0
    2.2800    6.4140   20.3690 O   0  0  0  0  0  0  0  0  0  0  0  0
    2.2580    5.8010   19.0750 C   0  0  0  0  0  0  0  0  0  0  0  0
    1.8000    6.5280   18.3920 H   0  0  0  0  0  0  0  0  0  0  0  0
    1.6020    4.9220   19.0590 H   0  0  0  0  0  0  0  0  0  0  0  0
    6.4080    4.2410   13.4520 F   0  0  0  0  0  0  0  0  0  0  0  0
    6.3220    4.4660   14.7690 C   0  0  0  0  0  0  0  0  0  0  0  0
    7.4690    4.4060   15.5460 C   0  0  0  0  0  0  0  0  0  0  0  0
    7.3730    4.6400   16.9150 C   0  0  0  0  0  0  0  0  0  0  0  0
    6.1250    4.9330   17.4930 C   0  0  0  0  0  0  0  0  0  0  0  0
    5.9890    5.1750   18.8640 C   0  0  0  0  0  0  0  0  0  0  0  0
    4.7360    5.4580   19.3950 C   0  0  0  0  0  0  0  0  0  0  0  0
    3.6400    5.4890   18.5410 C   0  0  0  0  0  0  0  0  0  0  0  0
    3.7500    5.2670   17.2050 N   0  0  0  0  0  0  0  0  0  0  0  0
    4.9620    4.9920   16.6930 C   0  0  0  0  0  0  0  0  0  0  0  0
    5.0840    4.7550   15.3340 C   0  0  0  0  0  0  0  0  0  0  0  0
    8.4240    4.1770   15.0830 H   0  0  0  0  0  0  0  0  0  0  0  0
    8.2710    4.5940   17.5270 H   0  0  0  0  0  0  0  0  0  0  0  0
    6.8520    5.1410   19.5240 H   0  0  0  0  0  0  0  0  0  0  0  0
    4.6170    5.6410   20.4580 H   0  0  0  0  0  0  0  0  0  0  0  0
    4.2060    4.7950   14.6980 H   0  0  0  0  0  0  0  0  0  0  0  0
  1 10  1  0  0  0  0
  2  3  1  0  0  0  0
  2  1  2  0  0  0  0
  3  4  2  0  0  0  0
  4  5  1  0  0  0  0
  4  9  1  0  0  0  0
  5  6  2  0  0  0  0
  6 17  1  0  0  0  0
  6  7  1  0  0  0  0
  7 14  1  0  0  0  0
  8  7  2  0  0  0  0
  8 15  1  0  0  0  0
  9  8  1  0  0  0  0
 10  9  2  0  0  0  0
 10 16  1  0  0  0  0
 11  2  1  0  0  0  0
 12  3  1  0  0  0  0
 13  5  1  0  0  0  0
 17 20  1  0  0  0  0
 18 17  1  0  0  0  0
 19 17  1  0  0  0  0
 20 21  1  0  0  0  0
 20 23  1  0  0  0  0
 20 22  1  0  0  0  0
 23 24  2  0  0  0  0
 23 27  1  0  0  0  0
 24 25  1  0  0  0  0
 25 26  1  0  0  0  0
 26 28  1  0  0  0  0
 27 26  1  0  0  0  0
 29  1  1  0  0  0  0
 30 29  1  0  0  0  0
 31 30  1  0  0  0  0
 32 30  1  0  0  0  0
 33 34  1  0  0  0  0
 34 43  2  0  0  0  0
 34 35  1  0  0  0  0
 35 36  2  0  0  0  0
 36 37  1  0  0  0  0
 36 45  1  0  0  0  0
 37 38  1  0  0  0  0
 38 39  2  0  0  0  0
 38 46  1  0  0  0  0
 39 47  1  0  0  0  0
 40 30  1  0  0  0  0
 40 39  1  0  0  0  0
 41 40  2  0  0  0  0
 42 41  1  0  0  0  0
 42 37  2  0  0  0  0
 43 42  1  0  0  0  0
 44 35  1  0  0  0  0
 48 43  1  0  0  0  0
M  END
>  <MODEL>
25

>  <REMARK>
 VINA RESULT:    -8.432      3.988     10.506
 INTER + INTRA:         -11.501
 INTER:                 -10.906
 INTRA:                  -0.595
 UNBOUND:                -0.112
  Name = 
  6 active torsions:
  status: ('A' for Active; 'I' for Inactive)
    1  A    between atoms: C_8  and  C_9
    2  A    between atoms: C_9  and  O_10
    3  A    between atoms: O_10  and  C_11
    4  A    between atoms: C_16  and  C_17
    5  A    between atoms: C_17  and  C_18
    6  A    between atoms: C_18  and  C_19
                            x       y       z     vdW  Elec       q    Type
                         _______ _______ _______ _____ _____    ______ ____

>  <TORSDO>
F 6

$$$$
=
 OpenBabel07192307433D

 48 52  0  0  0  0  0  0  0  0999 V2000
    0.4180    9.8210   18.0380 C   0  0  0  0  0  0  0  0  0  0  0  0
   -0.8120    9.6550   17.4040 C   0  0  0  0  0  0  0  0  0  0  0  0
   -1.9380   10.3630   17.8320 C   0  0  0  0  0  0  0  0  0  0  0  0
   -1.8480   11.2600   18.9050 C   0  0  0  0  0  0  0  0  0  0  0  0
   -2.9670   11.9830   19.3500 C   0  0  0  0  0  0  0  0  0  0  0  0
   -2.8700   12.8840   20.4200 C   0  0  0  0  0  0  0  0  0  0  0  0
   -1.6330   13.0640   21.0450 C   0  0  0  0  0  0  0  0  0  0  0  0
   -0.5130   12.3490   20.6140 C   0  0  0  0  0  0  0  0  0  0  0  0
   -0.6040   11.4430   19.5470 C   0  0  0  0  0  0  0  0  0  0  0  0
    0.5190   10.7180   19.1040 C   0  0  0  0  0  0  0  0  0  0  0  0
   -0.9010    8.9630   16.5700 H   0  0  0  0  0  0  0  0  0  0  0  0
   -2.8840   10.2090   17.3200 H   0  0  0  0  0  0  0  0  0  0  0  0
   -3.9260   11.8480   18.8510 H   0  0  0  0  0  0  0  0  0  0  0  0
   -1.5290   13.7620   21.8730 H   0  0  0  0  0  0  0  0  0  0  0  0
    0.4370   12.5090   21.1190 H   0  0  0  0  0  0  0  0  0  0  0  0
    1.4660   10.8850   19.6070 H   0  0  0  0  0  0  0  0  0  0  0  0
   -4.0800   13.6690   20.8710 C   0  0  0  0  0  0  0  0  0  0  0  0
   -4.7380   13.8160   20.0050 H   0  0  0  0  0  0  0  0  0  0  0  0
   -3.7730   14.6770   21.1790 H   0  0  0  0  0  0  0  0  0  0  0  0
   -4.8740   12.9810   21.9860 C   0  0  0  0  0  0  0  0  0  0  0  0
   -4.8490   11.8930   21.8470 H   0  0  0  0  0  0  0  0  0  0  0  0
   -5.9250   13.2840   21.9030 H   0  0  0  0  0  0  0  0  0  0  0  0
   -4.4050   13.3320   23.3470 C   0  0  0  0  0  0  0  0  0  0  0  0
   -3.7440   14.4980   23.6320 N   0  0  0  0  0  0  0  0  0  0  0  0
   -3.4740   14.4660   24.9290 N   0  0  0  0  0  2  0  0  0  0  0  0
   -3.9870   13.3030   25.3550 N   0  0  0  0  0  0  0  0  0  0  0  0
   -4.6020   12.5570   24.4240 N   0  0  0  0  0  2  0  0  0  0  0  0
   -3.9170   13.0110   26.3250 H   0  0  0  0  0  0  0  0  0  0  0  0
    1.4330    9.0700   17.5130 O   0  0  0  0  0  0  0  0  0  0  0  0
    2.4760    8.6310   18.3890 C   0  0  0  0  0  0  0  0  0  0  0  0
    2.4960    9.3330   19.2310 H   0  0  0  0  0  0  0  0  0  0  0  0
    3.4610    8.7100   17.9110 H   0  0  0  0  0  0  0  0  0  0  0  0
    2.3560    1.5450   17.3600 F   0  0  0  0  0  0  0  0  0  0  0  0
    2.1800    2.5710   18.2030 C   0  0  0  0  0  0  0  0  0  0  0  0
    1.7980    2.3190   19.5120 C   0  0  0  0  0  0  0  0  0  0  0  0
    1.6170    3.3900   20.3820 C   0  0  0  0  0  0  0  0  0  0  0  0
    1.8210    4.7060   19.9310 C   0  0  0  0  0  0  0  0  0  0  0  0
    1.6490    5.8070   20.7770 C   0  0  0  0  0  0  0  0  0  0  0  0
    1.8580    7.0920   20.2890 C   0  0  0  0  0  0  0  0  0  0  0  0
    2.2310    7.2510   18.9600 C   0  0  0  0  0  0  0  0  0  0  0  0
    2.4120    6.1950   18.1230 N   0  0  0  0  0  0  0  0  0  0  0  0
    2.2090    4.9530   18.5950 C   0  0  0  0  0  0  0  0  0  0  0  0
    2.3840    3.8700   17.7490 C   0  0  0  0  0  0  0  0  0  0  0  0
    1.6450    1.2970   19.8420 H   0  0  0  0  0  0  0  0  0  0  0  0
    1.3180    3.1960   21.4100 H   0  0  0  0  0  0  0  0  0  0  0  0
    1.3510    5.6730   21.8130 H   0  0  0  0  0  0  0  0  0  0  0  0
    1.7220    7.9550   20.9340 H   0  0  0  0  0  0  0  0  0  0  0  0
    2.6820    4.0340   16.7190 H   0  0  0  0  0  0  0  0  0  0  0  0
  1 10  1  0  0  0  0
  2  3  1  0  0  0  0
  2  1  2  0  0  0  0
  3  4  2  0  0  0  0
  4  5  1  0  0  0  0
  4  9  1  0  0  0  0
  5  6  2  0  0  0  0
  6 17  1  0  0  0  0
  6  7  1  0  0  0  0
  7 14  1  0  0  0  0
  8  7  2  0  0  0  0
  8 15  1  0  0  0  0
  9  8  1  0  0  0  0
 10  9  2  0  0  0  0
 10 16  1  0  0  0  0
 11  2  1  0  0  0  0
 12  3  1  0  0  0  0
 13  5  1  0  0  0  0
 17 19  1  0  0  0  0
 17 20  1  0  0  0  0
 18 17  1  0  0  0  0
 20 23  1  0  0  0  0
 21 20  1  0  0  0  0
 22 20  1  0  0  0  0
 23 24  2  0  0  0  0
 23 27  1  0  0  0  0
 24 25  1  0  0  0  0
 25 26  1  0  0  0  0
 26 28  1  0  0  0  0
 27 26  1  0  0  0  0
 29  1  1  0  0  0  0
 29 30  1  0  0  0  0
 30 40  1  0  0  0  0
 30 31  1  0  0  0  0
 32 30  1  0  0  0  0
 33 34  1  0  0  0  0
 34 35  1  0  0  0  0
 35 44  1  0  0  0  0
 35 36  2  0  0  0  0
 36 45  1  0  0  0  0
 37 36  1  0  0  0  0
 37 38  1  0  0  0  0
 38 46  1  0  0  0  0
 39 38  2  0  0  0  0
 39 47  1  0  0  0  0
 40 39  1  0  0  0  0
 41 42  1  0  0  0  0
 41 40  2  0  0  0  0
 42 37  2  0  0  0  0
 43 34  2  0  0  0  0
 43 42  1  0  0  0  0
 48 43  1  0  0  0  0
M  END
>  <MODEL>
26

>  <REMARK>
 VINA RESULT:    -8.417      3.818     10.057
 INTER + INTRA:         -11.482
 INTER:                 -10.667
 INTRA:                  -0.815
 UNBOUND:                -0.112
  Name = 
  6 active torsions:
  status: ('A' for Active; 'I' for Inactive)
    1  A    between atoms: C_8  and  C_9
    2  A    between atoms: C_9  and  O_10
    3  A    between atoms: O_10  and  C_11
    4  A    between atoms: C_16  and  C_17
    5  A    between atoms: C_17  and  C_18
    6  A    between atoms: C_18  and  C_19
                            x       y       z     vdW  Elec       q    Type
                         _______ _______ _______ _____ _____    ______ ____

>  <TORSDO>
F 6

$$$$
=
 OpenBabel07192307433D

 48 52  0  0  0  0  0  0  0  0999 V2000
    1.2520    8.3240   21.0210 C   0  0  0  0  0  0  0  0  0  0  0  0
    1.1250    8.9540   19.7840 C   0  0  0  0  0  0  0  0  0  0  0  0
    0.3040   10.0740   19.6350 C   0  0  0  0  0  0  0  0  0  0  0  0
   -0.4030   10.5890   20.7290 C   0  0  0  0  0  0  0  0  0  0  0  0
   -1.2320   11.7160   20.6010 C   0  0  0  0  0  0  0  0  0  0  0  0
   -1.9330   12.2300   21.7010 C   0  0  0  0  0  0  0  0  0  0  0  0
   -1.7930   11.6080   22.9460 C   0  0  0  0  0  0  0  0  0  0  0  0
   -0.9730   10.4860   23.0860 C   0  0  0  0  0  0  0  0  0  0  0  0
   -0.2730    9.9630   21.9890 C   0  0  0  0  0  0  0  0  0  0  0  0
    0.5560    8.8330   22.1190 C   0  0  0  0  0  0  0  0  0  0  0  0
    1.6650    8.5690   18.9230 H   0  0  0  0  0  0  0  0  0  0  0  0
    0.2220   10.5420   18.6570 H   0  0  0  0  0  0  0  0  0  0  0  0
   -1.3280   12.2040   19.6310 H   0  0  0  0  0  0  0  0  0  0  0  0
   -2.3190   11.9920   23.8170 H   0  0  0  0  0  0  0  0  0  0  0  0
   -0.8820   10.0230   24.0660 H   0  0  0  0  0  0  0  0  0  0  0  0
    0.6480    8.3780   23.1000 H   0  0  0  0  0  0  0  0  0  0  0  0
   -2.8030   13.4560   21.5490 C   0  0  0  0  0  0  0  0  0  0  0  0
   -3.7790   13.2460   22.0050 H   0  0  0  0  0  0  0  0  0  0  0  0
   -3.0100   13.6320   20.4840 H   0  0  0  0  0  0  0  0  0  0  0  0
   -2.2110   14.7100   22.1990 C   0  0  0  0  0  0  0  0  0  0  0  0
   -2.4390   15.5920   21.5890 H   0  0  0  0  0  0  0  0  0  0  0  0
   -1.1180   14.6120   22.2130 H   0  0  0  0  0  0  0  0  0  0  0  0
   -2.6670   14.9220   23.5940 C   0  0  0  0  0  0  0  0  0  0  0  0
   -1.8180   14.8980   24.6690 N   0  0  0  0  0  0  0  0  0  0  0  0
   -2.5680   15.1130   25.7400 N   0  0  0  0  0  2  0  0  0  0  0  0
   -3.8100   15.2640   25.2610 N   0  0  0  0  0  0  0  0  0  0  0  0
   -3.9400   15.1790   23.9290 N   0  0  0  0  0  2  0  0  0  0  0  0
   -4.6030   15.4360   25.8740 H   0  0  0  0  0  0  0  0  0  0  0  0
    2.0910    7.2430   21.0230 O   0  0  0  0  0  0  0  0  0  0  0  0
    1.5940    5.9970   20.5240 C   0  0  0  0  0  0  0  0  0  0  0  0
    0.5900    6.1950   20.1280 H   0  0  0  0  0  0  0  0  0  0  0  0
    1.4570    5.2680   21.3320 H   0  0  0  0  0  0  0  0  0  0  0  0
    8.0640    5.0140   17.6170 F   0  0  0  0  0  0  0  0  0  0  0  0
    6.7410    4.8210   17.5310 C   0  0  0  0  0  0  0  0  0  0  0  0
    6.2230    4.1380   16.4410 C   0  0  0  0  0  0  0  0  0  0  0  0
    4.8480    3.9410   16.3570 C   0  0  0  0  0  0  0  0  0  0  0  0
    4.0030    4.4330   17.3690 C   0  0  0  0  0  0  0  0  0  0  0  0
    2.6170    4.2540   17.3190 C   0  0  0  0  0  0  0  0  0  0  0  0
    1.8180    4.7580   18.3380 C   0  0  0  0  0  0  0  0  0  0  0  0
    2.4240    5.4380   19.3890 C   0  0  0  0  0  0  0  0  0  0  0  0
    3.7700    5.6160   19.4620 N   0  0  0  0  0  0  0  0  0  0  0  0
    4.5410    5.1280   18.4750 C   0  0  0  0  0  0  0  0  0  0  0  0
    5.9130    5.3100   18.5350 C   0  0  0  0  0  0  0  0  0  0  0  0
    6.8900    3.7670   15.6690 H   0  0  0  0  0  0  0  0  0  0  0  0
    4.4380    3.4060   15.5040 H   0  0  0  0  0  0  0  0  0  0  0  0
    2.1520    3.7260   16.4900 H   0  0  0  0  0  0  0  0  0  0  0  0
    0.7400    4.6310   18.3080 H   0  0  0  0  0  0  0  0  0  0  0  0
    6.3500    5.8410   19.3750 H   0  0  0  0  0  0  0  0  0  0  0  0
  1 29  1  0  0  0  0
  1 10  1  0  0  0  0
  2  1  2  0  0  0  0
  3  2  1  0  0  0  0
  3  4  2  0  0  0  0
  4  9  1  0  0  0  0
  5  4  1  0  0  0  0
  5  6  2  0  0  0  0
  6  7  1  0  0  0  0
  7  8  2  0  0  0  0
  7 14  1  0  0  0  0
  8 15  1  0  0  0  0
  9 10  2  0  0  0  0
  9  8  1  0  0  0  0
 10 16  1  0  0  0  0
 11  2  1  0  0  0  0
 12  3  1  0  0  0  0
 13  5  1  0  0  0  0
 17  6  1  0  0  0  0
 17 18  1  0  0  0  0
 17 20  1  0  0  0  0
 19 17  1  0  0  0  0
 20 22  1  0  0  0  0
 20 23  1  0  0  0  0
 21 20  1  0  0  0  0
 23 27  1  0  0  0  0
 23 24  2  0  0  0  0
 24 25  1  0  0  0  0
 26 25  1  0  0  0  0
 26 28  1  0  0  0  0
 27 26  1  0  0  0  0
 30 29  1  0  0  0  0
 30 32  1  0  0  0  0
 31 30  1  0  0  0  0
 34 33  1  0  0  0  0
 34 43  1  0  0  0  0
 35 34  2  0  0  0  0
 36 35  1  0  0  0  0
 36 37  2  0  0  0  0
 37 42  1  0  0  0  0
 38 37  1  0  0  0  0
 38 39  2  0  0  0  0
 39 40  1  0  0  0  0
 40 41  2  0  0  0  0
 40 30  1  0  0  0  0
 42 43  2  0  0  0  0
 42 41  1  0  0  0  0
 43 48  1  0  0  0  0
 44 35  1  0  0  0  0
 45 36  1  0  0  0  0
 46 38  1  0  0  0  0
 47 39  1  0  0  0  0
M  END
>  <MODEL>
27

>  <REMARK>
 VINA RESULT:    -8.372      4.275     10.539
 INTER + INTRA:         -11.422
 INTER:                 -10.789
 INTRA:                  -0.633
 UNBOUND:                -0.112
  Name = 
  6 active torsions:
  status: ('A' for Active; 'I' for Inactive)
    1  A    between atoms: C_8  and  C_9
    2  A    between atoms: C_9  and  O_10
    3  A    between atoms: O_10  and  C_11
    4  A    between atoms: C_16  and  C_17
    5  A    between atoms: C_17  and  C_18
    6  A    between atoms: C_18  and  C_19
                            x       y       z     vdW  Elec       q    Type
                         _______ _______ _______ _____ _____    ______ ____

>  <TORSDO>
F 6

$$$$
=
 OpenBabel07192307433D

 48 52  0  0  0  0  0  0  0  0999 V2000
    1.5750    7.1900   20.3100 C   0  0  0  0  0  0  0  0  0  0  0  0
    1.9890    7.9500   19.2170 C   0  0  0  0  0  0  0  0  0  0  0  0
    2.8580    7.4140   18.2640 C   0  0  0  0  0  0  0  0  0  0  0  0
    3.3240    6.0980   18.3860 C   0  0  0  0  0  0  0  0  0  0  0  0
    4.1970    5.5390   17.4380 C   0  0  0  0  0  0  0  0  0  0  0  0
    4.6560    4.2200   17.5630 C   0  0  0  0  0  0  0  0  0  0  0  0
    4.2270    3.4530   18.6500 C   0  0  0  0  0  0  0  0  0  0  0  0
    3.3610    3.9980   19.6010 C   0  0  0  0  0  0  0  0  0  0  0  0
    2.9020    5.3180   19.4850 C   0  0  0  0  0  0  0  0  0  0  0  0
    2.0290    5.8760   20.4380 C   0  0  0  0  0  0  0  0  0  0  0  0
    1.6380    8.9730   19.1050 H   0  0  0  0  0  0  0  0  0  0  0  0
    3.1660    8.0320   17.4240 H   0  0  0  0  0  0  0  0  0  0  0  0
    4.5180    6.1380   16.5860 H   0  0  0  0  0  0  0  0  0  0  0  0
    4.5630    2.4240   18.7660 H   0  0  0  0  0  0  0  0  0  0  0  0
    3.0440    3.3770   20.4360 H   0  0  0  0  0  0  0  0  0  0  0  0
    1.7110    5.2520   21.2670 H   0  0  0  0  0  0  0  0  0  0  0  0
    5.5770    3.6300   16.5210 C   0  0  0  0  0  0  0  0  0  0  0  0
    5.5740    2.5380   16.6360 H   0  0  0  0  0  0  0  0  0  0  0  0
    6.6110    3.9420   16.7220 H   0  0  0  0  0  0  0  0  0  0  0  0
    5.1780    3.9790   15.0840 C   0  0  0  0  0  0  0  0  0  0  0  0
    4.3600    4.7110   15.0890 H   0  0  0  0  0  0  0  0  0  0  0  0
    4.7860    3.0750   14.6020 H   0  0  0  0  0  0  0  0  0  0  0  0
    6.3050    4.4800   14.2630 C   0  0  0  0  0  0  0  0  0  0  0  0
    6.5080    4.1020   12.9620 N   0  0  0  0  0  0  0  0  0  0  0  0
    7.6000    4.7320   12.5560 N   0  0  0  0  0  2  0  0  0  0  0  0
    7.9890    5.4550   13.6160 N   0  0  0  0  0  0  0  0  0  0  0  0
    7.2130    5.3620   14.7070 N   0  0  0  0  0  2  0  0  0  0  0  0
    8.8190    6.0410   13.5890 H   0  0  0  0  0  0  0  0  0  0  0  0
    0.7210    7.8390   21.1600 O   0  0  0  0  0  0  0  0  0  0  0  0
    1.2450    8.8950   21.9720 C   0  0  0  0  0  0  0  0  0  0  0  0
    2.1950    9.2010   21.5160 H   0  0  0  0  0  0  0  0  0  0  0  0
    1.4980    8.5380   22.9790 H   0  0  0  0  0  0  0  0  0  0  0  0
   -0.6900   15.1260   19.0220 F   0  0  0  0  0  0  0  0  0  0  0  0
   -0.8780   14.2260   19.9950 C   0  0  0  0  0  0  0  0  0  0  0  0
   -1.8550   14.4540   20.9530 C   0  0  0  0  0  0  0  0  0  0  0  0
   -2.0460   13.5150   21.9620 C   0  0  0  0  0  0  0  0  0  0  0  0
   -1.2530   12.3540   22.0020 C   0  0  0  0  0  0  0  0  0  0  0  0
   -1.4170   11.3880   23.0010 C   0  0  0  0  0  0  0  0  0  0  0  0
   -0.6100   10.2560   23.0050 C   0  0  0  0  0  0  0  0  0  0  0  0
    0.3500   10.1150   22.0100 C   0  0  0  0  0  0  0  0  0  0  0  0
    0.5200   11.0370   21.0260 N   0  0  0  0  0  0  0  0  0  0  0  0
   -0.2600   12.1310   21.0230 C   0  0  0  0  0  0  0  0  0  0  0  0
   -0.0900   13.0800   20.0290 C   0  0  0  0  0  0  0  0  0  0  0  0
   -2.4570   15.3560   20.9060 H   0  0  0  0  0  0  0  0  0  0  0  0
   -2.8120   13.6900   22.7140 H   0  0  0  0  0  0  0  0  0  0  0  0
   -2.1660   11.5110   23.7790 H   0  0  0  0  0  0  0  0  0  0  0  0
   -0.7230    9.5020   23.7790 H   0  0  0  0  0  0  0  0  0  0  0  0
    0.6660   12.9320   19.2640 H   0  0  0  0  0  0  0  0  0  0  0  0
  1 10  1  0  0  0  0
  1 29  1  0  0  0  0
  2  1  2  0  0  0  0
  3  4  2  0  0  0  0
  3  2  1  0  0  0  0
  4  9  1  0  0  0  0
  5  6  2  0  0  0  0
  5  4  1  0  0  0  0
  6  7  1  0  0  0  0
  7 14  1  0  0  0  0
  7  8  2  0  0  0  0
  8 15  1  0  0  0  0
  9  8  1  0  0  0  0
  9 10  2  0  0  0  0
 10 16  1  0  0  0  0
 11  2  1  0  0  0  0
 12  3  1  0  0  0  0
 13  5  1  0  0  0  0
 17 18  1  0  0  0  0
 17 19  1  0  0  0  0
 17  6  1  0  0  0  0
 20 21  1  0  0  0  0
 20 17  1  0  0  0  0
 22 20  1  0  0  0  0
 23 27  1  0  0  0  0
 23 20  1  0  0  0  0
 24 23  2  0  0  0  0
 25 24  1  0  0  0  0
 25 26  1  0  0  0  0
 26 27  1  0  0  0  0
 28 26  1  0  0  0  0
 29 30  1  0  0  0  0
 30 40  1  0  0  0  0
 30 32  1  0  0  0  0
 31 30  1  0  0  0  0
 33 34  1  0  0  0  0
 34 43  2  0  0  0  0
 34 35  1  0  0  0  0
 35 36  2  0  0  0  0
 36 37  1  0  0  0  0
 36 45  1  0  0  0  0
 37 38  1  0  0  0  0
 38 39  2  0  0  0  0
 38 46  1  0  0  0  0
 39 47  1  0  0  0  0
 40 39  1  0  0  0  0
 41 40  2  0  0  0  0
 42 41  1  0  0  0  0
 42 37  2  0  0  0  0
 43 42  1  0  0  0  0
 44 35  1  0  0  0  0
 48 43  1  0  0  0  0
M  END
>  <MODEL>
28

>  <REMARK>
 VINA RESULT:    -8.328      2.993      3.516
 INTER + INTRA:         -11.361
 INTER:                 -10.679
 INTRA:                  -0.682
 UNBOUND:                -0.112
  Name = 
  6 active torsions:
  status: ('A' for Active; 'I' for Inactive)
    1  A    between atoms: C_8  and  C_9
    2  A    between atoms: C_9  and  O_10
    3  A    between atoms: O_10  and  C_11
    4  A    between atoms: C_16  and  C_17
    5  A    between atoms: C_17  and  C_18
    6  A    between atoms: C_18  and  C_19
                            x       y       z     vdW  Elec       q    Type
                         _______ _______ _______ _____ _____    ______ ____

>  <TORSDO>
F 6

$$$$
=
 OpenBabel07192307433D

 48 52  0  0  0  0  0  0  0  0999 V2000
    1.1880    9.1780   20.2030 C   0  0  0  0  0  0  0  0  0  0  0  0
    1.5320    9.5350   18.9000 C   0  0  0  0  0  0  0  0  0  0  0  0
    2.2980    8.6800   18.1040 C   0  0  0  0  0  0  0  0  0  0  0  0
    2.7290    7.4430   18.5990 C   0  0  0  0  0  0  0  0  0  0  0  0
    3.4980    6.5670   17.8140 C   0  0  0  0  0  0  0  0  0  0  0  0
    3.9220    5.3280   18.3130 C   0  0  0  0  0  0  0  0  0  0  0  0
    3.5630    4.9620   19.6140 C   0  0  0  0  0  0  0  0  0  0  0  0
    2.8010    5.8240   20.4050 C   0  0  0  0  0  0  0  0  0  0  0  0
    2.3770    7.0680   19.9140 C   0  0  0  0  0  0  0  0  0  0  0  0
    1.6080    7.9440   20.7040 C   0  0  0  0  0  0  0  0  0  0  0  0
    1.2070   10.4920   18.4980 H   0  0  0  0  0  0  0  0  0  0  0  0
    2.5530    8.9890   17.0930 H   0  0  0  0  0  0  0  0  0  0  0  0
    3.7640    6.8530   16.7970 H   0  0  0  0  0  0  0  0  0  0  0  0
    3.8730    4.0020   20.0230 H   0  0  0  0  0  0  0  0  0  0  0  0
    2.5360    5.5130   21.4140 H   0  0  0  0  0  0  0  0  0  0  0  0
    1.3420    7.6260   21.7070 H   0  0  0  0  0  0  0  0  0  0  0  0
    4.7300    4.3910   17.4470 C   0  0  0  0  0  0  0  0  0  0  0  0
    5.4610    3.8750   18.0830 H   0  0  0  0  0  0  0  0  0  0  0  0
    5.3260    4.9720   16.7290 H   0  0  0  0  0  0  0  0  0  0  0  0
    3.8790    3.3450   16.7200 C   0  0  0  0  0  0  0  0  0  0  0  0
    4.5270    2.6050   16.2340 H   0  0  0  0  0  0  0  0  0  0  0  0
    3.3210    3.8460   15.9190 H   0  0  0  0  0  0  0  0  0  0  0  0
    2.9010    2.6650   17.6010 C   0  0  0  0  0  0  0  0  0  0  0  0
    1.6000    3.0740   17.7290 N   0  0  0  0  0  0  0  0  0  0  0  0
    1.0320    2.2490   18.5970 N   0  0  0  0  0  2  0  0  0  0  0  0
    2.0040    1.3900   18.9350 N   0  0  0  0  0  0  0  0  0  0  0  0
    3.1890    1.5790   18.3330 N   0  0  0  0  0  2  0  0  0  0  0  0
    1.8480    0.6410   19.6030 H   0  0  0  0  0  0  0  0  0  0  0  0
    0.4330   10.1060   20.8650 O   0  0  0  0  0  0  0  0  0  0  0  0
    0.2380   11.3850   20.2510 C   0  0  0  0  0  0  0  0  0  0  0  0
    0.9520   11.4460   19.4210 H   0  0  0  0  0  0  0  0  0  0  0  0
    0.5030   12.2020   20.9350 H   0  0  0  0  0  0  0  0  0  0  0  0
   -4.2700   10.2270   14.8100 F   0  0  0  0  0  0  0  0  0  0  0  0
   -4.0740   10.7480   16.0280 C   0  0  0  0  0  0  0  0  0  0  0  0
   -5.1200   11.3950   16.6680 C   0  0  0  0  0  0  0  0  0  0  0  0
   -4.9100   11.9340   17.9340 C   0  0  0  0  0  0  0  0  0  0  0  0
   -3.6490   11.8200   18.5470 C   0  0  0  0  0  0  0  0  0  0  0  0
   -3.4010   12.3480   19.8180 C   0  0  0  0  0  0  0  0  0  0  0  0
   -2.1390   12.2160   20.3860 C   0  0  0  0  0  0  0  0  0  0  0  0
   -1.1470   11.5590   19.6680 C   0  0  0  0  0  0  0  0  0  0  0  0
   -1.3690   11.0300   18.4350 N   0  0  0  0  0  0  0  0  0  0  0  0
   -2.5890   11.1590   17.8870 C   0  0  0  0  0  0  0  0  0  0  0  0
   -2.8240   10.6310   16.6280 C   0  0  0  0  0  0  0  0  0  0  0  0
   -6.0860   11.4740   16.1790 H   0  0  0  0  0  0  0  0  0  0  0  0
   -5.7280   12.4420   18.4390 H   0  0  0  0  0  0  0  0  0  0  0  0
   -4.1810   12.8660   20.3690 H   0  0  0  0  0  0  0  0  0  0  0  0
   -1.9320   12.6270   21.3700 H   0  0  0  0  0  0  0  0  0  0  0  0
   -2.0260   10.1190   16.1000 H   0  0  0  0  0  0  0  0  0  0  0  0
  1 10  1  0  0  0  0
  1 29  1  0  0  0  0
  2  1  2  0  0  0  0
  3  4  2  0  0  0  0
  3  2  1  0  0  0  0
  4  9  1  0  0  0  0
  5  6  2  0  0  0  0
  5  4  1  0  0  0  0
  6  7  1  0  0  0  0
  7 14  1  0  0  0  0
  7  8  2  0  0  0  0
  8 15  1  0  0  0  0
  9  8  1  0  0  0  0
  9 10  2  0  0  0  0
 10 16  1  0  0  0  0
 11  2  1  0  0  0  0
 12  3  1  0  0  0  0
 13  5  1  0  0  0  0
 17 18  1  0  0  0  0
 17  6  1  0  0  0  0
 19 17  1  0  0  0  0
 20 17  1  0  0  0  0
 20 23  1  0  0  0  0
 21 20  1  0  0  0  0
 22 20  1  0  0  0  0
 23 24  2  0  0  0  0
 23 27  1  0  0  0  0
 24 25  1  0  0  0  0
 25 26  1  0  0  0  0
 26 28  1  0  0  0  0
 27 26  1  0  0  0  0
 30 29  1  0  0  0  0
 30 32  1  0  0  0  0
 31 30  1  0  0  0  0
 33 34  1  0  0  0  0
 34 43  2  0  0  0  0
 34 35  1  0  0  0  0
 35 36  2  0  0  0  0
 36 45  1  0  0  0  0
 36 37  1  0  0  0  0
 37 38  1  0  0  0  0
 38 46  1  0  0  0  0
 38 39  2  0  0  0  0
 39 47  1  0  0  0  0
 40 30  1  0  0  0  0
 40 39  1  0  0  0  0
 41 40  2  0  0  0  0
 42 41  1  0  0  0  0
 42 37  2  0  0  0  0
 43 42  1  0  0  0  0
 44 35  1  0  0  0  0
 48 43  1  0  0  0  0
M  END
>  <MODEL>
29

>  <REMARK>
 VINA RESULT:    -8.244      2.004      2.415
 INTER + INTRA:         -11.248
 INTER:                 -11.167
 INTRA:                  -0.081
 UNBOUND:                -0.112
  Name = 
  6 active torsions:
  status: ('A' for Active; 'I' for Inactive)
    1  A    between atoms: C_8  and  C_9
    2  A    between atoms: C_9  and  O_10
    3  A    between atoms: O_10  and  C_11
    4  A    between atoms: C_16  and  C_17
    5  A    between atoms: C_17  and  C_18
    6  A    between atoms: C_18  and  C_19
                            x       y       z     vdW  Elec       q    Type
                         _______ _______ _______ _____ _____    ______ ____

>  <TORSDO>
F 6

$$$$
=
 OpenBabel07192307433D

 48 52  0  0  0  0  0  0  0  0999 V2000
    2.1110    4.0380   19.4790 C   0  0  0  0  0  0  0  0  0  0  0  0
    1.8290    4.4130   20.7920 C   0  0  0  0  0  0  0  0  0  0  0  0
    1.6140    5.7540   21.1200 C   0  0  0  0  0  0  0  0  0  0  0  0
    1.6710    6.7460   20.1330 C   0  0  0  0  0  0  0  0  0  0  0  0
    1.4550    8.1000   20.4420 C   0  0  0  0  0  0  0  0  0  0  0  0
    1.5080    9.0880   19.4480 C   0  0  0  0  0  0  0  0  0  0  0  0
    1.7730    8.7100   18.1290 C   0  0  0  0  0  0  0  0  0  0  0  0
    1.9910    7.3670   17.8090 C   0  0  0  0  0  0  0  0  0  0  0  0
    1.9450    6.3740   18.7980 C   0  0  0  0  0  0  0  0  0  0  0  0
    2.1630    5.0190   18.4870 C   0  0  0  0  0  0  0  0  0  0  0  0
    1.7810    3.6580   21.5720 H   0  0  0  0  0  0  0  0  0  0  0  0
    1.4000    6.0160   22.1530 H   0  0  0  0  0  0  0  0  0  0  0  0
    1.2370    8.3870   21.4700 H   0  0  0  0  0  0  0  0  0  0  0  0
    1.8120    9.4560   17.3380 H   0  0  0  0  0  0  0  0  0  0  0  0
    2.1950    7.1020   16.7740 H   0  0  0  0  0  0  0  0  0  0  0  0
    2.3610    4.7580   17.4520 H   0  0  0  0  0  0  0  0  0  0  0  0
    1.2520   10.5360   19.7960 C   0  0  0  0  0  0  0  0  0  0  0  0
    1.6950   11.1630   19.0110 H   0  0  0  0  0  0  0  0  0  0  0  0
    1.7920   10.7950   20.7170 H   0  0  0  0  0  0  0  0  0  0  0  0
   -0.2350   10.8790   19.9250 C   0  0  0  0  0  0  0  0  0  0  0  0
   -0.8450   10.0690   19.5070 H   0  0  0  0  0  0  0  0  0  0  0  0
   -0.4400   11.7710   19.3200 H   0  0  0  0  0  0  0  0  0  0  0  0
   -0.6550   11.1670   21.3170 C   0  0  0  0  0  0  0  0  0  0  0  0
   -1.3200   12.3100   21.6760 N   0  0  0  0  0  0  0  0  0  0  0  0
   -1.5200   12.2300   22.9830 N   0  0  0  0  0  2  0  0  0  0  0  0
   -0.9820   11.0560   23.3390 N   0  0  0  0  0  0  0  0  0  0  0  0
   -0.4450   10.3310   22.3450 N   0  0  0  0  0  2  0  0  0  0  0  0
   -0.9860   10.7350   24.3030 H   0  0  0  0  0  0  0  0  0  0  0  0
    2.2940    2.6940   19.3010 O   0  0  0  0  0  0  0  0  0  0  0  0
    3.6150    2.2220   19.0150 C   0  0  0  0  0  0  0  0  0  0  0  0
    3.4990    1.3250   18.3930 H   0  0  0  0  0  0  0  0  0  0  0  0
    4.1270    1.8900   19.9260 H   0  0  0  0  0  0  0  0  0  0  0  0
    8.5650    7.3950   19.0270 F   0  0  0  0  0  0  0  0  0  0  0  0
    7.7310    6.6270   18.3150 C   0  0  0  0  0  0  0  0  0  0  0  0
    7.6760    6.7760   16.9370 C   0  0  0  0  0  0  0  0  0  0  0  0
    6.8070    5.9750   16.2040 C   0  0  0  0  0  0  0  0  0  0  0  0
    5.9980    5.0290   16.8590 C   0  0  0  0  0  0  0  0  0  0  0  0
    5.1120    4.2060   16.1550 C   0  0  0  0  0  0  0  0  0  0  0  0
    4.3280    3.2880   16.8430 C   0  0  0  0  0  0  0  0  0  0  0  0
    4.4430    3.2130   18.2260 C   0  0  0  0  0  0  0  0  0  0  0  0
    5.3030    3.9970   18.9300 N   0  0  0  0  0  0  0  0  0  0  0  0
    6.0600    4.8850   18.2630 C   0  0  0  0  0  0  0  0  0  0  0  0
    6.9340    5.6940   18.9710 C   0  0  0  0  0  0  0  0  0  0  0  0
    8.3070    7.5110   16.4480 H   0  0  0  0  0  0  0  0  0  0  0  0
    6.7620    6.0890   15.1230 H   0  0  0  0  0  0  0  0  0  0  0  0
    5.0250    4.2770   15.0740 H   0  0  0  0  0  0  0  0  0  0  0  0
    3.6330    2.6470   16.3090 H   0  0  0  0  0  0  0  0  0  0  0  0
    7.0000    5.6030   20.0500 H   0  0  0  0  0  0  0  0  0  0  0  0
  1  2  1  0  0  0  0
  2  3  2  0  0  0  0
  2 11  1  0  0  0  0
  3 12  1  0  0  0  0
  4  5  1  0  0  0  0
  4  3  1  0  0  0  0
  5 13  1  0  0  0  0
  6 17  1  0  0  0  0
  6  5  2  0  0  0  0
  7  6  1  0  0  0  0
  8  7  2  0  0  0  0
  8  9  1  0  0  0  0
  9  4  2  0  0  0  0
 10  9  1  0  0  0  0
 10  1  2  0  0  0  0
 14  7  1  0  0  0  0
 15  8  1  0  0  0  0
 16 10  1  0  0  0  0
 17 20  1  0  0  0  0
 17 19  1  0  0  0  0
 18 17  1  0  0  0  0
 20 23  1  0  0  0  0
 21 20  1  0  0  0  0
 22 20  1  0  0  0  0
 23 24  2  0  0  0  0
 23 27  1  0  0  0  0
 24 25  1  0  0  0  0
 25 26  1  0  0  0  0
 26 28  1  0  0  0  0
 27 26  1  0  0  0  0
 29  1  1  0  0  0  0
 30 29  1  0  0  0  0
 30 32  1  0  0  0  0
 31 30  1  0  0  0  0
 34 43  1  0  0  0  0
 34 33  1  0  0  0  0
 35 34  2  0  0  0  0
 36 37  2  0  0  0  0
 36 35  1  0  0  0  0
 37 42  1  0  0  0  0
 38 39  2  0  0  0  0
 38 37  1  0  0  0  0
 39 40  1  0  0  0  0
 40 41  2  0  0  0  0
 40 30  1  0  0  0  0
 42 41  1  0  0  0  0
 42 43  2  0  0  0  0
 43 48  1  0  0  0  0
 44 35  1  0  0  0  0
 45 36  1  0  0  0  0
 46 38  1  0  0  0  0
 47 39  1  0  0  0  0
M  END
>  <MODEL>
30

>  <REMARK>
 VINA RESULT:    -8.242      3.830      9.465
 INTER + INTRA:         -11.245
 INTER:                 -11.133
 INTRA:                  -0.112
 UNBOUND:                -0.112
  Name = 
  6 active torsions:
  status: ('A' for Active; 'I' for Inactive)
    1  A    between atoms: C_8  and  C_9
    2  A    between atoms: C_9  and  O_10
    3  A    between atoms: O_10  and  C_11
    4  A    between atoms: C_16  and  C_17
    5  A    between atoms: C_17  and  C_18
    6  A    between atoms: C_18  and  C_19
                            x       y       z     vdW  Elec       q    Type
                         _______ _______ _______ _____ _____    ______ ____

>  <TORSDO>
F 6

$$$$
=
 OpenBabel07192307433D

 48 52  0  0  0  0  0  0  0  0999 V2000
   -0.3300   11.2060   20.1550 C   0  0  0  0  0  0  0  0  0  0  0  0
   -0.1700   10.4880   21.3390 C   0  0  0  0  0  0  0  0  0  0  0  0
    0.5670    9.3010   21.3600 C   0  0  0  0  0  0  0  0  0  0  0  0
    1.1650    8.8150   20.1900 C   0  0  0  0  0  0  0  0  0  0  0  0
    1.9120    7.6250   20.1890 C   0  0  0  0  0  0  0  0  0  0  0  0
    2.5130    7.1460   19.0170 C   0  0  0  0  0  0  0  0  0  0  0  0
    2.3670    7.8760   17.8330 C   0  0  0  0  0  0  0  0  0  0  0  0
    1.6250    9.0590   17.8200 C   0  0  0  0  0  0  0  0  0  0  0  0
    1.0170    9.5410   18.9880 C   0  0  0  0  0  0  0  0  0  0  0  0
    0.2670   10.7330   18.9850 C   0  0  0  0  0  0  0  0  0  0  0  0
   -0.6270   10.8490   22.2570 H   0  0  0  0  0  0  0  0  0  0  0  0
    0.6710    8.7610   22.2970 H   0  0  0  0  0  0  0  0  0  0  0  0
    2.0320    7.0670   21.1180 H   0  0  0  0  0  0  0  0  0  0  0  0
    2.8300    7.5300   16.9110 H   0  0  0  0  0  0  0  0  0  0  0  0
    1.5280    9.6060   16.8840 H   0  0  0  0  0  0  0  0  0  0  0  0
    0.1780   11.2790   18.0510 H   0  0  0  0  0  0  0  0  0  0  0  0
    3.3300    5.8760   19.0410 C   0  0  0  0  0  0  0  0  0  0  0  0
    3.8140    5.7940   20.0230 H   0  0  0  0  0  0  0  0  0  0  0  0
    4.1520    5.9510   18.3150 H   0  0  0  0  0  0  0  0  0  0  0  0
    2.5020    4.6120   18.7890 C   0  0  0  0  0  0  0  0  0  0  0  0
    2.9840    3.9940   18.0210 H   0  0  0  0  0  0  0  0  0  0  0  0
    1.5260    4.9100   18.3840 H   0  0  0  0  0  0  0  0  0  0  0  0
    2.2620    3.8100   20.0110 C   0  0  0  0  0  0  0  0  0  0  0  0
    1.0130    3.6010   20.5350 N   0  0  0  0  0  0  0  0  0  0  0  0
    1.1830    2.8580   21.6190 N   0  0  0  0  0  2  0  0  0  0  0  0
    2.5060    2.6520   21.6870 N   0  0  0  0  0  0  0  0  0  0  0  0
    3.2360    3.1990   20.7030 N   0  0  0  0  0  2  0  0  0  0  0  0
    2.9250    2.1100   22.4370 H   0  0  0  0  0  0  0  0  0  0  0  0
   -1.0700   12.3500   20.2820 O   0  0  0  0  0  0  0  0  0  0  0  0
   -0.6370   13.5190   19.5800 C   0  0  0  0  0  0  0  0  0  0  0  0
   -1.3070   14.3340   19.8840 H   0  0  0  0  0  0  0  0  0  0  0  0
   -0.7730   13.4090   18.4960 H   0  0  0  0  0  0  0  0  0  0  0  0
    6.0380   14.9200   17.3990 F   0  0  0  0  0  0  0  0  0  0  0  0
    5.1680   14.8550   18.4140 C   0  0  0  0  0  0  0  0  0  0  0  0
    5.5940   15.1680   19.6960 C   0  0  0  0  0  0  0  0  0  0  0  0
    4.6840   15.0980   20.7480 C   0  0  0  0  0  0  0  0  0  0  0  0
    3.3540   14.7130   20.5040 C   0  0  0  0  0  0  0  0  0  0  0  0
    2.4120   14.6310   21.5350 C   0  0  0  0  0  0  0  0  0  0  0  0
    1.1090   14.2430   21.2500 C   0  0  0  0  0  0  0  0  0  0  0  0
    0.7730   13.9390   19.9360 C   0  0  0  0  0  0  0  0  0  0  0  0
    1.6690   14.0200   18.9180 N   0  0  0  0  0  0  0  0  0  0  0  0
    2.9300   14.3940   19.1940 C   0  0  0  0  0  0  0  0  0  0  0  0
    3.8540   14.4730   18.1650 C   0  0  0  0  0  0  0  0  0  0  0  0
    6.6240   15.4630   19.8660 H   0  0  0  0  0  0  0  0  0  0  0  0
    5.0150   15.3440   21.7540 H   0  0  0  0  0  0  0  0  0  0  0  0
    2.6870   14.8650   22.5600 H   0  0  0  0  0  0  0  0  0  0  0  0
    0.3700   14.1700   22.0430 H   0  0  0  0  0  0  0  0  0  0  0  0
    3.5520   14.2340   17.1500 H   0  0  0  0  0  0  0  0  0  0  0  0
  1 29  1  0  0  0  0
  1  2  1  0  0  0  0
  2  3  2  0  0  0  0
  2 11  1  0  0  0  0
  3 12  1  0  0  0  0
  4  3  1  0  0  0  0
  5  4  1  0  0  0  0
  5 13  1  0  0  0  0
  6 17  1  0  0  0  0
  6  5  2  0  0  0  0
  7  6  1  0  0  0  0
  8  7  2  0  0  0  0
  8  9  1  0  0  0  0
  9  4  2  0  0  0  0
 10  9  1  0  0  0  0
 10  1  2  0  0  0  0
 14  7  1  0  0  0  0
 15  8  1  0  0  0  0
 16 10  1  0  0  0  0
 17 18  1  0  0  0  0
 19 17  1  0  0  0  0
 20 17  1  0  0  0  0
 20 23  1  0  0  0  0
 21 20  1  0  0  0  0
 22 20  1  0  0  0  0
 23 24  2  0  0  0  0
 23 27  1  0  0  0  0
 24 25  1  0  0  0  0
 25 26  1  0  0  0  0
 26 28  1  0  0  0  0
 27 26  1  0  0  0  0
 30 31  1  0  0  0  0
 30 40  1  0  0  0  0
 30 29  1  0  0  0  0
 32 30  1  0  0  0  0
 33 34  1  0  0  0  0
 34 35  1  0  0  0  0
 35 44  1  0  0  0  0
 35 36  2  0  0  0  0
 36 45  1  0  0  0  0
 37 36  1  0  0  0  0
 37 38  1  0  0  0  0
 38 46  1  0  0  0  0
 39 38  2  0  0  0  0
 39 47  1  0  0  0  0
 40 39  1  0  0  0  0
 41 42  1  0  0  0  0
 41 40  2  0  0  0  0
 42 37  2  0  0  0  0
 43 34  2  0  0  0  0
 43 42  1  0  0  0  0
 48 43  1  0  0  0  0
M  END
>  <MODEL>
31

>  <REMARK>
 VINA RESULT:    -8.206      4.150      6.019
 INTER + INTRA:         -11.197
 INTER:                 -10.331
 INTRA:                  -0.865
 UNBOUND:                -0.112
  Name = 
  6 active torsions:
  status: ('A' for Active; 'I' for Inactive)
    1  A    between atoms: C_8  and  C_9
    2  A    between atoms: C_9  and  O_10
    3  A    between atoms: O_10  and  C_11
    4  A    between atoms: C_16  and  C_17
    5  A    between atoms: C_17  and  C_18
    6  A    between atoms: C_18  and  C_19
                            x       y       z     vdW  Elec       q    Type
                         _______ _______ _______ _____ _____    ______ ____

>  <TORSDO>
F 6

$$$$
=
 OpenBabel07192307433D

 48 52  0  0  0  0  0  0  0  0999 V2000
    1.6550    7.3290   20.3920 C   0  0  0  0  0  0  0  0  0  0  0  0
    1.6700    5.9800   20.7450 C   0  0  0  0  0  0  0  0  0  0  0  0
    2.3930    5.0540   19.9900 C   0  0  0  0  0  0  0  0  0  0  0  0
    3.1230    5.4650   18.8670 C   0  0  0  0  0  0  0  0  0  0  0  0
    3.8580    4.5500   18.0950 C   0  0  0  0  0  0  0  0  0  0  0  0
    4.5900    4.9680   16.9750 C   0  0  0  0  0  0  0  0  0  0  0  0
    4.5890    6.3230   16.6320 C   0  0  0  0  0  0  0  0  0  0  0  0
    3.8600    7.2430   17.3890 C   0  0  0  0  0  0  0  0  0  0  0  0
    3.1210    6.8310   18.5080 C   0  0  0  0  0  0  0  0  0  0  0  0
    2.3840    7.7500   19.2780 C   0  0  0  0  0  0  0  0  0  0  0  0
    1.1100    5.6420   21.6130 H   0  0  0  0  0  0  0  0  0  0  0  0
    2.3830    4.0090   20.2880 H   0  0  0  0  0  0  0  0  0  0  0  0
    3.8650    3.4970   18.3760 H   0  0  0  0  0  0  0  0  0  0  0  0
    5.1550    6.6750   15.7720 H   0  0  0  0  0  0  0  0  0  0  0  0
    3.8770    8.2910   17.0980 H   0  0  0  0  0  0  0  0  0  0  0  0
    2.4080    8.7960   18.9870 H   0  0  0  0  0  0  0  0  0  0  0  0
    5.3920    3.9720   16.1710 C   0  0  0  0  0  0  0  0  0  0  0  0
    4.7550    3.5850   15.3650 H   0  0  0  0  0  0  0  0  0  0  0  0
    5.6340    3.1020   16.7960 H   0  0  0  0  0  0  0  0  0  0  0  0
    6.6630    4.5660   15.5560 C   0  0  0  0  0  0  0  0  0  0  0  0
    7.5500    4.1540   16.0550 H   0  0  0  0  0  0  0  0  0  0  0  0
    6.6700    5.6470   15.7470 H   0  0  0  0  0  0  0  0  0  0  0  0
    6.7620    4.3620   14.0920 C   0  0  0  0  0  0  0  0  0  0  0  0
    7.6320    5.0610   13.2970 N   0  0  0  0  0  0  0  0  0  0  0  0
    7.4360    4.6280   12.0590 N   0  0  0  0  0  2  0  0  0  0  0  0
    6.4790    3.6970   12.1720 N   0  0  0  0  0  0  0  0  0  0  0  0
    6.0290    3.4650   13.4150 N   0  0  0  0  0  2  0  0  0  0  0  0
    6.1210    3.1960   11.3630 H   0  0  0  0  0  0  0  0  0  0  0  0
    0.9110    8.1230   21.2210 O   0  0  0  0  0  0  0  0  0  0  0  0
   -0.1380    8.9100   20.6460 C   0  0  0  0  0  0  0  0  0  0  0  0
   -1.0270    8.7490   21.2680 H   0  0  0  0  0  0  0  0  0  0  0  0
   -0.4050    8.5500   19.6450 H   0  0  0  0  0  0  0  0  0  0  0  0
    2.9880   14.5230   17.4860 F   0  0  0  0  0  0  0  0  0  0  0  0
    2.2490   14.0620   18.5020 C   0  0  0  0  0  0  0  0  0  0  0  0
    1.8060   14.9440   19.4770 C   0  0  0  0  0  0  0  0  0  0  0  0
    1.0380   14.4580   20.5310 C   0  0  0  0  0  0  0  0  0  0  0  0
    0.7210   13.0890   20.5990 C   0  0  0  0  0  0  0  0  0  0  0  0
   -0.0490   12.5650   21.6420 C   0  0  0  0  0  0  0  0  0  0  0  0
   -0.3360   11.2050   21.6730 C   0  0  0  0  0  0  0  0  0  0  0  0
    0.1570   10.3940   20.6570 C   0  0  0  0  0  0  0  0  0  0  0  0
    0.8990   10.8840   19.6290 N   0  0  0  0  0  0  0  0  0  0  0  0
    1.1770   12.1990   19.6020 C   0  0  0  0  0  0  0  0  0  0  0  0
    1.9390   12.7070   18.5620 C   0  0  0  0  0  0  0  0  0  0  0  0
    2.0600   15.9960   19.4090 H   0  0  0  0  0  0  0  0  0  0  0  0
    0.6880   15.1470   21.2960 H   0  0  0  0  0  0  0  0  0  0  0  0
   -0.4240   13.2060   22.4350 H   0  0  0  0  0  0  0  0  0  0  0  0
   -0.9270   10.7850   22.4810 H   0  0  0  0  0  0  0  0  0  0  0  0
    2.3010   12.0430   17.7840 H   0  0  0  0  0  0  0  0  0  0  0  0
  1  2  1  0  0  0  0
  1 29  1  0  0  0  0
  2 11  1  0  0  0  0
  3 12  1  0  0  0  0
  3  2  2  0  0  0  0
  4  3  1  0  0  0  0
  5 13  1  0  0  0  0
  5  4  2  0  0  0  0
  6  5  1  0  0  0  0
  7  6  2  0  0  0  0
  7  8  1  0  0  0  0
  8  9  2  0  0  0  0
  9  4  1  0  0  0  0
  9 10  1  0  0  0  0
 10  1  2  0  0  0  0
 14  7  1  0  0  0  0
 15  8  1  0  0  0  0
 16 10  1  0  0  0  0
 17 19  1  0  0  0  0
 17  6  1  0  0  0  0
 18 17  1  0  0  0  0
 20 22  1  0  0  0  0
 20 21  1  0  0  0  0
 20 17  1  0  0  0  0
 23 20  1  0  0  0  0
 24 23  2  0  0  0  0
 25 26  1  0  0  0  0
 25 24  1  0  0  0  0
 26 27  1  0  0  0  0
 27 23  1  0  0  0  0
 28 26  1  0  0  0  0
 30 40  1  0  0  0  0
 30 29  1  0  0  0  0
 30 31  1  0  0  0  0
 32 30  1  0  0  0  0
 33 34  1  0  0  0  0
 34 43  2  0  0  0  0
 34 35  1  0  0  0  0
 35 36  2  0  0  0  0
 36 37  1  0  0  0  0
 36 45  1  0  0  0  0
 37 38  1  0  0  0  0
 38 39  2  0  0  0  0
 38 46  1  0  0  0  0
 39 47  1  0  0  0  0
 40 39  1  0  0  0  0
 41 40  2  0  0  0  0
 42 41  1  0  0  0  0
 42 37  2  0  0  0  0
 43 42  1  0  0  0  0
 44 35  1  0  0  0  0
 48 43  1  0  0  0  0
M  END
>  <MODEL>
32

>  <REMARK>
 VINA RESULT:    -8.190      3.380      4.188
 INTER + INTRA:         -11.175
 INTER:                 -10.489
 INTRA:                  -0.686
 UNBOUND:                -0.112
  Name = 
  6 active torsions:
  status: ('A' for Active; 'I' for Inactive)
    1  A    between atoms: C_8  and  C_9
    2  A    between atoms: C_9  and  O_10
    3  A    between atoms: O_10  and  C_11
    4  A    between atoms: C_16  and  C_17
    5  A    between atoms: C_17  and  C_18
    6  A    between atoms: C_18  and  C_19
                            x       y       z     vdW  Elec       q    Type
                         _______ _______ _______ _____ _____    ______ ____

>  <TORSDO>
F 6

$$$$
=
 OpenBabel07192307433D

 48 52  0  0  0  0  0  0  0  0999 V2000
   -0.2310   11.3670   20.2250 C   0  0  0  0  0  0  0  0  0  0  0  0
   -0.0710   10.6250   21.3940 C   0  0  0  0  0  0  0  0  0  0  0  0
    0.6240    9.4130   21.3810 C   0  0  0  0  0  0  0  0  0  0  0  0
    1.1800    8.9250   20.1910 C   0  0  0  0  0  0  0  0  0  0  0  0
    1.8840    7.7100   20.1560 C   0  0  0  0  0  0  0  0  0  0  0  0
    2.4430    7.2290   18.9640 C   0  0  0  0  0  0  0  0  0  0  0  0
    2.2970    7.9810   17.7950 C   0  0  0  0  0  0  0  0  0  0  0  0
    1.5970    9.1900   17.8150 C   0  0  0  0  0  0  0  0  0  0  0  0
    1.0310    9.6750   19.0040 C   0  0  0  0  0  0  0  0  0  0  0  0
    0.3240   10.8920   19.0350 C   0  0  0  0  0  0  0  0  0  0  0  0
   -0.4950   10.9880   22.3270 H   0  0  0  0  0  0  0  0  0  0  0  0
    0.7290    8.8560   22.3080 H   0  0  0  0  0  0  0  0  0  0  0  0
    2.0050    7.1340   21.0740 H   0  0  0  0  0  0  0  0  0  0  0  0
    2.7270    7.6340   16.8570 H   0  0  0  0  0  0  0  0  0  0  0  0
    1.4990    9.7540   16.8900 H   0  0  0  0  0  0  0  0  0  0  0  0
    0.2340   11.4540   18.1110 H   0  0  0  0  0  0  0  0  0  0  0  0
    3.2160    5.9300   18.9510 C   0  0  0  0  0  0  0  0  0  0  0  0
    2.5250    5.1150   19.2010 H   0  0  0  0  0  0  0  0  0  0  0  0
    3.9640    5.9380   19.7550 H   0  0  0  0  0  0  0  0  0  0  0  0
    3.8750    5.6260   17.6020 C   0  0  0  0  0  0  0  0  0  0  0  0
    3.8510    6.5180   16.9630 H   0  0  0  0  0  0  0  0  0  0  0  0
    3.2830    4.8570   17.0900 H   0  0  0  0  0  0  0  0  0  0  0  0
    5.2640    5.1250   17.7240 C   0  0  0  0  0  0  0  0  0  0  0  0
    6.2270    5.3510   16.7760 N   0  0  0  0  0  0  0  0  0  0  0  0
    7.3270    4.7530   17.2100 N   0  0  0  0  0  2  0  0  0  0  0  0
    6.9780    4.2130   18.3860 N   0  0  0  0  0  0  0  0  0  0  0  0
    5.7120    4.4250   18.7780 N   0  0  0  0  0  2  0  0  0  0  0  0
    7.6370    3.6790   18.9460 H   0  0  0  0  0  0  0  0  0  0  0  0
   -0.9280   12.5330   20.3850 O   0  0  0  0  0  0  0  0  0  0  0  0
   -0.4930   13.6880   19.6590 C   0  0  0  0  0  0  0  0  0  0  0  0
   -1.1530   14.5120   19.9570 H   0  0  0  0  0  0  0  0  0  0  0  0
   -0.6420   13.5620   18.5790 H   0  0  0  0  0  0  0  0  0  0  0  0
    6.1810   14.9450   17.3910 F   0  0  0  0  0  0  0  0  0  0  0  0
    5.3180   14.9200   18.4140 C   0  0  0  0  0  0  0  0  0  0  0  0
    5.7570   15.2670   19.6830 C   0  0  0  0  0  0  0  0  0  0  0  0
    4.8540   15.2380   20.7430 C   0  0  0  0  0  0  0  0  0  0  0  0
    3.5180   14.8620   20.5190 C   0  0  0  0  0  0  0  0  0  0  0  0
    2.5830   14.8220   21.5590 C   0  0  0  0  0  0  0  0  0  0  0  0
    1.2730   14.4410   21.2950 C   0  0  0  0  0  0  0  0  0  0  0  0
    0.9240   14.1010   19.9930 C   0  0  0  0  0  0  0  0  0  0  0  0
    1.8140   14.1410   18.9660 N   0  0  0  0  0  0  0  0  0  0  0  0
    3.0810   14.5090   19.2230 C   0  0  0  0  0  0  0  0  0  0  0  0
    3.9980   14.5460   18.1860 C   0  0  0  0  0  0  0  0  0  0  0  0
    6.7920   15.5540   19.8370 H   0  0  0  0  0  0  0  0  0  0  0  0
    5.1950   15.5100   21.7390 H   0  0  0  0  0  0  0  0  0  0  0  0
    2.8670   15.0830   22.5750 H   0  0  0  0  0  0  0  0  0  0  0  0
    0.5390   14.4000   22.0940 H   0  0  0  0  0  0  0  0  0  0  0  0
    3.6870   14.2800   17.1810 H   0  0  0  0  0  0  0  0  0  0  0  0
  1 29  1  0  0  0  0
  1  2  1  0  0  0  0
  2 11  1  0  0  0  0
  3  2  2  0  0  0  0
  3 12  1  0  0  0  0
  4  3  1  0  0  0  0
  5  4  1  0  0  0  0
  5 13  1  0  0  0  0
  6  5  2  0  0  0  0
  7  8  2  0  0  0  0
  7  6  1  0  0  0  0
  8  9  1  0  0  0  0
  9 10  1  0  0  0  0
  9  4  2  0  0  0  0
 10  1  2  0  0  0  0
 14  7  1  0  0  0  0
 15  8  1  0  0  0  0
 16 10  1  0  0  0  0
 17  6  1  0  0  0  0
 17 18  1  0  0  0  0
 17 19  1  0  0  0  0
 20 23  1  0  0  0  0
 20 17  1  0  0  0  0
 21 20  1  0  0  0  0
 22 20  1  0  0  0  0
 23 27  1  0  0  0  0
 24 25  1  0  0  0  0
 24 23  2  0  0  0  0
 25 26  1  0  0  0  0
 26 27  1  0  0  0  0
 26 28  1  0  0  0  0
 30 31  1  0  0  0  0
 30 40  1  0  0  0  0
 30 29  1  0  0  0  0
 32 30  1  0  0  0  0
 33 34  1  0  0  0  0
 34 35  1  0  0  0  0
 35 44  1  0  0  0  0
 35 36  2  0  0  0  0
 36 45  1  0  0  0  0
 37 36  1  0  0  0  0
 37 38  1  0  0  0  0
 38 46  1  0  0  0  0
 39 38  2  0  0  0  0
 39 47  1  0  0  0  0
 40 39  1  0  0  0  0
 41 42  1  0  0  0  0
 41 40  2  0  0  0  0
 42 37  2  0  0  0  0
 43 34  2  0  0  0  0
 43 42  1  0  0  0  0
 48 43  1  0  0  0  0
M  END
>  <MODEL>
33

>  <REMARK>
 VINA RESULT:    -8.125      3.702      5.531
 INTER + INTRA:         -11.087
 INTER:                 -10.283
 INTRA:                  -0.804
 UNBOUND:                -0.112
  Name = 
  6 active torsions:
  status: ('A' for Active; 'I' for Inactive)
    1  A    between atoms: C_8  and  C_9
    2  A    between atoms: C_9  and  O_10
    3  A    between atoms: O_10  and  C_11
    4  A    between atoms: C_16  and  C_17
    5  A    between atoms: C_17  and  C_18
    6  A    between atoms: C_18  and  C_19
                            x       y       z     vdW  Elec       q    Type
                         _______ _______ _______ _____ _____    ______ ____

>  <TORSDO>
F 6

$$$$
