=
 OpenBabel07192307433D

 44 47  0  0  1  0  0  0  0  0999 V2000
   -0.1420   10.4030   20.3170 C   0  0  0  0  0  0  0  0  0  0  0  0
    0.7380    9.4790   19.7240 C   0  0  0  0  0  0  0  0  0  0  0  0
    1.4040    8.5120   20.4900 C   0  0  0  0  0  0  0  0  0  0  0  0
    1.2350    8.5060   21.8700 C   0  0  0  0  0  0  0  0  0  0  0  0
    0.4080    9.4490   22.4810 C   0  0  0  0  0  0  0  0  0  0  0  0
   -0.2800   10.3880   21.7110 C   0  0  0  0  0  0  0  0  0  0  0  0
    0.8490    9.4650   18.6420 H   0  0  0  0  0  0  0  0  0  0  0  0
    1.7370    7.7760   22.4980 H   0  0  0  0  0  0  0  0  0  0  0  0
    0.2770    9.4280   23.5650 H   0  0  0  0  0  0  0  0  0  0  0  0
   -0.9450   11.0810   22.2170 H   0  0  0  0  0  0  0  0  0  0  0  0
    2.1820    7.5730   19.7940 N   0  0  0  0  0  0  0  0  0  0  0  0
    2.1500    6.1990   19.9100 C   0  0  0  0  0  0  0  0  0  0  0  0
    1.4910    5.5350   20.7050 O   0  0  0  0  0  0  0  0  0  0  0  0
    2.7120    7.8960   18.9920 H   0  0  0  0  0  0  0  0  0  0  0  0
    2.9670    5.5210   18.8470 C   0  0  0  0  0  0  0  0  0  0  0  0
    3.5920    6.2820   17.8630 C   0  0  0  0  0  0  0  0  0  0  0  0
    4.4420    5.6340   16.9580 C   0  0  0  0  0  0  0  0  0  0  0  0
    5.1300    6.3380   15.9520 C   0  0  0  0  0  0  0  0  0  0  0  0
    5.9900    5.6670   15.0790 C   0  0  0  0  0  0  0  0  0  0  0  0
    6.1740    4.2900   15.1950 C   0  0  0  0  0  0  0  0  0  0  0  0
    5.4870    3.5770   16.1740 C   0  0  0  0  0  0  0  0  0  0  0  0
    4.6250    4.2380   17.0670 C   0  0  0  0  0  0  0  0  0  0  0  0
    3.9300    3.5720   18.0800 C   0  0  0  0  0  0  0  0  0  0  0  0
    3.1190    4.1740   18.9810 N   0  0  0  0  0  0  0  0  0  0  0  0
    3.4450    7.3540   17.8330 H   0  0  0  0  0  0  0  0  0  0  0  0
    5.0000    7.4120   15.8410 H   0  0  0  0  0  0  0  0  0  0  0  0
    6.5180    6.2220   14.3070 H   0  0  0  0  0  0  0  0  0  0  0  0
    6.8460    3.7700   14.5160 H   0  0  0  0  0  0  0  0  0  0  0  0
    5.6300    2.4990   16.2400 H   0  0  0  0  0  0  0  0  0  0  0  0
    4.0260    2.4990   18.2100 H   0  0  0  0  0  0  0  0  0  0  0  0
   -1.0050   11.3300   19.4840 C   0  0  1  0  0  0  0  0  0  0  0  0
   -1.9160   11.5660   20.0490 H   0  0  0  0  0  0  0  0  0  0  0  0
   -0.3220   12.6560   19.1540 C   0  0  0  0  0  0  0  0  0  0  0  0
   -0.8580   13.1780   18.3560 H   0  0  0  0  0  0  0  0  0  0  0  0
   -0.2780   13.3320   20.0120 H   0  0  0  0  0  0  0  0  0  0  0  0
    0.7040   12.4950   18.8010 H   0  0  0  0  0  0  0  0  0  0  0  0
   -1.4700   10.4870   17.9130 S   0  0  0  0  0  0  0  0  0  0  0  0
   -3.0810   11.0730   17.6800 C   0  0  1  0  0  3  0  0  0  0  0  0
   -3.8580   11.5520   18.6330 N   0  0  0  0  0  0  0  0  0  0  0  0
   -4.9690   11.9480   17.9390 C   0  0  0  0  0  0  0  0  0  0  0  0
   -4.9380   11.7340   16.6270 N   0  0  0  0  0  2  0  0  0  0  0  0
   -3.7170   11.1850   16.4760 N   0  0  0  0  0  0  0  0  0  0  0  0
   -3.2080   10.5410   14.9610 Cl  0  0  0  0  0  0  0  0  0  0  0  0
   -5.8310   12.3980   18.4110 H   0  0  0  0  0  0  0  0  0  0  0  0
  1  6  1  0  0  0  0
  2  1  2  0  0  0  0
  2  3  1  0  0  0  0
  3  4  2  0  0  0  0
  4  5  1  0  0  0  0
  4  8  1  0  0  0  0
  5  9  1  0  0  0  0
  6 10  1  0  0  0  0
  6  5  2  0  0  0  0
  7  2  1  0  0  0  0
 11 12  1  0  0  0  0
 11  3  1  0  0  0  0
 12 13  2  0  0  0  0
 14 11  1  0  0  0  0
 15 24  1  0  0  0  0
 15 12  1  0  0  0  0
 16 15  2  0  0  0  0
 17 22  1  0  0  0  0
 17 16  1  0  0  0  0
 18 17  2  0  0  0  0
 19 20  2  0  0  0  0
 19 18  1  0  0  0  0
 20 21  1  0  0  0  0
 21 29  1  0  0  0  0
 21 22  2  0  0  0  0
 22 23  1  0  0  0  0
 23 30  1  0  0  0  0
 23 24  2  0  0  0  0
 25 16  1  0  0  0  0
 26 18  1  0  0  0  0
 27 19  1  0  0  0  0
 28 20  1  0  0  0  0
 31 32  1  1  0  0  0
 31  1  1  0  0  0  0
 33 31  1  0  0  0  0
 33 35  1  0  0  0  0
 34 33  1  0  0  0  0
 36 33  1  0  0  0  0
 37 31  1  0  0  0  0
 38 37  1  6  0  0  0
 38 39  1  0  0  0  0
 40 44  1  0  0  0  0
 40 39  2  0  0  0  0
 41 40  1  0  0  0  0
 42 41  1  0  0  0  0
 42 38  1  0  0  0  0
 43 42  1  0  0  0  0
M  END
>  <MODEL>
1

>  <REMARK>
 VINA RESULT:    -8.569      0.000      0.000
 INTER + INTRA:         -11.699
 INTER:                 -11.137
 INTRA:                  -0.562
 UNBOUND:                -0.375
  Name = 
  6 active torsions:
  status: ('A' for Active; 'I' for Inactive)
    1  A    between atoms: C_1  and  C_2
    2  A    between atoms: C_2  and  C_3
    3  A    between atoms: C_2  and  S_22
    4  A    between atoms: C_5  and  N_9
    5  A    between atoms: C_10  and  C_12
    6  A    between atoms: S_22  and  C_23
                            x       y       z     vdW  Elec       q    Type
                         _______ _______ _______ _____ _____    ______ ____

>  <TORSDO>
F 6

$$$$
=
 OpenBabel07192307433D

 44 47  0  0  1  0  0  0  0  0999 V2000
    4.3900    4.9540   17.0520 C   0  0  0  0  0  0  0  0  0  0  0  0
    3.7990    5.9910   17.7970 C   0  0  0  0  0  0  0  0  0  0  0  0
    2.6340    5.7770   18.5460 C   0  0  0  0  0  0  0  0  0  0  0  0
    2.0210    4.5300   18.5050 C   0  0  0  0  0  0  0  0  0  0  0  0
    2.5630    3.5050   17.7290 C   0  0  0  0  0  0  0  0  0  0  0  0
    3.7410    3.7120   17.0120 C   0  0  0  0  0  0  0  0  0  0  0  0
    4.2930    6.9580   17.8520 H   0  0  0  0  0  0  0  0  0  0  0  0
    1.1140    4.3270   19.0680 H   0  0  0  0  0  0  0  0  0  0  0  0
    2.0750    2.5280   17.7120 H   0  0  0  0  0  0  0  0  0  0  0  0
    4.1560    2.8800   16.4510 H   0  0  0  0  0  0  0  0  0  0  0  0
    2.1780    6.8470   19.3340 N   0  0  0  0  0  0  0  0  0  0  0  0
    1.9080    8.1370   18.9290 C   0  0  0  0  0  0  0  0  0  0  0  0
    2.0930    8.6230   17.8170 O   0  0  0  0  0  0  0  0  0  0  0  0
    1.8370    6.6390   20.2660 H   0  0  0  0  0  0  0  0  0  0  0  0
    1.2280    8.9370   20.0030 C   0  0  0  0  0  0  0  0  0  0  0  0
    0.4430   10.0340   19.6580 C   0  0  0  0  0  0  0  0  0  0  0  0
   -0.2740   10.6860   20.6700 C   0  0  0  0  0  0  0  0  0  0  0  0
   -1.1090   11.7860   20.3960 C   0  0  0  0  0  0  0  0  0  0  0  0
   -1.8300   12.4010   21.4230 C   0  0  0  0  0  0  0  0  0  0  0  0
   -1.7270   11.9320   22.7310 C   0  0  0  0  0  0  0  0  0  0  0  0
   -0.8920   10.8560   23.0200 C   0  0  0  0  0  0  0  0  0  0  0  0
   -0.1670   10.2190   21.9980 C   0  0  0  0  0  0  0  0  0  0  0  0
    0.6680    9.1230   22.2320 C   0  0  0  0  0  0  0  0  0  0  0  0
    1.3550    8.4600   21.2730 N   0  0  0  0  0  0  0  0  0  0  0  0
    0.3680   10.3420   18.6230 H   0  0  0  0  0  0  0  0  0  0  0  0
   -1.2010   12.1720   19.3830 H   0  0  0  0  0  0  0  0  0  0  0  0
   -2.4730   13.2490   21.1980 H   0  0  0  0  0  0  0  0  0  0  0  0
   -2.2910   12.4110   23.5280 H   0  0  0  0  0  0  0  0  0  0  0  0
   -0.8110   10.5130   24.0510 H   0  0  0  0  0  0  0  0  0  0  0  0
    0.7940    8.7230   23.2330 H   0  0  0  0  0  0  0  0  0  0  0  0
    5.7430    5.1190   16.3890 C   0  0  1  0  0  0  0  0  0  0  0  0
    5.7160    6.0120   15.7500 H   0  0  0  0  0  0  0  0  0  0  0  0
    6.8840    5.3130   17.3860 C   0  0  0  0  0  0  0  0  0  0  0  0
    6.5610    5.9360   18.2250 H   0  0  0  0  0  0  0  0  0  0  0  0
    7.2440    4.3690   17.8020 H   0  0  0  0  0  0  0  0  0  0  0  0
    7.7360    5.8200   16.9180 H   0  0  0  0  0  0  0  0  0  0  0  0
    6.1000    3.6420   15.3470 S   0  0  0  0  0  0  0  0  0  0  0  0
    6.7970    4.3780   13.9450 C   0  0  1  0  0  3  0  0  0  0  0  0
    7.6940    5.3470   13.9650 N   0  0  0  0  0  0  0  0  0  0  0  0
    7.9760    5.5160   12.6370 C   0  0  0  0  0  0  0  0  0  0  0  0
    7.3070    4.7310   11.7990 N   0  0  0  0  0  2  0  0  0  0  0  0
    6.5660    4.0000   12.6530 N   0  0  0  0  0  0  0  0  0  0  0  0
    5.3570    2.9130   12.0830 Cl  0  0  0  0  0  0  0  0  0  0  0  0
    8.6880    6.2440   12.2730 H   0  0  0  0  0  0  0  0  0  0  0  0
  1  2  1  0  0  0  0
  2  7  1  0  0  0  0
  2  3  2  0  0  0  0
  3 11  1  0  0  0  0
  4  3  1  0  0  0  0
  4  8  1  0  0  0  0
  5  4  2  0  0  0  0
  6  1  2  0  0  0  0
  6  5  1  0  0  0  0
  9  5  1  0  0  0  0
 10  6  1  0  0  0  0
 11 14  1  0  0  0  0
 12 11  1  0  0  0  0
 12 15  1  0  0  0  0
 13 12  2  0  0  0  0
 15 24  1  0  0  0  0
 16 15  2  0  0  0  0
 16 17  1  0  0  0  0
 17 22  1  0  0  0  0
 18 17  2  0  0  0  0
 18 19  1  0  0  0  0
 19 20  2  0  0  0  0
 20 21  1  0  0  0  0
 20 28  1  0  0  0  0
 21 29  1  0  0  0  0
 22 23  1  0  0  0  0
 22 21  2  0  0  0  0
 23 30  1  0  0  0  0
 24 23  2  0  0  0  0
 25 16  1  0  0  0  0
 26 18  1  0  0  0  0
 27 19  1  0  0  0  0
 31 32  1  6  0  0  0
 31  1  1  0  0  0  0
 31 33  1  0  0  0  0
 33 35  1  0  0  0  0
 33 34  1  0  0  0  0
 36 33  1  0  0  0  0
 37 31  1  0  0  0  0
 38 39  1  0  0  0  0
 38 37  1  1  0  0  0
 40 39  2  0  0  0  0
 41 40  1  0  0  0  0
 41 42  1  0  0  0  0
 42 38  1  0  0  0  0
 43 42  1  0  0  0  0
 44 40  1  0  0  0  0
M  END
>  <MODEL>
2

>  <REMARK>
 VINA RESULT:    -8.069      4.234      9.556
 INTER + INTRA:         -11.039
 INTER:                 -10.614
 INTRA:                  -0.424
 UNBOUND:                -0.375
  Name = 
  6 active torsions:
  status: ('A' for Active; 'I' for Inactive)
    1  A    between atoms: C_1  and  C_2
    2  A    between atoms: C_2  and  C_3
    3  A    between atoms: C_2  and  S_22
    4  A    between atoms: C_5  and  N_9
    5  A    between atoms: C_10  and  C_12
    6  A    between atoms: S_22  and  C_23
                            x       y       z     vdW  Elec       q    Type
                         _______ _______ _______ _____ _____    ______ ____

>  <TORSDO>
F 6

$$$$
=
 OpenBabel07192307433D

 44 47  0  0  1  0  0  0  0  0999 V2000
    4.2810    4.1680   16.8270 C   0  0  0  0  0  0  0  0  0  0  0  0
    3.7110    5.3120   17.4150 C   0  0  0  0  0  0  0  0  0  0  0  0
    2.5590    5.2260   18.2080 C   0  0  0  0  0  0  0  0  0  0  0  0
    1.9360    3.9930   18.3680 C   0  0  0  0  0  0  0  0  0  0  0  0
    2.4570    2.8570   17.7490 C   0  0  0  0  0  0  0  0  0  0  0  0
    3.6240    2.9420   16.9880 C   0  0  0  0  0  0  0  0  0  0  0  0
    4.2120    6.2720   17.3130 H   0  0  0  0  0  0  0  0  0  0  0  0
    1.0390    3.8870   18.9720 H   0  0  0  0  0  0  0  0  0  0  0  0
    1.9630    1.8930   17.8890 H   0  0  0  0  0  0  0  0  0  0  0  0
    4.0220    2.0300   16.5530 H   0  0  0  0  0  0  0  0  0  0  0  0
    2.1240    6.4080   18.8320 N   0  0  0  0  0  0  0  0  0  0  0  0
    2.3720    7.7070   18.4420 C   0  0  0  0  0  0  0  0  0  0  0  0
    3.0900    8.0840   17.5210 O   0  0  0  0  0  0  0  0  0  0  0  0
    1.4090    6.3320   19.5470 H   0  0  0  0  0  0  0  0  0  0  0  0
    1.5590    8.6980   19.2250 C   0  0  0  0  0  0  0  0  0  0  0  0
    1.0720    8.3540   20.4830 C   0  0  0  0  0  0  0  0  0  0  0  0
    0.4210    9.3390   21.2380 C   0  0  0  0  0  0  0  0  0  0  0  0
   -0.0770    9.0760   22.5280 C   0  0  0  0  0  0  0  0  0  0  0  0
   -0.7000   10.0850   23.2660 C   0  0  0  0  0  0  0  0  0  0  0  0
   -0.8390   11.3640   22.7300 C   0  0  0  0  0  0  0  0  0  0  0  0
   -0.3670   11.6350   21.4480 C   0  0  0  0  0  0  0  0  0  0  0  0
    0.2710   10.6340   20.6950 C   0  0  0  0  0  0  0  0  0  0  0  0
    0.7810   10.8600   19.4140 C   0  0  0  0  0  0  0  0  0  0  0  0
    1.4320    9.9360   18.6700 N   0  0  0  0  0  0  0  0  0  0  0  0
    1.2320    7.3570   20.8720 H   0  0  0  0  0  0  0  0  0  0  0  0
    0.0170    8.0850   22.9660 H   0  0  0  0  0  0  0  0  0  0  0  0
   -1.0790    9.8690   24.2630 H   0  0  0  0  0  0  0  0  0  0  0  0
   -1.3220   12.1480   23.3070 H   0  0  0  0  0  0  0  0  0  0  0  0
   -0.4990   12.6360   21.0380 H   0  0  0  0  0  0  0  0  0  0  0  0
    0.6910   11.8340   18.9420 H   0  0  0  0  0  0  0  0  0  0  0  0
    5.6230    4.2180   16.1230 C   0  0  1  0  0  0  0  0  0  0  0  0
    6.3290    3.5740   16.6630 H   0  0  0  0  0  0  0  0  0  0  0  0
    5.5660    3.7170   14.6810 C   0  0  0  0  0  0  0  0  0  0  0  0
    4.5290    3.6300   14.3440 H   0  0  0  0  0  0  0  0  0  0  0  0
    6.0790    4.3820   13.9830 H   0  0  0  0  0  0  0  0  0  0  0  0
    6.0180    2.7220   14.5900 H   0  0  0  0  0  0  0  0  0  0  0  0
    6.2560    5.9490   16.1320 S   0  0  0  0  0  0  0  0  0  0  0  0
    7.1090    5.9880   17.6360 C   0  0  1  0  0  3  0  0  0  0  0  0
    7.2480    4.9620   18.4550 N   0  0  0  0  0  0  0  0  0  0  0  0
    8.0530    5.4730   19.4360 C   0  0  0  0  0  0  0  0  0  0  0  0
    8.4080    6.7450   19.2880 N   0  0  0  0  0  2  0  0  0  0  0  0
    7.8060    7.0560   18.1240 N   0  0  0  0  0  0  0  0  0  0  0  0
    7.7930    8.6730   17.5290 Cl  0  0  0  0  0  0  0  0  0  0  0  0
    8.3810    4.8970   20.2910 H   0  0  0  0  0  0  0  0  0  0  0  0
  1  6  2  0  0  0  0
  1  2  1  0  0  0  0
  2  3  2  0  0  0  0
  3  4  1  0  0  0  0
  3 11  1  0  0  0  0
  4  8  1  0  0  0  0
  5  9  1  0  0  0  0
  5  4  2  0  0  0  0
  6  5  1  0  0  0  0
  7  2  1  0  0  0  0
 10  6  1  0  0  0  0
 11 14  1  0  0  0  0
 12 11  1  0  0  0  0
 12 15  1  0  0  0  0
 13 12  2  0  0  0  0
 15 16  1  0  0  0  0
 16 25  1  0  0  0  0
 16 17  2  0  0  0  0
 17 18  1  0  0  0  0
 18 26  1  0  0  0  0
 18 19  2  0  0  0  0
 19 27  1  0  0  0  0
 20 19  1  0  0  0  0
 20 28  1  0  0  0  0
 21 20  2  0  0  0  0
 22 17  1  0  0  0  0
 22 21  1  0  0  0  0
 23 22  2  0  0  0  0
 24 15  2  0  0  0  0
 24 23  1  0  0  0  0
 29 21  1  0  0  0  0
 30 23  1  0  0  0  0
 31 37  1  0  0  0  0
 31 32  1  1  0  0  0
 31  1  1  0  0  0  0
 33 31  1  0  0  0  0
 34 33  1  0  0  0  0
 35 33  1  0  0  0  0
 36 33  1  0  0  0  0
 38 37  1  6  0  0  0
 38 42  1  0  0  0  0
 38 39  1  0  0  0  0
 39 40  2  0  0  0  0
 40 44  1  0  0  0  0
 41 40  1  0  0  0  0
 42 41  1  0  0  0  0
 43 42  1  0  0  0  0
M  END
>  <MODEL>
3

>  <REMARK>
 VINA RESULT:    -8.060      3.949      9.284
 INTER + INTRA:         -11.025
 INTER:                 -10.758
 INTRA:                  -0.268
 UNBOUND:                -0.375
  Name = 
  6 active torsions:
  status: ('A' for Active; 'I' for Inactive)
    1  A    between atoms: C_1  and  C_2
    2  A    between atoms: C_2  and  C_3
    3  A    between atoms: C_2  and  S_22
    4  A    between atoms: C_5  and  N_9
    5  A    between atoms: C_10  and  C_12
    6  A    between atoms: S_22  and  C_23
                            x       y       z     vdW  Elec       q    Type
                         _______ _______ _______ _____ _____    ______ ____

>  <TORSDO>
F 6

$$$$
=
 OpenBabel07192307433D

 44 47  0  0  1  0  0  0  0  0999 V2000
    2.6830    6.8550   19.3340 C   0  0  0  0  0  0  0  0  0  0  0  0
    1.9080    7.7420   20.1040 C   0  0  0  0  0  0  0  0  0  0  0  0
    1.3540    8.9010   19.5420 C   0  0  0  0  0  0  0  0  0  0  0  0
    1.6250    9.2060   18.2130 C   0  0  0  0  0  0  0  0  0  0  0  0
    2.4360    8.3650   17.4490 C   0  0  0  0  0  0  0  0  0  0  0  0
    2.9570    7.1950   18.0030 C   0  0  0  0  0  0  0  0  0  0  0  0
    1.6730    7.4900   21.1350 H   0  0  0  0  0  0  0  0  0  0  0  0
    1.2180   10.0970   17.7430 H   0  0  0  0  0  0  0  0  0  0  0  0
    2.6340    8.6120   16.4040 H   0  0  0  0  0  0  0  0  0  0  0  0
    3.5510    6.5440   17.3680 H   0  0  0  0  0  0  0  0  0  0  0  0
    0.5150    9.6700   20.3650 N   0  0  0  0  0  0  0  0  0  0  0  0
    0.6220   11.0130   20.6560 C   0  0  0  0  0  0  0  0  0  0  0  0
    1.5190   11.7800   20.3180 O   0  0  0  0  0  0  0  0  0  0  0  0
   -0.3690    9.2650   20.6530 H   0  0  0  0  0  0  0  0  0  0  0  0
   -0.5830   11.5310   21.3900 C   0  0  0  0  0  0  0  0  0  0  0  0
   -1.5570   12.2490   20.7030 C   0  0  0  0  0  0  0  0  0  0  0  0
   -2.7230   12.6150   21.3870 C   0  0  0  0  0  0  0  0  0  0  0  0
   -3.7650   13.3190   20.7550 C   0  0  0  0  0  0  0  0  0  0  0  0
   -4.9270   13.6480   21.4570 C   0  0  0  0  0  0  0  0  0  0  0  0
   -5.0650   13.2840   22.7950 C   0  0  0  0  0  0  0  0  0  0  0  0
   -4.0360   12.6020   23.4400 C   0  0  0  0  0  0  0  0  0  0  0  0
   -2.8640   12.2540   22.7450 C   0  0  0  0  0  0  0  0  0  0  0  0
   -1.8120   11.5520   23.3400 C   0  0  0  0  0  0  0  0  0  0  0  0
   -0.6840   11.1680   22.6990 N   0  0  0  0  0  0  0  0  0  0  0  0
   -1.4200   12.4810   19.6540 H   0  0  0  0  0  0  0  0  0  0  0  0
   -3.6780   13.6170   19.7120 H   0  0  0  0  0  0  0  0  0  0  0  0
   -5.7250   14.1910   20.9560 H   0  0  0  0  0  0  0  0  0  0  0  0
   -5.9710   13.5400   23.3390 H   0  0  0  0  0  0  0  0  0  0  0  0
   -4.1540   12.3400   24.4910 H   0  0  0  0  0  0  0  0  0  0  0  0
   -1.8620   11.2520   24.3820 H   0  0  0  0  0  0  0  0  0  0  0  0
    3.1320    5.5120   19.8770 C   0  0  1  0  0  0  0  0  0  0  0  0
    3.9740    5.6730   20.5640 H   0  0  0  0  0  0  0  0  0  0  0  0
    2.0430    4.7840   20.6620 C   0  0  0  0  0  0  0  0  0  0  0  0
    1.0730    5.2700   20.5180 H   0  0  0  0  0  0  0  0  0  0  0  0
    1.9310    3.7400   20.3580 H   0  0  0  0  0  0  0  0  0  0  0  0
    2.2530    4.7990   21.7380 H   0  0  0  0  0  0  0  0  0  0  0  0
    3.6860    4.4420   18.4840 S   0  0  0  0  0  0  0  0  0  0  0  0
    5.3790    4.7950   18.4400 C   0  0  1  0  0  3  0  0  0  0  0  0
    6.0520    5.4000   19.4000 N   0  0  0  0  0  0  0  0  0  0  0  0
    7.3360    5.3670   18.9290 C   0  0  0  0  0  0  0  0  0  0  0  0
    7.5010    4.7970   17.7400 N   0  0  0  0  0  2  0  0  0  0  0  0
    6.2400    4.4240   17.4460 N   0  0  0  0  0  0  0  0  0  0  0  0
    5.8370    3.7740   15.9020 Cl  0  0  0  0  0  0  0  0  0  0  0  0
    8.1750    5.7830   19.4710 H   0  0  0  0  0  0  0  0  0  0  0  0
  1 31  1  0  0  0  0
  1  2  1  0  0  0  0
  2  7  1  0  0  0  0
  3  2  2  0  0  0  0
  3 11  1  0  0  0  0
  4  3  1  0  0  0  0
  5  6  1  0  0  0  0
  5  4  2  0  0  0  0
  6  1  2  0  0  0  0
  8  4  1  0  0  0  0
  9  5  1  0  0  0  0
 10  6  1  0  0  0  0
 11 14  1  0  0  0  0
 11 12  1  0  0  0  0
 12 15  1  0  0  0  0
 13 12  2  0  0  0  0
 15 24  1  0  0  0  0
 16 17  1  0  0  0  0
 16 15  2  0  0  0  0
 17 22  1  0  0  0  0
 18 17  2  0  0  0  0
 18 19  1  0  0  0  0
 19 20  2  0  0  0  0
 20 28  1  0  0  0  0
 20 21  1  0  0  0  0
 21 29  1  0  0  0  0
 22 23  1  0  0  0  0
 22 21  2  0  0  0  0
 23 30  1  0  0  0  0
 24 23  2  0  0  0  0
 25 16  1  0  0  0  0
 26 18  1  0  0  0  0
 27 19  1  0  0  0  0
 31 32  1  1  0  0  0
 31 33  1  0  0  0  0
 33 36  1  0  0  0  0
 34 33  1  0  0  0  0
 35 33  1  0  0  0  0
 37 31  1  0  0  0  0
 38 37  1  1  0  0  0
 38 39  1  0  0  0  0
 40 39  2  0  0  0  0
 40 44  1  0  0  0  0
 41 40  1  0  0  0  0
 42 41  1  0  0  0  0
 42 38  1  0  0  0  0
 43 42  1  0  0  0  0
M  END
>  <MODEL>
4

>  <REMARK>
 VINA RESULT:    -8.006      4.034      9.909
 INTER + INTRA:         -10.954
 INTER:                 -10.420
 INTRA:                  -0.535
 UNBOUND:                -0.375
  Name = 
  6 active torsions:
  status: ('A' for Active; 'I' for Inactive)
    1  A    between atoms: C_1  and  C_2
    2  A    between atoms: C_2  and  C_3
    3  A    between atoms: C_2  and  S_22
    4  A    between atoms: C_5  and  N_9
    5  A    between atoms: C_10  and  C_12
    6  A    between atoms: S_22  and  C_23
                            x       y       z     vdW  Elec       q    Type
                         _______ _______ _______ _____ _____    ______ ____

>  <TORSDO>
F 6

$$$$
=
 OpenBabel07192307433D

 44 47  0  0  1  0  0  0  0  0999 V2000
   -0.2000   10.1730   19.3600 C   0  0  0  0  0  0  0  0  0  0  0  0
    0.9000    9.3560   19.0430 C   0  0  0  0  0  0  0  0  0  0  0  0
    1.4830    8.5150   20.0010 C   0  0  0  0  0  0  0  0  0  0  0  0
    0.9980    8.5340   21.3040 C   0  0  0  0  0  0  0  0  0  0  0  0
   -0.0570    9.3780   21.6490 C   0  0  0  0  0  0  0  0  0  0  0  0
   -0.6570   10.1880   20.6840 C   0  0  0  0  0  0  0  0  0  0  0  0
    1.2610    9.3190   18.0180 H   0  0  0  0  0  0  0  0  0  0  0  0
    1.4270    7.9010   22.0760 H   0  0  0  0  0  0  0  0  0  0  0  0
   -0.4340    9.3770   22.6750 H   0  0  0  0  0  0  0  0  0  0  0  0
   -1.5020   10.8030   20.9800 H   0  0  0  0  0  0  0  0  0  0  0  0
    2.5120    7.6650   19.5620 N   0  0  0  0  0  0  0  0  0  0  0  0
    2.5640    6.2900   19.6480 C   0  0  0  0  0  0  0  0  0  0  0  0
    1.7560    5.5470   20.1980 O   0  0  0  0  0  0  0  0  0  0  0  0
    3.2280    8.0580   18.9610 H   0  0  0  0  0  0  0  0  0  0  0  0
    3.7170    5.7170   18.8730 C   0  0  0  0  0  0  0  0  0  0  0  0
    3.7730    5.8810   17.4920 C   0  0  0  0  0  0  0  0  0  0  0  0
    4.9170    5.4410   16.8140 C   0  0  0  0  0  0  0  0  0  0  0  0
    5.0600    5.5940   15.4220 C   0  0  0  0  0  0  0  0  0  0  0  0
    6.2230    5.1670   14.7780 C   0  0  0  0  0  0  0  0  0  0  0  0
    7.2550    4.5810   15.5080 C   0  0  0  0  0  0  0  0  0  0  0  0
    7.1220    4.4070   16.8830 C   0  0  0  0  0  0  0  0  0  0  0  0
    5.9620    4.8400   17.5490 C   0  0  0  0  0  0  0  0  0  0  0  0
    5.7880    4.7080   18.9300 C   0  0  0  0  0  0  0  0  0  0  0  0
    4.7040    5.1410   19.6140 N   0  0  0  0  0  0  0  0  0  0  0  0
    2.9610    6.3720   16.9710 H   0  0  0  0  0  0  0  0  0  0  0  0
    4.2650    6.0450   14.8310 H   0  0  0  0  0  0  0  0  0  0  0  0
    6.3220    5.2930   13.7020 H   0  0  0  0  0  0  0  0  0  0  0  0
    8.1610    4.2520   15.0040 H   0  0  0  0  0  0  0  0  0  0  0  0
    7.9320    3.9320   17.4360 H   0  0  0  0  0  0  0  0  0  0  0  0
    6.5550    4.2490   19.5460 H   0  0  0  0  0  0  0  0  0  0  0  0
   -0.9530   10.9450   18.2940 C   0  0  1  0  0  0  0  0  0  0  0  0
   -0.4180   10.8440   17.3410 H   0  0  0  0  0  0  0  0  0  0  0  0
   -2.3750   10.4330   18.0690 C   0  0  0  0  0  0  0  0  0  0  0  0
   -2.6180   10.4250   17.0030 H   0  0  0  0  0  0  0  0  0  0  0  0
   -2.5200    9.4170   18.4430 H   0  0  0  0  0  0  0  0  0  0  0  0
   -3.1110   11.0800   18.5620 H   0  0  0  0  0  0  0  0  0  0  0  0
   -1.0230   12.7260   18.7620 S   0  0  0  0  0  0  0  0  0  0  0  0
    0.6500   13.0670   19.0420 C   0  0  1  0  0  3  0  0  0  0  0  0
    1.5940   13.0330   18.1200 N   0  0  0  0  0  0  0  0  0  0  0  0
    2.6980   13.4500   18.8120 C   0  0  0  0  0  0  0  0  0  0  0  0
    2.5060   13.7240   20.0980 N   0  0  0  0  0  2  0  0  0  0  0  0
    1.1860   13.4860   20.2260 N   0  0  0  0  0  0  0  0  0  0  0  0
    0.4170   13.5200   21.7670 Cl  0  0  0  0  0  0  0  0  0  0  0  0
    3.6770   13.5460   18.3610 H   0  0  0  0  0  0  0  0  0  0  0  0
  1  6  1  0  0  0  0
  2  1  2  0  0  0  0
  2  3  1  0  0  0  0
  3  4  2  0  0  0  0
  4  5  1  0  0  0  0
  4  8  1  0  0  0  0
  5  9  1  0  0  0  0
  6 10  1  0  0  0  0
  6  5  2  0  0  0  0
  7  2  1  0  0  0  0
 11 12  1  0  0  0  0
 11  3  1  0  0  0  0
 12 13  2  0  0  0  0
 14 11  1  0  0  0  0
 15 24  1  0  0  0  0
 15 12  1  0  0  0  0
 16 15  2  0  0  0  0
 17 16  1  0  0  0  0
 17 22  1  0  0  0  0
 18 17  2  0  0  0  0
 19 18  1  0  0  0  0
 19 20  2  0  0  0  0
 20 21  1  0  0  0  0
 21 29  1  0  0  0  0
 21 22  2  0  0  0  0
 22 23  1  0  0  0  0
 23 30  1  0  0  0  0
 23 24  2  0  0  0  0
 25 16  1  0  0  0  0
 26 18  1  0  0  0  0
 27 19  1  0  0  0  0
 28 20  1  0  0  0  0
 31 32  1  6  0  0  0
 31 37  1  0  0  0  0
 31  1  1  0  0  0  0
 33 31  1  0  0  0  0
 33 35  1  0  0  0  0
 33 36  1  0  0  0  0
 34 33  1  0  0  0  0
 38 37  1  6  0  0  0
 38 42  1  0  0  0  0
 39 40  2  0  0  0  0
 39 38  1  0  0  0  0
 40 41  1  0  0  0  0
 41 42  1  0  0  0  0
 42 43  1  0  0  0  0
 44 40  1  0  0  0  0
M  END
>  <MODEL>
5

>  <REMARK>
 VINA RESULT:    -7.938      2.815      3.480
 INTER + INTRA:         -10.866
 INTER:                  -9.980
 INTRA:                  -0.885
 UNBOUND:                -0.375
  Name = 
  6 active torsions:
  status: ('A' for Active; 'I' for Inactive)
    1  A    between atoms: C_1  and  C_2
    2  A    between atoms: C_2  and  C_3
    3  A    between atoms: C_2  and  S_22
    4  A    between atoms: C_5  and  N_9
    5  A    between atoms: C_10  and  C_12
    6  A    between atoms: S_22  and  C_23
                            x       y       z     vdW  Elec       q    Type
                         _______ _______ _______ _____ _____    ______ ____

>  <TORSDO>
F 6

$$$$
=
 OpenBabel07192307433D

 44 47  0  0  1  0  0  0  0  0999 V2000
    3.0370    3.3820   19.2450 C   0  0  0  0  0  0  0  0  0  0  0  0
    2.4890    4.6610   19.4470 C   0  0  0  0  0  0  0  0  0  0  0  0
    2.0220    5.0640   20.7060 C   0  0  0  0  0  0  0  0  0  0  0  0
    2.0480    4.1570   21.7600 C   0  0  0  0  0  0  0  0  0  0  0  0
    2.5380    2.8650   21.5640 C   0  0  0  0  0  0  0  0  0  0  0  0
    3.0340    2.4810   20.3180 C   0  0  0  0  0  0  0  0  0  0  0  0
    2.4940    5.3800   18.6310 H   0  0  0  0  0  0  0  0  0  0  0  0
    1.6910    4.4290   22.7490 H   0  0  0  0  0  0  0  0  0  0  0  0
    2.5610    2.1660   22.4020 H   0  0  0  0  0  0  0  0  0  0  0  0
    3.4440    1.4800   20.2130 H   0  0  0  0  0  0  0  0  0  0  0  0
    1.5860    6.3930   20.8300 N   0  0  0  0  0  0  0  0  0  0  0  0
    1.9330    7.4710   20.0430 C   0  0  0  0  0  0  0  0  0  0  0  0
    2.7550    7.4930   19.1320 O   0  0  0  0  0  0  0  0  0  0  0  0
    0.8010    6.5800   21.4440 H   0  0  0  0  0  0  0  0  0  0  0  0
    1.0960    8.6820   20.3410 C   0  0  0  0  0  0  0  0  0  0  0  0
    0.4370    8.7860   21.5630 C   0  0  0  0  0  0  0  0  0  0  0  0
   -0.2360    9.9780   21.8580 C   0  0  0  0  0  0  0  0  0  0  0  0
   -0.9030   10.1690   23.0830 C   0  0  0  0  0  0  0  0  0  0  0  0
   -1.5460   11.3780   23.3580 C   0  0  0  0  0  0  0  0  0  0  0  0
   -1.5360   12.4090   22.4200 C   0  0  0  0  0  0  0  0  0  0  0  0
   -0.8940   12.2290   21.1970 C   0  0  0  0  0  0  0  0  0  0  0  0
   -0.2340   11.0220   20.9070 C   0  0  0  0  0  0  0  0  0  0  0  0
    0.4420   10.7990   19.7050 C   0  0  0  0  0  0  0  0  0  0  0  0
    1.1180    9.6670   19.4000 N   0  0  0  0  0  0  0  0  0  0  0  0
    0.4850    7.9720   22.2740 H   0  0  0  0  0  0  0  0  0  0  0  0
   -0.9280    9.3780   23.8280 H   0  0  0  0  0  0  0  0  0  0  0  0
   -2.0570   11.5140   24.3090 H   0  0  0  0  0  0  0  0  0  0  0  0
   -2.0350   13.3500   22.6380 H   0  0  0  0  0  0  0  0  0  0  0  0
   -0.9100   13.0390   20.4690 H   0  0  0  0  0  0  0  0  0  0  0  0
    0.4730   11.5630   18.9340 H   0  0  0  0  0  0  0  0  0  0  0  0
    3.7110    2.9990   17.9410 C   0  0  1  0  0  0  0  0  0  0  0  0
    4.6280    2.4400   18.1690 H   0  0  0  0  0  0  0  0  0  0  0  0
    2.8450    2.1060   17.0550 C   0  0  0  0  0  0  0  0  0  0  0  0
    1.9850    2.6610   16.6710 H   0  0  0  0  0  0  0  0  0  0  0  0
    3.3900    1.7140   16.1920 H   0  0  0  0  0  0  0  0  0  0  0  0
    2.4520    1.2510   17.6190 H   0  0  0  0  0  0  0  0  0  0  0  0
    4.1500    4.5260   17.0080 S   0  0  0  0  0  0  0  0  0  0  0  0
    5.6670    4.9380   17.7310 C   0  0  1  0  0  3  0  0  0  0  0  0
    5.8230    5.3850   18.9620 N   0  0  0  0  0  0  0  0  0  0  0  0
    7.1840    5.4790   19.0740 C   0  0  0  0  0  0  0  0  0  0  0  0
    7.8770    5.1350   17.9930 N   0  0  0  0  0  2  0  0  0  0  0  0
    6.8920    4.7790   17.1470 N   0  0  0  0  0  0  0  0  0  0  0  0
    7.2230    4.4000   15.4990 Cl  0  0  0  0  0  0  0  0  0  0  0  0
    7.6810    5.8190   19.9720 H   0  0  0  0  0  0  0  0  0  0  0  0
  1  2  2  0  0  0  0
  1  6  1  0  0  0  0
  2  3  1  0  0  0  0
  3 11  1  0  0  0  0
  3  4  2  0  0  0  0
  4  8  1  0  0  0  0
  5  4  1  0  0  0  0
  5  9  1  0  0  0  0
  6  5  2  0  0  0  0
  7  2  1  0  0  0  0
 10  6  1  0  0  0  0
 11 14  1  0  0  0  0
 12 15  1  0  0  0  0
 12 11  1  0  0  0  0
 13 12  2  0  0  0  0
 15 16  1  0  0  0  0
 16 17  2  0  0  0  0
 16 25  1  0  0  0  0
 17 18  1  0  0  0  0
 18 19  2  0  0  0  0
 18 26  1  0  0  0  0
 19 27  1  0  0  0  0
 20 28  1  0  0  0  0
 20 19  1  0  0  0  0
 21 20  2  0  0  0  0
 22 21  1  0  0  0  0
 22 17  1  0  0  0  0
 23 22  2  0  0  0  0
 24 23  1  0  0  0  0
 24 15  2  0  0  0  0
 29 21  1  0  0  0  0
 30 23  1  0  0  0  0
 31 32  1  1  0  0  0
 31  1  1  0  0  0  0
 33 36  1  0  0  0  0
 33 31  1  0  0  0  0
 34 33  1  0  0  0  0
 35 33  1  0  0  0  0
 37 31  1  0  0  0  0
 38 37  1  1  0  0  0
 38 39  1  0  0  0  0
 39 40  2  0  0  0  0
 40 44  1  0  0  0  0
 41 40  1  0  0  0  0
 42 38  1  0  0  0  0
 42 41  1  0  0  0  0
 43 42  1  0  0  0  0
M  END
>  <MODEL>
6

>  <REMARK>
 VINA RESULT:    -7.879      3.961      9.190
 INTER + INTRA:         -10.787
 INTER:                 -10.480
 INTRA:                  -0.306
 UNBOUND:                -0.375
  Name = 
  6 active torsions:
  status: ('A' for Active; 'I' for Inactive)
    1  A    between atoms: C_1  and  C_2
    2  A    between atoms: C_2  and  C_3
    3  A    between atoms: C_2  and  S_22
    4  A    between atoms: C_5  and  N_9
    5  A    between atoms: C_10  and  C_12
    6  A    between atoms: S_22  and  C_23
                            x       y       z     vdW  Elec       q    Type
                         _______ _______ _______ _____ _____    ______ ____

>  <TORSDO>
F 6

$$$$
=
 OpenBabel07192307433D

 44 47  0  0  1  0  0  0  0  0999 V2000
   -0.6370   11.1260   20.8810 C   0  0  0  0  0  0  0  0  0  0  0  0
    0.0490   10.0620   20.2670 C   0  0  0  0  0  0  0  0  0  0  0  0
    0.5590    8.9940   21.0180 C   0  0  0  0  0  0  0  0  0  0  0  0
    0.4330    9.0180   22.4030 C   0  0  0  0  0  0  0  0  0  0  0  0
   -0.1970   10.0910   23.0330 C   0  0  0  0  0  0  0  0  0  0  0  0
   -0.7330   11.1350   22.2790 C   0  0  0  0  0  0  0  0  0  0  0  0
    0.1240   10.0290   19.1830 H   0  0  0  0  0  0  0  0  0  0  0  0
    0.8200    8.2110   23.0190 H   0  0  0  0  0  0  0  0  0  0  0  0
   -0.2970   10.0940   24.1210 H   0  0  0  0  0  0  0  0  0  0  0  0
   -1.2520   11.9350   22.8010 H   0  0  0  0  0  0  0  0  0  0  0  0
    1.1410    7.9330   20.3050 N   0  0  0  0  0  0  0  0  0  0  0  0
    1.9710    8.0100   19.2070 C   0  0  0  0  0  0  0  0  0  0  0  0
    2.2980    9.0200   18.5900 O   0  0  0  0  0  0  0  0  0  0  0  0
    1.1050    7.0070   20.7170 H   0  0  0  0  0  0  0  0  0  0  0  0
    2.5710    6.6790   18.8560 C   0  0  0  0  0  0  0  0  0  0  0  0
    2.0380    5.5130   19.4000 C   0  0  0  0  0  0  0  0  0  0  0  0
    2.5410    4.2820   18.9610 C   0  0  0  0  0  0  0  0  0  0  0  0
    2.0350    3.0600   19.4440 C   0  0  0  0  0  0  0  0  0  0  0  0
    2.5410    1.8470   18.9700 C   0  0  0  0  0  0  0  0  0  0  0  0
    3.5550    1.8350   18.0130 C   0  0  0  0  0  0  0  0  0  0  0  0
    4.0770    3.0360   17.5380 C   0  0  0  0  0  0  0  0  0  0  0  0
    3.5730    4.2650   17.9970 C   0  0  0  0  0  0  0  0  0  0  0  0
    4.0470    5.4970   17.5370 C   0  0  0  0  0  0  0  0  0  0  0  0
    3.5670    6.7000   17.9270 N   0  0  0  0  0  0  0  0  0  0  0  0
    1.2280    5.5710   20.1150 H   0  0  0  0  0  0  0  0  0  0  0  0
    1.2470    3.0450   20.1930 H   0  0  0  0  0  0  0  0  0  0  0  0
    2.1410    0.9100   19.3490 H   0  0  0  0  0  0  0  0  0  0  0  0
    3.9450    0.8900   17.6430 H   0  0  0  0  0  0  0  0  0  0  0  0
    4.8800    3.0070   16.8030 H   0  0  0  0  0  0  0  0  0  0  0  0
    4.8430    5.5470   16.8000 H   0  0  0  0  0  0  0  0  0  0  0  0
   -1.3500   12.1890   20.0690 C   0  0  1  0  0  0  0  0  0  0  0  0
   -2.3980   12.2370   20.3930 H   0  0  0  0  0  0  0  0  0  0  0  0
   -0.7570   13.5850   20.2500 C   0  0  0  0  0  0  0  0  0  0  0  0
   -0.2910   13.9300   19.3230 H   0  0  0  0  0  0  0  0  0  0  0  0
   -1.5070   14.3280   20.5320 H   0  0  0  0  0  0  0  0  0  0  0  0
    0.0220   13.5860   21.0220 H   0  0  0  0  0  0  0  0  0  0  0  0
   -1.2900   11.7390   18.2830 S   0  0  0  0  0  0  0  0  0  0  0  0
   -2.9730   11.5670   17.9220 C   0  0  1  0  0  3  0  0  0  0  0  0
   -3.9580   11.8390   18.7570 N   0  0  0  0  0  0  0  0  0  0  0  0
   -5.0680   11.6230   17.9870 C   0  0  0  0  0  0  0  0  0  0  0  0
   -4.8380   11.2240   16.7400 N   0  0  0  0  0  2  0  0  0  0  0  0
   -3.4910   11.2060   16.7110 N   0  0  0  0  0  0  0  0  0  0  0  0
   -2.6350   10.5820   15.3520 Cl  0  0  0  0  0  0  0  0  0  0  0  0
   -6.0770   11.7540   18.3540 H   0  0  0  0  0  0  0  0  0  0  0  0
  1  6  1  0  0  0  0
  2  1  2  0  0  0  0
  2  3  1  0  0  0  0
  3  4  2  0  0  0  0
  4  8  1  0  0  0  0
  4  5  1  0  0  0  0
  5  9  1  0  0  0  0
  6 10  1  0  0  0  0
  6  5  2  0  0  0  0
  7  2  1  0  0  0  0
 11 14  1  0  0  0  0
 11  3  1  0  0  0  0
 12 11  1  0  0  0  0
 13 12  2  0  0  0  0
 15 12  1  0  0  0  0
 15 16  1  0  0  0  0
 16 25  1  0  0  0  0
 17 16  2  0  0  0  0
 17 18  1  0  0  0  0
 18 26  1  0  0  0  0
 19 27  1  0  0  0  0
 19 18  2  0  0  0  0
 20 19  1  0  0  0  0
 21 22  1  0  0  0  0
 21 20  2  0  0  0  0
 22 17  1  0  0  0  0
 23 24  1  0  0  0  0
 23 22  2  0  0  0  0
 24 15  2  0  0  0  0
 28 20  1  0  0  0  0
 29 21  1  0  0  0  0
 30 23  1  0  0  0  0
 31 33  1  0  0  0  0
 31 32  1  1  0  0  0
 31  1  1  0  0  0  0
 33 35  1  0  0  0  0
 33 36  1  0  0  0  0
 34 33  1  0  0  0  0
 37 31  1  0  0  0  0
 38 37  1  6  0  0  0
 38 39  1  0  0  0  0
 40 44  1  0  0  0  0
 40 39  2  0  0  0  0
 41 40  1  0  0  0  0
 42 41  1  0  0  0  0
 42 38  1  0  0  0  0
 43 42  1  0  0  0  0
M  END
>  <MODEL>
7

>  <REMARK>
 VINA RESULT:    -7.866      1.622      2.428
 INTER + INTRA:         -10.770
 INTER:                 -10.290
 INTRA:                  -0.480
 UNBOUND:                -0.375
  Name = 
  6 active torsions:
  status: ('A' for Active; 'I' for Inactive)
    1  A    between atoms: C_1  and  C_2
    2  A    between atoms: C_2  and  C_3
    3  A    between atoms: C_2  and  S_22
    4  A    between atoms: C_5  and  N_9
    5  A    between atoms: C_10  and  C_12
    6  A    between atoms: S_22  and  C_23
                            x       y       z     vdW  Elec       q    Type
                         _______ _______ _______ _____ _____    ______ ____

>  <TORSDO>
F 6

$$$$
=
 OpenBabel07192307433D

 44 47  0  0  1  0  0  0  0  0999 V2000
    3.3350    3.7960   19.1710 C   0  0  0  0  0  0  0  0  0  0  0  0
    2.7850    5.0260   19.5770 C   0  0  0  0  0  0  0  0  0  0  0  0
    2.0240    5.1320   20.7490 C   0  0  0  0  0  0  0  0  0  0  0  0
    1.7600    3.9870   21.4920 C   0  0  0  0  0  0  0  0  0  0  0  0
    2.2510    2.7490   21.0750 C   0  0  0  0  0  0  0  0  0  0  0  0
    3.0370    2.6540   19.9260 C   0  0  0  0  0  0  0  0  0  0  0  0
    3.0150    5.9270   19.0130 H   0  0  0  0  0  0  0  0  0  0  0  0
    1.1700    4.0280   22.4030 H   0  0  0  0  0  0  0  0  0  0  0  0
    2.0430    1.8590   21.6710 H   0  0  0  0  0  0  0  0  0  0  0  0
    3.4360    1.6810   19.6530 H   0  0  0  0  0  0  0  0  0  0  0  0
    1.6040    6.4190   21.1220 N   0  0  0  0  0  0  0  0  0  0  0  0
    1.6870    7.5810   20.3840 C   0  0  0  0  0  0  0  0  0  0  0  0
    2.2210    7.7300   19.2890 O   0  0  0  0  0  0  0  0  0  0  0  0
    1.0180    6.5080   21.9450 H   0  0  0  0  0  0  0  0  0  0  0  0
    0.9340    8.7130   21.0220 C   0  0  0  0  0  0  0  0  0  0  0  0
    0.2920    9.6550   20.2230 C   0  0  0  0  0  0  0  0  0  0  0  0
   -0.5000   10.6290   20.8460 C   0  0  0  0  0  0  0  0  0  0  0  0
   -1.2020   11.5990   20.1050 C   0  0  0  0  0  0  0  0  0  0  0  0
   -2.0030   12.5420   20.7530 C   0  0  0  0  0  0  0  0  0  0  0  0
   -2.1130   12.5340   22.1420 C   0  0  0  0  0  0  0  0  0  0  0  0
   -1.4120   11.5910   22.8900 C   0  0  0  0  0  0  0  0  0  0  0  0
   -0.6090   10.6290   22.2540 C   0  0  0  0  0  0  0  0  0  0  0  0
    0.0980    9.6480   22.9560 C   0  0  0  0  0  0  0  0  0  0  0  0
    0.8530    8.6840   22.3820 N   0  0  0  0  0  0  0  0  0  0  0  0
    0.3810    9.6020   19.1460 H   0  0  0  0  0  0  0  0  0  0  0  0
   -1.1270   11.6270   19.0200 H   0  0  0  0  0  0  0  0  0  0  0  0
   -2.5410   13.2850   20.1690 H   0  0  0  0  0  0  0  0  0  0  0  0
   -2.7400   13.2670   22.6440 H   0  0  0  0  0  0  0  0  0  0  0  0
   -1.4970   11.6090   23.9760 H   0  0  0  0  0  0  0  0  0  0  0  0
    0.0570    9.6010   24.0400 H   0  0  0  0  0  0  0  0  0  0  0  0
    4.3070    3.7020   18.0120 C   0  0  1  0  0  0  0  0  0  0  0  0
    5.2970    3.4300   18.4030 H   0  0  0  0  0  0  0  0  0  0  0  0
    3.9200    2.6390   16.9850 C   0  0  0  0  0  0  0  0  0  0  0  0
    3.1690    1.9600   17.3980 H   0  0  0  0  0  0  0  0  0  0  0  0
    3.5020    3.0690   16.0710 H   0  0  0  0  0  0  0  0  0  0  0  0
    4.7860    2.0290   16.7020 H   0  0  0  0  0  0  0  0  0  0  0  0
    4.4190    5.3380   17.1700 S   0  0  0  0  0  0  0  0  0  0  0  0
    5.6010    5.0090   15.9510 C   0  0  1  0  0  3  0  0  0  0  0  0
    5.3560    4.9480   14.6550 N   0  0  0  0  0  0  0  0  0  0  0  0
    6.6030    4.7490   14.1270 C   0  0  0  0  0  0  0  0  0  0  0  0
    7.5970    4.6680   15.0060 N   0  0  0  0  0  2  0  0  0  0  0  0
    6.9400    4.8490   16.1680 N   0  0  0  0  0  0  0  0  0  0  0  0
    7.7390    4.6660   17.6840 Cl  0  0  0  0  0  0  0  0  0  0  0  0
    6.7860    4.6500   13.0660 H   0  0  0  0  0  0  0  0  0  0  0  0
  1  2  2  0  0  0  0
  1  6  1  0  0  0  0
  2  3  1  0  0  0  0
  3 11  1  0  0  0  0
  3  4  2  0  0  0  0
  4  8  1  0  0  0  0
  5  4  1  0  0  0  0
  5  9  1  0  0  0  0
  6  5  2  0  0  0  0
  7  2  1  0  0  0  0
 10  6  1  0  0  0  0
 11 14  1  0  0  0  0
 12 15  1  0  0  0  0
 12 11  1  0  0  0  0
 13 12  2  0  0  0  0
 15 24  1  0  0  0  0
 16 17  1  0  0  0  0
 16 15  2  0  0  0  0
 17 22  1  0  0  0  0
 18 19  1  0  0  0  0
 18 17  2  0  0  0  0
 19 20  2  0  0  0  0
 20 28  1  0  0  0  0
 20 21  1  0  0  0  0
 21 29  1  0  0  0  0
 22 21  2  0  0  0  0
 22 23  1  0  0  0  0
 23 30  1  0  0  0  0
 24 23  2  0  0  0  0
 25 16  1  0  0  0  0
 26 18  1  0  0  0  0
 27 19  1  0  0  0  0
 31 32  1  1  0  0  0
 31  1  1  0  0  0  0
 33 34  1  0  0  0  0
 33 31  1  0  0  0  0
 35 33  1  0  0  0  0
 36 33  1  0  0  0  0
 37 31  1  0  0  0  0
 38 42  1  0  0  0  0
 38 37  1  6  0  0  0
 39 38  1  0  0  0  0
 40 39  2  0  0  0  0
 40 41  1  0  0  0  0
 41 42  1  0  0  0  0
 42 43  1  0  0  0  0
 44 40  1  0  0  0  0
M  END
>  <MODEL>
8

>  <REMARK>
 VINA RESULT:    -7.823      4.144      9.256
 INTER + INTRA:         -10.713
 INTER:                 -10.495
 INTRA:                  -0.218
 UNBOUND:                -0.375
  Name = 
  6 active torsions:
  status: ('A' for Active; 'I' for Inactive)
    1  A    between atoms: C_1  and  C_2
    2  A    between atoms: C_2  and  C_3
    3  A    between atoms: C_2  and  S_22
    4  A    between atoms: C_5  and  N_9
    5  A    between atoms: C_10  and  C_12
    6  A    between atoms: S_22  and  C_23
                            x       y       z     vdW  Elec       q    Type
                         _______ _______ _______ _____ _____    ______ ____

>  <TORSDO>
F 6

$$$$
=
 OpenBabel07192307433D

 44 47  0  0  1  0  0  0  0  0999 V2000
    0.0670   11.5370   21.4210 C   0  0  0  0  0  0  0  0  0  0  0  0
    0.8290   10.5280   20.8070 C   0  0  0  0  0  0  0  0  0  0  0  0
    0.7990    9.2060   21.2730 C   0  0  0  0  0  0  0  0  0  0  0  0
    0.0430    8.9030   22.4000 C   0  0  0  0  0  0  0  0  0  0  0  0
   -0.6770    9.9030   23.0540 C   0  0  0  0  0  0  0  0  0  0  0  0
   -0.6700   11.2100   22.5660 C   0  0  0  0  0  0  0  0  0  0  0  0
    1.3980   10.7580   19.9090 H   0  0  0  0  0  0  0  0  0  0  0  0
   -0.0020    7.8910   22.7950 H   0  0  0  0  0  0  0  0  0  0  0  0
   -1.2730    9.6490   23.9340 H   0  0  0  0  0  0  0  0  0  0  0  0
   -1.2740   11.9540   23.0770 H   0  0  0  0  0  0  0  0  0  0  0  0
    1.5160    8.2520   20.5330 N   0  0  0  0  0  0  0  0  0  0  0  0
    1.7440    8.2360   19.1730 C   0  0  0  0  0  0  0  0  0  0  0  0
    1.2940    9.0110   18.3340 O   0  0  0  0  0  0  0  0  0  0  0  0
    2.0840    7.5840   21.0430 H   0  0  0  0  0  0  0  0  0  0  0  0
    2.7380    7.1820   18.7780 C   0  0  0  0  0  0  0  0  0  0  0  0
    3.4460    7.3090   17.5860 C   0  0  0  0  0  0  0  0  0  0  0  0
    4.4500    6.3740   17.3030 C   0  0  0  0  0  0  0  0  0  0  0  0
    5.2270    6.4510   16.1320 C   0  0  0  0  0  0  0  0  0  0  0  0
    6.2370    5.5170   15.8880 C   0  0  0  0  0  0  0  0  0  0  0  0
    6.4840    4.4960   16.8040 C   0  0  0  0  0  0  0  0  0  0  0  0
    5.7130    4.3970   17.9600 C   0  0  0  0  0  0  0  0  0  0  0  0
    4.6990    5.3340   18.2240 C   0  0  0  0  0  0  0  0  0  0  0  0
    3.9120    5.2910   19.3790 C   0  0  0  0  0  0  0  0  0  0  0  0
    2.9500    6.1910   19.6880 N   0  0  0  0  0  0  0  0  0  0  0  0
    3.2410    8.1380   16.9210 H   0  0  0  0  0  0  0  0  0  0  0  0
    5.0490    7.2370   15.4010 H   0  0  0  0  0  0  0  0  0  0  0  0
    6.8310    5.5890   14.9800 H   0  0  0  0  0  0  0  0  0  0  0  0
    7.2730    3.7720   16.6140 H   0  0  0  0  0  0  0  0  0  0  0  0
    5.9090    3.5830   18.6560 H   0  0  0  0  0  0  0  0  0  0  0  0
    4.0540    4.5110   20.1210 H   0  0  0  0  0  0  0  0  0  0  0  0
   -0.0520   12.9240   20.8190 C   0  0  1  0  0  0  0  0  0  0  0  0
   -0.8720   13.4570   21.3180 H   0  0  0  0  0  0  0  0  0  0  0  0
    1.2090   13.7680   20.9960 C   0  0  0  0  0  0  0  0  0  0  0  0
    1.3060   14.4920   20.1820 H   0  0  0  0  0  0  0  0  0  0  0  0
    1.2100   14.3310   21.9330 H   0  0  0  0  0  0  0  0  0  0  0  0
    2.1090   13.1430   20.9790 H   0  0  0  0  0  0  0  0  0  0  0  0
   -0.4310   12.7810   19.0210 S   0  0  0  0  0  0  0  0  0  0  0  0
   -2.0980   12.3190   19.0640 C   0  0  1  0  0  3  0  0  0  0  0  0
   -2.9980   12.8070   19.8960 N   0  0  0  0  0  0  0  0  0  0  0  0
   -4.1490   12.1950   19.4800 C   0  0  0  0  0  0  0  0  0  0  0  0
   -4.0190   11.3520   18.4600 N   0  0  0  0  0  2  0  0  0  0  0  0
   -2.7020   11.4530   18.1970 N   0  0  0  0  0  0  0  0  0  0  0  0
   -1.9390   10.4210   17.0480 Cl  0  0  0  0  0  0  0  0  0  0  0  0
   -5.1100   12.3650   19.9460 H   0  0  0  0  0  0  0  0  0  0  0  0
  1  6  1  0  0  0  0
  2  3  1  0  0  0  0
  2  1  2  0  0  0  0
  3  4  2  0  0  0  0
  4  8  1  0  0  0  0
  4  5  1  0  0  0  0
  5  9  1  0  0  0  0
  6  5  2  0  0  0  0
  6 10  1  0  0  0  0
  7  2  1  0  0  0  0
 11 14  1  0  0  0  0
 11  3  1  0  0  0  0
 12 11  1  0  0  0  0
 13 12  2  0  0  0  0
 15 12  1  0  0  0  0
 15 24  1  0  0  0  0
 16 15  2  0  0  0  0
 17 16  1  0  0  0  0
 17 22  1  0  0  0  0
 18 17  2  0  0  0  0
 19 18  1  0  0  0  0
 19 20  2  0  0  0  0
 20 21  1  0  0  0  0
 21 22  2  0  0  0  0
 21 29  1  0  0  0  0
 22 23  1  0  0  0  0
 23 24  2  0  0  0  0
 23 30  1  0  0  0  0
 25 16  1  0  0  0  0
 26 18  1  0  0  0  0
 27 19  1  0  0  0  0
 28 20  1  0  0  0  0
 31 33  1  0  0  0  0
 31 32  1  1  0  0  0
 31  1  1  0  0  0  0
 33 35  1  0  0  0  0
 34 33  1  0  0  0  0
 36 33  1  0  0  0  0
 37 31  1  0  0  0  0
 38 37  1  6  0  0  0
 38 39  1  0  0  0  0
 40 39  2  0  0  0  0
 40 44  1  0  0  0  0
 41 40  1  0  0  0  0
 42 41  1  0  0  0  0
 42 38  1  0  0  0  0
 43 42  1  0  0  0  0
M  END
>  <MODEL>
9

>  <REMARK>
 VINA RESULT:    -7.792      1.720      1.936
 INTER + INTRA:         -10.672
 INTER:                 -10.150
 INTRA:                  -0.522
 UNBOUND:                -0.375
  Name = 
  6 active torsions:
  status: ('A' for Active; 'I' for Inactive)
    1  A    between atoms: C_1  and  C_2
    2  A    between atoms: C_2  and  C_3
    3  A    between atoms: C_2  and  S_22
    4  A    between atoms: C_5  and  N_9
    5  A    between atoms: C_10  and  C_12
    6  A    between atoms: S_22  and  C_23
                            x       y       z     vdW  Elec       q    Type
                         _______ _______ _______ _____ _____    ______ ____

>  <TORSDO>
F 6

$$$$
=
 OpenBabel07192307433D

 44 47  0  0  1  0  0  0  0  0999 V2000
    4.9330    5.6700   16.8750 C   0  0  0  0  0  0  0  0  0  0  0  0
    4.1170    6.6600   17.4530 C   0  0  0  0  0  0  0  0  0  0  0  0
    2.9540    6.3240   18.1600 C   0  0  0  0  0  0  0  0  0  0  0  0
    2.5710    4.9900   18.2400 C   0  0  0  0  0  0  0  0  0  0  0  0
    3.3390    4.0000   17.6270 C   0  0  0  0  0  0  0  0  0  0  0  0
    4.5140    4.3350   16.9540 C   0  0  0  0  0  0  0  0  0  0  0  0
    4.4300    7.7000   17.4150 H   0  0  0  0  0  0  0  0  0  0  0  0
    1.6740    4.6910   18.7750 H   0  0  0  0  0  0  0  0  0  0  0  0
    3.0320    2.9550   17.7050 H   0  0  0  0  0  0  0  0  0  0  0  0
    5.1080    3.5340   16.5230 H   0  0  0  0  0  0  0  0  0  0  0  0
    2.2620    7.3750   18.7840 N   0  0  0  0  0  0  0  0  0  0  0  0
    1.9970    8.6290   18.2760 C   0  0  0  0  0  0  0  0  0  0  0  0
    2.3880    9.0990   17.2110 O   0  0  0  0  0  0  0  0  0  0  0  0
    1.7400    7.1650   19.6280 H   0  0  0  0  0  0  0  0  0  0  0  0
    1.0430    9.4010   19.1420 C   0  0  0  0  0  0  0  0  0  0  0  0
    0.8470    9.0220   20.4670 C   0  0  0  0  0  0  0  0  0  0  0  0
    0.0440    9.8320   21.2810 C   0  0  0  0  0  0  0  0  0  0  0  0
   -0.1790    9.5290   22.6370 C   0  0  0  0  0  0  0  0  0  0  0  0
   -0.9660   10.3680   23.4300 C   0  0  0  0  0  0  0  0  0  0  0  0
   -1.5400   11.5150   22.8830 C   0  0  0  0  0  0  0  0  0  0  0  0
   -1.3420   11.8180   21.5390 C   0  0  0  0  0  0  0  0  0  0  0  0
   -0.5450   10.9900   20.7290 C   0  0  0  0  0  0  0  0  0  0  0  0
   -0.2980   11.2610   19.3810 C   0  0  0  0  0  0  0  0  0  0  0  0
    0.4890   10.5100   18.5760 N   0  0  0  0  0  0  0  0  0  0  0  0
    1.3410    8.1410   20.8560 H   0  0  0  0  0  0  0  0  0  0  0  0
    0.2550    8.6380   23.0840 H   0  0  0  0  0  0  0  0  0  0  0  0
   -1.1290   10.1250   24.4770 H   0  0  0  0  0  0  0  0  0  0  0  0
   -2.1500   12.1680   23.5030 H   0  0  0  0  0  0  0  0  0  0  0  0
   -1.8120   12.7100   21.1240 H   0  0  0  0  0  0  0  0  0  0  0  0
   -0.7290   12.1350   18.9000 H   0  0  0  0  0  0  0  0  0  0  0  0
    6.2820    6.0020   16.2700 C   0  0  1  0  0  0  0  0  0  0  0  0
    6.1230    6.5370   15.3240 H   0  0  0  0  0  0  0  0  0  0  0  0
    7.1360    6.9040   17.1590 C   0  0  0  0  0  0  0  0  0  0  0  0
    8.1650    6.9470   16.7900 H   0  0  0  0  0  0  0  0  0  0  0  0
    6.7630    7.9310   17.2000 H   0  0  0  0  0  0  0  0  0  0  0  0
    7.1790    6.5220   18.1860 H   0  0  0  0  0  0  0  0  0  0  0  0
    7.2050    4.4430   15.9340 S   0  0  0  0  0  0  0  0  0  0  0  0
    6.8060    4.1670   14.2730 C   0  0  1  0  0  3  0  0  0  0  0  0
    5.8480    3.3660   13.8480 N   0  0  0  0  0  0  0  0  0  0  0  0
    5.8830    3.5550   12.4930 C   0  0  0  0  0  0  0  0  0  0  0  0
    6.8040    4.4050   12.0520 N   0  0  0  0  0  2  0  0  0  0  0  0
    7.3790    4.7980   13.2060 N   0  0  0  0  0  0  0  0  0  0  0  0
    8.7840    5.7940   13.2110 Cl  0  0  0  0  0  0  0  0  0  0  0  0
    5.2180    3.0470   11.8080 H   0  0  0  0  0  0  0  0  0  0  0  0
  1  6  2  0  0  0  0
  1  2  1  0  0  0  0
  2  3  2  0  0  0  0
  3  4  1  0  0  0  0
  3 11  1  0  0  0  0
  4  8  1  0  0  0  0
  5  9  1  0  0  0  0
  5  4  2  0  0  0  0
  6  5  1  0  0  0  0
  7  2  1  0  0  0  0
 10  6  1  0  0  0  0
 11 14  1  0  0  0  0
 12 11  1  0  0  0  0
 12 15  1  0  0  0  0
 13 12  2  0  0  0  0
 15 16  1  0  0  0  0
 16 25  1  0  0  0  0
 16 17  2  0  0  0  0
 17 18  1  0  0  0  0
 18 26  1  0  0  0  0
 18 19  2  0  0  0  0
 19 27  1  0  0  0  0
 20 19  1  0  0  0  0
 20 28  1  0  0  0  0
 21 20  2  0  0  0  0
 22 17  1  0  0  0  0
 22 21  1  0  0  0  0
 23 22  2  0  0  0  0
 24 15  2  0  0  0  0
 24 23  1  0  0  0  0
 29 21  1  0  0  0  0
 30 23  1  0  0  0  0
 31 32  1  6  0  0  0
 31  1  1  0  0  0  0
 31 33  1  0  0  0  0
 33 35  1  0  0  0  0
 33 36  1  0  0  0  0
 34 33  1  0  0  0  0
 37 31  1  0  0  0  0
 38 37  1  1  0  0  0
 39 38  1  0  0  0  0
 40 39  2  0  0  0  0
 41 40  1  0  0  0  0
 41 42  1  0  0  0  0
 42 43  1  0  0  0  0
 42 38  1  0  0  0  0
 44 40  1  0  0  0  0
M  END
>  <MODEL>
10

>  <REMARK>
 VINA RESULT:    -7.787      4.271      9.571
 INTER + INTRA:         -10.666
 INTER:                 -10.286
 INTRA:                  -0.380
 UNBOUND:                -0.375
  Name = 
  6 active torsions:
  status: ('A' for Active; 'I' for Inactive)
    1  A    between atoms: C_1  and  C_2
    2  A    between atoms: C_2  and  C_3
    3  A    between atoms: C_2  and  S_22
    4  A    between atoms: C_5  and  N_9
    5  A    between atoms: C_10  and  C_12
    6  A    between atoms: S_22  and  C_23
                            x       y       z     vdW  Elec       q    Type
                         _______ _______ _______ _____ _____    ______ ____

>  <TORSDO>
F 6

$$$$
=
 OpenBabel07192307433D

 44 47  0  0  1  0  0  0  0  0999 V2000
    2.9680    3.6750   19.0440 C   0  0  0  0  0  0  0  0  0  0  0  0
    2.4500    4.9120   19.4670 C   0  0  0  0  0  0  0  0  0  0  0  0
    1.9820    5.0980   20.7750 C   0  0  0  0  0  0  0  0  0  0  0  0
    1.9780    4.0190   21.6520 C   0  0  0  0  0  0  0  0  0  0  0  0
    2.4380    2.7700   21.2330 C   0  0  0  0  0  0  0  0  0  0  0  0
    2.9350    2.6000   19.9410 C   0  0  0  0  0  0  0  0  0  0  0  0
    2.4780    5.7640   18.7910 H   0  0  0  0  0  0  0  0  0  0  0  0
    1.6190    4.1210   22.6720 H   0  0  0  0  0  0  0  0  0  0  0  0
    2.4370    1.9330   21.9350 H   0  0  0  0  0  0  0  0  0  0  0  0
    3.3220    1.6240   19.6620 H   0  0  0  0  0  0  0  0  0  0  0  0
    1.5770    6.3950   21.1300 N   0  0  0  0  0  0  0  0  0  0  0  0
    1.7330    7.5560   20.4020 C   0  0  0  0  0  0  0  0  0  0  0  0
    2.3300    7.6930   19.3390 O   0  0  0  0  0  0  0  0  0  0  0  0
    0.9480    6.4970   21.9200 H   0  0  0  0  0  0  0  0  0  0  0  0
    0.9760    8.7060   21.0030 C   0  0  0  0  0  0  0  0  0  0  0  0
    0.3650    9.6420   20.1730 C   0  0  0  0  0  0  0  0  0  0  0  0
   -0.4320   10.6340   20.7590 C   0  0  0  0  0  0  0  0  0  0  0  0
   -1.1030   11.5990   19.9850 C   0  0  0  0  0  0  0  0  0  0  0  0
   -1.9100   12.5620   20.5970 C   0  0  0  0  0  0  0  0  0  0  0  0
   -2.0560   12.5770   21.9830 C   0  0  0  0  0  0  0  0  0  0  0  0
   -1.3840   11.6390   22.7630 C   0  0  0  0  0  0  0  0  0  0  0  0
   -0.5760   10.6580   22.1630 C   0  0  0  0  0  0  0  0  0  0  0  0
    0.1010    9.6820   22.8990 C   0  0  0  0  0  0  0  0  0  0  0  0
    0.8600    8.7000   22.3600 N   0  0  0  0  0  0  0  0  0  0  0  0
    0.4810    9.5700   19.0990 H   0  0  0  0  0  0  0  0  0  0  0  0
   -1.0010   11.6090   18.9020 H   0  0  0  0  0  0  0  0  0  0  0  0
   -2.4250   13.3010   19.9880 H   0  0  0  0  0  0  0  0  0  0  0  0
   -2.6860   13.3260   22.4570 H   0  0  0  0  0  0  0  0  0  0  0  0
   -1.4970   11.6760   23.8460 H   0  0  0  0  0  0  0  0  0  0  0  0
    0.0320    9.6530   23.9820 H   0  0  0  0  0  0  0  0  0  0  0  0
    3.6440    3.5120   17.6960 C   0  0  1  0  0  0  0  0  0  0  0  0
    4.5100    2.8470   17.8130 H   0  0  0  0  0  0  0  0  0  0  0  0
    2.7350    2.8880   16.6380 C   0  0  0  0  0  0  0  0  0  0  0  0
    3.3120    2.2480   15.9640 H   0  0  0  0  0  0  0  0  0  0  0  0
    1.9440    2.2730   17.0730 H   0  0  0  0  0  0  0  0  0  0  0  0
    2.2600    3.6600   16.0210 H   0  0  0  0  0  0  0  0  0  0  0  0
    4.2210    5.1570   17.0970 S   0  0  0  0  0  0  0  0  0  0  0  0
    5.7790    5.2590   17.8440 C   0  0  1  0  0  3  0  0  0  0  0  0
    6.0020    5.6790   19.0750 N   0  0  0  0  0  0  0  0  0  0  0  0
    7.3510    5.4950   19.2100 C   0  0  0  0  0  0  0  0  0  0  0  0
    7.9780    5.0060   18.1450 N   0  0  0  0  0  2  0  0  0  0  0  0
    6.9550    4.8480   17.2830 N   0  0  0  0  0  0  0  0  0  0  0  0
    7.2280    4.3920   15.6450 Cl  0  0  0  0  0  0  0  0  0  0  0  0
    7.8930    5.7370   20.1150 H   0  0  0  0  0  0  0  0  0  0  0  0
  1  2  2  0  0  0  0
  1  6  1  0  0  0  0
  2  3  1  0  0  0  0
  3 11  1  0  0  0  0
  3  4  2  0  0  0  0
  4  8  1  0  0  0  0
  5  4  1  0  0  0  0
  5  9  1  0  0  0  0
  6  5  2  0  0  0  0
  7  2  1  0  0  0  0
 10  6  1  0  0  0  0
 11 14  1  0  0  0  0
 12 15  1  0  0  0  0
 12 11  1  0  0  0  0
 13 12  2  0  0  0  0
 15 24  1  0  0  0  0
 16 17  1  0  0  0  0
 16 15  2  0  0  0  0
 17 22  1  0  0  0  0
 18 19  1  0  0  0  0
 18 17  2  0  0  0  0
 19 20  2  0  0  0  0
 20 28  1  0  0  0  0
 20 21  1  0  0  0  0
 21 29  1  0  0  0  0
 22 21  2  0  0  0  0
 22 23  1  0  0  0  0
 23 30  1  0  0  0  0
 24 23  2  0  0  0  0
 25 16  1  0  0  0  0
 26 18  1  0  0  0  0
 27 19  1  0  0  0  0
 31 32  1  1  0  0  0
 31  1  1  0  0  0  0
 33 35  1  0  0  0  0
 33 31  1  0  0  0  0
 34 33  1  0  0  0  0
 36 33  1  0  0  0  0
 37 31  1  0  0  0  0
 38 37  1  1  0  0  0
 38 39  1  0  0  0  0
 39 40  2  0  0  0  0
 40 44  1  0  0  0  0
 41 40  1  0  0  0  0
 42 38  1  0  0  0  0
 42 41  1  0  0  0  0
 43 42  1  0  0  0  0
M  END
>  <MODEL>
11

>  <REMARK>
 VINA RESULT:    -7.742      4.157      9.144
 INTER + INTRA:         -10.605
 INTER:                 -10.324
 INTRA:                  -0.282
 UNBOUND:                -0.375
  Name = 
  6 active torsions:
  status: ('A' for Active; 'I' for Inactive)
    1  A    between atoms: C_1  and  C_2
    2  A    between atoms: C_2  and  C_3
    3  A    between atoms: C_2  and  S_22
    4  A    between atoms: C_5  and  N_9
    5  A    between atoms: C_10  and  C_12
    6  A    between atoms: S_22  and  C_23
                            x       y       z     vdW  Elec       q    Type
                         _______ _______ _______ _____ _____    ______ ____

>  <TORSDO>
F 6

$$$$
=
 OpenBabel07192307433D

 44 47  0  0  1  0  0  0  0  0999 V2000
    0.2540   12.3780   18.8170 C   0  0  0  0  0  0  0  0  0  0  0  0
    1.0540   11.2340   18.6440 C   0  0  0  0  0  0  0  0  0  0  0  0
    0.5120   10.0310   18.1700 C   0  0  0  0  0  0  0  0  0  0  0  0
   -0.8540    9.9540   17.9230 C   0  0  0  0  0  0  0  0  0  0  0  0
   -1.6710   11.0630   18.1410 C   0  0  0  0  0  0  0  0  0  0  0  0
   -1.1220   12.2680   18.5790 C   0  0  0  0  0  0  0  0  0  0  0  0
    2.1270   11.3000   18.8110 H   0  0  0  0  0  0  0  0  0  0  0  0
   -1.3120    9.0380   17.5590 H   0  0  0  0  0  0  0  0  0  0  0  0
   -2.7410   10.9920   17.9340 H   0  0  0  0  0  0  0  0  0  0  0  0
   -1.7820   13.1220   18.7000 H   0  0  0  0  0  0  0  0  0  0  0  0
    1.4090    8.9750   17.9360 N   0  0  0  0  0  0  0  0  0  0  0  0
    1.9450    8.1040   18.8610 C   0  0  0  0  0  0  0  0  0  0  0  0
    1.8060    8.1340   20.0800 O   0  0  0  0  0  0  0  0  0  0  0  0
    1.5660    8.6890   16.9760 H   0  0  0  0  0  0  0  0  0  0  0  0
    2.6870    6.9720   18.2090 C   0  0  0  0  0  0  0  0  0  0  0  0
    3.7570    7.2430   17.3600 C   0  0  0  0  0  0  0  0  0  0  0  0
    4.5030    6.1670   16.8630 C   0  0  0  0  0  0  0  0  0  0  0  0
    5.6140    6.3600   16.0210 C   0  0  0  0  0  0  0  0  0  0  0  0
    6.3530    5.2680   15.5600 C   0  0  0  0  0  0  0  0  0  0  0  0
    5.9950    3.9730   15.9280 C   0  0  0  0  0  0  0  0  0  0  0  0
    4.8880    3.7640   16.7470 C   0  0  0  0  0  0  0  0  0  0  0  0
    4.1390    4.8520   17.2270 C   0  0  0  0  0  0  0  0  0  0  0  0
    3.0330    4.6980   18.0680 C   0  0  0  0  0  0  0  0  0  0  0  0
    2.3070    5.7180   18.5800 N   0  0  0  0  0  0  0  0  0  0  0  0
    4.0180    8.2680   17.1290 H   0  0  0  0  0  0  0  0  0  0  0  0
    5.9100    7.3620   15.7170 H   0  0  0  0  0  0  0  0  0  0  0  0
    7.2110    5.4320   14.9120 H   0  0  0  0  0  0  0  0  0  0  0  0
    6.5730    3.1240   15.5710 H   0  0  0  0  0  0  0  0  0  0  0  0
    4.6120    2.7430   17.0110 H   0  0  0  0  0  0  0  0  0  0  0  0
    2.7030    3.7110   18.3780 H   0  0  0  0  0  0  0  0  0  0  0  0
    0.8570   13.7280   19.1520 C   0  0  1  0  0  0  0  0  0  0  0  0
    1.5760   13.9980   18.3670 H   0  0  0  0  0  0  0  0  0  0  0  0
   -0.1780   14.8500   19.2190 C   0  0  0  0  0  0  0  0  0  0  0  0
   -0.1410   15.4630   18.3150 H   0  0  0  0  0  0  0  0  0  0  0  0
   -1.2000   14.4750   19.3160 H   0  0  0  0  0  0  0  0  0  0  0  0
    0.0170   15.5170   20.0680 H   0  0  0  0  0  0  0  0  0  0  0  0
    1.7370   13.6240   20.7670 S   0  0  0  0  0  0  0  0  0  0  0  0
    0.4250   13.8180   21.8780 C   0  0  1  0  0  3  0  0  0  0  0  0
    0.0550   14.9630   22.4210 N   0  0  0  0  0  0  0  0  0  0  0  0
   -1.0520   14.6050   23.1410 C   0  0  0  0  0  0  0  0  0  0  0  0
   -1.3830   13.3190   23.0930 N   0  0  0  0  0  2  0  0  0  0  0  0
   -0.4350   12.8310   22.2700 N   0  0  0  0  0  0  0  0  0  0  0  0
   -0.2800   11.1390   21.9880 Cl  0  0  0  0  0  0  0  0  0  0  0  0
   -1.6290   15.3080   23.7270 H   0  0  0  0  0  0  0  0  0  0  0  0
  1 31  1  0  0  0  0
  2  7  1  0  0  0  0
  2  1  1  0  0  0  0
  3  2  2  0  0  0  0
  4  5  2  0  0  0  0
  4  3  1  0  0  0  0
  5  6  1  0  0  0  0
  6 10  1  0  0  0  0
  6  1  2  0  0  0  0
  8  4  1  0  0  0  0
  9  5  1  0  0  0  0
 11  3  1  0  0  0  0
 11 12  1  0  0  0  0
 12 13  2  0  0  0  0
 14 11  1  0  0  0  0
 15 24  1  0  0  0  0
 15 12  1  0  0  0  0
 16 15  2  0  0  0  0
 17 22  1  0  0  0  0
 17 16  1  0  0  0  0
 18 17  2  0  0  0  0
 19 20  2  0  0  0  0
 19 18  1  0  0  0  0
 20 21  1  0  0  0  0
 21 29  1  0  0  0  0
 21 22  2  0  0  0  0
 22 23  1  0  0  0  0
 23 30  1  0  0  0  0
 23 24  2  0  0  0  0
 25 16  1  0  0  0  0
 26 18  1  0  0  0  0
 27 19  1  0  0  0  0
 28 20  1  0  0  0  0
 31 32  1  6  0  0  0
 31 33  1  0  0  0  0
 31 37  1  0  0  0  0
 33 35  1  0  0  0  0
 33 36  1  0  0  0  0
 34 33  1  0  0  0  0
 38 37  1  6  0  0  0
 38 42  1  0  0  0  0
 38 39  1  0  0  0  0
 39 40  2  0  0  0  0
 40 44  1  0  0  0  0
 41 40  1  0  0  0  0
 42 41  1  0  0  0  0
 43 42  1  0  0  0  0
M  END
>  <MODEL>
12

>  <REMARK>
 VINA RESULT:    -7.702      3.208      3.983
 INTER + INTRA:         -10.553
 INTER:                  -9.612
 INTRA:                  -0.941
 UNBOUND:                -0.375
  Name = 
  6 active torsions:
  status: ('A' for Active; 'I' for Inactive)
    1  A    between atoms: C_1  and  C_2
    2  A    between atoms: C_2  and  C_3
    3  A    between atoms: C_2  and  S_22
    4  A    between atoms: C_5  and  N_9
    5  A    between atoms: C_10  and  C_12
    6  A    between atoms: S_22  and  C_23
                            x       y       z     vdW  Elec       q    Type
                         _______ _______ _______ _____ _____    ______ ____

>  <TORSDO>
F 6

$$$$
=
 OpenBabel07192307433D

 44 47  0  0  1  0  0  0  0  0999 V2000
    2.3650    7.1730   19.6210 C   0  0  0  0  0  0  0  0  0  0  0  0
    1.5020    8.1090   20.2190 C   0  0  0  0  0  0  0  0  0  0  0  0
    1.0130    9.2100   19.5030 C   0  0  0  0  0  0  0  0  0  0  0  0
    1.4360    9.4100   18.1940 C   0  0  0  0  0  0  0  0  0  0  0  0
    2.3340    8.5210   17.6020 C   0  0  0  0  0  0  0  0  0  0  0  0
    2.7910    7.4070   18.3070 C   0  0  0  0  0  0  0  0  0  0  0  0
    1.1490    7.9390   21.2330 H   0  0  0  0  0  0  0  0  0  0  0  0
    1.0830   10.2540   17.6080 H   0  0  0  0  0  0  0  0  0  0  0  0
    2.6520    8.6850   16.5700 H   0  0  0  0  0  0  0  0  0  0  0  0
    3.4580    6.7150   17.8010 H   0  0  0  0  0  0  0  0  0  0  0  0
    0.0800   10.0330   20.1570 N   0  0  0  0  0  0  0  0  0  0  0  0
    0.2520   11.3360   20.5740 C   0  0  0  0  0  0  0  0  0  0  0  0
    1.2820   12.0020   20.5290 O   0  0  0  0  0  0  0  0  0  0  0  0
   -0.8860    9.7250   20.1860 H   0  0  0  0  0  0  0  0  0  0  0  0
   -1.0360   11.9580   21.0320 C   0  0  0  0  0  0  0  0  0  0  0  0
   -1.5540   11.6380   22.2840 C   0  0  0  0  0  0  0  0  0  0  0  0
   -2.6900   12.3240   22.7310 C   0  0  0  0  0  0  0  0  0  0  0  0
   -3.2570   12.0760   23.9960 C   0  0  0  0  0  0  0  0  0  0  0  0
   -4.3770   12.7930   24.4230 C   0  0  0  0  0  0  0  0  0  0  0  0
   -4.9470   13.7610   23.5990 C   0  0  0  0  0  0  0  0  0  0  0  0
   -4.4080   14.0070   22.3390 C   0  0  0  0  0  0  0  0  0  0  0  0
   -3.2760   13.3010   21.8960 C   0  0  0  0  0  0  0  0  0  0  0  0
   -2.6840   13.5240   20.6500 C   0  0  0  0  0  0  0  0  0  0  0  0
   -1.5750   12.8930   20.2000 N   0  0  0  0  0  0  0  0  0  0  0  0
   -1.0570   10.9020   22.9030 H   0  0  0  0  0  0  0  0  0  0  0  0
   -2.8310   11.3220   24.6540 H   0  0  0  0  0  0  0  0  0  0  0  0
   -4.8040   12.5930   25.4030 H   0  0  0  0  0  0  0  0  0  0  0  0
   -5.8170   14.3200   23.9350 H   0  0  0  0  0  0  0  0  0  0  0  0
   -4.8770   14.7560   21.7010 H   0  0  0  0  0  0  0  0  0  0  0  0
   -3.0920   14.2590   19.9630 H   0  0  0  0  0  0  0  0  0  0  0  0
    2.7530    5.8850   20.3210 C   0  0  1  0  0  0  0  0  0  0  0  0
    2.9960    6.1120   21.3680 H   0  0  0  0  0  0  0  0  0  0  0  0
    1.6350    4.8440   20.3330 C   0  0  0  0  0  0  0  0  0  0  0  0
    1.8870    4.0000   19.6850 H   0  0  0  0  0  0  0  0  0  0  0  0
    1.4450    4.4420   21.3310 H   0  0  0  0  0  0  0  0  0  0  0  0
    0.6960    5.2690   19.9580 H   0  0  0  0  0  0  0  0  0  0  0  0
    4.2360    5.1640   19.5000 S   0  0  0  0  0  0  0  0  0  0  0  0
    3.5560    3.7630   18.7470 C   0  0  1  0  0  3  0  0  0  0  0  0
    2.7620    3.7790   17.6930 N   0  0  0  0  0  0  0  0  0  0  0  0
    2.5720    2.4480   17.4440 C   0  0  0  0  0  0  0  0  0  0  0  0
    3.1800    1.6110   18.2790 N   0  0  0  0  0  2  0  0  0  0  0  0
    3.8170    2.4690   19.0990 N   0  0  0  0  0  0  0  0  0  0  0  0
    4.6430    1.9150   20.5060 Cl  0  0  0  0  0  0  0  0  0  0  0  0
    1.9590    2.0800   16.6320 H   0  0  0  0  0  0  0  0  0  0  0  0
  1  2  1  0  0  0  0
  1 31  1  0  0  0  0
  2  7  1  0  0  0  0
  3 11  1  0  0  0  0
  3  2  2  0  0  0  0
  4  3  1  0  0  0  0
  5  4  2  0  0  0  0
  5  6  1  0  0  0  0
  6  1  2  0  0  0  0
  8  4  1  0  0  0  0
  9  5  1  0  0  0  0
 10  6  1  0  0  0  0
 11 14  1  0  0  0  0
 11 12  1  0  0  0  0
 12 15  1  0  0  0  0
 13 12  2  0  0  0  0
 15 16  1  0  0  0  0
 16 17  2  0  0  0  0
 16 25  1  0  0  0  0
 17 18  1  0  0  0  0
 18 19  2  0  0  0  0
 18 26  1  0  0  0  0
 19 27  1  0  0  0  0
 20 28  1  0  0  0  0
 20 19  1  0  0  0  0
 21 20  2  0  0  0  0
 22 21  1  0  0  0  0
 22 17  1  0  0  0  0
 23 22  2  0  0  0  0
 24 23  1  0  0  0  0
 24 15  2  0  0  0  0
 29 21  1  0  0  0  0
 30 23  1  0  0  0  0
 31 33  1  0  0  0  0
 31 32  1  1  0  0  0
 33 35  1  0  0  0  0
 34 33  1  0  0  0  0
 36 33  1  0  0  0  0
 37 31  1  0  0  0  0
 38 42  1  0  0  0  0
 38 37  1  6  0  0  0
 39 38  1  0  0  0  0
 40 39  2  0  0  0  0
 40 41  1  0  0  0  0
 41 42  1  0  0  0  0
 42 43  1  0  0  0  0
 44 40  1  0  0  0  0
M  END
>  <MODEL>
13

>  <REMARK>
 VINA RESULT:    -7.636      4.117     10.009
 INTER + INTRA:         -10.466
 INTER:                 -10.066
 INTRA:                  -0.400
 UNBOUND:                -0.375
  Name = 
  6 active torsions:
  status: ('A' for Active; 'I' for Inactive)
    1  A    between atoms: C_1  and  C_2
    2  A    between atoms: C_2  and  C_3
    3  A    between atoms: C_2  and  S_22
    4  A    between atoms: C_5  and  N_9
    5  A    between atoms: C_10  and  C_12
    6  A    between atoms: S_22  and  C_23
                            x       y       z     vdW  Elec       q    Type
                         _______ _______ _______ _____ _____    ______ ____

>  <TORSDO>
F 6

$$$$
=
 OpenBabel07192307433D

 44 47  0  0  1  0  0  0  0  0999 V2000
   -0.6310   11.0460   20.9820 C   0  0  0  0  0  0  0  0  0  0  0  0
    0.3680   10.3110   20.3180 C   0  0  0  0  0  0  0  0  0  0  0  0
    0.9830    9.2060   20.9230 C   0  0  0  0  0  0  0  0  0  0  0  0
    0.6380    8.8680   22.2260 C   0  0  0  0  0  0  0  0  0  0  0  0
   -0.3120    9.6180   22.9200 C   0  0  0  0  0  0  0  0  0  0  0  0
   -0.9470   10.6960   22.3010 C   0  0  0  0  0  0  0  0  0  0  0  0
    0.6190   10.5580   19.2890 H   0  0  0  0  0  0  0  0  0  0  0  0
    1.0960    8.0220   22.7310 H   0  0  0  0  0  0  0  0  0  0  0  0
   -0.5800    9.3370   23.9400 H   0  0  0  0  0  0  0  0  0  0  0  0
   -1.7100   11.2330   22.8580 H   0  0  0  0  0  0  0  0  0  0  0  0
    1.8970    8.4790   20.1420 N   0  0  0  0  0  0  0  0  0  0  0  0
    2.0140    7.1090   20.0400 C   0  0  0  0  0  0  0  0  0  0  0  0
    1.3960    6.2590   20.6740 O   0  0  0  0  0  0  0  0  0  0  0  0
    2.4260    8.9810   19.4380 H   0  0  0  0  0  0  0  0  0  0  0  0
    2.9540    6.7020   18.9410 C   0  0  0  0  0  0  0  0  0  0  0  0
    3.2940    5.3610   18.7810 C   0  0  0  0  0  0  0  0  0  0  0  0
    4.0760    4.9980   17.6770 C   0  0  0  0  0  0  0  0  0  0  0  0
    4.4390    3.6610   17.4330 C   0  0  0  0  0  0  0  0  0  0  0  0
    5.2000    3.3260   16.3090 C   0  0  0  0  0  0  0  0  0  0  0  0
    5.6090    4.3170   15.4190 C   0  0  0  0  0  0  0  0  0  0  0  0
    5.2720    5.6480   15.6560 C   0  0  0  0  0  0  0  0  0  0  0  0
    4.5000    6.0000   16.7760 C   0  0  0  0  0  0  0  0  0  0  0  0
    4.1160    7.3160   17.0470 C   0  0  0  0  0  0  0  0  0  0  0  0
    3.3460    7.6940   18.0930 N   0  0  0  0  0  0  0  0  0  0  0  0
    2.9250    4.6220   19.4800 H   0  0  0  0  0  0  0  0  0  0  0  0
    4.1340    2.8710   18.1160 H   0  0  0  0  0  0  0  0  0  0  0  0
    5.4720    2.2890   16.1310 H   0  0  0  0  0  0  0  0  0  0  0  0
    6.1990    4.0540   14.5440 H   0  0  0  0  0  0  0  0  0  0  0  0
    5.6150    6.4110   14.9580 H   0  0  0  0  0  0  0  0  0  0  0  0
    4.4170    8.1300   16.3930 H   0  0  0  0  0  0  0  0  0  0  0  0
   -1.4310   12.1230   20.2760 C   0  0  1  0  0  0  0  0  0  0  0  0
   -2.4770   12.0590   20.6040 H   0  0  0  0  0  0  0  0  0  0  0  0
   -0.9460   13.5370   20.5890 C   0  0  0  0  0  0  0  0  0  0  0  0
   -0.3330   13.5430   21.4950 H   0  0  0  0  0  0  0  0  0  0  0  0
   -0.3400   13.9620   19.7850 H   0  0  0  0  0  0  0  0  0  0  0  0
   -1.7890   14.2140   20.7670 H   0  0  0  0  0  0  0  0  0  0  0  0
   -1.3520   11.8500   18.4550 S   0  0  0  0  0  0  0  0  0  0  0  0
   -3.0250   11.6300   18.0740 C   0  0  1  0  0  3  0  0  0  0  0  0
   -4.0280   11.8810   18.8950 N   0  0  0  0  0  0  0  0  0  0  0  0
   -5.1210   11.6290   18.1120 C   0  0  0  0  0  0  0  0  0  0  0  0
   -4.8640   11.2260   16.8720 N   0  0  0  0  0  2  0  0  0  0  0  0
   -3.5170   11.2440   16.8600 N   0  0  0  0  0  0  0  0  0  0  0  0
   -2.6270   10.6330   15.5180 Cl  0  0  0  0  0  0  0  0  0  0  0  0
   -6.1380   11.7340   18.4650 H   0  0  0  0  0  0  0  0  0  0  0  0
  1  6  1  0  0  0  0
  2  3  1  0  0  0  0
  2  1  2  0  0  0  0
  3  4  2  0  0  0  0
  4  8  1  0  0  0  0
  4  5  1  0  0  0  0
  5  9  1  0  0  0  0
  6 10  1  0  0  0  0
  6  5  2  0  0  0  0
  7  2  1  0  0  0  0
 11  3  1  0  0  0  0
 12 11  1  0  0  0  0
 12 13  2  0  0  0  0
 14 11  1  0  0  0  0
 15 12  1  0  0  0  0
 16 15  1  0  0  0  0
 16 25  1  0  0  0  0
 17 16  2  0  0  0  0
 18 17  1  0  0  0  0
 18 26  1  0  0  0  0
 19 18  2  0  0  0  0
 20 21  2  0  0  0  0
 20 19  1  0  0  0  0
 21 22  1  0  0  0  0
 22 23  2  0  0  0  0
 22 17  1  0  0  0  0
 23 24  1  0  0  0  0
 24 15  2  0  0  0  0
 27 19  1  0  0  0  0
 28 20  1  0  0  0  0
 29 21  1  0  0  0  0
 30 23  1  0  0  0  0
 31 33  1  0  0  0  0
 31 32  1  1  0  0  0
 31  1  1  0  0  0  0
 33 36  1  0  0  0  0
 33 34  1  0  0  0  0
 35 33  1  0  0  0  0
 37 31  1  0  0  0  0
 38 37  1  6  0  0  0
 38 39  1  0  0  0  0
 40 44  1  0  0  0  0
 40 39  2  0  0  0  0
 41 40  1  0  0  0  0
 42 41  1  0  0  0  0
 42 38  1  0  0  0  0
 43 42  1  0  0  0  0
M  END
>  <MODEL>
14

>  <REMARK>
 VINA RESULT:    -7.624      1.094      1.635
 INTER + INTRA:         -10.449
 INTER:                  -9.903
 INTRA:                  -0.546
 UNBOUND:                -0.375
  Name = 
  6 active torsions:
  status: ('A' for Active; 'I' for Inactive)
    1  A    between atoms: C_1  and  C_2
    2  A    between atoms: C_2  and  C_3
    3  A    between atoms: C_2  and  S_22
    4  A    between atoms: C_5  and  N_9
    5  A    between atoms: C_10  and  C_12
    6  A    between atoms: S_22  and  C_23
                            x       y       z     vdW  Elec       q    Type
                         _______ _______ _______ _____ _____    ______ ____

>  <TORSDO>
F 6

$$$$
=
 OpenBabel07192307433D

 44 47  0  0  1  0  0  0  0  0999 V2000
   -0.3150   10.8490   20.8340 C   0  0  0  0  0  0  0  0  0  0  0  0
    0.3930    9.7510   20.3120 C   0  0  0  0  0  0  0  0  0  0  0  0
    1.2070    9.8820   19.1790 C   0  0  0  0  0  0  0  0  0  0  0  0
    1.2690   11.1080   18.5260 C   0  0  0  0  0  0  0  0  0  0  0  0
    0.5310   12.1940   18.9990 C   0  0  0  0  0  0  0  0  0  0  0  0
   -0.2510   12.0680   20.1470 C   0  0  0  0  0  0  0  0  0  0  0  0
    0.3680    8.7990   20.8370 H   0  0  0  0  0  0  0  0  0  0  0  0
    1.8840   11.2480   17.6420 H   0  0  0  0  0  0  0  0  0  0  0  0
    0.5940   13.1540   18.4820 H   0  0  0  0  0  0  0  0  0  0  0  0
   -0.7810   12.9450   20.5090 H   0  0  0  0  0  0  0  0  0  0  0  0
    1.9500    8.7540   18.7930 N   0  0  0  0  0  0  0  0  0  0  0  0
    2.0750    7.5570   19.4650 C   0  0  0  0  0  0  0  0  0  0  0  0
    1.6250    7.2740   20.5720 O   0  0  0  0  0  0  0  0  0  0  0  0
    2.3060    8.7210   17.8440 H   0  0  0  0  0  0  0  0  0  0  0  0
    2.7680    6.5120   18.6380 C   0  0  0  0  0  0  0  0  0  0  0  0
    3.6430    6.8980   17.6260 C   0  0  0  0  0  0  0  0  0  0  0  0
    4.3650    5.9040   16.9530 C   0  0  0  0  0  0  0  0  0  0  0  0
    5.2870    6.2160   15.9370 C   0  0  0  0  0  0  0  0  0  0  0  0
    6.0090    5.2040   15.3000 C   0  0  0  0  0  0  0  0  0  0  0  0
    5.8220    3.8720   15.6640 C   0  0  0  0  0  0  0  0  0  0  0  0
    4.9000    3.5460   16.6560 C   0  0  0  0  0  0  0  0  0  0  0  0
    4.1720    4.5520   17.3130 C   0  0  0  0  0  0  0  0  0  0  0  0
    3.2520    4.2800   18.3300 C   0  0  0  0  0  0  0  0  0  0  0  0
    2.5570    5.2190   19.0110 N   0  0  0  0  0  0  0  0  0  0  0  0
    3.7810    7.9480   17.4010 H   0  0  0  0  0  0  0  0  0  0  0  0
    5.4470    7.2480   15.6330 H   0  0  0  0  0  0  0  0  0  0  0  0
    6.7200    5.4590   14.5170 H   0  0  0  0  0  0  0  0  0  0  0  0
    6.3870    3.0860   15.1690 H   0  0  0  0  0  0  0  0  0  0  0  0
    4.7550    2.4980   16.9160 H   0  0  0  0  0  0  0  0  0  0  0  0
    3.0580    3.2590   18.6460 H   0  0  0  0  0  0  0  0  0  0  0  0
   -1.0490   10.7670   22.1580 C   0  0  1  0  0  0  0  0  0  0  0  0
   -2.0390   10.3240   21.9860 H   0  0  0  0  0  0  0  0  0  0  0  0
   -0.3380    9.8930   23.1890 C   0  0  0  0  0  0  0  0  0  0  0  0
   -1.0280    9.1600   23.6170 H   0  0  0  0  0  0  0  0  0  0  0  0
    0.5020    9.3370   22.7630 H   0  0  0  0  0  0  0  0  0  0  0  0
    0.0470   10.4960   24.0210 H   0  0  0  0  0  0  0  0  0  0  0  0
   -1.2580   12.4620   22.8500 S   0  0  0  0  0  0  0  0  0  0  0  0
   -2.9780   12.5480   23.0170 C   0  0  1  0  0  3  0  0  0  0  0  0
   -3.6300   12.5100   24.1630 N   0  0  0  0  0  0  0  0  0  0  0  0
   -4.9290   12.6910   23.7720 C   0  0  0  0  0  0  0  0  0  0  0  0
   -5.1250   12.8230   22.4640 N   0  0  0  0  0  2  0  0  0  0  0  0
   -3.8650   12.7420   21.9960 N   0  0  0  0  0  0  0  0  0  0  0  0
   -3.5410   12.6800   20.3050 Cl  0  0  0  0  0  0  0  0  0  0  0  0
   -5.7580   12.7170   24.4670 H   0  0  0  0  0  0  0  0  0  0  0  0
  1 31  1  0  0  0  0
  2  1  1  0  0  0  0
  2  7  1  0  0  0  0
  3  2  2  0  0  0  0
  4  5  2  0  0  0  0
  4  3  1  0  0  0  0
  5  6  1  0  0  0  0
  6 10  1  0  0  0  0
  6  1  2  0  0  0  0
  8  4  1  0  0  0  0
  9  5  1  0  0  0  0
 11  3  1  0  0  0  0
 11 12  1  0  0  0  0
 12 13  2  0  0  0  0
 14 11  1  0  0  0  0
 15 24  1  0  0  0  0
 15 12  1  0  0  0  0
 16 15  2  0  0  0  0
 17 22  1  0  0  0  0
 17 16  1  0  0  0  0
 18 17  2  0  0  0  0
 19 20  2  0  0  0  0
 19 18  1  0  0  0  0
 20 21  1  0  0  0  0
 21 29  1  0  0  0  0
 21 22  2  0  0  0  0
 22 23  1  0  0  0  0
 23 30  1  0  0  0  0
 23 24  2  0  0  0  0
 25 16  1  0  0  0  0
 26 18  1  0  0  0  0
 27 19  1  0  0  0  0
 28 20  1  0  0  0  0
 31 32  1  6  0  0  0
 31 37  1  0  0  0  0
 31 33  1  0  0  0  0
 33 34  1  0  0  0  0
 33 36  1  0  0  0  0
 35 33  1  0  0  0  0
 38 37  1  1  0  0  0
 38 39  1  0  0  0  0
 40 39  2  0  0  0  0
 40 44  1  0  0  0  0
 41 40  1  0  0  0  0
 42 41  1  0  0  0  0
 42 38  1  0  0  0  0
 43 42  1  0  0  0  0
M  END
>  <MODEL>
15

>  <REMARK>
 VINA RESULT:    -7.606      2.716      3.375
 INTER + INTRA:         -10.426
 INTER:                 -10.185
 INTRA:                  -0.241
 UNBOUND:                -0.375
  Name = 
  6 active torsions:
  status: ('A' for Active; 'I' for Inactive)
    1  A    between atoms: C_1  and  C_2
    2  A    between atoms: C_2  and  C_3
    3  A    between atoms: C_2  and  S_22
    4  A    between atoms: C_5  and  N_9
    5  A    between atoms: C_10  and  C_12
    6  A    between atoms: S_22  and  C_23
                            x       y       z     vdW  Elec       q    Type
                         _______ _______ _______ _____ _____    ______ ____

>  <TORSDO>
F 6

$$$$
=
 OpenBabel07192307433D

 44 47  0  0  1  0  0  0  0  0999 V2000
    5.0380    4.2730   16.6570 C   0  0  0  0  0  0  0  0  0  0  0  0
    5.6290    5.4360   17.1840 C   0  0  0  0  0  0  0  0  0  0  0  0
    6.6340    6.1220   16.4880 C   0  0  0  0  0  0  0  0  0  0  0  0
    7.0930    5.6080   15.2800 C   0  0  0  0  0  0  0  0  0  0  0  0
    6.5560    4.4260   14.7690 C   0  0  0  0  0  0  0  0  0  0  0  0
    5.5320    3.7660   15.4480 C   0  0  0  0  0  0  0  0  0  0  0  0
    5.2510    5.8540   18.1140 H   0  0  0  0  0  0  0  0  0  0  0  0
    7.8740    6.1080   14.7140 H   0  0  0  0  0  0  0  0  0  0  0  0
    6.9210    4.0380   13.8160 H   0  0  0  0  0  0  0  0  0  0  0  0
    5.1110    2.8700   15.0010 H   0  0  0  0  0  0  0  0  0  0  0  0
    7.0900    7.3260   17.0490 N   0  0  0  0  0  0  0  0  0  0  0  0
    7.8920    7.4880   18.1590 C   0  0  0  0  0  0  0  0  0  0  0  0
    8.2950    6.6140   18.9200 O   0  0  0  0  0  0  0  0  0  0  0  0
    6.9790    8.1760   16.5060 H   0  0  0  0  0  0  0  0  0  0  0  0
    8.3520    8.9090   18.3230 C   0  0  0  0  0  0  0  0  0  0  0  0
    7.7860    9.9150   17.5440 C   0  0  0  0  0  0  0  0  0  0  0  0
    8.1490   11.2430   17.8030 C   0  0  0  0  0  0  0  0  0  0  0  0
    7.6010   12.3160   17.0760 C   0  0  0  0  0  0  0  0  0  0  0  0
    7.9640   13.6320   17.3730 C   0  0  0  0  0  0  0  0  0  0  0  0
    8.8770   13.8950   18.3930 C   0  0  0  0  0  0  0  0  0  0  0  0
    9.4410   12.8420   19.1100 C   0  0  0  0  0  0  0  0  0  0  0  0
    9.0790   11.5130   18.8300 C   0  0  0  0  0  0  0  0  0  0  0  0
    9.5980   10.4230   19.5340 C   0  0  0  0  0  0  0  0  0  0  0  0
    9.2520    9.1330   19.3200 N   0  0  0  0  0  0  0  0  0  0  0  0
    7.0560    9.6650   16.7840 H   0  0  0  0  0  0  0  0  0  0  0  0
    6.8900   12.1350   16.2730 H   0  0  0  0  0  0  0  0  0  0  0  0
    7.5320   14.4530   16.8050 H   0  0  0  0  0  0  0  0  0  0  0  0
    9.1560   14.9200   18.6250 H   0  0  0  0  0  0  0  0  0  0  0  0
   10.1650   13.0650   19.8930 H   0  0  0  0  0  0  0  0  0  0  0  0
   10.3210   10.5680   20.3310 H   0  0  0  0  0  0  0  0  0  0  0  0
    3.8300    3.6280   17.3080 C   0  0  1  0  0  0  0  0  0  0  0  0
    3.2990    3.0330   16.5540 H   0  0  0  0  0  0  0  0  0  0  0  0
    4.1940    2.6850   18.4530 C   0  0  0  0  0  0  0  0  0  0  0  0
    5.2400    2.8180   18.7440 H   0  0  0  0  0  0  0  0  0  0  0  0
    3.5850    2.8510   19.3450 H   0  0  0  0  0  0  0  0  0  0  0  0
    4.0740    1.6360   18.1550 H   0  0  0  0  0  0  0  0  0  0  0  0
    2.7030    4.9400   17.9450 S   0  0  0  0  0  0  0  0  0  0  0  0
    2.2850    4.3000   19.4970 C   0  0  1  0  0  3  0  0  0  0  0  0
    2.7620    4.7340   20.6490 N   0  0  0  0  0  0  0  0  0  0  0  0
    2.0760    3.9760   21.5580 C   0  0  0  0  0  0  0  0  0  0  0  0
    1.2210    3.0940   21.0480 N   0  0  0  0  0  2  0  0  0  0  0  0
    1.3580    3.3240   19.7280 N   0  0  0  0  0  0  0  0  0  0  0  0
    0.5880    2.3170   18.5610 Cl  0  0  0  0  0  0  0  0  0  0  0  0
    2.2150    4.0650   22.6270 H   0  0  0  0  0  0  0  0  0  0  0  0
  1  2  1  0  0  0  0
  1 31  1  0  0  0  0
  2  7  1  0  0  0  0
  3 11  1  0  0  0  0
  3  2  2  0  0  0  0
  4  3  1  0  0  0  0
  5  4  2  0  0  0  0
  5  6  1  0  0  0  0
  6  1  2  0  0  0  0
  8  4  1  0  0  0  0
  9  5  1  0  0  0  0
 10  6  1  0  0  0  0
 11 12  1  0  0  0  0
 12 15  1  0  0  0  0
 12 13  2  0  0  0  0
 14 11  1  0  0  0  0
 15 24  1  0  0  0  0
 16 17  1  0  0  0  0
 16 15  2  0  0  0  0
 17 22  1  0  0  0  0
 18 19  1  0  0  0  0
 18 17  2  0  0  0  0
 19 20  2  0  0  0  0
 20 28  1  0  0  0  0
 20 21  1  0  0  0  0
 21 29  1  0  0  0  0
 22 21  2  0  0  0  0
 22 23  1  0  0  0  0
 23 30  1  0  0  0  0
 24 23  2  0  0  0  0
 25 16  1  0  0  0  0
 26 18  1  0  0  0  0
 27 19  1  0  0  0  0
 31 32  1  6  0  0  0
 31 37  1  0  0  0  0
 31 33  1  0  0  0  0
 33 34  1  0  0  0  0
 33 35  1  0  0  0  0
 36 33  1  0  0  0  0
 38 37  1  1  0  0  0
 38 42  1  0  0  0  0
 38 39  1  0  0  0  0
 39 40  2  0  0  0  0
 40 44  1  0  0  0  0
 41 40  1  0  0  0  0
 42 41  1  0  0  0  0
 43 42  1  0  0  0  0
M  END
>  <MODEL>
16

>  <REMARK>
 VINA RESULT:    -7.483      6.125      8.806
 INTER + INTRA:         -10.263
 INTER:                  -9.767
 INTRA:                  -0.496
 UNBOUND:                -0.375
  Name = 
  6 active torsions:
  status: ('A' for Active; 'I' for Inactive)
    1  A    between atoms: C_1  and  C_2
    2  A    between atoms: C_2  and  C_3
    3  A    between atoms: C_2  and  S_22
    4  A    between atoms: C_5  and  N_9
    5  A    between atoms: C_10  and  C_12
    6  A    between atoms: S_22  and  C_23
                            x       y       z     vdW  Elec       q    Type
                         _______ _______ _______ _____ _____    ______ ____

>  <TORSDO>
F 6

$$$$
=
 OpenBabel07192307433D

 44 47  0  0  1  0  0  0  0  0999 V2000
    4.6500    4.1520   18.0970 C   0  0  0  0  0  0  0  0  0  0  0  0
    4.0190    5.1630   18.8450 C   0  0  0  0  0  0  0  0  0  0  0  0
    3.8230    6.4460   18.3160 C   0  0  0  0  0  0  0  0  0  0  0  0
    4.3150    6.7380   17.0490 C   0  0  0  0  0  0  0  0  0  0  0  0
    4.9910    5.7630   16.3140 C   0  0  0  0  0  0  0  0  0  0  0  0
    5.1530    4.4780   16.8310 C   0  0  0  0  0  0  0  0  0  0  0  0
    3.6090    4.9270   19.8250 H   0  0  0  0  0  0  0  0  0  0  0  0
    4.1880    7.7220   16.6060 H   0  0  0  0  0  0  0  0  0  0  0  0
    5.3650    6.0040   15.3170 H   0  0  0  0  0  0  0  0  0  0  0  0
    5.6490    3.7330   16.2160 H   0  0  0  0  0  0  0  0  0  0  0  0
    3.0960    7.3560   19.1010 N   0  0  0  0  0  0  0  0  0  0  0  0
    2.0640    8.1770   18.7010 C   0  0  0  0  0  0  0  0  0  0  0  0
    1.6350    8.3330   17.5610 O   0  0  0  0  0  0  0  0  0  0  0  0
    3.2010    7.3030   20.1080 H   0  0  0  0  0  0  0  0  0  0  0  0
    1.3870    8.8440   19.8640 C   0  0  0  0  0  0  0  0  0  0  0  0
    0.5780    9.9570   19.6500 C   0  0  0  0  0  0  0  0  0  0  0  0
   -0.1330   10.4830   20.7370 C   0  0  0  0  0  0  0  0  0  0  0  0
   -0.9910   11.5900   20.5950 C   0  0  0  0  0  0  0  0  0  0  0  0
   -1.7060   12.0770   21.6920 C   0  0  0  0  0  0  0  0  0  0  0  0
   -1.5740   11.4720   22.9410 C   0  0  0  0  0  0  0  0  0  0  0  0
   -0.7160   10.3870   23.1000 C   0  0  0  0  0  0  0  0  0  0  0  0
    0.0040    9.8780   22.0050 C   0  0  0  0  0  0  0  0  0  0  0  0
    0.8600    8.7790   22.1070 C   0  0  0  0  0  0  0  0  0  0  0  0
    1.5440    8.2360   21.0730 N   0  0  0  0  0  0  0  0  0  0  0  0
    0.4810   10.3730   18.6560 H   0  0  0  0  0  0  0  0  0  0  0  0
   -1.1070   12.0800   19.6310 H   0  0  0  0  0  0  0  0  0  0  0  0
   -2.3670   12.9320   21.5690 H   0  0  0  0  0  0  0  0  0  0  0  0
   -2.1330   11.8520   23.7930 H   0  0  0  0  0  0  0  0  0  0  0  0
   -0.6120    9.9370   24.0870 H   0  0  0  0  0  0  0  0  0  0  0  0
    1.0100    8.2750   23.0580 H   0  0  0  0  0  0  0  0  0  0  0  0
    4.7030    2.7160   18.5840 C   0  0  1  0  0  0  0  0  0  0  0  0
    5.5580    2.2150   18.1110 H   0  0  0  0  0  0  0  0  0  0  0  0
    4.8910    2.5990   20.0950 C   0  0  0  0  0  0  0  0  0  0  0  0
    5.4620    3.4480   20.4800 H   0  0  0  0  0  0  0  0  0  0  0  0
    3.9420    2.5730   20.6360 H   0  0  0  0  0  0  0  0  0  0  0  0
    5.4500    1.6910   20.3550 H   0  0  0  0  0  0  0  0  0  0  0  0
    3.1520    1.8470   18.1010 S   0  0  0  0  0  0  0  0  0  0  0  0
    2.0180    2.5420   19.2080 C   0  0  1  0  0  3  0  0  0  0  0  0
    1.8060    2.1190   20.4400 N   0  0  0  0  0  0  0  0  0  0  0  0
    0.9000    3.0280   20.9140 C   0  0  0  0  0  0  0  0  0  0  0  0
    0.5280    3.9740   20.0570 N   0  0  0  0  0  2  0  0  0  0  0  0
    1.2630    3.6560   18.9740 N   0  0  0  0  0  0  0  0  0  0  0  0
    1.0430    4.4730   17.4730 Cl  0  0  0  0  0  0  0  0  0  0  0  0
    0.4930    2.9900   21.9160 H   0  0  0  0  0  0  0  0  0  0  0  0
  1 31  1  0  0  0  0
  1  2  1  0  0  0  0
  2  7  1  0  0  0  0
  3  2  2  0  0  0  0
  3 11  1  0  0  0  0
  4  3  1  0  0  0  0
  5  6  1  0  0  0  0
  5  4  2  0  0  0  0
  6  1  2  0  0  0  0
  8  4  1  0  0  0  0
  9  5  1  0  0  0  0
 10  6  1  0  0  0  0
 11 14  1  0  0  0  0
 12 11  1  0  0  0  0
 12 15  1  0  0  0  0
 13 12  2  0  0  0  0
 15 24  1  0  0  0  0
 16 15  2  0  0  0  0
 16 17  1  0  0  0  0
 17 22  1  0  0  0  0
 18 17  2  0  0  0  0
 18 19  1  0  0  0  0
 19 20  2  0  0  0  0
 20 21  1  0  0  0  0
 20 28  1  0  0  0  0
 21 29  1  0  0  0  0
 22 23  1  0  0  0  0
 22 21  2  0  0  0  0
 23 30  1  0  0  0  0
 24 23  2  0  0  0  0
 25 16  1  0  0  0  0
 26 18  1  0  0  0  0
 27 19  1  0  0  0  0
 31 32  1  6  0  0  0
 31 33  1  0  0  0  0
 33 36  1  0  0  0  0
 33 34  1  0  0  0  0
 33 35  1  0  0  0  0
 37 31  1  0  0  0  0
 38 37  1  1  0  0  0
 38 39  1  0  0  0  0
 39 40  2  0  0  0  0
 40 44  1  0  0  0  0
 41 40  1  0  0  0  0
 42 38  1  0  0  0  0
 42 41  1  0  0  0  0
 43 42  1  0  0  0  0
M  END
>  <MODEL>
17

>  <REMARK>
 VINA RESULT:    -7.422      3.864      8.563
 INTER + INTRA:         -10.183
 INTER:                  -9.856
 INTRA:                  -0.327
 UNBOUND:                -0.375
  Name = 
  6 active torsions:
  status: ('A' for Active; 'I' for Inactive)
    1  A    between atoms: C_1  and  C_2
    2  A    between atoms: C_2  and  C_3
    3  A    between atoms: C_2  and  S_22
    4  A    between atoms: C_5  and  N_9
    5  A    between atoms: C_10  and  C_12
    6  A    between atoms: S_22  and  C_23
                            x       y       z     vdW  Elec       q    Type
                         _______ _______ _______ _____ _____    ______ ____

>  <TORSDO>
F 6

$$$$
=
 OpenBabel07192307433D

 44 47  0  0  1  0  0  0  0  0999 V2000
    2.8420    6.1380   18.5460 C   0  0  0  0  0  0  0  0  0  0  0  0
    2.3810    7.4150   18.9150 C   0  0  0  0  0  0  0  0  0  0  0  0
    1.6910    7.6210   20.1170 C   0  0  0  0  0  0  0  0  0  0  0  0
    1.4070    6.5300   20.9310 C   0  0  0  0  0  0  0  0  0  0  0  0
    1.8090    5.2480   20.5550 C   0  0  0  0  0  0  0  0  0  0  0  0
    2.5260    5.0530   19.3740 C   0  0  0  0  0  0  0  0  0  0  0  0
    2.6260    8.2730   18.2930 H   0  0  0  0  0  0  0  0  0  0  0  0
    0.8700    6.6480   21.8680 H   0  0  0  0  0  0  0  0  0  0  0  0
    1.5870    4.4010   21.2070 H   0  0  0  0  0  0  0  0  0  0  0  0
    2.8570    4.0470   19.1320 H   0  0  0  0  0  0  0  0  0  0  0  0
    1.3590    8.9460   20.4430 N   0  0  0  0  0  0  0  0  0  0  0  0
    0.7760    9.8940   19.6300 C   0  0  0  0  0  0  0  0  0  0  0  0
    0.5080    9.7880   18.4360 O   0  0  0  0  0  0  0  0  0  0  0  0
    1.3810    9.2140   21.4210 H   0  0  0  0  0  0  0  0  0  0  0  0
    0.3720   11.1240   20.3920 C   0  0  0  0  0  0  0  0  0  0  0  0
   -0.7070   11.0710   21.2710 C   0  0  0  0  0  0  0  0  0  0  0  0
   -0.9840   12.1980   22.0550 C   0  0  0  0  0  0  0  0  0  0  0  0
   -2.0410   12.2130   22.9850 C   0  0  0  0  0  0  0  0  0  0  0  0
   -2.2780   13.3440   23.7700 C   0  0  0  0  0  0  0  0  0  0  0  0
   -1.4710   14.4720   23.6380 C   0  0  0  0  0  0  0  0  0  0  0  0
   -0.4320   14.4790   22.7100 C   0  0  0  0  0  0  0  0  0  0  0  0
   -0.1730   13.3460   21.9190 C   0  0  0  0  0  0  0  0  0  0  0  0
    0.8690   13.2940   20.9900 C   0  0  0  0  0  0  0  0  0  0  0  0
    1.1740   12.2140   20.2340 N   0  0  0  0  0  0  0  0  0  0  0  0
   -1.2850   10.1610   21.3630 H   0  0  0  0  0  0  0  0  0  0  0  0
   -2.6860   11.3450   23.1020 H   0  0  0  0  0  0  0  0  0  0  0  0
   -3.0970   13.3420   24.4860 H   0  0  0  0  0  0  0  0  0  0  0  0
   -1.6560   15.3500   24.2520 H   0  0  0  0  0  0  0  0  0  0  0  0
    0.1790   15.3750   22.6090 H   0  0  0  0  0  0  0  0  0  0  0  0
    1.5230   14.1480   20.8370 H   0  0  0  0  0  0  0  0  0  0  0  0
    3.7440    5.9330   17.3450 C   0  0  1  0  0  0  0  0  0  0  0  0
    3.1490    6.0580   16.4300 H   0  0  0  0  0  0  0  0  0  0  0  0
    4.8940    6.9360   17.2760 C   0  0  0  0  0  0  0  0  0  0  0  0
    5.7760    6.4810   16.8160 H   0  0  0  0  0  0  0  0  0  0  0  0
    4.6430    7.8240   16.6890 H   0  0  0  0  0  0  0  0  0  0  0  0
    5.1890    7.2680   18.2780 H   0  0  0  0  0  0  0  0  0  0  0  0
    4.4380    4.2260   17.3840 S   0  0  0  0  0  0  0  0  0  0  0  0
    5.5380    4.2790   16.0500 C   0  0  1  0  0  3  0  0  0  0  0  0
    5.1910    4.2010   14.7790 N   0  0  0  0  0  0  0  0  0  0  0  0
    6.3860    4.3700   14.1340 C   0  0  0  0  0  0  0  0  0  0  0  0
    7.4480    4.5310   14.9180 N   0  0  0  0  0  2  0  0  0  0  0  0
    6.8850    4.4830   16.1410 N   0  0  0  0  0  0  0  0  0  0  0  0
    7.8500    4.4680   17.5680 Cl  0  0  0  0  0  0  0  0  0  0  0  0
    6.4830    4.3640   13.0570 H   0  0  0  0  0  0  0  0  0  0  0  0
  1  2  2  0  0  0  0
  1  6  1  0  0  0  0
  2  3  1  0  0  0  0
  3 11  1  0  0  0  0
  3  4  2  0  0  0  0
  4  8  1  0  0  0  0
  5  4  1  0  0  0  0
  5  9  1  0  0  0  0
  6  5  2  0  0  0  0
  7  2  1  0  0  0  0
 10  6  1  0  0  0  0
 11 14  1  0  0  0  0
 12 15  1  0  0  0  0
 12 11  1  0  0  0  0
 13 12  2  0  0  0  0
 15 16  1  0  0  0  0
 16 25  1  0  0  0  0
 16 17  2  0  0  0  0
 17 18  1  0  0  0  0
 18 26  1  0  0  0  0
 18 19  2  0  0  0  0
 19 27  1  0  0  0  0
 20 19  1  0  0  0  0
 20 28  1  0  0  0  0
 21 20  2  0  0  0  0
 22 17  1  0  0  0  0
 22 21  1  0  0  0  0
 23 22  2  0  0  0  0
 24 15  2  0  0  0  0
 24 23  1  0  0  0  0
 29 21  1  0  0  0  0
 30 23  1  0  0  0  0
 31 32  1  6  0  0  0
 31 37  1  0  0  0  0
 31  1  1  0  0  0  0
 33 31  1  0  0  0  0
 33 36  1  0  0  0  0
 34 33  1  0  0  0  0
 35 33  1  0  0  0  0
 38 42  1  0  0  0  0
 38 37  1  6  0  0  0
 39 38  1  0  0  0  0
 40 39  2  0  0  0  0
 40 41  1  0  0  0  0
 41 42  1  0  0  0  0
 42 43  1  0  0  0  0
 44 40  1  0  0  0  0
M  END
>  <MODEL>
18

>  <REMARK>
 VINA RESULT:    -7.420      4.195      9.681
 INTER + INTRA:         -10.180
 INTER:                  -9.810
 INTRA:                  -0.370
 UNBOUND:                -0.375
  Name = 
  6 active torsions:
  status: ('A' for Active; 'I' for Inactive)
    1  A    between atoms: C_1  and  C_2
    2  A    between atoms: C_2  and  C_3
    3  A    between atoms: C_2  and  S_22
    4  A    between atoms: C_5  and  N_9
    5  A    between atoms: C_10  and  C_12
    6  A    between atoms: S_22  and  C_23
                            x       y       z     vdW  Elec       q    Type
                         _______ _______ _______ _____ _____    ______ ____

>  <TORSDO>
F 6

$$$$
=
 OpenBabel07192307433D

 44 47  0  0  1  0  0  0  0  0999 V2000
    4.3650    4.8920   17.5680 C   0  0  0  0  0  0  0  0  0  0  0  0
    3.6470    5.9210   18.2030 C   0  0  0  0  0  0  0  0  0  0  0  0
    3.0660    5.7330   19.4650 C   0  0  0  0  0  0  0  0  0  0  0  0
    3.1540    4.4850   20.0730 C   0  0  0  0  0  0  0  0  0  0  0  0
    3.8160    3.4370   19.4330 C   0  0  0  0  0  0  0  0  0  0  0  0
    4.4220    3.6390   18.1920 C   0  0  0  0  0  0  0  0  0  0  0  0
    3.6010    6.9050   17.7420 H   0  0  0  0  0  0  0  0  0  0  0  0
    2.7130    4.2990   21.0480 H   0  0  0  0  0  0  0  0  0  0  0  0
    3.8850    2.4640   19.9240 H   0  0  0  0  0  0  0  0  0  0  0  0
    4.9630    2.8110   17.7420 H   0  0  0  0  0  0  0  0  0  0  0  0
    2.4550    6.8500   20.0590 N   0  0  0  0  0  0  0  0  0  0  0  0
    1.9210    7.9530   19.4290 C   0  0  0  0  0  0  0  0  0  0  0  0
    1.9480    8.2110   18.2290 O   0  0  0  0  0  0  0  0  0  0  0  0
    2.2130    6.7920   21.0420 H   0  0  0  0  0  0  0  0  0  0  0  0
    1.1580    8.8340   20.3780 C   0  0  0  0  0  0  0  0  0  0  0  0
    0.3540    9.8560   19.8800 C   0  0  0  0  0  0  0  0  0  0  0  0
   -0.4360   10.5810   20.7810 C   0  0  0  0  0  0  0  0  0  0  0  0
   -1.2930   11.6120   20.3530 C   0  0  0  0  0  0  0  0  0  0  0  0
   -2.0870   12.3020   21.2720 C   0  0  0  0  0  0  0  0  0  0  0  0
   -2.0360   11.9770   22.6260 C   0  0  0  0  0  0  0  0  0  0  0  0
   -1.1790   10.9710   23.0680 C   0  0  0  0  0  0  0  0  0  0  0  0
   -0.3810   10.2610   22.1560 C   0  0  0  0  0  0  0  0  0  0  0  0
    0.4780    9.2290   22.5440 C   0  0  0  0  0  0  0  0  0  0  0  0
    1.2370    8.4980   21.6960 N   0  0  0  0  0  0  0  0  0  0  0  0
    0.3220   10.0500   18.8160 H   0  0  0  0  0  0  0  0  0  0  0  0
   -1.3470   11.8850   19.3010 H   0  0  0  0  0  0  0  0  0  0  0  0
   -2.7470   13.0950   20.9280 H   0  0  0  0  0  0  0  0  0  0  0  0
   -2.6560   12.5140   23.3400 H   0  0  0  0  0  0  0  0  0  0  0  0
   -1.1400   10.7420   24.1330 H   0  0  0  0  0  0  0  0  0  0  0  0
    0.5660    8.9420   23.5880 H   0  0  0  0  0  0  0  0  0  0  0  0
    5.1500    5.1360   16.2940 C   0  0  1  0  0  0  0  0  0  0  0  0
    4.7640    4.4730   15.5090 H   0  0  0  0  0  0  0  0  0  0  0  0
    5.0280    6.5680   15.7760 C   0  0  0  0  0  0  0  0  0  0  0  0
    5.5470    7.2640   16.4410 H   0  0  0  0  0  0  0  0  0  0  0  0
    5.4550    6.6930   14.7780 H   0  0  0  0  0  0  0  0  0  0  0  0
    3.9790    6.8850   15.7340 H   0  0  0  0  0  0  0  0  0  0  0  0
    6.9280    4.7530   16.5870 S   0  0  0  0  0  0  0  0  0  0  0  0
    7.4830    6.2390   17.2790 C   0  0  1  0  0  3  0  0  0  0  0  0
    7.6320    7.3720   16.6210 N   0  0  0  0  0  0  0  0  0  0  0  0
    8.0050    8.2420   17.6090 C   0  0  0  0  0  0  0  0  0  0  0  0
    8.1110    7.7220   18.8270 N   0  0  0  0  0  2  0  0  0  0  0  0
    7.7610    6.4410   18.6010 N   0  0  0  0  0  0  0  0  0  0  0  0
    7.8930    5.2480   19.8370 Cl  0  0  0  0  0  0  0  0  0  0  0  0
    8.2150    9.2880   17.4270 H   0  0  0  0  0  0  0  0  0  0  0  0
  1  6  2  0  0  0  0
  1  2  1  0  0  0  0
  2  3  2  0  0  0  0
  3 11  1  0  0  0  0
  3  4  1  0  0  0  0
  4  8  1  0  0  0  0
  5  9  1  0  0  0  0
  5  4  2  0  0  0  0
  6  5  1  0  0  0  0
  7  2  1  0  0  0  0
 10  6  1  0  0  0  0
 11 14  1  0  0  0  0
 12 11  1  0  0  0  0
 12 15  1  0  0  0  0
 13 12  2  0  0  0  0
 15 24  1  0  0  0  0
 16 15  2  0  0  0  0
 16 17  1  0  0  0  0
 17 22  1  0  0  0  0
 18 17  2  0  0  0  0
 18 19  1  0  0  0  0
 19 20  2  0  0  0  0
 20 21  1  0  0  0  0
 20 28  1  0  0  0  0
 21 29  1  0  0  0  0
 22 23  1  0  0  0  0
 22 21  2  0  0  0  0
 23 30  1  0  0  0  0
 24 23  2  0  0  0  0
 25 16  1  0  0  0  0
 26 18  1  0  0  0  0
 27 19  1  0  0  0  0
 31 32  1  6  0  0  0
 31 37  1  0  0  0  0
 31  1  1  0  0  0  0
 33 31  1  0  0  0  0
 33 34  1  0  0  0  0
 35 33  1  0  0  0  0
 36 33  1  0  0  0  0
 38 37  1  1  0  0  0
 38 42  1  0  0  0  0
 39 38  1  0  0  0  0
 39 40  2  0  0  0  0
 40 41  1  0  0  0  0
 42 41  1  0  0  0  0
 42 43  1  0  0  0  0
 44 40  1  0  0  0  0
M  END
>  <MODEL>
19

>  <REMARK>
 VINA RESULT:    -7.399      4.350      9.234
 INTER + INTRA:         -10.152
 INTER:                 -10.213
 INTRA:                   0.061
 UNBOUND:                -0.375
  Name = 
  6 active torsions:
  status: ('A' for Active; 'I' for Inactive)
    1  A    between atoms: C_1  and  C_2
    2  A    between atoms: C_2  and  C_3
    3  A    between atoms: C_2  and  S_22
    4  A    between atoms: C_5  and  N_9
    5  A    between atoms: C_10  and  C_12
    6  A    between atoms: S_22  and  C_23
                            x       y       z     vdW  Elec       q    Type
                         _______ _______ _______ _____ _____    ______ ____

>  <TORSDO>
F 6

$$$$
=
 OpenBabel07192307433D

 44 47  0  0  1  0  0  0  0  0999 V2000
   -0.0920   10.5960   20.3990 C   0  0  0  0  0  0  0  0  0  0  0  0
    0.7820    9.6540   19.8270 C   0  0  0  0  0  0  0  0  0  0  0  0
    1.3240    8.6080   20.5860 C   0  0  0  0  0  0  0  0  0  0  0  0
    1.0370    8.5370   21.9450 C   0  0  0  0  0  0  0  0  0  0  0  0
    0.2150    9.4940   22.5410 C   0  0  0  0  0  0  0  0  0  0  0  0
   -0.3500   10.5140   21.7740 C   0  0  0  0  0  0  0  0  0  0  0  0
    0.9850    9.6920   18.7590 H   0  0  0  0  0  0  0  0  0  0  0  0
    1.4420    7.7440   22.5670 H   0  0  0  0  0  0  0  0  0  0  0  0
   -0.0090    9.4220   23.6070 H   0  0  0  0  0  0  0  0  0  0  0  0
   -1.0160   11.2180   22.2630 H   0  0  0  0  0  0  0  0  0  0  0  0
    2.1050    7.6620   19.9020 N   0  0  0  0  0  0  0  0  0  0  0  0
    2.0810    6.2900   20.0410 C   0  0  0  0  0  0  0  0  0  0  0  0
    1.4300    5.6350   20.8490 O   0  0  0  0  0  0  0  0  0  0  0  0
    2.6300    7.9750   19.0930 H   0  0  0  0  0  0  0  0  0  0  0  0
    2.8970    5.6000   18.9860 C   0  0  0  0  0  0  0  0  0  0  0  0
    3.4860    6.3450   17.9670 C   0  0  0  0  0  0  0  0  0  0  0  0
    4.3370    5.6890   17.0680 C   0  0  0  0  0  0  0  0  0  0  0  0
    4.9900    6.3780   16.0280 C   0  0  0  0  0  0  0  0  0  0  0  0
    5.8520    5.7020   15.1620 C   0  0  0  0  0  0  0  0  0  0  0  0
    6.0740    4.3350   15.3180 C   0  0  0  0  0  0  0  0  0  0  0  0
    5.4220    3.6360   16.3320 C   0  0  0  0  0  0  0  0  0  0  0  0
    4.5590    4.3030   17.2180 C   0  0  0  0  0  0  0  0  0  0  0  0
    3.8990    3.6530   18.2640 C   0  0  0  0  0  0  0  0  0  0  0  0
    3.0870    4.2620   19.1590 N   0  0  0  0  0  0  0  0  0  0  0  0
    3.3100    7.4110   17.9060 H   0  0  0  0  0  0  0  0  0  0  0  0
    4.8290    7.4450   15.8850 H   0  0  0  0  0  0  0  0  0  0  0  0
    6.3510    6.2460   14.3640 H   0  0  0  0  0  0  0  0  0  0  0  0
    6.7480    3.8110   14.6440 H   0  0  0  0  0  0  0  0  0  0  0  0
    5.5950    2.5650   16.4290 H   0  0  0  0  0  0  0  0  0  0  0  0
    4.0260    2.5860   18.4260 H   0  0  0  0  0  0  0  0  0  0  0  0
   -0.8270   11.6180   19.5540 C   0  0  1  0  0  0  0  0  0  0  0  0
   -0.1880   11.9010   18.7070 H   0  0  0  0  0  0  0  0  0  0  0  0
   -2.1370   11.0900   18.9730 C   0  0  0  0  0  0  0  0  0  0  0  0
   -2.7530   10.6400   19.7570 H   0  0  0  0  0  0  0  0  0  0  0  0
   -2.7350   11.8740   18.5000 H   0  0  0  0  0  0  0  0  0  0  0  0
   -1.9520   10.3110   18.2240 H   0  0  0  0  0  0  0  0  0  0  0  0
   -1.1800   13.1140   20.5710 S   0  0  0  0  0  0  0  0  0  0  0  0
   -2.8940   12.9900   20.7680 C   0  0  1  0  0  3  0  0  0  0  0  0
   -3.7860   13.2660   19.8350 N   0  0  0  0  0  0  0  0  0  0  0  0
   -4.9660   12.9380   20.4460 C   0  0  0  0  0  0  0  0  0  0  0  0
   -4.8660   12.4930   21.6950 N   0  0  0  0  0  2  0  0  0  0  0  0
   -3.5320   12.5210   21.8810 N   0  0  0  0  0  0  0  0  0  0  0  0
   -2.8390   12.1990   23.4250 Cl  0  0  0  0  0  0  0  0  0  0  0  0
   -5.9290   13.0370   19.9630 H   0  0  0  0  0  0  0  0  0  0  0  0
  1  6  1  0  0  0  0
  2  1  2  0  0  0  0
  2  3  1  0  0  0  0
  3  4  2  0  0  0  0
  4  5  1  0  0  0  0
  4  8  1  0  0  0  0
  5  9  1  0  0  0  0
  6 10  1  0  0  0  0
  6  5  2  0  0  0  0
  7  2  1  0  0  0  0
 11 12  1  0  0  0  0
 11  3  1  0  0  0  0
 12 13  2  0  0  0  0
 14 11  1  0  0  0  0
 15 24  1  0  0  0  0
 15 12  1  0  0  0  0
 16 15  2  0  0  0  0
 17 22  1  0  0  0  0
 17 16  1  0  0  0  0
 18 17  2  0  0  0  0
 19 20  2  0  0  0  0
 19 18  1  0  0  0  0
 20 21  1  0  0  0  0
 21 29  1  0  0  0  0
 21 22  2  0  0  0  0
 22 23  1  0  0  0  0
 23 30  1  0  0  0  0
 23 24  2  0  0  0  0
 25 16  1  0  0  0  0
 26 18  1  0  0  0  0
 27 19  1  0  0  0  0
 28 20  1  0  0  0  0
 31 32  1  6  0  0  0
 31  1  1  0  0  0  0
 31 37  1  0  0  0  0
 33 31  1  0  0  0  0
 33 34  1  0  0  0  0
 35 33  1  0  0  0  0
 36 33  1  0  0  0  0
 38 37  1  6  0  0  0
 38 42  1  0  0  0  0
 39 40  2  0  0  0  0
 39 38  1  0  0  0  0
 40 41  1  0  0  0  0
 41 42  1  0  0  0  0
 42 43  1  0  0  0  0
 44 40  1  0  0  0  0
M  END
>  <MODEL>
20

>  <REMARK>
 VINA RESULT:    -7.373      2.193      2.516
 INTER + INTRA:         -10.118
 INTER:                 -10.055
 INTRA:                  -0.062
 UNBOUND:                -0.375
  Name = 
  6 active torsions:
  status: ('A' for Active; 'I' for Inactive)
    1  A    between atoms: C_1  and  C_2
    2  A    between atoms: C_2  and  C_3
    3  A    between atoms: C_2  and  S_22
    4  A    between atoms: C_5  and  N_9
    5  A    between atoms: C_10  and  C_12
    6  A    between atoms: S_22  and  C_23
                            x       y       z     vdW  Elec       q    Type
                         _______ _______ _______ _____ _____    ______ ____

>  <TORSDO>
F 6

$$$$
=
 OpenBabel07192307433D

 44 47  0  0  1  0  0  0  0  0999 V2000
   -0.3580   10.5280   20.8250 C   0  0  0  0  0  0  0  0  0  0  0  0
    0.4800    9.6090   20.1670 C   0  0  0  0  0  0  0  0  0  0  0  0
    1.2320    8.6670   20.8820 C   0  0  0  0  0  0  0  0  0  0  0  0
    1.1900    8.6810   22.2720 C   0  0  0  0  0  0  0  0  0  0  0  0
    0.4060    9.6200   22.9430 C   0  0  0  0  0  0  0  0  0  0  0  0
   -0.3660   10.5340   22.2260 C   0  0  0  0  0  0  0  0  0  0  0  0
    0.4920    9.5790   19.0800 H   0  0  0  0  0  0  0  0  0  0  0  0
    1.7620    7.9700   22.8620 H   0  0  0  0  0  0  0  0  0  0  0  0
    0.3760    9.6150   24.0340 H   0  0  0  0  0  0  0  0  0  0  0  0
   -0.9950   11.2250   22.7800 H   0  0  0  0  0  0  0  0  0  0  0  0
    1.9600    7.7290   20.1320 N   0  0  0  0  0  0  0  0  0  0  0  0
    1.9500    6.3560   20.2600 C   0  0  0  0  0  0  0  0  0  0  0  0
    1.3640    5.6920   21.1100 O   0  0  0  0  0  0  0  0  0  0  0  0
    2.4190    8.0510   19.2870 H   0  0  0  0  0  0  0  0  0  0  0  0
    2.6830    5.6770   19.1380 C   0  0  0  0  0  0  0  0  0  0  0  0
    3.4050    6.4380   18.2220 C   0  0  0  0  0  0  0  0  0  0  0  0
    4.1750    5.7700   17.2610 C   0  0  0  0  0  0  0  0  0  0  0  0
    4.9520    6.4680   16.3180 C   0  0  0  0  0  0  0  0  0  0  0  0
    5.7280    5.7740   15.3860 C   0  0  0  0  0  0  0  0  0  0  0  0
    5.7390    4.3810   15.3800 C   0  0  0  0  0  0  0  0  0  0  0  0
    4.9620    3.6760   16.2960 C   0  0  0  0  0  0  0  0  0  0  0  0
    4.1820    4.3580   17.2460 C   0  0  0  0  0  0  0  0  0  0  0  0
    3.4030    3.6980   18.2000 C   0  0  0  0  0  0  0  0  0  0  0  0
    2.6660    4.3150   19.1530 N   0  0  0  0  0  0  0  0  0  0  0  0
    3.3930    7.5180   18.2870 H   0  0  0  0  0  0  0  0  0  0  0  0
    4.9570    7.5560   16.3010 H   0  0  0  0  0  0  0  0  0  0  0  0
    6.3260    6.3250   14.6640 H   0  0  0  0  0  0  0  0  0  0  0  0
    6.3460    3.8420   14.6560 H   0  0  0  0  0  0  0  0  0  0  0  0
    4.9690    2.5870   16.2660 H   0  0  0  0  0  0  0  0  0  0  0  0
    3.3640    2.6140   18.2350 H   0  0  0  0  0  0  0  0  0  0  0  0
   -1.3110   11.4260   20.0610 C   0  0  1  0  0  0  0  0  0  0  0  0
   -2.2510   10.8840   19.8950 H   0  0  0  0  0  0  0  0  0  0  0  0
   -1.6580   12.7120   20.8090 C   0  0  0  0  0  0  0  0  0  0  0  0
   -2.7200   12.7320   21.0690 H   0  0  0  0  0  0  0  0  0  0  0  0
   -1.0950   12.8230   21.7390 H   0  0  0  0  0  0  0  0  0  0  0  0
   -1.4610   13.5960   20.1900 H   0  0  0  0  0  0  0  0  0  0  0  0
   -0.5690   11.8620   18.4310 S   0  0  0  0  0  0  0  0  0  0  0  0
    0.7580   12.8580   18.9210 C   0  0  1  0  0  3  0  0  0  0  0  0
    1.9620   12.4160   19.2340 N   0  0  0  0  0  0  0  0  0  0  0  0
    2.6520   13.5740   19.4650 C   0  0  0  0  0  0  0  0  0  0  0  0
    1.9560   14.6990   19.3300 N   0  0  0  0  0  2  0  0  0  0  0  0
    0.7490   14.2230   18.9690 N   0  0  0  0  0  0  0  0  0  0  0  0
   -0.6160   15.2650   18.8270 Cl  0  0  0  0  0  0  0  0  0  0  0  0
    3.6960   13.5930   19.7500 H   0  0  0  0  0  0  0  0  0  0  0  0
  1  6  1  0  0  0  0
  2  1  2  0  0  0  0
  2  3  1  0  0  0  0
  3  4  2  0  0  0  0
  4  8  1  0  0  0  0
  4  5  1  0  0  0  0
  5  9  1  0  0  0  0
  6 10  1  0  0  0  0
  6  5  2  0  0  0  0
  7  2  1  0  0  0  0
 11 12  1  0  0  0  0
 11  3  1  0  0  0  0
 12 13  2  0  0  0  0
 14 11  1  0  0  0  0
 15 24  1  0  0  0  0
 15 12  1  0  0  0  0
 16 25  1  0  0  0  0
 16 15  2  0  0  0  0
 17 16  1  0  0  0  0
 18 17  2  0  0  0  0
 19 18  1  0  0  0  0
 20 19  2  0  0  0  0
 20 21  1  0  0  0  0
 21 22  2  0  0  0  0
 22 17  1  0  0  0  0
 22 23  1  0  0  0  0
 23 30  1  0  0  0  0
 23 24  2  0  0  0  0
 26 18  1  0  0  0  0
 27 19  1  0  0  0  0
 28 20  1  0  0  0  0
 29 21  1  0  0  0  0
 31 32  1  6  0  0  0
 31 33  1  0  0  0  0
 31  1  1  0  0  0  0
 33 34  1  0  0  0  0
 33 35  1  0  0  0  0
 36 33  1  0  0  0  0
 37 31  1  0  0  0  0
 38 37  1  6  0  0  0
 38 42  1  0  0  0  0
 38 39  1  0  0  0  0
 39 40  2  0  0  0  0
 40 44  1  0  0  0  0
 41 40  1  0  0  0  0
 42 41  1  0  0  0  0
 43 42  1  0  0  0  0
M  END
>  <MODEL>
21

>  <REMARK>
 VINA RESULT:    -7.365      2.591      3.121
 INTER + INTRA:         -10.107
 INTER:                  -9.744
 INTRA:                  -0.363
 UNBOUND:                -0.375
  Name = 
  6 active torsions:
  status: ('A' for Active; 'I' for Inactive)
    1  A    between atoms: C_1  and  C_2
    2  A    between atoms: C_2  and  C_3
    3  A    between atoms: C_2  and  S_22
    4  A    between atoms: C_5  and  N_9
    5  A    between atoms: C_10  and  C_12
    6  A    between atoms: S_22  and  C_23
                            x       y       z     vdW  Elec       q    Type
                         _______ _______ _______ _____ _____    ______ ____

>  <TORSDO>
F 6

$$$$
=
 OpenBabel07192307433D

 44 47  0  0  1  0  0  0  0  0999 V2000
    1.6270    7.5890   19.9670 C   0  0  0  0  0  0  0  0  0  0  0  0
    2.6510    7.3000   19.0460 C   0  0  0  0  0  0  0  0  0  0  0  0
    3.2180    6.0210   18.9640 C   0  0  0  0  0  0  0  0  0  0  0  0
    2.7980    5.0360   19.8510 C   0  0  0  0  0  0  0  0  0  0  0  0
    1.8230    5.3190   20.8070 C   0  0  0  0  0  0  0  0  0  0  0  0
    1.2370    6.5840   20.8620 C   0  0  0  0  0  0  0  0  0  0  0  0
    2.9600    8.0620   18.3340 H   0  0  0  0  0  0  0  0  0  0  0  0
    3.2170    4.0340   19.8220 H   0  0  0  0  0  0  0  0  0  0  0  0
    1.4960    4.5340   21.4920 H   0  0  0  0  0  0  0  0  0  0  0  0
    0.4520    6.7570   21.5930 H   0  0  0  0  0  0  0  0  0  0  0  0
    4.1620    5.8060   17.9470 N   0  0  0  0  0  0  0  0  0  0  0  0
    5.2450    4.9540   17.9690 C   0  0  0  0  0  0  0  0  0  0  0  0
    5.6420    4.2780   18.9130 O   0  0  0  0  0  0  0  0  0  0  0  0
    3.9570    6.1710   17.0230 H   0  0  0  0  0  0  0  0  0  0  0  0
    5.8950    4.8280   16.6200 C   0  0  0  0  0  0  0  0  0  0  0  0
    5.2600    4.1110   15.6090 C   0  0  0  0  0  0  0  0  0  0  0  0
    5.8320    4.1120   14.3310 C   0  0  0  0  0  0  0  0  0  0  0  0
    5.2360    3.4330   13.2510 C   0  0  0  0  0  0  0  0  0  0  0  0
    5.8170    3.4720   11.9810 C   0  0  0  0  0  0  0  0  0  0  0  0
    6.9970    4.1850   11.7710 C   0  0  0  0  0  0  0  0  0  0  0  0
    7.6070    4.8480   12.8330 C   0  0  0  0  0  0  0  0  0  0  0  0
    7.0310    4.8260   14.1150 C   0  0  0  0  0  0  0  0  0  0  0  0
    7.5910    5.4930   15.2080 C   0  0  0  0  0  0  0  0  0  0  0  0
    7.0520    5.5270   16.4480 N   0  0  0  0  0  0  0  0  0  0  0  0
    4.3280    3.6000   15.8120 H   0  0  0  0  0  0  0  0  0  0  0  0
    4.3180    2.8670   13.3930 H   0  0  0  0  0  0  0  0  0  0  0  0
    5.3460    2.9450   11.1550 H   0  0  0  0  0  0  0  0  0  0  0  0
    7.4460    4.2160   10.7810 H   0  0  0  0  0  0  0  0  0  0  0  0
    8.5370    5.3860   12.6540 H   0  0  0  0  0  0  0  0  0  0  0  0
    8.5150    6.0540   15.1040 H   0  0  0  0  0  0  0  0  0  0  0  0
    0.8820    8.9090   19.9430 C   0  0  1  0  0  0  0  0  0  0  0  0
   -0.1840    8.7090   19.7710 H   0  0  0  0  0  0  0  0  0  0  0  0
    0.9890    9.6860   21.2530 C   0  0  0  0  0  0  0  0  0  0  0  0
    1.7760   10.4430   21.1880 H   0  0  0  0  0  0  0  0  0  0  0  0
    0.0620   10.2030   21.5130 H   0  0  0  0  0  0  0  0  0  0  0  0
    1.2490    9.0230   22.0870 H   0  0  0  0  0  0  0  0  0  0  0  0
    1.5290    9.9530   18.5690 S   0  0  0  0  0  0  0  0  0  0  0  0
    0.6130   11.4040   18.7890 C   0  0  1  0  0  3  0  0  0  0  0  0
    1.1150   12.5670   19.1600 N   0  0  0  0  0  0  0  0  0  0  0  0
    0.0230   13.3910   19.1090 C   0  0  0  0  0  0  0  0  0  0  0  0
   -1.1190   12.8150   18.7480 N   0  0  0  0  0  2  0  0  0  0  0  0
   -0.7210   11.5450   18.5340 N   0  0  0  0  0  0  0  0  0  0  0  0
   -1.8600   10.2960   18.2020 Cl  0  0  0  0  0  0  0  0  0  0  0  0
    0.0650   14.4430   19.3540 H   0  0  0  0  0  0  0  0  0  0  0  0
  1  6  1  0  0  0  0
  2  1  2  0  0  0  0
  3  2  1  0  0  0  0
  3  4  2  0  0  0  0
  4  5  1  0  0  0  0
  5  6  2  0  0  0  0
  5  9  1  0  0  0  0
  6 10  1  0  0  0  0
  7  2  1  0  0  0  0
  8  4  1  0  0  0  0
 11 12  1  0  0  0  0
 11  3  1  0  0  0  0
 12 13  2  0  0  0  0
 14 11  1  0  0  0  0
 15 12  1  0  0  0  0
 16 25  1  0  0  0  0
 16 15  2  0  0  0  0
 17 16  1  0  0  0  0
 18 26  1  0  0  0  0
 18 17  2  0  0  0  0
 19 18  1  0  0  0  0
 20 19  2  0  0  0  0
 20 21  1  0  0  0  0
 21 22  2  0  0  0  0
 22 17  1  0  0  0  0
 22 23  1  0  0  0  0
 23 24  2  0  0  0  0
 24 15  1  0  0  0  0
 27 19  1  0  0  0  0
 28 20  1  0  0  0  0
 29 21  1  0  0  0  0
 30 23  1  0  0  0  0
 31 32  1  6  0  0  0
 31  1  1  0  0  0  0
 31 33  1  0  0  0  0
 33 35  1  0  0  0  0
 33 36  1  0  0  0  0
 34 33  1  0  0  0  0
 37 31  1  0  0  0  0
 38 37  1  6  0  0  0
 38 39  1  0  0  0  0
 40 39  2  0  0  0  0
 40 44  1  0  0  0  0
 41 40  1  0  0  0  0
 42 41  1  0  0  0  0
 42 38  1  0  0  0  0
 43 42  1  0  0  0  0
M  END
>  <MODEL>
22

>  <REMARK>
 VINA RESULT:    -7.364      2.525      4.001
 INTER + INTRA:         -10.106
 INTER:                  -9.620
 INTRA:                  -0.487
 UNBOUND:                -0.375
  Name = 
  6 active torsions:
  status: ('A' for Active; 'I' for Inactive)
    1  A    between atoms: C_1  and  C_2
    2  A    between atoms: C_2  and  C_3
    3  A    between atoms: C_2  and  S_22
    4  A    between atoms: C_5  and  N_9
    5  A    between atoms: C_10  and  C_12
    6  A    between atoms: S_22  and  C_23
                            x       y       z     vdW  Elec       q    Type
                         _______ _______ _______ _____ _____    ______ ____

>  <TORSDO>
F 6

$$$$
=
 OpenBabel07192307433D

 44 47  0  0  1  0  0  0  0  0999 V2000
   -0.6790   12.4020   19.8410 C   0  0  0  0  0  0  0  0  0  0  0  0
   -0.1980   11.0860   19.7180 C   0  0  0  0  0  0  0  0  0  0  0  0
    1.0260   10.8130   19.0930 C   0  0  0  0  0  0  0  0  0  0  0  0
    1.7490   11.8610   18.5330 C   0  0  0  0  0  0  0  0  0  0  0  0
    1.2610   13.1660   18.5980 C   0  0  0  0  0  0  0  0  0  0  0  0
    0.0590   13.4370   19.2520 C   0  0  0  0  0  0  0  0  0  0  0  0
   -0.7490   10.2690   20.1800 H   0  0  0  0  0  0  0  0  0  0  0  0
    2.7000   11.6890   18.0360 H   0  0  0  0  0  0  0  0  0  0  0  0
    1.8430   13.9800   18.1620 H   0  0  0  0  0  0  0  0  0  0  0  0
   -0.2710   14.4700   19.3180 H   0  0  0  0  0  0  0  0  0  0  0  0
    1.4670    9.4800   19.1080 N   0  0  0  0  0  0  0  0  0  0  0  0
    1.5930    8.6450   20.1990 C   0  0  0  0  0  0  0  0  0  0  0  0
    1.4210    8.9330   21.3790 O   0  0  0  0  0  0  0  0  0  0  0  0
    1.5460    8.9950   18.2200 H   0  0  0  0  0  0  0  0  0  0  0  0
    1.8800    7.2270   19.7960 C   0  0  0  0  0  0  0  0  0  0  0  0
    1.5670    6.1840   20.6640 C   0  0  0  0  0  0  0  0  0  0  0  0
    1.7360    4.8680   20.2130 C   0  0  0  0  0  0  0  0  0  0  0  0
    1.4170    3.7610   21.0210 C   0  0  0  0  0  0  0  0  0  0  0  0
    1.5730    2.4600   20.5360 C   0  0  0  0  0  0  0  0  0  0  0  0
    2.0500    2.2460   19.2440 C   0  0  0  0  0  0  0  0  0  0  0  0
    2.3860    3.3320   18.4380 C   0  0  0  0  0  0  0  0  0  0  0  0
    2.2260    4.6470   18.9080 C   0  0  0  0  0  0  0  0  0  0  0  0
    2.5280    5.7700   18.1320 C   0  0  0  0  0  0  0  0  0  0  0  0
    2.3560    7.0510   18.5320 N   0  0  0  0  0  0  0  0  0  0  0  0
    1.1680    6.3980   21.6470 H   0  0  0  0  0  0  0  0  0  0  0  0
    1.0470    3.9040   22.0340 H   0  0  0  0  0  0  0  0  0  0  0  0
    1.3210    1.6130   21.1690 H   0  0  0  0  0  0  0  0  0  0  0  0
    2.1680    1.2330   18.8660 H   0  0  0  0  0  0  0  0  0  0  0  0
    2.7730    3.1450   17.4370 H   0  0  0  0  0  0  0  0  0  0  0  0
    2.9130    5.6620   17.1220 H   0  0  0  0  0  0  0  0  0  0  0  0
   -1.9050   12.7280   20.6720 C   0  0  1  0  0  0  0  0  0  0  0  0
   -1.9410   13.8130   20.8370 H   0  0  0  0  0  0  0  0  0  0  0  0
   -3.2150   12.3310   19.9950 C   0  0  0  0  0  0  0  0  0  0  0  0
   -3.9400   13.1480   20.0480 H   0  0  0  0  0  0  0  0  0  0  0  0
   -3.0850   12.0810   18.9390 H   0  0  0  0  0  0  0  0  0  0  0  0
   -3.6700   11.4650   20.4910 H   0  0  0  0  0  0  0  0  0  0  0  0
   -1.7870   11.8740   22.3010 S   0  0  0  0  0  0  0  0  0  0  0  0
   -1.9620   13.2040   23.3930 C   0  0  1  0  0  3  0  0  0  0  0  0
   -1.0940   14.1890   23.5320 N   0  0  0  0  0  0  0  0  0  0  0  0
   -1.7170   15.0070   24.4340 C   0  0  0  0  0  0  0  0  0  0  0  0
   -2.9000   14.5900   24.8720 N   0  0  0  0  0  2  0  0  0  0  0  0
   -3.0480   13.4400   24.1860 N   0  0  0  0  0  0  0  0  0  0  0  0
   -4.3630   12.3730   24.5030 Cl  0  0  0  0  0  0  0  0  0  0  0  0
   -1.2850   15.9330   24.7880 H   0  0  0  0  0  0  0  0  0  0  0  0
  1 31  1  0  0  0  0
  2  1  1  0  0  0  0
  2  7  1  0  0  0  0
  3 11  1  0  0  0  0
  3  2  2  0  0  0  0
  4  5  2  0  0  0  0
  4  3  1  0  0  0  0
  5  6  1  0  0  0  0
  6 10  1  0  0  0  0
  6  1  2  0  0  0  0
  8  4  1  0  0  0  0
  9  5  1  0  0  0  0
 11 12  1  0  0  0  0
 12 13  2  0  0  0  0
 14 11  1  0  0  0  0
 15 12  1  0  0  0  0
 15 16  1  0  0  0  0
 16 25  1  0  0  0  0
 17 16  2  0  0  0  0
 17 18  1  0  0  0  0
 18 26  1  0  0  0  0
 19 18  2  0  0  0  0
 19 27  1  0  0  0  0
 20 19  1  0  0  0  0
 21 22  1  0  0  0  0
 21 20  2  0  0  0  0
 22 17  1  0  0  0  0
 23 24  1  0  0  0  0
 23 22  2  0  0  0  0
 24 15  2  0  0  0  0
 28 20  1  0  0  0  0
 29 21  1  0  0  0  0
 30 23  1  0  0  0  0
 31 32  1  1  0  0  0
 31 37  1  0  0  0  0
 33 34  1  0  0  0  0
 33 36  1  0  0  0  0
 33 31  1  0  0  0  0
 35 33  1  0  0  0  0
 38 37  1  6  0  0  0
 38 39  1  0  0  0  0
 38 42  1  0  0  0  0
 39 40  2  0  0  0  0
 40 44  1  0  0  0  0
 40 41  1  0  0  0  0
 42 43  1  0  0  0  0
 42 41  1  0  0  0  0
M  END
>  <MODEL>
23

>  <REMARK>
 VINA RESULT:    -7.324      3.711      5.139
 INTER + INTRA:         -10.053
 INTER:                  -9.522
 INTRA:                  -0.531
 UNBOUND:                -0.375
  Name = 
  6 active torsions:
  status: ('A' for Active; 'I' for Inactive)
    1  A    between atoms: C_1  and  C_2
    2  A    between atoms: C_2  and  C_3
    3  A    between atoms: C_2  and  S_22
    4  A    between atoms: C_5  and  N_9
    5  A    between atoms: C_10  and  C_12
    6  A    between atoms: S_22  and  C_23
                            x       y       z     vdW  Elec       q    Type
                         _______ _______ _______ _____ _____    ______ ____

>  <TORSDO>
F 6

$$$$
=
 OpenBabel07192307433D

 44 47  0  0  1  0  0  0  0  0999 V2000
    0.2590   12.2680   21.5420 C   0  0  0  0  0  0  0  0  0  0  0  0
    0.8480   11.0480   21.1630 C   0  0  0  0  0  0  0  0  0  0  0  0
    0.3790    9.8260   21.6640 C   0  0  0  0  0  0  0  0  0  0  0  0
   -0.6510    9.8270   22.5990 C   0  0  0  0  0  0  0  0  0  0  0  0
   -1.2110   11.0310   23.0270 C   0  0  0  0  0  0  0  0  0  0  0  0
   -0.7640   12.2430   22.4990 C   0  0  0  0  0  0  0  0  0  0  0  0
    1.6340   11.0440   20.4110 H   0  0  0  0  0  0  0  0  0  0  0  0
   -1.0380    8.9010   23.0140 H   0  0  0  0  0  0  0  0  0  0  0  0
   -2.0240   11.0170   23.7550 H   0  0  0  0  0  0  0  0  0  0  0  0
   -1.2490   13.1580   22.8260 H   0  0  0  0  0  0  0  0  0  0  0  0
    0.9660    8.6580   21.1500 N   0  0  0  0  0  0  0  0  0  0  0  0
    1.4060    8.4310   19.8630 C   0  0  0  0  0  0  0  0  0  0  0  0
    1.2940    9.1790   18.8960 O   0  0  0  0  0  0  0  0  0  0  0  0
    1.2700    7.9490   21.8090 H   0  0  0  0  0  0  0  0  0  0  0  0
    2.1770    7.1480   19.7460 C   0  0  0  0  0  0  0  0  0  0  0  0
    1.8950    6.0880   20.6030 C   0  0  0  0  0  0  0  0  0  0  0  0
    2.5470    4.8670   20.3920 C   0  0  0  0  0  0  0  0  0  0  0  0
    2.2950    3.7420   21.2000 C   0  0  0  0  0  0  0  0  0  0  0  0
    2.9430    2.5300   20.9490 C   0  0  0  0  0  0  0  0  0  0  0  0
    3.8500    2.4240   19.8960 C   0  0  0  0  0  0  0  0  0  0  0  0
    4.1220    3.5320   19.0980 C   0  0  0  0  0  0  0  0  0  0  0  0
    3.4720    4.7560   19.3300 C   0  0  0  0  0  0  0  0  0  0  0  0
    3.6930    5.8920   18.5460 C   0  0  0  0  0  0  0  0  0  0  0  0
    3.0630    7.0780   18.7130 N   0  0  0  0  0  0  0  0  0  0  0  0
    1.1580    6.2080   21.3880 H   0  0  0  0  0  0  0  0  0  0  0  0
    1.5950    3.8030   22.0300 H   0  0  0  0  0  0  0  0  0  0  0  0
    2.7390    1.6680   21.5800 H   0  0  0  0  0  0  0  0  0  0  0  0
    4.3510    1.4780   19.7010 H   0  0  0  0  0  0  0  0  0  0  0  0
    4.8460    3.4350   18.2890 H   0  0  0  0  0  0  0  0  0  0  0  0
    4.3970    5.8690   17.7190 H   0  0  0  0  0  0  0  0  0  0  0  0
    0.6320   13.5750   20.8710 C   0  0  1  0  0  0  0  0  0  0  0  0
    0.9770   14.2800   21.6390 H   0  0  0  0  0  0  0  0  0  0  0  0
    1.7620   13.4300   19.8540 C   0  0  0  0  0  0  0  0  0  0  0  0
    1.8940   12.3820   19.5700 H   0  0  0  0  0  0  0  0  0  0  0  0
    1.5780   13.9940   18.9360 H   0  0  0  0  0  0  0  0  0  0  0  0
    2.7170   13.7720   20.2710 H   0  0  0  0  0  0  0  0  0  0  0  0
   -0.8480   14.2770   20.0280 S   0  0  0  0  0  0  0  0  0  0  0  0
   -1.3960   12.9110   19.1180 C   0  0  1  0  0  3  0  0  0  0  0  0
   -0.7510   12.3710   18.1020 N   0  0  0  0  0  0  0  0  0  0  0  0
   -1.5390   11.2970   17.7880 C   0  0  0  0  0  0  0  0  0  0  0  0
   -2.6320   11.1460   18.5290 N   0  0  0  0  0  2  0  0  0  0  0  0
   -2.5190   12.1800   19.3840 N   0  0  0  0  0  0  0  0  0  0  0  0
   -3.7850   12.5730   20.4850 Cl  0  0  0  0  0  0  0  0  0  0  0  0
   -1.3090   10.6100   16.9840 H   0  0  0  0  0  0  0  0  0  0  0  0
  1  6  1  0  0  0  0
  2  1  2  0  0  0  0
  2  3  1  0  0  0  0
  3  4  2  0  0  0  0
  4  8  1  0  0  0  0
  4  5  1  0  0  0  0
  5  9  1  0  0  0  0
  6 10  1  0  0  0  0
  6  5  2  0  0  0  0
  7  2  1  0  0  0  0
 11  3  1  0  0  0  0
 11 14  1  0  0  0  0
 12 11  1  0  0  0  0
 13 12  2  0  0  0  0
 15 12  1  0  0  0  0
 15 16  1  0  0  0  0
 16 25  1  0  0  0  0
 17 16  2  0  0  0  0
 17 18  1  0  0  0  0
 18 26  1  0  0  0  0
 19 18  2  0  0  0  0
 19 27  1  0  0  0  0
 20 19  1  0  0  0  0
 21 22  1  0  0  0  0
 21 20  2  0  0  0  0
 22 17  1  0  0  0  0
 23 24  1  0  0  0  0
 23 22  2  0  0  0  0
 24 15  2  0  0  0  0
 28 20  1  0  0  0  0
 29 21  1  0  0  0  0
 30 23  1  0  0  0  0
 31  1  1  0  0  0  0
 31 32  1  1  0  0  0
 33 36  1  0  0  0  0
 33 31  1  0  0  0  0
 34 33  1  0  0  0  0
 35 33  1  0  0  0  0
 37 31  1  0  0  0  0
 38 42  1  0  0  0  0
 38 37  1  1  0  0  0
 39 38  1  0  0  0  0
 40 39  2  0  0  0  0
 40 41  1  0  0  0  0
 41 42  1  0  0  0  0
 42 43  1  0  0  0  0
 44 40  1  0  0  0  0
M  END
>  <MODEL>
24

>  <REMARK>
 VINA RESULT:    -7.296      2.621      3.611
 INTER + INTRA:         -10.016
 INTER:                  -9.422
 INTRA:                  -0.594
 UNBOUND:                -0.375
  Name = 
  6 active torsions:
  status: ('A' for Active; 'I' for Inactive)
    1  A    between atoms: C_1  and  C_2
    2  A    between atoms: C_2  and  C_3
    3  A    between atoms: C_2  and  S_22
    4  A    between atoms: C_5  and  N_9
    5  A    between atoms: C_10  and  C_12
    6  A    between atoms: S_22  and  C_23
                            x       y       z     vdW  Elec       q    Type
                         _______ _______ _______ _____ _____    ______ ____

>  <TORSDO>
F 6

$$$$
=
 OpenBabel07192307433D

 44 47  0  0  1  0  0  0  0  0999 V2000
   -1.2230   12.0100   21.0470 C   0  0  0  0  0  0  0  0  0  0  0  0
   -0.6470   10.8080   20.5980 C   0  0  0  0  0  0  0  0  0  0  0  0
    0.7320   10.7020   20.3680 C   0  0  0  0  0  0  0  0  0  0  0  0
    1.5340   11.8250   20.5330 C   0  0  0  0  0  0  0  0  0  0  0  0
    0.9720   13.0400   20.9250 C   0  0  0  0  0  0  0  0  0  0  0  0
   -0.3960   13.1320   21.1860 C   0  0  0  0  0  0  0  0  0  0  0  0
   -1.2690    9.9220   20.4960 H   0  0  0  0  0  0  0  0  0  0  0  0
    2.6060   11.7840   20.3590 H   0  0  0  0  0  0  0  0  0  0  0  0
    1.6150   13.9130   21.0590 H   0  0  0  0  0  0  0  0  0  0  0  0
   -0.7920   14.0830   21.5280 H   0  0  0  0  0  0  0  0  0  0  0  0
    1.2240    9.4340   20.0180 N   0  0  0  0  0  0  0  0  0  0  0  0
    1.5420    8.3910   20.8610 C   0  0  0  0  0  0  0  0  0  0  0  0
    1.5340    8.3960   22.0880 O   0  0  0  0  0  0  0  0  0  0  0  0
    1.1920    9.1650   19.0400 H   0  0  0  0  0  0  0  0  0  0  0  0
    1.8260    7.1210   20.1090 C   0  0  0  0  0  0  0  0  0  0  0  0
    1.4500    5.8960   20.6520 C   0  0  0  0  0  0  0  0  0  0  0  0
    1.6190    4.7420   19.8760 C   0  0  0  0  0  0  0  0  0  0  0  0
    1.2390    3.4700   20.3440 C   0  0  0  0  0  0  0  0  0  0  0  0
    1.3980    2.3410   19.5380 C   0  0  0  0  0  0  0  0  0  0  0  0
    1.9380    2.4630   18.2590 C   0  0  0  0  0  0  0  0  0  0  0  0
    2.3340    3.7120   17.7870 C   0  0  0  0  0  0  0  0  0  0  0  0
    2.1720    4.8600   18.5820 C   0  0  0  0  0  0  0  0  0  0  0  0
    2.5330    6.1380   18.1480 C   0  0  0  0  0  0  0  0  0  0  0  0
    2.3630    7.2720   18.8660 N   0  0  0  0  0  0  0  0  0  0  0  0
    1.0040    5.8540   21.6380 H   0  0  0  0  0  0  0  0  0  0  0  0
    0.8200    3.3510   21.3410 H   0  0  0  0  0  0  0  0  0  0  0  0
    1.0990    1.3640   19.9110 H   0  0  0  0  0  0  0  0  0  0  0  0
    2.0580    1.5820   17.6310 H   0  0  0  0  0  0  0  0  0  0  0  0
    2.7690    3.7860   16.7910 H   0  0  0  0  0  0  0  0  0  0  0  0
    2.9680    6.2900   17.1640 H   0  0  0  0  0  0  0  0  0  0  0  0
   -2.6760   12.0870   21.4740 C   0  0  1  0  0  0  0  0  0  0  0  0
   -3.0980   11.0740   21.4740 H   0  0  0  0  0  0  0  0  0  0  0  0
   -2.8620   12.6530   22.8810 C   0  0  0  0  0  0  0  0  0  0  0  0
   -2.2340   12.1170   23.5980 H   0  0  0  0  0  0  0  0  0  0  0  0
   -2.6000   13.7120   22.9470 H   0  0  0  0  0  0  0  0  0  0  0  0
   -3.9000   12.5430   23.2170 H   0  0  0  0  0  0  0  0  0  0  0  0
   -3.6120   13.1310   20.2780 S   0  0  0  0  0  0  0  0  0  0  0  0
   -3.8110   12.0330   18.9560 C   0  0  1  0  0  3  0  0  0  0  0  0
   -4.8730   11.2750   18.7550 N   0  0  0  0  0  0  0  0  0  0  0  0
   -4.5820   10.6680   17.5640 C   0  0  0  0  0  0  0  0  0  0  0  0
   -3.4100   10.9870   17.0230 N   0  0  0  0  0  2  0  0  0  0  0  0
   -2.9340   11.8720   17.9210 N   0  0  0  0  0  0  0  0  0  0  0  0
   -1.3320   12.4920   17.8030 Cl  0  0  0  0  0  0  0  0  0  0  0  0
   -5.2450    9.9630   17.0820 H   0  0  0  0  0  0  0  0  0  0  0  0
  1  6  1  0  0  0  0
  1 31  1  0  0  0  0
  2  1  2  0  0  0  0
  3  4  2  0  0  0  0
  3  2  1  0  0  0  0
  4  5  1  0  0  0  0
  5  9  1  0  0  0  0
  5  6  2  0  0  0  0
  6 10  1  0  0  0  0
  7  2  1  0  0  0  0
  8  4  1  0  0  0  0
 11  3  1  0  0  0  0
 11 12  1  0  0  0  0
 12 13  2  0  0  0  0
 14 11  1  0  0  0  0
 15 16  1  0  0  0  0
 15 12  1  0  0  0  0
 16 25  1  0  0  0  0
 17 18  1  0  0  0  0
 17 16  2  0  0  0  0
 18 26  1  0  0  0  0
 19 27  1  0  0  0  0
 19 18  2  0  0  0  0
 20 19  1  0  0  0  0
 21 20  2  0  0  0  0
 21 22  1  0  0  0  0
 22 17  1  0  0  0  0
 23 22  2  0  0  0  0
 23 24  1  0  0  0  0
 24 15  2  0  0  0  0
 28 20  1  0  0  0  0
 29 21  1  0  0  0  0
 30 23  1  0  0  0  0
 31 32  1  6  0  0  0
 31 33  1  0  0  0  0
 33 35  1  0  0  0  0
 33 36  1  0  0  0  0
 33 34  1  0  0  0  0
 37 31  1  0  0  0  0
 38 37  1  6  0  0  0
 39 38  1  0  0  0  0
 40 39  2  0  0  0  0
 41 40  1  0  0  0  0
 41 42  1  0  0  0  0
 42 38  1  0  0  0  0
 43 42  1  0  0  0  0
 44 40  1  0  0  0  0
M  END
>  <MODEL>
25

>  <REMARK>
 VINA RESULT:    -7.252      2.420      3.506
 INTER + INTRA:          -9.958
 INTER:                  -9.028
 INTRA:                  -0.930
 UNBOUND:                -0.375
  Name = 
  6 active torsions:
  status: ('A' for Active; 'I' for Inactive)
    1  A    between atoms: C_1  and  C_2
    2  A    between atoms: C_2  and  C_3
    3  A    between atoms: C_2  and  S_22
    4  A    between atoms: C_5  and  N_9
    5  A    between atoms: C_10  and  C_12
    6  A    between atoms: S_22  and  C_23
                            x       y       z     vdW  Elec       q    Type
                         _______ _______ _______ _____ _____    ______ ____

>  <TORSDO>
F 6

$$$$
=
 OpenBabel07192307433D

 44 47  0  0  1  0  0  0  0  0999 V2000
   -0.3710   12.3800   18.5930 C   0  0  0  0  0  0  0  0  0  0  0  0
    0.0820   11.0490   18.6210 C   0  0  0  0  0  0  0  0  0  0  0  0
    1.4460   10.7410   18.5180 C   0  0  0  0  0  0  0  0  0  0  0  0
    2.3610   11.7700   18.3270 C   0  0  0  0  0  0  0  0  0  0  0  0
    1.9240   13.0930   18.2430 C   0  0  0  0  0  0  0  0  0  0  0  0
    0.5690   13.3970   18.3800 C   0  0  0  0  0  0  0  0  0  0  0  0
   -0.6290   10.2450   18.7980 H   0  0  0  0  0  0  0  0  0  0  0  0
    3.4250   11.5720   18.2380 H   0  0  0  0  0  0  0  0  0  0  0  0
    2.6530   13.8930   18.1010 H   0  0  0  0  0  0  0  0  0  0  0  0
    0.2700   14.4410   18.3490 H   0  0  0  0  0  0  0  0  0  0  0  0
    1.8070    9.3910   18.6560 N   0  0  0  0  0  0  0  0  0  0  0  0
    1.7250    8.6080   19.7880 C   0  0  0  0  0  0  0  0  0  0  0  0
    1.3980    8.9620   20.9170 O   0  0  0  0  0  0  0  0  0  0  0  0
    1.9890    8.8590   17.8120 H   0  0  0  0  0  0  0  0  0  0  0  0
    1.9920    7.1580   19.4950 C   0  0  0  0  0  0  0  0  0  0  0  0
    1.6250    6.1860   20.4210 C   0  0  0  0  0  0  0  0  0  0  0  0
    1.7770    4.8380   20.0690 C   0  0  0  0  0  0  0  0  0  0  0  0
    1.4060    3.7970   20.9400 C   0  0  0  0  0  0  0  0  0  0  0  0
    1.5470    2.4630   20.5510 C   0  0  0  0  0  0  0  0  0  0  0  0
    2.0600    2.1490   19.2940 C   0  0  0  0  0  0  0  0  0  0  0  0
    2.4480    3.1680   18.4270 C   0  0  0  0  0  0  0  0  0  0  0  0
    2.3040    4.5160   18.7990 C   0  0  0  0  0  0  0  0  0  0  0  0
    2.6580    5.5750   17.9580 C   0  0  0  0  0  0  0  0  0  0  0  0
    2.5040    6.8840   18.2630 N   0  0  0  0  0  0  0  0  0  0  0  0
    1.2000    6.4770   21.3730 H   0  0  0  0  0  0  0  0  0  0  0  0
    1.0060    4.0190   21.9270 H   0  0  0  0  0  0  0  0  0  0  0  0
    1.2540    1.6680   21.2330 H   0  0  0  0  0  0  0  0  0  0  0  0
    2.1670    1.1100   18.9920 H   0  0  0  0  0  0  0  0  0  0  0  0
    2.8630    2.9040   17.4550 H   0  0  0  0  0  0  0  0  0  0  0  0
    3.0730    5.3880   16.9730 H   0  0  0  0  0  0  0  0  0  0  0  0
   -1.8150   12.7370   18.8860 C   0  0  1  0  0  0  0  0  0  0  0  0
   -2.2220   13.2910   18.0290 H   0  0  0  0  0  0  0  0  0  0  0  0
   -2.7070   11.5150   19.0980 C   0  0  0  0  0  0  0  0  0  0  0  0
   -3.1980   11.2300   18.1640 H   0  0  0  0  0  0  0  0  0  0  0  0
   -2.1500   10.6440   19.4520 H   0  0  0  0  0  0  0  0  0  0  0  0
   -3.4990   11.7260   19.8270 H   0  0  0  0  0  0  0  0  0  0  0  0
   -1.8910   13.8040   20.3860 S   0  0  0  0  0  0  0  0  0  0  0  0
   -1.7580   12.6250   21.6450 C   0  0  1  0  0  3  0  0  0  0  0  0
   -0.6570   11.9650   21.9510 N   0  0  0  0  0  0  0  0  0  0  0  0
   -1.0440   11.2330   23.0410 C   0  0  0  0  0  0  0  0  0  0  0  0
   -2.3090   11.3840   23.4200 N   0  0  0  0  0  2  0  0  0  0  0  0
   -2.7490   12.2880   22.5230 N   0  0  0  0  0  0  0  0  0  0  0  0
   -4.4120   12.7300   22.4410 Cl  0  0  0  0  0  0  0  0  0  0  0  0
   -0.3800   10.5610   23.5680 H   0  0  0  0  0  0  0  0  0  0  0  0
  1  2  1  0  0  0  0
  1 31  1  0  0  0  0
  2  7  1  0  0  0  0
  3  2  2  0  0  0  0
  3 11  1  0  0  0  0
  4  3  1  0  0  0  0
  5  4  2  0  0  0  0
  5  6  1  0  0  0  0
  6  1  2  0  0  0  0
  8  4  1  0  0  0  0
  9  5  1  0  0  0  0
 10  6  1  0  0  0  0
 11 12  1  0  0  0  0
 12 13  2  0  0  0  0
 14 11  1  0  0  0  0
 15 12  1  0  0  0  0
 15 16  1  0  0  0  0
 16 25  1  0  0  0  0
 17 16  2  0  0  0  0
 17 18  1  0  0  0  0
 18 26  1  0  0  0  0
 19 18  2  0  0  0  0
 19 27  1  0  0  0  0
 20 19  1  0  0  0  0
 21 22  1  0  0  0  0
 21 20  2  0  0  0  0
 22 17  1  0  0  0  0
 23 24  1  0  0  0  0
 23 22  2  0  0  0  0
 24 15  2  0  0  0  0
 28 20  1  0  0  0  0
 29 21  1  0  0  0  0
 30 23  1  0  0  0  0
 31 32  1  6  0  0  0
 31 33  1  0  0  0  0
 31 37  1  0  0  0  0
 33 35  1  0  0  0  0
 33 36  1  0  0  0  0
 34 33  1  0  0  0  0
 38 37  1  1  0  0  0
 38 39  1  0  0  0  0
 38 42  1  0  0  0  0
 39 40  2  0  0  0  0
 40 41  1  0  0  0  0
 40 44  1  0  0  0  0
 42 41  1  0  0  0  0
 43 42  1  0  0  0  0
M  END
>  <MODEL>
26

>  <REMARK>
 VINA RESULT:    -7.251      3.328      4.622
 INTER + INTRA:          -9.957
 INTER:                  -9.104
 INTRA:                  -0.853
 UNBOUND:                -0.375
  Name = 
  6 active torsions:
  status: ('A' for Active; 'I' for Inactive)
    1  A    between atoms: C_1  and  C_2
    2  A    between atoms: C_2  and  C_3
    3  A    between atoms: C_2  and  S_22
    4  A    between atoms: C_5  and  N_9
    5  A    between atoms: C_10  and  C_12
    6  A    between atoms: S_22  and  C_23
                            x       y       z     vdW  Elec       q    Type
                         _______ _______ _______ _____ _____    ______ ____

>  <TORSDO>
F 6

$$$$
=
 OpenBabel07192307433D

 44 47  0  0  1  0  0  0  0  0999 V2000
    3.2250    3.6370   19.3410 C   0  0  0  0  0  0  0  0  0  0  0  0
    2.9620    5.0110   19.1920 C   0  0  0  0  0  0  0  0  0  0  0  0
    2.2230    5.7190   20.1500 C   0  0  0  0  0  0  0  0  0  0  0  0
    1.6930    5.0360   21.2380 C   0  0  0  0  0  0  0  0  0  0  0  0
    1.8990    3.6620   21.3750 C   0  0  0  0  0  0  0  0  0  0  0  0
    2.6640    2.9680   20.4360 C   0  0  0  0  0  0  0  0  0  0  0  0
    3.3990    5.5520   18.3560 H   0  0  0  0  0  0  0  0  0  0  0  0
    1.1120    5.5480   21.9990 H   0  0  0  0  0  0  0  0  0  0  0  0
    1.4840    3.1390   22.2390 H   0  0  0  0  0  0  0  0  0  0  0  0
    2.8360    1.9080   20.5960 H   0  0  0  0  0  0  0  0  0  0  0  0
    2.0990    7.1050   19.9620 N   0  0  0  0  0  0  0  0  0  0  0  0
    2.0350    7.7920   18.7680 C   0  0  0  0  0  0  0  0  0  0  0  0
    2.1580    7.3310   17.6370 O   0  0  0  0  0  0  0  0  0  0  0  0
    1.8550    7.6740   20.7650 H   0  0  0  0  0  0  0  0  0  0  0  0
    1.6790    9.2380   18.9640 C   0  0  0  0  0  0  0  0  0  0  0  0
    0.9500    9.6260   20.0840 C   0  0  0  0  0  0  0  0  0  0  0  0
    0.7370   10.9940   20.3000 C   0  0  0  0  0  0  0  0  0  0  0  0
    0.0320   11.4660   21.4240 C   0  0  0  0  0  0  0  0  0  0  0  0
   -0.1430   12.8370   21.6250 C   0  0  0  0  0  0  0  0  0  0  0  0
    0.3760   13.7530   20.7120 C   0  0  0  0  0  0  0  0  0  0  0  0
    1.0610   13.3010   19.5870 C   0  0  0  0  0  0  0  0  0  0  0  0
    1.2550   11.9250   19.3740 C   0  0  0  0  0  0  0  0  0  0  0  0
    1.9540   11.4200   18.2730 C   0  0  0  0  0  0  0  0  0  0  0  0
    2.1930   10.1080   18.0490 N   0  0  0  0  0  0  0  0  0  0  0  0
    0.5940    8.8810   20.7840 H   0  0  0  0  0  0  0  0  0  0  0  0
   -0.3850   10.7700   22.1470 H   0  0  0  0  0  0  0  0  0  0  0  0
   -0.6880   13.1900   22.4980 H   0  0  0  0  0  0  0  0  0  0  0  0
    0.2410   14.8200   20.8720 H   0  0  0  0  0  0  0  0  0  0  0  0
    1.4470   14.0300   18.8750 H   0  0  0  0  0  0  0  0  0  0  0  0
    2.3710   12.0880   17.5250 H   0  0  0  0  0  0  0  0  0  0  0  0
    4.1720    2.9020   18.4130 C   0  0  1  0  0  0  0  0  0  0  0  0
    5.1530    2.8210   18.9000 H   0  0  0  0  0  0  0  0  0  0  0  0
    3.7130    1.4820   18.0850 C   0  0  0  0  0  0  0  0  0  0  0  0
    4.5440    0.8890   17.6910 H   0  0  0  0  0  0  0  0  0  0  0  0
    3.3230    0.9530   18.9580 H   0  0  0  0  0  0  0  0  0  0  0  0
    2.9290    1.4870   17.3180 H   0  0  0  0  0  0  0  0  0  0  0  0
    4.3530    3.8510   16.8440 S   0  0  0  0  0  0  0  0  0  0  0  0
    5.7300    4.8350   17.2030 C   0  0  1  0  0  3  0  0  0  0  0  0
    6.6810    4.5230   18.0640 N   0  0  0  0  0  0  0  0  0  0  0  0
    7.5590    5.5630   17.9260 C   0  0  0  0  0  0  0  0  0  0  0  0
    7.2100    6.5020   17.0520 N   0  0  0  0  0  2  0  0  0  0  0  0
    6.0430    6.0150   16.5890 N   0  0  0  0  0  0  0  0  0  0  0  0
    5.0460    6.9380   15.5290 Cl  0  0  0  0  0  0  0  0  0  0  0  0
    8.4780    5.6390   18.4910 H   0  0  0  0  0  0  0  0  0  0  0  0
  1  6  1  0  0  0  0
  2  1  2  0  0  0  0
  2  3  1  0  0  0  0
  3  4  2  0  0  0  0
  4  5  1  0  0  0  0
  4  8  1  0  0  0  0
  5  9  1  0  0  0  0
  6 10  1  0  0  0  0
  6  5  2  0  0  0  0
  7  2  1  0  0  0  0
 11  3  1  0  0  0  0
 11 14  1  0  0  0  0
 12 15  1  0  0  0  0
 12 11  1  0  0  0  0
 13 12  2  0  0  0  0
 15 16  1  0  0  0  0
 16 17  2  0  0  0  0
 16 25  1  0  0  0  0
 17 18  1  0  0  0  0
 18 19  2  0  0  0  0
 18 26  1  0  0  0  0
 19 27  1  0  0  0  0
 20 28  1  0  0  0  0
 20 19  1  0  0  0  0
 21 20  2  0  0  0  0
 22 21  1  0  0  0  0
 22 17  1  0  0  0  0
 23 22  2  0  0  0  0
 24 23  1  0  0  0  0
 24 15  2  0  0  0  0
 29 21  1  0  0  0  0
 30 23  1  0  0  0  0
 31 32  1  1  0  0  0
 31  1  1  0  0  0  0
 33 31  1  0  0  0  0
 33 35  1  0  0  0  0
 34 33  1  0  0  0  0
 36 33  1  0  0  0  0
 37 31  1  0  0  0  0
 38 37  1  6  0  0  0
 38 39  1  0  0  0  0
 40 39  2  0  0  0  0
 40 44  1  0  0  0  0
 41 40  1  0  0  0  0
 42 41  1  0  0  0  0
 42 38  1  0  0  0  0
 43 42  1  0  0  0  0
M  END
>  <MODEL>
27

>  <REMARK>
 VINA RESULT:    -7.162      3.885      8.787
 INTER + INTRA:          -9.840
 INTER:                  -9.412
 INTRA:                  -0.428
 UNBOUND:                -0.375
  Name = 
  6 active torsions:
  status: ('A' for Active; 'I' for Inactive)
    1  A    between atoms: C_1  and  C_2
    2  A    between atoms: C_2  and  C_3
    3  A    between atoms: C_2  and  S_22
    4  A    between atoms: C_5  and  N_9
    5  A    between atoms: C_10  and  C_12
    6  A    between atoms: S_22  and  C_23
                            x       y       z     vdW  Elec       q    Type
                         _______ _______ _______ _____ _____    ______ ____

>  <TORSDO>
F 6

$$$$
=
 OpenBabel07192307433D

 44 47  0  0  1  0  0  0  0  0999 V2000
    3.4210    4.9080   18.9630 C   0  0  0  0  0  0  0  0  0  0  0  0
    3.0220    6.2530   18.8570 C   0  0  0  0  0  0  0  0  0  0  0  0
    2.1420    6.8270   19.7850 C   0  0  0  0  0  0  0  0  0  0  0  0
    1.6110    6.0330   20.7960 C   0  0  0  0  0  0  0  0  0  0  0  0
    1.9530    4.6830   20.8840 C   0  0  0  0  0  0  0  0  0  0  0  0
    2.8560    4.1250   19.9780 C   0  0  0  0  0  0  0  0  0  0  0  0
    3.4580    6.8810   18.0840 H   0  0  0  0  0  0  0  0  0  0  0  0
    0.9220    6.4400   21.5310 H   0  0  0  0  0  0  0  0  0  0  0  0
    1.5350    4.0730   21.6870 H   0  0  0  0  0  0  0  0  0  0  0  0
    3.1300    3.0810   20.1010 H   0  0  0  0  0  0  0  0  0  0  0  0
    1.8820    8.2000   19.6520 N   0  0  0  0  0  0  0  0  0  0  0  0
    1.7450    8.9240   18.4870 C   0  0  0  0  0  0  0  0  0  0  0  0
    1.9050    8.5220   17.3380 O   0  0  0  0  0  0  0  0  0  0  0  0
    1.5890    8.7110   20.4790 H   0  0  0  0  0  0  0  0  0  0  0  0
    1.2510   10.3200   18.7410 C   0  0  0  0  0  0  0  0  0  0  0  0
    2.0930   11.4050   18.5130 C   0  0  0  0  0  0  0  0  0  0  0  0
    1.5670   12.6960   18.6440 C   0  0  0  0  0  0  0  0  0  0  0  0
    2.3480   13.8430   18.4050 C   0  0  0  0  0  0  0  0  0  0  0  0
    1.7880   15.1180   18.5210 C   0  0  0  0  0  0  0  0  0  0  0  0
    0.4490   15.2670   18.8770 C   0  0  0  0  0  0  0  0  0  0  0  0
   -0.3320   14.1430   19.1330 C   0  0  0  0  0  0  0  0  0  0  0  0
    0.2130   12.8520   19.0120 C   0  0  0  0  0  0  0  0  0  0  0  0
   -0.5330   11.6920   19.2370 C   0  0  0  0  0  0  0  0  0  0  0  0
   -0.0590   10.4320   19.0980 N   0  0  0  0  0  0  0  0  0  0  0  0
    3.1180   11.2390   18.2060 H   0  0  0  0  0  0  0  0  0  0  0  0
    3.3960   13.7510   18.1300 H   0  0  0  0  0  0  0  0  0  0  0  0
    2.4020   15.9960   18.3320 H   0  0  0  0  0  0  0  0  0  0  0  0
    0.0150   16.2600   18.9640 H   0  0  0  0  0  0  0  0  0  0  0  0
   -1.3720   14.2790   19.4260 H   0  0  0  0  0  0  0  0  0  0  0  0
   -1.5780   11.7490   19.5270 H   0  0  0  0  0  0  0  0  0  0  0  0
    4.5080    4.3270   18.0790 C   0  0  1  0  0  0  0  0  0  0  0  0
    5.4450    4.2900   18.6500 H   0  0  0  0  0  0  0  0  0  0  0  0
    4.2080    2.9050   17.6110 C   0  0  0  0  0  0  0  0  0  0  0  0
    5.1200    2.4150   17.2570 H   0  0  0  0  0  0  0  0  0  0  0  0
    3.7910    2.2790   18.4040 H   0  0  0  0  0  0  0  0  0  0  0  0
    3.4980    2.9050   16.7750 H   0  0  0  0  0  0  0  0  0  0  0  0
    4.7420    5.4080   16.6050 S   0  0  0  0  0  0  0  0  0  0  0  0
    6.0610    6.4010   17.1210 C   0  0  1  0  0  3  0  0  0  0  0  0
    6.0490    7.7200   17.1530 N   0  0  0  0  0  0  0  0  0  0  0  0
    7.2680    8.0150   17.7010 C   0  0  0  0  0  0  0  0  0  0  0  0
    8.0370    6.9710   17.9960 N   0  0  0  0  0  2  0  0  0  0  0  0
    7.2440    5.9450   17.6310 N   0  0  0  0  0  0  0  0  0  0  0  0
    7.8230    4.3220   17.6380 Cl  0  0  0  0  0  0  0  0  0  0  0  0
    7.6070    9.0260   17.8800 H   0  0  0  0  0  0  0  0  0  0  0  0
  1  6  1  0  0  0  0
  2  1  2  0  0  0  0
  2  3  1  0  0  0  0
  3  4  2  0  0  0  0
  4  5  1  0  0  0  0
  4  8  1  0  0  0  0
  5  9  1  0  0  0  0
  6 10  1  0  0  0  0
  6  5  2  0  0  0  0
  7  2  1  0  0  0  0
 11  3  1  0  0  0  0
 11 14  1  0  0  0  0
 12 15  1  0  0  0  0
 12 11  1  0  0  0  0
 13 12  2  0  0  0  0
 15 24  1  0  0  0  0
 16 17  1  0  0  0  0
 16 15  2  0  0  0  0
 17 22  1  0  0  0  0
 18 19  1  0  0  0  0
 18 17  2  0  0  0  0
 19 20  2  0  0  0  0
 20 28  1  0  0  0  0
 20 21  1  0  0  0  0
 21 29  1  0  0  0  0
 22 21  2  0  0  0  0
 22 23  1  0  0  0  0
 23 30  1  0  0  0  0
 24 23  2  0  0  0  0
 25 16  1  0  0  0  0
 26 18  1  0  0  0  0
 27 19  1  0  0  0  0
 31 32  1  1  0  0  0
 31  1  1  0  0  0  0
 33 31  1  0  0  0  0
 33 35  1  0  0  0  0
 34 33  1  0  0  0  0
 36 33  1  0  0  0  0
 37 31  1  0  0  0  0
 38 37  1  1  0  0  0
 38 39  1  0  0  0  0
 38 42  1  0  0  0  0
 39 40  2  0  0  0  0
 40 44  1  0  0  0  0
 40 41  1  0  0  0  0
 42 43  1  0  0  0  0
 42 41  1  0  0  0  0
M  END
>  <MODEL>
28

>  <REMARK>
 VINA RESULT:    -7.095      3.957      8.871
 INTER + INTRA:          -9.751
 INTER:                  -9.376
 INTRA:                  -0.375
 UNBOUND:                -0.375
  Name = 
  6 active torsions:
  status: ('A' for Active; 'I' for Inactive)
    1  A    between atoms: C_1  and  C_2
    2  A    between atoms: C_2  and  C_3
    3  A    between atoms: C_2  and  S_22
    4  A    between atoms: C_5  and  N_9
    5  A    between atoms: C_10  and  C_12
    6  A    between atoms: S_22  and  C_23
                            x       y       z     vdW  Elec       q    Type
                         _______ _______ _______ _____ _____    ______ ____

>  <TORSDO>
F 6

$$$$
=
 OpenBabel07192307433D

 44 47  0  0  1  0  0  0  0  0999 V2000
   -0.7990   11.1220   20.4560 C   0  0  0  0  0  0  0  0  0  0  0  0
   -0.0980   10.0460   19.8810 C   0  0  0  0  0  0  0  0  0  0  0  0
    0.5920    9.1190   20.6740 C   0  0  0  0  0  0  0  0  0  0  0  0
    0.6300    9.3020   22.0520 C   0  0  0  0  0  0  0  0  0  0  0  0
   -0.0140   10.3940   22.6350 C   0  0  0  0  0  0  0  0  0  0  0  0
   -0.7280   11.2950   21.8440 C   0  0  0  0  0  0  0  0  0  0  0  0
   -0.1500    9.8860   18.8060 H   0  0  0  0  0  0  0  0  0  0  0  0
    1.1580    8.6080   22.7000 H   0  0  0  0  0  0  0  0  0  0  0  0
    0.0160   10.5210   23.7190 H   0  0  0  0  0  0  0  0  0  0  0  0
   -1.2510   12.1100   22.3360 H   0  0  0  0  0  0  0  0  0  0  0  0
    1.1770    8.0250   20.0150 N   0  0  0  0  0  0  0  0  0  0  0  0
    2.0360    8.0520   18.9370 C   0  0  0  0  0  0  0  0  0  0  0  0
    2.3920    9.0340   18.2930 O   0  0  0  0  0  0  0  0  0  0  0  0
    1.1180    7.1160   20.4600 H   0  0  0  0  0  0  0  0  0  0  0  0
    2.6270    6.7010   18.6500 C   0  0  0  0  0  0  0  0  0  0  0  0
    2.0660    5.5630   19.2240 C   0  0  0  0  0  0  0  0  0  0  0  0
    2.5630    4.3100   18.8430 C   0  0  0  0  0  0  0  0  0  0  0  0
    2.0310    3.1140   19.3590 C   0  0  0  0  0  0  0  0  0  0  0  0
    2.5310    1.8780   18.9430 C   0  0  0  0  0  0  0  0  0  0  0  0
    3.5660    1.8180   18.0120 C   0  0  0  0  0  0  0  0  0  0  0  0
    4.1150    2.9930   17.5050 C   0  0  0  0  0  0  0  0  0  0  0  0
    3.6170    4.2450   17.9060 C   0  0  0  0  0  0  0  0  0  0  0  0
    4.1170    5.4530   17.4110 C   0  0  0  0  0  0  0  0  0  0  0  0
    3.6440    6.6760   17.7440 N   0  0  0  0  0  0  0  0  0  0  0  0
    1.2410    5.6580   19.9180 H   0  0  0  0  0  0  0  0  0  0  0  0
    1.2250    3.1360   20.0900 H   0  0  0  0  0  0  0  0  0  0  0  0
    2.1100    0.9600   19.3480 H   0  0  0  0  0  0  0  0  0  0  0  0
    3.9530    0.8540   17.6870 H   0  0  0  0  0  0  0  0  0  0  0  0
    4.9340    2.9280   16.7900 H   0  0  0  0  0  0  0  0  0  0  0  0
    4.9300    5.4650   16.6920 H   0  0  0  0  0  0  0  0  0  0  0  0
   -1.6960   12.0220   19.6280 C   0  0  1  0  0  0  0  0  0  0  0  0
   -2.4010   11.3960   19.0660 H   0  0  0  0  0  0  0  0  0  0  0  0
   -2.5250   12.9880   20.4730 C   0  0  0  0  0  0  0  0  0  0  0  0
   -3.0500   12.4520   21.2680 H   0  0  0  0  0  0  0  0  0  0  0  0
   -1.9150   13.7600   20.9490 H   0  0  0  0  0  0  0  0  0  0  0  0
   -3.2870   13.4900   19.8650 H   0  0  0  0  0  0  0  0  0  0  0  0
   -0.6690   12.9890   18.4430 S   0  0  0  0  0  0  0  0  0  0  0  0
    0.6190   13.5200   19.4690 C   0  0  1  0  0  3  0  0  0  0  0  0
    0.4750   14.2990   20.5240 N   0  0  0  0  0  0  0  0  0  0  0  0
    1.7460   14.3560   21.0270 C   0  0  0  0  0  0  0  0  0  0  0  0
    2.6670   13.6790   20.3480 N   0  0  0  0  0  2  0  0  0  0  0  0
    1.9260   13.1390   19.3600 N   0  0  0  0  0  0  0  0  0  0  0  0
    2.6610   12.2800   18.0600 Cl  0  0  0  0  0  0  0  0  0  0  0  0
    2.0070   14.9190   21.9120 H   0  0  0  0  0  0  0  0  0  0  0  0
  1  6  1  0  0  0  0
  2  1  2  0  0  0  0
  2  3  1  0  0  0  0
  3  4  2  0  0  0  0
  4  5  1  0  0  0  0
  4  8  1  0  0  0  0
  5  9  1  0  0  0  0
  6 10  1  0  0  0  0
  6  5  2  0  0  0  0
  7  2  1  0  0  0  0
 11 14  1  0  0  0  0
 11  3  1  0  0  0  0
 12 11  1  0  0  0  0
 13 12  2  0  0  0  0
 15 12  1  0  0  0  0
 15 16  1  0  0  0  0
 16 25  1  0  0  0  0
 17 16  2  0  0  0  0
 17 18  1  0  0  0  0
 18 26  1  0  0  0  0
 19 27  1  0  0  0  0
 19 18  2  0  0  0  0
 20 19  1  0  0  0  0
 21 22  1  0  0  0  0
 21 20  2  0  0  0  0
 22 17  1  0  0  0  0
 23 24  1  0  0  0  0
 23 22  2  0  0  0  0
 24 15  2  0  0  0  0
 28 20  1  0  0  0  0
 29 21  1  0  0  0  0
 30 23  1  0  0  0  0
 31 32  1  6  0  0  0
 31  1  1  0  0  0  0
 31 33  1  0  0  0  0
 33 35  1  0  0  0  0
 33 34  1  0  0  0  0
 36 33  1  0  0  0  0
 37 31  1  0  0  0  0
 38 37  1  1  0  0  0
 38 39  1  0  0  0  0
 39 40  2  0  0  0  0
 40 44  1  0  0  0  0
 41 40  1  0  0  0  0
 42 38  1  0  0  0  0
 42 41  1  0  0  0  0
 43 42  1  0  0  0  0
M  END
>  <MODEL>
29

>  <REMARK>
 VINA RESULT:    -7.085      3.091      4.017
 INTER + INTRA:          -9.738
 INTER:                  -9.247
 INTRA:                  -0.492
 UNBOUND:                -0.375
  Name = 
  6 active torsions:
  status: ('A' for Active; 'I' for Inactive)
    1  A    between atoms: C_1  and  C_2
    2  A    between atoms: C_2  and  C_3
    3  A    between atoms: C_2  and  S_22
    4  A    between atoms: C_5  and  N_9
    5  A    between atoms: C_10  and  C_12
    6  A    between atoms: S_22  and  C_23
                            x       y       z     vdW  Elec       q    Type
                         _______ _______ _______ _____ _____    ______ ____

>  <TORSDO>
F 6

$$$$
=
 OpenBabel07192307433D

 44 47  0  0  1  0  0  0  0  0999 V2000
   -1.0620   11.7990   19.9660 C   0  0  0  0  0  0  0  0  0  0  0  0
   -0.2560   10.6950   19.6360 C   0  0  0  0  0  0  0  0  0  0  0  0
   -0.4090   10.0200   18.4170 C   0  0  0  0  0  0  0  0  0  0  0  0
   -1.4160   10.4170   17.5440 C   0  0  0  0  0  0  0  0  0  0  0  0
   -2.2600   11.4760   17.8800 C   0  0  0  0  0  0  0  0  0  0  0  0
   -2.0820   12.1670   19.0790 C   0  0  0  0  0  0  0  0  0  0  0  0
    0.5500   10.4010   20.3040 H   0  0  0  0  0  0  0  0  0  0  0  0
   -1.5700    9.9160   16.5930 H   0  0  0  0  0  0  0  0  0  0  0  0
   -3.0420   11.7830   17.1820 H   0  0  0  0  0  0  0  0  0  0  0  0
   -2.7320   13.0110   19.2890 H   0  0  0  0  0  0  0  0  0  0  0  0
    0.5080    8.9940   18.1360 N   0  0  0  0  0  0  0  0  0  0  0  0
    1.8620    9.1130   17.9020 C   0  0  0  0  0  0  0  0  0  0  0  0
    2.5130   10.1500   17.8120 O   0  0  0  0  0  0  0  0  0  0  0  0
    0.2090    8.0360   18.2830 H   0  0  0  0  0  0  0  0  0  0  0  0
    2.5490    7.7790   17.8600 C   0  0  0  0  0  0  0  0  0  0  0  0
    1.8420    6.6240   18.1860 C   0  0  0  0  0  0  0  0  0  0  0  0
    2.4760    5.3860   18.0230 C   0  0  0  0  0  0  0  0  0  0  0  0
    1.8190    4.1740   18.3060 C   0  0  0  0  0  0  0  0  0  0  0  0
    2.4690    2.9530   18.1100 C   0  0  0  0  0  0  0  0  0  0  0  0
    3.7780    2.9230   17.6340 C   0  0  0  0  0  0  0  0  0  0  0  0
    4.4470    4.1140   17.3650 C   0  0  0  0  0  0  0  0  0  0  0  0
    3.8050    5.3510   17.5470 C   0  0  0  0  0  0  0  0  0  0  0  0
    4.4240    6.5740   17.2720 C   0  0  0  0  0  0  0  0  0  0  0  0
    3.8320    7.7830   17.4000 N   0  0  0  0  0  0  0  0  0  0  0  0
    0.8160    6.6950   18.5210 H   0  0  0  0  0  0  0  0  0  0  0  0
    0.7980    4.1730   18.6820 H   0  0  0  0  0  0  0  0  0  0  0  0
    1.9490    2.0230   18.3310 H   0  0  0  0  0  0  0  0  0  0  0  0
    4.2810    1.9710   17.4790 H   0  0  0  0  0  0  0  0  0  0  0  0
    5.4760    4.0730   17.0090 H   0  0  0  0  0  0  0  0  0  0  0  0
    5.4470    6.6100   16.9090 H   0  0  0  0  0  0  0  0  0  0  0  0
   -0.7870   12.6480   21.1920 C   0  0  1  0  0  0  0  0  0  0  0  0
   -0.8880   12.0190   22.0870 H   0  0  0  0  0  0  0  0  0  0  0  0
    0.6210   13.2400   21.2130 C   0  0  0  0  0  0  0  0  0  0  0  0
    0.6090   14.2760   20.8610 H   0  0  0  0  0  0  0  0  0  0  0  0
    1.0620   13.2420   22.2130 H   0  0  0  0  0  0  0  0  0  0  0  0
    1.2940   12.6830   20.5500 H   0  0  0  0  0  0  0  0  0  0  0  0
   -2.0160   14.0190   21.2770 S   0  0  0  0  0  0  0  0  0  0  0  0
   -3.0710   13.4490   22.5250 C   0  0  1  0  0  3  0  0  0  0  0  0
   -2.7800   13.4300   23.8120 N   0  0  0  0  0  0  0  0  0  0  0  0
   -3.9440   12.9790   24.3720 C   0  0  0  0  0  0  0  0  0  0  0  0
   -4.9270   12.7040   23.5200 N   0  0  0  0  0  2  0  0  0  0  0  0
   -4.3560   13.0230   22.3420 N   0  0  0  0  0  0  0  0  0  0  0  0
   -5.1450   12.6910   20.8480 Cl  0  0  0  0  0  0  0  0  0  0  0  0
   -4.0720   12.8380   25.4370 H   0  0  0  0  0  0  0  0  0  0  0  0
  1 31  1  0  0  0  0
  2  1  1  0  0  0  0
  2  7  1  0  0  0  0
  3  2  2  0  0  0  0
  4  5  2  0  0  0  0
  4  3  1  0  0  0  0
  5  6  1  0  0  0  0
  6 10  1  0  0  0  0
  6  1  2  0  0  0  0
  8  4  1  0  0  0  0
  9  5  1  0  0  0  0
 11 14  1  0  0  0  0
 11  3  1  0  0  0  0
 12 11  1  0  0  0  0
 13 12  2  0  0  0  0
 15 12  1  0  0  0  0
 15 16  1  0  0  0  0
 16 25  1  0  0  0  0
 17 16  2  0  0  0  0
 17 18  1  0  0  0  0
 18 26  1  0  0  0  0
 19 18  2  0  0  0  0
 19 27  1  0  0  0  0
 20 19  1  0  0  0  0
 21 22  1  0  0  0  0
 21 20  2  0  0  0  0
 22 17  1  0  0  0  0
 23 24  1  0  0  0  0
 23 22  2  0  0  0  0
 24 15  2  0  0  0  0
 28 20  1  0  0  0  0
 29 21  1  0  0  0  0
 30 23  1  0  0  0  0
 31 33  1  0  0  0  0
 31 37  1  0  0  0  0
 31 32  1  1  0  0  0
 33 35  1  0  0  0  0
 34 33  1  0  0  0  0
 36 33  1  0  0  0  0
 38 37  1  1  0  0  0
 38 39  1  0  0  0  0
 39 40  2  0  0  0  0
 40 44  1  0  0  0  0
 41 40  1  0  0  0  0
 42 38  1  0  0  0  0
 42 41  1  0  0  0  0
 43 42  1  0  0  0  0
M  END
>  <MODEL>
30

>  <REMARK>
 VINA RESULT:    -7.061      3.126      4.303
 INTER + INTRA:          -9.706
 INTER:                  -8.886
 INTRA:                  -0.820
 UNBOUND:                -0.375
  Name = 
  6 active torsions:
  status: ('A' for Active; 'I' for Inactive)
    1  A    between atoms: C_1  and  C_2
    2  A    between atoms: C_2  and  C_3
    3  A    between atoms: C_2  and  S_22
    4  A    between atoms: C_5  and  N_9
    5  A    between atoms: C_10  and  C_12
    6  A    between atoms: S_22  and  C_23
                            x       y       z     vdW  Elec       q    Type
                         _______ _______ _______ _____ _____    ______ ____

>  <TORSDO>
F 6

$$$$
=
 OpenBabel07192307433D

 44 47  0  0  1  0  0  0  0  0999 V2000
    0.0790   12.7930   19.2930 C   0  0  0  0  0  0  0  0  0  0  0  0
    0.7480   11.5760   19.5160 C   0  0  0  0  0  0  0  0  0  0  0  0
    0.3100   10.3850   18.9220 C   0  0  0  0  0  0  0  0  0  0  0  0
   -0.8430   10.3990   18.1450 C   0  0  0  0  0  0  0  0  0  0  0  0
   -1.5500   11.5870   17.9570 C   0  0  0  0  0  0  0  0  0  0  0  0
   -1.0900   12.7770   18.5220 C   0  0  0  0  0  0  0  0  0  0  0  0
    1.6650   11.5690   20.1010 H   0  0  0  0  0  0  0  0  0  0  0  0
   -1.2170    9.4950   17.6720 H   0  0  0  0  0  0  0  0  0  0  0  0
   -2.4490   11.5860   17.3380 H   0  0  0  0  0  0  0  0  0  0  0  0
   -1.6440   13.6900   18.3220 H   0  0  0  0  0  0  0  0  0  0  0  0
    1.1010    9.2420   19.1250 N   0  0  0  0  0  0  0  0  0  0  0  0
    1.2430    8.5100   20.2850 C   0  0  0  0  0  0  0  0  0  0  0  0
    0.7690    8.7630   21.3880 O   0  0  0  0  0  0  0  0  0  0  0  0
    1.4880    8.7810   18.3090 H   0  0  0  0  0  0  0  0  0  0  0  0
    1.9970    7.2300   20.0580 C   0  0  0  0  0  0  0  0  0  0  0  0
    1.7440    6.1250   20.8660 C   0  0  0  0  0  0  0  0  0  0  0  0
    2.3750    4.9130   20.5550 C   0  0  0  0  0  0  0  0  0  0  0  0
    2.1500    3.7460   21.3080 C   0  0  0  0  0  0  0  0  0  0  0  0
    2.7750    2.5460   20.9590 C   0  0  0  0  0  0  0  0  0  0  0  0
    3.6300    2.4940   19.8600 C   0  0  0  0  0  0  0  0  0  0  0  0
    3.8750    3.6450   19.1140 C   0  0  0  0  0  0  0  0  0  0  0  0
    3.2470    4.8580   19.4460 C   0  0  0  0  0  0  0  0  0  0  0  0
    3.4420    6.0350   18.7180 C   0  0  0  0  0  0  0  0  0  0  0  0
    2.8330    7.2140   18.9830 N   0  0  0  0  0  0  0  0  0  0  0  0
    1.0470    6.2050   21.6900 H   0  0  0  0  0  0  0  0  0  0  0  0
    1.4900    3.7640   22.1730 H   0  0  0  0  0  0  0  0  0  0  0  0
    2.5920    1.6500   21.5480 H   0  0  0  0  0  0  0  0  0  0  0  0
    4.1130    1.5580   19.5880 H   0  0  0  0  0  0  0  0  0  0  0  0
    4.5590    3.5890   18.2680 H   0  0  0  0  0  0  0  0  0  0  0  0
    4.1060    6.0550   17.8590 H   0  0  0  0  0  0  0  0  0  0  0  0
    0.6450   14.1140   19.7770 C   0  0  1  0  0  0  0  0  0  0  0  0
    1.2490   13.9320   20.6760 H   0  0  0  0  0  0  0  0  0  0  0  0
    1.5540   14.7920   18.7530 C   0  0  0  0  0  0  0  0  0  0  0  0
    1.0260   15.6050   18.2470 H   0  0  0  0  0  0  0  0  0  0  0  0
    2.4520   15.2190   19.2050 H   0  0  0  0  0  0  0  0  0  0  0  0
    1.8730   14.0850   17.9780 H   0  0  0  0  0  0  0  0  0  0  0  0
   -0.7380   15.2560   20.2000 S   0  0  0  0  0  0  0  0  0  0  0  0
   -1.2170   14.6460   21.7460 C   0  0  1  0  0  3  0  0  0  0  0  0
   -0.5130   14.7580   22.8570 N   0  0  0  0  0  0  0  0  0  0  0  0
   -1.3420   14.2010   23.7920 C   0  0  0  0  0  0  0  0  0  0  0  0
   -2.5020   13.7390   23.3340 N   0  0  0  0  0  2  0  0  0  0  0  0
   -2.4110   14.0430   22.0250 N   0  0  0  0  0  0  0  0  0  0  0  0
   -3.5980   13.5040   20.8980 Cl  0  0  0  0  0  0  0  0  0  0  0  0
   -1.0830   14.1220   24.8390 H   0  0  0  0  0  0  0  0  0  0  0  0
  1  2  1  0  0  0  0
  1 31  1  0  0  0  0
  2  7  1  0  0  0  0
  3 11  1  0  0  0  0
  3  2  2  0  0  0  0
  4  3  1  0  0  0  0
  5  4  2  0  0  0  0
  5  6  1  0  0  0  0
  6  1  2  0  0  0  0
  8  4  1  0  0  0  0
  9  5  1  0  0  0  0
 10  6  1  0  0  0  0
 11 12  1  0  0  0  0
 12 13  2  0  0  0  0
 14 11  1  0  0  0  0
 15 12  1  0  0  0  0
 15 16  1  0  0  0  0
 16 25  1  0  0  0  0
 17 16  2  0  0  0  0
 17 18  1  0  0  0  0
 18 26  1  0  0  0  0
 19 18  2  0  0  0  0
 19 27  1  0  0  0  0
 20 19  1  0  0  0  0
 21 22  1  0  0  0  0
 21 20  2  0  0  0  0
 22 17  1  0  0  0  0
 23 24  1  0  0  0  0
 23 22  2  0  0  0  0
 24 15  2  0  0  0  0
 28 20  1  0  0  0  0
 29 21  1  0  0  0  0
 30 23  1  0  0  0  0
 31 37  1  0  0  0  0
 31 32  1  1  0  0  0
 33 35  1  0  0  0  0
 33 31  1  0  0  0  0
 34 33  1  0  0  0  0
 36 33  1  0  0  0  0
 38 37  1  1  0  0  0
 38 42  1  0  0  0  0
 38 39  1  0  0  0  0
 39 40  2  0  0  0  0
 40 44  1  0  0  0  0
 41 40  1  0  0  0  0
 42 41  1  0  0  0  0
 43 42  1  0  0  0  0
M  END
>  <MODEL>
31

>  <REMARK>
 VINA RESULT:    -7.044      3.285      4.708
 INTER + INTRA:          -9.684
 INTER:                  -8.779
 INTRA:                  -0.905
 UNBOUND:                -0.375
  Name = 
  6 active torsions:
  status: ('A' for Active; 'I' for Inactive)
    1  A    between atoms: C_1  and  C_2
    2  A    between atoms: C_2  and  C_3
    3  A    between atoms: C_2  and  S_22
    4  A    between atoms: C_5  and  N_9
    5  A    between atoms: C_10  and  C_12
    6  A    between atoms: S_22  and  C_23
                            x       y       z     vdW  Elec       q    Type
                         _______ _______ _______ _____ _____    ______ ____

>  <TORSDO>
F 6

$$$$
=
 OpenBabel07192307433D

 44 47  0  0  1  0  0  0  0  0999 V2000
   -0.9700   12.0370   18.4860 C   0  0  0  0  0  0  0  0  0  0  0  0
   -0.3570   10.7720   18.5440 C   0  0  0  0  0  0  0  0  0  0  0  0
    1.0320   10.6410   18.6850 C   0  0  0  0  0  0  0  0  0  0  0  0
    1.8210   11.7860   18.7110 C   0  0  0  0  0  0  0  0  0  0  0  0
    1.2350   13.0470   18.6010 C   0  0  0  0  0  0  0  0  0  0  0  0
   -0.1510   13.1730   18.4950 C   0  0  0  0  0  0  0  0  0  0  0  0
   -0.9750    9.8780   18.5520 H   0  0  0  0  0  0  0  0  0  0  0  0
    2.9010   11.7260   18.8150 H   0  0  0  0  0  0  0  0  0  0  0  0
    1.8650   13.9380   18.6310 H   0  0  0  0  0  0  0  0  0  0  0  0
   -0.5760   14.1720   18.4510 H   0  0  0  0  0  0  0  0  0  0  0  0
    1.5380    9.3400   18.8330 N   0  0  0  0  0  0  0  0  0  0  0  0
    1.5980    8.5840   19.9840 C   0  0  0  0  0  0  0  0  0  0  0  0
    1.2940    8.9340   21.1210 O   0  0  0  0  0  0  0  0  0  0  0  0
    1.7300    8.8070   17.9920 H   0  0  0  0  0  0  0  0  0  0  0  0
    1.9970    7.1620   19.7090 C   0  0  0  0  0  0  0  0  0  0  0  0
    1.5460    6.1420   20.5410 C   0  0  0  0  0  0  0  0  0  0  0  0
    1.8370    4.8170   20.1900 C   0  0  0  0  0  0  0  0  0  0  0  0
    1.3930    3.7300   20.9660 C   0  0  0  0  0  0  0  0  0  0  0  0
    1.6790    2.4190   20.5780 C   0  0  0  0  0  0  0  0  0  0  0  0
    2.4090    2.1740   19.4160 C   0  0  0  0  0  0  0  0  0  0  0  0
    2.8690    3.2400   18.6470 C   0  0  0  0  0  0  0  0  0  0  0  0
    2.5830    4.5650   19.0180 C   0  0  0  0  0  0  0  0  0  0  0  0
    3.0020    5.6680   18.2700 C   0  0  0  0  0  0  0  0  0  0  0  0
    2.7200    6.9560   18.5720 N   0  0  0  0  0  0  0  0  0  0  0  0
    0.9540    6.3790   21.4160 H   0  0  0  0  0  0  0  0  0  0  0  0
    0.8250    3.8970   21.8790 H   0  0  0  0  0  0  0  0  0  0  0  0
    1.3290    1.5870   21.1850 H   0  0  0  0  0  0  0  0  0  0  0  0
    2.6270    1.1520   19.1140 H   0  0  0  0  0  0  0  0  0  0  0  0
    3.4520    3.0300   17.7510 H   0  0  0  0  0  0  0  0  0  0  0  0
    3.5840    5.5370   17.3620 H   0  0  0  0  0  0  0  0  0  0  0  0
   -2.4780   12.1940   18.5180 C   0  0  1  0  0  0  0  0  0  0  0  0
   -2.7360   13.1970   18.1530 H   0  0  0  0  0  0  0  0  0  0  0  0
   -3.2080   11.1880   17.6300 C   0  0  0  0  0  0  0  0  0  0  0  0
   -3.7920   10.4910   18.2360 H   0  0  0  0  0  0  0  0  0  0  0  0
   -3.8970   11.6670   16.9300 H   0  0  0  0  0  0  0  0  0  0  0  0
   -2.4990   10.5900   17.0450 H   0  0  0  0  0  0  0  0  0  0  0  0
   -3.0770   12.0090   20.2510 S   0  0  0  0  0  0  0  0  0  0  0  0
   -2.1930   13.2640   21.0490 C   0  0  1  0  0  3  0  0  0  0  0  0
   -2.4480   14.5550   20.9440 N   0  0  0  0  0  0  0  0  0  0  0  0
   -1.5440   15.1070   21.8090 C   0  0  0  0  0  0  0  0  0  0  0  0
   -0.7390   14.2500   22.4300 N   0  0  0  0  0  2  0  0  0  0  0  0
   -1.1760   13.0730   21.9410 N   0  0  0  0  0  0  0  0  0  0  0  0
   -0.3530   11.6010   22.2880 Cl  0  0  0  0  0  0  0  0  0  0  0  0
   -1.4670   16.1720   21.9830 H   0  0  0  0  0  0  0  0  0  0  0  0
  1  6  2  0  0  0  0
  1 31  1  0  0  0  0
  1  2  1  0  0  0  0
  2  7  1  0  0  0  0
  2  3  2  0  0  0  0
  3  4  1  0  0  0  0
  3 11  1  0  0  0  0
  4  8  1  0  0  0  0
  5  9  1  0  0  0  0
  5  4  2  0  0  0  0
  6  5  1  0  0  0  0
 10  6  1  0  0  0  0
 11 12  1  0  0  0  0
 12 13  2  0  0  0  0
 14 11  1  0  0  0  0
 15 12  1  0  0  0  0
 15 16  1  0  0  0  0
 16 25  1  0  0  0  0
 17 16  2  0  0  0  0
 17 18  1  0  0  0  0
 18 26  1  0  0  0  0
 19 18  2  0  0  0  0
 19 27  1  0  0  0  0
 20 19  1  0  0  0  0
 21 22  1  0  0  0  0
 21 20  2  0  0  0  0
 22 17  1  0  0  0  0
 23 24  1  0  0  0  0
 23 22  2  0  0  0  0
 24 15  2  0  0  0  0
 28 20  1  0  0  0  0
 29 21  1  0  0  0  0
 30 23  1  0  0  0  0
 31 32  1  6  0  0  0
 31 37  1  0  0  0  0
 33 34  1  0  0  0  0
 33 31  1  0  0  0  0
 35 33  1  0  0  0  0
 36 33  1  0  0  0  0
 38 37  1  1  0  0  0
 38 42  1  0  0  0  0
 39 38  1  0  0  0  0
 39 40  2  0  0  0  0
 40 44  1  0  0  0  0
 40 41  1  0  0  0  0
 42 43  1  0  0  0  0
 42 41  1  0  0  0  0
M  END
>  <MODEL>
32

>  <REMARK>
 VINA RESULT:    -7.031      3.207      4.537
 INTER + INTRA:          -9.667
 INTER:                  -8.659
 INTRA:                  -1.008
 UNBOUND:                -0.375
  Name = 
  6 active torsions:
  status: ('A' for Active; 'I' for Inactive)
    1  A    between atoms: C_1  and  C_2
    2  A    between atoms: C_2  and  C_3
    3  A    between atoms: C_2  and  S_22
    4  A    between atoms: C_5  and  N_9
    5  A    between atoms: C_10  and  C_12
    6  A    between atoms: S_22  and  C_23
                            x       y       z     vdW  Elec       q    Type
                         _______ _______ _______ _____ _____    ______ ____

>  <TORSDO>
F 6

$$$$
=
 OpenBabel07192307433D

 44 47  0  0  1  0  0  0  0  0999 V2000
   -0.5670   12.2970   19.8220 C   0  0  0  0  0  0  0  0  0  0  0  0
   -0.0920   10.9760   19.7340 C   0  0  0  0  0  0  0  0  0  0  0  0
    1.1230   10.6790   19.1010 C   0  0  0  0  0  0  0  0  0  0  0  0
    1.8410   11.7060   18.4980 C   0  0  0  0  0  0  0  0  0  0  0  0
    1.3580   13.0140   18.5290 C   0  0  0  0  0  0  0  0  0  0  0  0
    0.1660   13.3100   19.1900 C   0  0  0  0  0  0  0  0  0  0  0  0
   -0.6390   10.1770   20.2290 H   0  0  0  0  0  0  0  0  0  0  0  0
    2.7840   11.5150   17.9940 H   0  0  0  0  0  0  0  0  0  0  0  0
    1.9360   13.8130   18.0590 H   0  0  0  0  0  0  0  0  0  0  0  0
   -0.1590   14.3460   19.2280 H   0  0  0  0  0  0  0  0  0  0  0  0
    1.5590    9.3450   19.1520 N   0  0  0  0  0  0  0  0  0  0  0  0
    1.6300    8.5230   20.2560 C   0  0  0  0  0  0  0  0  0  0  0  0
    1.4020    8.8240   21.4240 O   0  0  0  0  0  0  0  0  0  0  0  0
    1.6800    8.8510   18.2750 H   0  0  0  0  0  0  0  0  0  0  0  0
    1.9330    7.0990   19.8840 C   0  0  0  0  0  0  0  0  0  0  0  0
    2.6790    6.8260   18.7410 C   0  0  0  0  0  0  0  0  0  0  0  0
    3.0460    5.4980   18.4860 C   0  0  0  0  0  0  0  0  0  0  0  0
    3.8220    5.1460   17.3650 C   0  0  0  0  0  0  0  0  0  0  0  0
    4.1930    3.8160   17.1510 C   0  0  0  0  0  0  0  0  0  0  0  0
    3.7960    2.8230   18.0450 C   0  0  0  0  0  0  0  0  0  0  0  0
    3.0140    3.1540   19.1490 C   0  0  0  0  0  0  0  0  0  0  0  0
    2.6400    4.4880   19.3850 C   0  0  0  0  0  0  0  0  0  0  0  0
    1.8760    4.8760   20.4890 C   0  0  0  0  0  0  0  0  0  0  0  0
    1.5230    6.1510   20.7720 N   0  0  0  0  0  0  0  0  0  0  0  0
    2.9920    7.6340   18.0930 H   0  0  0  0  0  0  0  0  0  0  0  0
    4.1390    5.9030   16.6520 H   0  0  0  0  0  0  0  0  0  0  0  0
    4.7930    3.5570   16.2820 H   0  0  0  0  0  0  0  0  0  0  0  0
    4.0880    1.7890   17.8770 H   0  0  0  0  0  0  0  0  0  0  0  0
    2.7000    2.3630   19.8290 H   0  0  0  0  0  0  0  0  0  0  0  0
    1.5300    4.1430   21.2120 H   0  0  0  0  0  0  0  0  0  0  0  0
   -1.7800   12.6540   20.6590 C   0  0  1  0  0  0  0  0  0  0  0  0
   -1.7960   13.7410   20.8120 H   0  0  0  0  0  0  0  0  0  0  0  0
   -3.1030   12.2720   19.9980 C   0  0  0  0  0  0  0  0  0  0  0  0
   -3.6750   11.5980   20.6410 H   0  0  0  0  0  0  0  0  0  0  0  0
   -3.7360   13.1390   19.7910 H   0  0  0  0  0  0  0  0  0  0  0  0
   -2.9330   11.7470   19.0500 H   0  0  0  0  0  0  0  0  0  0  0  0
   -1.6630   11.8160   22.2960 S   0  0  0  0  0  0  0  0  0  0  0  0
   -1.8530   13.1550   23.3750 C   0  0  1  0  0  3  0  0  0  0  0  0
   -0.9920   14.1470   23.5100 N   0  0  0  0  0  0  0  0  0  0  0  0
   -1.6250   14.9700   24.4000 C   0  0  0  0  0  0  0  0  0  0  0  0
   -2.8090   14.5490   24.8360 N   0  0  0  0  0  2  0  0  0  0  0  0
   -2.9450   13.3920   24.1600 N   0  0  0  0  0  0  0  0  0  0  0  0
   -4.2550   12.3200   24.4790 Cl  0  0  0  0  0  0  0  0  0  0  0  0
   -1.2010   15.9020   24.7490 H   0  0  0  0  0  0  0  0  0  0  0  0
  1 31  1  0  0  0  0
  2  1  1  0  0  0  0
  2  7  1  0  0  0  0
  3 11  1  0  0  0  0
  3  2  2  0  0  0  0
  4  5  2  0  0  0  0
  4  3  1  0  0  0  0
  5  6  1  0  0  0  0
  6 10  1  0  0  0  0
  6  1  2  0  0  0  0
  8  4  1  0  0  0  0
  9  5  1  0  0  0  0
 11 12  1  0  0  0  0
 12 13  2  0  0  0  0
 14 11  1  0  0  0  0
 15 12  1  0  0  0  0
 15 24  1  0  0  0  0
 16 15  2  0  0  0  0
 17 16  1  0  0  0  0
 17 22  1  0  0  0  0
 18 17  2  0  0  0  0
 19 18  1  0  0  0  0
 19 20  2  0  0  0  0
 20 21  1  0  0  0  0
 21 22  2  0  0  0  0
 21 29  1  0  0  0  0
 22 23  1  0  0  0  0
 23 24  2  0  0  0  0
 23 30  1  0  0  0  0
 25 16  1  0  0  0  0
 26 18  1  0  0  0  0
 27 19  1  0  0  0  0
 28 20  1  0  0  0  0
 31 32  1  1  0  0  0
 31 37  1  0  0  0  0
 33 34  1  0  0  0  0
 33 31  1  0  0  0  0
 35 33  1  0  0  0  0
 36 33  1  0  0  0  0
 38 37  1  6  0  0  0
 38 39  1  0  0  0  0
 38 42  1  0  0  0  0
 39 40  2  0  0  0  0
 40 44  1  0  0  0  0
 40 41  1  0  0  0  0
 42 43  1  0  0  0  0
 42 41  1  0  0  0  0
M  END
>  <MODEL>
33

>  <REMARK>
 VINA RESULT:    -6.976      3.446      4.634
 INTER + INTRA:          -9.593
 INTER:                  -9.075
 INTRA:                  -0.518
 UNBOUND:                -0.375
  Name = 
  6 active torsions:
  status: ('A' for Active; 'I' for Inactive)
    1  A    between atoms: C_1  and  C_2
    2  A    between atoms: C_2  and  C_3
    3  A    between atoms: C_2  and  S_22
    4  A    between atoms: C_5  and  N_9
    5  A    between atoms: C_10  and  C_12
    6  A    between atoms: S_22  and  C_23
                            x       y       z     vdW  Elec       q    Type
                         _______ _______ _______ _____ _____    ______ ____

>  <TORSDO>
F 6

$$$$
