=
 OpenBabel07192307433D

 57 61  0  0  1  0  0  0  0  0999 V2000
    5.0070    4.5910   17.1890 C   0  0  0  0  0  0  0  0  0  0  0  0
    4.2290    3.4750   17.5220 C   0  0  0  0  0  0  0  0  0  0  0  0
    2.9410    3.6380   18.0290 C   0  0  0  0  0  0  0  0  0  0  0  0
    2.4210    4.9200   18.2200 C   0  0  0  0  0  0  0  0  0  0  0  0
    3.1770    6.0590   17.9090 C   0  0  0  0  0  0  0  0  0  0  0  0
    4.4680    5.8760   17.3880 C   0  0  0  0  0  0  0  0  0  0  0  0
    4.6170    2.4670   17.3880 H   0  0  0  0  0  0  0  0  0  0  0  0
    2.3390    2.7680   18.2790 H   0  0  0  0  0  0  0  0  0  0  0  0
    1.4130    5.0240   18.6190 H   0  0  0  0  0  0  0  0  0  0  0  0
    5.0680    6.7420   17.1230 H   0  0  0  0  0  0  0  0  0  0  0  0
    2.6190    7.4020   18.1240 C   0  0  0  0  0  0  0  0  0  0  0  0
    1.9780    7.9350   19.2930 C   0  0  0  0  0  0  0  0  0  0  0  0
    1.6520    9.2430   18.9730 C   0  0  0  0  0  0  0  0  0  0  0  0
    1.0140   10.1120   19.8560 C   0  0  0  0  0  0  0  0  0  0  0  0
    0.7270    9.5500   21.1030 C   0  0  0  0  0  0  0  0  0  0  0  0
    1.0730    8.2300   21.3640 C   0  0  0  0  0  0  0  0  0  0  0  0
    1.6890    7.3900   20.5060 N   0  0  0  0  0  0  0  0  0  0  0  0
    2.0830    9.4140   17.6930 N   0  0  0  0  0  0  0  0  0  0  0  0
    2.6620    8.3320   17.1460 N   0  0  0  0  0  0  0  0  0  0  0  0
    0.2390   10.1330   21.8780 H   0  0  0  0  0  0  0  0  0  0  0  0
    0.8490    7.7950   22.3350 H   0  0  0  0  0  0  0  0  0  0  0  0
    2.0000   10.2600   17.1400 H   0  0  0  0  0  0  0  0  0  0  0  0
    0.7190   11.4280   19.4820 N   0  0  0  0  0  0  0  0  0  0  0  0
    0.9360   12.3760   20.5910 C   0  0  0  0  0  0  0  0  0  0  0  0
    0.8220   13.7980   20.0600 C   0  0  0  0  0  0  0  0  0  0  0  0
   -0.5160   13.9980   19.3650 C   0  0  2  0  0  0  0  0  0  0  0  0
   -0.7380   12.9660   18.2710 C   0  0  0  0  0  0  0  0  0  0  0  0
   -0.5990   11.5590   18.8380 C   0  0  0  0  0  0  0  0  0  0  0  0
   -0.5420   15.2400   18.8100 F   0  0  0  0  0  0  0  0  0  0  0  0
    0.2020   12.2160   21.3920 H   0  0  0  0  0  0  0  0  0  0  0  0
    1.9370   12.2400   21.0200 H   0  0  0  0  0  0  0  0  0  0  0  0
    1.6340   14.0060   19.3510 H   0  0  0  0  0  0  0  0  0  0  0  0
    0.9320   14.5220   20.8750 H   0  0  0  0  0  0  0  0  0  0  0  0
   -1.3300   13.9540   20.0970 H   0  0  0  0  0  0  0  0  0  0  0  0
   -1.7290   13.1040   17.8230 H   0  0  0  0  0  0  0  0  0  0  0  0
   -0.0100   13.1260   17.4660 H   0  0  0  0  0  0  0  0  0  0  0  0
   -1.4100   11.3660   19.5520 H   0  0  0  0  0  0  0  0  0  0  0  0
   -0.6950   10.8380   18.0170 H   0  0  0  0  0  0  0  0  0  0  0  0
    6.4260    4.4510   16.6590 C   0  0  2  0  0  0  0  0  0  0  0  0
    6.5660    3.4050   16.3500 H   0  0  0  0  0  0  0  0  0  0  0  0
    7.4680    4.7180   17.7520 C   0  0  0  0  0  0  0  0  0  0  0  0
    7.2040    5.5840   18.3690 H   0  0  0  0  0  0  0  0  0  0  0  0
    8.4530    4.9120   17.3140 H   0  0  0  0  0  0  0  0  0  0  0  0
    7.5670    3.8530   18.4170 H   0  0  0  0  0  0  0  0  0  0  0  0
    6.6220    5.3620   15.4310 C   0  0  0  0  0  0  0  0  0  0  0  0
    5.8820    6.1720   15.4310 H   0  0  0  0  0  0  0  0  0  0  0  0
    7.6030    5.8540   15.4720 H   0  0  0  0  0  0  0  0  0  0  0  0
    6.5100    4.6070   14.1500 C   0  0  0  0  0  0  0  0  0  0  0  0
    5.6370    3.6620   13.8710 N   0  0  0  0  0  0  0  0  0  0  0  0
    5.8670    3.2300   12.5850 N   0  0  0  0  0  0  0  0  0  0  0  0
    6.8780    3.9190   12.1110 C   0  0  0  0  0  0  0  0  0  0  0  0
    7.3140    4.7940   13.0560 N   0  0  0  0  0  0  0  0  0  0  0  0
    7.3100    3.8180   11.1250 H   0  0  0  0  0  0  0  0  0  0  0  0
    8.4040    5.7210   12.9170 C   0  0  0  0  0  0  0  0  0  0  0  0
    8.5620    5.9160   11.8540 H   0  0  0  0  0  0  0  0  0  0  0  0
    8.1580    6.6550   13.4300 H   0  0  0  0  0  0  0  0  0  0  0  0
    9.3000    5.2840   13.3660 H   0  0  0  0  0  0  0  0  0  0  0  0
  1  6  2  0  0  0  0
  1  2  1  0  0  0  0
  2  3  2  0  0  0  0
  3  4  1  0  0  0  0
  3  8  1  0  0  0  0
  4  9  1  0  0  0  0
  5 11  1  0  0  0  0
  5  4  2  0  0  0  0
  6  5  1  0  0  0  0
  7  2  1  0  0  0  0
 10  6  1  0  0  0  0
 11 12  1  0  0  0  0
 12 17  1  0  0  0  0
 13 12  2  0  0  0  0
 13 14  1  0  0  0  0
 14 15  2  0  0  0  0
 15 16  1  0  0  0  0
 15 20  1  0  0  0  0
 16 21  1  0  0  0  0
 17 16  2  0  0  0  0
 18 13  1  0  0  0  0
 19 18  1  0  0  0  0
 19 11  2  0  0  0  0
 22 18  1  0  0  0  0
 23 14  1  0  0  0  0
 23 24  1  0  0  0  0
 24 31  1  0  0  0  0
 24 30  1  0  0  0  0
 25 24  1  0  0  0  0
 25 33  1  0  0  0  0
 26 25  1  0  0  0  0
 26 34  1  1  0  0  0
 27 28  1  0  0  0  0
 27 26  1  0  0  0  0
 28 23  1  0  0  0  0
 28 37  1  0  0  0  0
 29 26  1  0  0  0  0
 32 25  1  0  0  0  0
 35 27  1  0  0  0  0
 36 27  1  0  0  0  0
 38 28  1  0  0  0  0
 39 40  1  6  0  0  0
 39  1  1  0  0  0  0
 39 41  1  0  0  0  0
 41 42  1  0  0  0  0
 41 44  1  0  0  0  0
 43 41  1  0  0  0  0
 45 46  1  0  0  0  0
 45 47  1  0  0  0  0
 45 39  1  0  0  0  0
 48 45  1  0  0  0  0
 49 48  2  0  0  0  0
 50 49  1  0  0  0  0
 51 50  2  0  0  0  0
 51 52  1  0  0  0  0
 52 48  1  0  0  0  0
 53 51  1  0  0  0  0
 54 52  1  0  0  0  0
 54 57  1  0  0  0  0
 54 56  1  0  0  0  0
 55 54  1  0  0  0  0
M  END
>  <MODEL>
1

>  <REMARK>
 VINA RESULT:    -8.591      0.000      0.000
 INTER + INTRA:         -11.966
 INTER:                 -10.986
 INTRA:                  -0.981
 UNBOUND:                -0.362
  Name = 
  7 active torsions:
  status: ('A' for Active; 'I' for Inactive)
    1  A    between atoms: C_1  and  C_2
    2  A    between atoms: C_2  and  C_3
    3  A    between atoms: C_2  and  C_10
    4  A    between atoms: C_3  and  C_4
    5  A    between atoms: N_8  and  C_9
    6  A    between atoms: C_14  and  C_16
    7  A    between atoms: C_19  and  N_23
                            x       y       z     vdW  Elec       q    Type
                         _______ _______ _______ _____ _____    ______ ____

>  <TORSDO>
F 7

$$$$
=
 OpenBabel07192307433D

 57 61  0  0  1  0  0  0  0  0999 V2000
    4.8930    4.1870   17.2340 C   0  0  0  0  0  0  0  0  0  0  0  0
    4.1900    2.9770   17.1660 C   0  0  0  0  0  0  0  0  0  0  0  0
    2.9370    2.8550   17.7650 C   0  0  0  0  0  0  0  0  0  0  0  0
    2.3780    3.9370   18.4470 C   0  0  0  0  0  0  0  0  0  0  0  0
    3.0600    5.1590   18.5440 C   0  0  0  0  0  0  0  0  0  0  0  0
    4.3150    5.2680   17.9260 C   0  0  0  0  0  0  0  0  0  0  0  0
    4.6100    2.1180   16.6470 H   0  0  0  0  0  0  0  0  0  0  0  0
    2.3940    1.9150   17.7040 H   0  0  0  0  0  0  0  0  0  0  0  0
    1.3990    3.8190   18.9080 H   0  0  0  0  0  0  0  0  0  0  0  0
    4.8570    6.2090   17.9710 H   0  0  0  0  0  0  0  0  0  0  0  0
    2.4620    6.2860   19.2740 C   0  0  0  0  0  0  0  0  0  0  0  0
    2.1870    7.6170   18.8100 C   0  0  0  0  0  0  0  0  0  0  0  0
    1.6150    8.2750   19.8870 C   0  0  0  0  0  0  0  0  0  0  0  0
    1.1950    9.6030   19.8390 C   0  0  0  0  0  0  0  0  0  0  0  0
    1.4000   10.2220   18.6040 C   0  0  0  0  0  0  0  0  0  0  0  0
    1.9840    9.5130   17.5610 C   0  0  0  0  0  0  0  0  0  0  0  0
    2.3920    8.2270   17.6110 N   0  0  0  0  0  0  0  0  0  0  0  0
    1.5880    7.3560   20.8910 N   0  0  0  0  0  0  0  0  0  0  0  0
    2.0930    6.1540   20.5660 N   0  0  0  0  0  0  0  0  0  0  0  0
    1.1050   11.2540   18.4420 H   0  0  0  0  0  0  0  0  0  0  0  0
    2.1430    9.9970   16.6010 H   0  0  0  0  0  0  0  0  0  0  0  0
    1.2340    7.5030   21.8300 H   0  0  0  0  0  0  0  0  0  0  0  0
    0.6140   10.2120   20.9560 N   0  0  0  0  0  0  0  0  0  0  0  0
   -0.3100    9.3020   21.6600 C   0  0  0  0  0  0  0  0  0  0  0  0
   -0.7270    9.9370   22.9790 C   0  0  0  0  0  0  0  0  0  0  0  0
   -1.3260   11.3140   22.7360 C   0  0  2  0  0  0  0  0  0  0  0  0
   -0.3770   12.2070   21.9530 C   0  0  0  0  0  0  0  0  0  0  0  0
    0.0290   11.5300   20.6510 C   0  0  0  0  0  0  0  0  0  0  0  0
   -1.5870   11.8970   23.9380 F   0  0  0  0  0  0  0  0  0  0  0  0
   -1.1970    9.0930   21.0480 H   0  0  0  0  0  0  0  0  0  0  0  0
    0.1850    8.3450   21.8720 H   0  0  0  0  0  0  0  0  0  0  0  0
    0.1390   10.0310   23.6480 H   0  0  0  0  0  0  0  0  0  0  0  0
   -1.4510    9.3010   23.5000 H   0  0  0  0  0  0  0  0  0  0  0  0
   -2.2810   11.2210   22.2070 H   0  0  0  0  0  0  0  0  0  0  0  0
   -0.8550   13.1730   21.7510 H   0  0  0  0  0  0  0  0  0  0  0  0
    0.5080   12.4220   22.5630 H   0  0  0  0  0  0  0  0  0  0  0  0
   -0.8460   11.4330   19.9950 H   0  0  0  0  0  0  0  0  0  0  0  0
    0.7650   12.1630   20.1390 H   0  0  0  0  0  0  0  0  0  0  0  0
    6.2740    4.3480   16.6150 C   0  0  2  0  0  0  0  0  0  0  0  0
    6.6010    3.3590   16.2660 H   0  0  0  0  0  0  0  0  0  0  0  0
    7.3090    4.8000   17.6530 C   0  0  0  0  0  0  0  0  0  0  0  0
    8.0200    4.0040   17.8980 H   0  0  0  0  0  0  0  0  0  0  0  0
    6.8220    5.1070   18.5840 H   0  0  0  0  0  0  0  0  0  0  0  0
    7.8840    5.6570   17.2830 H   0  0  0  0  0  0  0  0  0  0  0  0
    6.2030    5.3040   15.4080 C   0  0  0  0  0  0  0  0  0  0  0  0
    5.2960    5.9210   15.4600 H   0  0  0  0  0  0  0  0  0  0  0  0
    7.0450    6.0090   15.4280 H   0  0  0  0  0  0  0  0  0  0  0  0
    6.2120    4.5700   14.1110 C   0  0  0  0  0  0  0  0  0  0  0  0
    5.3340    3.6740   13.7100 N   0  0  0  0  0  0  0  0  0  0  0  0
    5.7010    3.2440   12.4560 N   0  0  0  0  0  0  0  0  0  0  0  0
    6.7970    3.8830   12.1220 C   0  0  0  0  0  0  0  0  0  0  0  0
    7.1550    4.7250   13.1290 N   0  0  0  0  0  0  0  0  0  0  0  0
    7.3430    3.7700   11.1960 H   0  0  0  0  0  0  0  0  0  0  0  0
    8.3000    5.5950   13.1420 C   0  0  0  0  0  0  0  0  0  0  0  0
    8.9240    5.3350   13.9990 H   0  0  0  0  0  0  0  0  0  0  0  0
    8.8700    5.4650   12.2180 H   0  0  0  0  0  0  0  0  0  0  0  0
    7.9570    6.6300   13.2150 H   0  0  0  0  0  0  0  0  0  0  0  0
  1  6  1  0  0  0  0
  2  1  2  0  0  0  0
  2  3  1  0  0  0  0
  3  4  2  0  0  0  0
  4  5  1  0  0  0  0
  4  9  1  0  0  0  0
  5 11  1  0  0  0  0
  6 10  1  0  0  0  0
  6  5  2  0  0  0  0
  7  2  1  0  0  0  0
  8  3  1  0  0  0  0
 11 19  2  0  0  0  0
 12 11  1  0  0  0  0
 12 13  1  0  0  0  0
 13 18  1  0  0  0  0
 14 13  2  0  0  0  0
 14 23  1  0  0  0  0
 15 14  1  0  0  0  0
 16 17  1  0  0  0  0
 16 15  2  0  0  0  0
 17 12  2  0  0  0  0
 18 22  1  0  0  0  0
 19 18  1  0  0  0  0
 20 15  1  0  0  0  0
 21 16  1  0  0  0  0
 23 24  1  0  0  0  0
 24 31  1  0  0  0  0
 24 25  1  0  0  0  0
 25 33  1  0  0  0  0
 25 32  1  0  0  0  0
 26 34  1  6  0  0  0
 26 25  1  0  0  0  0
 26 29  1  0  0  0  0
 27 36  1  0  0  0  0
 27 26  1  0  0  0  0
 28 23  1  0  0  0  0
 28 27  1  0  0  0  0
 30 24  1  0  0  0  0
 35 27  1  0  0  0  0
 37 28  1  0  0  0  0
 38 28  1  0  0  0  0
 39 40  1  6  0  0  0
 39  1  1  0  0  0  0
 39 41  1  0  0  0  0
 41 42  1  0  0  0  0
 41 43  1  0  0  0  0
 44 41  1  0  0  0  0
 45 47  1  0  0  0  0
 45 46  1  0  0  0  0
 45 39  1  0  0  0  0
 48 45  1  0  0  0  0
 49 48  2  0  0  0  0
 50 49  1  0  0  0  0
 51 50  2  0  0  0  0
 51 52  1  0  0  0  0
 52 54  1  0  0  0  0
 52 48  1  0  0  0  0
 53 51  1  0  0  0  0
 54 57  1  0  0  0  0
 54 55  1  0  0  0  0
 56 54  1  0  0  0  0
M  END
>  <MODEL>
2

>  <REMARK>
 VINA RESULT:    -8.314      1.632      2.491
 INTER + INTRA:         -11.592
 INTER:                 -11.135
 INTRA:                  -0.457
 UNBOUND:                -0.362
  Name = 
  7 active torsions:
  status: ('A' for Active; 'I' for Inactive)
    1  A    between atoms: C_1  and  C_2
    2  A    between atoms: C_2  and  C_3
    3  A    between atoms: C_2  and  C_10
    4  A    between atoms: C_3  and  C_4
    5  A    between atoms: N_8  and  C_9
    6  A    between atoms: C_14  and  C_16
    7  A    between atoms: C_19  and  N_23
                            x       y       z     vdW  Elec       q    Type
                         _______ _______ _______ _____ _____    ______ ____

>  <TORSDO>
F 7

$$$$
=
 OpenBabel07192307433D

 57 61  0  0  1  0  0  0  0  0999 V2000
    4.4340    4.5330   17.2350 C   0  0  0  0  0  0  0  0  0  0  0  0
    3.8270    3.2810   17.3940 C   0  0  0  0  0  0  0  0  0  0  0  0
    2.7000    3.1410   18.2040 C   0  0  0  0  0  0  0  0  0  0  0  0
    2.1750    4.2500   18.8700 C   0  0  0  0  0  0  0  0  0  0  0  0
    2.7640    5.5150   18.7410 C   0  0  0  0  0  0  0  0  0  0  0  0
    3.8910    5.6410   17.9140 C   0  0  0  0  0  0  0  0  0  0  0  0
    4.2240    2.4020   16.8910 H   0  0  0  0  0  0  0  0  0  0  0  0
    2.2290    2.1680   18.3190 H   0  0  0  0  0  0  0  0  0  0  0  0
    1.2950    4.1180   19.4980 H   0  0  0  0  0  0  0  0  0  0  0  0
    4.3570    6.6140   17.7830 H   0  0  0  0  0  0  0  0  0  0  0  0
    2.2050    6.6710   19.4570 C   0  0  0  0  0  0  0  0  0  0  0  0
    1.9790    8.0060   18.9790 C   0  0  0  0  0  0  0  0  0  0  0  0
    1.4280    8.6950   20.0460 C   0  0  0  0  0  0  0  0  0  0  0  0
    1.0560   10.0370   19.9830 C   0  0  0  0  0  0  0  0  0  0  0  0
    1.2870   10.6350   18.7420 C   0  0  0  0  0  0  0  0  0  0  0  0
    1.8490    9.8950   17.7090 C   0  0  0  0  0  0  0  0  0  0  0  0
    2.2100    8.5960   17.7740 N   0  0  0  0  0  0  0  0  0  0  0  0
    1.3650    7.7880   21.0600 N   0  0  0  0  0  0  0  0  0  0  0  0
    1.8270    6.5660   20.7490 N   0  0  0  0  0  0  0  0  0  0  0  0
    1.0300   11.6750   18.5690 H   0  0  0  0  0  0  0  0  0  0  0  0
    2.0280   10.3630   16.7450 H   0  0  0  0  0  0  0  0  0  0  0  0
    1.0130    7.9580   21.9960 H   0  0  0  0  0  0  0  0  0  0  0  0
    0.4930   10.6780   21.0910 N   0  0  0  0  0  0  0  0  0  0  0  0
   -0.5280    9.8410   21.7510 C   0  0  0  0  0  0  0  0  0  0  0  0
   -0.9320   10.4920   23.0670 C   0  0  0  0  0  0  0  0  0  0  0  0
   -1.4010   11.9190   22.8290 C   0  0  2  0  0  0  0  0  0  0  0  0
   -0.3540   12.7370   22.0910 C   0  0  0  0  0  0  0  0  0  0  0  0
    0.0350   12.0460   20.7910 C   0  0  0  0  0  0  0  0  0  0  0  0
   -1.6510   12.5050   24.0310 F   0  0  0  0  0  0  0  0  0  0  0  0
   -1.4100    9.7200   21.1080 H   0  0  0  0  0  0  0  0  0  0  0  0
   -0.1250    8.8420   21.9620 H   0  0  0  0  0  0  0  0  0  0  0  0
   -0.0830   10.5000   23.7640 H   0  0  0  0  0  0  0  0  0  0  0  0
   -1.7240    9.9140   23.5530 H   0  0  0  0  0  0  0  0  0  0  0  0
   -2.3430   11.9160   22.2690 H   0  0  0  0  0  0  0  0  0  0  0  0
   -0.7400   13.7440   21.8900 H   0  0  0  0  0  0  0  0  0  0  0  0
    0.5260   12.8660   22.7330 H   0  0  0  0  0  0  0  0  0  0  0  0
   -0.8230   12.0350   20.1060 H   0  0  0  0  0  0  0  0  0  0  0  0
    0.8390   12.6200   20.3140 H   0  0  0  0  0  0  0  0  0  0  0  0
    5.6800    4.7180   16.3810 C   0  0  2  0  0  0  0  0  0  0  0  0
    5.6100    5.7010   15.8950 H   0  0  0  0  0  0  0  0  0  0  0  0
    5.7490    3.6850   15.2500 C   0  0  0  0  0  0  0  0  0  0  0  0
    4.7970    3.5950   14.7170 H   0  0  0  0  0  0  0  0  0  0  0  0
    6.0050    2.6940   15.6400 H   0  0  0  0  0  0  0  0  0  0  0  0
    6.5160    3.9600   14.5170 H   0  0  0  0  0  0  0  0  0  0  0  0
    6.9380    4.6920   17.2720 C   0  0  0  0  0  0  0  0  0  0  0  0
    6.7340    4.1580   18.2090 H   0  0  0  0  0  0  0  0  0  0  0  0
    7.7440    4.1330   16.7790 H   0  0  0  0  0  0  0  0  0  0  0  0
    7.4230    6.0640   17.5960 C   0  0  0  0  0  0  0  0  0  0  0  0
    7.3900    7.1150   16.8020 N   0  0  0  0  0  0  0  0  0  0  0  0
    7.9270    8.1830   17.4830 N   0  0  0  0  0  0  0  0  0  0  0  0
    8.2790    7.7590   18.6730 C   0  0  0  0  0  0  0  0  0  0  0  0
    7.9830    6.4370   18.7900 N   0  0  0  0  0  0  0  0  0  0  0  0
    8.7350    8.3550   19.4510 H   0  0  0  0  0  0  0  0  0  0  0  0
    8.2190    5.6120   19.9430 C   0  0  0  0  0  0  0  0  0  0  0  0
    7.6630    6.0260   20.7870 H   0  0  0  0  0  0  0  0  0  0  0  0
    7.8780    4.5930   19.7400 H   0  0  0  0  0  0  0  0  0  0  0  0
    9.2910    5.6010   20.1570 H   0  0  0  0  0  0  0  0  0  0  0  0
  1  2  2  0  0  0  0
  1  6  1  0  0  0  0
  2  3  1  0  0  0  0
  3  8  1  0  0  0  0
  3  4  2  0  0  0  0
  4  9  1  0  0  0  0
  5  4  1  0  0  0  0
  5 11  1  0  0  0  0
  6  5  2  0  0  0  0
  7  2  1  0  0  0  0
 10  6  1  0  0  0  0
 11 19  2  0  0  0  0
 12 11  1  0  0  0  0
 12 13  1  0  0  0  0
 13 18  1  0  0  0  0
 14 13  2  0  0  0  0
 14 23  1  0  0  0  0
 15 14  1  0  0  0  0
 16 17  1  0  0  0  0
 16 15  2  0  0  0  0
 17 12  2  0  0  0  0
 18 22  1  0  0  0  0
 19 18  1  0  0  0  0
 20 15  1  0  0  0  0
 21 16  1  0  0  0  0
 23 24  1  0  0  0  0
 24 31  1  0  0  0  0
 24 25  1  0  0  0  0
 25 33  1  0  0  0  0
 25 32  1  0  0  0  0
 26 34  1  6  0  0  0
 26 25  1  0  0  0  0
 26 29  1  0  0  0  0
 27 36  1  0  0  0  0
 27 26  1  0  0  0  0
 28 23  1  0  0  0  0
 28 27  1  0  0  0  0
 30 24  1  0  0  0  0
 35 27  1  0  0  0  0
 37 28  1  0  0  0  0
 38 28  1  0  0  0  0
 39 40  1  6  0  0  0
 39  1  1  0  0  0  0
 39 45  1  0  0  0  0
 41 43  1  0  0  0  0
 41 39  1  0  0  0  0
 42 41  1  0  0  0  0
 44 41  1  0  0  0  0
 45 48  1  0  0  0  0
 45 46  1  0  0  0  0
 47 45  1  0  0  0  0
 48 52  1  0  0  0  0
 49 50  1  0  0  0  0
 49 48  2  0  0  0  0
 50 51  2  0  0  0  0
 51 52  1  0  0  0  0
 51 53  1  0  0  0  0
 52 54  1  0  0  0  0
 54 57  1  0  0  0  0
 54 55  1  0  0  0  0
 56 54  1  0  0  0  0
M  END
>  <MODEL>
3

>  <REMARK>
 VINA RESULT:    -8.294      2.453      3.732
 INTER + INTRA:         -11.566
 INTER:                 -10.975
 INTRA:                  -0.591
 UNBOUND:                -0.362
  Name = 
  7 active torsions:
  status: ('A' for Active; 'I' for Inactive)
    1  A    between atoms: C_1  and  C_2
    2  A    between atoms: C_2  and  C_3
    3  A    between atoms: C_2  and  C_10
    4  A    between atoms: C_3  and  C_4
    5  A    between atoms: N_8  and  C_9
    6  A    between atoms: C_14  and  C_16
    7  A    between atoms: C_19  and  N_23
                            x       y       z     vdW  Elec       q    Type
                         _______ _______ _______ _____ _____    ______ ____

>  <TORSDO>
F 7

$$$$
=
 OpenBabel07192307433D

 57 61  0  0  1  0  0  0  0  0999 V2000
   -0.8460   11.0450   20.1880 C   0  0  0  0  0  0  0  0  0  0  0  0
   -0.9840   10.7740   21.5550 C   0  0  0  0  0  0  0  0  0  0  0  0
   -0.2130    9.7810   22.1590 C   0  0  0  0  0  0  0  0  0  0  0  0
    0.6960    9.0410   21.4000 C   0  0  0  0  0  0  0  0  0  0  0  0
    0.8510    9.2800   20.0270 C   0  0  0  0  0  0  0  0  0  0  0  0
    0.0760   10.2900   19.4370 C   0  0  0  0  0  0  0  0  0  0  0  0
   -1.6910   11.3320   22.1640 H   0  0  0  0  0  0  0  0  0  0  0  0
   -0.3200    9.5790   23.2220 H   0  0  0  0  0  0  0  0  0  0  0  0
    1.2870    8.2700   21.8920 H   0  0  0  0  0  0  0  0  0  0  0  0
    0.1880   10.5060   18.3780 H   0  0  0  0  0  0  0  0  0  0  0  0
    1.8050    8.4860   19.2390 C   0  0  0  0  0  0  0  0  0  0  0  0
    2.2570    7.1410   19.4580 C   0  0  0  0  0  0  0  0  0  0  0  0
    3.1410    6.8730   18.4250 C   0  0  0  0  0  0  0  0  0  0  0  0
    3.7980    5.6540   18.2750 C   0  0  0  0  0  0  0  0  0  0  0  0
    3.4910    4.7140   19.2620 C   0  0  0  0  0  0  0  0  0  0  0  0
    2.6010    5.0420   20.2780 C   0  0  0  0  0  0  0  0  0  0  0  0
    1.9670    6.2250   20.4220 N   0  0  0  0  0  0  0  0  0  0  0  0
    3.1790    8.0150   17.6850 N   0  0  0  0  0  0  0  0  0  0  0  0
    2.3980    9.0080   18.1440 N   0  0  0  0  0  0  0  0  0  0  0  0
    3.9340    3.7240   19.2470 H   0  0  0  0  0  0  0  0  0  0  0  0
    2.3630    4.3090   21.0450 H   0  0  0  0  0  0  0  0  0  0  0  0
    3.7320    8.1710   16.8490 H   0  0  0  0  0  0  0  0  0  0  0  0
    4.6720    5.4360   17.2050 N   0  0  0  0  0  0  0  0  0  0  0  0
    4.5320    4.0760   16.6490 C   0  0  0  0  0  0  0  0  0  0  0  0
    5.3330    3.9810   15.3580 C   0  0  0  0  0  0  0  0  0  0  0  0
    6.7820    4.3720   15.6050 C   0  0  2  0  0  0  0  0  0  0  0  0
    6.8900    5.7500   16.2370 C   0  0  0  0  0  0  0  0  0  0  0  0
    6.0630    5.8100   17.5140 C   0  0  0  0  0  0  0  0  0  0  0  0
    7.4440    4.3800   14.4160 F   0  0  0  0  0  0  0  0  0  0  0  0
    4.8850    3.3220   17.3650 H   0  0  0  0  0  0  0  0  0  0  0  0
    3.4790    3.8610   16.4260 H   0  0  0  0  0  0  0  0  0  0  0  0
    4.9040    4.6410   14.5930 H   0  0  0  0  0  0  0  0  0  0  0  0
    5.2850    2.9650   14.9500 H   0  0  0  0  0  0  0  0  0  0  0  0
    7.2700    3.6250   16.2410 H   0  0  0  0  0  0  0  0  0  0  0  0
    7.9410    5.9830   16.4480 H   0  0  0  0  0  0  0  0  0  0  0  0
    6.5440    6.5070   15.5220 H   0  0  0  0  0  0  0  0  0  0  0  0
    6.4960    5.1390   18.2670 H   0  0  0  0  0  0  0  0  0  0  0  0
    6.1030    6.8320   17.9120 H   0  0  0  0  0  0  0  0  0  0  0  0
   -1.6890   12.1020   19.4900 C   0  0  2  0  0  0  0  0  0  0  0  0
   -1.1470   12.4200   18.5890 H   0  0  0  0  0  0  0  0  0  0  0  0
   -1.8530   13.3570   20.3570 C   0  0  0  0  0  0  0  0  0  0  0  0
   -0.9890   13.5230   21.0090 H   0  0  0  0  0  0  0  0  0  0  0  0
   -2.7390   13.2780   20.9960 H   0  0  0  0  0  0  0  0  0  0  0  0
   -1.9750   14.2490   19.7320 H   0  0  0  0  0  0  0  0  0  0  0  0
   -3.0450   11.5020   19.0700 C   0  0  0  0  0  0  0  0  0  0  0  0
   -3.2980   10.6430   19.7050 H   0  0  0  0  0  0  0  0  0  0  0  0
   -3.8500   12.2330   19.2220 H   0  0  0  0  0  0  0  0  0  0  0  0
   -3.0460   11.0650   17.6450 C   0  0  0  0  0  0  0  0  0  0  0  0
   -2.1560   10.2900   17.0610 N   0  0  0  0  0  0  0  0  0  0  0  0
   -2.5260   10.1260   15.7460 N   0  0  0  0  0  0  0  0  0  0  0  0
   -3.6300   10.8070   15.5570 C   0  0  0  0  0  0  0  0  0  0  0  0
   -3.9950   11.4130   16.7190 N   0  0  0  0  0  0  0  0  0  0  0  0
   -4.1780   10.8860   14.6280 H   0  0  0  0  0  0  0  0  0  0  0  0
   -5.1470   12.2500   16.9160 C   0  0  0  0  0  0  0  0  0  0  0  0
   -5.9930   11.6170   17.1920 H   0  0  0  0  0  0  0  0  0  0  0  0
   -4.9460   12.9680   17.7160 H   0  0  0  0  0  0  0  0  0  0  0  0
   -5.3560   12.7880   15.9880 H   0  0  0  0  0  0  0  0  0  0  0  0
  1  2  1  0  0  0  0
  2  3  2  0  0  0  0
  2  7  1  0  0  0  0
  3  8  1  0  0  0  0
  4  9  1  0  0  0  0
  4  3  1  0  0  0  0
  5  4  2  0  0  0  0
  6  5  1  0  0  0  0
  6  1  2  0  0  0  0
 10  6  1  0  0  0  0
 11 12  1  0  0  0  0
 11  5  1  0  0  0  0
 12 17  1  0  0  0  0
 13 12  2  0  0  0  0
 14 13  1  0  0  0  0
 14 15  2  0  0  0  0
 15 16  1  0  0  0  0
 16 17  2  0  0  0  0
 16 21  1  0  0  0  0
 18 19  1  0  0  0  0
 18 13  1  0  0  0  0
 19 11  2  0  0  0  0
 20 15  1  0  0  0  0
 22 18  1  0  0  0  0
 23 28  1  0  0  0  0
 23 14  1  0  0  0  0
 24 23  1  0  0  0  0
 24 30  1  0  0  0  0
 25 26  1  0  0  0  0
 25 24  1  0  0  0  0
 26 27  1  0  0  0  0
 26 34  1  1  0  0  0
 27 35  1  0  0  0  0
 27 28  1  0  0  0  0
 28 38  1  0  0  0  0
 28 37  1  0  0  0  0
 29 26  1  0  0  0  0
 31 24  1  0  0  0  0
 32 25  1  0  0  0  0
 33 25  1  0  0  0  0
 36 27  1  0  0  0  0
 39 40  1  6  0  0  0
 39  1  1  0  0  0  0
 39 41  1  0  0  0  0
 41 43  1  0  0  0  0
 41 42  1  0  0  0  0
 44 41  1  0  0  0  0
 45 47  1  0  0  0  0
 45 39  1  0  0  0  0
 45 46  1  0  0  0  0
 48 45  1  0  0  0  0
 49 48  2  0  0  0  0
 50 49  1  0  0  0  0
 51 50  2  0  0  0  0
 51 52  1  0  0  0  0
 52 54  1  0  0  0  0
 52 48  1  0  0  0  0
 53 51  1  0  0  0  0
 54 55  1  0  0  0  0
 54 56  1  0  0  0  0
 57 54  1  0  0  0  0
M  END
>  <MODEL>
4

>  <REMARK>
 VINA RESULT:    -8.288      3.483      9.356
 INTER + INTRA:         -11.557
 INTER:                 -10.862
 INTRA:                  -0.696
 UNBOUND:                -0.362
  Name = 
  7 active torsions:
  status: ('A' for Active; 'I' for Inactive)
    1  A    between atoms: C_1  and  C_2
    2  A    between atoms: C_2  and  C_3
    3  A    between atoms: C_2  and  C_10
    4  A    between atoms: C_3  and  C_4
    5  A    between atoms: N_8  and  C_9
    6  A    between atoms: C_14  and  C_16
    7  A    between atoms: C_19  and  N_23
                            x       y       z     vdW  Elec       q    Type
                         _______ _______ _______ _____ _____    ______ ____

>  <TORSDO>
F 7

$$$$
=
 OpenBabel07192307433D

 57 61  0  0  1  0  0  0  0  0999 V2000
   -0.6230   10.8840   21.1450 C   0  0  0  0  0  0  0  0  0  0  0  0
   -1.4800   11.5720   20.2770 C   0  0  0  0  0  0  0  0  0  0  0  0
   -1.3650   11.4110   18.8960 C   0  0  0  0  0  0  0  0  0  0  0  0
   -0.3850   10.5680   18.3690 C   0  0  0  0  0  0  0  0  0  0  0  0
    0.4970    9.8730   19.2090 C   0  0  0  0  0  0  0  0  0  0  0  0
    0.3600   10.0380   20.5960 C   0  0  0  0  0  0  0  0  0  0  0  0
   -2.2460   12.2400   20.6650 H   0  0  0  0  0  0  0  0  0  0  0  0
   -2.0380   11.9420   18.2280 H   0  0  0  0  0  0  0  0  0  0  0  0
   -0.3130   10.4570   17.2880 H   0  0  0  0  0  0  0  0  0  0  0  0
    1.0200    9.4980   21.2700 H   0  0  0  0  0  0  0  0  0  0  0  0
    1.5300    8.9970   18.6390 C   0  0  0  0  0  0  0  0  0  0  0  0
    2.0110    7.7340   19.1240 C   0  0  0  0  0  0  0  0  0  0  0  0
    2.9720    7.3280   18.2130 C   0  0  0  0  0  0  0  0  0  0  0  0
    3.6800    6.1320   18.3270 C   0  0  0  0  0  0  0  0  0  0  0  0
    3.3360    5.3700   19.4460 C   0  0  0  0  0  0  0  0  0  0  0  0
    2.3670    5.8310   20.3280 C   0  0  0  0  0  0  0  0  0  0  0  0
    1.6850    6.9910   20.2170 N   0  0  0  0  0  0  0  0  0  0  0  0
    3.0230    8.3210   17.2840 N   0  0  0  0  0  0  0  0  0  0  0  0
    2.1800    9.3420   17.5060 N   0  0  0  0  0  0  0  0  0  0  0  0
    3.8130    4.4140   19.6370 H   0  0  0  0  0  0  0  0  0  0  0  0
    2.1010    5.2360   21.1980 H   0  0  0  0  0  0  0  0  0  0  0  0
    3.6280    8.3510   16.4700 H   0  0  0  0  0  0  0  0  0  0  0  0
    4.6330    5.7680   17.3690 N   0  0  0  0  0  0  0  0  0  0  0  0
    4.5070    4.3500   16.9810 C   0  0  0  0  0  0  0  0  0  0  0  0
    5.4090    4.0800   15.7850 C   0  0  0  0  0  0  0  0  0  0  0  0
    6.8420    4.4820   16.1000 C   0  0  2  0  0  0  0  0  0  0  0  0
    6.9290    5.9280   16.5590 C   0  0  0  0  0  0  0  0  0  0  0  0
    6.0020    6.1620   17.7440 C   0  0  0  0  0  0  0  0  0  0  0  0
    7.5980    4.3290   14.9800 F   0  0  0  0  0  0  0  0  0  0  0  0
    4.7830    3.6900   17.8140 H   0  0  0  0  0  0  0  0  0  0  0  0
    3.4710    4.1210   16.6990 H   0  0  0  0  0  0  0  0  0  0  0  0
    5.0590    4.6420   14.9090 H   0  0  0  0  0  0  0  0  0  0  0  0
    5.3700    3.0210   15.5070 H   0  0  0  0  0  0  0  0  0  0  0  0
    7.2590    3.8160   16.8650 H   0  0  0  0  0  0  0  0  0  0  0  0
    7.9640    6.1730   16.8270 H   0  0  0  0  0  0  0  0  0  0  0  0
    6.6600    6.5910   15.7280 H   0  0  0  0  0  0  0  0  0  0  0  0
    6.3560    5.5880   18.6110 H   0  0  0  0  0  0  0  0  0  0  0  0
    6.0320    7.2260   18.0110 H   0  0  0  0  0  0  0  0  0  0  0  0
   -0.7020   11.0570   22.6540 C   0  0  2  0  0  0  0  0  0  0  0  0
    0.0250   11.8300   22.9410 H   0  0  0  0  0  0  0  0  0  0  0  0
   -0.2810    9.7800   23.3930 C   0  0  0  0  0  0  0  0  0  0  0  0
   -0.5020    8.8780   22.8120 H   0  0  0  0  0  0  0  0  0  0  0  0
   -0.8030    9.6930   24.3520 H   0  0  0  0  0  0  0  0  0  0  0  0
    0.7950    9.7860   23.6010 H   0  0  0  0  0  0  0  0  0  0  0  0
   -2.1140   11.5260   23.0590 C   0  0  0  0  0  0  0  0  0  0  0  0
   -2.7970   11.4690   22.2020 H   0  0  0  0  0  0  0  0  0  0  0  0
   -2.5350   10.8580   23.8210 H   0  0  0  0  0  0  0  0  0  0  0  0
   -2.1110   12.9220   23.5810 C   0  0  0  0  0  0  0  0  0  0  0  0
   -1.1170   13.7840   23.5130 N   0  0  0  0  0  0  0  0  0  0  0  0
   -1.5240   14.9560   24.1060 N   0  0  0  0  0  0  0  0  0  0  0  0
   -2.7550   14.7820   24.5260 C   0  0  0  0  0  0  0  0  0  0  0  0
   -3.1650   13.5220   24.2200 N   0  0  0  0  0  0  0  0  0  0  0  0
   -3.3620   15.5150   25.0390 H   0  0  0  0  0  0  0  0  0  0  0  0
   -4.4500   12.9510   24.5170 C   0  0  0  0  0  0  0  0  0  0  0  0
   -4.5760   12.0470   23.9170 H   0  0  0  0  0  0  0  0  0  0  0  0
   -4.5020   12.6980   25.5800 H   0  0  0  0  0  0  0  0  0  0  0  0
   -5.2260   13.6830   24.2790 H   0  0  0  0  0  0  0  0  0  0  0  0
  1 39  1  0  0  0  0
  2  7  1  0  0  0  0
  2  1  2  0  0  0  0
  3  2  1  0  0  0  0
  4  3  2  0  0  0  0
  4  5  1  0  0  0  0
  5  6  2  0  0  0  0
  6  1  1  0  0  0  0
  6 10  1  0  0  0  0
  8  3  1  0  0  0  0
  9  4  1  0  0  0  0
 11 12  1  0  0  0  0
 11  5  1  0  0  0  0
 12 17  1  0  0  0  0
 13 14  1  0  0  0  0
 13 12  2  0  0  0  0
 14 15  2  0  0  0  0
 15 20  1  0  0  0  0
 15 16  1  0  0  0  0
 16 21  1  0  0  0  0
 17 16  2  0  0  0  0
 18 19  1  0  0  0  0
 18 13  1  0  0  0  0
 19 11  2  0  0  0  0
 22 18  1  0  0  0  0
 23 28  1  0  0  0  0
 23 14  1  0  0  0  0
 24 23  1  0  0  0  0
 24 30  1  0  0  0  0
 25 26  1  0  0  0  0
 25 24  1  0  0  0  0
 26 27  1  0  0  0  0
 26 34  1  1  0  0  0
 27 35  1  0  0  0  0
 27 28  1  0  0  0  0
 28 38  1  0  0  0  0
 28 37  1  0  0  0  0
 29 26  1  0  0  0  0
 31 24  1  0  0  0  0
 32 25  1  0  0  0  0
 33 25  1  0  0  0  0
 36 27  1  0  0  0  0
 39 40  1  1  0  0  0
 39 45  1  0  0  0  0
 39 41  1  0  0  0  0
 41 44  1  0  0  0  0
 41 43  1  0  0  0  0
 42 41  1  0  0  0  0
 45 48  1  0  0  0  0
 45 47  1  0  0  0  0
 46 45  1  0  0  0  0
 48 52  1  0  0  0  0
 49 48  2  0  0  0  0
 49 50  1  0  0  0  0
 50 51  2  0  0  0  0
 51 53  1  0  0  0  0
 52 54  1  0  0  0  0
 52 51  1  0  0  0  0
 54 56  1  0  0  0  0
 55 54  1  0  0  0  0
 57 54  1  0  0  0  0
M  END
>  <MODEL>
5

>  <REMARK>
 VINA RESULT:    -8.284      3.873     10.652
 INTER + INTRA:         -11.552
 INTER:                 -10.637
 INTRA:                  -0.915
 UNBOUND:                -0.362
  Name = 
  7 active torsions:
  status: ('A' for Active; 'I' for Inactive)
    1  A    between atoms: C_1  and  C_2
    2  A    between atoms: C_2  and  C_3
    3  A    between atoms: C_2  and  C_10
    4  A    between atoms: C_3  and  C_4
    5  A    between atoms: N_8  and  C_9
    6  A    between atoms: C_14  and  C_16
    7  A    between atoms: C_19  and  N_23
                            x       y       z     vdW  Elec       q    Type
                         _______ _______ _______ _____ _____    ______ ____

>  <TORSDO>
F 7

$$$$
=
 OpenBabel07192307433D

 57 61  0  0  1  0  0  0  0  0999 V2000
    5.5120    4.7160   18.7470 C   0  0  0  0  0  0  0  0  0  0  0  0
    4.9780    3.4440   18.5030 C   0  0  0  0  0  0  0  0  0  0  0  0
    3.6170    3.2020   18.6890 C   0  0  0  0  0  0  0  0  0  0  0  0
    2.7780    4.2270   19.1310 C   0  0  0  0  0  0  0  0  0  0  0  0
    3.2820    5.5080   19.3960 C   0  0  0  0  0  0  0  0  0  0  0  0
    4.6510    5.7380   19.1930 C   0  0  0  0  0  0  0  0  0  0  0  0
    5.6150    2.6300   18.1650 H   0  0  0  0  0  0  0  0  0  0  0  0
    3.2080    2.2150   18.4920 H   0  0  0  0  0  0  0  0  0  0  0  0
    1.7190    4.0150   19.2710 H   0  0  0  0  0  0  0  0  0  0  0  0
    5.0640    6.7270   19.3740 H   0  0  0  0  0  0  0  0  0  0  0  0
    2.3870    6.5740   19.8700 C   0  0  0  0  0  0  0  0  0  0  0  0
    2.0960    7.8440   19.2670 C   0  0  0  0  0  0  0  0  0  0  0  0
    1.1870    8.4580   20.1120 C   0  0  0  0  0  0  0  0  0  0  0  0
    0.6470    9.7200   19.8710 C   0  0  0  0  0  0  0  0  0  0  0  0
    1.1030   10.3210   18.6950 C   0  0  0  0  0  0  0  0  0  0  0  0
    2.0210    9.6590   17.8890 C   0  0  0  0  0  0  0  0  0  0  0  0
    2.5440    8.4370   18.1260 N   0  0  0  0  0  0  0  0  0  0  0  0
    0.9970    7.5750   21.1310 N   0  0  0  0  0  0  0  0  0  0  0  0
    1.7030    6.4370   21.0270 N   0  0  0  0  0  0  0  0  0  0  0  0
    0.7470   11.3010   18.3960 H   0  0  0  0  0  0  0  0  0  0  0  0
    2.3740   10.1280   16.9740 H   0  0  0  0  0  0  0  0  0  0  0  0
    0.3910    7.7060   21.9330 H   0  0  0  0  0  0  0  0  0  0  0  0
   -0.2770   10.2860   20.7550 N   0  0  0  0  0  0  0  0  0  0  0  0
   -0.6330   11.6650   20.3700 C   0  0  0  0  0  0  0  0  0  0  0  0
   -1.8000   12.1370   21.2270 C   0  0  0  0  0  0  0  0  0  0  0  0
   -1.4590   12.0050   22.7030 C   0  0  2  0  0  0  0  0  0  0  0  0
   -1.0350   10.5880   23.0560 C   0  0  0  0  0  0  0  0  0  0  0  0
    0.1210   10.1480   22.1680 C   0  0  0  0  0  0  0  0  0  0  0  0
   -2.5570   12.3310   23.4380 F   0  0  0  0  0  0  0  0  0  0  0  0
    0.2230   12.3410   20.5000 H   0  0  0  0  0  0  0  0  0  0  0  0
   -0.9340   11.7020   19.3150 H   0  0  0  0  0  0  0  0  0  0  0  0
   -2.6980   11.5440   21.0070 H   0  0  0  0  0  0  0  0  0  0  0  0
   -2.0520   13.1770   20.9930 H   0  0  0  0  0  0  0  0  0  0  0  0
   -0.6680   12.7140   22.9720 H   0  0  0  0  0  0  0  0  0  0  0  0
   -0.7490   10.5360   24.1130 H   0  0  0  0  0  0  0  0  0  0  0  0
   -1.8890    9.9110   22.9330 H   0  0  0  0  0  0  0  0  0  0  0  0
    1.0100   10.7530   22.3890 H   0  0  0  0  0  0  0  0  0  0  0  0
    0.3610    9.1020   22.3940 H   0  0  0  0  0  0  0  0  0  0  0  0
    6.9960    5.0090   18.5810 C   0  0  2  0  0  0  0  0  0  0  0  0
    7.5120    4.0500   18.4390 H   0  0  0  0  0  0  0  0  0  0  0  0
    7.5940    5.6360   19.8460 C   0  0  0  0  0  0  0  0  0  0  0  0
    8.6440    5.9170   19.7090 H   0  0  0  0  0  0  0  0  0  0  0  0
    7.5450    4.9380   20.6890 H   0  0  0  0  0  0  0  0  0  0  0  0
    7.0420    6.5390   20.1330 H   0  0  0  0  0  0  0  0  0  0  0  0
    7.2230    5.8850   17.3320 C   0  0  0  0  0  0  0  0  0  0  0  0
    6.7370    6.8610   17.4540 H   0  0  0  0  0  0  0  0  0  0  0  0
    8.2930    6.0990   17.2050 H   0  0  0  0  0  0  0  0  0  0  0  0
    6.7050    5.2390   16.0930 C   0  0  0  0  0  0  0  0  0  0  0  0
    7.1950    4.1700   15.5010 N   0  0  0  0  0  0  0  0  0  0  0  0
    6.4240    3.8990   14.3950 N   0  0  0  0  0  0  0  0  0  0  0  0
    5.4840    4.8120   14.3340 C   0  0  0  0  0  0  0  0  0  0  0  0
    5.6200    5.6740   15.3770 N   0  0  0  0  0  0  0  0  0  0  0  0
    4.7140    4.8830   13.5790 H   0  0  0  0  0  0  0  0  0  0  0  0
    4.7830    6.8090   15.6560 C   0  0  0  0  0  0  0  0  0  0  0  0
    4.5380    6.8080   16.7200 H   0  0  0  0  0  0  0  0  0  0  0  0
    5.3170    7.7290   15.4020 H   0  0  0  0  0  0  0  0  0  0  0  0
    3.8750    6.7370   15.0520 H   0  0  0  0  0  0  0  0  0  0  0  0
  1  6  1  0  0  0  0
  2  3  1  0  0  0  0
  2  1  2  0  0  0  0
  3  4  2  0  0  0  0
  4  9  1  0  0  0  0
  4  5  1  0  0  0  0
  5 11  1  0  0  0  0
  6 10  1  0  0  0  0
  6  5  2  0  0  0  0
  7  2  1  0  0  0  0
  8  3  1  0  0  0  0
 11 19  2  0  0  0  0
 12 11  1  0  0  0  0
 12 13  1  0  0  0  0
 13 18  1  0  0  0  0
 14 13  2  0  0  0  0
 14 23  1  0  0  0  0
 15 14  1  0  0  0  0
 16 17  1  0  0  0  0
 16 15  2  0  0  0  0
 17 12  2  0  0  0  0
 18 22  1  0  0  0  0
 19 18  1  0  0  0  0
 20 15  1  0  0  0  0
 21 16  1  0  0  0  0
 23 28  1  0  0  0  0
 24 30  1  0  0  0  0
 24 23  1  0  0  0  0
 24 25  1  0  0  0  0
 25 26  1  0  0  0  0
 26 34  1  1  0  0  0
 26 27  1  0  0  0  0
 26 29  1  0  0  0  0
 27 35  1  0  0  0  0
 28 37  1  0  0  0  0
 28 38  1  0  0  0  0
 28 27  1  0  0  0  0
 31 24  1  0  0  0  0
 32 25  1  0  0  0  0
 33 25  1  0  0  0  0
 36 27  1  0  0  0  0
 39 40  1  6  0  0  0
 39  1  1  0  0  0  0
 39 41  1  0  0  0  0
 41 44  1  0  0  0  0
 41 43  1  0  0  0  0
 42 41  1  0  0  0  0
 45 46  1  0  0  0  0
 45 39  1  0  0  0  0
 47 45  1  0  0  0  0
 48 45  1  0  0  0  0
 49 48  2  0  0  0  0
 50 49  1  0  0  0  0
 51 50  2  0  0  0  0
 51 52  1  0  0  0  0
 52 54  1  0  0  0  0
 52 48  1  0  0  0  0
 53 51  1  0  0  0  0
 54 55  1  0  0  0  0
 56 54  1  0  0  0  0
 57 54  1  0  0  0  0
M  END
>  <MODEL>
6

>  <REMARK>
 VINA RESULT:    -8.137      1.940      2.895
 INTER + INTRA:         -11.354
 INTER:                 -10.589
 INTRA:                  -0.765
 UNBOUND:                -0.362
  Name = 
  7 active torsions:
  status: ('A' for Active; 'I' for Inactive)
    1  A    between atoms: C_1  and  C_2
    2  A    between atoms: C_2  and  C_3
    3  A    between atoms: C_2  and  C_10
    4  A    between atoms: C_3  and  C_4
    5  A    between atoms: N_8  and  C_9
    6  A    between atoms: C_14  and  C_16
    7  A    between atoms: C_19  and  N_23
                            x       y       z     vdW  Elec       q    Type
                         _______ _______ _______ _____ _____    ______ ____

>  <TORSDO>
F 7

$$$$
=
 OpenBabel07192307433D

 57 61  0  0  1  0  0  0  0  0999 V2000
    2.6610    6.4150   19.1010 C   0  0  0  0  0  0  0  0  0  0  0  0
    3.0650    6.8640   17.8370 C   0  0  0  0  0  0  0  0  0  0  0  0
    2.7600    8.1590   17.4180 C   0  0  0  0  0  0  0  0  0  0  0  0
    2.0390    9.0140   18.2540 C   0  0  0  0  0  0  0  0  0  0  0  0
    1.6100    8.5920   19.5200 C   0  0  0  0  0  0  0  0  0  0  0  0
    1.9340    7.2900   19.9310 C   0  0  0  0  0  0  0  0  0  0  0  0
    3.6210    6.2120   17.1670 H   0  0  0  0  0  0  0  0  0  0  0  0
    3.0810    8.5040   16.4390 H   0  0  0  0  0  0  0  0  0  0  0  0
    1.8110   10.0200   17.9060 H   0  0  0  0  0  0  0  0  0  0  0  0
    1.6280    6.9440   20.9150 H   0  0  0  0  0  0  0  0  0  0  0  0
    0.8430    9.5010   20.3850 C   0  0  0  0  0  0  0  0  0  0  0  0
   -0.2100   10.4100   20.0290 C   0  0  0  0  0  0  0  0  0  0  0  0
   -0.5940   11.0150   21.2150 C   0  0  0  0  0  0  0  0  0  0  0  0
   -1.6070   11.9690   21.2960 C   0  0  0  0  0  0  0  0  0  0  0  0
   -2.2090   12.2680   20.0710 C   0  0  0  0  0  0  0  0  0  0  0  0
   -1.7770   11.6320   18.9130 C   0  0  0  0  0  0  0  0  0  0  0  0
   -0.7940   10.7100   18.8370 N   0  0  0  0  0  0  0  0  0  0  0  0
    0.2140   10.4740   22.1680 N   0  0  0  0  0  0  0  0  0  0  0  0
    1.0930    9.5670   21.7100 N   0  0  0  0  0  0  0  0  0  0  0  0
   -3.0170   12.9900   20.0080 H   0  0  0  0  0  0  0  0  0  0  0  0
   -2.2470   11.8660   17.9610 H   0  0  0  0  0  0  0  0  0  0  0  0
    0.2060   10.6960   23.1580 H   0  0  0  0  0  0  0  0  0  0  0  0
   -1.9600   12.5390   22.5240 N   0  0  0  0  0  0  0  0  0  0  0  0
   -3.4190   12.5200   22.7390 C   0  0  0  0  0  0  0  0  0  0  0  0
   -3.7170   12.9380   24.1720 C   0  0  0  0  0  0  0  0  0  0  0  0
   -3.0930   14.2930   24.4690 C   0  0  2  0  0  0  0  0  0  0  0  0
   -1.6020   14.2990   24.1760 C   0  0  0  0  0  0  0  0  0  0  0  0
   -1.3450   13.8610   22.7410 C   0  0  0  0  0  0  0  0  0  0  0  0
   -3.2850   14.5860   25.7840 F   0  0  0  0  0  0  0  0  0  0  0  0
   -3.9270   13.1970   22.0390 H   0  0  0  0  0  0  0  0  0  0  0  0
   -3.8160   11.5100   22.5770 H   0  0  0  0  0  0  0  0  0  0  0  0
   -3.3200   12.1940   24.8760 H   0  0  0  0  0  0  0  0  0  0  0  0
   -4.7980   12.9780   24.3440 H   0  0  0  0  0  0  0  0  0  0  0  0
   -3.5960   15.0740   23.8870 H   0  0  0  0  0  0  0  0  0  0  0  0
   -1.1910   15.3010   24.3510 H   0  0  0  0  0  0  0  0  0  0  0  0
   -1.0900   13.6280   24.8770 H   0  0  0  0  0  0  0  0  0  0  0  0
   -1.7540   14.6070   22.0470 H   0  0  0  0  0  0  0  0  0  0  0  0
   -0.2610   13.8080   22.5770 H   0  0  0  0  0  0  0  0  0  0  0  0
    2.9520    5.0000   19.5810 C   0  0  2  0  0  0  0  0  0  0  0  0
    2.5370    4.3040   18.8380 H   0  0  0  0  0  0  0  0  0  0  0  0
    2.2390    4.6930   20.9030 C   0  0  0  0  0  0  0  0  0  0  0  0
    2.5900    5.3330   21.7190 H   0  0  0  0  0  0  0  0  0  0  0  0
    2.4040    3.6530   21.2040 H   0  0  0  0  0  0  0  0  0  0  0  0
    1.1570    4.8410   20.8060 H   0  0  0  0  0  0  0  0  0  0  0  0
    4.4750    4.7790   19.6740 C   0  0  0  0  0  0  0  0  0  0  0  0
    4.9680    5.6680   20.0880 H   0  0  0  0  0  0  0  0  0  0  0  0
    4.7000    3.9610   20.3720 H   0  0  0  0  0  0  0  0  0  0  0  0
    5.0780    4.4660   18.3480 C   0  0  0  0  0  0  0  0  0  0  0  0
    4.5560    3.7030   17.4090 N   0  0  0  0  0  0  0  0  0  0  0  0
    5.4250    3.6800   16.3430 N   0  0  0  0  0  0  0  0  0  0  0  0
    6.4580    4.4250   16.6560 C   0  0  0  0  0  0  0  0  0  0  0  0
    6.2860    4.9380   17.9040 N   0  0  0  0  0  0  0  0  0  0  0  0
    7.3210    4.6110   16.0330 H   0  0  0  0  0  0  0  0  0  0  0  0
    7.2000    5.8010   18.6020 C   0  0  0  0  0  0  0  0  0  0  0  0
    8.1440    5.2690   18.7390 H   0  0  0  0  0  0  0  0  0  0  0  0
    7.3690    6.7070   18.0150 H   0  0  0  0  0  0  0  0  0  0  0  0
    6.7650    6.0690   19.5690 H   0  0  0  0  0  0  0  0  0  0  0  0
  1 39  1  0  0  0  0
  1  6  1  0  0  0  0
  2  1  2  0  0  0  0
  3  2  1  0  0  0  0
  3  4  2  0  0  0  0
  4  5  1  0  0  0  0
  5  6  2  0  0  0  0
  5 11  1  0  0  0  0
  6 10  1  0  0  0  0
  7  2  1  0  0  0  0
  8  3  1  0  0  0  0
  9  4  1  0  0  0  0
 11 19  2  0  0  0  0
 12 11  1  0  0  0  0
 12 13  1  0  0  0  0
 13 14  2  0  0  0  0
 13 18  1  0  0  0  0
 14 23  1  0  0  0  0
 15 14  1  0  0  0  0
 16 15  2  0  0  0  0
 17 16  1  0  0  0  0
 17 12  2  0  0  0  0
 18 22  1  0  0  0  0
 19 18  1  0  0  0  0
 20 15  1  0  0  0  0
 21 16  1  0  0  0  0
 23 24  1  0  0  0  0
 23 28  1  0  0  0  0
 24 25  1  0  0  0  0
 25 33  1  0  0  0  0
 25 26  1  0  0  0  0
 25 32  1  0  0  0  0
 26 34  1  6  0  0  0
 26 29  1  0  0  0  0
 27 35  1  0  0  0  0
 27 26  1  0  0  0  0
 27 36  1  0  0  0  0
 28 27  1  0  0  0  0
 30 24  1  0  0  0  0
 31 24  1  0  0  0  0
 37 28  1  0  0  0  0
 38 28  1  0  0  0  0
 39 40  1  6  0  0  0
 39 45  1  0  0  0  0
 39 41  1  0  0  0  0
 41 43  1  0  0  0  0
 41 42  1  0  0  0  0
 44 41  1  0  0  0  0
 45 46  1  0  0  0  0
 45 47  1  0  0  0  0
 48 45  1  0  0  0  0
 49 48  2  0  0  0  0
 50 51  2  0  0  0  0
 50 49  1  0  0  0  0
 51 52  1  0  0  0  0
 52 48  1  0  0  0  0
 52 54  1  0  0  0  0
 53 51  1  0  0  0  0
 54 55  1  0  0  0  0
 54 57  1  0  0  0  0
 56 54  1  0  0  0  0
M  END
>  <MODEL>
7

>  <REMARK>
 VINA RESULT:    -8.081      3.104      4.709
 INTER + INTRA:         -11.277
 INTER:                 -10.655
 INTRA:                  -0.623
 UNBOUND:                -0.362
  Name = 
  7 active torsions:
  status: ('A' for Active; 'I' for Inactive)
    1  A    between atoms: C_1  and  C_2
    2  A    between atoms: C_2  and  C_3
    3  A    between atoms: C_2  and  C_10
    4  A    between atoms: C_3  and  C_4
    5  A    between atoms: N_8  and  C_9
    6  A    between atoms: C_14  and  C_16
    7  A    between atoms: C_19  and  N_23
                            x       y       z     vdW  Elec       q    Type
                         _______ _______ _______ _____ _____    ______ ____

>  <TORSDO>
F 7

$$$$
=
 OpenBabel07192307433D

 57 61  0  0  1  0  0  0  0  0999 V2000
   -0.8080   11.0900   20.2110 C   0  0  0  0  0  0  0  0  0  0  0  0
   -0.9960   10.7890   21.5660 C   0  0  0  0  0  0  0  0  0  0  0  0
   -0.2810    9.7520   22.1640 C   0  0  0  0  0  0  0  0  0  0  0  0
    0.6210    8.9980   21.4100 C   0  0  0  0  0  0  0  0  0  0  0  0
    0.8250    9.2660   20.0490 C   0  0  0  0  0  0  0  0  0  0  0  0
    0.1050   10.3200   19.4660 C   0  0  0  0  0  0  0  0  0  0  0  0
   -1.6990   11.3580   22.1690 H   0  0  0  0  0  0  0  0  0  0  0  0
   -0.4260    9.5270   23.2170 H   0  0  0  0  0  0  0  0  0  0  0  0
    1.1680    8.1930   21.8980 H   0  0  0  0  0  0  0  0  0  0  0  0
    0.2570   10.5590   18.4160 H   0  0  0  0  0  0  0  0  0  0  0  0
    1.7710    8.4570   19.2670 C   0  0  0  0  0  0  0  0  0  0  0  0
    2.2120    7.1100   19.4970 C   0  0  0  0  0  0  0  0  0  0  0  0
    3.0910    6.8250   18.4650 C   0  0  0  0  0  0  0  0  0  0  0  0
    3.7380    5.5990   18.3260 C   0  0  0  0  0  0  0  0  0  0  0  0
    3.4230    4.6710   19.3210 C   0  0  0  0  0  0  0  0  0  0  0  0
    2.5380    5.0150   20.3350 C   0  0  0  0  0  0  0  0  0  0  0  0
    1.9140    6.2050   20.4700 N   0  0  0  0  0  0  0  0  0  0  0  0
    3.1380    7.9610   17.7150 N   0  0  0  0  0  0  0  0  0  0  0  0
    2.3670    8.9640   18.1660 N   0  0  0  0  0  0  0  0  0  0  0  0
    3.8580    3.6770   19.3140 H   0  0  0  0  0  0  0  0  0  0  0  0
    2.2940    4.2920   21.1090 H   0  0  0  0  0  0  0  0  0  0  0  0
    3.6920    8.1040   16.8780 H   0  0  0  0  0  0  0  0  0  0  0  0
    4.6080    5.3640   17.2560 N   0  0  0  0  0  0  0  0  0  0  0  0
    4.4900    3.9850   16.7440 C   0  0  0  0  0  0  0  0  0  0  0  0
    5.2840    3.8640   15.4500 C   0  0  0  0  0  0  0  0  0  0  0  0
    6.7270    4.2900   15.6740 C   0  0  2  0  0  0  0  0  0  0  0  0
    6.8130    5.6890   16.2620 C   0  0  0  0  0  0  0  0  0  0  0  0
    5.9940    5.7740   17.5430 C   0  0  0  0  0  0  0  0  0  0  0  0
    7.3800    4.2730   14.4800 F   0  0  0  0  0  0  0  0  0  0  0  0
    4.8620    3.2610   17.4800 H   0  0  0  0  0  0  0  0  0  0  0  0
    3.4390    3.7440   16.5350 H   0  0  0  0  0  0  0  0  0  0  0  0
    4.8370    4.4930   14.6690 H   0  0  0  0  0  0  0  0  0  0  0  0
    5.2510    2.8360   15.0750 H   0  0  0  0  0  0  0  0  0  0  0  0
    7.2330    3.5720   16.3300 H   0  0  0  0  0  0  0  0  0  0  0  0
    7.8610    5.9480   16.4580 H   0  0  0  0  0  0  0  0  0  0  0  0
    6.4480    6.4160   15.5270 H   0  0  0  0  0  0  0  0  0  0  0  0
    6.4440    5.1340   18.3140 H   0  0  0  0  0  0  0  0  0  0  0  0
    6.0170    6.8080   17.9080 H   0  0  0  0  0  0  0  0  0  0  0  0
   -1.5910   12.1970   19.5190 C   0  0  2  0  0  0  0  0  0  0  0  0
   -1.9410   12.8930   20.2930 H   0  0  0  0  0  0  0  0  0  0  0  0
   -2.8490   11.6540   18.8300 C   0  0  0  0  0  0  0  0  0  0  0  0
   -3.7600   11.9010   19.3850 H   0  0  0  0  0  0  0  0  0  0  0  0
   -2.8040   10.5640   18.7350 H   0  0  0  0  0  0  0  0  0  0  0  0
   -2.9510   12.0700   17.8200 H   0  0  0  0  0  0  0  0  0  0  0  0
   -0.6740   12.9600   18.5420 C   0  0  0  0  0  0  0  0  0  0  0  0
   -0.1420   12.2580   17.8870 H   0  0  0  0  0  0  0  0  0  0  0  0
   -1.2700   13.5970   17.8760 H   0  0  0  0  0  0  0  0  0  0  0  0
    0.3260   13.8040   19.2560 C   0  0  0  0  0  0  0  0  0  0  0  0
    0.0700   14.7300   20.1570 N   0  0  0  0  0  0  0  0  0  0  0  0
    1.2660   15.2670   20.5720 N   0  0  0  0  0  0  0  0  0  0  0  0
    2.2240   14.6600   19.9130 C   0  0  0  0  0  0  0  0  0  0  0  0
    1.6830   13.7350   19.0750 N   0  0  0  0  0  0  0  0  0  0  0  0
    3.2830   14.8540   20.0070 H   0  0  0  0  0  0  0  0  0  0  0  0
    2.4060   12.8690   18.1850 C   0  0  0  0  0  0  0  0  0  0  0  0
    2.7160   13.4480   17.3120 H   0  0  0  0  0  0  0  0  0  0  0  0
    3.2870   12.4700   18.6950 H   0  0  0  0  0  0  0  0  0  0  0  0
    1.7530   12.0440   17.8860 H   0  0  0  0  0  0  0  0  0  0  0  0
  1  2  1  0  0  0  0
  2  3  2  0  0  0  0
  2  7  1  0  0  0  0
  3  8  1  0  0  0  0
  4  9  1  0  0  0  0
  4  3  1  0  0  0  0
  5  4  2  0  0  0  0
  6  5  1  0  0  0  0
  6  1  2  0  0  0  0
 10  6  1  0  0  0  0
 11 12  1  0  0  0  0
 11  5  1  0  0  0  0
 12 17  1  0  0  0  0
 13 12  2  0  0  0  0
 14 13  1  0  0  0  0
 14 15  2  0  0  0  0
 15 16  1  0  0  0  0
 16 17  2  0  0  0  0
 16 21  1  0  0  0  0
 18 19  1  0  0  0  0
 18 13  1  0  0  0  0
 19 11  2  0  0  0  0
 20 15  1  0  0  0  0
 22 18  1  0  0  0  0
 23 28  1  0  0  0  0
 23 14  1  0  0  0  0
 24 23  1  0  0  0  0
 24 30  1  0  0  0  0
 25 26  1  0  0  0  0
 25 24  1  0  0  0  0
 26 27  1  0  0  0  0
 26 34  1  1  0  0  0
 27 35  1  0  0  0  0
 27 28  1  0  0  0  0
 28 38  1  0  0  0  0
 28 37  1  0  0  0  0
 29 26  1  0  0  0  0
 31 24  1  0  0  0  0
 32 25  1  0  0  0  0
 33 25  1  0  0  0  0
 36 27  1  0  0  0  0
 39  1  1  0  0  0  0
 39 40  1  1  0  0  0
 41 42  1  0  0  0  0
 41 39  1  0  0  0  0
 43 41  1  0  0  0  0
 44 41  1  0  0  0  0
 45 48  1  0  0  0  0
 45 39  1  0  0  0  0
 46 45  1  0  0  0  0
 47 45  1  0  0  0  0
 48 49  2  0  0  0  0
 49 50  1  0  0  0  0
 51 53  1  0  0  0  0
 51 50  2  0  0  0  0
 52 48  1  0  0  0  0
 52 51  1  0  0  0  0
 54 56  1  0  0  0  0
 54 52  1  0  0  0  0
 55 54  1  0  0  0  0
 57 54  1  0  0  0  0
M  END
>  <MODEL>
8

>  <REMARK>
 VINA RESULT:    -8.020      3.278      9.380
 INTER + INTRA:         -11.196
 INTER:                 -10.230
 INTRA:                  -0.965
 UNBOUND:                -0.362
  Name = 
  7 active torsions:
  status: ('A' for Active; 'I' for Inactive)
    1  A    between atoms: C_1  and  C_2
    2  A    between atoms: C_2  and  C_3
    3  A    between atoms: C_2  and  C_10
    4  A    between atoms: C_3  and  C_4
    5  A    between atoms: N_8  and  C_9
    6  A    between atoms: C_14  and  C_16
    7  A    between atoms: C_19  and  N_23
                            x       y       z     vdW  Elec       q    Type
                         _______ _______ _______ _____ _____    ______ ____

>  <TORSDO>
F 7

$$$$
=
 OpenBabel07192307433D

 57 61  0  0  1  0  0  0  0  0999 V2000
    4.6270    5.0750   16.8550 C   0  0  0  0  0  0  0  0  0  0  0  0
    4.0510    3.9060   17.3670 C   0  0  0  0  0  0  0  0  0  0  0  0
    2.9150    3.9730   18.1730 C   0  0  0  0  0  0  0  0  0  0  0  0
    2.3490    5.2110   18.4830 C   0  0  0  0  0  0  0  0  0  0  0  0
    2.9070    6.4020   17.9960 C   0  0  0  0  0  0  0  0  0  0  0  0
    4.0440    6.3150   17.1770 C   0  0  0  0  0  0  0  0  0  0  0  0
    4.4800    2.9310   17.1450 H   0  0  0  0  0  0  0  0  0  0  0  0
    2.4690    3.0620   18.5630 H   0  0  0  0  0  0  0  0  0  0  0  0
    1.4630    5.2410   19.1150 H   0  0  0  0  0  0  0  0  0  0  0  0
    4.4860    7.2220   16.7730 H   0  0  0  0  0  0  0  0  0  0  0  0
    2.3050    7.6980   18.3390 C   0  0  0  0  0  0  0  0  0  0  0  0
    1.7480    8.1320   19.5890 C   0  0  0  0  0  0  0  0  0  0  0  0
    1.3300    9.4350   19.3780 C   0  0  0  0  0  0  0  0  0  0  0  0
    0.7340   10.2190   20.3640 C   0  0  0  0  0  0  0  0  0  0  0  0
    0.5910    9.5750   21.5960 C   0  0  0  0  0  0  0  0  0  0  0  0
    1.0240    8.2640   21.7470 C   0  0  0  0  0  0  0  0  0  0  0  0
    1.6000    7.5060   20.7890 N   0  0  0  0  0  0  0  0  0  0  0  0
    1.6320    9.6980   18.0760 N   0  0  0  0  0  0  0  0  0  0  0  0
    2.2110    8.6810   17.4180 N   0  0  0  0  0  0  0  0  0  0  0  0
    0.1480   10.0870   22.4440 H   0  0  0  0  0  0  0  0  0  0  0  0
    0.9130    7.7650   22.7060 H   0  0  0  0  0  0  0  0  0  0  0  0
    1.4570   10.5680   17.5840 H   0  0  0  0  0  0  0  0  0  0  0  0
    0.3410   11.5340   20.0950 N   0  0  0  0  0  0  0  0  0  0  0  0
   -0.7690   11.5890   19.1240 C   0  0  0  0  0  0  0  0  0  0  0  0
   -1.2970   13.0150   19.0510 C   0  0  0  0  0  0  0  0  0  0  0  0
   -0.1700   13.9800   18.7160 C   0  0  2  0  0  0  0  0  0  0  0  0
    0.9850   13.8540   19.6960 C   0  0  0  0  0  0  0  0  0  0  0  0
    1.4730   12.4130   19.7530 C   0  0  0  0  0  0  0  0  0  0  0  0
   -0.6520   15.2520   18.7640 F   0  0  0  0  0  0  0  0  0  0  0  0
   -0.4350   11.2630   18.1300 H   0  0  0  0  0  0  0  0  0  0  0  0
   -1.5860   10.9280   19.4390 H   0  0  0  0  0  0  0  0  0  0  0  0
   -1.7490   13.3030   20.0090 H   0  0  0  0  0  0  0  0  0  0  0  0
   -2.0910   13.0920   18.3000 H   0  0  0  0  0  0  0  0  0  0  0  0
    0.1820   13.8060   17.6920 H   0  0  0  0  0  0  0  0  0  0  0  0
    1.8010   14.5250   19.4000 H   0  0  0  0  0  0  0  0  0  0  0  0
    0.6570   14.1850   20.6890 H   0  0  0  0  0  0  0  0  0  0  0  0
    1.9140   12.1330   18.7870 H   0  0  0  0  0  0  0  0  0  0  0  0
    2.2580   12.3360   20.5160 H   0  0  0  0  0  0  0  0  0  0  0  0
    5.8820    5.0410   15.9950 C   0  0  2  0  0  0  0  0  0  0  0  0
    5.9260    5.9840   15.4310 H   0  0  0  0  0  0  0  0  0  0  0  0
    5.8220    3.9200   14.9510 C   0  0  0  0  0  0  0  0  0  0  0  0
    6.3920    4.1670   14.0480 H   0  0  0  0  0  0  0  0  0  0  0  0
    4.7890    3.7240   14.6460 H   0  0  0  0  0  0  0  0  0  0  0  0
    6.2300    2.9860   15.3560 H   0  0  0  0  0  0  0  0  0  0  0  0
    7.1330    4.9380   16.8900 C   0  0  0  0  0  0  0  0  0  0  0  0
    6.9480    4.2570   17.7310 H   0  0  0  0  0  0  0  0  0  0  0  0
    7.9690    4.5000   16.3300 H   0  0  0  0  0  0  0  0  0  0  0  0
    7.5470    6.2660   17.4270 C   0  0  0  0  0  0  0  0  0  0  0  0
    7.5730    7.4060   16.7680 N   0  0  0  0  0  0  0  0  0  0  0  0
    8.0090    8.3880   17.6260 N   0  0  0  0  0  0  0  0  0  0  0  0
    8.2430    7.8250   18.7870 C   0  0  0  0  0  0  0  0  0  0  0  0
    7.9690    6.4960   18.7110 N   0  0  0  0  0  0  0  0  0  0  0  0
    8.6000    8.3260   19.6760 H   0  0  0  0  0  0  0  0  0  0  0  0
    8.1020    5.5380   19.7750 C   0  0  0  0  0  0  0  0  0  0  0  0
    7.1260    5.4040   20.2470 H   0  0  0  0  0  0  0  0  0  0  0  0
    8.4480    4.5840   19.3680 H   0  0  0  0  0  0  0  0  0  0  0  0
    8.8320    5.9110   20.4980 H   0  0  0  0  0  0  0  0  0  0  0  0
  1  6  2  0  0  0  0
  1  2  1  0  0  0  0
  2  3  2  0  0  0  0
  3  4  1  0  0  0  0
  3  8  1  0  0  0  0
  4  9  1  0  0  0  0
  5 11  1  0  0  0  0
  5  4  2  0  0  0  0
  6  5  1  0  0  0  0
  7  2  1  0  0  0  0
 10  6  1  0  0  0  0
 11 12  1  0  0  0  0
 12 17  1  0  0  0  0
 13 12  2  0  0  0  0
 13 14  1  0  0  0  0
 14 15  2  0  0  0  0
 15 16  1  0  0  0  0
 15 20  1  0  0  0  0
 16 21  1  0  0  0  0
 17 16  2  0  0  0  0
 18 13  1  0  0  0  0
 19 18  1  0  0  0  0
 19 11  2  0  0  0  0
 22 18  1  0  0  0  0
 23 14  1  0  0  0  0
 24 31  1  0  0  0  0
 24 23  1  0  0  0  0
 25 24  1  0  0  0  0
 25 32  1  0  0  0  0
 26 34  1  6  0  0  0
 26 29  1  0  0  0  0
 26 25  1  0  0  0  0
 26 27  1  0  0  0  0
 27 28  1  0  0  0  0
 27 36  1  0  0  0  0
 28 23  1  0  0  0  0
 28 38  1  0  0  0  0
 30 24  1  0  0  0  0
 33 25  1  0  0  0  0
 35 27  1  0  0  0  0
 37 28  1  0  0  0  0
 39 40  1  6  0  0  0
 39  1  1  0  0  0  0
 39 45  1  0  0  0  0
 41 44  1  0  0  0  0
 41 39  1  0  0  0  0
 42 41  1  0  0  0  0
 43 41  1  0  0  0  0
 45 48  1  0  0  0  0
 45 46  1  0  0  0  0
 47 45  1  0  0  0  0
 48 52  1  0  0  0  0
 49 48  2  0  0  0  0
 49 50  1  0  0  0  0
 50 51  2  0  0  0  0
 51 53  1  0  0  0  0
 52 51  1  0  0  0  0
 52 54  1  0  0  0  0
 54 55  1  0  0  0  0
 54 57  1  0  0  0  0
 56 54  1  0  0  0  0
M  END
>  <MODEL>
9

>  <REMARK>
 VINA RESULT:    -8.020      1.963      3.032
 INTER + INTRA:         -11.195
 INTER:                 -10.584
 INTRA:                  -0.611
 UNBOUND:                -0.362
  Name = 
  7 active torsions:
  status: ('A' for Active; 'I' for Inactive)
    1  A    between atoms: C_1  and  C_2
    2  A    between atoms: C_2  and  C_3
    3  A    between atoms: C_2  and  C_10
    4  A    between atoms: C_3  and  C_4
    5  A    between atoms: N_8  and  C_9
    6  A    between atoms: C_14  and  C_16
    7  A    between atoms: C_19  and  N_23
                            x       y       z     vdW  Elec       q    Type
                         _______ _______ _______ _____ _____    ______ ____

>  <TORSDO>
F 7

$$$$
=
 OpenBabel07192307433D

 57 61  0  0  1  0  0  0  0  0999 V2000
   -0.6670   10.7370   20.7370 C   0  0  0  0  0  0  0  0  0  0  0  0
   -0.7440   10.3610   22.0840 C   0  0  0  0  0  0  0  0  0  0  0  0
    0.0460    9.3210   22.5730 C   0  0  0  0  0  0  0  0  0  0  0  0
    0.9130    8.6390   21.7170 C   0  0  0  0  0  0  0  0  0  0  0  0
    1.0070    8.9830   20.3610 C   0  0  0  0  0  0  0  0  0  0  0  0
    0.2130   10.0390   19.8880 C   0  0  0  0  0  0  0  0  0  0  0  0
   -1.4190   10.8740   22.7660 H   0  0  0  0  0  0  0  0  0  0  0  0
   -0.0130    9.0390   23.6200 H   0  0  0  0  0  0  0  0  0  0  0  0
    1.5200    7.8300   22.1200 H   0  0  0  0  0  0  0  0  0  0  0  0
    0.2780   10.3360   18.8450 H   0  0  0  0  0  0  0  0  0  0  0  0
    1.9180    8.2490   19.4710 C   0  0  0  0  0  0  0  0  0  0  0  0
    2.3690    6.8890   19.5630 C   0  0  0  0  0  0  0  0  0  0  0  0
    3.2020    6.6980   18.4730 C   0  0  0  0  0  0  0  0  0  0  0  0
    3.8420    5.4920   18.1990 C   0  0  0  0  0  0  0  0  0  0  0  0
    3.5720    4.4790   19.1230 C   0  0  0  0  0  0  0  0  0  0  0  0
    2.7320    4.7310   20.2000 C   0  0  0  0  0  0  0  0  0  0  0  0
    2.1150    5.9020   20.4650 N   0  0  0  0  0  0  0  0  0  0  0  0
    3.2150    7.8950   17.8230 N   0  0  0  0  0  0  0  0  0  0  0  0
    2.4640    8.8520   18.3930 N   0  0  0  0  0  0  0  0  0  0  0  0
    4.0070    3.4910   19.0100 H   0  0  0  0  0  0  0  0  0  0  0  0
    2.5230    3.9410   20.9180 H   0  0  0  0  0  0  0  0  0  0  0  0
    3.7310    8.1120   16.9770 H   0  0  0  0  0  0  0  0  0  0  0  0
    4.6640    5.3540   17.0750 N   0  0  0  0  0  0  0  0  0  0  0  0
    4.5990    3.9930   16.5100 C   0  0  0  0  0  0  0  0  0  0  0  0
    5.3260    3.9740   15.1720 C   0  0  0  0  0  0  0  0  0  0  0  0
    6.7520    4.4770   15.3380 C   0  0  2  0  0  0  0  0  0  0  0  0
    6.7880    5.8530   15.9820 C   0  0  0  0  0  0  0  0  0  0  0  0
    6.0380    5.8360   17.3070 C   0  0  0  0  0  0  0  0  0  0  0  0
    7.3380    4.5490   14.1120 F   0  0  0  0  0  0  0  0  0  0  0  0
    5.0530    3.2630   17.1930 H   0  0  0  0  0  0  0  0  0  0  0  0
    3.5550    3.6960   16.3460 H   0  0  0  0  0  0  0  0  0  0  0  0
    4.8010    4.6050   14.4440 H   0  0  0  0  0  0  0  0  0  0  0  0
    5.3340    2.9610   14.7540 H   0  0  0  0  0  0  0  0  0  0  0  0
    7.3350    3.7650   15.9340 H   0  0  0  0  0  0  0  0  0  0  0  0
    7.8280    6.1680   16.1340 H   0  0  0  0  0  0  0  0  0  0  0  0
    6.3410    6.5870   15.3000 H   0  0  0  0  0  0  0  0  0  0  0  0
    6.5660    5.1940   18.0240 H   0  0  0  0  0  0  0  0  0  0  0  0
    6.0200    6.8540   17.7160 H   0  0  0  0  0  0  0  0  0  0  0  0
   -1.5340   11.8480   20.1630 C   0  0  2  0  0  0  0  0  0  0  0  0
   -2.5270   11.4250   19.9570 H   0  0  0  0  0  0  0  0  0  0  0  0
   -0.9940   12.3490   18.8180 C   0  0  0  0  0  0  0  0  0  0  0  0
    0.0660   12.6200   18.8750 H   0  0  0  0  0  0  0  0  0  0  0  0
   -1.5440   13.2350   18.4810 H   0  0  0  0  0  0  0  0  0  0  0  0
   -1.1000   11.5810   18.0440 H   0  0  0  0  0  0  0  0  0  0  0  0
   -1.6820   12.9860   21.1920 C   0  0  0  0  0  0  0  0  0  0  0  0
   -1.2090   12.7080   22.1430 H   0  0  0  0  0  0  0  0  0  0  0  0
   -1.1540   13.8850   20.8470 H   0  0  0  0  0  0  0  0  0  0  0  0
   -3.1100   13.3290   21.4470 C   0  0  0  0  0  0  0  0  0  0  0  0
   -3.9170   13.9840   20.6370 N   0  0  0  0  0  0  0  0  0  0  0  0
   -5.1470   14.0830   21.2440 N   0  0  0  0  0  0  0  0  0  0  0  0
   -5.0630   13.4900   22.4110 C   0  0  0  0  0  0  0  0  0  0  0  0
   -3.8050   13.0020   22.5820 N   0  0  0  0  0  0  0  0  0  0  0  0
   -5.8590   13.3960   23.1360 H   0  0  0  0  0  0  0  0  0  0  0  0
   -3.3190   12.2910   23.7330 C   0  0  0  0  0  0  0  0  0  0  0  0
   -4.0260   12.4320   24.5540 H   0  0  0  0  0  0  0  0  0  0  0  0
   -3.2350   11.2260   23.4980 H   0  0  0  0  0  0  0  0  0  0  0  0
   -2.3340   12.6830   24.0020 H   0  0  0  0  0  0  0  0  0  0  0  0
  1  2  1  0  0  0  0
  2  3  2  0  0  0  0
  2  7  1  0  0  0  0
  3  8  1  0  0  0  0
  4  9  1  0  0  0  0
  4  3  1  0  0  0  0
  5  4  2  0  0  0  0
  6  5  1  0  0  0  0
  6  1  2  0  0  0  0
 10  6  1  0  0  0  0
 11 12  1  0  0  0  0
 11  5  1  0  0  0  0
 12 17  1  0  0  0  0
 13 12  2  0  0  0  0
 14 13  1  0  0  0  0
 14 15  2  0  0  0  0
 15 16  1  0  0  0  0
 16 17  2  0  0  0  0
 16 21  1  0  0  0  0
 18 19  1  0  0  0  0
 18 13  1  0  0  0  0
 19 11  2  0  0  0  0
 20 15  1  0  0  0  0
 22 18  1  0  0  0  0
 23 28  1  0  0  0  0
 23 14  1  0  0  0  0
 24 23  1  0  0  0  0
 24 30  1  0  0  0  0
 25 26  1  0  0  0  0
 25 24  1  0  0  0  0
 26 34  1  1  0  0  0
 26 27  1  0  0  0  0
 27 35  1  0  0  0  0
 27 28  1  0  0  0  0
 28 38  1  0  0  0  0
 28 37  1  0  0  0  0
 29 26  1  0  0  0  0
 31 24  1  0  0  0  0
 32 25  1  0  0  0  0
 33 25  1  0  0  0  0
 36 27  1  0  0  0  0
 39 40  1  6  0  0  0
 39  1  1  0  0  0  0
 39 45  1  0  0  0  0
 41 42  1  0  0  0  0
 41 39  1  0  0  0  0
 43 41  1  0  0  0  0
 44 41  1  0  0  0  0
 45 48  1  0  0  0  0
 45 46  1  0  0  0  0
 47 45  1  0  0  0  0
 48 52  1  0  0  0  0
 49 50  1  0  0  0  0
 49 48  2  0  0  0  0
 50 51  2  0  0  0  0
 51 52  1  0  0  0  0
 51 53  1  0  0  0  0
 52 54  1  0  0  0  0
 54 57  1  0  0  0  0
 54 55  1  0  0  0  0
 56 54  1  0  0  0  0
M  END
>  <MODEL>
10

>  <REMARK>
 VINA RESULT:    -7.959      3.724     10.478
 INTER + INTRA:         -11.113
 INTER:                 -10.286
 INTRA:                  -0.828
 UNBOUND:                -0.362
  Name = 
  7 active torsions:
  status: ('A' for Active; 'I' for Inactive)
    1  A    between atoms: C_1  and  C_2
    2  A    between atoms: C_2  and  C_3
    3  A    between atoms: C_2  and  C_10
    4  A    between atoms: C_3  and  C_4
    5  A    between atoms: N_8  and  C_9
    6  A    between atoms: C_14  and  C_16
    7  A    between atoms: C_19  and  N_23
                            x       y       z     vdW  Elec       q    Type
                         _______ _______ _______ _____ _____    ______ ____

>  <TORSDO>
F 7

$$$$
=
 OpenBabel07192307433D

 57 61  0  0  1  0  0  0  0  0999 V2000
   -0.4950   11.0630   20.7960 C   0  0  0  0  0  0  0  0  0  0  0  0
   -0.9360   10.4650   21.9840 C   0  0  0  0  0  0  0  0  0  0  0  0
   -0.4790    9.1990   22.3490 C   0  0  0  0  0  0  0  0  0  0  0  0
    0.4140    8.5120   21.5240 C   0  0  0  0  0  0  0  0  0  0  0  0
    0.8660    9.0770   20.3230 C   0  0  0  0  0  0  0  0  0  0  0  0
    0.4050   10.3560   19.9760 C   0  0  0  0  0  0  0  0  0  0  0  0
   -1.6380   10.9790   22.6380 H   0  0  0  0  0  0  0  0  0  0  0  0
   -0.8200    8.7440   23.2750 H   0  0  0  0  0  0  0  0  0  0  0  0
    0.7560    7.5250   21.8290 H   0  0  0  0  0  0  0  0  0  0  0  0
    0.7530   10.8230   19.0590 H   0  0  0  0  0  0  0  0  0  0  0  0
    1.7990    8.3370   19.4610 C   0  0  0  0  0  0  0  0  0  0  0  0
    2.2700    6.9870   19.5910 C   0  0  0  0  0  0  0  0  0  0  0  0
    3.1190    6.7850   18.5150 C   0  0  0  0  0  0  0  0  0  0  0  0
    3.7820    5.5820   18.2770 C   0  0  0  0  0  0  0  0  0  0  0  0
    3.5180    4.5880   19.2220 C   0  0  0  0  0  0  0  0  0  0  0  0
    2.6620    4.8510   20.2840 C   0  0  0  0  0  0  0  0  0  0  0  0
    2.0230    6.0180   20.5140 N   0  0  0  0  0  0  0  0  0  0  0  0
    3.1210    7.9650   17.8370 N   0  0  0  0  0  0  0  0  0  0  0  0
    2.3480    8.9230   18.3750 N   0  0  0  0  0  0  0  0  0  0  0  0
    3.9700    3.6050   19.1370 H   0  0  0  0  0  0  0  0  0  0  0  0
    2.4570    4.0760   21.0180 H   0  0  0  0  0  0  0  0  0  0  0  0
    3.6430    8.1710   16.9920 H   0  0  0  0  0  0  0  0  0  0  0  0
    4.6190    5.4320   17.1660 N   0  0  0  0  0  0  0  0  0  0  0  0
    4.5350    4.0740   16.5940 C   0  0  0  0  0  0  0  0  0  0  0  0
    5.2830    4.0440   15.2690 C   0  0  0  0  0  0  0  0  0  0  0  0
    6.7160    4.5170   15.4590 C   0  0  2  0  0  0  0  0  0  0  0  0
    6.7710    5.8910   16.1090 C   0  0  0  0  0  0  0  0  0  0  0  0
    5.9980    5.8840   17.4210 C   0  0  0  0  0  0  0  0  0  0  0  0
    7.3230    4.5820   14.2430 F   0  0  0  0  0  0  0  0  0  0  0  0
    4.9630    3.3330   17.2820 H   0  0  0  0  0  0  0  0  0  0  0  0
    3.4880    3.8000   16.4130 H   0  0  0  0  0  0  0  0  0  0  0  0
    4.7830    4.6890   14.5340 H   0  0  0  0  0  0  0  0  0  0  0  0
    5.2760    3.0330   14.8470 H   0  0  0  0  0  0  0  0  0  0  0  0
    7.2750    3.7920   16.0620 H   0  0  0  0  0  0  0  0  0  0  0  0
    7.8140    6.1830   16.2790 H   0  0  0  0  0  0  0  0  0  0  0  0
    6.3490    6.6350   15.4220 H   0  0  0  0  0  0  0  0  0  0  0  0
    6.5020    5.2290   18.1440 H   0  0  0  0  0  0  0  0  0  0  0  0
    5.9950    6.9000   17.8340 H   0  0  0  0  0  0  0  0  0  0  0  0
   -0.9930   12.4310   20.3530 C   0  0  2  0  0  0  0  0  0  0  0  0
   -0.1830   13.1530   20.5270 H   0  0  0  0  0  0  0  0  0  0  0  0
   -2.1780   12.9040   21.2030 C   0  0  0  0  0  0  0  0  0  0  0  0
   -3.0740   13.0790   20.5980 H   0  0  0  0  0  0  0  0  0  0  0  0
   -1.9400   13.8400   21.7200 H   0  0  0  0  0  0  0  0  0  0  0  0
   -2.4330   12.1600   21.9670 H   0  0  0  0  0  0  0  0  0  0  0  0
   -1.3260   12.4090   18.8480 C   0  0  0  0  0  0  0  0  0  0  0  0
   -1.3470   13.4290   18.4450 H   0  0  0  0  0  0  0  0  0  0  0  0
   -0.5390   11.8840   18.2900 H   0  0  0  0  0  0  0  0  0  0  0  0
   -2.6370   11.7550   18.5740 C   0  0  0  0  0  0  0  0  0  0  0  0
   -3.8150   12.1440   19.0150 N   0  0  0  0  0  0  0  0  0  0  0  0
   -4.7640   11.2750   18.5300 N   0  0  0  0  0  0  0  0  0  0  0  0
   -4.1430   10.3720   17.8090 C   0  0  0  0  0  0  0  0  0  0  0  0
   -2.8080   10.6320   17.8070 N   0  0  0  0  0  0  0  0  0  0  0  0
   -4.6050    9.5440   17.2900 H   0  0  0  0  0  0  0  0  0  0  0  0
   -1.7940    9.8690   17.1320 C   0  0  0  0  0  0  0  0  0  0  0  0
   -0.8470   10.4080   17.2040 H   0  0  0  0  0  0  0  0  0  0  0  0
   -1.6970    8.8880   17.6060 H   0  0  0  0  0  0  0  0  0  0  0  0
   -2.0860    9.7410   16.0860 H   0  0  0  0  0  0  0  0  0  0  0  0
  1  2  1  0  0  0  0
  2  3  2  0  0  0  0
  2  7  1  0  0  0  0
  3  8  1  0  0  0  0
  4  9  1  0  0  0  0
  4  3  1  0  0  0  0
  5  4  2  0  0  0  0
  6  5  1  0  0  0  0
  6  1  2  0  0  0  0
 10  6  1  0  0  0  0
 11 12  1  0  0  0  0
 11  5  1  0  0  0  0
 12 17  1  0  0  0  0
 13 12  2  0  0  0  0
 14 13  1  0  0  0  0
 14 15  2  0  0  0  0
 15 16  1  0  0  0  0
 16 17  2  0  0  0  0
 16 21  1  0  0  0  0
 18 19  1  0  0  0  0
 18 13  1  0  0  0  0
 19 11  2  0  0  0  0
 20 15  1  0  0  0  0
 22 18  1  0  0  0  0
 23 28  1  0  0  0  0
 23 14  1  0  0  0  0
 24 23  1  0  0  0  0
 24 30  1  0  0  0  0
 25 26  1  0  0  0  0
 25 24  1  0  0  0  0
 26 34  1  1  0  0  0
 26 27  1  0  0  0  0
 27 35  1  0  0  0  0
 27 28  1  0  0  0  0
 28 38  1  0  0  0  0
 28 37  1  0  0  0  0
 29 26  1  0  0  0  0
 31 24  1  0  0  0  0
 32 25  1  0  0  0  0
 33 25  1  0  0  0  0
 36 27  1  0  0  0  0
 39 40  1  1  0  0  0
 39  1  1  0  0  0  0
 39 41  1  0  0  0  0
 41 43  1  0  0  0  0
 41 44  1  0  0  0  0
 42 41  1  0  0  0  0
 45 39  1  0  0  0  0
 46 45  1  0  0  0  0
 47 45  1  0  0  0  0
 48 45  1  0  0  0  0
 48 49  2  0  0  0  0
 50 49  1  0  0  0  0
 51 50  2  0  0  0  0
 52 51  1  0  0  0  0
 52 48  1  0  0  0  0
 53 51  1  0  0  0  0
 54 55  1  0  0  0  0
 54 56  1  0  0  0  0
 54 52  1  0  0  0  0
 57 54  1  0  0  0  0
M  END
>  <MODEL>
11

>  <REMARK>
 VINA RESULT:    -7.868      3.354      9.415
 INTER + INTRA:         -10.990
 INTER:                 -10.668
 INTRA:                  -0.322
 UNBOUND:                -0.362
  Name = 
  7 active torsions:
  status: ('A' for Active; 'I' for Inactive)
    1  A    between atoms: C_1  and  C_2
    2  A    between atoms: C_2  and  C_3
    3  A    between atoms: C_2  and  C_10
    4  A    between atoms: C_3  and  C_4
    5  A    between atoms: N_8  and  C_9
    6  A    between atoms: C_14  and  C_16
    7  A    between atoms: C_19  and  N_23
                            x       y       z     vdW  Elec       q    Type
                         _______ _______ _______ _____ _____    ______ ____

>  <TORSDO>
F 7

$$$$
=
 OpenBabel07192307433D

 57 61  0  0  1  0  0  0  0  0999 V2000
   -0.7010   11.2110   20.7440 C   0  0  0  0  0  0  0  0  0  0  0  0
   -0.8620   11.3280   22.1300 C   0  0  0  0  0  0  0  0  0  0  0  0
   -0.3710   10.3400   22.9840 C   0  0  0  0  0  0  0  0  0  0  0  0
    0.2770    9.2200   22.4590 C   0  0  0  0  0  0  0  0  0  0  0  0
    0.4450    9.0670   21.0760 C   0  0  0  0  0  0  0  0  0  0  0  0
   -0.0450   10.0750   20.2320 C   0  0  0  0  0  0  0  0  0  0  0  0
   -1.3710   12.1880   22.5600 H   0  0  0  0  0  0  0  0  0  0  0  0
   -0.4940   10.4390   24.0590 H   0  0  0  0  0  0  0  0  0  0  0  0
    0.6510    8.4610   23.1440 H   0  0  0  0  0  0  0  0  0  0  0  0
    0.0870    9.9880   19.1560 H   0  0  0  0  0  0  0  0  0  0  0  0
    1.1210    7.8770   20.5380 C   0  0  0  0  0  0  0  0  0  0  0  0
    1.9620    7.7630   19.3800 C   0  0  0  0  0  0  0  0  0  0  0  0
    2.3460    6.4330   19.3290 C   0  0  0  0  0  0  0  0  0  0  0  0
    3.1810    5.9130   18.3420 C   0  0  0  0  0  0  0  0  0  0  0  0
    3.6030    6.8530   17.3980 C   0  0  0  0  0  0  0  0  0  0  0  0
    3.1810    8.1730   17.4980 C   0  0  0  0  0  0  0  0  0  0  0  0
    2.3690    8.6730   18.4540 N   0  0  0  0  0  0  0  0  0  0  0  0
    1.7380    5.8470   20.3970 N   0  0  0  0  0  0  0  0  0  0  0  0
    0.9900    6.6760   21.1430 N   0  0  0  0  0  0  0  0  0  0  0  0
    4.2640    6.5690   16.5860 H   0  0  0  0  0  0  0  0  0  0  0  0
    3.5110    8.9030   16.7620 H   0  0  0  0  0  0  0  0  0  0  0  0
    1.8010    4.8690   20.6610 H   0  0  0  0  0  0  0  0  0  0  0  0
    3.5440    4.5620   18.3470 N   0  0  0  0  0  0  0  0  0  0  0  0
    2.5150    3.7140   17.7160 C   0  0  0  0  0  0  0  0  0  0  0  0
    3.0660    2.3040   17.5470 C   0  0  0  0  0  0  0  0  0  0  0  0
    3.5420    1.7590   18.8850 C   0  0  2  0  0  0  0  0  0  0  0  0
    4.5520    2.6870   19.5400 C   0  0  0  0  0  0  0  0  0  0  0  0
    3.9710    4.0880   19.6750 C   0  0  0  0  0  0  0  0  0  0  0  0
    4.1250    0.5470   18.6830 F   0  0  0  0  0  0  0  0  0  0  0  0
    1.6020    3.6880   18.3240 H   0  0  0  0  0  0  0  0  0  0  0  0
    2.2490    4.1080   16.7260 H   0  0  0  0  0  0  0  0  0  0  0  0
    3.9030    2.3050   16.8370 H   0  0  0  0  0  0  0  0  0  0  0  0
    2.3030    1.6420   17.1240 H   0  0  0  0  0  0  0  0  0  0  0  0
    2.6870    1.6000   19.5520 H   0  0  0  0  0  0  0  0  0  0  0  0
    4.8390    2.2940   20.5230 H   0  0  0  0  0  0  0  0  0  0  0  0
    5.4690    2.7110   18.9380 H   0  0  0  0  0  0  0  0  0  0  0  0
    3.1300    4.0740   20.3800 H   0  0  0  0  0  0  0  0  0  0  0  0
    4.7430    4.7520   20.0860 H   0  0  0  0  0  0  0  0  0  0  0  0
   -1.2470   12.2550   19.7810 C   0  0  2  0  0  0  0  0  0  0  0  0
   -0.6130   12.2460   18.8830 H   0  0  0  0  0  0  0  0  0  0  0  0
   -1.1450   13.6700   20.3640 C   0  0  0  0  0  0  0  0  0  0  0  0
   -0.7230   14.3810   19.6450 H   0  0  0  0  0  0  0  0  0  0  0  0
   -0.5060   13.6810   21.2540 H   0  0  0  0  0  0  0  0  0  0  0  0
   -2.1320   14.0430   20.6600 H   0  0  0  0  0  0  0  0  0  0  0  0
   -2.6900   11.8950   19.3750 C   0  0  0  0  0  0  0  0  0  0  0  0
   -3.1160   11.1660   20.0770 H   0  0  0  0  0  0  0  0  0  0  0  0
   -3.3370   12.7800   19.4360 H   0  0  0  0  0  0  0  0  0  0  0  0
   -2.7600   11.3340   17.9960 C   0  0  0  0  0  0  0  0  0  0  0  0
   -1.7910   10.7190   17.3490 N   0  0  0  0  0  0  0  0  0  0  0  0
   -2.2670   10.3530   16.1110 N   0  0  0  0  0  0  0  0  0  0  0  0
   -3.5120   10.7560   16.0290 C   0  0  0  0  0  0  0  0  0  0  0  0
   -3.8650   11.3770   17.1870 N   0  0  0  0  0  0  0  0  0  0  0  0
   -4.1690   10.6250   15.1810 H   0  0  0  0  0  0  0  0  0  0  0  0
   -5.1470   11.9570   17.4840 C   0  0  0  0  0  0  0  0  0  0  0  0
   -5.2760   11.9790   18.5680 H   0  0  0  0  0  0  0  0  0  0  0  0
   -5.1890   12.9750   17.0870 H   0  0  0  0  0  0  0  0  0  0  0  0
   -5.9270   11.3510   17.0150 H   0  0  0  0  0  0  0  0  0  0  0  0
  1  2  1  0  0  0  0
  2  7  1  0  0  0  0
  2  3  2  0  0  0  0
  3  8  1  0  0  0  0
  4  3  1  0  0  0  0
  4  9  1  0  0  0  0
  5  4  2  0  0  0  0
  6  1  2  0  0  0  0
  6  5  1  0  0  0  0
 10  6  1  0  0  0  0
 11  5  1  0  0  0  0
 11 19  2  0  0  0  0
 12 11  1  0  0  0  0
 13 12  1  0  0  0  0
 13 18  1  0  0  0  0
 14 23  1  0  0  0  0
 14 13  2  0  0  0  0
 15 16  2  0  0  0  0
 15 14  1  0  0  0  0
 16 17  1  0  0  0  0
 17 12  2  0  0  0  0
 18 22  1  0  0  0  0
 18 19  1  0  0  0  0
 20 15  1  0  0  0  0
 21 16  1  0  0  0  0
 23 28  1  0  0  0  0
 24 30  1  0  0  0  0
 24 23  1  0  0  0  0
 25 24  1  0  0  0  0
 25 26  1  0  0  0  0
 26 27  1  0  0  0  0
 26 34  1  1  0  0  0
 27 28  1  0  0  0  0
 27 35  1  0  0  0  0
 28 38  1  0  0  0  0
 28 37  1  0  0  0  0
 29 26  1  0  0  0  0
 31 24  1  0  0  0  0
 32 25  1  0  0  0  0
 33 25  1  0  0  0  0
 36 27  1  0  0  0  0
 39 40  1  6  0  0  0
 39 41  1  0  0  0  0
 39  1  1  0  0  0  0
 41 44  1  0  0  0  0
 41 43  1  0  0  0  0
 42 41  1  0  0  0  0
 45 47  1  0  0  0  0
 45 39  1  0  0  0  0
 45 46  1  0  0  0  0
 48 45  1  0  0  0  0
 49 48  2  0  0  0  0
 50 49  1  0  0  0  0
 51 50  2  0  0  0  0
 51 52  1  0  0  0  0
 52 54  1  0  0  0  0
 52 48  1  0  0  0  0
 53 51  1  0  0  0  0
 54 55  1  0  0  0  0
 56 54  1  0  0  0  0
 57 54  1  0  0  0  0
M  END
>  <MODEL>
12

>  <REMARK>
 VINA RESULT:    -7.778      4.232      9.604
 INTER + INTRA:         -10.868
 INTER:                 -10.415
 INTRA:                  -0.453
 UNBOUND:                -0.362
  Name = 
  7 active torsions:
  status: ('A' for Active; 'I' for Inactive)
    1  A    between atoms: C_1  and  C_2
    2  A    between atoms: C_2  and  C_3
    3  A    between atoms: C_2  and  C_10
    4  A    between atoms: C_3  and  C_4
    5  A    between atoms: N_8  and  C_9
    6  A    between atoms: C_14  and  C_16
    7  A    between atoms: C_19  and  N_23
                            x       y       z     vdW  Elec       q    Type
                         _______ _______ _______ _____ _____    ______ ____

>  <TORSDO>
F 7

$$$$
=
 OpenBabel07192307433D

 57 61  0  0  1  0  0  0  0  0999 V2000
    3.2920    5.7770   18.8750 C   0  0  0  0  0  0  0  0  0  0  0  0
    2.7470    4.5750   19.3470 C   0  0  0  0  0  0  0  0  0  0  0  0
    1.7160    4.5890   20.2860 C   0  0  0  0  0  0  0  0  0  0  0  0
    1.2270    5.8030   20.7720 C   0  0  0  0  0  0  0  0  0  0  0  0
    1.7580    7.0230   20.3290 C   0  0  0  0  0  0  0  0  0  0  0  0
    2.7870    6.9920   19.3760 C   0  0  0  0  0  0  0  0  0  0  0  0
    3.1180    3.6180   18.9880 H   0  0  0  0  0  0  0  0  0  0  0  0
    1.2930    3.6540   20.6430 H   0  0  0  0  0  0  0  0  0  0  0  0
    0.4230    5.7900   21.5050 H   0  0  0  0  0  0  0  0  0  0  0  0
    3.2040    7.9240   19.0040 H   0  0  0  0  0  0  0  0  0  0  0  0
    1.2390    8.2930   20.8570 C   0  0  0  0  0  0  0  0  0  0  0  0
    0.7250    9.4260   20.1400 C   0  0  0  0  0  0  0  0  0  0  0  0
    0.3620   10.3460   21.1100 C   0  0  0  0  0  0  0  0  0  0  0  0
   -0.1920   11.5910   20.8160 C   0  0  0  0  0  0  0  0  0  0  0  0
   -0.3530   11.8370   19.4500 C   0  0  0  0  0  0  0  0  0  0  0  0
    0.0360   10.8780   18.5230 C   0  0  0  0  0  0  0  0  0  0  0  0
    0.5750    9.6730   18.8100 N   0  0  0  0  0  0  0  0  0  0  0  0
    0.6700    9.7530   22.2960 N   0  0  0  0  0  0  0  0  0  0  0  0
    1.2040    8.5250   22.1870 N   0  0  0  0  0  0  0  0  0  0  0  0
   -0.7820   12.7690   19.0990 H   0  0  0  0  0  0  0  0  0  0  0  0
   -0.0900   11.0710   17.4610 H   0  0  0  0  0  0  0  0  0  0  0  0
    0.5370   10.1520   23.2190 H   0  0  0  0  0  0  0  0  0  0  0  0
   -0.5510   12.4760   21.8390 N   0  0  0  0  0  0  0  0  0  0  0  0
   -1.9630   12.3160   22.2340 C   0  0  0  0  0  0  0  0  0  0  0  0
   -2.2250   13.1340   23.4910 C   0  0  0  0  0  0  0  0  0  0  0  0
   -1.8350   14.5870   23.2660 C   0  0  2  0  0  0  0  0  0  0  0  0
   -0.3950   14.7150   22.7970 C   0  0  0  0  0  0  0  0  0  0  0  0
   -0.1700   13.8700   21.5510 C   0  0  0  0  0  0  0  0  0  0  0  0
   -1.9790   15.2670   24.4360 F   0  0  0  0  0  0  0  0  0  0  0  0
   -2.6340   12.6410   21.4290 H   0  0  0  0  0  0  0  0  0  0  0  0
   -2.1820   11.2620   22.4500 H   0  0  0  0  0  0  0  0  0  0  0  0
   -1.6500   12.7310   24.3350 H   0  0  0  0  0  0  0  0  0  0  0  0
   -3.2800   13.0700   23.7780 H   0  0  0  0  0  0  0  0  0  0  0  0
   -2.5120   15.0500   22.5380 H   0  0  0  0  0  0  0  0  0  0  0  0
   -0.1590   15.7670   22.5960 H   0  0  0  0  0  0  0  0  0  0  0  0
    0.2800   14.3960   23.6010 H   0  0  0  0  0  0  0  0  0  0  0  0
   -0.7560   14.2760   20.7160 H   0  0  0  0  0  0  0  0  0  0  0  0
    0.8910   13.9250   21.2740 H   0  0  0  0  0  0  0  0  0  0  0  0
    4.4350    5.8000   17.8710 C   0  0  2  0  0  0  0  0  0  0  0  0
    5.3720    5.9140   18.4350 H   0  0  0  0  0  0  0  0  0  0  0  0
    4.3450    7.0140   16.9400 C   0  0  0  0  0  0  0  0  0  0  0  0
    3.4660    6.9690   16.2880 H   0  0  0  0  0  0  0  0  0  0  0  0
    5.2300    7.0810   16.2970 H   0  0  0  0  0  0  0  0  0  0  0  0
    4.2850    7.9450   17.5160 H   0  0  0  0  0  0  0  0  0  0  0  0
    4.4810    4.4700   17.0930 C   0  0  0  0  0  0  0  0  0  0  0  0
    4.7220    3.6380   17.7680 H   0  0  0  0  0  0  0  0  0  0  0  0
    3.4930    4.2380   16.6750 H   0  0  0  0  0  0  0  0  0  0  0  0
    5.4820    4.5010   15.9900 C   0  0  0  0  0  0  0  0  0  0  0  0
    5.2290    4.4530   14.6980 N   0  0  0  0  0  0  0  0  0  0  0  0
    6.4250    4.5130   14.0230 N   0  0  0  0  0  0  0  0  0  0  0  0
    7.3820    4.5920   14.9170 C   0  0  0  0  0  0  0  0  0  0  0  0
    6.8390    4.5870   16.1640 N   0  0  0  0  0  0  0  0  0  0  0  0
    8.4420    4.6510   14.7110 H   0  0  0  0  0  0  0  0  0  0  0  0
    7.5610    4.6570   17.4050 C   0  0  0  0  0  0  0  0  0  0  0  0
    8.5040    5.1790   17.2300 H   0  0  0  0  0  0  0  0  0  0  0  0
    6.9690    5.2060   18.1430 H   0  0  0  0  0  0  0  0  0  0  0  0
    7.7440    3.6420   17.7670 H   0  0  0  0  0  0  0  0  0  0  0  0
  1  2  2  0  0  0  0
  1  6  1  0  0  0  0
  2  3  1  0  0  0  0
  3  8  1  0  0  0  0
  3  4  2  0  0  0  0
  4  9  1  0  0  0  0
  5  4  1  0  0  0  0
  5 11  1  0  0  0  0
  6  5  2  0  0  0  0
  7  2  1  0  0  0  0
 10  6  1  0  0  0  0
 11 19  2  0  0  0  0
 12 11  1  0  0  0  0
 12 13  1  0  0  0  0
 13 18  1  0  0  0  0
 14 13  2  0  0  0  0
 14 23  1  0  0  0  0
 15 14  1  0  0  0  0
 16 17  1  0  0  0  0
 16 15  2  0  0  0  0
 17 12  2  0  0  0  0
 18 22  1  0  0  0  0
 19 18  1  0  0  0  0
 20 15  1  0  0  0  0
 21 16  1  0  0  0  0
 23 24  1  0  0  0  0
 24 31  1  0  0  0  0
 24 25  1  0  0  0  0
 25 33  1  0  0  0  0
 25 32  1  0  0  0  0
 26 34  1  6  0  0  0
 26 25  1  0  0  0  0
 26 29  1  0  0  0  0
 27 26  1  0  0  0  0
 27 36  1  0  0  0  0
 28 23  1  0  0  0  0
 28 27  1  0  0  0  0
 30 24  1  0  0  0  0
 35 27  1  0  0  0  0
 37 28  1  0  0  0  0
 38 28  1  0  0  0  0
 39 40  1  1  0  0  0
 39  1  1  0  0  0  0
 41 44  1  0  0  0  0
 41 39  1  0  0  0  0
 42 41  1  0  0  0  0
 43 41  1  0  0  0  0
 45 46  1  0  0  0  0
 45 39  1  0  0  0  0
 47 45  1  0  0  0  0
 48 52  1  0  0  0  0
 48 45  1  0  0  0  0
 49 48  2  0  0  0  0
 50 49  1  0  0  0  0
 50 51  2  0  0  0  0
 51 52  1  0  0  0  0
 52 54  1  0  0  0  0
 53 51  1  0  0  0  0
 54 57  1  0  0  0  0
 54 56  1  0  0  0  0
 55 54  1  0  0  0  0
M  END
>  <MODEL>
13

>  <REMARK>
 VINA RESULT:    -7.774      2.255      3.450
 INTER + INTRA:         -10.863
 INTER:                 -10.041
 INTRA:                  -0.822
 UNBOUND:                -0.362
  Name = 
  7 active torsions:
  status: ('A' for Active; 'I' for Inactive)
    1  A    between atoms: C_1  and  C_2
    2  A    between atoms: C_2  and  C_3
    3  A    between atoms: C_2  and  C_10
    4  A    between atoms: C_3  and  C_4
    5  A    between atoms: N_8  and  C_9
    6  A    between atoms: C_14  and  C_16
    7  A    between atoms: C_19  and  N_23
                            x       y       z     vdW  Elec       q    Type
                         _______ _______ _______ _____ _____    ______ ____

>  <TORSDO>
F 7

$$$$
=
 OpenBabel07192307433D

 57 61  0  0  1  0  0  0  0  0999 V2000
    2.7090    6.9140   19.3350 C   0  0  0  0  0  0  0  0  0  0  0  0
    2.8310    7.1810   17.9650 C   0  0  0  0  0  0  0  0  0  0  0  0
    2.2350    8.3130   17.4110 C   0  0  0  0  0  0  0  0  0  0  0  0
    1.5010    9.1840   18.2180 C   0  0  0  0  0  0  0  0  0  0  0  0
    1.3490    8.9400   19.5910 C   0  0  0  0  0  0  0  0  0  0  0  0
    1.9650    7.8020   20.1340 C   0  0  0  0  0  0  0  0  0  0  0  0
    3.3920    6.5120   17.3160 H   0  0  0  0  0  0  0  0  0  0  0  0
    2.3390    8.5190   16.3490 H   0  0  0  0  0  0  0  0  0  0  0  0
    1.0430   10.0610   17.7640 H   0  0  0  0  0  0  0  0  0  0  0  0
    1.8770    7.5990   21.1980 H   0  0  0  0  0  0  0  0  0  0  0  0
    0.5650    9.8620   20.4260 C   0  0  0  0  0  0  0  0  0  0  0  0
   -0.5370   10.7030   20.0520 C   0  0  0  0  0  0  0  0  0  0  0  0
   -0.9160   11.3560   21.2130 C   0  0  0  0  0  0  0  0  0  0  0  0
   -1.9690   12.2680   21.2710 C   0  0  0  0  0  0  0  0  0  0  0  0
   -2.6150   12.4710   20.0490 C   0  0  0  0  0  0  0  0  0  0  0  0
   -2.1860   11.7920   18.9160 C   0  0  0  0  0  0  0  0  0  0  0  0
   -1.1650   10.9110   18.8620 N   0  0  0  0  0  0  0  0  0  0  0  0
   -0.0610   10.9040   22.1710 N   0  0  0  0  0  0  0  0  0  0  0  0
    0.8460   10.0130   21.7380 N   0  0  0  0  0  0  0  0  0  0  0  0
   -3.4560   13.1530   19.9700 H   0  0  0  0  0  0  0  0  0  0  0  0
   -2.6910   11.9510   17.9660 H   0  0  0  0  0  0  0  0  0  0  0  0
   -0.0530   11.1810   23.1470 H   0  0  0  0  0  0  0  0  0  0  0  0
   -2.3150   12.8900   22.4750 N   0  0  0  0  0  0  0  0  0  0  0  0
   -3.7750   13.0490   22.6110 C   0  0  0  0  0  0  0  0  0  0  0  0
   -4.0960   13.5150   24.0250 C   0  0  0  0  0  0  0  0  0  0  0  0
   -3.3290   14.7880   24.3490 C   0  0  2  0  0  0  0  0  0  0  0  0
   -1.8350   14.6110   24.1370 C   0  0  0  0  0  0  0  0  0  0  0  0
   -1.5570   14.1300   22.7200 C   0  0  0  0  0  0  0  0  0  0  0  0
   -3.5530   15.1170   25.6500 F   0  0  0  0  0  0  0  0  0  0  0  0
   -4.1590   13.7750   21.8830 H   0  0  0  0  0  0  0  0  0  0  0  0
   -4.2820   12.0920   22.4330 H   0  0  0  0  0  0  0  0  0  0  0  0
   -3.8300   12.7360   24.7520 H   0  0  0  0  0  0  0  0  0  0  0  0
   -5.1720   13.6870   24.1370 H   0  0  0  0  0  0  0  0  0  0  0  0
   -3.7020   15.6180   23.7370 H   0  0  0  0  0  0  0  0  0  0  0  0
   -1.3150   15.5580   24.3300 H   0  0  0  0  0  0  0  0  0  0  0  0
   -1.4460   13.8910   24.8680 H   0  0  0  0  0  0  0  0  0  0  0  0
   -1.8350   14.9120   22.0010 H   0  0  0  0  0  0  0  0  0  0  0  0
   -0.4800   13.9440   22.6150 H   0  0  0  0  0  0  0  0  0  0  0  0
    3.3230    5.6740   19.9680 C   0  0  2  0  0  0  0  0  0  0  0  0
    3.6400    5.9410   20.9870 H   0  0  0  0  0  0  0  0  0  0  0  0
    4.5900    5.2290   19.2290 C   0  0  0  0  0  0  0  0  0  0  0  0
    5.4950    5.6740   19.6580 H   0  0  0  0  0  0  0  0  0  0  0  0
    4.5490    5.5180   18.1730 H   0  0  0  0  0  0  0  0  0  0  0  0
    4.7040    4.1400   19.2690 H   0  0  0  0  0  0  0  0  0  0  0  0
    2.2720    4.5490   20.0530 C   0  0  0  0  0  0  0  0  0  0  0  0
    2.2180    4.1510   21.0750 H   0  0  0  0  0  0  0  0  0  0  0  0
    1.2710    4.9440   19.8330 H   0  0  0  0  0  0  0  0  0  0  0  0
    2.5720    3.4310   19.1150 C   0  0  0  0  0  0  0  0  0  0  0  0
    2.1190    3.2940   17.8860 N   0  0  0  0  0  0  0  0  0  0  0  0
    2.6380    2.1330   17.3630 N   0  0  0  0  0  0  0  0  0  0  0  0
    3.3920    1.5850   18.2860 C   0  0  0  0  0  0  0  0  0  0  0  0
    3.3810    2.3620   19.4020 N   0  0  0  0  0  0  0  0  0  0  0  0
    3.9420    0.6590   18.1910 H   0  0  0  0  0  0  0  0  0  0  0  0
    4.0830    2.0980   20.6290 C   0  0  0  0  0  0  0  0  0  0  0  0
    4.8100    1.3030   20.4490 H   0  0  0  0  0  0  0  0  0  0  0  0
    4.6000    3.0040   20.9570 H   0  0  0  0  0  0  0  0  0  0  0  0
    3.3610    1.7940   21.3910 H   0  0  0  0  0  0  0  0  0  0  0  0
  1 39  1  0  0  0  0
  1  6  1  0  0  0  0
  2  1  2  0  0  0  0
  3  2  1  0  0  0  0
  3  4  2  0  0  0  0
  4  5  1  0  0  0  0
  5  6  2  0  0  0  0
  5 11  1  0  0  0  0
  6 10  1  0  0  0  0
  7  2  1  0  0  0  0
  8  3  1  0  0  0  0
  9  4  1  0  0  0  0
 11 19  2  0  0  0  0
 12 11  1  0  0  0  0
 12 13  1  0  0  0  0
 13 14  2  0  0  0  0
 13 18  1  0  0  0  0
 14 23  1  0  0  0  0
 15 14  1  0  0  0  0
 16 15  2  0  0  0  0
 17 16  1  0  0  0  0
 17 12  2  0  0  0  0
 18 22  1  0  0  0  0
 19 18  1  0  0  0  0
 20 15  1  0  0  0  0
 21 16  1  0  0  0  0
 23 24  1  0  0  0  0
 23 28  1  0  0  0  0
 24 25  1  0  0  0  0
 25 33  1  0  0  0  0
 25 26  1  0  0  0  0
 25 32  1  0  0  0  0
 26 34  1  6  0  0  0
 26 29  1  0  0  0  0
 27 35  1  0  0  0  0
 27 26  1  0  0  0  0
 27 36  1  0  0  0  0
 28 27  1  0  0  0  0
 30 24  1  0  0  0  0
 31 24  1  0  0  0  0
 37 28  1  0  0  0  0
 38 28  1  0  0  0  0
 39 45  1  0  0  0  0
 39 40  1  1  0  0  0
 41 44  1  0  0  0  0
 41 42  1  0  0  0  0
 41 39  1  0  0  0  0
 43 41  1  0  0  0  0
 45 46  1  0  0  0  0
 47 45  1  0  0  0  0
 48 52  1  0  0  0  0
 48 45  1  0  0  0  0
 49 48  2  0  0  0  0
 50 49  1  0  0  0  0
 50 51  2  0  0  0  0
 51 52  1  0  0  0  0
 52 54  1  0  0  0  0
 53 51  1  0  0  0  0
 54 56  1  0  0  0  0
 54 57  1  0  0  0  0
 55 54  1  0  0  0  0
M  END
>  <MODEL>
14

>  <REMARK>
 VINA RESULT:    -7.707      3.793      5.443
 INTER + INTRA:         -10.773
 INTER:                 -10.297
 INTRA:                  -0.476
 UNBOUND:                -0.362
  Name = 
  7 active torsions:
  status: ('A' for Active; 'I' for Inactive)
    1  A    between atoms: C_1  and  C_2
    2  A    between atoms: C_2  and  C_3
    3  A    between atoms: C_2  and  C_10
    4  A    between atoms: C_3  and  C_4
    5  A    between atoms: N_8  and  C_9
    6  A    between atoms: C_14  and  C_16
    7  A    between atoms: C_19  and  N_23
                            x       y       z     vdW  Elec       q    Type
                         _______ _______ _______ _____ _____    ______ ____

>  <TORSDO>
F 7

$$$$
=
 OpenBabel07192307433D

 57 61  0  0  1  0  0  0  0  0999 V2000
    2.7720    3.8790   18.7580 C   0  0  0  0  0  0  0  0  0  0  0  0
    2.8200    3.0090   19.8540 C   0  0  0  0  0  0  0  0  0  0  0  0
    2.4400    3.4480   21.1220 C   0  0  0  0  0  0  0  0  0  0  0  0
    2.0180    4.7660   21.3090 C   0  0  0  0  0  0  0  0  0  0  0  0
    1.9690    5.6660   20.2360 C   0  0  0  0  0  0  0  0  0  0  0  0
    2.3440    5.2050   18.9650 C   0  0  0  0  0  0  0  0  0  0  0  0
    3.1530    1.9800   19.7330 H   0  0  0  0  0  0  0  0  0  0  0  0
    2.4740    2.7660   21.9680 H   0  0  0  0  0  0  0  0  0  0  0  0
    1.7270    5.0870   22.3080 H   0  0  0  0  0  0  0  0  0  0  0  0
    2.2990    5.8780   18.1130 H   0  0  0  0  0  0  0  0  0  0  0  0
    1.5310    7.0530   20.4510 C   0  0  0  0  0  0  0  0  0  0  0  0
    1.6340    8.1790   19.5660 C   0  0  0  0  0  0  0  0  0  0  0  0
    1.0630    9.2410   20.2480 C   0  0  0  0  0  0  0  0  0  0  0  0
    0.9610   10.5260   19.7190 C   0  0  0  0  0  0  0  0  0  0  0  0
    1.4880   10.6570   18.4310 C   0  0  0  0  0  0  0  0  0  0  0  0
    2.0540    9.5570   17.7990 C   0  0  0  0  0  0  0  0  0  0  0  0
    2.1530    8.3130   18.3150 N   0  0  0  0  0  0  0  0  0  0  0  0
    0.6770    8.7260   21.4480 N   0  0  0  0  0  0  0  0  0  0  0  0
    0.9460    7.4210   21.6110 N   0  0  0  0  0  0  0  0  0  0  0  0
    1.4580   11.6090   17.9110 H   0  0  0  0  0  0  0  0  0  0  0  0
    2.4630    9.6610   16.7970 H   0  0  0  0  0  0  0  0  0  0  0  0
    0.2240    9.2330   22.2000 H   0  0  0  0  0  0  0  0  0  0  0  0
    0.3640   11.5590   20.4500 N   0  0  0  0  0  0  0  0  0  0  0  0
   -1.0330   11.7900   20.0340 C   0  0  0  0  0  0  0  0  0  0  0  0
   -1.6910   12.7540   21.0110 C   0  0  0  0  0  0  0  0  0  0  0  0
   -0.8840   14.0390   21.1100 C   0  0  2  0  0  0  0  0  0  0  0  0
    0.5660   13.7630   21.4770 C   0  0  0  0  0  0  0  0  0  0  0  0
    1.1820   12.7840   20.4880 C   0  0  0  0  0  0  0  0  0  0  0  0
   -1.4360   14.8320   22.0680 F   0  0  0  0  0  0  0  0  0  0  0  0
   -1.0760   12.2010   19.0170 H   0  0  0  0  0  0  0  0  0  0  0  0
   -1.5940   10.8460   20.0400 H   0  0  0  0  0  0  0  0  0  0  0  0
   -1.7670   12.2950   22.0060 H   0  0  0  0  0  0  0  0  0  0  0  0
   -2.7160   12.9790   20.6970 H   0  0  0  0  0  0  0  0  0  0  0  0
   -0.9360   14.5900   20.1640 H   0  0  0  0  0  0  0  0  0  0  0  0
    1.1330   14.7020   21.4920 H   0  0  0  0  0  0  0  0  0  0  0  0
    0.6130   13.3580   22.4950 H   0  0  0  0  0  0  0  0  0  0  0  0
    1.2440   13.2490   19.4950 H   0  0  0  0  0  0  0  0  0  0  0  0
    2.2030   12.5490   20.8130 H   0  0  0  0  0  0  0  0  0  0  0  0
    3.2040    3.4420   17.3660 C   0  0  2  0  0  0  0  0  0  0  0  0
    2.2960    3.2260   16.7870 H   0  0  0  0  0  0  0  0  0  0  0  0
    4.0080    2.1370   17.4080 C   0  0  0  0  0  0  0  0  0  0  0  0
    3.8470    1.5270   16.5120 H   0  0  0  0  0  0  0  0  0  0  0  0
    3.7270    1.5310   18.2760 H   0  0  0  0  0  0  0  0  0  0  0  0
    5.0820    2.3420   17.4820 H   0  0  0  0  0  0  0  0  0  0  0  0
    3.9770    4.5820   16.6720 C   0  0  0  0  0  0  0  0  0  0  0  0
    3.9070    4.4840   15.5820 H   0  0  0  0  0  0  0  0  0  0  0  0
    3.5260    5.5530   16.9150 H   0  0  0  0  0  0  0  0  0  0  0  0
    5.4160    4.6010   17.0630 C   0  0  0  0  0  0  0  0  0  0  0  0
    5.9000    4.8610   18.2610 N   0  0  0  0  0  0  0  0  0  0  0  0
    7.2710    4.7690   18.1980 N   0  0  0  0  0  0  0  0  0  0  0  0
    7.5920    4.4610   16.9650 C   0  0  0  0  0  0  0  0  0  0  0  0
    6.4620    4.3460   16.2170 N   0  0  0  0  0  0  0  0  0  0  0  0
    8.5940    4.3190   16.5850 H   0  0  0  0  0  0  0  0  0  0  0  0
    6.3990    4.0210   14.8170 C   0  0  0  0  0  0  0  0  0  0  0  0
    6.8570    4.8350   14.2510 H   0  0  0  0  0  0  0  0  0  0  0  0
    6.9420    3.0910   14.6320 H   0  0  0  0  0  0  0  0  0  0  0  0
    5.3520    3.8950   14.5310 H   0  0  0  0  0  0  0  0  0  0  0  0
  1  6  2  0  0  0  0
  1  2  1  0  0  0  0
  2  3  2  0  0  0  0
  3  4  1  0  0  0  0
  3  8  1  0  0  0  0
  4  9  1  0  0  0  0
  5 11  1  0  0  0  0
  5  4  2  0  0  0  0
  6  5  1  0  0  0  0
  7  2  1  0  0  0  0
 10  6  1  0  0  0  0
 11 19  2  0  0  0  0
 12 13  1  0  0  0  0
 12 11  1  0  0  0  0
 13 18  1  0  0  0  0
 14 13  2  0  0  0  0
 14 23  1  0  0  0  0
 15 14  1  0  0  0  0
 16 17  1  0  0  0  0
 16 15  2  0  0  0  0
 17 12  2  0  0  0  0
 18 19  1  0  0  0  0
 18 22  1  0  0  0  0
 20 15  1  0  0  0  0
 21 16  1  0  0  0  0
 23 28  1  0  0  0  0
 24 31  1  0  0  0  0
 24 23  1  0  0  0  0
 24 25  1  0  0  0  0
 25 26  1  0  0  0  0
 25 32  1  0  0  0  0
 26 34  1  6  0  0  0
 26 27  1  0  0  0  0
 26 29  1  0  0  0  0
 27 35  1  0  0  0  0
 27 36  1  0  0  0  0
 28 38  1  0  0  0  0
 28 27  1  0  0  0  0
 30 24  1  0  0  0  0
 33 25  1  0  0  0  0
 37 28  1  0  0  0  0
 39 40  1  6  0  0  0
 39 41  1  0  0  0  0
 39  1  1  0  0  0  0
 41 44  1  0  0  0  0
 41 43  1  0  0  0  0
 42 41  1  0  0  0  0
 45 47  1  0  0  0  0
 45 48  1  0  0  0  0
 45 39  1  0  0  0  0
 46 45  1  0  0  0  0
 48 49  2  0  0  0  0
 50 49  1  0  0  0  0
 51 50  2  0  0  0  0
 52 51  1  0  0  0  0
 52 48  1  0  0  0  0
 53 51  1  0  0  0  0
 54 52  1  0  0  0  0
 55 54  1  0  0  0  0
 56 54  1  0  0  0  0
 57 54  1  0  0  0  0
M  END
>  <MODEL>
15

>  <REMARK>
 VINA RESULT:    -7.686      2.008      3.262
 INTER + INTRA:         -10.745
 INTER:                  -9.889
 INTRA:                  -0.856
 UNBOUND:                -0.362
  Name = 
  7 active torsions:
  status: ('A' for Active; 'I' for Inactive)
    1  A    between atoms: C_1  and  C_2
    2  A    between atoms: C_2  and  C_3
    3  A    between atoms: C_2  and  C_10
    4  A    between atoms: C_3  and  C_4
    5  A    between atoms: N_8  and  C_9
    6  A    between atoms: C_14  and  C_16
    7  A    between atoms: C_19  and  N_23
                            x       y       z     vdW  Elec       q    Type
                         _______ _______ _______ _____ _____    ______ ____

>  <TORSDO>
F 7

$$$$
=
 OpenBabel07192307433D

 57 61  0  0  1  0  0  0  0  0999 V2000
   -0.0130   12.4530   18.7900 C   0  0  0  0  0  0  0  0  0  0  0  0
    0.9570   13.4020   18.4460 C   0  0  0  0  0  0  0  0  0  0  0  0
    2.2420   12.9990   18.0840 C   0  0  0  0  0  0  0  0  0  0  0  0
    2.5730   11.6420   18.0740 C   0  0  0  0  0  0  0  0  0  0  0  0
    1.6290   10.6670   18.4240 C   0  0  0  0  0  0  0  0  0  0  0  0
    0.3370   11.0900   18.7750 C   0  0  0  0  0  0  0  0  0  0  0  0
    0.7240   14.4650   18.4550 H   0  0  0  0  0  0  0  0  0  0  0  0
    2.9890   13.7400   17.8120 H   0  0  0  0  0  0  0  0  0  0  0  0
    3.5830   11.3500   17.7890 H   0  0  0  0  0  0  0  0  0  0  0  0
   -0.4180   10.3530   19.0340 H   0  0  0  0  0  0  0  0  0  0  0  0
    1.9950    9.2430   18.4170 C   0  0  0  0  0  0  0  0  0  0  0  0
    1.7970    8.2560   19.4400 C   0  0  0  0  0  0  0  0  0  0  0  0
    2.3130    7.0780   18.9250 C   0  0  0  0  0  0  0  0  0  0  0  0
    2.3050    5.8690   19.6180 C   0  0  0  0  0  0  0  0  0  0  0  0
    1.7290    5.9430   20.8890 C   0  0  0  0  0  0  0  0  0  0  0  0
    1.2330    7.1550   21.3550 C   0  0  0  0  0  0  0  0  0  0  0  0
    1.2440    8.3250   20.6820 N   0  0  0  0  0  0  0  0  0  0  0  0
    2.7790    7.4060   17.6880 N   0  0  0  0  0  0  0  0  0  0  0  0
    2.6140    8.6950   17.3490 N   0  0  0  0  0  0  0  0  0  0  0  0
    1.6570    5.0640   21.5210 H   0  0  0  0  0  0  0  0  0  0  0  0
    0.7850    7.2100   22.3440 H   0  0  0  0  0  0  0  0  0  0  0  0
    3.2270    6.7770   17.0300 H   0  0  0  0  0  0  0  0  0  0  0  0
    2.8310    4.7080   19.0420 N   0  0  0  0  0  0  0  0  0  0  0  0
    1.8470    4.0310   18.1750 C   0  0  0  0  0  0  0  0  0  0  0  0
    2.5440    2.9170   17.4060 C   0  0  0  0  0  0  0  0  0  0  0  0
    3.2380    1.9640   18.3680 C   0  0  2  0  0  0  0  0  0  0  0  0
    4.1960    2.7000   19.2910 C   0  0  0  0  0  0  0  0  0  0  0  0
    3.4660    3.8150   20.0280 C   0  0  0  0  0  0  0  0  0  0  0  0
    3.9380    1.0460   17.6490 F   0  0  0  0  0  0  0  0  0  0  0  0
    1.0220    3.6160   18.7680 H   0  0  0  0  0  0  0  0  0  0  0  0
    1.4210    4.7410   17.4550 H   0  0  0  0  0  0  0  0  0  0  0  0
    3.2860    3.3370   16.7140 H   0  0  0  0  0  0  0  0  0  0  0  0
    1.8240    2.3670   16.7900 H   0  0  0  0  0  0  0  0  0  0  0  0
    2.4930    1.4150   18.9560 H   0  0  0  0  0  0  0  0  0  0  0  0
    4.6420    1.9970   20.0040 H   0  0  0  0  0  0  0  0  0  0  0  0
    5.0250    3.1110   18.7020 H   0  0  0  0  0  0  0  0  0  0  0  0
    2.7210    3.3830   20.7090 H   0  0  0  0  0  0  0  0  0  0  0  0
    4.1920    4.3720   20.6320 H   0  0  0  0  0  0  0  0  0  0  0  0
   -1.4170   12.8580   19.2160 C   0  0  2  0  0  0  0  0  0  0  0  0
   -1.8200   13.5280   18.4430 H   0  0  0  0  0  0  0  0  0  0  0  0
   -1.4010   13.6680   20.5180 C   0  0  0  0  0  0  0  0  0  0  0  0
   -1.2670   14.7390   20.3350 H   0  0  0  0  0  0  0  0  0  0  0  0
   -0.5870   13.3400   21.1730 H   0  0  0  0  0  0  0  0  0  0  0  0
   -2.3400   13.5390   21.0690 H   0  0  0  0  0  0  0  0  0  0  0  0
   -2.3190   11.6120   19.3140 C   0  0  0  0  0  0  0  0  0  0  0  0
   -1.7160   10.6970   19.2570 H   0  0  0  0  0  0  0  0  0  0  0  0
   -2.8200   11.5790   20.2910 H   0  0  0  0  0  0  0  0  0  0  0  0
   -3.3480   11.5790   18.2370 C   0  0  0  0  0  0  0  0  0  0  0  0
   -4.4970   12.2240   18.2300 N   0  0  0  0  0  0  0  0  0  0  0  0
   -5.1470   11.9300   17.0540 N   0  0  0  0  0  0  0  0  0  0  0  0
   -4.3830   11.1090   16.3730 C   0  0  0  0  0  0  0  0  0  0  0  0
   -3.2450   10.8610   17.0750 N   0  0  0  0  0  0  0  0  0  0  0  0
   -4.6080   10.6860   15.4040 H   0  0  0  0  0  0  0  0  0  0  0  0
   -2.1620   10.0090   16.6640 C   0  0  0  0  0  0  0  0  0  0  0  0
   -2.5230    8.9790   16.6280 H   0  0  0  0  0  0  0  0  0  0  0  0
   -1.8130   10.3120   15.6730 H   0  0  0  0  0  0  0  0  0  0  0  0
   -1.3440   10.1050   17.3830 H   0  0  0  0  0  0  0  0  0  0  0  0
  1 39  1  0  0  0  0
  2  7  1  0  0  0  0
  2  1  2  0  0  0  0
  3  2  1  0  0  0  0
  4  3  2  0  0  0  0
  4  5  1  0  0  0  0
  5  6  2  0  0  0  0
  6  1  1  0  0  0  0
  6 10  1  0  0  0  0
  8  3  1  0  0  0  0
  9  4  1  0  0  0  0
 11  5  1  0  0  0  0
 11 12  1  0  0  0  0
 12 17  1  0  0  0  0
 13 12  2  0  0  0  0
 13 14  1  0  0  0  0
 14 15  2  0  0  0  0
 15 16  1  0  0  0  0
 15 20  1  0  0  0  0
 16 21  1  0  0  0  0
 17 16  2  0  0  0  0
 18 13  1  0  0  0  0
 19 18  1  0  0  0  0
 19 11  2  0  0  0  0
 22 18  1  0  0  0  0
 23 14  1  0  0  0  0
 23 28  1  0  0  0  0
 24 30  1  0  0  0  0
 24 23  1  0  0  0  0
 25 24  1  0  0  0  0
 25 26  1  0  0  0  0
 26 34  1  1  0  0  0
 26 27  1  0  0  0  0
 27 35  1  0  0  0  0
 27 28  1  0  0  0  0
 28 38  1  0  0  0  0
 28 37  1  0  0  0  0
 29 26  1  0  0  0  0
 31 24  1  0  0  0  0
 32 25  1  0  0  0  0
 33 25  1  0  0  0  0
 36 27  1  0  0  0  0
 39 40  1  6  0  0  0
 39 45  1  0  0  0  0
 39 41  1  0  0  0  0
 41 44  1  0  0  0  0
 41 43  1  0  0  0  0
 42 41  1  0  0  0  0
 45 47  1  0  0  0  0
 46 45  1  0  0  0  0
 48 45  1  0  0  0  0
 49 48  2  0  0  0  0
 50 49  1  0  0  0  0
 51 50  2  0  0  0  0
 51 52  1  0  0  0  0
 52 48  1  0  0  0  0
 53 51  1  0  0  0  0
 54 52  1  0  0  0  0
 54 57  1  0  0  0  0
 55 54  1  0  0  0  0
 56 54  1  0  0  0  0
M  END
>  <MODEL>
16

>  <REMARK>
 VINA RESULT:    -7.675      4.469      9.534
 INTER + INTRA:         -10.729
 INTER:                  -9.627
 INTRA:                  -1.102
 UNBOUND:                -0.362
  Name = 
  7 active torsions:
  status: ('A' for Active; 'I' for Inactive)
    1  A    between atoms: C_1  and  C_2
    2  A    between atoms: C_2  and  C_3
    3  A    between atoms: C_2  and  C_10
    4  A    between atoms: C_3  and  C_4
    5  A    between atoms: N_8  and  C_9
    6  A    between atoms: C_14  and  C_16
    7  A    between atoms: C_19  and  N_23
                            x       y       z     vdW  Elec       q    Type
                         _______ _______ _______ _____ _____    ______ ____

>  <TORSDO>
F 7

$$$$
=
 OpenBabel07192307433D

 57 61  0  0  1  0  0  0  0  0999 V2000
    2.3020    6.5840   19.2690 C   0  0  0  0  0  0  0  0  0  0  0  0
    2.7870    7.0320   18.0330 C   0  0  0  0  0  0  0  0  0  0  0  0
    2.5830    8.3510   17.6310 C   0  0  0  0  0  0  0  0  0  0  0  0
    1.8820    9.2340   18.4550 C   0  0  0  0  0  0  0  0  0  0  0  0
    1.3730    8.8160   19.6920 C   0  0  0  0  0  0  0  0  0  0  0  0
    1.5970    7.4880   20.0870 C   0  0  0  0  0  0  0  0  0  0  0  0
    3.3290    6.3590   17.3720 H   0  0  0  0  0  0  0  0  0  0  0  0
    2.9680    8.6940   16.6740 H   0  0  0  0  0  0  0  0  0  0  0  0
    1.7340   10.2590   18.1200 H   0  0  0  0  0  0  0  0  0  0  0  0
    1.2270    7.1430   21.0490 H   0  0  0  0  0  0  0  0  0  0  0  0
    0.6290    9.7550   20.5440 C   0  0  0  0  0  0  0  0  0  0  0  0
   -0.4370   10.6480   20.1860 C   0  0  0  0  0  0  0  0  0  0  0  0
   -0.7880   11.2970   21.3580 C   0  0  0  0  0  0  0  0  0  0  0  0
   -1.8010   12.2500   21.4330 C   0  0  0  0  0  0  0  0  0  0  0  0
   -2.4400   12.5010   20.2160 C   0  0  0  0  0  0  0  0  0  0  0  0
   -2.0400   11.8240   19.0710 C   0  0  0  0  0  0  0  0  0  0  0  0
   -1.0570   10.9020   19.0010 N   0  0  0  0  0  0  0  0  0  0  0  0
    0.0480   10.7930   22.3070 N   0  0  0  0  0  0  0  0  0  0  0  0
    0.9170    9.8720   21.8580 N   0  0  0  0  0  0  0  0  0  0  0  0
   -3.2520   13.2180   20.1500 H   0  0  0  0  0  0  0  0  0  0  0  0
   -2.5390   12.0200   18.1250 H   0  0  0  0  0  0  0  0  0  0  0  0
    0.0690   11.0520   23.2870 H   0  0  0  0  0  0  0  0  0  0  0  0
   -2.1200   12.8650   22.6480 N   0  0  0  0  0  0  0  0  0  0  0  0
   -3.5760   12.8850   22.8890 C   0  0  0  0  0  0  0  0  0  0  0  0
   -3.8390   13.3530   24.3140 C   0  0  0  0  0  0  0  0  0  0  0  0
   -3.1820   14.7030   24.5570 C   0  0  2  0  0  0  0  0  0  0  0  0
   -1.6960   14.6670   24.2390 C   0  0  0  0  0  0  0  0  0  0  0  0
   -1.4740   14.1790   22.8140 C   0  0  0  0  0  0  0  0  0  0  0  0
   -3.3440   15.0400   25.8650 F   0  0  0  0  0  0  0  0  0  0  0  0
   -4.0810   13.5510   22.1770 H   0  0  0  0  0  0  0  0  0  0  0  0
   -3.9970   11.8790   22.7660 H   0  0  0  0  0  0  0  0  0  0  0  0
   -3.4460   12.6220   25.0330 H   0  0  0  0  0  0  0  0  0  0  0  0
   -4.9160   13.4220   24.5020 H   0  0  0  0  0  0  0  0  0  0  0  0
   -3.6780   15.4760   23.9600 H   0  0  0  0  0  0  0  0  0  0  0  0
   -1.2610   15.6640   24.3750 H   0  0  0  0  0  0  0  0  0  0  0  0
   -1.1860   14.0070   24.9510 H   0  0  0  0  0  0  0  0  0  0  0  0
   -1.8790   14.9120   22.1040 H   0  0  0  0  0  0  0  0  0  0  0  0
   -0.3950   14.0980   22.6330 H   0  0  0  0  0  0  0  0  0  0  0  0
    2.4820    5.1450   19.7290 C   0  0  2  0  0  0  0  0  0  0  0  0
    1.8040    4.5170   19.1340 H   0  0  0  0  0  0  0  0  0  0  0  0
    2.0640    4.9620   21.1930 C   0  0  0  0  0  0  0  0  0  0  0  0
    2.9000    5.1190   21.8820 H   0  0  0  0  0  0  0  0  0  0  0  0
    1.6780    3.9520   21.3660 H   0  0  0  0  0  0  0  0  0  0  0  0
    1.2710    5.6690   21.4640 H   0  0  0  0  0  0  0  0  0  0  0  0
    3.9330    4.6890   19.4750 C   0  0  0  0  0  0  0  0  0  0  0  0
    4.3560    5.2160   18.6110 H   0  0  0  0  0  0  0  0  0  0  0  0
    4.5710    4.9530   20.3280 H   0  0  0  0  0  0  0  0  0  0  0  0
    4.0240    3.2200   19.2350 C   0  0  0  0  0  0  0  0  0  0  0  0
    4.6100    2.3330   20.0120 N   0  0  0  0  0  0  0  0  0  0  0  0
    4.4630    1.0930   19.4360 N   0  0  0  0  0  0  0  0  0  0  0  0
    3.7950    1.2520   18.3190 C   0  0  0  0  0  0  0  0  0  0  0  0
    3.4980    2.5680   18.1510 N   0  0  0  0  0  0  0  0  0  0  0  0
    3.5160    0.4690   17.6270 H   0  0  0  0  0  0  0  0  0  0  0  0
    2.7760    3.1430   17.0480 C   0  0  0  0  0  0  0  0  0  0  0  0
    2.3460    4.0930   17.3710 H   0  0  0  0  0  0  0  0  0  0  0  0
    3.4600    3.3140   16.2120 H   0  0  0  0  0  0  0  0  0  0  0  0
    1.9900    2.4490   16.7390 H   0  0  0  0  0  0  0  0  0  0  0  0
  1 39  1  0  0  0  0
  1  6  1  0  0  0  0
  2  1  2  0  0  0  0
  3  2  1  0  0  0  0
  3  4  2  0  0  0  0
  4  5  1  0  0  0  0
  5  6  2  0  0  0  0
  5 11  1  0  0  0  0
  6 10  1  0  0  0  0
  7  2  1  0  0  0  0
  8  3  1  0  0  0  0
  9  4  1  0  0  0  0
 11 19  2  0  0  0  0
 12 11  1  0  0  0  0
 12 13  1  0  0  0  0
 13 14  2  0  0  0  0
 13 18  1  0  0  0  0
 14 23  1  0  0  0  0
 15 14  1  0  0  0  0
 16 15  2  0  0  0  0
 17 16  1  0  0  0  0
 17 12  2  0  0  0  0
 18 22  1  0  0  0  0
 19 18  1  0  0  0  0
 20 15  1  0  0  0  0
 21 16  1  0  0  0  0
 23 28  1  0  0  0  0
 23 24  1  0  0  0  0
 24 25  1  0  0  0  0
 25 33  1  0  0  0  0
 25 26  1  0  0  0  0
 25 32  1  0  0  0  0
 26 34  1  6  0  0  0
 26 29  1  0  0  0  0
 27 35  1  0  0  0  0
 27 26  1  0  0  0  0
 27 36  1  0  0  0  0
 28 27  1  0  0  0  0
 30 24  1  0  0  0  0
 31 24  1  0  0  0  0
 37 28  1  0  0  0  0
 38 28  1  0  0  0  0
 39 40  1  6  0  0  0
 39 41  1  0  0  0  0
 41 43  1  0  0  0  0
 41 44  1  0  0  0  0
 41 42  1  0  0  0  0
 45 39  1  0  0  0  0
 45 47  1  0  0  0  0
 46 45  1  0  0  0  0
 48 45  1  0  0  0  0
 48 49  2  0  0  0  0
 50 49  1  0  0  0  0
 51 50  2  0  0  0  0
 52 51  1  0  0  0  0
 52 48  1  0  0  0  0
 53 51  1  0  0  0  0
 54 55  1  0  0  0  0
 54 52  1  0  0  0  0
 56 54  1  0  0  0  0
 57 54  1  0  0  0  0
M  END
>  <MODEL>
17

>  <REMARK>
 VINA RESULT:    -7.639      3.761      5.402
 INTER + INTRA:         -10.680
 INTER:                  -9.873
 INTRA:                  -0.807
 UNBOUND:                -0.362
  Name = 
  7 active torsions:
  status: ('A' for Active; 'I' for Inactive)
    1  A    between atoms: C_1  and  C_2
    2  A    between atoms: C_2  and  C_3
    3  A    between atoms: C_2  and  C_10
    4  A    between atoms: C_3  and  C_4
    5  A    between atoms: N_8  and  C_9
    6  A    between atoms: C_14  and  C_16
    7  A    between atoms: C_19  and  N_23
                            x       y       z     vdW  Elec       q    Type
                         _______ _______ _______ _____ _____    ______ ____

>  <TORSDO>
F 7

$$$$
=
 OpenBabel07192307433D

 57 61  0  0  1  0  0  0  0  0999 V2000
    0.0240   12.1530   21.4790 C   0  0  0  0  0  0  0  0  0  0  0  0
   -0.8100   12.0530   22.6000 C   0  0  0  0  0  0  0  0  0  0  0  0
   -1.0550   10.8130   23.1890 C   0  0  0  0  0  0  0  0  0  0  0  0
   -0.4760    9.6590   22.6570 C   0  0  0  0  0  0  0  0  0  0  0  0
    0.3550    9.7220   21.5300 C   0  0  0  0  0  0  0  0  0  0  0  0
    0.6000   10.9790   20.9560 C   0  0  0  0  0  0  0  0  0  0  0  0
   -1.2780   12.9380   23.0260 H   0  0  0  0  0  0  0  0  0  0  0  0
   -1.6980   10.7420   24.0620 H   0  0  0  0  0  0  0  0  0  0  0  0
   -0.6810    8.7010   23.1330 H   0  0  0  0  0  0  0  0  0  0  0  0
    1.2540   11.0580   20.0920 H   0  0  0  0  0  0  0  0  0  0  0  0
    0.9500    8.4970   20.9760 C   0  0  0  0  0  0  0  0  0  0  0  0
    1.6240    8.3070   19.7230 C   0  0  0  0  0  0  0  0  0  0  0  0
    1.9950    6.9730   19.6990 C   0  0  0  0  0  0  0  0  0  0  0  0
    2.6860    6.3890   18.6390 C   0  0  0  0  0  0  0  0  0  0  0  0
    2.9770    7.2680   17.5930 C   0  0  0  0  0  0  0  0  0  0  0  0
    2.5740    8.5950   17.6710 C   0  0  0  0  0  0  0  0  0  0  0  0
    1.9020    9.1580   18.6980 N   0  0  0  0  0  0  0  0  0  0  0  0
    1.5390    6.4560   20.8730 N   0  0  0  0  0  0  0  0  0  0  0  0
    0.9010    7.3350   21.6630 N   0  0  0  0  0  0  0  0  0  0  0  0
    3.5200    6.9300   16.7160 H   0  0  0  0  0  0  0  0  0  0  0  0
    2.8010    9.2780   16.8560 H   0  0  0  0  0  0  0  0  0  0  0  0
    1.6360    5.4950   21.1830 H   0  0  0  0  0  0  0  0  0  0  0  0
    3.0450    5.0370   18.6750 N   0  0  0  0  0  0  0  0  0  0  0  0
    4.1660    4.7420   17.7620 C   0  0  0  0  0  0  0  0  0  0  0  0
    4.6540    3.3220   18.0150 C   0  0  0  0  0  0  0  0  0  0  0  0
    3.5050    2.3350   17.8770 C   0  0  2  0  0  0  0  0  0  0  0  0
    2.3400    2.7030   18.7820 C   0  0  0  0  0  0  0  0  0  0  0  0
    1.8930    4.1330   18.5110 C   0  0  0  0  0  0  0  0  0  0  0  0
    3.9490    1.0940   18.2140 F   0  0  0  0  0  0  0  0  0  0  0  0
    3.8570    4.8500   16.7140 H   0  0  0  0  0  0  0  0  0  0  0  0
    4.9970    5.4360   17.9410 H   0  0  0  0  0  0  0  0  0  0  0  0
    5.0840    3.2410   19.0220 H   0  0  0  0  0  0  0  0  0  0  0  0
    5.4560    3.0620   17.3150 H   0  0  0  0  0  0  0  0  0  0  0  0
    3.1730    2.2880   16.8340 H   0  0  0  0  0  0  0  0  0  0  0  0
    1.5100    2.0040   18.6250 H   0  0  0  0  0  0  0  0  0  0  0  0
    2.6440    2.5910   19.8300 H   0  0  0  0  0  0  0  0  0  0  0  0
    1.4740    4.2040   17.4990 H   0  0  0  0  0  0  0  0  0  0  0  0
    1.1000    4.3950   19.2220 H   0  0  0  0  0  0  0  0  0  0  0  0
    0.2920   13.4850   20.7940 C   0  0  2  0  0  0  0  0  0  0  0  0
    1.0500   13.3150   20.0170 H   0  0  0  0  0  0  0  0  0  0  0  0
    0.8940   14.5090   21.7640 C   0  0  0  0  0  0  0  0  0  0  0  0
    0.1320   15.1710   22.1880 H   0  0  0  0  0  0  0  0  0  0  0  0
    1.6350   15.1380   21.2580 H   0  0  0  0  0  0  0  0  0  0  0  0
    1.4000   14.0070   22.5970 H   0  0  0  0  0  0  0  0  0  0  0  0
   -0.9980   14.0030   20.1260 C   0  0  0  0  0  0  0  0  0  0  0  0
   -1.7370   14.2870   20.8870 H   0  0  0  0  0  0  0  0  0  0  0  0
   -0.7920   14.9170   19.5540 H   0  0  0  0  0  0  0  0  0  0  0  0
   -1.6050   12.9880   19.2200 C   0  0  0  0  0  0  0  0  0  0  0  0
   -1.0680   12.4930   18.1240 N   0  0  0  0  0  0  0  0  0  0  0  0
   -1.9480   11.5820   17.5870 N   0  0  0  0  0  0  0  0  0  0  0  0
   -3.0040   11.5450   18.3640 C   0  0  0  0  0  0  0  0  0  0  0  0
   -2.8350   12.4100   19.4010 N   0  0  0  0  0  0  0  0  0  0  0  0
   -3.8810   10.9300   18.2180 H   0  0  0  0  0  0  0  0  0  0  0  0
   -3.7710   12.6560   20.4640 C   0  0  0  0  0  0  0  0  0  0  0  0
   -3.3850   12.2010   21.3790 H   0  0  0  0  0  0  0  0  0  0  0  0
   -3.8870   13.7330   20.6080 H   0  0  0  0  0  0  0  0  0  0  0  0
   -4.7360   12.2190   20.1940 H   0  0  0  0  0  0  0  0  0  0  0  0
  1  2  1  0  0  0  0
  2  7  1  0  0  0  0
  2  3  2  0  0  0  0
  3  8  1  0  0  0  0
  4  9  1  0  0  0  0
  4  3  1  0  0  0  0
  5  4  2  0  0  0  0
  6  1  2  0  0  0  0
  6  5  1  0  0  0  0
 10  6  1  0  0  0  0
 11  5  1  0  0  0  0
 11 19  2  0  0  0  0
 12 11  1  0  0  0  0
 13 12  1  0  0  0  0
 13 18  1  0  0  0  0
 14 23  1  0  0  0  0
 14 13  2  0  0  0  0
 15 16  2  0  0  0  0
 15 14  1  0  0  0  0
 16 17  1  0  0  0  0
 17 12  2  0  0  0  0
 18 22  1  0  0  0  0
 18 19  1  0  0  0  0
 20 15  1  0  0  0  0
 21 16  1  0  0  0  0
 24 31  1  0  0  0  0
 24 25  1  0  0  0  0
 24 23  1  0  0  0  0
 25 32  1  0  0  0  0
 26 34  1  6  0  0  0
 26 25  1  0  0  0  0
 26 29  1  0  0  0  0
 26 27  1  0  0  0  0
 27 36  1  0  0  0  0
 28 23  1  0  0  0  0
 28 27  1  0  0  0  0
 28 38  1  0  0  0  0
 30 24  1  0  0  0  0
 33 25  1  0  0  0  0
 35 27  1  0  0  0  0
 37 28  1  0  0  0  0
 39 40  1  6  0  0  0
 39  1  1  0  0  0  0
 39 41  1  0  0  0  0
 41 42  1  0  0  0  0
 41 44  1  0  0  0  0
 43 41  1  0  0  0  0
 45 39  1  0  0  0  0
 45 46  1  0  0  0  0
 47 45  1  0  0  0  0
 48 52  1  0  0  0  0
 48 45  1  0  0  0  0
 49 48  2  0  0  0  0
 50 49  1  0  0  0  0
 50 51  2  0  0  0  0
 51 52  1  0  0  0  0
 52 54  1  0  0  0  0
 53 51  1  0  0  0  0
 54 56  1  0  0  0  0
 54 55  1  0  0  0  0
 57 54  1  0  0  0  0
M  END
>  <MODEL>
18

>  <REMARK>
 VINA RESULT:    -7.628      4.061      9.741
 INTER + INTRA:         -10.665
 INTER:                  -9.798
 INTRA:                  -0.868
 UNBOUND:                -0.362
  Name = 
  7 active torsions:
  status: ('A' for Active; 'I' for Inactive)
    1  A    between atoms: C_1  and  C_2
    2  A    between atoms: C_2  and  C_3
    3  A    between atoms: C_2  and  C_10
    4  A    between atoms: C_3  and  C_4
    5  A    between atoms: N_8  and  C_9
    6  A    between atoms: C_14  and  C_16
    7  A    between atoms: C_19  and  N_23
                            x       y       z     vdW  Elec       q    Type
                         _______ _______ _______ _____ _____    ______ ____

>  <TORSDO>
F 7

$$$$
=
 OpenBabel07192307433D

 57 61  0  0  1  0  0  0  0  0999 V2000
   -0.2140   13.2880   21.4080 C   0  0  0  0  0  0  0  0  0  0  0  0
   -1.2290   13.2490   22.3730 C   0  0  0  0  0  0  0  0  0  0  0  0
   -1.5840   12.0430   22.9760 C   0  0  0  0  0  0  0  0  0  0  0  0
   -0.9350   10.8610   22.6140 C   0  0  0  0  0  0  0  0  0  0  0  0
    0.0780   10.8630   21.6440 C   0  0  0  0  0  0  0  0  0  0  0  0
    0.4300   12.0870   21.0550 C   0  0  0  0  0  0  0  0  0  0  0  0
   -1.7540   14.1570   22.6650 H   0  0  0  0  0  0  0  0  0  0  0  0
   -2.3680   12.0200   23.7290 H   0  0  0  0  0  0  0  0  0  0  0  0
   -1.2280    9.9310   23.0970 H   0  0  0  0  0  0  0  0  0  0  0  0
    1.2230   12.1180   20.3120 H   0  0  0  0  0  0  0  0  0  0  0  0
    0.7460    9.6090   21.2660 C   0  0  0  0  0  0  0  0  0  0  0  0
    1.2230    9.1930   19.9780 C   0  0  0  0  0  0  0  0  0  0  0  0
    1.7770    7.9390   20.1730 C   0  0  0  0  0  0  0  0  0  0  0  0
    2.3610    7.1910   19.1530 C   0  0  0  0  0  0  0  0  0  0  0  0
    2.3410    7.8160   17.9040 C   0  0  0  0  0  0  0  0  0  0  0  0
    1.7660    9.0730   17.7670 C   0  0  0  0  0  0  0  0  0  0  0  0
    1.1990    9.7950   18.7570 N   0  0  0  0  0  0  0  0  0  0  0  0
    1.6030    7.6760   21.4980 N   0  0  0  0  0  0  0  0  0  0  0  0
    0.9830    8.6490   22.1860 N   0  0  0  0  0  0  0  0  0  0  0  0
    2.7750    7.3350   17.0330 H   0  0  0  0  0  0  0  0  0  0  0  0
    1.7520    9.5580   16.7940 H   0  0  0  0  0  0  0  0  0  0  0  0
    1.8900    6.8350   21.9860 H   0  0  0  0  0  0  0  0  0  0  0  0
    2.9150    5.9320   19.4120 N   0  0  0  0  0  0  0  0  0  0  0  0
    4.2110    5.7520   18.7290 C   0  0  0  0  0  0  0  0  0  0  0  0
    4.8630    4.4710   19.2300 C   0  0  0  0  0  0  0  0  0  0  0  0
    3.9250    3.2890   19.0390 C   0  0  2  0  0  0  0  0  0  0  0  0
    2.5770    3.5320   19.6980 C   0  0  0  0  0  0  0  0  0  0  0  0
    1.9650    4.8290   19.1850 C   0  0  0  0  0  0  0  0  0  0  0  0
    4.4920    2.1830   19.5930 F   0  0  0  0  0  0  0  0  0  0  0  0
    4.0760    5.7020   17.6410 H   0  0  0  0  0  0  0  0  0  0  0  0
    4.8780    6.5950   18.9480 H   0  0  0  0  0  0  0  0  0  0  0  0
    5.1180    4.5640   20.2940 H   0  0  0  0  0  0  0  0  0  0  0  0
    5.8060    4.2890   18.7030 H   0  0  0  0  0  0  0  0  0  0  0  0
    3.7910    3.0840   17.9710 H   0  0  0  0  0  0  0  0  0  0  0  0
    1.9060    2.6870   19.5010 H   0  0  0  0  0  0  0  0  0  0  0  0
    2.7060    3.5770   20.7870 H   0  0  0  0  0  0  0  0  0  0  0  0
    1.7240    4.7280   18.1180 H   0  0  0  0  0  0  0  0  0  0  0  0
    1.0290    5.0160   19.7250 H   0  0  0  0  0  0  0  0  0  0  0  0
    0.1800   14.5810   20.7100 C   0  0  2  0  0  0  0  0  0  0  0  0
    0.5260   15.2840   21.4800 H   0  0  0  0  0  0  0  0  0  0  0  0
   -1.0220   15.2470   20.0310 C   0  0  0  0  0  0  0  0  0  0  0  0
   -1.8550   14.5490   19.8920 H   0  0  0  0  0  0  0  0  0  0  0  0
   -0.7490   15.6350   19.0440 H   0  0  0  0  0  0  0  0  0  0  0  0
   -1.3900   16.0900   20.6270 H   0  0  0  0  0  0  0  0  0  0  0  0
    1.3350   14.3160   19.7230 C   0  0  0  0  0  0  0  0  0  0  0  0
    1.3590   13.2570   19.4350 H   0  0  0  0  0  0  0  0  0  0  0  0
    1.1770   14.8750   18.7910 H   0  0  0  0  0  0  0  0  0  0  0  0
    2.6590   14.6900   20.2970 C   0  0  0  0  0  0  0  0  0  0  0  0
    2.9330   14.8950   21.5690 N   0  0  0  0  0  0  0  0  0  0  0  0
    4.2670   15.2120   21.6750 N   0  0  0  0  0  0  0  0  0  0  0  0
    4.7750   15.1980   20.4650 C   0  0  0  0  0  0  0  0  0  0  0  0
    3.8050   14.8760   19.5690 N   0  0  0  0  0  0  0  0  0  0  0  0
    5.8030   15.4080   20.2050 H   0  0  0  0  0  0  0  0  0  0  0  0
    3.9670   14.7610   18.1450 C   0  0  0  0  0  0  0  0  0  0  0  0
    4.2250   15.7440   17.7440 H   0  0  0  0  0  0  0  0  0  0  0  0
    4.7690   14.0510   17.9240 H   0  0  0  0  0  0  0  0  0  0  0  0
    3.0310   14.4010   17.7100 H   0  0  0  0  0  0  0  0  0  0  0  0
  1  2  1  0  0  0  0
  2  7  1  0  0  0  0
  2  3  2  0  0  0  0
  3  8  1  0  0  0  0
  4  3  1  0  0  0  0
  4  9  1  0  0  0  0
  5  4  2  0  0  0  0
  6  1  2  0  0  0  0
  6  5  1  0  0  0  0
 10  6  1  0  0  0  0
 11  5  1  0  0  0  0
 11 19  2  0  0  0  0
 12 13  1  0  0  0  0
 12 11  1  0  0  0  0
 13 18  1  0  0  0  0
 14 23  1  0  0  0  0
 14 13  2  0  0  0  0
 15 14  1  0  0  0  0
 16 15  2  0  0  0  0
 16 17  1  0  0  0  0
 17 12  2  0  0  0  0
 18 22  1  0  0  0  0
 18 19  1  0  0  0  0
 20 15  1  0  0  0  0
 21 16  1  0  0  0  0
 24 31  1  0  0  0  0
 24 25  1  0  0  0  0
 24 23  1  0  0  0  0
 25 32  1  0  0  0  0
 26 34  1  6  0  0  0
 26 25  1  0  0  0  0
 26 29  1  0  0  0  0
 26 27  1  0  0  0  0
 27 36  1  0  0  0  0
 28 23  1  0  0  0  0
 28 27  1  0  0  0  0
 28 38  1  0  0  0  0
 30 24  1  0  0  0  0
 33 25  1  0  0  0  0
 35 27  1  0  0  0  0
 37 28  1  0  0  0  0
 39  1  1  0  0  0  0
 39 40  1  1  0  0  0
 41 44  1  0  0  0  0
 41 39  1  0  0  0  0
 42 41  1  0  0  0  0
 43 41  1  0  0  0  0
 45 48  1  0  0  0  0
 45 39  1  0  0  0  0
 46 45  1  0  0  0  0
 47 45  1  0  0  0  0
 48 49  2  0  0  0  0
 49 50  1  0  0  0  0
 51 50  2  0  0  0  0
 52 48  1  0  0  0  0
 52 51  1  0  0  0  0
 53 51  1  0  0  0  0
 54 52  1  0  0  0  0
 55 54  1  0  0  0  0
 56 54  1  0  0  0  0
 57 54  1  0  0  0  0
M  END
>  <MODEL>
19

>  <REMARK>
 VINA RESULT:    -7.618      4.331      9.677
 INTER + INTRA:         -10.653
 INTER:                  -9.622
 INTRA:                  -1.031
 UNBOUND:                -0.362
  Name = 
  7 active torsions:
  status: ('A' for Active; 'I' for Inactive)
    1  A    between atoms: C_1  and  C_2
    2  A    between atoms: C_2  and  C_3
    3  A    between atoms: C_2  and  C_10
    4  A    between atoms: C_3  and  C_4
    5  A    between atoms: N_8  and  C_9
    6  A    between atoms: C_14  and  C_16
    7  A    between atoms: C_19  and  N_23
                            x       y       z     vdW  Elec       q    Type
                         _______ _______ _______ _____ _____    ______ ____

>  <TORSDO>
F 7

$$$$
=
 OpenBabel07192307433D

 57 61  0  0  1  0  0  0  0  0999 V2000
   -1.4010   12.2800   19.8790 C   0  0  0  0  0  0  0  0  0  0  0  0
   -0.6740   13.4620   20.0740 C   0  0  0  0  0  0  0  0  0  0  0  0
    0.6960   13.4980   19.8180 C   0  0  0  0  0  0  0  0  0  0  0  0
    1.3560   12.3500   19.3750 C   0  0  0  0  0  0  0  0  0  0  0  0
    0.6610   11.1480   19.1800 C   0  0  0  0  0  0  0  0  0  0  0  0
   -0.7200   11.1320   19.4320 C   0  0  0  0  0  0  0  0  0  0  0  0
   -1.1660   14.3660   20.4270 H   0  0  0  0  0  0  0  0  0  0  0  0
    1.2540   14.4190   19.9650 H   0  0  0  0  0  0  0  0  0  0  0  0
    2.4270   12.4010   19.1820 H   0  0  0  0  0  0  0  0  0  0  0  0
   -1.2850   10.2180   19.2730 H   0  0  0  0  0  0  0  0  0  0  0  0
    1.3720    9.9460   18.7220 C   0  0  0  0  0  0  0  0  0  0  0  0
    1.5520    8.6920   19.3970 C   0  0  0  0  0  0  0  0  0  0  0  0
    2.2830    7.9020   18.5260 C   0  0  0  0  0  0  0  0  0  0  0  0
    2.6630    6.5920   18.8130 C   0  0  0  0  0  0  0  0  0  0  0  0
    2.2410    6.1360   20.0640 C   0  0  0  0  0  0  0  0  0  0  0  0
    1.5130    6.9760   20.8980 C   0  0  0  0  0  0  0  0  0  0  0  0
    1.1490    8.2460   20.6190 N   0  0  0  0  0  0  0  0  0  0  0  0
    2.5030    8.6860   17.4350 N   0  0  0  0  0  0  0  0  0  0  0  0
    1.9790    9.9200   17.5160 N   0  0  0  0  0  0  0  0  0  0  0  0
    2.4680    5.1290   20.3960 H   0  0  0  0  0  0  0  0  0  0  0  0
    1.1850    6.6200   21.8710 H   0  0  0  0  0  0  0  0  0  0  0  0
    3.0140    8.4220   16.5990 H   0  0  0  0  0  0  0  0  0  0  0  0
    3.3930    5.8370   17.8880 N   0  0  0  0  0  0  0  0  0  0  0  0
    3.2170    4.3880   18.1010 C   0  0  0  0  0  0  0  0  0  0  0  0
    3.8430    3.6340   16.9360 C   0  0  0  0  0  0  0  0  0  0  0  0
    5.3010    4.0330   16.7700 C   0  0  2  0  0  0  0  0  0  0  0  0
    5.4560    5.5380   16.6190 C   0  0  0  0  0  0  0  0  0  0  0  0
    4.8030    6.2550   17.7920 C   0  0  0  0  0  0  0  0  0  0  0  0
    5.8000    3.4260   15.6590 F   0  0  0  0  0  0  0  0  0  0  0  0
    3.6800    4.0710   19.0440 H   0  0  0  0  0  0  0  0  0  0  0  0
    2.1490    4.1360   18.1490 H   0  0  0  0  0  0  0  0  0  0  0  0
    3.3000    3.8500   16.0060 H   0  0  0  0  0  0  0  0  0  0  0  0
    3.7670    2.5530   17.0930 H   0  0  0  0  0  0  0  0  0  0  0  0
    5.8880    3.6770   17.6250 H   0  0  0  0  0  0  0  0  0  0  0  0
    6.5190    5.7990   16.5520 H   0  0  0  0  0  0  0  0  0  0  0  0
    4.9990    5.8580   15.6740 H   0  0  0  0  0  0  0  0  0  0  0  0
    5.3480    6.0250   18.7170 H   0  0  0  0  0  0  0  0  0  0  0  0
    4.8680    7.3380   17.6250 H   0  0  0  0  0  0  0  0  0  0  0  0
   -2.8910   12.1970   20.1740 C   0  0  2  0  0  0  0  0  0  0  0  0
   -3.0520   11.3380   20.8410 H   0  0  0  0  0  0  0  0  0  0  0  0
   -3.7040   11.9130   18.9050 C   0  0  0  0  0  0  0  0  0  0  0  0
   -4.7760   11.8270   19.1140 H   0  0  0  0  0  0  0  0  0  0  0  0
   -3.3820   10.9760   18.4360 H   0  0  0  0  0  0  0  0  0  0  0  0
   -3.5710   12.7130   18.1690 H   0  0  0  0  0  0  0  0  0  0  0  0
   -3.3590   13.4790   20.8910 C   0  0  0  0  0  0  0  0  0  0  0  0
   -2.5380   14.2030   20.9580 H   0  0  0  0  0  0  0  0  0  0  0  0
   -4.1490   13.9750   20.3110 H   0  0  0  0  0  0  0  0  0  0  0  0
   -3.8670   13.1980   22.2640 C   0  0  0  0  0  0  0  0  0  0  0  0
   -5.0980   12.8630   22.5920 N   0  0  0  0  0  0  0  0  0  0  0  0
   -5.1470   12.6870   23.9550 N   0  0  0  0  0  0  0  0  0  0  0  0
   -3.9470   12.9240   24.4290 C   0  0  0  0  0  0  0  0  0  0  0  0
   -3.1110   13.2480   23.4060 N   0  0  0  0  0  0  0  0  0  0  0  0
   -3.6510   12.8740   25.4680 H   0  0  0  0  0  0  0  0  0  0  0  0
   -1.7160   13.5770   23.5200 C   0  0  0  0  0  0  0  0  0  0  0  0
   -1.5940   14.3020   24.3270 H   0  0  0  0  0  0  0  0  0  0  0  0
   -1.1440   12.6730   23.7470 H   0  0  0  0  0  0  0  0  0  0  0  0
   -1.3730   13.9960   22.5700 H   0  0  0  0  0  0  0  0  0  0  0  0
  1  2  1  0  0  0  0
  1 39  1  0  0  0  0
  2  7  1  0  0  0  0
  3  8  1  0  0  0  0
  3  2  2  0  0  0  0
  4  3  1  0  0  0  0
  5  4  2  0  0  0  0
  5  6  1  0  0  0  0
  6  1  2  0  0  0  0
  9  4  1  0  0  0  0
 10  6  1  0  0  0  0
 11  5  1  0  0  0  0
 11 12  1  0  0  0  0
 12 17  1  0  0  0  0
 13 14  1  0  0  0  0
 13 12  2  0  0  0  0
 14 15  2  0  0  0  0
 15 20  1  0  0  0  0
 15 16  1  0  0  0  0
 16 21  1  0  0  0  0
 17 16  2  0  0  0  0
 18 19  1  0  0  0  0
 18 13  1  0  0  0  0
 19 11  2  0  0  0  0
 22 18  1  0  0  0  0
 23 24  1  0  0  0  0
 23 14  1  0  0  0  0
 24 31  1  0  0  0  0
 24 30  1  0  0  0  0
 25 33  1  0  0  0  0
 25 24  1  0  0  0  0
 26 25  1  0  0  0  0
 26 34  1  1  0  0  0
 27 26  1  0  0  0  0
 27 28  1  0  0  0  0
 28 23  1  0  0  0  0
 28 37  1  0  0  0  0
 29 26  1  0  0  0  0
 32 25  1  0  0  0  0
 35 27  1  0  0  0  0
 36 27  1  0  0  0  0
 38 28  1  0  0  0  0
 39 40  1  1  0  0  0
 39 45  1  0  0  0  0
 41 42  1  0  0  0  0
 41 39  1  0  0  0  0
 43 41  1  0  0  0  0
 44 41  1  0  0  0  0
 45 46  1  0  0  0  0
 45 48  1  0  0  0  0
 47 45  1  0  0  0  0
 48 49  2  0  0  0  0
 48 52  1  0  0  0  0
 49 50  1  0  0  0  0
 50 51  2  0  0  0  0
 51 53  1  0  0  0  0
 52 54  1  0  0  0  0
 52 51  1  0  0  0  0
 54 56  1  0  0  0  0
 54 55  1  0  0  0  0
 57 54  1  0  0  0  0
M  END
>  <MODEL>
20

>  <REMARK>
 VINA RESULT:    -7.594      3.838     10.739
 INTER + INTRA:         -10.620
 INTER:                  -9.600
 INTRA:                  -1.019
 UNBOUND:                -0.362
  Name = 
  7 active torsions:
  status: ('A' for Active; 'I' for Inactive)
    1  A    between atoms: C_1  and  C_2
    2  A    between atoms: C_2  and  C_3
    3  A    between atoms: C_2  and  C_10
    4  A    between atoms: C_3  and  C_4
    5  A    between atoms: N_8  and  C_9
    6  A    between atoms: C_14  and  C_16
    7  A    between atoms: C_19  and  N_23
                            x       y       z     vdW  Elec       q    Type
                         _______ _______ _______ _____ _____    ______ ____

>  <TORSDO>
F 7

$$$$
=
 OpenBabel07192307433D

 57 61  0  0  1  0  0  0  0  0999 V2000
   -0.8460   11.9640   20.3130 C   0  0  0  0  0  0  0  0  0  0  0  0
   -2.0220   11.8940   19.5550 C   0  0  0  0  0  0  0  0  0  0  0  0
   -2.1390   10.9690   18.5180 C   0  0  0  0  0  0  0  0  0  0  0  0
   -1.0780   10.1110   18.2220 C   0  0  0  0  0  0  0  0  0  0  0  0
    0.1170   10.1630   18.9530 C   0  0  0  0  0  0  0  0  0  0  0  0
    0.2150   11.0920   20.0000 C   0  0  0  0  0  0  0  0  0  0  0  0
   -2.8580   12.5570   19.7640 H   0  0  0  0  0  0  0  0  0  0  0  0
   -3.0560   10.9140   17.9380 H   0  0  0  0  0  0  0  0  0  0  0  0
   -1.1910    9.3980   17.4070 H   0  0  0  0  0  0  0  0  0  0  0  0
    1.1240   11.1410   20.5940 H   0  0  0  0  0  0  0  0  0  0  0  0
    1.2300    9.2600   18.6220 C   0  0  0  0  0  0  0  0  0  0  0  0
    1.6430    8.0560   19.2860 C   0  0  0  0  0  0  0  0  0  0  0  0
    2.7300    7.5890   18.5670 C   0  0  0  0  0  0  0  0  0  0  0  0
    3.4220    6.4240   18.8920 C   0  0  0  0  0  0  0  0  0  0  0  0
    2.9230    5.7580   20.0140 C   0  0  0  0  0  0  0  0  0  0  0  0
    1.8310    6.2780   20.7000 C   0  0  0  0  0  0  0  0  0  0  0  0
    1.1650    7.4090   20.3840 N   0  0  0  0  0  0  0  0  0  0  0  0
    2.9110    8.4960   17.5670 N   0  0  0  0  0  0  0  0  0  0  0  0
    2.0360    9.5160   17.5700 N   0  0  0  0  0  0  0  0  0  0  0  0
    3.3730    4.8340   20.3600 H   0  0  0  0  0  0  0  0  0  0  0  0
    1.4440    5.7580   21.5730 H   0  0  0  0  0  0  0  0  0  0  0  0
    3.6280    8.4650   16.8510 H   0  0  0  0  0  0  0  0  0  0  0  0
    4.5080    5.9950   18.1210 N   0  0  0  0  0  0  0  0  0  0  0  0
    4.0890    5.0720   17.0480 C   0  0  0  0  0  0  0  0  0  0  0  0
    5.2670    4.8270   16.1150 C   0  0  0  0  0  0  0  0  0  0  0  0
    6.4660    4.3160   16.8990 C   0  0  2  0  0  0  0  0  0  0  0  0
    6.8320    5.2550   18.0380 C   0  0  0  0  0  0  0  0  0  0  0  0
    5.6260    5.4880   18.9370 C   0  0  0  0  0  0  0  0  0  0  0  0
    7.5290    4.2100   16.0570 F   0  0  0  0  0  0  0  0  0  0  0  0
    3.7380    4.1200   17.4650 H   0  0  0  0  0  0  0  0  0  0  0  0
    3.2670    5.5100   16.4680 H   0  0  0  0  0  0  0  0  0  0  0  0
    5.5420    5.7550   15.5960 H   0  0  0  0  0  0  0  0  0  0  0  0
    4.9960    4.1070   15.3360 H   0  0  0  0  0  0  0  0  0  0  0  0
    6.2600    3.3120   17.2880 H   0  0  0  0  0  0  0  0  0  0  0  0
    7.6650    4.8360   18.6140 H   0  0  0  0  0  0  0  0  0  0  0  0
    7.1890    6.2060   17.6240 H   0  0  0  0  0  0  0  0  0  0  0  0
    5.3540    4.5520   19.4430 H   0  0  0  0  0  0  0  0  0  0  0  0
    5.8960    6.2200   19.7080 H   0  0  0  0  0  0  0  0  0  0  0  0
   -0.6730   12.9790   21.4340 C   0  0  2  0  0  0  0  0  0  0  0  0
   -1.3660   13.8100   21.2420 H   0  0  0  0  0  0  0  0  0  0  0  0
    0.7350   13.5860   21.4340 C   0  0  0  0  0  0  0  0  0  0  0  0
    1.1080   13.7580   22.4500 H   0  0  0  0  0  0  0  0  0  0  0  0
    0.7470   14.5480   20.9100 H   0  0  0  0  0  0  0  0  0  0  0  0
    1.4460   12.9240   20.9260 H   0  0  0  0  0  0  0  0  0  0  0  0
   -1.0310   12.3350   22.7880 C   0  0  0  0  0  0  0  0  0  0  0  0
   -1.1160   11.2460   22.6850 H   0  0  0  0  0  0  0  0  0  0  0  0
   -0.2270   12.5050   23.5160 H   0  0  0  0  0  0  0  0  0  0  0  0
   -2.3090   12.8680   23.3400 C   0  0  0  0  0  0  0  0  0  0  0  0
   -3.5040   12.3290   23.2130 N   0  0  0  0  0  0  0  0  0  0  0  0
   -4.4080   13.1280   23.8740 N   0  0  0  0  0  0  0  0  0  0  0  0
   -3.7450   14.1380   24.3850 C   0  0  0  0  0  0  0  0  0  0  0  0
   -2.4260   14.0180   24.0760 N   0  0  0  0  0  0  0  0  0  0  0  0
   -4.1670   14.9490   24.9630 H   0  0  0  0  0  0  0  0  0  0  0  0
   -1.3790   14.9280   24.4540 C   0  0  0  0  0  0  0  0  0  0  0  0
   -0.7210   15.0770   23.5950 H   0  0  0  0  0  0  0  0  0  0  0  0
   -1.8150   15.8840   24.7550 H   0  0  0  0  0  0  0  0  0  0  0  0
   -0.8240   14.5000   25.2930 H   0  0  0  0  0  0  0  0  0  0  0  0
  1 39  1  0  0  0  0
  2  7  1  0  0  0  0
  2  1  2  0  0  0  0
  3  2  1  0  0  0  0
  4  3  2  0  0  0  0
  4  5  1  0  0  0  0
  5  6  2  0  0  0  0
  6  1  1  0  0  0  0
  6 10  1  0  0  0  0
  8  3  1  0  0  0  0
  9  4  1  0  0  0  0
 11  5  1  0  0  0  0
 11 12  1  0  0  0  0
 12 17  1  0  0  0  0
 13 14  1  0  0  0  0
 13 12  2  0  0  0  0
 14 15  2  0  0  0  0
 15 20  1  0  0  0  0
 15 16  1  0  0  0  0
 16 21  1  0  0  0  0
 17 16  2  0  0  0  0
 18 19  1  0  0  0  0
 18 13  1  0  0  0  0
 19 11  2  0  0  0  0
 22 18  1  0  0  0  0
 23 14  1  0  0  0  0
 23 28  1  0  0  0  0
 24 30  1  0  0  0  0
 24 23  1  0  0  0  0
 25 26  1  0  0  0  0
 25 24  1  0  0  0  0
 26 34  1  1  0  0  0
 26 27  1  0  0  0  0
 27 35  1  0  0  0  0
 27 28  1  0  0  0  0
 28 37  1  0  0  0  0
 28 38  1  0  0  0  0
 29 26  1  0  0  0  0
 31 24  1  0  0  0  0
 32 25  1  0  0  0  0
 33 25  1  0  0  0  0
 36 27  1  0  0  0  0
 39 40  1  6  0  0  0
 39 45  1  0  0  0  0
 41 39  1  0  0  0  0
 41 42  1  0  0  0  0
 43 41  1  0  0  0  0
 44 41  1  0  0  0  0
 45 48  1  0  0  0  0
 45 47  1  0  0  0  0
 46 45  1  0  0  0  0
 48 52  1  0  0  0  0
 49 48  2  0  0  0  0
 49 50  1  0  0  0  0
 50 51  2  0  0  0  0
 51 53  1  0  0  0  0
 52 51  1  0  0  0  0
 52 54  1  0  0  0  0
 54 56  1  0  0  0  0
 54 57  1  0  0  0  0
 55 54  1  0  0  0  0
M  END
>  <MODEL>
21

>  <REMARK>
 VINA RESULT:    -7.589      3.805     10.592
 INTER + INTRA:         -10.613
 INTER:                  -9.513
 INTRA:                  -1.100
 UNBOUND:                -0.362
  Name = 
  7 active torsions:
  status: ('A' for Active; 'I' for Inactive)
    1  A    between atoms: C_1  and  C_2
    2  A    between atoms: C_2  and  C_3
    3  A    between atoms: C_2  and  C_10
    4  A    between atoms: C_3  and  C_4
    5  A    between atoms: N_8  and  C_9
    6  A    between atoms: C_14  and  C_16
    7  A    between atoms: C_19  and  N_23
                            x       y       z     vdW  Elec       q    Type
                         _______ _______ _______ _____ _____    ______ ____

>  <TORSDO>
F 7

$$$$
=
 OpenBabel07192307433D

 57 61  0  0  1  0  0  0  0  0999 V2000
   -0.3680   11.3110   20.6430 C   0  0  0  0  0  0  0  0  0  0  0  0
   -1.4260   11.5320   19.7520 C   0  0  0  0  0  0  0  0  0  0  0  0
   -1.4900   10.8330   18.5470 C   0  0  0  0  0  0  0  0  0  0  0  0
   -0.4920    9.9150   18.2150 C   0  0  0  0  0  0  0  0  0  0  0  0
    0.5860    9.6790   19.0800 C   0  0  0  0  0  0  0  0  0  0  0  0
    0.6300   10.3820   20.2940 C   0  0  0  0  0  0  0  0  0  0  0  0
   -2.2100   12.2480   19.9860 H   0  0  0  0  0  0  0  0  0  0  0  0
   -2.3160   11.0040   17.8620 H   0  0  0  0  0  0  0  0  0  0  0  0
   -0.5620    9.3810   17.2690 H   0  0  0  0  0  0  0  0  0  0  0  0
    1.4460   10.2050   20.9890 H   0  0  0  0  0  0  0  0  0  0  0  0
    1.6350    8.7150   18.7130 C   0  0  0  0  0  0  0  0  0  0  0  0
    1.9950    7.4840   19.3570 C   0  0  0  0  0  0  0  0  0  0  0  0
    3.0340    6.9610   18.6050 C   0  0  0  0  0  0  0  0  0  0  0  0
    3.6650    5.7550   18.9030 C   0  0  0  0  0  0  0  0  0  0  0  0
    3.1590    5.1100   20.0350 C   0  0  0  0  0  0  0  0  0  0  0  0
    2.1190    5.6860   20.7540 C   0  0  0  0  0  0  0  0  0  0  0  0
    1.5110    6.8570   20.4640 N   0  0  0  0  0  0  0  0  0  0  0  0
    3.2390    7.8640   17.6070 N   0  0  0  0  0  0  0  0  0  0  0  0
    2.4260    8.9320   17.6400 N   0  0  0  0  0  0  0  0  0  0  0  0
    3.5640    4.1580   20.3620 H   0  0  0  0  0  0  0  0  0  0  0  0
    1.7260    5.1830   21.6340 H   0  0  0  0  0  0  0  0  0  0  0  0
    3.9340    7.7970   16.8710 H   0  0  0  0  0  0  0  0  0  0  0  0
    4.7030    5.2700   18.1000 N   0  0  0  0  0  0  0  0  0  0  0  0
    5.7900    6.2570   17.9510 C   0  0  0  0  0  0  0  0  0  0  0  0
    6.9760    5.5920   17.2670 C   0  0  0  0  0  0  0  0  0  0  0  0
    6.5480    4.9800   15.9420 C   0  0  2  0  0  0  0  0  0  0  0  0
    5.3850    4.0170   16.1200 C   0  0  0  0  0  0  0  0  0  0  0  0
    4.2270    4.7140   16.8210 C   0  0  0  0  0  0  0  0  0  0  0  0
    7.6020    4.3030   15.4100 F   0  0  0  0  0  0  0  0  0  0  0  0
    5.4550    7.1210   17.3630 H   0  0  0  0  0  0  0  0  0  0  0  0
    6.1110    6.6220   18.9350 H   0  0  0  0  0  0  0  0  0  0  0  0
    7.3960    4.8070   17.9110 H   0  0  0  0  0  0  0  0  0  0  0  0
    7.7800    6.3170   17.1020 H   0  0  0  0  0  0  0  0  0  0  0  0
    6.2790    5.7710   15.2320 H   0  0  0  0  0  0  0  0  0  0  0  0
    5.0670    3.6320   15.1440 H   0  0  0  0  0  0  0  0  0  0  0  0
    5.7160    3.1490   16.7020 H   0  0  0  0  0  0  0  0  0  0  0  0
    3.8210    5.5020   16.1730 H   0  0  0  0  0  0  0  0  0  0  0  0
    3.4300    3.9810   16.9980 H   0  0  0  0  0  0  0  0  0  0  0  0
   -0.2510   12.0740   21.9550 C   0  0  2  0  0  0  0  0  0  0  0  0
    0.6720   11.7460   22.4510 H   0  0  0  0  0  0  0  0  0  0  0  0
   -1.3980   11.7310   22.9130 C   0  0  0  0  0  0  0  0  0  0  0  0
   -1.9040   10.8010   22.6330 H   0  0  0  0  0  0  0  0  0  0  0  0
   -2.1510   12.5270   22.9230 H   0  0  0  0  0  0  0  0  0  0  0  0
   -1.0290   11.6130   23.9380 H   0  0  0  0  0  0  0  0  0  0  0  0
   -0.1560   13.5880   21.6770 C   0  0  0  0  0  0  0  0  0  0  0  0
   -1.0570   13.9410   21.1590 H   0  0  0  0  0  0  0  0  0  0  0  0
   -0.1150   14.1480   22.6210 H   0  0  0  0  0  0  0  0  0  0  0  0
    1.0380   13.9320   20.8540 C   0  0  0  0  0  0  0  0  0  0  0  0
    2.2990   13.7180   21.1720 N   0  0  0  0  0  0  0  0  0  0  0  0
    3.0860   14.1740   20.1410 N   0  0  0  0  0  0  0  0  0  0  0  0
    2.2890   14.6610   19.2190 C   0  0  0  0  0  0  0  0  0  0  0  0
    0.9960   14.5310   19.6220 N   0  0  0  0  0  0  0  0  0  0  0  0
    2.5950   15.1010   18.2810 H   0  0  0  0  0  0  0  0  0  0  0  0
   -0.1680   14.9460   18.8890 C   0  0  0  0  0  0  0  0  0  0  0  0
   -0.5080   15.9040   19.2900 H   0  0  0  0  0  0  0  0  0  0  0  0
    0.0850   15.0590   17.8310 H   0  0  0  0  0  0  0  0  0  0  0  0
   -0.9460   14.1860   18.9980 H   0  0  0  0  0  0  0  0  0  0  0  0
  1 39  1  0  0  0  0
  2  7  1  0  0  0  0
  2  1  2  0  0  0  0
  3  2  1  0  0  0  0
  4  3  2  0  0  0  0
  4  5  1  0  0  0  0
  5  6  2  0  0  0  0
  6  1  1  0  0  0  0
  6 10  1  0  0  0  0
  8  3  1  0  0  0  0
  9  4  1  0  0  0  0
 11  5  1  0  0  0  0
 11 12  1  0  0  0  0
 12 17  1  0  0  0  0
 13 14  1  0  0  0  0
 13 12  2  0  0  0  0
 14 15  2  0  0  0  0
 15 20  1  0  0  0  0
 15 16  1  0  0  0  0
 16 21  1  0  0  0  0
 17 16  2  0  0  0  0
 18 19  1  0  0  0  0
 18 13  1  0  0  0  0
 19 11  2  0  0  0  0
 22 18  1  0  0  0  0
 23 14  1  0  0  0  0
 24 23  1  0  0  0  0
 24 31  1  0  0  0  0
 25 32  1  0  0  0  0
 25 24  1  0  0  0  0
 26 34  1  6  0  0  0
 26 27  1  0  0  0  0
 26 25  1  0  0  0  0
 27 36  1  0  0  0  0
 27 28  1  0  0  0  0
 28 38  1  0  0  0  0
 28 23  1  0  0  0  0
 29 26  1  0  0  0  0
 30 24  1  0  0  0  0
 33 25  1  0  0  0  0
 35 27  1  0  0  0  0
 37 28  1  0  0  0  0
 39 40  1  1  0  0  0
 39 41  1  0  0  0  0
 41 43  1  0  0  0  0
 41 44  1  0  0  0  0
 42 41  1  0  0  0  0
 45 39  1  0  0  0  0
 45 47  1  0  0  0  0
 46 45  1  0  0  0  0
 48 49  2  0  0  0  0
 48 45  1  0  0  0  0
 50 49  1  0  0  0  0
 51 52  1  0  0  0  0
 51 50  2  0  0  0  0
 52 48  1  0  0  0  0
 53 51  1  0  0  0  0
 54 57  1  0  0  0  0
 54 55  1  0  0  0  0
 54 52  1  0  0  0  0
 56 54  1  0  0  0  0
M  END
>  <MODEL>
22

>  <REMARK>
 VINA RESULT:    -7.562      3.430      9.362
 INTER + INTRA:         -10.576
 INTER:                  -9.784
 INTRA:                  -0.793
 UNBOUND:                -0.362
  Name = 
  7 active torsions:
  status: ('A' for Active; 'I' for Inactive)
    1  A    between atoms: C_1  and  C_2
    2  A    between atoms: C_2  and  C_3
    3  A    between atoms: C_2  and  C_10
    4  A    between atoms: C_3  and  C_4
    5  A    between atoms: N_8  and  C_9
    6  A    between atoms: C_14  and  C_16
    7  A    between atoms: C_19  and  N_23
                            x       y       z     vdW  Elec       q    Type
                         _______ _______ _______ _____ _____    ______ ____

>  <TORSDO>
F 7

$$$$
=
 OpenBabel07192307433D

 57 61  0  0  1  0  0  0  0  0999 V2000
    2.7820    7.0980   18.8380 C   0  0  0  0  0  0  0  0  0  0  0  0
    2.9260    7.5180   17.5100 C   0  0  0  0  0  0  0  0  0  0  0  0
    2.3610    8.7200   17.0840 C   0  0  0  0  0  0  0  0  0  0  0  0
    1.6360    9.5080   17.9800 C   0  0  0  0  0  0  0  0  0  0  0  0
    1.4630    9.1120   19.3140 C   0  0  0  0  0  0  0  0  0  0  0  0
    2.0480    7.9050   19.7280 C   0  0  0  0  0  0  0  0  0  0  0  0
    3.4800    6.9160   16.7930 H   0  0  0  0  0  0  0  0  0  0  0  0
    2.4810    9.0440   16.0540 H   0  0  0  0  0  0  0  0  0  0  0  0
    1.2020   10.4420   17.6260 H   0  0  0  0  0  0  0  0  0  0  0  0
    1.9430    7.5830   20.7610 H   0  0  0  0  0  0  0  0  0  0  0  0
    0.6890    9.9490   20.2420 C   0  0  0  0  0  0  0  0  0  0  0  0
   -0.4630   10.7630   19.9770 C   0  0  0  0  0  0  0  0  0  0  0  0
   -0.8060   11.3300   21.1930 C   0  0  0  0  0  0  0  0  0  0  0  0
   -1.8880   12.1920   21.3590 C   0  0  0  0  0  0  0  0  0  0  0  0
   -2.6070   12.4400   20.1870 C   0  0  0  0  0  0  0  0  0  0  0  0
   -2.2120   11.8470   18.9940 C   0  0  0  0  0  0  0  0  0  0  0  0
   -1.1610   11.0140   18.8350 N   0  0  0  0  0  0  0  0  0  0  0  0
    0.1170   10.8590   22.0770 N   0  0  0  0  0  0  0  0  0  0  0  0
    1.0330   10.0340   21.5450 N   0  0  0  0  0  0  0  0  0  0  0  0
   -3.4760   13.0880   20.1930 H   0  0  0  0  0  0  0  0  0  0  0  0
   -2.7720   12.0400   18.0830 H   0  0  0  0  0  0  0  0  0  0  0  0
    0.1660   11.0780   23.0660 H   0  0  0  0  0  0  0  0  0  0  0  0
   -2.1940   12.7270   22.6160 N   0  0  0  0  0  0  0  0  0  0  0  0
   -3.6410   12.6740   22.8980 C   0  0  0  0  0  0  0  0  0  0  0  0
   -3.8780   13.0520   24.3540 C   0  0  0  0  0  0  0  0  0  0  0  0
   -3.2680   14.4120   24.6530 C   0  0  2  0  0  0  0  0  0  0  0  0
   -1.7920   14.4550   24.2910 C   0  0  0  0  0  0  0  0  0  0  0  0
   -1.5940   14.0550   22.8350 C   0  0  0  0  0  0  0  0  0  0  0  0
   -3.4020   14.6710   25.9820 F   0  0  0  0  0  0  0  0  0  0  0  0
   -4.1940   13.3560   22.2400 H   0  0  0  0  0  0  0  0  0  0  0  0
   -4.0260   11.6590   22.7320 H   0  0  0  0  0  0  0  0  0  0  0  0
   -3.4350   12.3000   25.0200 H   0  0  0  0  0  0  0  0  0  0  0  0
   -4.9510   13.0660   24.5760 H   0  0  0  0  0  0  0  0  0  0  0  0
   -3.8120   15.1960   24.1140 H   0  0  0  0  0  0  0  0  0  0  0  0
   -1.3920   15.4600   24.4710 H   0  0  0  0  0  0  0  0  0  0  0  0
   -1.2350   13.7790   24.9510 H   0  0  0  0  0  0  0  0  0  0  0  0
   -2.0500   14.8080   22.1790 H   0  0  0  0  0  0  0  0  0  0  0  0
   -0.5190   14.0270   22.6200 H   0  0  0  0  0  0  0  0  0  0  0  0
    3.3620    5.7800   19.3310 C   0  0  2  0  0  0  0  0  0  0  0  0
    3.4160    5.8280   20.4270 H   0  0  0  0  0  0  0  0  0  0  0  0
    4.7990    5.5760   18.8380 C   0  0  0  0  0  0  0  0  0  0  0  0
    5.4500    6.4140   19.1100 H   0  0  0  0  0  0  0  0  0  0  0  0
    4.8290    5.4740   17.7480 H   0  0  0  0  0  0  0  0  0  0  0  0
    5.2330    4.6650   19.2670 H   0  0  0  0  0  0  0  0  0  0  0  0
    2.4360    4.6140   18.9290 C   0  0  0  0  0  0  0  0  0  0  0  0
    1.4910    4.9960   18.5250 H   0  0  0  0  0  0  0  0  0  0  0  0
    2.8910    4.0260   18.1210 H   0  0  0  0  0  0  0  0  0  0  0  0
    2.1400    3.7130   20.0790 C   0  0  0  0  0  0  0  0  0  0  0  0
    1.0760    3.7550   20.8550 N   0  0  0  0  0  0  0  0  0  0  0  0
    1.1850    2.7510   21.7880 N   0  0  0  0  0  0  0  0  0  0  0  0
    2.3150    2.1230   21.5650 C   0  0  0  0  0  0  0  0  0  0  0  0
    2.9480    2.6910   20.5040 N   0  0  0  0  0  0  0  0  0  0  0  0
    2.6980    1.2830   22.1270 H   0  0  0  0  0  0  0  0  0  0  0  0
    4.2130    2.2870   19.9530 C   0  0  0  0  0  0  0  0  0  0  0  0
    4.8890    2.0450   20.7750 H   0  0  0  0  0  0  0  0  0  0  0  0
    4.0730    1.4060   19.3200 H   0  0  0  0  0  0  0  0  0  0  0  0
    4.6150    3.1070   19.3520 H   0  0  0  0  0  0  0  0  0  0  0  0
  1 39  1  0  0  0  0
  1  6  1  0  0  0  0
  2  1  2  0  0  0  0
  3  2  1  0  0  0  0
  3  4  2  0  0  0  0
  4  5  1  0  0  0  0
  5  6  2  0  0  0  0
  5 11  1  0  0  0  0
  6 10  1  0  0  0  0
  7  2  1  0  0  0  0
  8  3  1  0  0  0  0
  9  4  1  0  0  0  0
 11 19  2  0  0  0  0
 12 11  1  0  0  0  0
 12 13  1  0  0  0  0
 13 14  2  0  0  0  0
 13 18  1  0  0  0  0
 14 23  1  0  0  0  0
 15 20  1  0  0  0  0
 15 14  1  0  0  0  0
 16 15  2  0  0  0  0
 17 16  1  0  0  0  0
 17 12  2  0  0  0  0
 18 22  1  0  0  0  0
 19 18  1  0  0  0  0
 21 16  1  0  0  0  0
 23 28  1  0  0  0  0
 23 24  1  0  0  0  0
 24 25  1  0  0  0  0
 25 33  1  0  0  0  0
 25 26  1  0  0  0  0
 25 32  1  0  0  0  0
 26 34  1  6  0  0  0
 26 29  1  0  0  0  0
 27 35  1  0  0  0  0
 27 26  1  0  0  0  0
 27 36  1  0  0  0  0
 28 27  1  0  0  0  0
 30 24  1  0  0  0  0
 31 24  1  0  0  0  0
 37 28  1  0  0  0  0
 38 28  1  0  0  0  0
 39 40  1  1  0  0  0
 41 42  1  0  0  0  0
 41 44  1  0  0  0  0
 41 39  1  0  0  0  0
 43 41  1  0  0  0  0
 45 39  1  0  0  0  0
 45 48  1  0  0  0  0
 46 45  1  0  0  0  0
 47 45  1  0  0  0  0
 48 52  1  0  0  0  0
 48 49  2  0  0  0  0
 49 50  1  0  0  0  0
 51 50  2  0  0  0  0
 51 53  1  0  0  0  0
 52 51  1  0  0  0  0
 54 52  1  0  0  0  0
 54 55  1  0  0  0  0
 56 54  1  0  0  0  0
 57 54  1  0  0  0  0
M  END
>  <MODEL>
23

>  <REMARK>
 VINA RESULT:    -7.524      4.111      5.957
 INTER + INTRA:         -10.526
 INTER:                  -9.691
 INTRA:                  -0.835
 UNBOUND:                -0.362
  Name = 
  7 active torsions:
  status: ('A' for Active; 'I' for Inactive)
    1  A    between atoms: C_1  and  C_2
    2  A    between atoms: C_2  and  C_3
    3  A    between atoms: C_2  and  C_10
    4  A    between atoms: C_3  and  C_4
    5  A    between atoms: N_8  and  C_9
    6  A    between atoms: C_14  and  C_16
    7  A    between atoms: C_19  and  N_23
                            x       y       z     vdW  Elec       q    Type
                         _______ _______ _______ _____ _____    ______ ____

>  <TORSDO>
F 7

$$$$
=
 OpenBabel07192307433D

 57 61  0  0  1  0  0  0  0  0999 V2000
   -0.6000   13.1340   20.8990 C   0  0  0  0  0  0  0  0  0  0  0  0
   -1.3410   13.2240   22.0840 C   0  0  0  0  0  0  0  0  0  0  0  0
   -1.3900   12.1470   22.9690 C   0  0  0  0  0  0  0  0  0  0  0  0
   -0.7060   10.9660   22.6730 C   0  0  0  0  0  0  0  0  0  0  0  0
    0.0360   10.8390   21.4910 C   0  0  0  0  0  0  0  0  0  0  0  0
    0.0840   11.9360   20.6160 C   0  0  0  0  0  0  0  0  0  0  0  0
   -1.8880   14.1310   22.3310 H   0  0  0  0  0  0  0  0  0  0  0  0
   -1.9620   12.2240   23.8900 H   0  0  0  0  0  0  0  0  0  0  0  0
   -0.7590   10.1380   23.3780 H   0  0  0  0  0  0  0  0  0  0  0  0
    0.6660   11.8700   19.7010 H   0  0  0  0  0  0  0  0  0  0  0  0
    0.7430    9.5860   21.1890 C   0  0  0  0  0  0  0  0  0  0  0  0
    1.2450    9.1140   19.9300 C   0  0  0  0  0  0  0  0  0  0  0  0
    1.8320    7.8880   20.1990 C   0  0  0  0  0  0  0  0  0  0  0  0
    2.4480    7.1030   19.2270 C   0  0  0  0  0  0  0  0  0  0  0  0
    2.4250    7.6580   17.9450 C   0  0  0  0  0  0  0  0  0  0  0  0
    1.8170    8.8890   17.7340 C   0  0  0  0  0  0  0  0  0  0  0  0
    1.2180    9.6470   18.6780 N   0  0  0  0  0  0  0  0  0  0  0  0
    1.6500    7.6940   21.5340 N   0  0  0  0  0  0  0  0  0  0  0  0
    0.9960    8.6850   22.1620 N   0  0  0  0  0  0  0  0  0  0  0  0
    2.8810    7.1430   17.1060 H   0  0  0  0  0  0  0  0  0  0  0  0
    1.8000    9.3200   16.7360 H   0  0  0  0  0  0  0  0  0  0  0  0
    1.9560    6.8890   22.0700 H   0  0  0  0  0  0  0  0  0  0  0  0
    3.0340    5.8770   19.5600 N   0  0  0  0  0  0  0  0  0  0  0  0
    4.1460    5.5350   18.6520 C   0  0  0  0  0  0  0  0  0  0  0  0
    4.8810    4.3200   19.2000 C   0  0  0  0  0  0  0  0  0  0  0  0
    3.9130    3.1660   19.4100 C   0  0  2  0  0  0  0  0  0  0  0  0
    2.7450    3.5680   20.2960 C   0  0  0  0  0  0  0  0  0  0  0  0
    2.0470    4.7950   19.7240 C   0  0  0  0  0  0  0  0  0  0  0  0
    4.5780    2.1350   19.9990 F   0  0  0  0  0  0  0  0  0  0  0  0
    3.7740    5.3220   17.6410 H   0  0  0  0  0  0  0  0  0  0  0  0
    4.8530    6.3710   18.5820 H   0  0  0  0  0  0  0  0  0  0  0  0
    5.3640    4.5660   20.1550 H   0  0  0  0  0  0  0  0  0  0  0  0
    5.6820    4.0160   18.5180 H   0  0  0  0  0  0  0  0  0  0  0  0
    3.5450    2.8030   18.4430 H   0  0  0  0  0  0  0  0  0  0  0  0
    2.0400    2.7330   20.3880 H   0  0  0  0  0  0  0  0  0  0  0  0
    3.1120    3.7760   21.3090 H   0  0  0  0  0  0  0  0  0  0  0  0
    1.5760    4.5400   18.7660 H   0  0  0  0  0  0  0  0  0  0  0  0
    1.2550    5.1050   20.4170 H   0  0  0  0  0  0  0  0  0  0  0  0
   -0.5460   14.2790   19.8980 C   0  0  2  0  0  0  0  0  0  0  0  0
   -1.5110   14.8020   19.9370 H   0  0  0  0  0  0  0  0  0  0  0  0
   -0.3940   13.7660   18.4610 C   0  0  0  0  0  0  0  0  0  0  0  0
    0.6550   13.6130   18.1870 H   0  0  0  0  0  0  0  0  0  0  0  0
   -0.8220   14.4770   17.7450 H   0  0  0  0  0  0  0  0  0  0  0  0
   -0.9150   12.8110   18.3300 H   0  0  0  0  0  0  0  0  0  0  0  0
    0.5720   15.2670   20.2860 C   0  0  0  0  0  0  0  0  0  0  0  0
    0.2460   16.3010   20.1180 H   0  0  0  0  0  0  0  0  0  0  0  0
    0.7910   15.1930   21.3600 H   0  0  0  0  0  0  0  0  0  0  0  0
    1.8250   15.0260   19.5150 C   0  0  0  0  0  0  0  0  0  0  0  0
    2.0100   15.2470   18.2300 N   0  0  0  0  0  0  0  0  0  0  0  0
    3.3040   14.8990   17.9170 N   0  0  0  0  0  0  0  0  0  0  0  0
    3.8760   14.4700   19.0160 C   0  0  0  0  0  0  0  0  0  0  0  0
    2.9880   14.5300   20.0440 N   0  0  0  0  0  0  0  0  0  0  0  0
    4.8950   14.1180   19.1080 H   0  0  0  0  0  0  0  0  0  0  0  0
    3.2380   14.1460   21.4070 C   0  0  0  0  0  0  0  0  0  0  0  0
    3.9830   14.8240   21.8290 H   0  0  0  0  0  0  0  0  0  0  0  0
    2.3100   14.2130   21.9820 H   0  0  0  0  0  0  0  0  0  0  0  0
    3.6020   13.1150   21.4230 H   0  0  0  0  0  0  0  0  0  0  0  0
  1  2  1  0  0  0  0
  2  7  1  0  0  0  0
  2  3  2  0  0  0  0
  3  8  1  0  0  0  0
  4  3  1  0  0  0  0
  4  9  1  0  0  0  0
  5  4  2  0  0  0  0
  6  1  2  0  0  0  0
  6  5  1  0  0  0  0
 10  6  1  0  0  0  0
 11  5  1  0  0  0  0
 11 19  2  0  0  0  0
 12 13  1  0  0  0  0
 12 11  1  0  0  0  0
 13 18  1  0  0  0  0
 14 23  1  0  0  0  0
 14 13  2  0  0  0  0
 15 14  1  0  0  0  0
 16 15  2  0  0  0  0
 16 17  1  0  0  0  0
 17 12  2  0  0  0  0
 18 22  1  0  0  0  0
 18 19  1  0  0  0  0
 20 15  1  0  0  0  0
 21 16  1  0  0  0  0
 23 28  1  0  0  0  0
 24 25  1  0  0  0  0
 24 23  1  0  0  0  0
 25 26  1  0  0  0  0
 25 32  1  0  0  0  0
 26 34  1  6  0  0  0
 26 29  1  0  0  0  0
 26 27  1  0  0  0  0
 27 35  1  0  0  0  0
 27 36  1  0  0  0  0
 28 27  1  0  0  0  0
 28 38  1  0  0  0  0
 30 24  1  0  0  0  0
 31 24  1  0  0  0  0
 33 25  1  0  0  0  0
 37 28  1  0  0  0  0
 39 40  1  1  0  0  0
 39 45  1  0  0  0  0
 39  1  1  0  0  0  0
 41 39  1  0  0  0  0
 42 41  1  0  0  0  0
 43 41  1  0  0  0  0
 44 41  1  0  0  0  0
 45 47  1  0  0  0  0
 46 45  1  0  0  0  0
 48 52  1  0  0  0  0
 48 45  1  0  0  0  0
 49 48  2  0  0  0  0
 50 49  1  0  0  0  0
 50 51  2  0  0  0  0
 51 53  1  0  0  0  0
 51 52  1  0  0  0  0
 52 54  1  0  0  0  0
 54 57  1  0  0  0  0
 54 55  1  0  0  0  0
 54 56  1  0  0  0  0
M  END
>  <MODEL>
24

>  <REMARK>
 VINA RESULT:    -7.471      4.313      9.559
 INTER + INTRA:         -10.454
 INTER:                  -9.967
 INTRA:                  -0.487
 UNBOUND:                -0.362
  Name = 
  7 active torsions:
  status: ('A' for Active; 'I' for Inactive)
    1  A    between atoms: C_1  and  C_2
    2  A    between atoms: C_2  and  C_3
    3  A    between atoms: C_2  and  C_10
    4  A    between atoms: C_3  and  C_4
    5  A    between atoms: N_8  and  C_9
    6  A    between atoms: C_14  and  C_16
    7  A    between atoms: C_19  and  N_23
                            x       y       z     vdW  Elec       q    Type
                         _______ _______ _______ _____ _____    ______ ____

>  <TORSDO>
F 7

$$$$
=
 OpenBabel07192307433D

 57 61  0  0  1  0  0  0  0  0999 V2000
   -1.8250   12.1050   20.0990 C   0  0  0  0  0  0  0  0  0  0  0  0
   -1.3200   13.0990   20.9470 C   0  0  0  0  0  0  0  0  0  0  0  0
   -0.1360   12.8890   21.6530 C   0  0  0  0  0  0  0  0  0  0  0  0
    0.5480   11.6780   21.5290 C   0  0  0  0  0  0  0  0  0  0  0  0
    0.0640   10.6580   20.6980 C   0  0  0  0  0  0  0  0  0  0  0  0
   -1.1230   10.8900   19.9850 C   0  0  0  0  0  0  0  0  0  0  0  0
   -1.8410   14.0470   21.0650 H   0  0  0  0  0  0  0  0  0  0  0  0
    0.2550   13.6670   22.3040 H   0  0  0  0  0  0  0  0  0  0  0  0
    1.4700   11.5360   22.0910 H   0  0  0  0  0  0  0  0  0  0  0  0
   -1.5110   10.1220   19.3220 H   0  0  0  0  0  0  0  0  0  0  0  0
    0.7910    9.3850   20.5850 C   0  0  0  0  0  0  0  0  0  0  0  0
    1.5350    8.8670   19.4720 C   0  0  0  0  0  0  0  0  0  0  0  0
    2.0260    7.6420   19.8910 C   0  0  0  0  0  0  0  0  0  0  0  0
    2.8140    6.8170   19.0910 C   0  0  0  0  0  0  0  0  0  0  0  0
    3.0710    7.3330   17.8180 C   0  0  0  0  0  0  0  0  0  0  0  0
    2.5460    8.5650   17.4510 C   0  0  0  0  0  0  0  0  0  0  0  0
    1.7810    9.3620   18.2280 N   0  0  0  0  0  0  0  0  0  0  0  0
    1.5660    7.4920   21.1640 N   0  0  0  0  0  0  0  0  0  0  0  0
    0.8170    8.5110   21.6140 N   0  0  0  0  0  0  0  0  0  0  0  0
    3.6810    6.7850   17.1080 H   0  0  0  0  0  0  0  0  0  0  0  0
    2.7470    8.9650   16.4600 H   0  0  0  0  0  0  0  0  0  0  0  0
    1.7360    6.6990   21.7740 H   0  0  0  0  0  0  0  0  0  0  0  0
    3.2920    5.5940   19.5730 N   0  0  0  0  0  0  0  0  0  0  0  0
    4.4350    5.1000   18.7810 C   0  0  0  0  0  0  0  0  0  0  0  0
    5.0480    3.8980   19.4860 C   0  0  0  0  0  0  0  0  0  0  0  0
    3.9910    2.8310   19.7270 C   0  0  2  0  0  0  0  0  0  0  0  0
    2.7980    3.3860   20.4880 C   0  0  0  0  0  0  0  0  0  0  0  0
    2.2250    4.5950   19.7610 C   0  0  0  0  0  0  0  0  0  0  0  0
    4.5440    1.8200   20.4520 F   0  0  0  0  0  0  0  0  0  0  0  0
    4.1170    4.8180   17.7690 H   0  0  0  0  0  0  0  0  0  0  0  0
    5.2010    5.8810   18.6880 H   0  0  0  0  0  0  0  0  0  0  0  0
    5.4830    4.2010   20.4480 H   0  0  0  0  0  0  0  0  0  0  0  0
    5.8700    3.4830   18.8930 H   0  0  0  0  0  0  0  0  0  0  0  0
    3.6640    2.4030   18.7720 H   0  0  0  0  0  0  0  0  0  0  0  0
    2.0330    2.6080   20.6030 H   0  0  0  0  0  0  0  0  0  0  0  0
    3.1100    3.6640   21.5030 H   0  0  0  0  0  0  0  0  0  0  0  0
    1.8020    4.2810   18.7980 H   0  0  0  0  0  0  0  0  0  0  0  0
    1.4120    5.0160   20.3650 H   0  0  0  0  0  0  0  0  0  0  0  0
   -3.1280   12.2890   19.3340 C   0  0  2  0  0  0  0  0  0  0  0  0
   -2.9280   12.9710   18.4950 H   0  0  0  0  0  0  0  0  0  0  0  0
   -4.1990   12.9700   20.1940 C   0  0  0  0  0  0  0  0  0  0  0  0
   -3.9830   12.8820   21.2650 H   0  0  0  0  0  0  0  0  0  0  0  0
   -5.1840   12.5240   20.0180 H   0  0  0  0  0  0  0  0  0  0  0  0
   -4.2710   14.0370   19.9560 H   0  0  0  0  0  0  0  0  0  0  0  0
   -3.6050   10.9350   18.7710 C   0  0  0  0  0  0  0  0  0  0  0  0
   -2.9920   10.1170   19.1690 H   0  0  0  0  0  0  0  0  0  0  0  0
   -4.6320   10.7260   19.0990 H   0  0  0  0  0  0  0  0  0  0  0  0
   -3.5510   10.8970   17.2820 C   0  0  0  0  0  0  0  0  0  0  0  0
   -4.4320   11.4170   16.4520 N   0  0  0  0  0  0  0  0  0  0  0  0
   -4.0090   11.1690   15.1670 N   0  0  0  0  0  0  0  0  0  0  0  0
   -2.8830   10.5000   15.2420 C   0  0  0  0  0  0  0  0  0  0  0  0
   -2.5560   10.3060   16.5480 N   0  0  0  0  0  0  0  0  0  0  0  0
   -2.2940   10.1490   14.4060 H   0  0  0  0  0  0  0  0  0  0  0  0
   -1.3960    9.6140   17.0400 C   0  0  0  0  0  0  0  0  0  0  0  0
   -0.6710   10.3540   17.3870 H   0  0  0  0  0  0  0  0  0  0  0  0
   -1.6820    8.9630   17.8700 H   0  0  0  0  0  0  0  0  0  0  0  0
   -0.9740    9.0110   16.2320 H   0  0  0  0  0  0  0  0  0  0  0  0
  1  2  1  0  0  0  0
  2  7  1  0  0  0  0
  2  3  2  0  0  0  0
  3  8  1  0  0  0  0
  4  3  1  0  0  0  0
  4  9  1  0  0  0  0
  5  4  2  0  0  0  0
  6  1  2  0  0  0  0
  6  5  1  0  0  0  0
 10  6  1  0  0  0  0
 11  5  1  0  0  0  0
 11 19  2  0  0  0  0
 12 13  1  0  0  0  0
 12 11  1  0  0  0  0
 13 18  1  0  0  0  0
 14 23  1  0  0  0  0
 14 13  2  0  0  0  0
 15 14  1  0  0  0  0
 16 15  2  0  0  0  0
 16 17  1  0  0  0  0
 17 12  2  0  0  0  0
 18 19  1  0  0  0  0
 18 22  1  0  0  0  0
 20 15  1  0  0  0  0
 21 16  1  0  0  0  0
 23 28  1  0  0  0  0
 24 25  1  0  0  0  0
 24 23  1  0  0  0  0
 25 26  1  0  0  0  0
 25 32  1  0  0  0  0
 26 34  1  6  0  0  0
 26 29  1  0  0  0  0
 26 27  1  0  0  0  0
 27 35  1  0  0  0  0
 27 36  1  0  0  0  0
 28 38  1  0  0  0  0
 28 27  1  0  0  0  0
 30 24  1  0  0  0  0
 31 24  1  0  0  0  0
 33 25  1  0  0  0  0
 37 28  1  0  0  0  0
 39 40  1  6  0  0  0
 39  1  1  0  0  0  0
 39 41  1  0  0  0  0
 41 42  1  0  0  0  0
 43 41  1  0  0  0  0
 44 41  1  0  0  0  0
 45 47  1  0  0  0  0
 45 46  1  0  0  0  0
 45 39  1  0  0  0  0
 48 45  1  0  0  0  0
 49 48  2  0  0  0  0
 50 51  2  0  0  0  0
 50 49  1  0  0  0  0
 51 52  1  0  0  0  0
 52 54  1  0  0  0  0
 52 48  1  0  0  0  0
 53 51  1  0  0  0  0
 54 55  1  0  0  0  0
 54 56  1  0  0  0  0
 57 54  1  0  0  0  0
M  END
>  <MODEL>
25

>  <REMARK>
 VINA RESULT:    -7.455      4.342      9.507
 INTER + INTRA:         -10.432
 INTER:                  -9.551
 INTRA:                  -0.881
 UNBOUND:                -0.362
  Name = 
  7 active torsions:
  status: ('A' for Active; 'I' for Inactive)
    1  A    between atoms: C_1  and  C_2
    2  A    between atoms: C_2  and  C_3
    3  A    between atoms: C_2  and  C_10
    4  A    between atoms: C_3  and  C_4
    5  A    between atoms: N_8  and  C_9
    6  A    between atoms: C_14  and  C_16
    7  A    between atoms: C_19  and  N_23
                            x       y       z     vdW  Elec       q    Type
                         _______ _______ _______ _____ _____    ______ ____

>  <TORSDO>
F 7

$$$$
=
 OpenBabel07192307433D

 57 61  0  0  1  0  0  0  0  0999 V2000
   -0.7240   10.9060   21.4580 C   0  0  0  0  0  0  0  0  0  0  0  0
   -0.6750   10.5160   22.8030 C   0  0  0  0  0  0  0  0  0  0  0  0
    0.1180    9.4390   23.1970 C   0  0  0  0  0  0  0  0  0  0  0  0
    0.8610    8.7320   22.2490 C   0  0  0  0  0  0  0  0  0  0  0  0
    0.8260    9.0890   20.8940 C   0  0  0  0  0  0  0  0  0  0  0  0
    0.0320   10.1830   20.5160 C   0  0  0  0  0  0  0  0  0  0  0  0
   -1.2510   11.0470   23.5570 H   0  0  0  0  0  0  0  0  0  0  0  0
    0.1570    9.1450   24.2430 H   0  0  0  0  0  0  0  0  0  0  0  0
    1.4720    7.8940   22.5790 H   0  0  0  0  0  0  0  0  0  0  0  0
    0.0000   10.4900   19.4740 H   0  0  0  0  0  0  0  0  0  0  0  0
    1.6060    8.3290   19.9060 C   0  0  0  0  0  0  0  0  0  0  0  0
    2.0300    6.9580   19.9520 C   0  0  0  0  0  0  0  0  0  0  0  0
    2.7240    6.7440   18.7720 C   0  0  0  0  0  0  0  0  0  0  0  0
    3.2960    5.5200   18.4310 C   0  0  0  0  0  0  0  0  0  0  0  0
    3.1120    4.5170   19.3870 C   0  0  0  0  0  0  0  0  0  0  0  0
    2.4130    4.7930   20.5550 C   0  0  0  0  0  0  0  0  0  0  0  0
    1.8610    5.9810   20.8840 N   0  0  0  0  0  0  0  0  0  0  0  0
    2.6900    7.9380   18.1190 N   0  0  0  0  0  0  0  0  0  0  0  0
    2.0360    8.9150   18.7680 N   0  0  0  0  0  0  0  0  0  0  0  0
    3.5060    3.5180   19.2290 H   0  0  0  0  0  0  0  0  0  0  0  0
    2.2700    4.0120   21.2970 H   0  0  0  0  0  0  0  0  0  0  0  0
    3.1080    8.1390   17.2170 H   0  0  0  0  0  0  0  0  0  0  0  0
    3.9760    5.3580   17.2190 N   0  0  0  0  0  0  0  0  0  0  0  0
    4.5940    4.0230   17.1090 C   0  0  0  0  0  0  0  0  0  0  0  0
    5.1140    3.8300   15.6920 C   0  0  0  0  0  0  0  0  0  0  0  0
    6.0690    4.9540   15.3210 C   0  0  2  0  0  0  0  0  0  0  0  0
    5.4250    6.3190   15.5060 C   0  0  0  0  0  0  0  0  0  0  0  0
    4.9030    6.4660   16.9290 C   0  0  0  0  0  0  0  0  0  0  0  0
    6.4300    4.8120   14.0170 F   0  0  0  0  0  0  0  0  0  0  0  0
    5.4160    3.9110   17.8280 H   0  0  0  0  0  0  0  0  0  0  0  0
    3.8530    3.2410   17.3210 H   0  0  0  0  0  0  0  0  0  0  0  0
    4.2790    3.8120   14.9790 H   0  0  0  0  0  0  0  0  0  0  0  0
    5.6200    2.8630   15.5970 H   0  0  0  0  0  0  0  0  0  0  0  0
    6.9840    4.8830   15.9200 H   0  0  0  0  0  0  0  0  0  0  0  0
    6.1520    7.1080   15.2800 H   0  0  0  0  0  0  0  0  0  0  0  0
    4.6070    6.4360   14.7860 H   0  0  0  0  0  0  0  0  0  0  0  0
    5.7450    6.4730   17.6340 H   0  0  0  0  0  0  0  0  0  0  0  0
    4.3840    7.4290   17.0160 H   0  0  0  0  0  0  0  0  0  0  0  0
   -1.5980   12.0590   20.9880 C   0  0  2  0  0  0  0  0  0  0  0  0
   -2.0100   11.7870   20.0070 H   0  0  0  0  0  0  0  0  0  0  0  0
   -0.7790   13.3370   20.7700 C   0  0  0  0  0  0  0  0  0  0  0  0
   -0.9230   14.0610   21.5790 H   0  0  0  0  0  0  0  0  0  0  0  0
   -1.0620   13.8280   19.8320 H   0  0  0  0  0  0  0  0  0  0  0  0
    0.2920   13.1100   20.7130 H   0  0  0  0  0  0  0  0  0  0  0  0
   -2.7620   12.2740   21.9750 C   0  0  0  0  0  0  0  0  0  0  0  0
   -3.3470   11.3520   22.0860 H   0  0  0  0  0  0  0  0  0  0  0  0
   -2.3770   12.5060   22.9770 H   0  0  0  0  0  0  0  0  0  0  0  0
   -3.6710   13.3720   21.5380 C   0  0  0  0  0  0  0  0  0  0  0  0
   -3.8160   14.5480   22.1140 N   0  0  0  0  0  0  0  0  0  0  0  0
   -4.7430   15.2660   21.3970 N   0  0  0  0  0  0  0  0  0  0  0  0
   -5.1470   14.5120   20.4020 C   0  0  0  0  0  0  0  0  0  0  0  0
   -4.5030   13.3160   20.4500 N   0  0  0  0  0  0  0  0  0  0  0  0
   -5.8770   14.7840   19.6530 H   0  0  0  0  0  0  0  0  0  0  0  0
   -4.6740   12.2210   19.5340 C   0  0  0  0  0  0  0  0  0  0  0  0
   -5.7310   12.1520   19.2680 H   0  0  0  0  0  0  0  0  0  0  0  0
   -4.0790   12.3990   18.6340 H   0  0  0  0  0  0  0  0  0  0  0  0
   -4.3370   11.3000   20.0160 H   0  0  0  0  0  0  0  0  0  0  0  0
  1  2  1  0  0  0  0
  2  3  2  0  0  0  0
  2  7  1  0  0  0  0
  3  8  1  0  0  0  0
  4  9  1  0  0  0  0
  4  3  1  0  0  0  0
  5  4  2  0  0  0  0
  6  5  1  0  0  0  0
  6  1  2  0  0  0  0
 10  6  1  0  0  0  0
 11 12  1  0  0  0  0
 11  5  1  0  0  0  0
 12 17  1  0  0  0  0
 13 12  2  0  0  0  0
 14 13  1  0  0  0  0
 14 15  2  0  0  0  0
 15 16  1  0  0  0  0
 16 17  2  0  0  0  0
 16 21  1  0  0  0  0
 18 19  1  0  0  0  0
 18 13  1  0  0  0  0
 19 11  2  0  0  0  0
 20 15  1  0  0  0  0
 22 18  1  0  0  0  0
 23 14  1  0  0  0  0
 24 23  1  0  0  0  0
 24 31  1  0  0  0  0
 24 30  1  0  0  0  0
 25 24  1  0  0  0  0
 26 27  1  0  0  0  0
 26 25  1  0  0  0  0
 26 34  1  1  0  0  0
 27 28  1  0  0  0  0
 28 38  1  0  0  0  0
 28 23  1  0  0  0  0
 28 37  1  0  0  0  0
 29 26  1  0  0  0  0
 32 25  1  0  0  0  0
 33 25  1  0  0  0  0
 35 27  1  0  0  0  0
 36 27  1  0  0  0  0
 39 40  1  6  0  0  0
 39  1  1  0  0  0  0
 39 45  1  0  0  0  0
 41 39  1  0  0  0  0
 41 42  1  0  0  0  0
 43 41  1  0  0  0  0
 44 41  1  0  0  0  0
 45 46  1  0  0  0  0
 45 47  1  0  0  0  0
 48 45  1  0  0  0  0
 48 49  2  0  0  0  0
 50 49  1  0  0  0  0
 51 52  1  0  0  0  0
 51 50  2  0  0  0  0
 52 48  1  0  0  0  0
 53 51  1  0  0  0  0
 54 57  1  0  0  0  0
 54 52  1  0  0  0  0
 55 54  1  0  0  0  0
 56 54  1  0  0  0  0
M  END
>  <MODEL>
26

>  <REMARK>
 VINA RESULT:    -7.335      3.709     10.453
 INTER + INTRA:         -10.270
 INTER:                 -10.107
 INTRA:                  -0.163
 UNBOUND:                -0.362
  Name = 
  7 active torsions:
  status: ('A' for Active; 'I' for Inactive)
    1  A    between atoms: C_1  and  C_2
    2  A    between atoms: C_2  and  C_3
    3  A    between atoms: C_2  and  C_10
    4  A    between atoms: C_3  and  C_4
    5  A    between atoms: N_8  and  C_9
    6  A    between atoms: C_14  and  C_16
    7  A    between atoms: C_19  and  N_23
                            x       y       z     vdW  Elec       q    Type
                         _______ _______ _______ _____ _____    ______ ____

>  <TORSDO>
F 7

$$$$
=
 OpenBabel07192307433D

 57 61  0  0  1  0  0  0  0  0999 V2000
   -0.0530   13.1620   19.3200 C   0  0  0  0  0  0  0  0  0  0  0  0
    0.8700   14.0990   18.8390 C   0  0  0  0  0  0  0  0  0  0  0  0
    2.0710   13.6770   18.2690 C   0  0  0  0  0  0  0  0  0  0  0  0
    2.3650   12.3150   18.1830 C   0  0  0  0  0  0  0  0  0  0  0  0
    1.4680   11.3510   18.6650 C   0  0  0  0  0  0  0  0  0  0  0  0
    0.2590   11.7920   19.2260 C   0  0  0  0  0  0  0  0  0  0  0  0
    0.6650   15.1650   18.9030 H   0  0  0  0  0  0  0  0  0  0  0  0
    2.7810   14.4080   17.8910 H   0  0  0  0  0  0  0  0  0  0  0  0
    3.3090   12.0080   17.7350 H   0  0  0  0  0  0  0  0  0  0  0  0
   -0.4610   11.0650   19.5920 H   0  0  0  0  0  0  0  0  0  0  0  0
    1.7960    9.9210   18.5760 C   0  0  0  0  0  0  0  0  0  0  0  0
    1.6200    8.8920   19.5610 C   0  0  0  0  0  0  0  0  0  0  0  0
    2.0810    7.7270   18.9690 C   0  0  0  0  0  0  0  0  0  0  0  0
    2.0740    6.4880   19.6060 C   0  0  0  0  0  0  0  0  0  0  0  0
    1.5590    6.5170   20.9050 C   0  0  0  0  0  0  0  0  0  0  0  0
    1.1170    7.7170   21.4490 C   0  0  0  0  0  0  0  0  0  0  0  0
    1.1270    8.9160   20.8300 N   0  0  0  0  0  0  0  0  0  0  0  0
    2.4970    8.1010   17.7280 N   0  0  0  0  0  0  0  0  0  0  0  0
    2.3500    9.4080   17.4560 N   0  0  0  0  0  0  0  0  0  0  0  0
    1.4940    5.6110   21.4990 H   0  0  0  0  0  0  0  0  0  0  0  0
    0.7170    7.7370   22.4600 H   0  0  0  0  0  0  0  0  0  0  0  0
    2.8980    7.4940   17.0210 H   0  0  0  0  0  0  0  0  0  0  0  0
    2.5410    5.3430   18.9540 N   0  0  0  0  0  0  0  0  0  0  0  0
    1.5990    4.2140   19.0810 C   0  0  0  0  0  0  0  0  0  0  0  0
    2.0500    3.0830   18.1670 C   0  0  0  0  0  0  0  0  0  0  0  0
    3.4860    2.6910   18.4800 C   0  0  2  0  0  0  0  0  0  0  0  0
    4.4220    3.8870   18.4040 C   0  0  0  0  0  0  0  0  0  0  0  0
    3.9280    5.0010   19.3170 C   0  0  0  0  0  0  0  0  0  0  0  0
    3.8930    1.7570   17.5780 F   0  0  0  0  0  0  0  0  0  0  0  0
    1.5510    3.8600   20.1190 H   0  0  0  0  0  0  0  0  0  0  0  0
    0.5890    4.5250   18.7830 H   0  0  0  0  0  0  0  0  0  0  0  0
    1.9780    3.3910   17.1160 H   0  0  0  0  0  0  0  0  0  0  0  0
    1.3930    2.2140   18.2790 H   0  0  0  0  0  0  0  0  0  0  0  0
    3.5430    2.2300   19.4720 H   0  0  0  0  0  0  0  0  0  0  0  0
    5.4380    3.5850   18.6820 H   0  0  0  0  0  0  0  0  0  0  0  0
    4.4780    4.2410   17.3670 H   0  0  0  0  0  0  0  0  0  0  0  0
    3.9950    4.6790   20.3640 H   0  0  0  0  0  0  0  0  0  0  0  0
    4.5800    5.8750   19.1910 H   0  0  0  0  0  0  0  0  0  0  0  0
   -1.3610   13.5860   19.9730 C   0  0  2  0  0  0  0  0  0  0  0  0
   -1.9140   14.1970   19.2460 H   0  0  0  0  0  0  0  0  0  0  0  0
   -1.1190   14.4840   21.1920 C   0  0  0  0  0  0  0  0  0  0  0  0
   -1.9850   14.5090   21.8630 H   0  0  0  0  0  0  0  0  0  0  0  0
   -0.9090   15.5140   20.8850 H   0  0  0  0  0  0  0  0  0  0  0  0
   -0.2590   14.1300   21.7730 H   0  0  0  0  0  0  0  0  0  0  0  0
   -2.2040   12.3430   20.3210 C   0  0  0  0  0  0  0  0  0  0  0  0
   -2.9560   12.1590   19.5440 H   0  0  0  0  0  0  0  0  0  0  0  0
   -1.5710   11.4460   20.3430 H   0  0  0  0  0  0  0  0  0  0  0  0
   -2.8930   12.4850   21.6350 C   0  0  0  0  0  0  0  0  0  0  0  0
   -4.0220   13.1230   21.8640 N   0  0  0  0  0  0  0  0  0  0  0  0
   -4.3150   13.0100   23.2030 N   0  0  0  0  0  0  0  0  0  0  0  0
   -3.3570   12.3100   23.7620 C   0  0  0  0  0  0  0  0  0  0  0  0
   -2.4430   11.9590   22.8180 N   0  0  0  0  0  0  0  0  0  0  0  0
   -3.2880   12.0460   24.8080 H   0  0  0  0  0  0  0  0  0  0  0  0
   -1.2470   11.1910   23.0370 C   0  0  0  0  0  0  0  0  0  0  0  0
   -1.5250   10.1410   23.1540 H   0  0  0  0  0  0  0  0  0  0  0  0
   -0.5780   11.3020   22.1800 H   0  0  0  0  0  0  0  0  0  0  0  0
   -0.7500   11.5600   23.9380 H   0  0  0  0  0  0  0  0  0  0  0  0
  1 39  1  0  0  0  0
  2  7  1  0  0  0  0
  2  1  2  0  0  0  0
  3  2  1  0  0  0  0
  4  3  2  0  0  0  0
  4  5  1  0  0  0  0
  5  6  2  0  0  0  0
  6  1  1  0  0  0  0
  6 10  1  0  0  0  0
  8  3  1  0  0  0  0
  9  4  1  0  0  0  0
 11  5  1  0  0  0  0
 11 12  1  0  0  0  0
 12 17  1  0  0  0  0
 13 12  2  0  0  0  0
 13 14  1  0  0  0  0
 14 15  2  0  0  0  0
 15 16  1  0  0  0  0
 15 20  1  0  0  0  0
 16 21  1  0  0  0  0
 17 16  2  0  0  0  0
 18 13  1  0  0  0  0
 19 18  1  0  0  0  0
 19 11  2  0  0  0  0
 22 18  1  0  0  0  0
 23 24  1  0  0  0  0
 23 28  1  0  0  0  0
 23 14  1  0  0  0  0
 24 30  1  0  0  0  0
 25 33  1  0  0  0  0
 25 26  1  0  0  0  0
 25 24  1  0  0  0  0
 26 34  1  1  0  0  0
 27 26  1  0  0  0  0
 27 35  1  0  0  0  0
 27 28  1  0  0  0  0
 28 37  1  0  0  0  0
 29 26  1  0  0  0  0
 31 24  1  0  0  0  0
 32 25  1  0  0  0  0
 36 27  1  0  0  0  0
 38 28  1  0  0  0  0
 39 40  1  6  0  0  0
 39 45  1  0  0  0  0
 39 41  1  0  0  0  0
 41 44  1  0  0  0  0
 41 42  1  0  0  0  0
 43 41  1  0  0  0  0
 45 47  1  0  0  0  0
 45 48  1  0  0  0  0
 46 45  1  0  0  0  0
 48 49  2  0  0  0  0
 48 52  1  0  0  0  0
 49 50  1  0  0  0  0
 50 51  2  0  0  0  0
 51 53  1  0  0  0  0
 52 54  1  0  0  0  0
 52 51  1  0  0  0  0
 54 55  1  0  0  0  0
 54 57  1  0  0  0  0
 56 54  1  0  0  0  0
M  END
>  <MODEL>
27

>  <REMARK>
 VINA RESULT:    -7.292      4.198     10.310
 INTER + INTRA:         -10.212
 INTER:                  -9.282
 INTRA:                  -0.930
 UNBOUND:                -0.362
  Name = 
  7 active torsions:
  status: ('A' for Active; 'I' for Inactive)
    1  A    between atoms: C_1  and  C_2
    2  A    between atoms: C_2  and  C_3
    3  A    between atoms: C_2  and  C_10
    4  A    between atoms: C_3  and  C_4
    5  A    between atoms: N_8  and  C_9
    6  A    between atoms: C_14  and  C_16
    7  A    between atoms: C_19  and  N_23
                            x       y       z     vdW  Elec       q    Type
                         _______ _______ _______ _____ _____    ______ ____

>  <TORSDO>
F 7

$$$$
=
 OpenBabel07192307433D

 57 61  0  0  1  0  0  0  0  0999 V2000
    2.2360    7.3170   19.5510 C   0  0  0  0  0  0  0  0  0  0  0  0
    2.4730    7.4860   18.1810 C   0  0  0  0  0  0  0  0  0  0  0  0
    2.0530    8.6460   17.5300 C   0  0  0  0  0  0  0  0  0  0  0  0
    1.3820    9.6430   18.2400 C   0  0  0  0  0  0  0  0  0  0  0  0
    1.1190    9.5010   19.6090 C   0  0  0  0  0  0  0  0  0  0  0  0
    1.5580    8.3330   20.2520 C   0  0  0  0  0  0  0  0  0  0  0  0
    2.9860    6.7180   17.6060 H   0  0  0  0  0  0  0  0  0  0  0  0
    2.2450    8.7740   16.4680 H   0  0  0  0  0  0  0  0  0  0  0  0
    1.0630   10.5400   17.7110 H   0  0  0  0  0  0  0  0  0  0  0  0
    1.3820    8.2050   21.3160 H   0  0  0  0  0  0  0  0  0  0  0  0
    0.4040   10.5570   20.3410 C   0  0  0  0  0  0  0  0  0  0  0  0
    0.1450   11.9120   19.9460 C   0  0  0  0  0  0  0  0  0  0  0  0
   -0.5720   12.4740   20.9890 C   0  0  0  0  0  0  0  0  0  0  0  0
   -1.0240   13.7920   20.9870 C   0  0  0  0  0  0  0  0  0  0  0  0
   -0.6920   14.5080   19.8350 C   0  0  0  0  0  0  0  0  0  0  0  0
    0.0350   13.8930   18.8230 C   0  0  0  0  0  0  0  0  0  0  0  0
    0.4740   12.6170   18.8280 N   0  0  0  0  0  0  0  0  0  0  0  0
   -0.6910   11.4800   21.9130 N   0  0  0  0  0  0  0  0  0  0  0  0
   -0.1140   10.3180   21.5650 N   0  0  0  0  0  0  0  0  0  0  0  0
   -0.9970   15.5420   19.7140 H   0  0  0  0  0  0  0  0  0  0  0  0
    0.2930   14.4520   17.9270 H   0  0  0  0  0  0  0  0  0  0  0  0
   -1.1600   11.5480   22.8100 H   0  0  0  0  0  0  0  0  0  0  0  0
   -1.7550   14.3020   22.0660 N   0  0  0  0  0  0  0  0  0  0  0  0
   -0.9550   14.3310   23.3060 C   0  0  0  0  0  0  0  0  0  0  0  0
   -1.7210   15.1000   24.3740 C   0  0  0  0  0  0  0  0  0  0  0  0
   -3.1010   14.4940   24.5750 C   0  0  2  0  0  0  0  0  0  0  0  0
   -3.8750   14.4190   23.2690 C   0  0  0  0  0  0  0  0  0  0  0  0
   -3.0710   13.6580   22.2240 C   0  0  0  0  0  0  0  0  0  0  0  0
   -3.7960   15.2670   25.4540 F   0  0  0  0  0  0  0  0  0  0  0  0
   -0.7430   13.3130   23.6590 H   0  0  0  0  0  0  0  0  0  0  0  0
    0.0040   14.8340   23.1310 H   0  0  0  0  0  0  0  0  0  0  0  0
   -1.8250   16.1540   24.0830 H   0  0  0  0  0  0  0  0  0  0  0  0
   -1.1690   15.0950   25.3200 H   0  0  0  0  0  0  0  0  0  0  0  0
   -3.0130   13.4970   25.0210 H   0  0  0  0  0  0  0  0  0  0  0  0
   -4.8440   13.9340   23.4360 H   0  0  0  0  0  0  0  0  0  0  0  0
   -4.0950   15.4340   22.9160 H   0  0  0  0  0  0  0  0  0  0  0  0
   -2.9650   12.6090   22.5290 H   0  0  0  0  0  0  0  0  0  0  0  0
   -3.6200   13.6780   21.2740 H   0  0  0  0  0  0  0  0  0  0  0  0
    2.6560    6.0540   20.2880 C   0  0  2  0  0  0  0  0  0  0  0  0
    3.0320    6.3530   21.2760 H   0  0  0  0  0  0  0  0  0  0  0  0
    3.8190    5.3470   19.5820 C   0  0  0  0  0  0  0  0  0  0  0  0
    4.2760    5.9770   18.8110 H   0  0  0  0  0  0  0  0  0  0  0  0
    3.4820    4.4240   19.0990 H   0  0  0  0  0  0  0  0  0  0  0  0
    4.6040    5.0770   20.2980 H   0  0  0  0  0  0  0  0  0  0  0  0
    1.4390    5.1260   20.4790 C   0  0  0  0  0  0  0  0  0  0  0  0
    1.3010    4.8890   21.5410 H   0  0  0  0  0  0  0  0  0  0  0  0
    0.5180    5.6330   20.1630 H   0  0  0  0  0  0  0  0  0  0  0  0
    1.5810    3.8530   19.7150 C   0  0  0  0  0  0  0  0  0  0  0  0
    1.2950    3.6660   18.4430 N   0  0  0  0  0  0  0  0  0  0  0  0
    1.5730    2.3560   18.1300 N   0  0  0  0  0  0  0  0  0  0  0  0
    2.0170    1.7730   19.2180 C   0  0  0  0  0  0  0  0  0  0  0  0
    2.0390    2.6720   20.2380 N   0  0  0  0  0  0  0  0  0  0  0  0
    2.3210    0.7390   19.3070 H   0  0  0  0  0  0  0  0  0  0  0  0
    2.4600    2.4150   21.5880 C   0  0  0  0  0  0  0  0  0  0  0  0
    1.5850    2.1380   22.1790 H   0  0  0  0  0  0  0  0  0  0  0  0
    3.1850    1.5970   21.5960 H   0  0  0  0  0  0  0  0  0  0  0  0
    2.9260    3.3190   21.9910 H   0  0  0  0  0  0  0  0  0  0  0  0
  1  6  1  0  0  0  0
  1 39  1  0  0  0  0
  2  1  2  0  0  0  0
  3  2  1  0  0  0  0
  3  4  2  0  0  0  0
  4  5  1  0  0  0  0
  5  6  2  0  0  0  0
  5 11  1  0  0  0  0
  6 10  1  0  0  0  0
  7  2  1  0  0  0  0
  8  3  1  0  0  0  0
  9  4  1  0  0  0  0
 11 19  2  0  0  0  0
 12 11  1  0  0  0  0
 12 13  1  0  0  0  0
 13 18  1  0  0  0  0
 14 13  2  0  0  0  0
 14 23  1  0  0  0  0
 15 14  1  0  0  0  0
 16 17  1  0  0  0  0
 16 15  2  0  0  0  0
 17 12  2  0  0  0  0
 18 22  1  0  0  0  0
 19 18  1  0  0  0  0
 20 15  1  0  0  0  0
 21 16  1  0  0  0  0
 23 28  1  0  0  0  0
 23 24  1  0  0  0  0
 24 30  1  0  0  0  0
 24 25  1  0  0  0  0
 25 26  1  0  0  0  0
 25 33  1  0  0  0  0
 26 34  1  1  0  0  0
 26 29  1  0  0  0  0
 27 35  1  0  0  0  0
 27 26  1  0  0  0  0
 28 37  1  0  0  0  0
 28 27  1  0  0  0  0
 31 24  1  0  0  0  0
 32 25  1  0  0  0  0
 36 27  1  0  0  0  0
 38 28  1  0  0  0  0
 39 45  1  0  0  0  0
 39 40  1  1  0  0  0
 41 39  1  0  0  0  0
 41 44  1  0  0  0  0
 42 41  1  0  0  0  0
 43 41  1  0  0  0  0
 45 46  1  0  0  0  0
 47 45  1  0  0  0  0
 48 52  1  0  0  0  0
 48 45  1  0  0  0  0
 49 48  2  0  0  0  0
 50 49  1  0  0  0  0
 50 51  2  0  0  0  0
 51 53  1  0  0  0  0
 51 52  1  0  0  0  0
 52 54  1  0  0  0  0
 54 56  1  0  0  0  0
 54 57  1  0  0  0  0
 54 55  1  0  0  0  0
M  END
>  <MODEL>
28

>  <REMARK>
 VINA RESULT:    -7.239      4.148      5.981
 INTER + INTRA:         -10.141
 INTER:                 -10.000
 INTRA:                  -0.141
 UNBOUND:                -0.362
  Name = 
  7 active torsions:
  status: ('A' for Active; 'I' for Inactive)
    1  A    between atoms: C_1  and  C_2
    2  A    between atoms: C_2  and  C_3
    3  A    between atoms: C_2  and  C_10
    4  A    between atoms: C_3  and  C_4
    5  A    between atoms: N_8  and  C_9
    6  A    between atoms: C_14  and  C_16
    7  A    between atoms: C_19  and  N_23
                            x       y       z     vdW  Elec       q    Type
                         _______ _______ _______ _____ _____    ______ ____

>  <TORSDO>
F 7

$$$$
=
 OpenBabel07192307433D

 57 61  0  0  1  0  0  0  0  0999 V2000
    3.0830    3.9470   18.8680 C   0  0  0  0  0  0  0  0  0  0  0  0
    2.6430    3.1860   19.9590 C   0  0  0  0  0  0  0  0  0  0  0  0
    1.8860    3.7750   20.9710 C   0  0  0  0  0  0  0  0  0  0  0  0
    1.5710    5.1330   20.9090 C   0  0  0  0  0  0  0  0  0  0  0  0
    2.0050    5.9260   19.8370 C   0  0  0  0  0  0  0  0  0  0  0  0
    2.7560    5.3150   18.8210 C   0  0  0  0  0  0  0  0  0  0  0  0
    2.8840    2.1270   20.0310 H   0  0  0  0  0  0  0  0  0  0  0  0
    1.5420    3.1780   21.8110 H   0  0  0  0  0  0  0  0  0  0  0  0
    0.9800    5.5730   21.7110 H   0  0  0  0  0  0  0  0  0  0  0  0
    3.0910    5.9040   17.9710 H   0  0  0  0  0  0  0  0  0  0  0  0
    1.6730    7.3580   19.7910 C   0  0  0  0  0  0  0  0  0  0  0  0
    0.9420    8.1460   20.7430 C   0  0  0  0  0  0  0  0  0  0  0  0
    0.9230    9.4310   20.2260 C   0  0  0  0  0  0  0  0  0  0  0  0
    0.3080   10.5050   20.8650 C   0  0  0  0  0  0  0  0  0  0  0  0
   -0.2940   10.1770   22.0830 C   0  0  0  0  0  0  0  0  0  0  0  0
   -0.2470    8.8690   22.5490 C   0  0  0  0  0  0  0  0  0  0  0  0
    0.3480    7.8290   21.9260 N   0  0  0  0  0  0  0  0  0  0  0  0
    1.5980    9.3480   19.0470 N   0  0  0  0  0  0  0  0  0  0  0  0
    2.0570    8.1220   18.7470 N   0  0  0  0  0  0  0  0  0  0  0  0
   -0.7970   10.9330   22.6770 H   0  0  0  0  0  0  0  0  0  0  0  0
   -0.7160    8.6160   23.4960 H   0  0  0  0  0  0  0  0  0  0  0  0
    1.7710   10.1110   18.4000 H   0  0  0  0  0  0  0  0  0  0  0  0
    0.3300   11.7850   20.3000 N   0  0  0  0  0  0  0  0  0  0  0  0
   -0.3310   11.8140   18.9810 C   0  0  0  0  0  0  0  0  0  0  0  0
   -0.4760   13.2610   18.5290 C   0  0  0  0  0  0  0  0  0  0  0  0
    0.8780   13.9530   18.5260 C   0  0  2  0  0  0  0  0  0  0  0  0
    1.5620   13.8490   19.8800 C   0  0  0  0  0  0  0  0  0  0  0  0
    1.6730   12.3910   20.3040 C   0  0  0  0  0  0  0  0  0  0  0  0
    0.7000   15.2670   18.2230 F   0  0  0  0  0  0  0  0  0  0  0  0
    0.2480   11.2470   18.2400 H   0  0  0  0  0  0  0  0  0  0  0  0
   -1.3300   11.3640   19.0440 H   0  0  0  0  0  0  0  0  0  0  0  0
   -1.1590   13.8020   19.1970 H   0  0  0  0  0  0  0  0  0  0  0  0
   -0.9220   13.3070   17.5290 H   0  0  0  0  0  0  0  0  0  0  0  0
    1.5180   13.5240   17.7460 H   0  0  0  0  0  0  0  0  0  0  0  0
    2.5550   14.3120   19.8330 H   0  0  0  0  0  0  0  0  0  0  0  0
    0.9900   14.4200   20.6220 H   0  0  0  0  0  0  0  0  0  0  0  0
    2.3510   11.8580   19.6240 H   0  0  0  0  0  0  0  0  0  0  0  0
    2.1060   12.3490   21.3110 H   0  0  0  0  0  0  0  0  0  0  0  0
    3.9330    3.3440   17.7590 C   0  0  2  0  0  0  0  0  0  0  0  0
    3.4790    3.6260   16.7990 H   0  0  0  0  0  0  0  0  0  0  0  0
    3.9200    1.8110   17.8060 C   0  0  0  0  0  0  0  0  0  0  0  0
    3.7430    1.4320   18.8180 H   0  0  0  0  0  0  0  0  0  0  0  0
    4.8750    1.4010   17.4620 H   0  0  0  0  0  0  0  0  0  0  0  0
    3.1340    1.4080   17.1570 H   0  0  0  0  0  0  0  0  0  0  0  0
    5.3630    3.9170   17.8210 C   0  0  0  0  0  0  0  0  0  0  0  0
    5.3780    4.8530   18.3920 H   0  0  0  0  0  0  0  0  0  0  0  0
    6.0280    3.2280   18.3590 H   0  0  0  0  0  0  0  0  0  0  0  0
    5.9220    4.1720   16.4630 C   0  0  0  0  0  0  0  0  0  0  0  0
    5.7210    3.4470   15.3820 N   0  0  0  0  0  0  0  0  0  0  0  0
    6.4080    4.0270   14.3410 N   0  0  0  0  0  0  0  0  0  0  0  0
    7.0170    5.0890   14.8110 C   0  0  0  0  0  0  0  0  0  0  0  0
    6.7420    5.2210   16.1360 N   0  0  0  0  0  0  0  0  0  0  0  0
    7.6440    5.7650   14.2460 H   0  0  0  0  0  0  0  0  0  0  0  0
    7.2260    6.2590   17.0060 C   0  0  0  0  0  0  0  0  0  0  0  0
    8.1080    5.8890   17.5320 H   0  0  0  0  0  0  0  0  0  0  0  0
    7.4920    7.1380   16.4130 H   0  0  0  0  0  0  0  0  0  0  0  0
    6.4370    6.5230   17.7150 H   0  0  0  0  0  0  0  0  0  0  0  0
  1  2  1  0  0  0  0
  2  7  1  0  0  0  0
  2  3  2  0  0  0  0
  3  8  1  0  0  0  0
  4  3  1  0  0  0  0
  4  9  1  0  0  0  0
  5  4  2  0  0  0  0
  6  1  2  0  0  0  0
  6  5  1  0  0  0  0
 10  6  1  0  0  0  0
 11  5  1  0  0  0  0
 11 12  1  0  0  0  0
 12 17  1  0  0  0  0
 13 12  2  0  0  0  0
 13 14  1  0  0  0  0
 14 15  2  0  0  0  0
 15 16  1  0  0  0  0
 15 20  1  0  0  0  0
 16 21  1  0  0  0  0
 17 16  2  0  0  0  0
 18 13  1  0  0  0  0
 19 18  1  0  0  0  0
 19 11  2  0  0  0  0
 22 18  1  0  0  0  0
 23 28  1  0  0  0  0
 23 14  1  0  0  0  0
 24 31  1  0  0  0  0
 24 23  1  0  0  0  0
 25 24  1  0  0  0  0
 25 32  1  0  0  0  0
 26 34  1  6  0  0  0
 26 25  1  0  0  0  0
 26 27  1  0  0  0  0
 27 28  1  0  0  0  0
 27 36  1  0  0  0  0
 28 38  1  0  0  0  0
 29 26  1  0  0  0  0
 30 24  1  0  0  0  0
 33 25  1  0  0  0  0
 35 27  1  0  0  0  0
 37 28  1  0  0  0  0
 39 40  1  6  0  0  0
 39 41  1  0  0  0  0
 39 45  1  0  0  0  0
 39  1  1  0  0  0  0
 41 42  1  0  0  0  0
 43 41  1  0  0  0  0
 44 41  1  0  0  0  0
 45 47  1  0  0  0  0
 45 46  1  0  0  0  0
 48 45  1  0  0  0  0
 49 48  2  0  0  0  0
 50 51  2  0  0  0  0
 50 49  1  0  0  0  0
 51 52  1  0  0  0  0
 52 48  1  0  0  0  0
 52 54  1  0  0  0  0
 53 51  1  0  0  0  0
 54 55  1  0  0  0  0
 54 57  1  0  0  0  0
 56 54  1  0  0  0  0
M  END
>  <MODEL>
29

>  <REMARK>
 VINA RESULT:    -7.126      1.513      2.467
 INTER + INTRA:          -9.988
 INTER:                  -9.723
 INTRA:                  -0.264
 UNBOUND:                -0.362
  Name = 
  7 active torsions:
  status: ('A' for Active; 'I' for Inactive)
    1  A    between atoms: C_1  and  C_2
    2  A    between atoms: C_2  and  C_3
    3  A    between atoms: C_2  and  C_10
    4  A    between atoms: C_3  and  C_4
    5  A    between atoms: N_8  and  C_9
    6  A    between atoms: C_14  and  C_16
    7  A    between atoms: C_19  and  N_23
                            x       y       z     vdW  Elec       q    Type
                         _______ _______ _______ _____ _____    ______ ____

>  <TORSDO>
F 7

$$$$
=
 OpenBabel07192307433D

 57 61  0  0  1  0  0  0  0  0999 V2000
   -1.3900   12.3410   19.9460 C   0  0  0  0  0  0  0  0  0  0  0  0
   -0.6830   13.2170   20.7800 C   0  0  0  0  0  0  0  0  0  0  0  0
    0.6780   13.0250   21.0140 C   0  0  0  0  0  0  0  0  0  0  0  0
    1.3450   11.9490   20.4240 C   0  0  0  0  0  0  0  0  0  0  0  0
    0.6650   11.0470   19.5930 C   0  0  0  0  0  0  0  0  0  0  0  0
   -0.7020   11.2610   19.3600 C   0  0  0  0  0  0  0  0  0  0  0  0
   -1.1840   14.0570   21.2560 H   0  0  0  0  0  0  0  0  0  0  0  0
    1.2230   13.7110   21.6570 H   0  0  0  0  0  0  0  0  0  0  0  0
    2.4080   11.8170   20.6210 H   0  0  0  0  0  0  0  0  0  0  0  0
   -1.2480   10.5860   18.7060 H   0  0  0  0  0  0  0  0  0  0  0  0
    1.3790    9.9130   18.9870 C   0  0  0  0  0  0  0  0  0  0  0  0
    1.6190    8.6050   19.5280 C   0  0  0  0  0  0  0  0  0  0  0  0
    2.3250    7.9230   18.5510 C   0  0  0  0  0  0  0  0  0  0  0  0
    2.7470    6.6020   18.6910 C   0  0  0  0  0  0  0  0  0  0  0  0
    2.3960    6.0170   19.9100 C   0  0  0  0  0  0  0  0  0  0  0  0
    1.6930    6.7530   20.8550 C   0  0  0  0  0  0  0  0  0  0  0  0
    1.2870    8.0340   20.7180 N   0  0  0  0  0  0  0  0  0  0  0  0
    2.4730    8.8140   17.5320 N   0  0  0  0  0  0  0  0  0  0  0  0
    1.9260   10.0200   17.7570 N   0  0  0  0  0  0  0  0  0  0  0  0
    2.6630    4.9890   20.1320 H   0  0  0  0  0  0  0  0  0  0  0  0
    1.4210    6.2960   21.8030 H   0  0  0  0  0  0  0  0  0  0  0  0
    2.9490    8.6460   16.6520 H   0  0  0  0  0  0  0  0  0  0  0  0
    3.4470    5.9600   17.6640 N   0  0  0  0  0  0  0  0  0  0  0  0
    3.5630    4.5080   17.9030 C   0  0  0  0  0  0  0  0  0  0  0  0
    4.1250    3.8410   16.6550 C   0  0  0  0  0  0  0  0  0  0  0  0
    5.4470    4.4820   16.2630 C   0  0  2  0  0  0  0  0  0  0  0  0
    5.3110    5.9860   16.0880 C   0  0  0  0  0  0  0  0  0  0  0  0
    4.7300    6.6130   17.3490 C   0  0  0  0  0  0  0  0  0  0  0  0
    5.8680    3.9400   15.0890 F   0  0  0  0  0  0  0  0  0  0  0  0
    4.2140    4.3030   18.7620 H   0  0  0  0  0  0  0  0  0  0  0  0
    2.5760    4.0770   18.1170 H   0  0  0  0  0  0  0  0  0  0  0  0
    3.4160    3.9330   15.8210 H   0  0  0  0  0  0  0  0  0  0  0  0
    4.2650    2.7680   16.8230 H   0  0  0  0  0  0  0  0  0  0  0  0
    6.2120    4.2580   17.0160 H   0  0  0  0  0  0  0  0  0  0  0  0
    6.2880    6.4260   15.8560 H   0  0  0  0  0  0  0  0  0  0  0  0
    4.6650    6.1960   15.2260 H   0  0  0  0  0  0  0  0  0  0  0  0
    5.4430    6.5070   18.1770 H   0  0  0  0  0  0  0  0  0  0  0  0
    4.5780    7.6850   17.1720 H   0  0  0  0  0  0  0  0  0  0  0  0
   -2.8810   12.5040   19.6910 C   0  0  2  0  0  0  0  0  0  0  0  0
   -3.0050   13.2770   18.9190 H   0  0  0  0  0  0  0  0  0  0  0  0
   -3.6150   13.0180   20.9350 C   0  0  0  0  0  0  0  0  0  0  0  0
   -4.4510   12.3680   21.2170 H   0  0  0  0  0  0  0  0  0  0  0  0
   -4.0190   14.0210   20.7640 H   0  0  0  0  0  0  0  0  0  0  0  0
   -2.9350   13.0780   21.7930 H   0  0  0  0  0  0  0  0  0  0  0  0
   -3.4740   11.1800   19.1690 C   0  0  0  0  0  0  0  0  0  0  0  0
   -2.7710   10.3540   19.3310 H   0  0  0  0  0  0  0  0  0  0  0  0
   -4.3790   10.9170   19.7330 H   0  0  0  0  0  0  0  0  0  0  0  0
   -3.8090   11.2500   17.7180 C   0  0  0  0  0  0  0  0  0  0  0  0
   -4.7980   11.9280   17.1730 N   0  0  0  0  0  0  0  0  0  0  0  0
   -4.7540   11.7330   15.8120 N   0  0  0  0  0  0  0  0  0  0  0  0
   -3.7430   10.9370   15.5580 C   0  0  0  0  0  0  0  0  0  0  0  0
   -3.1210   10.6080   16.7220 N   0  0  0  0  0  0  0  0  0  0  0  0
   -3.4380   10.5860   14.5820 H   0  0  0  0  0  0  0  0  0  0  0  0
   -1.9730    9.7530   16.8600 C   0  0  0  0  0  0  0  0  0  0  0  0
   -1.1190   10.3640   17.1600 H   0  0  0  0  0  0  0  0  0  0  0  0
   -2.1700    8.9950   17.6230 H   0  0  0  0  0  0  0  0  0  0  0  0
   -1.7790    9.2630   15.9020 H   0  0  0  0  0  0  0  0  0  0  0  0
  1  2  1  0  0  0  0
  2  3  2  0  0  0  0
  2  7  1  0  0  0  0
  3  8  1  0  0  0  0
  4  9  1  0  0  0  0
  4  3  1  0  0  0  0
  5  4  2  0  0  0  0
  6  5  1  0  0  0  0
  6  1  2  0  0  0  0
 10  6  1  0  0  0  0
 11 12  1  0  0  0  0
 11  5  1  0  0  0  0
 12 17  1  0  0  0  0
 13 14  1  0  0  0  0
 13 12  2  0  0  0  0
 14 15  2  0  0  0  0
 15 20  1  0  0  0  0
 15 16  1  0  0  0  0
 16 21  1  0  0  0  0
 17 16  2  0  0  0  0
 18 19  1  0  0  0  0
 18 13  1  0  0  0  0
 19 11  2  0  0  0  0
 22 18  1  0  0  0  0
 23 24  1  0  0  0  0
 23 14  1  0  0  0  0
 24 31  1  0  0  0  0
 24 30  1  0  0  0  0
 25 33  1  0  0  0  0
 25 24  1  0  0  0  0
 26 25  1  0  0  0  0
 26 34  1  1  0  0  0
 27 26  1  0  0  0  0
 27 28  1  0  0  0  0
 28 23  1  0  0  0  0
 28 37  1  0  0  0  0
 29 26  1  0  0  0  0
 32 25  1  0  0  0  0
 35 27  1  0  0  0  0
 36 27  1  0  0  0  0
 38 28  1  0  0  0  0
 39 40  1  6  0  0  0
 39  1  1  0  0  0  0
 39 41  1  0  0  0  0
 41 42  1  0  0  0  0
 41 44  1  0  0  0  0
 43 41  1  0  0  0  0
 45 46  1  0  0  0  0
 45 39  1  0  0  0  0
 45 47  1  0  0  0  0
 48 45  1  0  0  0  0
 49 48  2  0  0  0  0
 50 49  1  0  0  0  0
 51 50  2  0  0  0  0
 51 52  1  0  0  0  0
 52 54  1  0  0  0  0
 52 48  1  0  0  0  0
 53 51  1  0  0  0  0
 54 55  1  0  0  0  0
 54 56  1  0  0  0  0
 57 54  1  0  0  0  0
M  END
>  <MODEL>
30

>  <REMARK>
 VINA RESULT:    -7.087      3.529      9.457
 INTER + INTRA:          -9.936
 INTER:                  -9.242
 INTRA:                  -0.693
 UNBOUND:                -0.362
  Name = 
  7 active torsions:
  status: ('A' for Active; 'I' for Inactive)
    1  A    between atoms: C_1  and  C_2
    2  A    between atoms: C_2  and  C_3
    3  A    between atoms: C_2  and  C_10
    4  A    between atoms: C_3  and  C_4
    5  A    between atoms: N_8  and  C_9
    6  A    between atoms: C_14  and  C_16
    7  A    between atoms: C_19  and  N_23
                            x       y       z     vdW  Elec       q    Type
                         _______ _______ _______ _____ _____    ______ ____

>  <TORSDO>
F 7

$$$$
=
 OpenBabel07192307433D

 57 61  0  0  1  0  0  0  0  0999 V2000
    0.0810    9.9590   20.2850 C   0  0  0  0  0  0  0  0  0  0  0  0
   -0.2450    9.4290   21.5400 C   0  0  0  0  0  0  0  0  0  0  0  0
    0.3410    8.2410   21.9780 C   0  0  0  0  0  0  0  0  0  0  0  0
    1.2490    7.5660   21.1610 C   0  0  0  0  0  0  0  0  0  0  0  0
    1.5890    8.0640   19.8950 C   0  0  0  0  0  0  0  0  0  0  0  0
    0.9990    9.2660   19.4740 C   0  0  0  0  0  0  0  0  0  0  0  0
   -0.9570    9.9340   22.1900 H   0  0  0  0  0  0  0  0  0  0  0  0
    0.0890    7.8380   22.9550 H   0  0  0  0  0  0  0  0  0  0  0  0
    1.6940    6.6400   21.5230 H   0  0  0  0  0  0  0  0  0  0  0  0
    1.2580    9.6810   18.5040 H   0  0  0  0  0  0  0  0  0  0  0  0
    2.5410    7.3360   19.0420 C   0  0  0  0  0  0  0  0  0  0  0  0
    3.0470    6.0010   19.1910 C   0  0  0  0  0  0  0  0  0  0  0  0
    3.9000    5.8050   18.1170 C   0  0  0  0  0  0  0  0  0  0  0  0
    4.5940    4.6170   17.8960 C   0  0  0  0  0  0  0  0  0  0  0  0
    4.3570    3.6300   18.8560 C   0  0  0  0  0  0  0  0  0  0  0  0
    3.4950    3.8860   19.9150 C   0  0  0  0  0  0  0  0  0  0  0  0
    2.8250    5.0390   20.1280 N   0  0  0  0  0  0  0  0  0  0  0  0
    3.8700    6.9760   17.4220 N   0  0  0  0  0  0  0  0  0  0  0  0
    3.0730    7.9200   17.9480 N   0  0  0  0  0  0  0  0  0  0  0  0
    4.8340    2.6580   18.7850 H   0  0  0  0  0  0  0  0  0  0  0  0
    3.3110    3.1160   20.6600 H   0  0  0  0  0  0  0  0  0  0  0  0
    4.3860    7.1830   16.5740 H   0  0  0  0  0  0  0  0  0  0  0  0
    5.4340    4.4730   16.7870 N   0  0  0  0  0  0  0  0  0  0  0  0
    6.5200    5.4720   16.7860 C   0  0  0  0  0  0  0  0  0  0  0  0
    7.5190    5.1200   15.6930 C   0  0  0  0  0  0  0  0  0  0  0  0
    6.8170    5.0100   14.3480 C   0  0  2  0  0  0  0  0  0  0  0  0
    5.6630    4.0220   14.3990 C   0  0  0  0  0  0  0  0  0  0  0  0
    4.6960    4.3970   15.5130 C   0  0  0  0  0  0  0  0  0  0  0  0
    7.7140    4.5910   13.4160 F   0  0  0  0  0  0  0  0  0  0  0  0
    6.1220    6.4810   16.6180 H   0  0  0  0  0  0  0  0  0  0  0  0
    7.0410    5.4710   17.7520 H   0  0  0  0  0  0  0  0  0  0  0  0
    8.0150    4.1680   15.9220 H   0  0  0  0  0  0  0  0  0  0  0  0
    8.3110    5.8750   15.6400 H   0  0  0  0  0  0  0  0  0  0  0  0
    6.4560    5.9960   14.0300 H   0  0  0  0  0  0  0  0  0  0  0  0
    5.1460    4.0010   13.4320 H   0  0  0  0  0  0  0  0  0  0  0  0
    6.0560    3.0110   14.5600 H   0  0  0  0  0  0  0  0  0  0  0  0
    4.2130    5.3550   15.2780 H   0  0  0  0  0  0  0  0  0  0  0  0
    3.9120    3.6320   15.5730 H   0  0  0  0  0  0  0  0  0  0  0  0
   -0.5590   11.2380   19.7640 C   0  0  2  0  0  0  0  0  0  0  0  0
   -1.5700   11.3030   20.1900 H   0  0  0  0  0  0  0  0  0  0  0  0
   -0.7360   11.2020   18.2420 C   0  0  0  0  0  0  0  0  0  0  0  0
   -1.7520   11.4800   17.9390 H   0  0  0  0  0  0  0  0  0  0  0  0
   -0.5360   10.1990   17.8480 H   0  0  0  0  0  0  0  0  0  0  0  0
   -0.0420   11.8940   17.7510 H   0  0  0  0  0  0  0  0  0  0  0  0
    0.2560   12.4620   20.2280 C   0  0  0  0  0  0  0  0  0  0  0  0
    1.2500   12.1520   20.5750 H   0  0  0  0  0  0  0  0  0  0  0  0
    0.4330   13.1440   19.3860 H   0  0  0  0  0  0  0  0  0  0  0  0
   -0.4270   13.2070   21.3230 C   0  0  0  0  0  0  0  0  0  0  0  0
   -0.5920   12.7990   22.5650 N   0  0  0  0  0  0  0  0  0  0  0  0
   -1.2640   13.7820   23.2540 N   0  0  0  0  0  0  0  0  0  0  0  0
   -1.4980   14.7640   22.4160 C   0  0  0  0  0  0  0  0  0  0  0  0
   -0.9910   14.4490   21.1940 N   0  0  0  0  0  0  0  0  0  0  0  0
   -2.0120   15.6870   22.6450 H   0  0  0  0  0  0  0  0  0  0  0  0
   -1.0490   15.2670   20.0130 C   0  0  0  0  0  0  0  0  0  0  0  0
   -0.1330   15.8590   19.9550 H   0  0  0  0  0  0  0  0  0  0  0  0
   -1.1320   14.6290   19.1290 H   0  0  0  0  0  0  0  0  0  0  0  0
   -1.9240   15.9180   20.0760 H   0  0  0  0  0  0  0  0  0  0  0  0
  1  2  1  0  0  0  0
  2  3  2  0  0  0  0
  2  7  1  0  0  0  0
  3  8  1  0  0  0  0
  4  9  1  0  0  0  0
  4  3  1  0  0  0  0
  5  4  2  0  0  0  0
  6  5  1  0  0  0  0
  6  1  2  0  0  0  0
 10  6  1  0  0  0  0
 11 12  1  0  0  0  0
 11  5  1  0  0  0  0
 12 17  1  0  0  0  0
 13 12  2  0  0  0  0
 14 13  1  0  0  0  0
 14 15  2  0  0  0  0
 15 16  1  0  0  0  0
 16 17  2  0  0  0  0
 16 21  1  0  0  0  0
 18 19  1  0  0  0  0
 18 13  1  0  0  0  0
 19 11  2  0  0  0  0
 20 15  1  0  0  0  0
 22 18  1  0  0  0  0
 23 14  1  0  0  0  0
 24 23  1  0  0  0  0
 24 31  1  0  0  0  0
 25 32  1  0  0  0  0
 25 24  1  0  0  0  0
 26 34  1  6  0  0  0
 26 27  1  0  0  0  0
 26 25  1  0  0  0  0
 27 36  1  0  0  0  0
 27 28  1  0  0  0  0
 28 38  1  0  0  0  0
 28 23  1  0  0  0  0
 29 26  1  0  0  0  0
 30 24  1  0  0  0  0
 33 25  1  0  0  0  0
 35 27  1  0  0  0  0
 37 28  1  0  0  0  0
 39 40  1  1  0  0  0
 39 45  1  0  0  0  0
 39  1  1  0  0  0  0
 41 39  1  0  0  0  0
 42 41  1  0  0  0  0
 43 41  1  0  0  0  0
 44 41  1  0  0  0  0
 45 46  1  0  0  0  0
 45 48  1  0  0  0  0
 47 45  1  0  0  0  0
 48 49  2  0  0  0  0
 49 50  1  0  0  0  0
 51 53  1  0  0  0  0
 51 50  2  0  0  0  0
 52 48  1  0  0  0  0
 52 51  1  0  0  0  0
 54 57  1  0  0  0  0
 54 52  1  0  0  0  0
 55 54  1  0  0  0  0
 56 54  1  0  0  0  0
M  END
>  <MODEL>
31

>  <REMARK>
 VINA RESULT:    -6.948      3.223      9.897
 INTER + INTRA:          -9.747
 INTER:                  -9.415
 INTRA:                  -0.332
 UNBOUND:                -0.362
  Name = 
  7 active torsions:
  status: ('A' for Active; 'I' for Inactive)
    1  A    between atoms: C_1  and  C_2
    2  A    between atoms: C_2  and  C_3
    3  A    between atoms: C_2  and  C_10
    4  A    between atoms: C_3  and  C_4
    5  A    between atoms: N_8  and  C_9
    6  A    between atoms: C_14  and  C_16
    7  A    between atoms: C_19  and  N_23
                            x       y       z     vdW  Elec       q    Type
                         _______ _______ _______ _____ _____    ______ ____

>  <TORSDO>
F 7

$$$$
=
 OpenBabel07192307433D

 57 61  0  0  1  0  0  0  0  0999 V2000
    3.9070    5.0310   17.3340 C   0  0  0  0  0  0  0  0  0  0  0  0
    5.1500    5.4490   16.8430 C   0  0  0  0  0  0  0  0  0  0  0  0
    5.4870    6.8020   16.8350 C   0  0  0  0  0  0  0  0  0  0  0  0
    4.5800    7.7520   17.3080 C   0  0  0  0  0  0  0  0  0  0  0  0
    3.3230    7.3690   17.7960 C   0  0  0  0  0  0  0  0  0  0  0  0
    3.0040    6.0020   17.8070 C   0  0  0  0  0  0  0  0  0  0  0  0
    5.8690    4.7270   16.4620 H   0  0  0  0  0  0  0  0  0  0  0  0
    6.4560    7.1200   16.4590 H   0  0  0  0  0  0  0  0  0  0  0  0
    4.8640    8.8030   17.2920 H   0  0  0  0  0  0  0  0  0  0  0  0
    2.0430    5.6770   18.1960 H   0  0  0  0  0  0  0  0  0  0  0  0
    2.3750    8.3820   18.2820 C   0  0  0  0  0  0  0  0  0  0  0  0
    1.6740    8.4350   19.5340 C   0  0  0  0  0  0  0  0  0  0  0  0
    0.9210    9.5970   19.4890 C   0  0  0  0  0  0  0  0  0  0  0  0
    0.0950   10.0160   20.5310 C   0  0  0  0  0  0  0  0  0  0  0  0
    0.0890    9.1600   21.6350 C   0  0  0  0  0  0  0  0  0  0  0  0
    0.8610    8.0050   21.6200 C   0  0  0  0  0  0  0  0  0  0  0  0
    1.6580    7.6000   20.6090 N   0  0  0  0  0  0  0  0  0  0  0  0
    1.1870   10.1460   18.2720 N   0  0  0  0  0  0  0  0  0  0  0  0
    2.0480    9.4450   17.5160 N   0  0  0  0  0  0  0  0  0  0  0  0
   -0.5090    9.3850   22.5120 H   0  0  0  0  0  0  0  0  0  0  0  0
    0.8550    7.3400   22.4800 H   0  0  0  0  0  0  0  0  0  0  0  0
    0.7980   11.0080   17.9050 H   0  0  0  0  0  0  0  0  0  0  0  0
   -0.6340   11.2060   20.4340 N   0  0  0  0  0  0  0  0  0  0  0  0
   -0.9840   11.7460   21.7620 C   0  0  0  0  0  0  0  0  0  0  0  0
   -1.5680   13.1420   21.5950 C   0  0  0  0  0  0  0  0  0  0  0  0
   -2.7520   13.1090   20.6410 C   0  0  2  0  0  0  0  0  0  0  0  0
   -2.3770   12.4880   19.3050 C   0  0  0  0  0  0  0  0  0  0  0  0
   -1.7820   11.1020   19.5150 C   0  0  0  0  0  0  0  0  0  0  0  0
   -3.1810   14.3820   20.4290 F   0  0  0  0  0  0  0  0  0  0  0  0
   -1.7070   11.0960   22.2710 H   0  0  0  0  0  0  0  0  0  0  0  0
   -0.0890   11.8130   22.3950 H   0  0  0  0  0  0  0  0  0  0  0  0
   -0.8060   13.8290   21.2040 H   0  0  0  0  0  0  0  0  0  0  0  0
   -1.8800   13.5460   22.5640 H   0  0  0  0  0  0  0  0  0  0  0  0
   -3.5840   12.5570   21.0930 H   0  0  0  0  0  0  0  0  0  0  0  0
   -3.2600   12.4320   18.6570 H   0  0  0  0  0  0  0  0  0  0  0  0
   -1.6580   13.1370   18.7900 H   0  0  0  0  0  0  0  0  0  0  0  0
   -2.5490   10.4270   19.9150 H   0  0  0  0  0  0  0  0  0  0  0  0
   -1.4570   10.7060   18.5450 H   0  0  0  0  0  0  0  0  0  0  0  0
    3.4950    3.5660   17.3330 C   0  0  2  0  0  0  0  0  0  0  0  0
    3.9930    3.0800   16.4820 H   0  0  0  0  0  0  0  0  0  0  0  0
    1.9890    3.4020   17.0980 C   0  0  0  0  0  0  0  0  0  0  0  0
    1.4370    4.3260   17.3050 H   0  0  0  0  0  0  0  0  0  0  0  0
    1.5750    2.6190   17.7430 H   0  0  0  0  0  0  0  0  0  0  0  0
    1.7830    3.1170   16.0600 H   0  0  0  0  0  0  0  0  0  0  0  0
    3.9600    2.8860   18.6360 C   0  0  0  0  0  0  0  0  0  0  0  0
    4.0060    1.7980   18.5060 H   0  0  0  0  0  0  0  0  0  0  0  0
    4.9820    3.2010   18.8870 H   0  0  0  0  0  0  0  0  0  0  0  0
    3.0590    3.1970   19.7820 C   0  0  0  0  0  0  0  0  0  0  0  0
    3.2210    4.1570   20.6690 N   0  0  0  0  0  0  0  0  0  0  0  0
    2.1670    4.1070   21.5520 N   0  0  0  0  0  0  0  0  0  0  0  0
    1.3900    3.1160   21.1870 C   0  0  0  0  0  0  0  0  0  0  0  0
    1.9080    2.5160   20.0820 N   0  0  0  0  0  0  0  0  0  0  0  0
    0.4760    2.8100   21.6770 H   0  0  0  0  0  0  0  0  0  0  0  0
    1.3480    1.3910   19.3840 C   0  0  0  0  0  0  0  0  0  0  0  0
    0.5640    1.7530   18.7140 H   0  0  0  0  0  0  0  0  0  0  0  0
    2.1290    0.8950   18.8020 H   0  0  0  0  0  0  0  0  0  0  0  0
    0.9370    0.6900   20.1150 H   0  0  0  0  0  0  0  0  0  0  0  0
  1  6  1  0  0  0  0
  2  1  2  0  0  0  0
  3  2  1  0  0  0  0
  3  4  2  0  0  0  0
  4  5  1  0  0  0  0
  5  6  2  0  0  0  0
  5 11  1  0  0  0  0
  6 10  1  0  0  0  0
  7  2  1  0  0  0  0
  8  3  1  0  0  0  0
  9  4  1  0  0  0  0
 11 12  1  0  0  0  0
 12 17  1  0  0  0  0
 13 12  2  0  0  0  0
 13 14  1  0  0  0  0
 14 15  2  0  0  0  0
 15 20  1  0  0  0  0
 16 15  1  0  0  0  0
 16 21  1  0  0  0  0
 17 16  2  0  0  0  0
 18 13  1  0  0  0  0
 19 18  1  0  0  0  0
 19 11  2  0  0  0  0
 22 18  1  0  0  0  0
 23 14  1  0  0  0  0
 23 24  1  0  0  0  0
 24 30  1  0  0  0  0
 24 31  1  0  0  0  0
 25 24  1  0  0  0  0
 25 33  1  0  0  0  0
 26 34  1  1  0  0  0
 26 25  1  0  0  0  0
 27 28  1  0  0  0  0
 27 26  1  0  0  0  0
 28 37  1  0  0  0  0
 28 23  1  0  0  0  0
 29 26  1  0  0  0  0
 32 25  1  0  0  0  0
 35 27  1  0  0  0  0
 36 27  1  0  0  0  0
 38 28  1  0  0  0  0
 39 40  1  6  0  0  0
 39  1  1  0  0  0  0
 39 45  1  0  0  0  0
 41 42  1  0  0  0  0
 41 39  1  0  0  0  0
 41 43  1  0  0  0  0
 44 41  1  0  0  0  0
 45 47  1  0  0  0  0
 45 48  1  0  0  0  0
 46 45  1  0  0  0  0
 48 52  1  0  0  0  0
 48 49  2  0  0  0  0
 49 50  1  0  0  0  0
 51 50  2  0  0  0  0
 51 53  1  0  0  0  0
 52 51  1  0  0  0  0
 54 52  1  0  0  0  0
 54 57  1  0  0  0  0
 55 54  1  0  0  0  0
 56 54  1  0  0  0  0
M  END
>  <MODEL>
32

>  <REMARK>
 VINA RESULT:    -6.895      3.208      4.601
 INTER + INTRA:          -9.676
 INTER:                  -9.314
 INTRA:                  -0.362
 UNBOUND:                -0.362
  Name = 
  7 active torsions:
  status: ('A' for Active; 'I' for Inactive)
    1  A    between atoms: C_1  and  C_2
    2  A    between atoms: C_2  and  C_3
    3  A    between atoms: C_2  and  C_10
    4  A    between atoms: C_3  and  C_4
    5  A    between atoms: N_8  and  C_9
    6  A    between atoms: C_14  and  C_16
    7  A    between atoms: C_19  and  N_23
                            x       y       z     vdW  Elec       q    Type
                         _______ _______ _______ _____ _____    ______ ____

>  <TORSDO>
F 7

$$$$
=
 OpenBabel07192307433D

 57 61  0  0  1  0  0  0  0  0999 V2000
   -0.1520   13.3270   20.6230 C   0  0  0  0  0  0  0  0  0  0  0  0
   -0.8570   13.5970   19.4430 C   0  0  0  0  0  0  0  0  0  0  0  0
   -1.0260   12.6030   18.4790 C   0  0  0  0  0  0  0  0  0  0  0  0
   -0.4820   11.3320   18.6810 C   0  0  0  0  0  0  0  0  0  0  0  0
    0.2380   11.0330   19.8460 C   0  0  0  0  0  0  0  0  0  0  0  0
    0.3890   12.0410   20.8100 C   0  0  0  0  0  0  0  0  0  0  0  0
   -1.2820   14.5810   19.2610 H   0  0  0  0  0  0  0  0  0  0  0  0
   -1.5790   12.8150   17.5680 H   0  0  0  0  0  0  0  0  0  0  0  0
   -0.6260   10.5720   17.9150 H   0  0  0  0  0  0  0  0  0  0  0  0
    0.9290   11.8300   21.7300 H   0  0  0  0  0  0  0  0  0  0  0  0
    0.8120    9.6930   20.0390 C   0  0  0  0  0  0  0  0  0  0  0  0
    1.6180    8.9180   19.1390 C   0  0  0  0  0  0  0  0  0  0  0  0
    1.9000    7.7410   19.8120 C   0  0  0  0  0  0  0  0  0  0  0  0
    2.6740    6.7150   19.2720 C   0  0  0  0  0  0  0  0  0  0  0  0
    3.1470    6.9750   17.9830 C   0  0  0  0  0  0  0  0  0  0  0  0
    2.8270    8.1720   17.3560 C   0  0  0  0  0  0  0  0  0  0  0  0
    2.0740    9.1630   17.8800 N   0  0  0  0  0  0  0  0  0  0  0  0
    1.2720    7.8600   21.0140 N   0  0  0  0  0  0  0  0  0  0  0  0
    0.6030    9.0120   21.1870 N   0  0  0  0  0  0  0  0  0  0  0  0
    3.7680    6.2540   17.4620 H   0  0  0  0  0  0  0  0  0  0  0  0
    3.1960    8.3720   16.3530 H   0  0  0  0  0  0  0  0  0  0  0  0
    1.2670    7.1710   21.7590 H   0  0  0  0  0  0  0  0  0  0  0  0
    2.9350    5.5520   20.0040 N   0  0  0  0  0  0  0  0  0  0  0  0
    3.7950    4.6140   19.2560 C   0  0  0  0  0  0  0  0  0  0  0  0
    4.2260    3.4860   20.1830 C   0  0  0  0  0  0  0  0  0  0  0  0
    3.0090    2.8110   20.7970 C   0  0  2  0  0  0  0  0  0  0  0  0
    2.1110    3.8130   21.5040 C   0  0  0  0  0  0  0  0  0  0  0  0
    1.7150    4.9320   20.5510 C   0  0  0  0  0  0  0  0  0  0  0  0
    3.4300    1.8840   21.6990 F   0  0  0  0  0  0  0  0  0  0  0  0
    3.2620    4.2020   18.3890 H   0  0  0  0  0  0  0  0  0  0  0  0
    4.6910    5.1280   18.8870 H   0  0  0  0  0  0  0  0  0  0  0  0
    4.8680    3.8760   20.9840 H   0  0  0  0  0  0  0  0  0  0  0  0
    4.8270    2.7500   19.6380 H   0  0  0  0  0  0  0  0  0  0  0  0
    2.4450    2.2780   20.0230 H   0  0  0  0  0  0  0  0  0  0  0  0
    1.2190    3.3060   21.8930 H   0  0  0  0  0  0  0  0  0  0  0  0
    2.6370    4.2230   22.3750 H   0  0  0  0  0  0  0  0  0  0  0  0
    1.0830    4.5290   19.7490 H   0  0  0  0  0  0  0  0  0  0  0  0
    1.1260    5.6740   21.1030 H   0  0  0  0  0  0  0  0  0  0  0  0
    0.0750   14.3950   21.6830 C   0  0  2  0  0  0  0  0  0  0  0  0
   -0.3910   15.3240   21.3270 H   0  0  0  0  0  0  0  0  0  0  0  0
    1.5660   14.7040   21.8650 C   0  0  0  0  0  0  0  0  0  0  0  0
    2.1750   13.7940   21.8830 H   0  0  0  0  0  0  0  0  0  0  0  0
    1.7430   15.2400   22.8030 H   0  0  0  0  0  0  0  0  0  0  0  0
    1.9350   15.3360   21.0490 H   0  0  0  0  0  0  0  0  0  0  0  0
   -0.5990   13.9760   23.0050 C   0  0  0  0  0  0  0  0  0  0  0  0
   -0.1510   13.0500   23.3880 H   0  0  0  0  0  0  0  0  0  0  0  0
   -0.4240   14.7340   23.7800 H   0  0  0  0  0  0  0  0  0  0  0  0
   -2.0670   13.7720   22.8450 C   0  0  0  0  0  0  0  0  0  0  0  0
   -2.9550   14.6880   22.5190 N   0  0  0  0  0  0  0  0  0  0  0  0
   -4.1920   14.0880   22.4710 N   0  0  0  0  0  0  0  0  0  0  0  0
   -4.0320   12.8220   22.7750 C   0  0  0  0  0  0  0  0  0  0  0  0
   -2.7160   12.5770   23.0170 N   0  0  0  0  0  0  0  0  0  0  0  0
   -4.8120   12.0770   22.8290 H   0  0  0  0  0  0  0  0  0  0  0  0
   -2.1400   11.3110   23.3820 C   0  0  0  0  0  0  0  0  0  0  0  0
   -1.2300   11.1620   22.7970 H   0  0  0  0  0  0  0  0  0  0  0  0
   -1.8970   11.3130   24.4480 H   0  0  0  0  0  0  0  0  0  0  0  0
   -2.8650   10.5200   23.1750 H   0  0  0  0  0  0  0  0  0  0  0  0
  1  6  1  0  0  0  0
  1 39  1  0  0  0  0
  2  1  2  0  0  0  0
  3  4  2  0  0  0  0
  3  2  1  0  0  0  0
  4  5  1  0  0  0  0
  5 11  1  0  0  0  0
  5  6  2  0  0  0  0
  6 10  1  0  0  0  0
  7  2  1  0  0  0  0
  8  3  1  0  0  0  0
  9  4  1  0  0  0  0
 11 19  2  0  0  0  0
 12 13  1  0  0  0  0
 12 11  1  0  0  0  0
 13 18  1  0  0  0  0
 14 13  2  0  0  0  0
 14 23  1  0  0  0  0
 15 14  1  0  0  0  0
 16 17  1  0  0  0  0
 16 15  2  0  0  0  0
 17 12  2  0  0  0  0
 18 19  1  0  0  0  0
 18 22  1  0  0  0  0
 20 15  1  0  0  0  0
 21 16  1  0  0  0  0
 23 28  1  0  0  0  0
 24 23  1  0  0  0  0
 24 25  1  0  0  0  0
 25 26  1  0  0  0  0
 25 32  1  0  0  0  0
 26 34  1  6  0  0  0
 26 27  1  0  0  0  0
 26 29  1  0  0  0  0
 27 35  1  0  0  0  0
 27 36  1  0  0  0  0
 28 38  1  0  0  0  0
 28 27  1  0  0  0  0
 30 24  1  0  0  0  0
 31 24  1  0  0  0  0
 33 25  1  0  0  0  0
 37 28  1  0  0  0  0
 39 40  1  6  0  0  0
 39 41  1  0  0  0  0
 39 45  1  0  0  0  0
 41 42  1  0  0  0  0
 41 43  1  0  0  0  0
 44 41  1  0  0  0  0
 45 46  1  0  0  0  0
 45 47  1  0  0  0  0
 48 45  1  0  0  0  0
 48 52  1  0  0  0  0
 49 48  2  0  0  0  0
 50 49  1  0  0  0  0
 50 51  2  0  0  0  0
 51 53  1  0  0  0  0
 51 52  1  0  0  0  0
 52 54  1  0  0  0  0
 54 56  1  0  0  0  0
 55 54  1  0  0  0  0
 57 54  1  0  0  0  0
M  END
>  <MODEL>
33

>  <REMARK>
 VINA RESULT:    -6.885      4.482     10.599
 INTER + INTRA:          -9.662
 INTER:                  -8.903
 INTRA:                  -0.759
 UNBOUND:                -0.362
  Name = 
  7 active torsions:
  status: ('A' for Active; 'I' for Inactive)
    1  A    between atoms: C_1  and  C_2
    2  A    between atoms: C_2  and  C_3
    3  A    between atoms: C_2  and  C_10
    4  A    between atoms: C_3  and  C_4
    5  A    between atoms: N_8  and  C_9
    6  A    between atoms: C_14  and  C_16
    7  A    between atoms: C_19  and  N_23
                            x       y       z     vdW  Elec       q    Type
                         _______ _______ _______ _____ _____    ______ ____

>  <TORSDO>
F 7

$$$$
