=
 OpenBabel07192307433D

 43 45  0  0  1  0  0  0  0  0999 V2000
    2.4350    6.6890   19.1610 N   0  0  0  0  0  0  0  0  0  0  0  0
    2.2580    7.8480   18.4530 C   0  0  0  0  0  0  0  0  0  0  0  0
    2.7400    8.0320   17.3350 O   0  0  0  0  0  0  0  0  0  0  0  0
    1.5690    8.8300   19.1180 N   0  0  0  0  0  0  0  0  0  0  0  0
    0.9750    8.7590   20.4400 C   0  0  0  0  0  0  0  0  0  0  0  0
    0.5590   10.1930   20.7610 C   0  0  0  0  0  0  0  0  0  0  0  0
    0.3830   10.8720   19.3910 C   0  0  1  0  0  0  0  0  0  0  0  0
    1.4540   10.1580   18.5510 C   0  0  0  0  0  0  0  0  0  0  0  0
    1.6750    6.4100   19.7710 H   0  0  0  0  0  0  0  0  0  0  0  0
    0.1270    8.0710   20.3990 H   0  0  0  0  0  0  0  0  0  0  0  0
    1.6980    8.3750   21.1660 H   0  0  0  0  0  0  0  0  0  0  0  0
    1.3970   10.6820   21.2780 H   0  0  0  0  0  0  0  0  0  0  0  0
   -0.3020   10.2610   21.4280 H   0  0  0  0  0  0  0  0  0  0  0  0
    0.6560   11.9300   19.4990 H   0  0  0  0  0  0  0  0  0  0  0  0
    1.2760   10.1330   17.4700 H   0  0  0  0  0  0  0  0  0  0  0  0
    2.4260   10.6420   18.7120 H   0  0  0  0  0  0  0  0  0  0  0  0
    2.9300    3.2380   19.2360 C   0  0  2  0  0  0  0  0  0  0  0  0
    4.3720    3.6600   19.4790 C   0  0  0  0  0  0  0  0  0  0  0  0
    4.3220    5.1750   19.5670 C   0  0  0  0  0  0  0  0  0  0  0  0
    3.2010    5.5920   18.6150 C   0  0  1  0  0  0  0  0  0  0  0  0
    2.3490    4.3430   18.3500 C   0  0  0  0  0  0  0  0  0  0  0  0
    2.9050    2.2700   18.7210 H   0  0  0  0  0  0  0  0  0  0  0  0
    4.8040    3.2140   20.3820 H   0  0  0  0  0  0  0  0  0  0  0  0
    4.9960    3.3710   18.6220 H   0  0  0  0  0  0  0  0  0  0  0  0
    4.1220    5.4940   20.5960 H   0  0  0  0  0  0  0  0  0  0  0  0
    5.2820    5.6240   19.2850 H   0  0  0  0  0  0  0  0  0  0  0  0
    3.6410    5.9290   17.6690 H   0  0  0  0  0  0  0  0  0  0  0  0
    2.4410    4.0600   17.2870 H   0  0  0  0  0  0  0  0  0  0  0  0
    1.2770    4.5150   18.5340 H   0  0  0  0  0  0  0  0  0  0  0  0
    2.5860    2.6060   21.4910 O   0  0  0  0  0  1  0  0  0  0  0  0
    2.0370    3.1530   20.4900 C   0  0  0  0  0  0  0  0  0  0  0  0
    0.8670    3.6160   20.3800 O   0  0  0  0  0  0  0  0  0  0  0  0
   -0.9810   10.8500   18.7250 C   0  0  0  0  0  0  0  0  0  0  0  0
   -1.1460   10.0100   17.6090 C   0  0  0  0  0  0  0  0  0  0  0  0
   -2.3680    9.9320   16.9400 C   0  0  0  0  0  0  0  0  0  0  0  0
   -3.4500   10.7010   17.3670 C   0  0  0  0  0  0  0  0  0  0  0  0
   -3.3080   11.5370   18.4690 C   0  0  0  0  0  0  0  0  0  0  0  0
   -2.0850   11.6090   19.1300 C   0  0  0  0  0  0  0  0  0  0  0  0
   -1.9950   12.4400   20.1730 F   0  0  0  0  0  0  0  0  0  0  0  0
   -0.3160    9.4010   17.2570 H   0  0  0  0  0  0  0  0  0  0  0  0
   -2.4720    9.2640   16.0860 H   0  0  0  0  0  0  0  0  0  0  0  0
   -4.4030   10.6400   16.8470 H   0  0  0  0  0  0  0  0  0  0  0  0
   -4.1410   12.1360   18.8240 H   0  0  0  0  0  0  0  0  0  0  0  0
  1  9  1  0  0  0  0
  2  4  1  0  0  0  0
  2  1  1  0  0  0  0
  3  2  2  0  0  0  0
  4  5  1  0  0  0  0
  5  6  1  0  0  0  0
  5 11  1  0  0  0  0
  6 12  1  0  0  0  0
  6 13  1  0  0  0  0
  7 14  1  1  0  0  0
  7  6  1  0  0  0  0
  8 16  1  0  0  0  0
  8  4  1  0  0  0  0
  8  7  1  0  0  0  0
 10  5  1  0  0  0  0
 15  8  1  0  0  0  0
 17 22  1  6  0  0  0
 17 18  1  0  0  0  0
 17 31  1  0  0  0  0
 18 19  1  0  0  0  0
 18 23  1  0  0  0  0
 19 25  1  0  0  0  0
 20 27  1  6  0  0  0
 20  1  1  0  0  0  0
 20 19  1  0  0  0  0
 21 29  1  0  0  0  0
 21 20  1  0  0  0  0
 21 17  1  0  0  0  0
 24 18  1  0  0  0  0
 26 19  1  0  0  0  0
 28 21  1  0  0  0  0
 31 30  1  0  0  0  0
 32 31  2  0  0  0  0
 33 38  1  0  0  0  0
 33  7  1  0  0  0  0
 34 33  2  0  0  0  0
 35 36  2  0  0  0  0
 35 34  1  0  0  0  0
 36 37  1  0  0  0  0
 37 43  1  0  0  0  0
 37 38  2  0  0  0  0
 38 39  1  0  0  0  0
 40 34  1  0  0  0  0
 41 35  1  0  0  0  0
 42 36  1  0  0  0  0
M  END
>  <MODEL>
1

>  <REMARK>
 VINA RESULT:    -8.066      0.000      0.000
 INTER + INTRA:          -9.593
 INTER:                  -8.966
 INTRA:                  -0.627
 UNBOUND:                -0.113
  Name = 
  3 active torsions:
  status: ('A' for Active; 'I' for Inactive)
    1  A    between atoms: C_2  and  C_4
    2  A    between atoms: C_7  and  N_8
    3  A    between atoms: C_14  and  C_15
                            x       y       z     vdW  Elec       q    Type
                         _______ _______ _______ _____ _____    ______ ____

>  <TORSDO>
F 3

$$$$
=
 OpenBabel07192307433D

 43 45  0  0  1  0  0  0  0  0999 V2000
    2.1890    7.0350   19.1900 N   0  0  0  0  0  0  0  0  0  0  0  0
    1.9730    8.1900   18.4850 C   0  0  0  0  0  0  0  0  0  0  0  0
    2.4460    8.3920   17.3660 O   0  0  0  0  0  0  0  0  0  0  0  0
    1.2540    9.1470   19.1540 N   0  0  0  0  0  0  0  0  0  0  0  0
    0.6660    9.0550   20.4770 C   0  0  0  0  0  0  0  0  0  0  0  0
    0.2060   10.4730   20.8030 C   0  0  0  0  0  0  0  0  0  0  0  0
    0.0040   11.1500   19.4360 C   0  0  1  0  0  0  0  0  0  0  0  0
    1.0950   10.4720   18.5910 C   0  0  0  0  0  0  0  0  0  0  0  0
    1.4390    6.7310   19.8000 H   0  0  0  0  0  0  0  0  0  0  0  0
   -0.1590    8.3400   20.4370 H   0  0  0  0  0  0  0  0  0  0  0  0
    1.4030    8.6920   21.2010 H   0  0  0  0  0  0  0  0  0  0  0  0
    1.0290   10.9880   21.3200 H   0  0  0  0  0  0  0  0  0  0  0  0
   -0.6560   10.5130   21.4730 H   0  0  0  0  0  0  0  0  0  0  0  0
    0.2440   12.2160   19.5450 H   0  0  0  0  0  0  0  0  0  0  0  0
    0.9160   10.4450   17.5100 H   0  0  0  0  0  0  0  0  0  0  0  0
    2.0520   10.9870   18.7510 H   0  0  0  0  0  0  0  0  0  0  0  0
    2.7710    3.5980   19.2300 C   0  0  2  0  0  0  0  0  0  0  0  0
    4.1990    4.0530   19.4920 C   0  0  0  0  0  0  0  0  0  0  0  0
    4.1100    5.5650   19.5980 C   0  0  0  0  0  0  0  0  0  0  0  0
    2.9880    5.9650   18.6390 C   0  0  1  0  0  0  0  0  0  0  0  0
    2.1700    4.6980   18.3510 C   0  0  0  0  0  0  0  0  0  0  0  0
    2.7760    2.6350   18.7040 H   0  0  0  0  0  0  0  0  0  0  0  0
    4.6340    3.6070   20.3950 H   0  0  0  0  0  0  0  0  0  0  0  0
    4.8390    3.7900   18.6380 H   0  0  0  0  0  0  0  0  0  0  0  0
    3.8910    5.8660   20.6280 H   0  0  0  0  0  0  0  0  0  0  0  0
    5.0610    6.0420   19.3300 H   0  0  0  0  0  0  0  0  0  0  0  0
    3.4280    6.3240   17.7010 H   0  0  0  0  0  0  0  0  0  0  0  0
    2.2800    4.4300   17.2860 H   0  0  0  0  0  0  0  0  0  0  0  0
    1.0920    4.8400   18.5250 H   0  0  0  0  0  0  0  0  0  0  0  0
    0.8880    4.2760   20.4930 O   0  0  0  0  0  0  0  0  0  0  0  0
    1.8680    3.4750   20.4740 C   0  0  0  0  0  0  0  0  0  0  0  0
    2.2080    2.6130   21.3320 O   0  0  0  0  0  1  0  0  0  0  0  0
   -1.3600   11.0860   18.7730 C   0  0  0  0  0  0  0  0  0  0  0  0
   -1.5080   10.2220   17.6720 C   0  0  0  0  0  0  0  0  0  0  0  0
   -2.7300   10.1060   17.0080 C   0  0  0  0  0  0  0  0  0  0  0  0
   -3.8280   10.8580   17.4240 C   0  0  0  0  0  0  0  0  0  0  0  0
   -3.7020   11.7170   18.5100 C   0  0  0  0  0  0  0  0  0  0  0  0
   -2.4800   11.8270   19.1670 C   0  0  0  0  0  0  0  0  0  0  0  0
   -2.4060   12.6790   20.1950 F   0  0  0  0  0  0  0  0  0  0  0  0
   -0.6660    9.6250   17.3290 H   0  0  0  0  0  0  0  0  0  0  0  0
   -2.8200    9.4200   16.1660 H   0  0  0  0  0  0  0  0  0  0  0  0
   -4.7790   10.7670   16.9060 H   0  0  0  0  0  0  0  0  0  0  0  0
   -4.5480   12.3030   18.8560 H   0  0  0  0  0  0  0  0  0  0  0  0
  1  9  1  0  0  0  0
  2  4  1  0  0  0  0
  2  1  1  0  0  0  0
  3  2  2  0  0  0  0
  4  5  1  0  0  0  0
  5  6  1  0  0  0  0
  5 11  1  0  0  0  0
  6 12  1  0  0  0  0
  6 13  1  0  0  0  0
  7 14  1  1  0  0  0
  7  6  1  0  0  0  0
  8 16  1  0  0  0  0
  8  4  1  0  0  0  0
  8  7  1  0  0  0  0
 10  5  1  0  0  0  0
 15  8  1  0  0  0  0
 17 22  1  6  0  0  0
 17 18  1  0  0  0  0
 17 31  1  0  0  0  0
 18 19  1  0  0  0  0
 18 23  1  0  0  0  0
 19 25  1  0  0  0  0
 20 27  1  6  0  0  0
 20  1  1  0  0  0  0
 20 19  1  0  0  0  0
 21 29  1  0  0  0  0
 21 20  1  0  0  0  0
 21 17  1  0  0  0  0
 24 18  1  0  0  0  0
 26 19  1  0  0  0  0
 28 21  1  0  0  0  0
 31 30  2  0  0  0  0
 31 32  1  0  0  0  0
 33 38  1  0  0  0  0
 33  7  1  0  0  0  0
 34 33  2  0  0  0  0
 35 36  2  0  0  0  0
 35 34  1  0  0  0  0
 36 37  1  0  0  0  0
 37 43  1  0  0  0  0
 37 38  2  0  0  0  0
 38 39  1  0  0  0  0
 40 34  1  0  0  0  0
 41 35  1  0  0  0  0
 42 36  1  0  0  0  0
M  END
>  <MODEL>
2

>  <REMARK>
 VINA RESULT:    -7.872      0.448      0.790
 INTER + INTRA:          -9.365
 INTER:                  -8.733
 INTRA:                  -0.632
 UNBOUND:                -0.113
  Name = 
  3 active torsions:
  status: ('A' for Active; 'I' for Inactive)
    1  A    between atoms: C_2  and  C_4
    2  A    between atoms: C_7  and  N_8
    3  A    between atoms: C_14  and  C_15
                            x       y       z     vdW  Elec       q    Type
                         _______ _______ _______ _____ _____    ______ ____

>  <TORSDO>
F 3

$$$$
=
 OpenBabel07192307433D

 43 45  0  0  1  0  0  0  0  0999 V2000
    0.9220    9.6270   18.9280 N   0  0  0  0  0  0  0  0  0  0  0  0
    1.3940    8.6610   19.7770 C   0  0  0  0  0  0  0  0  0  0  0  0
    1.1450    8.6470   20.9830 O   0  0  0  0  0  0  0  0  0  0  0  0
    2.2390    7.7490   19.1980 N   0  0  0  0  0  0  0  0  0  0  0  0
    2.6390    7.6650   17.8060 C   0  0  0  0  0  0  0  0  0  0  0  0
    3.7610    6.6310   17.7810 C   0  0  0  0  0  0  0  0  0  0  0  0
    3.5230    5.7560   19.0240 C   0  0  1  0  0  0  0  0  0  0  0  0
    2.9370    6.7760   20.0140 C   0  0  0  0  0  0  0  0  0  0  0  0
    0.7350    9.3390   17.9740 H   0  0  0  0  0  0  0  0  0  0  0  0
    1.7700    7.3630   17.2170 H   0  0  0  0  0  0  0  0  0  0  0  0
    2.9790    8.6410   17.4450 H   0  0  0  0  0  0  0  0  0  0  0  0
    4.7150    7.1600   17.9140 H   0  0  0  0  0  0  0  0  0  0  0  0
    3.8350    6.0860   16.8370 H   0  0  0  0  0  0  0  0  0  0  0  0
    4.5010    5.4170   19.3930 H   0  0  0  0  0  0  0  0  0  0  0  0
    2.3010    6.3650   20.8050 H   0  0  0  0  0  0  0  0  0  0  0  0
    3.7560    7.3210   20.5020 H   0  0  0  0  0  0  0  0  0  0  0  0
   -2.0230   11.4080   18.3710 C   0  0  2  0  0  0  0  0  0  0  0  0
   -1.0760   12.5950   18.4590 C   0  0  0  0  0  0  0  0  0  0  0  0
    0.3030   11.9800   18.6150 C   0  0  0  0  0  0  0  0  0  0  0  0
    0.0760   10.6950   19.4110 C   0  0  1  0  0  0  0  0  0  0  0  0
   -1.4190   10.3620   19.3120 C   0  0  0  0  0  0  0  0  0  0  0  0
   -3.0260   11.7030   18.7060 H   0  0  0  0  0  0  0  0  0  0  0  0
   -1.1310   13.2550   17.5840 H   0  0  0  0  0  0  0  0  0  0  0  0
   -1.3060   13.1930   19.3520 H   0  0  0  0  0  0  0  0  0  0  0  0
    0.7470   11.7780   17.6340 H   0  0  0  0  0  0  0  0  0  0  0  0
    0.9890   12.6620   19.1320 H   0  0  0  0  0  0  0  0  0  0  0  0
    0.3310   10.8740   20.4620 H   0  0  0  0  0  0  0  0  0  0  0  0
   -1.8770   10.4470   20.3130 H   0  0  0  0  0  0  0  0  0  0  0  0
   -1.6020    9.3300   18.9740 H   0  0  0  0  0  0  0  0  0  0  0  0
   -1.6580    9.5800   16.9130 O   0  0  0  0  0  1  0  0  0  0  0  0
   -2.1430   10.7470   16.9830 C   0  0  0  0  0  0  0  0  0  0  0  0
   -2.6880   11.4370   16.0770 O   0  0  0  0  0  0  0  0  0  0  0  0
    2.6600    4.5130   18.9010 C   0  0  0  0  0  0  0  0  0  0  0  0
    1.6090    4.3570   19.8230 C   0  0  0  0  0  0  0  0  0  0  0  0
    0.7690    3.2430   19.7760 C   0  0  0  0  0  0  0  0  0  0  0  0
    0.9700    2.2550   18.8130 C   0  0  0  0  0  0  0  0  0  0  0  0
    2.0030    2.3910   17.8920 C   0  0  0  0  0  0  0  0  0  0  0  0
    2.8360    3.5050   17.9460 C   0  0  0  0  0  0  0  0  0  0  0  0
    3.8240    3.5800   17.0490 F   0  0  0  0  0  0  0  0  0  0  0  0
    1.4330    5.1150   20.5830 H   0  0  0  0  0  0  0  0  0  0  0  0
   -0.0440    3.1540   20.4950 H   0  0  0  0  0  0  0  0  0  0  0  0
    0.3160    1.3880   18.7770 H   0  0  0  0  0  0  0  0  0  0  0  0
    2.1690    1.6380   17.1280 H   0  0  0  0  0  0  0  0  0  0  0  0
  1 20  1  0  0  0  0
  1  2  1  0  0  0  0
  2  3  2  0  0  0  0
  4  2  1  0  0  0  0
  4  8  1  0  0  0  0
  5  4  1  0  0  0  0
  6  5  1  0  0  0  0
  6 12  1  0  0  0  0
  6  7  1  0  0  0  0
  7 14  1  1  0  0  0
  7  8  1  0  0  0  0
  8 16  1  0  0  0  0
  8 15  1  0  0  0  0
  9  1  1  0  0  0  0
 10  5  1  0  0  0  0
 11  5  1  0  0  0  0
 13  6  1  0  0  0  0
 17 18  1  0  0  0  0
 17 22  1  1  0  0  0
 17 21  1  0  0  0  0
 18 19  1  0  0  0  0
 18 24  1  0  0  0  0
 19 26  1  0  0  0  0
 19 20  1  0  0  0  0
 20 27  1  1  0  0  0
 21 20  1  0  0  0  0
 21 28  1  0  0  0  0
 23 18  1  0  0  0  0
 25 19  1  0  0  0  0
 29 21  1  0  0  0  0
 30 31  1  0  0  0  0
 31 17  1  0  0  0  0
 32 31  2  0  0  0  0
 33  7  1  0  0  0  0
 33 34  1  0  0  0  0
 34 40  1  0  0  0  0
 35 34  2  0  0  0  0
 35 41  1  0  0  0  0
 36 35  1  0  0  0  0
 37 38  1  0  0  0  0
 37 36  2  0  0  0  0
 38 33  2  0  0  0  0
 39 38  1  0  0  0  0
 42 36  1  0  0  0  0
 43 37  1  0  0  0  0
M  END
>  <MODEL>
3

>  <REMARK>
 VINA RESULT:    -7.734      3.180      7.595
 INTER + INTRA:          -9.203
 INTER:                  -8.532
 INTRA:                  -0.671
 UNBOUND:                -0.113
  Name = 
  3 active torsions:
  status: ('A' for Active; 'I' for Inactive)
    1  A    between atoms: C_2  and  C_4
    2  A    between atoms: C_7  and  N_8
    3  A    between atoms: C_14  and  C_15
                            x       y       z     vdW  Elec       q    Type
                         _______ _______ _______ _____ _____    ______ ____

>  <TORSDO>
F 3

$$$$
=
 OpenBabel07192307433D

 43 45  0  0  1  0  0  0  0  0999 V2000
    1.2530    9.3010   19.5970 N   0  0  0  0  0  0  0  0  0  0  0  0
    1.8630    8.7780   18.4870 C   0  0  0  0  0  0  0  0  0  0  0  0
    1.9050    9.3650   17.4050 O   0  0  0  0  0  0  0  0  0  0  0  0
    2.3580    7.5090   18.6450 N   0  0  0  0  0  0  0  0  0  0  0  0
    2.3520    6.6960   19.8470 C   0  0  0  0  0  0  0  0  0  0  0  0
    2.8010    5.3110   19.3860 C   0  0  0  0  0  0  0  0  0  0  0  0
    3.6090    5.5620   18.1010 C   0  0  1  0  0  0  0  0  0  0  0  0
    2.8780    6.7780   17.5080 C   0  0  0  0  0  0  0  0  0  0  0  0
    1.6560    9.0520   20.4930 H   0  0  0  0  0  0  0  0  0  0  0  0
    3.0370    7.1450   20.5690 H   0  0  0  0  0  0  0  0  0  0  0  0
    1.3500    6.6710   20.2890 H   0  0  0  0  0  0  0  0  0  0  0  0
    1.9030    4.7340   19.1180 H   0  0  0  0  0  0  0  0  0  0  0  0
    3.3200    4.7390   20.1580 H   0  0  0  0  0  0  0  0  0  0  0  0
    3.4680    4.6980   17.4370 H   0  0  0  0  0  0  0  0  0  0  0  0
    3.4710    7.4140   16.8420 H   0  0  0  0  0  0  0  0  0  0  0  0
    2.0030    6.4350   16.9410 H   0  0  0  0  0  0  0  0  0  0  0  0
   -0.4400   11.7070   21.4680 C   0  0  2  0  0  0  0  0  0  0  0  0
   -1.4460   11.5800   20.3340 C   0  0  0  0  0  0  0  0  0  0  0  0
   -0.8940   10.4770   19.4480 C   0  0  0  0  0  0  0  0  0  0  0  0
    0.6260   10.6020   19.5590 C   0  0  1  0  0  0  0  0  0  0  0  0
    0.9180   11.4410   20.8110 C   0  0  0  0  0  0  0  0  0  0  0  0
   -0.4780   12.7180   21.8910 H   0  0  0  0  0  0  0  0  0  0  0  0
   -2.4600   11.3520   20.6830 H   0  0  0  0  0  0  0  0  0  0  0  0
   -1.4830   12.5160   19.7590 H   0  0  0  0  0  0  0  0  0  0  0  0
   -1.2480    9.4980   19.7880 H   0  0  0  0  0  0  0  0  0  0  0  0
   -1.2350   10.5880   18.4120 H   0  0  0  0  0  0  0  0  0  0  0  0
    1.0080   11.1320   18.6790 H   0  0  0  0  0  0  0  0  0  0  0  0
    1.3820   12.3950   20.5080 H   0  0  0  0  0  0  0  0  0  0  0  0
    1.6310   10.9510   21.4930 H   0  0  0  0  0  0  0  0  0  0  0  0
   -1.6020   10.8710   23.3530 O   0  0  0  0  0  1  0  0  0  0  0  0
   -0.5900   10.6870   22.6150 C   0  0  0  0  0  0  0  0  0  0  0  0
    0.3070    9.8030   22.7020 O   0  0  0  0  0  0  0  0  0  0  0  0
    5.1070    5.7830   18.2000 C   0  0  0  0  0  0  0  0  0  0  0  0
    5.7600    5.3030   19.3510 C   0  0  0  0  0  0  0  0  0  0  0  0
    7.1360    5.4640   19.5190 C   0  0  0  0  0  0  0  0  0  0  0  0
    7.8880    6.1190   18.5440 C   0  0  0  0  0  0  0  0  0  0  0  0
    7.2620    6.5980   17.3980 C   0  0  0  0  0  0  0  0  0  0  0  0
    5.8890    6.4330   17.2390 C   0  0  0  0  0  0  0  0  0  0  0  0
    5.3320    6.9280   16.1290 F   0  0  0  0  0  0  0  0  0  0  0  0
    5.1940    4.7900   20.1260 H   0  0  0  0  0  0  0  0  0  0  0  0
    7.6170    5.0730   20.4140 H   0  0  0  0  0  0  0  0  0  0  0  0
    8.9600    6.2440   18.6740 H   0  0  0  0  0  0  0  0  0  0  0  0
    7.8320    7.1010   16.6230 H   0  0  0  0  0  0  0  0  0  0  0  0
  1  9  1  0  0  0  0
  2  4  1  0  0  0  0
  2  1  1  0  0  0  0
  3  2  2  0  0  0  0
  4  5  1  0  0  0  0
  5 11  1  0  0  0  0
  5 10  1  0  0  0  0
  6  5  1  0  0  0  0
  6 13  1  0  0  0  0
  7 14  1  6  0  0  0
  7 33  1  0  0  0  0
  7  6  1  0  0  0  0
  8  7  1  0  0  0  0
  8  4  1  0  0  0  0
 12  6  1  0  0  0  0
 15  8  1  0  0  0  0
 16  8  1  0  0  0  0
 17 22  1  1  0  0  0
 17 31  1  0  0  0  0
 18 23  1  0  0  0  0
 18 17  1  0  0  0  0
 19 20  1  0  0  0  0
 19 25  1  0  0  0  0
 19 18  1  0  0  0  0
 20 27  1  6  0  0  0
 20  1  1  0  0  0  0
 20 21  1  0  0  0  0
 21 17  1  0  0  0  0
 21 29  1  0  0  0  0
 24 18  1  0  0  0  0
 26 19  1  0  0  0  0
 28 21  1  0  0  0  0
 31 32  2  0  0  0  0
 31 30  1  0  0  0  0
 33 34  1  0  0  0  0
 34 35  2  0  0  0  0
 34 40  1  0  0  0  0
 35 41  1  0  0  0  0
 36 42  1  0  0  0  0
 36 35  1  0  0  0  0
 37 36  2  0  0  0  0
 38 37  1  0  0  0  0
 38 33  2  0  0  0  0
 39 38  1  0  0  0  0
 43 37  1  0  0  0  0
M  END
>  <MODEL>
4

>  <REMARK>
 VINA RESULT:    -7.687      3.483      7.733
 INTER + INTRA:          -9.147
 INTER:                  -8.724
 INTRA:                  -0.424
 UNBOUND:                -0.113
  Name = 
  3 active torsions:
  status: ('A' for Active; 'I' for Inactive)
    1  A    between atoms: C_2  and  C_4
    2  A    between atoms: C_7  and  N_8
    3  A    between atoms: C_14  and  C_15
                            x       y       z     vdW  Elec       q    Type
                         _______ _______ _______ _____ _____    ______ ____

>  <TORSDO>
F 3

$$$$
=
 OpenBabel07192307433D

 43 45  0  0  1  0  0  0  0  0999 V2000
    1.2420    9.3470   19.5320 N   0  0  0  0  0  0  0  0  0  0  0  0
    1.9070    8.8920   18.4240 C   0  0  0  0  0  0  0  0  0  0  0  0
    1.9940    9.5410   17.3800 O   0  0  0  0  0  0  0  0  0  0  0  0
    2.4040    7.6190   18.5320 N   0  0  0  0  0  0  0  0  0  0  0  0
    2.3490    6.7380   19.6840 C   0  0  0  0  0  0  0  0  0  0  0  0
    2.8300    5.3850   19.1660 C   0  0  0  0  0  0  0  0  0  0  0  0
    3.6960    5.7140   17.9370 C   0  0  1  0  0  0  0  0  0  0  0  0
    2.9840    6.9580   17.3810 C   0  0  0  0  0  0  0  0  0  0  0  0
    1.6040    9.0490   20.4300 H   0  0  0  0  0  0  0  0  0  0  0  0
    2.9960    7.1490   20.4610 H   0  0  0  0  0  0  0  0  0  0  0  0
    1.3280    6.6820   20.0760 H   0  0  0  0  0  0  0  0  0  0  0  0
    1.9520    4.8190   18.8230 H   0  0  0  0  0  0  0  0  0  0  0  0
    3.3180    4.7720   19.9270 H   0  0  0  0  0  0  0  0  0  0  0  0
    3.5930    4.8890   17.2190 H   0  0  0  0  0  0  0  0  0  0  0  0
    3.6020    7.6350   16.7810 H   0  0  0  0  0  0  0  0  0  0  0  0
    2.1390    6.6440   16.7540 H   0  0  0  0  0  0  0  0  0  0  0  0
   -0.4320   11.6930   21.4940 C   0  0  2  0  0  0  0  0  0  0  0  0
   -1.4570   11.5890   20.3750 C   0  0  0  0  0  0  0  0  0  0  0  0
   -0.9150   10.5130   19.4510 C   0  0  0  0  0  0  0  0  0  0  0  0
    0.6060   10.6440   19.5390 C   0  0  1  0  0  0  0  0  0  0  0  0
    0.9150   11.4530   20.8070 C   0  0  0  0  0  0  0  0  0  0  0  0
   -0.4690   12.6930   21.9440 H   0  0  0  0  0  0  0  0  0  0  0  0
   -2.4640   11.3460   20.7350 H   0  0  0  0  0  0  0  0  0  0  0  0
   -1.5110   12.5390   19.8260 H   0  0  0  0  0  0  0  0  0  0  0  0
   -1.2560    9.5230   19.7720 H   0  0  0  0  0  0  0  0  0  0  0  0
   -1.2750   10.6480   18.4240 H   0  0  0  0  0  0  0  0  0  0  0  0
    0.9690   11.2000   18.6660 H   0  0  0  0  0  0  0  0  0  0  0  0
    1.3680   12.4180   20.5200 H   0  0  0  0  0  0  0  0  0  0  0  0
    1.6430   10.9500   21.4630 H   0  0  0  0  0  0  0  0  0  0  0  0
   -1.5690   10.7870   23.3620 O   0  0  0  0  0  1  0  0  0  0  0  0
   -0.5560   10.6430   22.6160 C   0  0  0  0  0  0  0  0  0  0  0  0
    0.3600    9.7770   22.6790 O   0  0  0  0  0  0  0  0  0  0  0  0
    5.1860    5.9370   18.1190 C   0  0  0  0  0  0  0  0  0  0  0  0
    5.7900    6.9530   17.3550 C   0  0  0  0  0  0  0  0  0  0  0  0
    7.1550    7.2220   17.4650 C   0  0  0  0  0  0  0  0  0  0  0  0
    7.9480    6.4730   18.3340 C   0  0  0  0  0  0  0  0  0  0  0  0
    7.3700    5.4660   19.0990 C   0  0  0  0  0  0  0  0  0  0  0  0
    6.0080    5.2040   18.9830 C   0  0  0  0  0  0  0  0  0  0  0  0
    5.5040    4.2140   19.7270 F   0  0  0  0  0  0  0  0  0  0  0  0
    5.1910    7.5490   16.6700 H   0  0  0  0  0  0  0  0  0  0  0  0
    7.5940    8.0220   16.8710 H   0  0  0  0  0  0  0  0  0  0  0  0
    9.0110    6.6830   18.4190 H   0  0  0  0  0  0  0  0  0  0  0  0
    7.9690    4.8790   19.7890 H   0  0  0  0  0  0  0  0  0  0  0  0
  1 20  1  0  0  0  0
  1  9  1  0  0  0  0
  2  4  1  0  0  0  0
  2  1  1  0  0  0  0
  3  2  2  0  0  0  0
  4  5  1  0  0  0  0
  5 11  1  0  0  0  0
  5 10  1  0  0  0  0
  6  5  1  0  0  0  0
  6 13  1  0  0  0  0
  7 14  1  6  0  0  0
  7 33  1  0  0  0  0
  7  6  1  0  0  0  0
  8  7  1  0  0  0  0
  8  4  1  0  0  0  0
 12  6  1  0  0  0  0
 15  8  1  0  0  0  0
 16  8  1  0  0  0  0
 17 22  1  1  0  0  0
 17 31  1  0  0  0  0
 18 23  1  0  0  0  0
 18 17  1  0  0  0  0
 19 20  1  0  0  0  0
 19 25  1  0  0  0  0
 19 18  1  0  0  0  0
 20 27  1  6  0  0  0
 20 21  1  0  0  0  0
 21 29  1  0  0  0  0
 21 17  1  0  0  0  0
 24 18  1  0  0  0  0
 26 19  1  0  0  0  0
 28 21  1  0  0  0  0
 31 32  2  0  0  0  0
 31 30  1  0  0  0  0
 33 38  1  0  0  0  0
 34 35  1  0  0  0  0
 34 33  2  0  0  0  0
 35 36  2  0  0  0  0
 36 42  1  0  0  0  0
 36 37  1  0  0  0  0
 37 43  1  0  0  0  0
 38 37  2  0  0  0  0
 38 39  1  0  0  0  0
 40 34  1  0  0  0  0
 41 35  1  0  0  0  0
M  END
>  <MODEL>
5

>  <REMARK>
 VINA RESULT:    -7.676      3.663      7.765
 INTER + INTRA:          -9.134
 INTER:                  -8.549
 INTRA:                  -0.585
 UNBOUND:                -0.113
  Name = 
  3 active torsions:
  status: ('A' for Active; 'I' for Inactive)
    1  A    between atoms: C_2  and  C_4
    2  A    between atoms: C_7  and  N_8
    3  A    between atoms: C_14  and  C_15
                            x       y       z     vdW  Elec       q    Type
                         _______ _______ _______ _____ _____    ______ ____

>  <TORSDO>
F 3

$$$$
=
 OpenBabel07192307433D

 43 45  0  0  1  0  0  0  0  0999 V2000
    2.4190    6.7130   19.1670 N   0  0  0  0  0  0  0  0  0  0  0  0
    2.2480    7.8970   18.4990 C   0  0  0  0  0  0  0  0  0  0  0  0
    2.7120    8.1070   17.3770 O   0  0  0  0  0  0  0  0  0  0  0  0
    1.5890    8.8690   19.2070 N   0  0  0  0  0  0  0  0  0  0  0  0
    1.0190    8.7670   20.5370 C   0  0  0  0  0  0  0  0  0  0  0  0
    0.6350   10.1960   20.9100 C   0  0  0  0  0  0  0  0  0  0  0  0
    0.4440   10.9210   19.5660 C   0  0  1  0  0  0  0  0  0  0  0  0
    1.4860   10.2150   18.6830 C   0  0  0  0  0  0  0  0  0  0  0  0
    1.6660    6.4290   19.7820 H   0  0  0  0  0  0  0  0  0  0  0  0
    0.1590    8.0950   20.4920 H   0  0  0  0  0  0  0  0  0  0  0  0
    1.7490    8.3480   21.2370 H   0  0  0  0  0  0  0  0  0  0  0  0
    1.4910   10.6550   21.4260 H   0  0  0  0  0  0  0  0  0  0  0  0
   -0.2120   10.2590   21.5970 H   0  0  0  0  0  0  0  0  0  0  0  0
    0.7380   11.9710   19.7010 H   0  0  0  0  0  0  0  0  0  0  0  0
    1.2870   10.2280   17.6060 H   0  0  0  0  0  0  0  0  0  0  0  0
    2.4700   10.6780   18.8400 H   0  0  0  0  0  0  0  0  0  0  0  0
    2.9160    3.2620   19.1860 C   0  0  2  0  0  0  0  0  0  0  0  0
    4.3680    3.6820   19.3570 C   0  0  0  0  0  0  0  0  0  0  0  0
    4.3240    5.1960   19.4610 C   0  0  0  0  0  0  0  0  0  0  0  0
    3.1550    5.6220   18.5720 C   0  0  1  0  0  0  0  0  0  0  0  0
    2.2890    4.3750   18.3410 C   0  0  0  0  0  0  0  0  0  0  0  0
    2.8630    2.2990   18.6650 H   0  0  0  0  0  0  0  0  0  0  0  0
    4.8470    3.2280   20.2330 H   0  0  0  0  0  0  0  0  0  0  0  0
    4.9470    3.4010   18.4660 H   0  0  0  0  0  0  0  0  0  0  0  0
    4.1770    5.5060   20.5010 H   0  0  0  0  0  0  0  0  0  0  0  0
    5.2680    5.6480   19.1330 H   0  0  0  0  0  0  0  0  0  0  0  0
    3.5450    5.9670   17.6070 H   0  0  0  0  0  0  0  0  0  0  0  0
    2.3260    4.1010   17.2720 H   0  0  0  0  0  0  0  0  0  0  0  0
    1.2290    4.5450   18.5810 H   0  0  0  0  0  0  0  0  0  0  0  0
    0.9050    3.6020   20.3870 O   0  0  0  0  0  0  0  0  0  0  0  0
    2.0890    3.1660   20.4840 C   0  0  0  0  0  0  0  0  0  0  0  0
    2.6790    2.6850   21.4920 O   0  0  0  0  0  1  0  0  0  0  0  0
   -0.9330   10.9430   18.9270 C   0  0  0  0  0  0  0  0  0  0  0  0
   -1.9000   11.7910   19.4970 C   0  0  0  0  0  0  0  0  0  0  0  0
   -3.1890   11.8700   18.9680 C   0  0  0  0  0  0  0  0  0  0  0  0
   -3.5420   11.0950   17.8640 C   0  0  0  0  0  0  0  0  0  0  0  0
   -2.5990   10.2530   17.2850 C   0  0  0  0  0  0  0  0  0  0  0  0
   -1.3160   10.1790   17.8190 C   0  0  0  0  0  0  0  0  0  0  0  0
   -0.4520    9.3410   17.2370 F   0  0  0  0  0  0  0  0  0  0  0  0
   -1.6480   12.4050   20.3590 H   0  0  0  0  0  0  0  0  0  0  0  0
   -3.9150   12.5440   19.4220 H   0  0  0  0  0  0  0  0  0  0  0  0
   -4.5460   11.1580   17.4520 H   0  0  0  0  0  0  0  0  0  0  0  0
   -2.8510    9.6490   16.4180 H   0  0  0  0  0  0  0  0  0  0  0  0
  1  9  1  0  0  0  0
  2  1  1  0  0  0  0
  2  4  1  0  0  0  0
  3  2  2  0  0  0  0
  4  5  1  0  0  0  0
  5  6  1  0  0  0  0
  5 11  1  0  0  0  0
  6 12  1  0  0  0  0
  6 13  1  0  0  0  0
  7 14  1  1  0  0  0
  7  6  1  0  0  0  0
  8 16  1  0  0  0  0
  8  4  1  0  0  0  0
  8  7  1  0  0  0  0
 10  5  1  0  0  0  0
 15  8  1  0  0  0  0
 17 22  1  6  0  0  0
 17 18  1  0  0  0  0
 17 31  1  0  0  0  0
 18 19  1  0  0  0  0
 18 23  1  0  0  0  0
 19 25  1  0  0  0  0
 20 27  1  6  0  0  0
 20  1  1  0  0  0  0
 20 19  1  0  0  0  0
 21 20  1  0  0  0  0
 21 29  1  0  0  0  0
 21 17  1  0  0  0  0
 24 18  1  0  0  0  0
 26 19  1  0  0  0  0
 28 21  1  0  0  0  0
 30 31  2  0  0  0  0
 31 32  1  0  0  0  0
 33 34  1  0  0  0  0
 33  7  1  0  0  0  0
 34 40  1  0  0  0  0
 35 41  1  0  0  0  0
 35 34  2  0  0  0  0
 36 35  1  0  0  0  0
 37 38  1  0  0  0  0
 37 36  2  0  0  0  0
 38 33  2  0  0  0  0
 39 38  1  0  0  0  0
 42 36  1  0  0  0  0
 43 37  1  0  0  0  0
M  END
>  <MODEL>
6

>  <REMARK>
 VINA RESULT:    -7.544      0.982      1.552
 INTER + INTRA:          -8.980
 INTER:                  -8.918
 INTRA:                  -0.062
 UNBOUND:                -0.113
  Name = 
  3 active torsions:
  status: ('A' for Active; 'I' for Inactive)
    1  A    between atoms: C_2  and  C_4
    2  A    between atoms: C_7  and  N_8
    3  A    between atoms: C_14  and  C_15
                            x       y       z     vdW  Elec       q    Type
                         _______ _______ _______ _____ _____    ______ ____

>  <TORSDO>
F 3

$$$$
=
 OpenBabel07192307433D

 43 45  0  0  1  0  0  0  0  0999 V2000
    3.8680    5.1510   19.3960 N   0  0  0  0  0  0  0  0  0  0  0  0
    4.9470    4.4980   18.8620 C   0  0  0  0  0  0  0  0  0  0  0  0
    5.3320    3.3990   19.2620 O   0  0  0  0  0  0  0  0  0  0  0  0
    5.6240    5.1980   17.8970 N   0  0  0  0  0  0  0  0  0  0  0  0
    5.3010    6.5040   17.3540 C   0  0  0  0  0  0  0  0  0  0  0  0
    6.5110    6.8880   16.5070 C   0  0  0  0  0  0  0  0  0  0  0  0
    7.1700    5.5510   16.1260 C   0  0  1  0  0  0  0  0  0  0  0  0
    6.8760    4.6950   17.3680 C   0  0  0  0  0  0  0  0  0  0  0  0
    3.3320    5.7330   18.7620 H   0  0  0  0  0  0  0  0  0  0  0  0
    4.3840    6.4150   16.7680 H   0  0  0  0  0  0  0  0  0  0  0  0
    5.1270    7.2230   18.1610 H   0  0  0  0  0  0  0  0  0  0  0  0
    7.2120    7.4440   17.1460 H   0  0  0  0  0  0  0  0  0  0  0  0
    6.2690    7.5430   15.6670 H   0  0  0  0  0  0  0  0  0  0  0  0
    8.2540    5.7150   16.0500 H   0  0  0  0  0  0  0  0  0  0  0  0
    6.8530    3.6110   17.2080 H   0  0  0  0  0  0  0  0  0  0  0  0
    7.6330    4.8970   18.1370 H   0  0  0  0  0  0  0  0  0  0  0  0
    1.7360    2.5390   20.2830 C   0  0  2  0  0  0  0  0  0  0  0  0
    0.8640    3.6900   20.7620 C   0  0  0  0  0  0  0  0  0  0  0  0
    1.6220    4.9430   20.3610 C   0  0  0  0  0  0  0  0  0  0  0  0
    3.0990    4.5650   20.4700 C   0  0  1  0  0  0  0  0  0  0  0  0
    3.1710    3.0310   20.4870 C   0  0  0  0  0  0  0  0  0  0  0  0
    1.5400    1.6440   20.8880 H   0  0  0  0  0  0  0  0  0  0  0  0
   -0.1460    3.6710   20.3340 H   0  0  0  0  0  0  0  0  0  0  0  0
    0.7720    3.6610   21.8570 H   0  0  0  0  0  0  0  0  0  0  0  0
    1.3540    5.2450   19.3430 H   0  0  0  0  0  0  0  0  0  0  0  0
    1.3710    5.7880   21.0120 H   0  0  0  0  0  0  0  0  0  0  0  0
    3.4990    4.9490   21.4160 H   0  0  0  0  0  0  0  0  0  0  0  0
    3.5480    2.6960   21.4690 H   0  0  0  0  0  0  0  0  0  0  0  0
    3.8680    2.6320   19.7340 H   0  0  0  0  0  0  0  0  0  0  0  0
    0.4100    2.1920   18.3540 O   0  0  0  0  0  1  0  0  0  0  0  0
    1.5960    2.1670   18.7940 C   0  0  0  0  0  0  0  0  0  0  0  0
    2.6630    1.8660   18.1870 O   0  0  0  0  0  0  0  0  0  0  0  0
    6.7540    4.8610   14.8390 C   0  0  0  0  0  0  0  0  0  0  0  0
    5.5950    4.0630   14.8750 C   0  0  0  0  0  0  0  0  0  0  0  0
    5.1450    3.3950   13.7350 C   0  0  0  0  0  0  0  0  0  0  0  0
    5.8490    3.5030   12.5370 C   0  0  0  0  0  0  0  0  0  0  0  0
    6.9950    4.2890   12.4800 C   0  0  0  0  0  0  0  0  0  0  0  0
    7.4380    4.9510   13.6220 C   0  0  0  0  0  0  0  0  0  0  0  0
    8.5540    5.6790   13.5200 F   0  0  0  0  0  0  0  0  0  0  0  0
    5.0300    3.9630   15.7990 H   0  0  0  0  0  0  0  0  0  0  0  0
    4.2390    2.7940   13.7890 H   0  0  0  0  0  0  0  0  0  0  0  0
    5.4980    2.9840   11.6490 H   0  0  0  0  0  0  0  0  0  0  0  0
    7.5510    4.3940   11.5530 H   0  0  0  0  0  0  0  0  0  0  0  0
  1 20  1  0  0  0  0
  2  3  2  0  0  0  0
  2  1  1  0  0  0  0
  4  2  1  0  0  0  0
  5  4  1  0  0  0  0
  5 11  1  0  0  0  0
  6 12  1  0  0  0  0
  6  5  1  0  0  0  0
  7 14  1  6  0  0  0
  7  6  1  0  0  0  0
  7  8  1  0  0  0  0
  8  4  1  0  0  0  0
  8 16  1  0  0  0  0
  9  1  1  0  0  0  0
 10  5  1  0  0  0  0
 13  6  1  0  0  0  0
 15  8  1  0  0  0  0
 17 21  1  0  0  0  0
 17 18  1  0  0  0  0
 17 22  1  1  0  0  0
 18 24  1  0  0  0  0
 19 20  1  0  0  0  0
 19 18  1  0  0  0  0
 19 26  1  0  0  0  0
 20 21  1  0  0  0  0
 20 27  1  1  0  0  0
 21 28  1  0  0  0  0
 23 18  1  0  0  0  0
 25 19  1  0  0  0  0
 29 21  1  0  0  0  0
 30 31  1  0  0  0  0
 31 17  1  0  0  0  0
 32 31  2  0  0  0  0
 33 34  1  0  0  0  0
 33  7  1  0  0  0  0
 34 40  1  0  0  0  0
 35 41  1  0  0  0  0
 35 34  2  0  0  0  0
 36 35  1  0  0  0  0
 37 36  2  0  0  0  0
 37 38  1  0  0  0  0
 38 33  2  0  0  0  0
 39 38  1  0  0  0  0
 42 36  1  0  0  0  0
 43 37  1  0  0  0  0
M  END
>  <MODEL>
7

>  <REMARK>
 VINA RESULT:    -7.523      5.705      7.877
 INTER + INTRA:          -8.955
 INTER:                  -9.322
 INTRA:                   0.367
 UNBOUND:                -0.113
  Name = 
  3 active torsions:
  status: ('A' for Active; 'I' for Inactive)
    1  A    between atoms: C_2  and  C_4
    2  A    between atoms: C_7  and  N_8
    3  A    between atoms: C_14  and  C_15
                            x       y       z     vdW  Elec       q    Type
                         _______ _______ _______ _____ _____    ______ ____

>  <TORSDO>
F 3

$$$$
=
 OpenBabel07192307433D

 43 45  0  0  1  0  0  0  0  0999 V2000
    0.9040    9.6190   18.9490 N   0  0  0  0  0  0  0  0  0  0  0  0
    1.3600    8.6600   19.8140 C   0  0  0  0  0  0  0  0  0  0  0  0
    1.1060    8.6680   21.0200 O   0  0  0  0  0  0  0  0  0  0  0  0
    2.1930    7.7270   19.2530 N   0  0  0  0  0  0  0  0  0  0  0  0
    2.5960    7.6160   17.8640 C   0  0  0  0  0  0  0  0  0  0  0  0
    3.7030    6.5650   17.8590 C   0  0  0  0  0  0  0  0  0  0  0  0
    3.4490    5.7130   19.1150 C   0  0  1  0  0  0  0  0  0  0  0  0
    2.8750    6.7570   20.0860 C   0  0  0  0  0  0  0  0  0  0  0  0
    0.7160    9.3190   18.0000 H   0  0  0  0  0  0  0  0  0  0  0  0
    1.7250    7.3170   17.2770 H   0  0  0  0  0  0  0  0  0  0  0  0
    2.9520    8.5810   17.4890 H   0  0  0  0  0  0  0  0  0  0  0  0
    4.6650    7.0830   17.9870 H   0  0  0  0  0  0  0  0  0  0  0  0
    3.7730    6.0050   16.9240 H   0  0  0  0  0  0  0  0  0  0  0  0
    4.4200    5.3660   19.4920 H   0  0  0  0  0  0  0  0  0  0  0  0
    2.2300    6.3670   20.8810 H   0  0  0  0  0  0  0  0  0  0  0  0
    3.7000    7.2980   20.5690 H   0  0  0  0  0  0  0  0  0  0  0  0
   -2.0180   11.4280   18.3590 C   0  0  2  0  0  0  0  0  0  0  0  0
   -1.0550   12.6040   18.4260 C   0  0  0  0  0  0  0  0  0  0  0  0
    0.3160   11.9740   18.5940 C   0  0  0  0  0  0  0  0  0  0  0  0
    0.0730   10.7060   19.4130 C   0  0  1  0  0  0  0  0  0  0  0  0
   -1.4270   10.3910   19.3190 C   0  0  0  0  0  0  0  0  0  0  0  0
   -3.0160   11.7420   18.6890 H   0  0  0  0  0  0  0  0  0  0  0  0
   -1.1010   13.2490   17.5400 H   0  0  0  0  0  0  0  0  0  0  0  0
   -1.2770   13.2210   19.3090 H   0  0  0  0  0  0  0  0  0  0  0  0
    0.7570   11.7490   17.6170 H   0  0  0  0  0  0  0  0  0  0  0  0
    1.0110   12.6560   19.0990 H   0  0  0  0  0  0  0  0  0  0  0  0
    0.3300   10.9010   20.4610 H   0  0  0  0  0  0  0  0  0  0  0  0
   -1.8840   10.5010   20.3180 H   0  0  0  0  0  0  0  0  0  0  0  0
   -1.6230    9.3560   18.9990 H   0  0  0  0  0  0  0  0  0  0  0  0
   -1.6770    9.5690   16.9350 O   0  0  0  0  0  1  0  0  0  0  0  0
   -2.1450   10.7440   16.9840 C   0  0  0  0  0  0  0  0  0  0  0  0
   -2.6800   11.4250   16.0640 O   0  0  0  0  0  0  0  0  0  0  0  0
    2.5690    4.4810   19.0080 C   0  0  0  0  0  0  0  0  0  0  0  0
    2.8910    3.5370   18.0140 C   0  0  0  0  0  0  0  0  0  0  0  0
    2.1320    2.3770   17.8510 C   0  0  0  0  0  0  0  0  0  0  0  0
    1.0290    2.1400   18.6700 C   0  0  0  0  0  0  0  0  0  0  0  0
    0.6960    3.0600   19.6590 C   0  0  0  0  0  0  0  0  0  0  0  0
    1.4580    4.2140   19.8150 C   0  0  0  0  0  0  0  0  0  0  0  0
    1.0860    5.0750   20.7680 F   0  0  0  0  0  0  0  0  0  0  0  0
    3.7460    3.7010   17.3630 H   0  0  0  0  0  0  0  0  0  0  0  0
    2.4110    1.6580   17.0820 H   0  0  0  0  0  0  0  0  0  0  0  0
    0.4390    1.2360   18.5430 H   0  0  0  0  0  0  0  0  0  0  0  0
   -0.1530    2.8880   20.3140 H   0  0  0  0  0  0  0  0  0  0  0  0
  1 20  1  0  0  0  0
  1  2  1  0  0  0  0
  2  3  2  0  0  0  0
  4  2  1  0  0  0  0
  4  8  1  0  0  0  0
  5  4  1  0  0  0  0
  6  5  1  0  0  0  0
  6 12  1  0  0  0  0
  6  7  1  0  0  0  0
  7 14  1  1  0  0  0
  7  8  1  0  0  0  0
  8 16  1  0  0  0  0
  8 15  1  0  0  0  0
  9  1  1  0  0  0  0
 10  5  1  0  0  0  0
 11  5  1  0  0  0  0
 13  6  1  0  0  0  0
 17 18  1  0  0  0  0
 17 22  1  1  0  0  0
 17 21  1  0  0  0  0
 18 19  1  0  0  0  0
 18 24  1  0  0  0  0
 19 26  1  0  0  0  0
 19 20  1  0  0  0  0
 20 27  1  1  0  0  0
 21 20  1  0  0  0  0
 21 28  1  0  0  0  0
 23 18  1  0  0  0  0
 25 19  1  0  0  0  0
 29 21  1  0  0  0  0
 30 31  1  0  0  0  0
 31 17  1  0  0  0  0
 32 31  2  0  0  0  0
 33  7  1  0  0  0  0
 33 38  1  0  0  0  0
 34 33  2  0  0  0  0
 35 34  1  0  0  0  0
 35 36  2  0  0  0  0
 36 37  1  0  0  0  0
 37 38  2  0  0  0  0
 37 43  1  0  0  0  0
 38 39  1  0  0  0  0
 40 34  1  0  0  0  0
 41 35  1  0  0  0  0
 42 36  1  0  0  0  0
M  END
>  <MODEL>
8

>  <REMARK>
 VINA RESULT:    -7.392      2.761      7.384
 INTER + INTRA:          -8.801
 INTER:                  -8.600
 INTRA:                  -0.201
 UNBOUND:                -0.113
  Name = 
  3 active torsions:
  status: ('A' for Active; 'I' for Inactive)
    1  A    between atoms: C_2  and  C_4
    2  A    between atoms: C_7  and  N_8
    3  A    between atoms: C_14  and  C_15
                            x       y       z     vdW  Elec       q    Type
                         _______ _______ _______ _____ _____    ______ ____

>  <TORSDO>
F 3

$$$$
=
 OpenBabel07192307433D

 43 45  0  0  1  0  0  0  0  0999 V2000
    0.5510    9.5680   19.8640 N   0  0  0  0  0  0  0  0  0  0  0  0
    1.2600    8.5560   20.4570 C   0  0  0  0  0  0  0  0  0  0  0  0
    1.2810    8.3770   21.6760 O   0  0  0  0  0  0  0  0  0  0  0  0
    2.0160    7.8010   19.5980 N   0  0  0  0  0  0  0  0  0  0  0  0
    2.1060    7.9200   18.1550 C   0  0  0  0  0  0  0  0  0  0  0  0
    3.2600    7.0040   17.7570 C   0  0  0  0  0  0  0  0  0  0  0  0
    3.3580    5.9710   18.8930 C   0  0  1  0  0  0  0  0  0  0  0  0
    2.9370    6.8090   20.1110 C   0  0  0  0  0  0  0  0  0  0  0  0
    0.1790    9.3780   18.9400 H   0  0  0  0  0  0  0  0  0  0  0  0
    1.1510    7.6100   17.7250 H   0  0  0  0  0  0  0  0  0  0  0  0
    2.2940    8.9590   17.8660 H   0  0  0  0  0  0  0  0  0  0  0  0
    4.1840    7.6010   17.7580 H   0  0  0  0  0  0  0  0  0  0  0  0
    3.1620    6.5840   16.7530 H   0  0  0  0  0  0  0  0  0  0  0  0
    4.4130    5.6830   19.0010 H   0  0  0  0  0  0  0  0  0  0  0  0
    2.5170    6.2490   20.9540 H   0  0  0  0  0  0  0  0  0  0  0  0
    3.8050    7.3660   20.4870 H   0  0  0  0  0  0  0  0  0  0  0  0
   -1.4660   12.4100   19.7620 C   0  0  2  0  0  0  0  0  0  0  0  0
   -0.4890   12.8860   20.8270 C   0  0  0  0  0  0  0  0  0  0  0  0
    0.5390   11.7750   20.9350 C   0  0  0  0  0  0  0  0  0  0  0  0
   -0.2370   10.4880   20.6520 C   0  0  1  0  0  0  0  0  0  0  0  0
   -1.5460   10.8940   19.9620 C   0  0  0  0  0  0  0  0  0  0  0  0
   -2.4460   12.8780   19.9160 H   0  0  0  0  0  0  0  0  0  0  0  0
   -0.0240   13.8490   20.5840 H   0  0  0  0  0  0  0  0  0  0  0  0
   -1.0080   12.9900   21.7910 H   0  0  0  0  0  0  0  0  0  0  0  0
    1.3480   11.9280   20.2130 H   0  0  0  0  0  0  0  0  0  0  0  0
    1.0060   11.7570   21.9270 H   0  0  0  0  0  0  0  0  0  0  0  0
   -0.4740    9.9950   21.6030 H   0  0  0  0  0  0  0  0  0  0  0  0
   -2.3960   10.6470   20.6220 H   0  0  0  0  0  0  0  0  0  0  0  0
   -1.7160   10.3500   19.0200 H   0  0  0  0  0  0  0  0  0  0  0  0
   -0.2010   13.5890   18.1450 O   0  0  0  0  0  1  0  0  0  0  0  0
   -1.0320   12.6470   18.3010 C   0  0  0  0  0  0  0  0  0  0  0  0
   -1.5560   11.8970   17.4300 O   0  0  0  0  0  0  0  0  0  0  0  0
    2.5720    4.6760   18.7850 C   0  0  0  0  0  0  0  0  0  0  0  0
    1.6260    4.4040   19.7910 C   0  0  0  0  0  0  0  0  0  0  0  0
    0.8630    3.2360   19.7640 C   0  0  0  0  0  0  0  0  0  0  0  0
    1.0360    2.3090   18.7370 C   0  0  0  0  0  0  0  0  0  0  0  0
    1.9650    2.5610   17.7330 C   0  0  0  0  0  0  0  0  0  0  0  0
    2.7230    3.7280   17.7670 C   0  0  0  0  0  0  0  0  0  0  0  0
    3.6140    3.9140   16.7890 F   0  0  0  0  0  0  0  0  0  0  0  0
    1.4740    5.1120   20.6030 H   0  0  0  0  0  0  0  0  0  0  0  0
    0.1290    3.0570   20.5490 H   0  0  0  0  0  0  0  0  0  0  0  0
    0.4410    1.4000   18.7160 H   0  0  0  0  0  0  0  0  0  0  0  0
    2.1070    1.8560   16.9190 H   0  0  0  0  0  0  0  0  0  0  0  0
  1  2  1  0  0  0  0
  1 20  1  0  0  0  0
  2  3  2  0  0  0  0
  4  8  1  0  0  0  0
  4  2  1  0  0  0  0
  5  4  1  0  0  0  0
  6 12  1  0  0  0  0
  6  5  1  0  0  0  0
  6  7  1  0  0  0  0
  7 14  1  1  0  0  0
  7  8  1  0  0  0  0
  8 16  1  0  0  0  0
  8 15  1  0  0  0  0
  9  1  1  0  0  0  0
 10  5  1  0  0  0  0
 11  5  1  0  0  0  0
 13  6  1  0  0  0  0
 17 22  1  1  0  0  0
 17 21  1  0  0  0  0
 17 18  1  0  0  0  0
 18 19  1  0  0  0  0
 18 24  1  0  0  0  0
 19 26  1  0  0  0  0
 20 19  1  0  0  0  0
 20 27  1  1  0  0  0
 21 28  1  0  0  0  0
 21 20  1  0  0  0  0
 23 18  1  0  0  0  0
 25 19  1  0  0  0  0
 29 21  1  0  0  0  0
 30 31  1  0  0  0  0
 31 17  1  0  0  0  0
 32 31  2  0  0  0  0
 33  7  1  0  0  0  0
 33 34  1  0  0  0  0
 34 40  1  0  0  0  0
 35 34  2  0  0  0  0
 35 41  1  0  0  0  0
 36 35  1  0  0  0  0
 37 38  1  0  0  0  0
 37 36  2  0  0  0  0
 38 33  2  0  0  0  0
 39 38  1  0  0  0  0
 42 36  1  0  0  0  0
 43 37  1  0  0  0  0
M  END
>  <MODEL>
9

>  <REMARK>
 VINA RESULT:    -7.163      3.338      7.765
 INTER + INTRA:          -8.532
 INTER:                  -7.929
 INTRA:                  -0.603
 UNBOUND:                -0.113
  Name = 
  3 active torsions:
  status: ('A' for Active; 'I' for Inactive)
    1  A    between atoms: C_2  and  C_4
    2  A    between atoms: C_7  and  N_8
    3  A    between atoms: C_14  and  C_15
                            x       y       z     vdW  Elec       q    Type
                         _______ _______ _______ _____ _____    ______ ____

>  <TORSDO>
F 3

$$$$
=
 OpenBabel07192307433D

 43 45  0  0  1  0  0  0  0  0999 V2000
    2.6230    5.0770   17.8510 N   0  0  0  0  0  0  0  0  0  0  0  0
    3.6320    4.2070   17.5320 C   0  0  0  0  0  0  0  0  0  0  0  0
    3.5640    2.9960   17.7430 O   0  0  0  0  0  0  0  0  0  0  0  0
    4.7640    4.7960   17.0320 N   0  0  0  0  0  0  0  0  0  0  0  0
    4.9890    6.2040   16.7610 C   0  0  0  0  0  0  0  0  0  0  0  0
    6.4800    6.3120   16.4540 C   0  0  0  0  0  0  0  0  0  0  0  0
    6.8900    4.9090   15.9740 C   0  0  1  0  0  0  0  0  0  0  0  0
    5.9620    4.0120   16.8090 C   0  0  0  0  0  0  0  0  0  0  0  0
    2.5160    5.8860   17.2500 H   0  0  0  0  0  0  0  0  0  0  0  0
    4.3600    6.4960   15.9170 H   0  0  0  0  0  0  0  0  0  0  0  0
    4.7080    6.8110   17.6280 H   0  0  0  0  0  0  0  0  0  0  0  0
    7.0070    6.5170   17.3980 H   0  0  0  0  0  0  0  0  0  0  0  0
    6.7310    7.1280   15.7730 H   0  0  0  0  0  0  0  0  0  0  0  0
    7.9310    4.7350   16.2810 H   0  0  0  0  0  0  0  0  0  0  0  0
    5.7390    3.0270   16.3830 H   0  0  0  0  0  0  0  0  0  0  0  0
    6.4060    3.8480   17.7990 H   0  0  0  0  0  0  0  0  0  0  0  0
    1.2230    3.5350   20.6480 C   0  0  2  0  0  0  0  0  0  0  0  0
    0.6450    2.6090   19.5880 C   0  0  0  0  0  0  0  0  0  0  0  0
    1.2420    3.0960   18.2800 C   0  0  0  0  0  0  0  0  0  0  0  0
    1.3960    4.6070   18.4520 C   0  0  1  0  0  0  0  0  0  0  0  0
    1.3190    4.8990   19.9570 C   0  0  0  0  0  0  0  0  0  0  0  0
    0.5500    3.5810   21.5130 H   0  0  0  0  0  0  0  0  0  0  0  0
    0.8720    1.5520   19.7710 H   0  0  0  0  0  0  0  0  0  0  0  0
   -0.4480    2.7220   19.5480 H   0  0  0  0  0  0  0  0  0  0  0  0
    2.2040    2.6080   18.0920 H   0  0  0  0  0  0  0  0  0  0  0  0
    0.5960    2.8480   17.4290 H   0  0  0  0  0  0  0  0  0  0  0  0
    0.5620    5.1130   17.9490 H   0  0  0  0  0  0  0  0  0  0  0  0
    0.4110    5.4910   20.1660 H   0  0  0  0  0  0  0  0  0  0  0  0
    2.1700    5.4980   20.3170 H   0  0  0  0  0  0  0  0  0  0  0  0
    2.7020    2.1460   21.8660 O   0  0  0  0  0  1  0  0  0  0  0  0
    2.6400    3.1840   21.1440 C   0  0  0  0  0  0  0  0  0  0  0  0
    3.5680    3.9660   20.7950 O   0  0  0  0  0  0  0  0  0  0  0  0
    6.8250    4.5850   14.4920 C   0  0  0  0  0  0  0  0  0  0  0  0
    5.8140    3.7060   14.0630 C   0  0  0  0  0  0  0  0  0  0  0  0
    5.6850    3.3580   12.7180 C   0  0  0  0  0  0  0  0  0  0  0  0
    6.5720    3.8750   11.7730 C   0  0  0  0  0  0  0  0  0  0  0  0
    7.5760    4.7470   12.1770 C   0  0  0  0  0  0  0  0  0  0  0  0
    7.6980    5.0890   13.5210 C   0  0  0  0  0  0  0  0  0  0  0  0
    8.6900    5.9170   13.8600 F   0  0  0  0  0  0  0  0  0  0  0  0
    5.1110    3.2890   14.7820 H   0  0  0  0  0  0  0  0  0  0  0  0
    4.8860    2.6840   12.4120 H   0  0  0  0  0  0  0  0  0  0  0  0
    6.4710    3.6050   10.7250 H   0  0  0  0  0  0  0  0  0  0  0  0
    8.2690    5.1690   11.4550 H   0  0  0  0  0  0  0  0  0  0  0  0
  1 20  1  0  0  0  0
  2  3  2  0  0  0  0
  2  1  1  0  0  0  0
  4  2  1  0  0  0  0
  5  4  1  0  0  0  0
  5 11  1  0  0  0  0
  6  5  1  0  0  0  0
  6 12  1  0  0  0  0
  7 14  1  1  0  0  0
  7  6  1  0  0  0  0
  7  8  1  0  0  0  0
  8  4  1  0  0  0  0
  8 16  1  0  0  0  0
  9  1  1  0  0  0  0
 10  5  1  0  0  0  0
 13  6  1  0  0  0  0
 15  8  1  0  0  0  0
 17 31  1  0  0  0  0
 17 22  1  1  0  0  0
 18 23  1  0  0  0  0
 18 17  1  0  0  0  0
 19 20  1  0  0  0  0
 19 18  1  0  0  0  0
 20 27  1  6  0  0  0
 20 21  1  0  0  0  0
 21 28  1  0  0  0  0
 21 29  1  0  0  0  0
 21 17  1  0  0  0  0
 24 18  1  0  0  0  0
 25 19  1  0  0  0  0
 26 19  1  0  0  0  0
 31 30  1  0  0  0  0
 32 31  2  0  0  0  0
 33  7  1  0  0  0  0
 34 33  1  0  0  0  0
 34 40  1  0  0  0  0
 35 34  2  0  0  0  0
 36 37  2  0  0  0  0
 36 35  1  0  0  0  0
 37 38  1  0  0  0  0
 38 39  1  0  0  0  0
 38 33  2  0  0  0  0
 41 35  1  0  0  0  0
 42 36  1  0  0  0  0
 43 37  1  0  0  0  0
M  END
>  <MODEL>
10

>  <REMARK>
 VINA RESULT:    -7.151      5.530      8.018
 INTER + INTRA:          -8.518
 INTER:                  -8.987
 INTRA:                   0.469
 UNBOUND:                -0.113
  Name = 
  3 active torsions:
  status: ('A' for Active; 'I' for Inactive)
    1  A    between atoms: C_2  and  C_4
    2  A    between atoms: C_7  and  N_8
    3  A    between atoms: C_14  and  C_15
                            x       y       z     vdW  Elec       q    Type
                         _______ _______ _______ _____ _____    ______ ____

>  <TORSDO>
F 3

$$$$
=
 OpenBabel07192307433D

 43 45  0  0  1  0  0  0  0  0999 V2000
    0.2770   10.2410   18.0690 N   0  0  0  0  0  0  0  0  0  0  0  0
    0.5880    9.4490   19.1420 C   0  0  0  0  0  0  0  0  0  0  0  0
    0.0630    9.5810   20.2490 O   0  0  0  0  0  0  0  0  0  0  0  0
    1.5930    8.5430   18.9180 N   0  0  0  0  0  0  0  0  0  0  0  0
    2.3120    8.3010   17.6810 C   0  0  0  0  0  0  0  0  0  0  0  0
    3.4620    7.3760   18.0710 C   0  0  0  0  0  0  0  0  0  0  0  0
    2.9860    6.6660   19.3500 C   0  0  1  0  0  0  0  0  0  0  0  0
    2.1310    7.7590   20.0110 C   0  0  0  0  0  0  0  0  0  0  0  0
    0.3350    9.8080   17.1550 H   0  0  0  0  0  0  0  0  0  0  0  0
    1.6230    7.8440   16.9670 H   0  0  0  0  0  0  0  0  0  0  0  0
    2.6750    9.2430   17.2580 H   0  0  0  0  0  0  0  0  0  0  0  0
    4.3290    8.0010   18.3300 H   0  0  0  0  0  0  0  0  0  0  0  0
    3.7850    6.7140   17.2640 H   0  0  0  0  0  0  0  0  0  0  0  0
    3.8660    6.4690   19.9770 H   0  0  0  0  0  0  0  0  0  0  0  0
    1.3490    7.4070   20.6930 H   0  0  0  0  0  0  0  0  0  0  0  0
    2.7810    8.4370   20.5790 H   0  0  0  0  0  0  0  0  0  0  0  0
   -0.7410   13.0280   19.9010 C   0  0  2  0  0  0  0  0  0  0  0  0
   -2.0570   12.2650   19.9350 C   0  0  0  0  0  0  0  0  0  0  0  0
   -1.7590   10.9480   19.2400 C   0  0  0  0  0  0  0  0  0  0  0  0
   -0.7140   11.2870   18.1770 C   0  0  1  0  0  0  0  0  0  0  0  0
   -0.1080   12.6450   18.5600 C   0  0  0  0  0  0  0  0  0  0  0  0
   -0.9330   14.1070   19.9490 H   0  0  0  0  0  0  0  0  0  0  0  0
   -2.4380   12.1110   20.9520 H   0  0  0  0  0  0  0  0  0  0  0  0
   -2.8200   12.8080   19.3610 H   0  0  0  0  0  0  0  0  0  0  0  0
   -1.3840   10.2100   19.9580 H   0  0  0  0  0  0  0  0  0  0  0  0
   -2.6640   10.5170   18.7950 H   0  0  0  0  0  0  0  0  0  0  0  0
   -1.2090   11.3810   17.2030 H   0  0  0  0  0  0  0  0  0  0  0  0
   -0.3750   13.3910   17.7920 H   0  0  0  0  0  0  0  0  0  0  0  0
    0.9920   12.6220   18.6010 H   0  0  0  0  0  0  0  0  0  0  0  0
   -0.2330   12.4380   22.1360 O   0  0  0  0  0  1  0  0  0  0  0  0
    0.2770   12.6590   20.9980 C   0  0  0  0  0  0  0  0  0  0  0  0
    1.4910   12.6340   20.6540 O   0  0  0  0  0  0  0  0  0  0  0  0
    2.2440    5.3460   19.2320 C   0  0  0  0  0  0  0  0  0  0  0  0
    1.9860    4.8600   17.9370 C   0  0  0  0  0  0  0  0  0  0  0  0
    1.3110    3.6540   17.7430 C   0  0  0  0  0  0  0  0  0  0  0  0
    0.8690    2.9140   18.8390 C   0  0  0  0  0  0  0  0  0  0  0  0
    1.1160    3.3780   20.1260 C   0  0  0  0  0  0  0  0  0  0  0  0
    1.7900    4.5810   20.3120 C   0  0  0  0  0  0  0  0  0  0  0  0
    1.9870    4.9910   21.5680 F   0  0  0  0  0  0  0  0  0  0  0  0
    2.3200    5.4200   17.0670 H   0  0  0  0  0  0  0  0  0  0  0  0
    1.1340    3.2950   16.7300 H   0  0  0  0  0  0  0  0  0  0  0  0
    0.3430    1.9750   18.6870 H   0  0  0  0  0  0  0  0  0  0  0  0
    0.7900    2.8100   20.9930 H   0  0  0  0  0  0  0  0  0  0  0  0
  1 20  1  0  0  0  0
  1  2  1  0  0  0  0
  2  3  2  0  0  0  0
  4  2  1  0  0  0  0
  4  8  1  0  0  0  0
  5  6  1  0  0  0  0
  5  4  1  0  0  0  0
  6 12  1  0  0  0  0
  6  7  1  0  0  0  0
  7 14  1  1  0  0  0
  7  8  1  0  0  0  0
  8 16  1  0  0  0  0
  8 15  1  0  0  0  0
  9  1  1  0  0  0  0
 10  5  1  0  0  0  0
 11  5  1  0  0  0  0
 13  6  1  0  0  0  0
 17 18  1  0  0  0  0
 17 22  1  1  0  0  0
 17 31  1  0  0  0  0
 18 23  1  0  0  0  0
 19 18  1  0  0  0  0
 19 25  1  0  0  0  0
 20 27  1  6  0  0  0
 20 21  1  0  0  0  0
 20 19  1  0  0  0  0
 21 29  1  0  0  0  0
 21 17  1  0  0  0  0
 24 18  1  0  0  0  0
 26 19  1  0  0  0  0
 28 21  1  0  0  0  0
 31 30  1  0  0  0  0
 32 31  2  0  0  0  0
 33  7  1  0  0  0  0
 33 38  1  0  0  0  0
 34 33  2  0  0  0  0
 35 34  1  0  0  0  0
 35 36  2  0  0  0  0
 36 37  1  0  0  0  0
 37 38  2  0  0  0  0
 37 43  1  0  0  0  0
 38 39  1  0  0  0  0
 40 34  1  0  0  0  0
 41 35  1  0  0  0  0
 42 36  1  0  0  0  0
M  END
>  <MODEL>
11

>  <REMARK>
 VINA RESULT:    -6.695      3.205      7.367
 INTER + INTRA:          -7.982
 INTER:                  -8.344
 INTRA:                   0.363
 UNBOUND:                -0.113
  Name = 
  3 active torsions:
  status: ('A' for Active; 'I' for Inactive)
    1  A    between atoms: C_2  and  C_4
    2  A    between atoms: C_7  and  N_8
    3  A    between atoms: C_14  and  C_15
                            x       y       z     vdW  Elec       q    Type
                         _______ _______ _______ _____ _____    ______ ____

>  <TORSDO>
F 3

$$$$
=
 OpenBabel07192307433D

 43 45  0  0  1  0  0  0  0  0999 V2000
    1.8600    6.3560   20.8590 N   0  0  0  0  0  0  0  0  0  0  0  0
    1.9870    7.4280   20.0160 C   0  0  0  0  0  0  0  0  0  0  0  0
    2.8280    7.4790   19.1170 O   0  0  0  0  0  0  0  0  0  0  0  0
    1.1590    8.4840   20.2970 N   0  0  0  0  0  0  0  0  0  0  0  0
    0.1490    8.5690   21.3360 C   0  0  0  0  0  0  0  0  0  0  0  0
   -0.2840   10.0330   21.3420 C   0  0  0  0  0  0  0  0  0  0  0  0
    0.0450   10.5520   19.9320 C   0  0  1  0  0  0  0  0  0  0  0  0
    1.3040    9.7390   19.5890 C   0  0  0  0  0  0  0  0  0  0  0  0
    0.9260    6.1550   21.1970 H   0  0  0  0  0  0  0  0  0  0  0  0
   -0.6650    7.8880   21.0800 H   0  0  0  0  0  0  0  0  0  0  0  0
    0.5640    8.2650   22.3020 H   0  0  0  0  0  0  0  0  0  0  0  0
    0.3500   10.5720   22.0610 H   0  0  0  0  0  0  0  0  0  0  0  0
   -1.3170   10.1840   21.6640 H   0  0  0  0  0  0  0  0  0  0  0  0
    0.3140   11.6140   20.0150 H   0  0  0  0  0  0  0  0  0  0  0  0
    1.5020    9.5920   18.5210 H   0  0  0  0  0  0  0  0  0  0  0  0
    2.1850   10.2320   20.0210 H   0  0  0  0  0  0  0  0  0  0  0  0
    2.4770    3.4610   19.0170 C   0  0  2  0  0  0  0  0  0  0  0  0
    2.4200    2.8210   20.3960 C   0  0  0  0  0  0  0  0  0  0  0  0
    2.0610    3.9580   21.3360 C   0  0  0  0  0  0  0  0  0  0  0  0
    2.7150    5.1990   20.7270 C   0  0  1  0  0  0  0  0  0  0  0  0
    3.0410    4.8630   19.2650 C   0  0  0  0  0  0  0  0  0  0  0  0
    3.1410    2.8830   18.3620 H   0  0  0  0  0  0  0  0  0  0  0  0
    1.6980    1.9980   20.4580 H   0  0  0  0  0  0  0  0  0  0  0  0
    3.4100    2.4300   20.6690 H   0  0  0  0  0  0  0  0  0  0  0  0
    0.9730    4.0670   21.4090 H   0  0  0  0  0  0  0  0  0  0  0  0
    2.4240    3.7660   22.3530 H   0  0  0  0  0  0  0  0  0  0  0  0
    3.6500    5.4100   21.2600 H   0  0  0  0  0  0  0  0  0  0  0  0
    4.1370    4.8570   19.1300 H   0  0  0  0  0  0  0  0  0  0  0  0
    2.6460    5.6110   18.5600 H   0  0  0  0  0  0  0  0  0  0  0  0
    1.0720    4.6270   17.5110 O   0  0  0  0  0  0  0  0  0  0  0  0
    1.1220    3.6430   18.3060 C   0  0  0  0  0  0  0  0  0  0  0  0
    0.2160    2.8140   18.6010 O   0  0  0  0  0  1  0  0  0  0  0  0
   -1.0110   10.4640   18.8450 C   0  0  0  0  0  0  0  0  0  0  0  0
   -0.7250    9.6640   17.7240 C   0  0  0  0  0  0  0  0  0  0  0  0
   -1.6440    9.5290   16.6820 C   0  0  0  0  0  0  0  0  0  0  0  0
   -2.8640   10.2020   16.7340 C   0  0  0  0  0  0  0  0  0  0  0  0
   -3.1660   10.9970   17.8340 C   0  0  0  0  0  0  0  0  0  0  0  0
   -2.2440   11.1250   18.8690 C   0  0  0  0  0  0  0  0  0  0  0  0
   -2.5750   11.9150   19.8950 F   0  0  0  0  0  0  0  0  0  0  0  0
    0.2210    9.1300   17.6610 H   0  0  0  0  0  0  0  0  0  0  0  0
   -1.4020    8.8940   15.8320 H   0  0  0  0  0  0  0  0  0  0  0  0
   -3.5800   10.0970   15.9220 H   0  0  0  0  0  0  0  0  0  0  0  0
   -4.1160   11.5200   17.8980 H   0  0  0  0  0  0  0  0  0  0  0  0
  1  9  1  0  0  0  0
  2  4  1  0  0  0  0
  2  1  1  0  0  0  0
  3  2  2  0  0  0  0
  4  5  1  0  0  0  0
  5  6  1  0  0  0  0
  5 11  1  0  0  0  0
  6 13  1  0  0  0  0
  6 12  1  0  0  0  0
  7 14  1  1  0  0  0
  7  6  1  0  0  0  0
  8  7  1  0  0  0  0
  8 16  1  0  0  0  0
  8  4  1  0  0  0  0
 10  5  1  0  0  0  0
 15  8  1  0  0  0  0
 17 22  1  6  0  0  0
 17 21  1  0  0  0  0
 17 18  1  0  0  0  0
 18 23  1  0  0  0  0
 18 24  1  0  0  0  0
 18 19  1  0  0  0  0
 19 25  1  0  0  0  0
 19 26  1  0  0  0  0
 20  1  1  0  0  0  0
 20 27  1  1  0  0  0
 20 19  1  0  0  0  0
 21 20  1  0  0  0  0
 28 21  1  0  0  0  0
 29 21  1  0  0  0  0
 30 31  2  0  0  0  0
 31 32  1  0  0  0  0
 31 17  1  0  0  0  0
 33 38  1  0  0  0  0
 33  7  1  0  0  0  0
 34 33  2  0  0  0  0
 35 36  2  0  0  0  0
 35 34  1  0  0  0  0
 36 37  1  0  0  0  0
 37 43  1  0  0  0  0
 37 38  2  0  0  0  0
 38 39  1  0  0  0  0
 40 34  1  0  0  0  0
 41 35  1  0  0  0  0
 42 36  1  0  0  0  0
M  END
>  <MODEL>
12

>  <REMARK>
 VINA RESULT:    -6.642      1.393      1.789
 INTER + INTRA:          -7.920
 INTER:                  -7.916
 INTRA:                  -0.004
 UNBOUND:                -0.113
  Name = 
  3 active torsions:
  status: ('A' for Active; 'I' for Inactive)
    1  A    between atoms: C_2  and  C_4
    2  A    between atoms: C_7  and  N_8
    3  A    between atoms: C_14  and  C_15
                            x       y       z     vdW  Elec       q    Type
                         _______ _______ _______ _____ _____    ______ ____

>  <TORSDO>
F 3

$$$$
=
 OpenBabel07192307433D

 43 45  0  0  1  0  0  0  0  0999 V2000
    0.1490   10.0560   19.0410 N   0  0  0  0  0  0  0  0  0  0  0  0
    0.6400    9.1530   19.9470 C   0  0  0  0  0  0  0  0  0  0  0  0
    0.3170    9.1520   21.1350 O   0  0  0  0  0  0  0  0  0  0  0  0
    1.5870    8.2950   19.4490 N   0  0  0  0  0  0  0  0  0  0  0  0
    2.0780    8.2050   18.0870 C   0  0  0  0  0  0  0  0  0  0  0  0
    3.2750    7.2610   18.1620 C   0  0  0  0  0  0  0  0  0  0  0  0
    3.0280    6.4050   19.4160 C   0  0  1  0  0  0  0  0  0  0  0  0
    2.3050    7.4020   20.3360 C   0  0  0  0  0  0  0  0  0  0  0  0
    0.0440    9.7280   18.0870 H   0  0  0  0  0  0  0  0  0  0  0  0
    1.2730    7.8200   17.4570 H   0  0  0  0  0  0  0  0  0  0  0  0
    2.3640    9.1950   17.7160 H   0  0  0  0  0  0  0  0  0  0  0  0
    4.1760    7.8680   18.3360 H   0  0  0  0  0  0  0  0  0  0  0  0
    3.4500    6.6990   17.2420 H   0  0  0  0  0  0  0  0  0  0  0  0
    4.0040    6.1530   19.8540 H   0  0  0  0  0  0  0  0  0  0  0  0
    1.6540    6.9630   21.1000 H   0  0  0  0  0  0  0  0  0  0  0  0
    3.0470    8.0230   20.8550 H   0  0  0  0  0  0  0  0  0  0  0  0
   -0.5230   13.4760   19.1030 C   0  0  2  0  0  0  0  0  0  0  0  0
   -0.7390   13.1950   20.5830 C   0  0  0  0  0  0  0  0  0  0  0  0
   -0.3910   11.7270   20.7530 C   0  0  0  0  0  0  0  0  0  0  0  0
   -0.8050   11.0660   19.4380 C   0  0  1  0  0  0  0  0  0  0  0  0
   -0.9530   12.1870   18.3990 C   0  0  0  0  0  0  0  0  0  0  0  0
   -1.1480   14.3210   18.7880 H   0  0  0  0  0  0  0  0  0  0  0  0
   -0.1320   13.8350   21.2350 H   0  0  0  0  0  0  0  0  0  0  0  0
   -1.7960   13.3460   20.8430 H   0  0  0  0  0  0  0  0  0  0  0  0
    0.6800   11.6060   20.9500 H   0  0  0  0  0  0  0  0  0  0  0  0
   -0.9160   11.2880   21.6100 H   0  0  0  0  0  0  0  0  0  0  0  0
   -1.7760   10.5750   19.5730 H   0  0  0  0  0  0  0  0  0  0  0  0
   -2.0120   12.2600   18.0940 H   0  0  0  0  0  0  0  0  0  0  0  0
   -0.3780   11.9920   17.4800 H   0  0  0  0  0  0  0  0  0  0  0  0
    1.3200   14.9430   18.8770 O   0  0  0  0  0  1  0  0  0  0  0  0
    0.9330   13.7550   18.6790 C   0  0  0  0  0  0  0  0  0  0  0  0
    1.5660   12.7860   18.1740 O   0  0  0  0  0  0  0  0  0  0  0  0
    2.2720    5.0950   19.2800 C   0  0  0  0  0  0  0  0  0  0  0  0
    1.8930    4.6950   17.9860 C   0  0  0  0  0  0  0  0  0  0  0  0
    1.1970    3.5030   17.7760 C   0  0  0  0  0  0  0  0  0  0  0  0
    0.8560    2.6910   18.8570 C   0  0  0  0  0  0  0  0  0  0  0  0
    1.2240    3.0690   20.1430 C   0  0  0  0  0  0  0  0  0  0  0  0
    1.9180    4.2580   20.3450 C   0  0  0  0  0  0  0  0  0  0  0  0
    2.2320    4.5840   21.6020 F   0  0  0  0  0  0  0  0  0  0  0  0
    2.1470    5.3120   17.1270 H   0  0  0  0  0  0  0  0  0  0  0  0
    0.9260    3.2120   16.7620 H   0  0  0  0  0  0  0  0  0  0  0  0
    0.3140    1.7630   18.6920 H   0  0  0  0  0  0  0  0  0  0  0  0
    0.9770    2.4440   20.9970 H   0  0  0  0  0  0  0  0  0  0  0  0
  1 20  1  0  0  0  0
  1  2  1  0  0  0  0
  2  3  2  0  0  0  0
  4  2  1  0  0  0  0
  4  8  1  0  0  0  0
  5  6  1  0  0  0  0
  5  4  1  0  0  0  0
  6 12  1  0  0  0  0
  6  7  1  0  0  0  0
  7 14  1  1  0  0  0
  7  8  1  0  0  0  0
  8 16  1  0  0  0  0
  8 15  1  0  0  0  0
  9  1  1  0  0  0  0
 10  5  1  0  0  0  0
 11  5  1  0  0  0  0
 13  6  1  0  0  0  0
 17 22  1  6  0  0  0
 17 18  1  0  0  0  0
 18 19  1  0  0  0  0
 18 24  1  0  0  0  0
 18 23  1  0  0  0  0
 19 25  1  0  0  0  0
 19 26  1  0  0  0  0
 20 27  1  1  0  0  0
 20 19  1  0  0  0  0
 21 17  1  0  0  0  0
 21 20  1  0  0  0  0
 28 21  1  0  0  0  0
 29 21  1  0  0  0  0
 31 30  1  0  0  0  0
 31 17  1  0  0  0  0
 32 31  2  0  0  0  0
 33  7  1  0  0  0  0
 33 38  1  0  0  0  0
 34 33  2  0  0  0  0
 35 34  1  0  0  0  0
 35 36  2  0  0  0  0
 36 37  1  0  0  0  0
 37 38  2  0  0  0  0
 37 43  1  0  0  0  0
 38 39  1  0  0  0  0
 40 34  1  0  0  0  0
 41 35  1  0  0  0  0
 42 36  1  0  0  0  0
M  END
>  <MODEL>
13

>  <REMARK>
 VINA RESULT:    -6.602      3.242      7.719
 INTER + INTRA:          -7.873
 INTER:                  -8.046
 INTRA:                   0.173
 UNBOUND:                -0.113
  Name = 
  3 active torsions:
  status: ('A' for Active; 'I' for Inactive)
    1  A    between atoms: C_2  and  C_4
    2  A    between atoms: C_7  and  N_8
    3  A    between atoms: C_14  and  C_15
                            x       y       z     vdW  Elec       q    Type
                         _______ _______ _______ _____ _____    ______ ____

>  <TORSDO>
F 3

$$$$
=
 OpenBabel07192307433D

 43 45  0  0  1  0  0  0  0  0999 V2000
    2.4010    6.9350   18.4720 N   0  0  0  0  0  0  0  0  0  0  0  0
    1.9970    7.7370   19.5060 C   0  0  0  0  0  0  0  0  0  0  0  0
    2.1990    7.4600   20.6890 O   0  0  0  0  0  0  0  0  0  0  0  0
    1.2730    8.8400   19.1310 N   0  0  0  0  0  0  0  0  0  0  0  0
    0.9390    9.2680   17.7860 C   0  0  0  0  0  0  0  0  0  0  0  0
   -0.0690   10.3990   17.9730 C   0  0  0  0  0  0  0  0  0  0  0  0
    0.2080   10.9500   19.3830 C   0  0  1  0  0  0  0  0  0  0  0  0
    0.6470    9.6810   20.1310 C   0  0  0  0  0  0  0  0  0  0  0  0
    2.6530    7.4020   17.6090 H   0  0  0  0  0  0  0  0  0  0  0  0
    1.8560    9.5960   17.2920 H   0  0  0  0  0  0  0  0  0  0  0  0
    0.5150    8.4380   17.2120 H   0  0  0  0  0  0  0  0  0  0  0  0
   -1.0780    9.9600   17.9710 H   0  0  0  0  0  0  0  0  0  0  0  0
   -0.0510   11.1420   17.1720 H   0  0  0  0  0  0  0  0  0  0  0  0
   -0.7440   11.3050   19.8020 H   0  0  0  0  0  0  0  0  0  0  0  0
    1.2910    9.8380   21.0030 H   0  0  0  0  0  0  0  0  0  0  0  0
   -0.2420    9.1340   20.4740 H   0  0  0  0  0  0  0  0  0  0  0  0
    4.9710    4.8530   17.3680 C   0  0  2  0  0  0  0  0  0  0  0  0
    3.8640    3.8100   17.4150 C   0  0  0  0  0  0  0  0  0  0  0  0
    2.6170    4.5850   17.8010 C   0  0  0  0  0  0  0  0  0  0  0  0
    3.1130    5.7020   18.7200 C   0  0  1  0  0  0  0  0  0  0  0  0
    4.6260    5.8320   18.4940 C   0  0  0  0  0  0  0  0  0  0  0  0
    5.9420    4.3770   17.5490 H   0  0  0  0  0  0  0  0  0  0  0  0
    3.7350    3.2780   16.4640 H   0  0  0  0  0  0  0  0  0  0  0  0
    4.0810    3.0680   18.1960 H   0  0  0  0  0  0  0  0  0  0  0  0
    2.1200    4.9830   16.9100 H   0  0  0  0  0  0  0  0  0  0  0  0
    1.8860    3.9410   18.3040 H   0  0  0  0  0  0  0  0  0  0  0  0
    2.9330    5.4160   19.7630 H   0  0  0  0  0  0  0  0  0  0  0  0
    5.1570    5.5440   19.4180 H   0  0  0  0  0  0  0  0  0  0  0  0
    4.9330    6.8650   18.2680 H   0  0  0  0  0  0  0  0  0  0  0  0
    5.3560    5.0060   15.0380 O   0  0  0  0  0  0  0  0  0  0  0  0
    5.0600    5.6780   16.0690 C   0  0  0  0  0  0  0  0  0  0  0  0
    4.8480    6.9190   16.1750 O   0  0  0  0  0  1  0  0  0  0  0  0
    1.1970   12.0890   19.5510 C   0  0  0  0  0  0  0  0  0  0  0  0
    2.0410   12.3830   18.4640 C   0  0  0  0  0  0  0  0  0  0  0  0
    2.9770   13.4150   18.5370 C   0  0  0  0  0  0  0  0  0  0  0  0
    3.0980   14.1700   19.7040 C   0  0  0  0  0  0  0  0  0  0  0  0
    2.2720   13.8950   20.7890 C   0  0  0  0  0  0  0  0  0  0  0  0
    1.3410   12.8640   20.7070 C   0  0  0  0  0  0  0  0  0  0  0  0
    0.5840   12.6290   21.7830 F   0  0  0  0  0  0  0  0  0  0  0  0
    1.9650   11.8080   17.5430 H   0  0  0  0  0  0  0  0  0  0  0  0
    3.6090   13.6290   17.6760 H   0  0  0  0  0  0  0  0  0  0  0  0
    3.8270   14.9740   19.7610 H   0  0  0  0  0  0  0  0  0  0  0  0
    2.3430   14.4780   21.7030 H   0  0  0  0  0  0  0  0  0  0  0  0
  1 20  1  0  0  0  0
  1  2  1  0  0  0  0
  2  3  2  0  0  0  0
  4  2  1  0  0  0  0
  4  8  1  0  0  0  0
  5  6  1  0  0  0  0
  5  4  1  0  0  0  0
  6  7  1  0  0  0  0
  7 33  1  0  0  0  0
  7 14  1  1  0  0  0
  7  8  1  0  0  0  0
  8 16  1  0  0  0  0
  8 15  1  0  0  0  0
  9  1  1  0  0  0  0
 10  5  1  0  0  0  0
 11  5  1  0  0  0  0
 12  6  1  0  0  0  0
 13  6  1  0  0  0  0
 17 18  1  0  0  0  0
 17 22  1  1  0  0  0
 17 21  1  0  0  0  0
 18 19  1  0  0  0  0
 18 24  1  0  0  0  0
 19 26  1  0  0  0  0
 19 20  1  0  0  0  0
 20 27  1  1  0  0  0
 21 20  1  0  0  0  0
 21 28  1  0  0  0  0
 23 18  1  0  0  0  0
 25 19  1  0  0  0  0
 29 21  1  0  0  0  0
 30 31  2  0  0  0  0
 31 32  1  0  0  0  0
 31 17  1  0  0  0  0
 33 38  1  0  0  0  0
 34 35  1  0  0  0  0
 34 33  2  0  0  0  0
 35 36  2  0  0  0  0
 36 42  1  0  0  0  0
 36 37  1  0  0  0  0
 37 43  1  0  0  0  0
 38 37  2  0  0  0  0
 38 39  1  0  0  0  0
 40 34  1  0  0  0  0
 41 35  1  0  0  0  0
M  END
>  <MODEL>
14

>  <REMARK>
 VINA RESULT:    -6.575      2.430      4.118
 INTER + INTRA:          -7.841
 INTER:                  -7.262
 INTRA:                  -0.579
 UNBOUND:                -0.113
  Name = 
  3 active torsions:
  status: ('A' for Active; 'I' for Inactive)
    1  A    between atoms: C_2  and  C_4
    2  A    between atoms: C_7  and  N_8
    3  A    between atoms: C_14  and  C_15
                            x       y       z     vdW  Elec       q    Type
                         _______ _______ _______ _____ _____    ______ ____

>  <TORSDO>
F 3

$$$$
=
 OpenBabel07192307433D

 43 45  0  0  1  0  0  0  0  0999 V2000
    2.2450    6.9050   19.6670 N   0  0  0  0  0  0  0  0  0  0  0  0
    1.6490    7.9090   20.3840 C   0  0  0  0  0  0  0  0  0  0  0  0
    1.5050    7.8660   21.6060 O   0  0  0  0  0  0  0  0  0  0  0  0
    1.1480    8.9380   19.6280 N   0  0  0  0  0  0  0  0  0  0  0  0
    1.2220    9.1020   18.1880 C   0  0  0  0  0  0  0  0  0  0  0  0
    0.3000   10.2780   17.8790 C   0  0  0  0  0  0  0  0  0  0  0  0
    0.2370   11.0890   19.1860 C   0  0  1  0  0  0  0  0  0  0  0  0
    0.3520    9.9800   20.2440 C   0  0  0  0  0  0  0  0  0  0  0  0
    2.7570    7.1840   18.8380 H   0  0  0  0  0  0  0  0  0  0  0  0
    2.2630    9.2960   17.9180 H   0  0  0  0  0  0  0  0  0  0  0  0
    0.8980    8.1880   17.6810 H   0  0  0  0  0  0  0  0  0  0  0  0
   -0.7040    9.8790   17.6760 H   0  0  0  0  0  0  0  0  0  0  0  0
    0.5950   10.8460   16.9930 H   0  0  0  0  0  0  0  0  0  0  0  0
   -0.7580   11.5490   19.2520 H   0  0  0  0  0  0  0  0  0  0  0  0
    0.7510   10.2860   21.2170 H   0  0  0  0  0  0  0  0  0  0  0  0
   -0.6390    9.5400   20.4200 H   0  0  0  0  0  0  0  0  0  0  0  0
    3.5930    3.7280   19.1760 C   0  0  2  0  0  0  0  0  0  0  0  0
    2.4680    3.3320   20.1200 C   0  0  0  0  0  0  0  0  0  0  0  0
    1.7030    4.6190   20.3720 C   0  0  0  0  0  0  0  0  0  0  0  0
    2.7580    5.7250   20.3230 C   0  0  1  0  0  0  0  0  0  0  0  0
    3.9900    5.1390   19.6180 C   0  0  0  0  0  0  0  0  0  0  0  0
    4.4350    3.0330   19.2850 H   0  0  0  0  0  0  0  0  0  0  0  0
    1.8200    2.5470   19.7130 H   0  0  0  0  0  0  0  0  0  0  0  0
    2.8860    2.9720   21.0710 H   0  0  0  0  0  0  0  0  0  0  0  0
    0.9290    4.7610   19.6090 H   0  0  0  0  0  0  0  0  0  0  0  0
    1.1860    4.5950   21.3390 H   0  0  0  0  0  0  0  0  0  0  0  0
    3.0340    6.0040   21.3470 H   0  0  0  0  0  0  0  0  0  0  0  0
    4.8270    5.0870   20.3360 H   0  0  0  0  0  0  0  0  0  0  0  0
    4.3370    5.7650   18.7810 H   0  0  0  0  0  0  0  0  0  0  0  0
    2.3530    2.9680   17.3090 O   0  0  0  0  0  1  0  0  0  0  0  0
    3.2160    3.8150   17.6840 C   0  0  0  0  0  0  0  0  0  0  0  0
    3.8130    4.6960   17.0040 O   0  0  0  0  0  0  0  0  0  0  0  0
    1.2390   12.2070   19.4120 C   0  0  0  0  0  0  0  0  0  0  0  0
    2.1430   12.4900   18.3720 C   0  0  0  0  0  0  0  0  0  0  0  0
    3.0940   13.5030   18.5000 C   0  0  0  0  0  0  0  0  0  0  0  0
    3.1690   14.2480   19.6770 C   0  0  0  0  0  0  0  0  0  0  0  0
    2.2830   13.9840   20.7160 C   0  0  0  0  0  0  0  0  0  0  0  0
    1.3380   12.9720   20.5790 C   0  0  0  0  0  0  0  0  0  0  0  0
    0.5210   12.7470   21.6130 F   0  0  0  0  0  0  0  0  0  0  0  0
    2.1040   11.9210   17.4450 H   0  0  0  0  0  0  0  0  0  0  0  0
    3.7740   13.7080   17.6750 H   0  0  0  0  0  0  0  0  0  0  0  0
    3.9100   15.0370   19.7760 H   0  0  0  0  0  0  0  0  0  0  0  0
    2.3190   14.5610   21.6350 H   0  0  0  0  0  0  0  0  0  0  0  0
  1 20  1  0  0  0  0
  1  2  1  0  0  0  0
  2  3  2  0  0  0  0
  4  8  1  0  0  0  0
  4  2  1  0  0  0  0
  5  4  1  0  0  0  0
  6  5  1  0  0  0  0
  6  7  1  0  0  0  0
  7 14  1  1  0  0  0
  7 33  1  0  0  0  0
  7  8  1  0  0  0  0
  8 16  1  0  0  0  0
  8 15  1  0  0  0  0
  9  1  1  0  0  0  0
 10  5  1  0  0  0  0
 11  5  1  0  0  0  0
 12  6  1  0  0  0  0
 13  6  1  0  0  0  0
 17 22  1  1  0  0  0
 17 21  1  0  0  0  0
 17 18  1  0  0  0  0
 18 19  1  0  0  0  0
 18 24  1  0  0  0  0
 19 26  1  0  0  0  0
 20 19  1  0  0  0  0
 20 27  1  1  0  0  0
 21 20  1  0  0  0  0
 21 28  1  0  0  0  0
 23 18  1  0  0  0  0
 25 19  1  0  0  0  0
 29 21  1  0  0  0  0
 30 31  1  0  0  0  0
 31 17  1  0  0  0  0
 32 31  2  0  0  0  0
 33 38  1  0  0  0  0
 34 35  1  0  0  0  0
 34 33  2  0  0  0  0
 35 36  2  0  0  0  0
 36 42  1  0  0  0  0
 36 37  1  0  0  0  0
 37 43  1  0  0  0  0
 38 37  2  0  0  0  0
 38 39  1  0  0  0  0
 40 34  1  0  0  0  0
 41 35  1  0  0  0  0
M  END
>  <MODEL>
15

>  <REMARK>
 VINA RESULT:    -6.569      2.374      3.671
 INTER + INTRA:          -7.834
 INTER:                  -7.316
 INTRA:                  -0.518
 UNBOUND:                -0.113
  Name = 
  3 active torsions:
  status: ('A' for Active; 'I' for Inactive)
    1  A    between atoms: C_2  and  C_4
    2  A    between atoms: C_7  and  N_8
    3  A    between atoms: C_14  and  C_15
                            x       y       z     vdW  Elec       q    Type
                         _______ _______ _______ _____ _____    ______ ____

>  <TORSDO>
F 3

$$$$
=
 OpenBabel07192307433D

 43 45  0  0  1  0  0  0  0  0999 V2000
    1.1570    9.7180   20.0280 N   0  0  0  0  0  0  0  0  0  0  0  0
    1.6320    9.2090   18.8480 C   0  0  0  0  0  0  0  0  0  0  0  0
    1.6260    9.8450   17.7930 O   0  0  0  0  0  0  0  0  0  0  0  0
    2.0430    7.9020   18.9070 N   0  0  0  0  0  0  0  0  0  0  0  0
    2.0770    7.0330   20.0690 C   0  0  0  0  0  0  0  0  0  0  0  0
    2.3820    5.6450   19.5120 C   0  0  0  0  0  0  0  0  0  0  0  0
    3.0970    5.9020   18.1730 C   0  0  1  0  0  0  0  0  0  0  0  0
    2.4110    7.1940   17.6990 C   0  0  0  0  0  0  0  0  0  0  0  0
    1.6130    9.3980   20.8740 H   0  0  0  0  0  0  0  0  0  0  0  0
    2.8510    7.3980   20.7470 H   0  0  0  0  0  0  0  0  0  0  0  0
    1.1170    7.0570   20.5940 H   0  0  0  0  0  0  0  0  0  0  0  0
    1.4260    5.1470   19.2970 H   0  0  0  0  0  0  0  0  0  0  0  0
    2.9210    5.0000   20.2100 H   0  0  0  0  0  0  0  0  0  0  0  0
    2.8380    5.0840   17.4870 H   0  0  0  0  0  0  0  0  0  0  0  0
    2.9920    7.8190   17.0120 H   0  0  0  0  0  0  0  0  0  0  0  0
    1.4690    6.9420   17.1950 H   0  0  0  0  0  0  0  0  0  0  0  0
   -1.3730   11.8490   18.9260 C   0  0  2  0  0  0  0  0  0  0  0  0
   -0.1860   12.7180   18.5400 C   0  0  0  0  0  0  0  0  0  0  0  0
    1.0340   11.8810   18.8780 C   0  0  0  0  0  0  0  0  0  0  0  0
    0.6260   11.0600   20.1010 C   0  0  1  0  0  0  0  0  0  0  0  0
   -0.9070   11.0910   20.1730 C   0  0  0  0  0  0  0  0  0  0  0  0
   -2.2420   12.4790   19.1540 H   0  0  0  0  0  0  0  0  0  0  0  0
   -0.1970   13.0160   17.4850 H   0  0  0  0  0  0  0  0  0  0  0  0
   -0.1760   13.6310   19.1530 H   0  0  0  0  0  0  0  0  0  0  0  0
    1.3070   11.2410   18.0310 H   0  0  0  0  0  0  0  0  0  0  0  0
    1.9070   12.5110   19.0860 H   0  0  0  0  0  0  0  0  0  0  0  0
    1.0330   11.5320   21.0030 H   0  0  0  0  0  0  0  0  0  0  0  0
   -1.2170   11.6360   21.0810 H   0  0  0  0  0  0  0  0  0  0  0  0
   -1.3490   10.0850   20.2480 H   0  0  0  0  0  0  0  0  0  0  0  0
   -2.1680   11.2610   16.7760 O   0  0  0  0  0  0  0  0  0  0  0  0
   -1.7930   10.7890   17.8880 C   0  0  0  0  0  0  0  0  0  0  0  0
   -1.7330    9.5830   18.2600 O   0  0  0  0  0  1  0  0  0  0  0  0
    4.6110    6.0120   18.1520 C   0  0  0  0  0  0  0  0  0  0  0  0
    5.1780    7.0160   17.3450 C   0  0  0  0  0  0  0  0  0  0  0  0
    6.5610    7.1840   17.2710 C   0  0  0  0  0  0  0  0  0  0  0  0
    7.4090    6.3450   17.9940 C   0  0  0  0  0  0  0  0  0  0  0  0
    6.8670    5.3480   18.7980 C   0  0  0  0  0  0  0  0  0  0  0  0
    5.4860    5.1870   18.8660 C   0  0  0  0  0  0  0  0  0  0  0  0
    5.0170    4.2040   19.6400 F   0  0  0  0  0  0  0  0  0  0  0  0
    4.5370    7.6820   16.7710 H   0  0  0  0  0  0  0  0  0  0  0  0
    6.9730    7.9770   16.6470 H   0  0  0  0  0  0  0  0  0  0  0  0
    8.4860    6.4760   17.9360 H   0  0  0  0  0  0  0  0  0  0  0  0
    7.5100    4.6910   19.3770 H   0  0  0  0  0  0  0  0  0  0  0  0
  1 20  1  0  0  0  0
  1  9  1  0  0  0  0
  2  4  1  0  0  0  0
  2  1  1  0  0  0  0
  3  2  2  0  0  0  0
  4  5  1  0  0  0  0
  5 11  1  0  0  0  0
  5 10  1  0  0  0  0
  6  5  1  0  0  0  0
  6 13  1  0  0  0  0
  7 14  1  6  0  0  0
  7  6  1  0  0  0  0
  8  7  1  0  0  0  0
  8  4  1  0  0  0  0
 12  6  1  0  0  0  0
 15  8  1  0  0  0  0
 16  8  1  0  0  0  0
 17 22  1  1  0  0  0
 17 21  1  0  0  0  0
 18 19  1  0  0  0  0
 18 17  1  0  0  0  0
 18 24  1  0  0  0  0
 19 26  1  0  0  0  0
 19 20  1  0  0  0  0
 20 21  1  0  0  0  0
 20 27  1  1  0  0  0
 21 29  1  0  0  0  0
 21 28  1  0  0  0  0
 23 18  1  0  0  0  0
 25 19  1  0  0  0  0
 30 31  2  0  0  0  0
 31 32  1  0  0  0  0
 31 17  1  0  0  0  0
 33  7  1  0  0  0  0
 33 38  1  0  0  0  0
 34 33  2  0  0  0  0
 35 34  1  0  0  0  0
 35 36  2  0  0  0  0
 36 37  1  0  0  0  0
 37 38  2  0  0  0  0
 37 43  1  0  0  0  0
 38 39  1  0  0  0  0
 40 34  1  0  0  0  0
 41 35  1  0  0  0  0
 42 36  1  0  0  0  0
M  END
>  <MODEL>
16

>  <REMARK>
 VINA RESULT:    -6.492      3.480      7.739
 INTER + INTRA:          -7.744
 INTER:                  -8.138
 INTRA:                   0.394
 UNBOUND:                -0.113
  Name = 
  3 active torsions:
  status: ('A' for Active; 'I' for Inactive)
    1  A    between atoms: C_2  and  C_4
    2  A    between atoms: C_7  and  N_8
    3  A    between atoms: C_14  and  C_15
                            x       y       z     vdW  Elec       q    Type
                         _______ _______ _______ _____ _____    ______ ____

>  <TORSDO>
F 3

$$$$
=
 OpenBabel07192307433D

 43 45  0  0  1  0  0  0  0  0999 V2000
    1.1910    9.7260   20.0230 N   0  0  0  0  0  0  0  0  0  0  0  0
    1.6600    9.2280   18.8360 C   0  0  0  0  0  0  0  0  0  0  0  0
    1.6710    9.8820   17.7920 O   0  0  0  0  0  0  0  0  0  0  0  0
    2.0440    7.9130   18.8740 N   0  0  0  0  0  0  0  0  0  0  0  0
    2.0570    7.0230   20.0200 C   0  0  0  0  0  0  0  0  0  0  0  0
    2.3370    5.6390   19.4400 C   0  0  0  0  0  0  0  0  0  0  0  0
    3.0610    5.9050   18.1090 C   0  0  1  0  0  0  0  0  0  0  0  0
    2.4040    7.2180   17.6550 C   0  0  0  0  0  0  0  0  0  0  0  0
    1.6370    9.3820   20.8660 H   0  0  0  0  0  0  0  0  0  0  0  0
    2.8360    7.3600   20.7080 H   0  0  0  0  0  0  0  0  0  0  0  0
    1.0950    7.0560   20.5430 H   0  0  0  0  0  0  0  0  0  0  0  0
    1.3710    5.1630   19.2140 H   0  0  0  0  0  0  0  0  0  0  0  0
    2.8590    4.9720   20.1290 H   0  0  0  0  0  0  0  0  0  0  0  0
    2.7890    5.1040   17.4080 H   0  0  0  0  0  0  0  0  0  0  0  0
    3.0000    7.8440   16.9810 H   0  0  0  0  0  0  0  0  0  0  0  0
    1.4580    6.9940   17.1430 H   0  0  0  0  0  0  0  0  0  0  0  0
   -1.3050   11.9200   18.9670 C   0  0  2  0  0  0  0  0  0  0  0  0
   -0.1040   12.7720   18.5850 C   0  0  0  0  0  0  0  0  0  0  0  0
    1.1020   11.9060   18.9030 C   0  0  0  0  0  0  0  0  0  0  0  0
    0.6870   11.0770   20.1180 C   0  0  1  0  0  0  0  0  0  0  0  0
   -0.8450   11.1370   20.2000 C   0  0  0  0  0  0  0  0  0  0  0  0
   -2.1590   12.5640   19.2090 H   0  0  0  0  0  0  0  0  0  0  0  0
   -0.1150   13.0840   17.5330 H   0  0  0  0  0  0  0  0  0  0  0  0
   -0.0710   13.6760   19.2100 H   0  0  0  0  0  0  0  0  0  0  0  0
    1.3580   11.2730   18.0460 H   0  0  0  0  0  0  0  0  0  0  0  0
    1.9890   12.5170   19.1130 H   0  0  0  0  0  0  0  0  0  0  0  0
    1.1090   11.5290   21.0230 H   0  0  0  0  0  0  0  0  0  0  0  0
   -1.1380   11.6750   21.1180 H   0  0  0  0  0  0  0  0  0  0  0  0
   -1.3050   10.1380   20.2650 H   0  0  0  0  0  0  0  0  0  0  0  0
   -2.1310   11.3770   16.8170 O   0  0  0  0  0  0  0  0  0  0  0  0
   -1.7520   10.8820   17.9180 C   0  0  0  0  0  0  0  0  0  0  0  0
   -1.7070    9.6710   18.2720 O   0  0  0  0  0  1  0  0  0  0  0  0
    4.5770    5.9850   18.0940 C   0  0  0  0  0  0  0  0  0  0  0  0
    5.2660    5.4710   19.2090 C   0  0  0  0  0  0  0  0  0  0  0  0
    6.6590    5.5060   19.2730 C   0  0  0  0  0  0  0  0  0  0  0  0
    7.3950    6.0650   18.2290 C   0  0  0  0  0  0  0  0  0  0  0  0
    6.7330    6.5760   17.1180 C   0  0  0  0  0  0  0  0  0  0  0  0
    5.3430    6.5370   17.0610 C   0  0  0  0  0  0  0  0  0  0  0  0
    4.7540    7.0580   15.9800 F   0  0  0  0  0  0  0  0  0  0  0  0
    4.7130    5.0310   20.0370 H   0  0  0  0  0  0  0  0  0  0  0  0
    7.1670    5.0910   20.1430 H   0  0  0  0  0  0  0  0  0  0  0  0
    8.4800    6.0910   18.2790 H   0  0  0  0  0  0  0  0  0  0  0  0
    7.2880    7.0050   16.2890 H   0  0  0  0  0  0  0  0  0  0  0  0
  1 20  1  0  0  0  0
  1  9  1  0  0  0  0
  2  4  1  0  0  0  0
  2  1  1  0  0  0  0
  3  2  2  0  0  0  0
  4  5  1  0  0  0  0
  5 11  1  0  0  0  0
  5 10  1  0  0  0  0
  6  5  1  0  0  0  0
  6 13  1  0  0  0  0
  7 14  1  6  0  0  0
  7  6  1  0  0  0  0
  8  7  1  0  0  0  0
  8  4  1  0  0  0  0
 12  6  1  0  0  0  0
 15  8  1  0  0  0  0
 16  8  1  0  0  0  0
 17 22  1  1  0  0  0
 17 21  1  0  0  0  0
 18 19  1  0  0  0  0
 18 17  1  0  0  0  0
 18 24  1  0  0  0  0
 19 26  1  0  0  0  0
 19 20  1  0  0  0  0
 20 21  1  0  0  0  0
 20 27  1  1  0  0  0
 21 29  1  0  0  0  0
 21 28  1  0  0  0  0
 23 18  1  0  0  0  0
 25 19  1  0  0  0  0
 30 31  2  0  0  0  0
 31 32  1  0  0  0  0
 31 17  1  0  0  0  0
 33  7  1  0  0  0  0
 33 34  1  0  0  0  0
 34 35  2  0  0  0  0
 34 40  1  0  0  0  0
 35 41  1  0  0  0  0
 36 42  1  0  0  0  0
 36 35  1  0  0  0  0
 37 36  2  0  0  0  0
 38 37  1  0  0  0  0
 38 33  2  0  0  0  0
 39 38  1  0  0  0  0
 43 37  1  0  0  0  0
M  END
>  <MODEL>
17

>  <REMARK>
 VINA RESULT:    -6.480      3.329      7.704
 INTER + INTRA:          -7.729
 INTER:                  -8.270
 INTRA:                   0.541
 UNBOUND:                -0.113
  Name = 
  3 active torsions:
  status: ('A' for Active; 'I' for Inactive)
    1  A    between atoms: C_2  and  C_4
    2  A    between atoms: C_7  and  N_8
    3  A    between atoms: C_14  and  C_15
                            x       y       z     vdW  Elec       q    Type
                         _______ _______ _______ _____ _____    ______ ____

>  <TORSDO>
F 3

$$$$
=
 OpenBabel07192307433D

 43 45  0  0  1  0  0  0  0  0999 V2000
    2.3600    6.6860   19.5890 N   0  0  0  0  0  0  0  0  0  0  0  0
    2.1200    7.6190   18.6140 C   0  0  0  0  0  0  0  0  0  0  0  0
    2.4200    7.4470   17.4320 O   0  0  0  0  0  0  0  0  0  0  0  0
    1.5920    8.8010   19.0650 N   0  0  0  0  0  0  0  0  0  0  0  0
    1.2200    9.1470   20.4240 C   0  0  0  0  0  0  0  0  0  0  0  0
    0.9250   10.6450   20.3820 C   0  0  0  0  0  0  0  0  0  0  0  0
    0.5570   10.9360   18.9160 C   0  0  1  0  0  0  0  0  0  0  0  0
    1.4440    9.9280   18.1670 C   0  0  0  0  0  0  0  0  0  0  0  0
    1.6980    6.6530   20.3550 H   0  0  0  0  0  0  0  0  0  0  0  0
    0.3480    8.5520   20.7030 H   0  0  0  0  0  0  0  0  0  0  0  0
    2.0340    8.9140   21.1170 H   0  0  0  0  0  0  0  0  0  0  0  0
    1.8570   11.1810   20.6120 H   0  0  0  0  0  0  0  0  0  0  0  0
    0.1880   10.9690   21.1200 H   0  0  0  0  0  0  0  0  0  0  0  0
    0.8900   11.9560   18.6790 H   0  0  0  0  0  0  0  0  0  0  0  0
    1.0910    9.6250   17.1750 H   0  0  0  0  0  0  0  0  0  0  0  0
    2.4500   10.3510   18.0420 H   0  0  0  0  0  0  0  0  0  0  0  0
    4.9370    5.1300   17.8300 C   0  0  2  0  0  0  0  0  0  0  0  0
    3.7830    4.3030   17.2830 C   0  0  0  0  0  0  0  0  0  0  0  0
    2.5390    4.9220   17.8940 C   0  0  0  0  0  0  0  0  0  0  0  0
    2.9780    5.4190   19.2710 C   0  0  1  0  0  0  0  0  0  0  0  0
    4.5110    5.4920   19.2560 C   0  0  0  0  0  0  0  0  0  0  0  0
    5.8570    4.5330   17.8360 H   0  0  0  0  0  0  0  0  0  0  0  0
    3.7390    4.2970   16.1870 H   0  0  0  0  0  0  0  0  0  0  0  0
    3.8720    3.2630   17.6280 H   0  0  0  0  0  0  0  0  0  0  0  0
    2.1680    5.7390   17.2660 H   0  0  0  0  0  0  0  0  0  0  0  0
    1.7240    4.1920   17.9670 H   0  0  0  0  0  0  0  0  0  0  0  0
    2.6640    4.6940   20.0320 H   0  0  0  0  0  0  0  0  0  0  0  0
    4.9170    4.7520   19.9680 H   0  0  0  0  0  0  0  0  0  0  0  0
    4.8930    6.4730   19.5770 H   0  0  0  0  0  0  0  0  0  0  0  0
    5.0030    6.4240   15.8490 O   0  0  0  0  0  0  0  0  0  0  0  0
    5.2160    6.4570   17.0960 C   0  0  0  0  0  0  0  0  0  0  0  0
    5.6380    7.4140   17.8050 O   0  0  0  0  0  1  0  0  0  0  0  0
   -0.8970   10.8530   18.4880 C   0  0  0  0  0  0  0  0  0  0  0  0
   -1.2260    9.9290   17.4790 C   0  0  0  0  0  0  0  0  0  0  0  0
   -2.5400    9.7910   17.0290 C   0  0  0  0  0  0  0  0  0  0  0  0
   -3.5520   10.5810   17.5720 C   0  0  0  0  0  0  0  0  0  0  0  0
   -3.2480   11.4990   18.5720 C   0  0  0  0  0  0  0  0  0  0  0  0
   -1.9350   11.6310   19.0140 C   0  0  0  0  0  0  0  0  0  0  0  0
   -1.6920   12.5390   19.9640 F   0  0  0  0  0  0  0  0  0  0  0  0
   -0.4520    9.3030   17.0400 H   0  0  0  0  0  0  0  0  0  0  0  0
   -2.7680    9.0600   16.2550 H   0  0  0  0  0  0  0  0  0  0  0  0
   -4.5760   10.4730   17.2220 H   0  0  0  0  0  0  0  0  0  0  0  0
   -4.0240   12.1160   19.0150 H   0  0  0  0  0  0  0  0  0  0  0  0
  1  9  1  0  0  0  0
  2  4  1  0  0  0  0
  2  1  1  0  0  0  0
  3  2  2  0  0  0  0
  4  5  1  0  0  0  0
  5 10  1  0  0  0  0
  5 11  1  0  0  0  0
  6  5  1  0  0  0  0
  6 12  1  0  0  0  0
  6 13  1  0  0  0  0
  7 14  1  6  0  0  0
  7  6  1  0  0  0  0
  8  7  1  0  0  0  0
  8  4  1  0  0  0  0
 15  8  1  0  0  0  0
 16  8  1  0  0  0  0
 17 22  1  1  0  0  0
 17 21  1  0  0  0  0
 18 24  1  0  0  0  0
 18 17  1  0  0  0  0
 18 19  1  0  0  0  0
 19 26  1  0  0  0  0
 19 20  1  0  0  0  0
 20  1  1  0  0  0  0
 20 27  1  1  0  0  0
 21 20  1  0  0  0  0
 21 29  1  0  0  0  0
 21 28  1  0  0  0  0
 23 18  1  0  0  0  0
 25 19  1  0  0  0  0
 30 31  2  0  0  0  0
 31 32  1  0  0  0  0
 31 17  1  0  0  0  0
 33  7  1  0  0  0  0
 33 38  1  0  0  0  0
 34 33  2  0  0  0  0
 35 34  1  0  0  0  0
 35 36  2  0  0  0  0
 36 37  1  0  0  0  0
 37 38  2  0  0  0  0
 37 43  1  0  0  0  0
 38 39  1  0  0  0  0
 40 34  1  0  0  0  0
 41 35  1  0  0  0  0
 42 36  1  0  0  0  0
M  END
>  <MODEL>
18

>  <REMARK>
 VINA RESULT:    -6.478      1.923      2.633
 INTER + INTRA:          -7.726
 INTER:                  -8.147
 INTRA:                   0.421
 UNBOUND:                -0.113
  Name = 
  3 active torsions:
  status: ('A' for Active; 'I' for Inactive)
    1  A    between atoms: C_2  and  C_4
    2  A    between atoms: C_7  and  N_8
    3  A    between atoms: C_14  and  C_15
                            x       y       z     vdW  Elec       q    Type
                         _______ _______ _______ _____ _____    ______ ____

>  <TORSDO>
F 3

$$$$
=
 OpenBabel07192307433D

 43 45  0  0  1  0  0  0  0  0999 V2000
    1.9920    5.4760   19.8100 N   0  0  0  0  0  0  0  0  0  0  0  0
    2.1100    6.5910   19.0220 C   0  0  0  0  0  0  0  0  0  0  0  0
    2.5960    6.5650   17.8900 O   0  0  0  0  0  0  0  0  0  0  0  0
    1.7220    7.7630   19.6190 N   0  0  0  0  0  0  0  0  0  0  0  0
    1.1630    7.9410   20.9460 C   0  0  0  0  0  0  0  0  0  0  0  0
    1.1500    9.4520   21.1670 C   0  0  0  0  0  0  0  0  0  0  0  0
    1.1250   10.0600   19.7530 C   0  0  1  0  0  0  0  0  0  0  0  0
    1.9480    9.0320   18.9590 C   0  0  0  0  0  0  0  0  0  0  0  0
    1.2010    5.4510   20.4420 H   0  0  0  0  0  0  0  0  0  0  0  0
    0.1630    7.5020   20.9600 H   0  0  0  0  0  0  0  0  0  0  0  0
    1.7770    7.4280   21.6940 H   0  0  0  0  0  0  0  0  0  0  0  0
    2.1000    9.7350   21.6430 H   0  0  0  0  0  0  0  0  0  0  0  0
    0.3540    9.7920   21.8330 H   0  0  0  0  0  0  0  0  0  0  0  0
    1.6710   11.0130   19.7840 H   0  0  0  0  0  0  0  0  0  0  0  0
    1.7430    8.9830   17.8840 H   0  0  0  0  0  0  0  0  0  0  0  0
    3.0170    9.2510   19.0800 H   0  0  0  0  0  0  0  0  0  0  0  0
    4.6700    3.6700   18.4970 C   0  0  2  0  0  0  0  0  0  0  0  0
    3.6410    3.3190   17.4330 C   0  0  0  0  0  0  0  0  0  0  0  0
    2.4050    4.1150   17.8110 C   0  0  0  0  0  0  0  0  0  0  0  0
    2.4270    4.1820   19.3390 C   0  0  1  0  0  0  0  0  0  0  0  0
    3.8560    3.8350   19.7830 C   0  0  0  0  0  0  0  0  0  0  0  0
    5.3990    2.8560   18.5970 H   0  0  0  0  0  0  0  0  0  0  0  0
    3.9790    3.5490   16.4160 H   0  0  0  0  0  0  0  0  0  0  0  0
    3.4050    2.2460   17.4810 H   0  0  0  0  0  0  0  0  0  0  0  0
    2.4380    5.1130   17.3610 H   0  0  0  0  0  0  0  0  0  0  0  0
    1.4910    3.6360   17.4400 H   0  0  0  0  0  0  0  0  0  0  0  0
    1.7380    3.4300   19.7410 H   0  0  0  0  0  0  0  0  0  0  0  0
    3.8400    2.8830   20.3430 H   0  0  0  0  0  0  0  0  0  0  0  0
    4.2820    4.5880   20.4630 H   0  0  0  0  0  0  0  0  0  0  0  0
    5.7800    5.5820   19.3440 O   0  0  0  0  0  1  0  0  0  0  0  0
    5.4350    4.9910   18.2790 C   0  0  0  0  0  0  0  0  0  0  0  0
    5.6160    5.3450   17.0800 O   0  0  0  0  0  0  0  0  0  0  0  0
   -0.2120   10.3570   19.0990 C   0  0  0  0  0  0  0  0  0  0  0  0
   -0.4920    9.7210   17.8750 C   0  0  0  0  0  0  0  0  0  0  0  0
   -1.6990    9.9400   17.2090 C   0  0  0  0  0  0  0  0  0  0  0  0
   -2.6480   10.8070   17.7480 C   0  0  0  0  0  0  0  0  0  0  0  0
   -2.3910   11.4430   18.9580 C   0  0  0  0  0  0  0  0  0  0  0  0
   -1.1850   11.2200   19.6150 C   0  0  0  0  0  0  0  0  0  0  0  0
   -0.9790   11.8690   20.7650 F   0  0  0  0  0  0  0  0  0  0  0  0
    0.2340    9.0410   17.4350 H   0  0  0  0  0  0  0  0  0  0  0  0
   -1.8940    9.4260   16.2690 H   0  0  0  0  0  0  0  0  0  0  0  0
   -3.5890   10.9770   17.2300 H   0  0  0  0  0  0  0  0  0  0  0  0
   -3.1230   12.1140   19.3990 H   0  0  0  0  0  0  0  0  0  0  0  0
  1  9  1  0  0  0  0
  2  4  1  0  0  0  0
  2  1  1  0  0  0  0
  3  2  2  0  0  0  0
  4  5  1  0  0  0  0
  5 10  1  0  0  0  0
  5  6  1  0  0  0  0
  5 11  1  0  0  0  0
  6 12  1  0  0  0  0
  6 13  1  0  0  0  0
  7 14  1  1  0  0  0
  7  6  1  0  0  0  0
  8 16  1  0  0  0  0
  8  4  1  0  0  0  0
  8  7  1  0  0  0  0
 15  8  1  0  0  0  0
 17 22  1  1  0  0  0
 17 21  1  0  0  0  0
 18 24  1  0  0  0  0
 18 19  1  0  0  0  0
 18 17  1  0  0  0  0
 19 20  1  0  0  0  0
 20 27  1  1  0  0  0
 20 21  1  0  0  0  0
 20  1  1  0  0  0  0
 21 28  1  0  0  0  0
 21 29  1  0  0  0  0
 23 18  1  0  0  0  0
 25 19  1  0  0  0  0
 26 19  1  0  0  0  0
 31 17  1  0  0  0  0
 31 30  1  0  0  0  0
 32 31  2  0  0  0  0
 33 38  1  0  0  0  0
 33  7  1  0  0  0  0
 34 33  2  0  0  0  0
 35 36  2  0  0  0  0
 35 34  1  0  0  0  0
 36 37  1  0  0  0  0
 37 43  1  0  0  0  0
 37 38  2  0  0  0  0
 38 39  1  0  0  0  0
 40 34  1  0  0  0  0
 41 35  1  0  0  0  0
 42 36  1  0  0  0  0
M  END
>  <MODEL>
19

>  <REMARK>
 VINA RESULT:    -6.342      1.718      2.321
 INTER + INTRA:          -7.567
 INTER:                  -7.821
 INTRA:                   0.255
 UNBOUND:                -0.113
  Name = 
  3 active torsions:
  status: ('A' for Active; 'I' for Inactive)
    1  A    between atoms: C_2  and  C_4
    2  A    between atoms: C_7  and  N_8
    3  A    between atoms: C_14  and  C_15
                            x       y       z     vdW  Elec       q    Type
                         _______ _______ _______ _____ _____    ______ ____

>  <TORSDO>
F 3

$$$$
=
 OpenBabel07192307433D

 43 45  0  0  1  0  0  0  0  0999 V2000
    2.9880    7.7990   18.1170 N   0  0  0  0  0  0  0  0  0  0  0  0
    3.4350    6.5090   18.0040 C   0  0  0  0  0  0  0  0  0  0  0  0
    2.7440    5.5320   18.2970 O   0  0  0  0  0  0  0  0  0  0  0  0
    4.7440    6.3840   17.6170 N   0  0  0  0  0  0  0  0  0  0  0  0
    5.6740    7.4440   17.2720 C   0  0  0  0  0  0  0  0  0  0  0  0
    7.0310    6.7540   17.1620 C   0  0  0  0  0  0  0  0  0  0  0  0
    6.7060    5.2830   16.8510 C   0  0  1  0  0  0  0  0  0  0  0  0
    5.3890    5.0870   17.6190 C   0  0  0  0  0  0  0  0  0  0  0  0
    3.3540    8.4640   17.4460 H   0  0  0  0  0  0  0  0  0  0  0  0
    5.3480    7.8920   16.3310 H   0  0  0  0  0  0  0  0  0  0  0  0
    5.6750    8.2200   18.0430 H   0  0  0  0  0  0  0  0  0  0  0  0
    7.5150    6.7950   18.1490 H   0  0  0  0  0  0  0  0  0  0  0  0
    7.7140    7.2380   16.4600 H   0  0  0  0  0  0  0  0  0  0  0  0
    7.4860    4.6580   17.3080 H   0  0  0  0  0  0  0  0  0  0  0  0
    4.7300    4.2960   17.2450 H   0  0  0  0  0  0  0  0  0  0  0  0
    5.6110    4.8590   18.6700 H   0  0  0  0  0  0  0  0  0  0  0  0
    0.6810   10.3270   18.7840 C   0  0  2  0  0  0  0  0  0  0  0  0
    0.6180    9.6270   20.1330 C   0  0  0  0  0  0  0  0  0  0  0  0
    1.6570    8.5230   20.0460 C   0  0  0  0  0  0  0  0  0  0  0  0
    1.6500    8.0860   18.5810 C   0  0  1  0  0  0  0  0  0  0  0  0
    0.9690    9.2060   17.7810 C   0  0  0  0  0  0  0  0  0  0  0  0
   -0.2810   10.8080   18.5660 H   0  0  0  0  0  0  0  0  0  0  0  0
    0.8100   10.3010   20.9770 H   0  0  0  0  0  0  0  0  0  0  0  0
   -0.3740    9.1750   20.2750 H   0  0  0  0  0  0  0  0  0  0  0  0
    2.6400    8.8950   20.3540 H   0  0  0  0  0  0  0  0  0  0  0  0
    1.4140    7.6910   20.7180 H   0  0  0  0  0  0  0  0  0  0  0  0
    1.0570    7.1690   18.4820 H   0  0  0  0  0  0  0  0  0  0  0  0
    0.0220    8.8270   17.3590 H   0  0  0  0  0  0  0  0  0  0  0  0
    1.5760    9.5460   16.9270 H   0  0  0  0  0  0  0  0  0  0  0  0
    1.7150   12.3630   19.4060 O   0  0  0  0  0  1  0  0  0  0  0  0
    1.8030   11.3720   18.6230 C   0  0  0  0  0  0  0  0  0  0  0  0
    2.6640   11.1390   17.7300 O   0  0  0  0  0  0  0  0  0  0  0  0
    6.6000    4.8380   15.4030 C   0  0  0  0  0  0  0  0  0  0  0  0
    7.6270    5.2320   14.5260 C   0  0  0  0  0  0  0  0  0  0  0  0
    7.6050    4.8640   13.1800 C   0  0  0  0  0  0  0  0  0  0  0  0
    6.5490    4.1030   12.6790 C   0  0  0  0  0  0  0  0  0  0  0  0
    5.5250    3.7030   13.5310 C   0  0  0  0  0  0  0  0  0  0  0  0
    5.5550    4.0740   14.8720 C   0  0  0  0  0  0  0  0  0  0  0  0
    4.5390    3.6790   15.6450 F   0  0  0  0  0  0  0  0  0  0  0  0
    8.4610    5.8260   14.8930 H   0  0  0  0  0  0  0  0  0  0  0  0
    8.4190    5.1720   12.5250 H   0  0  0  0  0  0  0  0  0  0  0  0
    6.5320    3.8160   11.6310 H   0  0  0  0  0  0  0  0  0  0  0  0
    4.7000    3.1000   13.1630 H   0  0  0  0  0  0  0  0  0  0  0  0
  1 20  1  0  0  0  0
  2  1  1  0  0  0  0
  2  3  2  0  0  0  0
  4  8  1  0  0  0  0
  4  2  1  0  0  0  0
  5  4  1  0  0  0  0
  5 11  1  0  0  0  0
  6  5  1  0  0  0  0
  6 12  1  0  0  0  0
  7  6  1  0  0  0  0
  7 14  1  1  0  0  0
  7  8  1  0  0  0  0
  8 16  1  0  0  0  0
  9  1  1  0  0  0  0
 10  5  1  0  0  0  0
 13  6  1  0  0  0  0
 15  8  1  0  0  0  0
 17 22  1  6  0  0  0
 17 18  1  0  0  0  0
 18 24  1  0  0  0  0
 18 23  1  0  0  0  0
 19 18  1  0  0  0  0
 19 25  1  0  0  0  0
 19 26  1  0  0  0  0
 20 27  1  6  0  0  0
 20 19  1  0  0  0  0
 21 20  1  0  0  0  0
 21 17  1  0  0  0  0
 28 21  1  0  0  0  0
 29 21  1  0  0  0  0
 31 17  1  0  0  0  0
 31 30  1  0  0  0  0
 32 31  2  0  0  0  0
 33  7  1  0  0  0  0
 34 40  1  0  0  0  0
 34 33  2  0  0  0  0
 35 34  1  0  0  0  0
 36 35  2  0  0  0  0
 36 37  1  0  0  0  0
 37 38  2  0  0  0  0
 38 33  1  0  0  0  0
 38 39  1  0  0  0  0
 41 35  1  0  0  0  0
 42 36  1  0  0  0  0
 43 37  1  0  0  0  0
M  END
>  <MODEL>
20

>  <REMARK>
 VINA RESULT:    -6.336      4.453      8.352
 INTER + INTRA:          -7.560
 INTER:                  -7.354
 INTRA:                  -0.206
 UNBOUND:                -0.113
  Name = 
  3 active torsions:
  status: ('A' for Active; 'I' for Inactive)
    1  A    between atoms: C_2  and  C_4
    2  A    between atoms: C_7  and  N_8
    3  A    between atoms: C_14  and  C_15
                            x       y       z     vdW  Elec       q    Type
                         _______ _______ _______ _____ _____    ______ ____

>  <TORSDO>
F 3

$$$$
=
 OpenBabel07192307433D

 43 45  0  0  1  0  0  0  0  0999 V2000
    3.8740    7.2180   17.6000 N   0  0  0  0  0  0  0  0  0  0  0  0
    2.5250    7.2310   17.8440 C   0  0  0  0  0  0  0  0  0  0  0  0
    1.8260    6.2180   17.8000 O   0  0  0  0  0  0  0  0  0  0  0  0
    1.9910    8.4750   18.0610 N   0  0  0  0  0  0  0  0  0  0  0  0
    2.6890    9.7460   18.1110 C   0  0  0  0  0  0  0  0  0  0  0  0
    1.5850   10.7990   18.1370 C   0  0  0  0  0  0  0  0  0  0  0  0
    0.3550   10.0730   18.7080 C   0  0  1  0  0  0  0  0  0  0  0  0
    0.5570    8.6480   18.1670 C   0  0  0  0  0  0  0  0  0  0  0  0
    4.4310    7.8960   18.1060 H   0  0  0  0  0  0  0  0  0  0  0  0
    3.3100    9.7610   19.0100 H   0  0  0  0  0  0  0  0  0  0  0  0
    3.3390    9.8610   17.2390 H   0  0  0  0  0  0  0  0  0  0  0  0
    1.3610   11.0830   17.0980 H   0  0  0  0  0  0  0  0  0  0  0  0
    1.8660   11.7180   18.6570 H   0  0  0  0  0  0  0  0  0  0  0  0
   -0.5420   10.5090   18.2480 H   0  0  0  0  0  0  0  0  0  0  0  0
    0.0830    7.8460   18.7440 H   0  0  0  0  0  0  0  0  0  0  0  0
    0.1670    8.5890   17.1430 H   0  0  0  0  0  0  0  0  0  0  0  0
    6.9520    5.5810   17.6400 C   0  0  2  0  0  0  0  0  0  0  0  0
    6.6140    5.3520   16.1750 C   0  0  0  0  0  0  0  0  0  0  0  0
    5.3090    6.0960   15.9570 C   0  0  0  0  0  0  0  0  0  0  0  0
    4.5620    5.9870   17.2870 C   0  0  1  0  0  0  0  0  0  0  0  0
    5.5960    5.5940   18.3520 C   0  0  0  0  0  0  0  0  0  0  0  0
    7.5810    4.7630   18.0120 H   0  0  0  0  0  0  0  0  0  0  0  0
    7.3990    5.6990   15.4930 H   0  0  0  0  0  0  0  0  0  0  0  0
    6.4500    4.2800   15.9910 H   0  0  0  0  0  0  0  0  0  0  0  0
    5.5030    7.1400   15.6840 H   0  0  0  0  0  0  0  0  0  0  0  0
    4.7330    5.6620   15.1320 H   0  0  0  0  0  0  0  0  0  0  0  0
    3.8100    5.1920   17.2120 H   0  0  0  0  0  0  0  0  0  0  0  0
    5.3610    4.5850   18.7310 H   0  0  0  0  0  0  0  0  0  0  0  0
    5.5810    6.2660   19.2250 H   0  0  0  0  0  0  0  0  0  0  0  0
    8.3930    6.8910   18.9850 O   0  0  0  0  0  1  0  0  0  0  0  0
    7.6430    6.9200   17.9670 C   0  0  0  0  0  0  0  0  0  0  0  0
    7.3760    7.8910   17.2040 O   0  0  0  0  0  0  0  0  0  0  0  0
    0.1150   10.0910   20.2080 C   0  0  0  0  0  0  0  0  0  0  0  0
    0.5010    8.9540   20.9410 C   0  0  0  0  0  0  0  0  0  0  0  0
    0.3150    8.8920   22.3230 C   0  0  0  0  0  0  0  0  0  0  0  0
   -0.2690    9.9620   23.0000 C   0  0  0  0  0  0  0  0  0  0  0  0
   -0.6550   11.0950   22.2930 C   0  0  0  0  0  0  0  0  0  0  0  0
   -0.4670   11.1490   20.9150 C   0  0  0  0  0  0  0  0  0  0  0  0
   -0.8710   12.2530   20.2790 F   0  0  0  0  0  0  0  0  0  0  0  0
    0.9580    8.1070   20.4350 H   0  0  0  0  0  0  0  0  0  0  0  0
    0.6340    8.0040   22.8680 H   0  0  0  0  0  0  0  0  0  0  0  0
   -0.4130    9.9130   24.0760 H   0  0  0  0  0  0  0  0  0  0  0  0
   -1.1030   11.9430   22.8040 H   0  0  0  0  0  0  0  0  0  0  0  0
  1  2  1  0  0  0  0
  1  9  1  0  0  0  0
  2  4  1  0  0  0  0
  3  2  2  0  0  0  0
  4  5  1  0  0  0  0
  4  8  1  0  0  0  0
  5  6  1  0  0  0  0
  5 10  1  0  0  0  0
  6 13  1  0  0  0  0
  6  7  1  0  0  0  0
  7 14  1  6  0  0  0
  7 33  1  0  0  0  0
  8  7  1  0  0  0  0
  8 15  1  0  0  0  0
 11  5  1  0  0  0  0
 12  6  1  0  0  0  0
 16  8  1  0  0  0  0
 17 31  1  0  0  0  0
 17 22  1  1  0  0  0
 17 21  1  0  0  0  0
 18 17  1  0  0  0  0
 19 18  1  0  0  0  0
 19 20  1  0  0  0  0
 20 27  1  6  0  0  0
 20  1  1  0  0  0  0
 20 21  1  0  0  0  0
 21 28  1  0  0  0  0
 21 29  1  0  0  0  0
 23 18  1  0  0  0  0
 24 18  1  0  0  0  0
 25 19  1  0  0  0  0
 26 19  1  0  0  0  0
 31 30  1  0  0  0  0
 32 31  2  0  0  0  0
 33 38  2  0  0  0  0
 33 34  1  0  0  0  0
 34 35  2  0  0  0  0
 35 41  1  0  0  0  0
 35 36  1  0  0  0  0
 36 42  1  0  0  0  0
 37 43  1  0  0  0  0
 37 36  2  0  0  0  0
 38 37  1  0  0  0  0
 39 38  1  0  0  0  0
 40 34  1  0  0  0  0
M  END
>  <MODEL>
21

>  <REMARK>
 VINA RESULT:    -6.103      2.710      4.252
 INTER + INTRA:          -7.286
 INTER:                  -7.097
 INTRA:                  -0.189
 UNBOUND:                -0.113
  Name = 
  3 active torsions:
  status: ('A' for Active; 'I' for Inactive)
    1  A    between atoms: C_2  and  C_4
    2  A    between atoms: C_7  and  N_8
    3  A    between atoms: C_14  and  C_15
                            x       y       z     vdW  Elec       q    Type
                         _______ _______ _______ _____ _____    ______ ____

>  <TORSDO>
F 3

$$$$
=
 OpenBabel07192307433D

 43 45  0  0  1  0  0  0  0  0999 V2000
    3.1630    3.1970   17.5830 N   0  0  0  0  0  0  0  0  0  0  0  0
    3.3880    4.5250   17.3280 C   0  0  0  0  0  0  0  0  0  0  0  0
    2.5430    5.3990   17.5270 O   0  0  0  0  0  0  0  0  0  0  0  0
    4.6010    4.8040   16.7530 N   0  0  0  0  0  0  0  0  0  0  0  0
    5.6710    3.8750   16.4400 C   0  0  0  0  0  0  0  0  0  0  0  0
    6.6610    4.6840   15.6050 C   0  0  0  0  0  0  0  0  0  0  0  0
    6.4110    6.1490   16.0010 C   0  0  1  0  0  0  0  0  0  0  0  0
    4.8990    6.1410   16.2830 C   0  0  0  0  0  0  0  0  0  0  0  0
    3.9660    2.6500   17.8710 H   0  0  0  0  0  0  0  0  0  0  0  0
    6.1000    3.5170   17.3780 H   0  0  0  0  0  0  0  0  0  0  0  0
    5.2820    3.0140   15.8860 H   0  0  0  0  0  0  0  0  0  0  0  0
    6.3900    4.5650   14.5460 H   0  0  0  0  0  0  0  0  0  0  0  0
    7.6950    4.3460   15.7020 H   0  0  0  0  0  0  0  0  0  0  0  0
    6.6100    6.7770   15.1220 H   0  0  0  0  0  0  0  0  0  0  0  0
    4.5360    6.9130   16.9700 H   0  0  0  0  0  0  0  0  0  0  0  0
    4.3520    6.2590   15.3380 H   0  0  0  0  0  0  0  0  0  0  0  0
    0.8420    3.6270   20.1490 C   0  0  2  0  0  0  0  0  0  0  0  0
    1.0390    2.1260   20.2960 C   0  0  0  0  0  0  0  0  0  0  0  0
    2.1160    1.7750   19.2860 C   0  0  0  0  0  0  0  0  0  0  0  0
    1.9020    2.7460   18.1240 C   0  0  1  0  0  0  0  0  0  0  0  0
    1.0340    3.8970   18.6540 C   0  0  0  0  0  0  0  0  0  0  0  0
   -0.1700    3.9060   20.4690 H   0  0  0  0  0  0  0  0  0  0  0  0
    1.3220    1.8270   21.3130 H   0  0  0  0  0  0  0  0  0  0  0  0
    0.1120    1.5980   20.0300 H   0  0  0  0  0  0  0  0  0  0  0  0
    3.1110    1.8870   19.7300 H   0  0  0  0  0  0  0  0  0  0  0  0
    2.0360    0.7310   18.9610 H   0  0  0  0  0  0  0  0  0  0  0  0
    1.3580    2.2320   17.3220 H   0  0  0  0  0  0  0  0  0  0  0  0
    0.0570    3.8810   18.1400 H   0  0  0  0  0  0  0  0  0  0  0  0
    1.4740    4.8860   18.4530 H   0  0  0  0  0  0  0  0  0  0  0  0
    2.4600    3.9340   21.8480 O   0  0  0  0  0  1  0  0  0  0  0  0
    1.8570    4.5130   20.8980 C   0  0  0  0  0  0  0  0  0  0  0  0
    1.9630    5.7070   20.4990 O   0  0  0  0  0  0  0  0  0  0  0  0
    7.2060    6.7530   17.1450 C   0  0  0  0  0  0  0  0  0  0  0  0
    7.5430    8.1160   17.0530 C   0  0  0  0  0  0  0  0  0  0  0  0
    8.2720    8.7470   18.0620 C   0  0  0  0  0  0  0  0  0  0  0  0
    8.6890    8.0260   19.1810 C   0  0  0  0  0  0  0  0  0  0  0  0
    8.3640    6.6780   19.2900 C   0  0  0  0  0  0  0  0  0  0  0  0
    7.6370    6.0560   18.2790 C   0  0  0  0  0  0  0  0  0  0  0  0
    7.3660    4.7560   18.4240 F   0  0  0  0  0  0  0  0  0  0  0  0
    7.2290    8.7000   16.1900 H   0  0  0  0  0  0  0  0  0  0  0  0
    8.5080    9.8060   17.9720 H   0  0  0  0  0  0  0  0  0  0  0  0
    9.2560    8.5180   19.9670 H   0  0  0  0  0  0  0  0  0  0  0  0
    8.6710    6.1020   20.1580 H   0  0  0  0  0  0  0  0  0  0  0  0
  1  9  1  0  0  0  0
  1 20  1  0  0  0  0
  2  3  2  0  0  0  0
  2  1  1  0  0  0  0
  4  2  1  0  0  0  0
  5  4  1  0  0  0  0
  5 10  1  0  0  0  0
  6 13  1  0  0  0  0
  6  7  1  0  0  0  0
  6  5  1  0  0  0  0
  7 14  1  6  0  0  0
  7  8  1  0  0  0  0
  7 33  1  0  0  0  0
  8  4  1  0  0  0  0
  8 15  1  0  0  0  0
 11  5  1  0  0  0  0
 12  6  1  0  0  0  0
 16  8  1  0  0  0  0
 17 18  1  0  0  0  0
 17 22  1  1  0  0  0
 17 31  1  0  0  0  0
 18 23  1  0  0  0  0
 19 25  1  0  0  0  0
 19 18  1  0  0  0  0
 20 27  1  6  0  0  0
 20 21  1  0  0  0  0
 20 19  1  0  0  0  0
 21 17  1  0  0  0  0
 24 18  1  0  0  0  0
 26 19  1  0  0  0  0
 28 21  1  0  0  0  0
 29 21  1  0  0  0  0
 31 30  1  0  0  0  0
 32 31  2  0  0  0  0
 33 38  1  0  0  0  0
 34 33  2  0  0  0  0
 34 35  1  0  0  0  0
 35 36  2  0  0  0  0
 36 37  1  0  0  0  0
 36 42  1  0  0  0  0
 37 43  1  0  0  0  0
 38 39  1  0  0  0  0
 38 37  2  0  0  0  0
 40 34  1  0  0  0  0
 41 35  1  0  0  0  0
M  END
>  <MODEL>
22

>  <REMARK>
 VINA RESULT:    -5.957      5.656      7.400
 INTER + INTRA:          -7.115
 INTER:                  -8.102
 INTRA:                   0.987
 UNBOUND:                -0.113
  Name = 
  3 active torsions:
  status: ('A' for Active; 'I' for Inactive)
    1  A    between atoms: C_2  and  C_4
    2  A    between atoms: C_7  and  N_8
    3  A    between atoms: C_14  and  C_15
                            x       y       z     vdW  Elec       q    Type
                         _______ _______ _______ _____ _____    ______ ____

>  <TORSDO>
F 3

$$$$
=
 OpenBabel07192307433D

 43 45  0  0  1  0  0  0  0  0999 V2000
    0.8580    9.2970   19.9370 N   0  0  0  0  0  0  0  0  0  0  0  0
    1.3070    8.6600   18.8100 C   0  0  0  0  0  0  0  0  0  0  0  0
    1.0770    9.0690   17.6720 O   0  0  0  0  0  0  0  0  0  0  0  0
    1.9690    7.4810   19.0400 N   0  0  0  0  0  0  0  0  0  0  0  0
    2.2830    6.8730   20.3190 C   0  0  0  0  0  0  0  0  0  0  0  0
    2.7990    5.4780   19.9740 C   0  0  0  0  0  0  0  0  0  0  0  0
    3.3180    5.5920   18.5300 C   0  0  1  0  0  0  0  0  0  0  0  0
    2.3510    6.6280   17.9340 C   0  0  0  0  0  0  0  0  0  0  0  0
    1.4460    9.2310   20.7590 H   0  0  0  0  0  0  0  0  0  0  0  0
    3.0330    7.4900   20.8180 H   0  0  0  0  0  0  0  0  0  0  0  0
    1.3920    6.8300   20.9530 H   0  0  0  0  0  0  0  0  0  0  0  0
    1.9420    4.7880   19.9750 H   0  0  0  0  0  0  0  0  0  0  0  0
    3.5170    5.0840   20.6960 H   0  0  0  0  0  0  0  0  0  0  0  0
    3.1590    4.6240   18.0340 H   0  0  0  0  0  0  0  0  0  0  0  0
    2.7310    7.2000   17.0800 H   0  0  0  0  0  0  0  0  0  0  0  0
    1.4320    6.1230   17.6080 H   0  0  0  0  0  0  0  0  0  0  0  0
    0.8760   12.6150   18.8670 C   0  0  2  0  0  0  0  0  0  0  0  0
    0.4390   12.8620   20.3030 C   0  0  0  0  0  0  0  0  0  0  0  0
    0.4660   11.4930   20.9580 C   0  0  0  0  0  0  0  0  0  0  0  0
    0.0850   10.5140   19.8470 C   0  0  1  0  0  0  0  0  0  0  0  0
    0.2830   11.2490   18.5130 C   0  0  0  0  0  0  0  0  0  0  0  0
    0.4730   13.3980   18.2130 H   0  0  0  0  0  0  0  0  0  0  0  0
    1.0810   13.5780   20.8310 H   0  0  0  0  0  0  0  0  0  0  0  0
   -0.5900   13.2480   20.3200 H   0  0  0  0  0  0  0  0  0  0  0  0
    1.4610   11.2800   21.3630 H   0  0  0  0  0  0  0  0  0  0  0  0
   -0.2320   11.4390   21.8020 H   0  0  0  0  0  0  0  0  0  0  0  0
   -0.9740   10.2470   19.9510 H   0  0  0  0  0  0  0  0  0  0  0  0
   -0.6970   11.3800   18.0220 H   0  0  0  0  0  0  0  0  0  0  0  0
    0.9110   10.6830   17.8070 H   0  0  0  0  0  0  0  0  0  0  0  0
    3.0860   13.3320   19.3180 O   0  0  0  0  0  1  0  0  0  0  0  0
    2.3970   12.5170   18.6370 C   0  0  0  0  0  0  0  0  0  0  0  0
    2.7840   11.6570   17.7960 O   0  0  0  0  0  0  0  0  0  0  0  0
    4.7720    5.9570   18.2930 C   0  0  0  0  0  0  0  0  0  0  0  0
    5.0400    7.0050   17.3930 C   0  0  0  0  0  0  0  0  0  0  0  0
    6.3500    7.4030   17.1210 C   0  0  0  0  0  0  0  0  0  0  0  0
    7.4210    6.7550   17.7350 C   0  0  0  0  0  0  0  0  0  0  0  0
    7.1760    5.7180   18.6280 C   0  0  0  0  0  0  0  0  0  0  0  0
    5.8670    5.3270   18.8940 C   0  0  0  0  0  0  0  0  0  0  0  0
    5.6860    4.3140   19.7470 F   0  0  0  0  0  0  0  0  0  0  0  0
    4.2210    7.5260   16.9010 H   0  0  0  0  0  0  0  0  0  0  0  0
    6.5280    8.2250   16.4290 H   0  0  0  0  0  0  0  0  0  0  0  0
    8.4410    7.0650   17.5230 H   0  0  0  0  0  0  0  0  0  0  0  0
    7.9960    5.2070   19.1250 H   0  0  0  0  0  0  0  0  0  0  0  0
  1  9  1  0  0  0  0
  2  4  1  0  0  0  0
  2  1  1  0  0  0  0
  3  2  2  0  0  0  0
  4  5  1  0  0  0  0
  5 10  1  0  0  0  0
  5 11  1  0  0  0  0
  6 12  1  0  0  0  0
  6  5  1  0  0  0  0
  6 13  1  0  0  0  0
  7 14  1  6  0  0  0
  7  6  1  0  0  0  0
  8  7  1  0  0  0  0
  8  4  1  0  0  0  0
 15  8  1  0  0  0  0
 16  8  1  0  0  0  0
 17 22  1  6  0  0  0
 17 18  1  0  0  0  0
 18 24  1  0  0  0  0
 18 23  1  0  0  0  0
 18 19  1  0  0  0  0
 19 25  1  0  0  0  0
 19 26  1  0  0  0  0
 20  1  1  0  0  0  0
 20 27  1  1  0  0  0
 20 19  1  0  0  0  0
 21 17  1  0  0  0  0
 21 20  1  0  0  0  0
 28 21  1  0  0  0  0
 29 21  1  0  0  0  0
 31 17  1  0  0  0  0
 31 30  1  0  0  0  0
 32 31  2  0  0  0  0
 33  7  1  0  0  0  0
 33 38  1  0  0  0  0
 34 33  2  0  0  0  0
 35 34  1  0  0  0  0
 35 36  2  0  0  0  0
 36 37  1  0  0  0  0
 37 38  2  0  0  0  0
 37 43  1  0  0  0  0
 38 39  1  0  0  0  0
 40 34  1  0  0  0  0
 41 35  1  0  0  0  0
 42 36  1  0  0  0  0
M  END
>  <MODEL>
23

>  <REMARK>
 VINA RESULT:    -5.669      3.669      7.851
 INTER + INTRA:          -6.776
 INTER:                  -7.067
 INTRA:                   0.291
 UNBOUND:                -0.113
  Name = 
  3 active torsions:
  status: ('A' for Active; 'I' for Inactive)
    1  A    between atoms: C_2  and  C_4
    2  A    between atoms: C_7  and  N_8
    3  A    between atoms: C_14  and  C_15
                            x       y       z     vdW  Elec       q    Type
                         _______ _______ _______ _____ _____    ______ ____

>  <TORSDO>
F 3

$$$$
=
 OpenBabel07192307433D

 43 45  0  0  1  0  0  0  0  0999 V2000
    3.9090    6.3340   18.0820 N   0  0  0  0  0  0  0  0  0  0  0  0
    2.5590    6.5300   18.2060 C   0  0  0  0  0  0  0  0  0  0  0  0
    1.7500    5.6030   18.2740 O   0  0  0  0  0  0  0  0  0  0  0  0
    2.1600    7.8410   18.1680 N   0  0  0  0  0  0  0  0  0  0  0  0
    2.9980    9.0220   18.0630 C   0  0  0  0  0  0  0  0  0  0  0  0
    2.0250   10.1730   17.8210 C   0  0  0  0  0  0  0  0  0  0  0  0
    0.6840    9.6900   18.4010 C   0  0  1  0  0  0  0  0  0  0  0  0
    0.7520    8.1790   18.1240 C   0  0  0  0  0  0  0  0  0  0  0  0
    4.5080    7.0290   18.5120 H   0  0  0  0  0  0  0  0  0  0  0  0
    3.5570    9.1290   18.9950 H   0  0  0  0  0  0  0  0  0  0  0  0
    3.7120    8.9150   17.2410 H   0  0  0  0  0  0  0  0  0  0  0  0
    1.9030   10.2920   16.7340 H   0  0  0  0  0  0  0  0  0  0  0  0
    2.3770   11.1340   18.2020 H   0  0  0  0  0  0  0  0  0  0  0  0
   -0.1240   10.1300   17.8010 H   0  0  0  0  0  0  0  0  0  0  0  0
    0.1520    7.5440   18.7850 H   0  0  0  0  0  0  0  0  0  0  0  0
    0.4250    7.9830   17.0940 H   0  0  0  0  0  0  0  0  0  0  0  0
    6.6590    4.4260   17.1050 C   0  0  2  0  0  0  0  0  0  0  0  0
    5.5820    3.6160   16.3980 C   0  0  0  0  0  0  0  0  0  0  0  0
    4.2940    4.3790   16.6510 C   0  0  0  0  0  0  0  0  0  0  0  0
    4.4680    5.0020   18.0360 C   0  0  1  0  0  0  0  0  0  0  0  0
    5.9690    4.9750   18.3570 C   0  0  0  0  0  0  0  0  0  0  0  0
    7.5000    3.7760   17.3750 H   0  0  0  0  0  0  0  0  0  0  0  0
    5.7750    3.4870   15.3260 H   0  0  0  0  0  0  0  0  0  0  0  0
    5.5030    2.6190   16.8530 H   0  0  0  0  0  0  0  0  0  0  0  0
    4.1400    5.1410   15.8790 H   0  0  0  0  0  0  0  0  0  0  0  0
    3.4220    3.7160   16.6120 H   0  0  0  0  0  0  0  0  0  0  0  0
    3.9360    4.3910   18.7750 H   0  0  0  0  0  0  0  0  0  0  0  0
    6.1450    4.2970   19.2100 H   0  0  0  0  0  0  0  0  0  0  0  0
    6.3560    5.9610   18.6580 H   0  0  0  0  0  0  0  0  0  0  0  0
    7.2240    5.4910   15.0680 O   0  0  0  0  0  0  0  0  0  0  0  0
    7.2040    5.6390   16.3250 C   0  0  0  0  0  0  0  0  0  0  0  0
    7.5820    6.6270   17.0160 O   0  0  0  0  0  1  0  0  0  0  0  0
    0.3520    9.9950   19.8510 C   0  0  0  0  0  0  0  0  0  0  0  0
    0.3090    8.9130   20.7490 C   0  0  0  0  0  0  0  0  0  0  0  0
    0.0120    9.1090   22.0990 C   0  0  0  0  0  0  0  0  0  0  0  0
   -0.2580   10.3910   22.5770 C   0  0  0  0  0  0  0  0  0  0  0  0
   -0.2180   11.4730   21.7050 C   0  0  0  0  0  0  0  0  0  0  0  0
    0.0790   11.2690   20.3610 C   0  0  0  0  0  0  0  0  0  0  0  0
    0.0870   12.3390   19.5610 F   0  0  0  0  0  0  0  0  0  0  0  0
    0.5150    7.9040   20.3990 H   0  0  0  0  0  0  0  0  0  0  0  0
   -0.0030    8.2550   22.7740 H   0  0  0  0  0  0  0  0  0  0  0  0
   -0.4880   10.5430   23.6290 H   0  0  0  0  0  0  0  0  0  0  0  0
   -0.4150   12.4800   22.0610 H   0  0  0  0  0  0  0  0  0  0  0  0
  1  2  1  0  0  0  0
  1  9  1  0  0  0  0
  2  3  2  0  0  0  0
  4  2  1  0  0  0  0
  5  4  1  0  0  0  0
  5 10  1  0  0  0  0
  6  5  1  0  0  0  0
  6 13  1  0  0  0  0
  6  7  1  0  0  0  0
  7 14  1  6  0  0  0
  7 33  1  0  0  0  0
  8  4  1  0  0  0  0
  8  7  1  0  0  0  0
  8 15  1  0  0  0  0
 11  5  1  0  0  0  0
 12  6  1  0  0  0  0
 16  8  1  0  0  0  0
 17 22  1  1  0  0  0
 17 21  1  0  0  0  0
 18 19  1  0  0  0  0
 18 24  1  0  0  0  0
 18 17  1  0  0  0  0
 19 20  1  0  0  0  0
 20  1  1  0  0  0  0
 20 21  1  0  0  0  0
 20 27  1  1  0  0  0
 21 29  1  0  0  0  0
 21 28  1  0  0  0  0
 23 18  1  0  0  0  0
 25 19  1  0  0  0  0
 26 19  1  0  0  0  0
 30 31  2  0  0  0  0
 31 32  1  0  0  0  0
 31 17  1  0  0  0  0
 33 38  2  0  0  0  0
 33 34  1  0  0  0  0
 34 35  2  0  0  0  0
 35 36  1  0  0  0  0
 35 41  1  0  0  0  0
 36 42  1  0  0  0  0
 37 43  1  0  0  0  0
 37 36  2  0  0  0  0
 38 37  1  0  0  0  0
 39 38  1  0  0  0  0
 40 34  1  0  0  0  0
M  END
>  <MODEL>
24

>  <REMARK>
 VINA RESULT:    -5.575      2.559      4.191
 INTER + INTRA:          -6.665
 INTER:                  -6.153
 INTRA:                  -0.512
 UNBOUND:                -0.113
  Name = 
  3 active torsions:
  status: ('A' for Active; 'I' for Inactive)
    1  A    between atoms: C_2  and  C_4
    2  A    between atoms: C_7  and  N_8
    3  A    between atoms: C_14  and  C_15
                            x       y       z     vdW  Elec       q    Type
                         _______ _______ _______ _____ _____    ______ ____

>  <TORSDO>
F 3

$$$$
=
 OpenBabel07192307433D

 43 45  0  0  1  0  0  0  0  0999 V2000
    2.3430    7.0200   17.8940 N   0  0  0  0  0  0  0  0  0  0  0  0
    2.1300    7.7050   19.0620 C   0  0  0  0  0  0  0  0  0  0  0  0
    2.6040    7.3530   20.1420 O   0  0  0  0  0  0  0  0  0  0  0  0
    1.2770    8.7740   18.9560 N   0  0  0  0  0  0  0  0  0  0  0  0
    0.6290    9.2790   17.7590 C   0  0  0  0  0  0  0  0  0  0  0  0
   -0.3790   10.3090   18.2640 C   0  0  0  0  0  0  0  0  0  0  0  0
    0.1690   10.7670   19.6260 C   0  0  1  0  0  0  0  0  0  0  0  0
    0.8370    9.4820   20.1410 C   0  0  0  0  0  0  0  0  0  0  0  0
    2.3700    7.5720   17.0450 H   0  0  0  0  0  0  0  0  0  0  0  0
    1.3940    9.7150   17.1130 H   0  0  0  0  0  0  0  0  0  0  0  0
    0.1390    8.4650   17.2150 H   0  0  0  0  0  0  0  0  0  0  0  0
   -1.3350    9.7930   18.4370 H   0  0  0  0  0  0  0  0  0  0  0  0
   -0.5810   11.1100   17.5500 H   0  0  0  0  0  0  0  0  0  0  0  0
   -0.6860   11.0120   20.2720 H   0  0  0  0  0  0  0  0  0  0  0  0
    1.6470    9.6200   20.8650 H   0  0  0  0  0  0  0  0  0  0  0  0
    0.0810    8.8420   20.6130 H   0  0  0  0  0  0  0  0  0  0  0  0
    2.8420    3.8650   19.2910 C   0  0  2  0  0  0  0  0  0  0  0  0
    4.2500    4.4050   19.4900 C   0  0  0  0  0  0  0  0  0  0  0  0
    4.1860    5.8420   19.0040 C   0  0  0  0  0  0  0  0  0  0  0  0
    3.1640    5.8320   17.8670 C   0  0  1  0  0  0  0  0  0  0  0  0
    2.3470    4.5400   18.0080 C   0  0  0  0  0  0  0  0  0  0  0  0
    2.8720    2.7750   19.1730 H   0  0  0  0  0  0  0  0  0  0  0  0
    4.5920    4.3420   20.5300 H   0  0  0  0  0  0  0  0  0  0  0  0
    4.9580    3.8460   18.8620 H   0  0  0  0  0  0  0  0  0  0  0  0
    3.8820    6.5100   19.8180 H   0  0  0  0  0  0  0  0  0  0  0  0
    5.1670    6.1940   18.6640 H   0  0  0  0  0  0  0  0  0  0  0  0
    3.6950    5.8140   16.9080 H   0  0  0  0  0  0  0  0  0  0  0  0
    2.5470    3.8880   17.1400 H   0  0  0  0  0  0  0  0  0  0  0  0
    1.2620    4.7230   18.0160 H   0  0  0  0  0  0  0  0  0  0  0  0
    2.3350    4.3510   21.5510 O   0  0  0  0  0  1  0  0  0  0  0  0
    1.8280    4.2120   20.4000 C   0  0  0  0  0  0  0  0  0  0  0  0
    0.6190    4.3030   20.0470 O   0  0  0  0  0  0  0  0  0  0  0  0
    1.1020   11.9640   19.6840 C   0  0  0  0  0  0  0  0  0  0  0  0
    1.9190   12.2060   18.5650 C   0  0  0  0  0  0  0  0  0  0  0  0
    2.8030   13.2850   18.5380 C   0  0  0  0  0  0  0  0  0  0  0  0
    2.8960   14.1410   19.6350 C   0  0  0  0  0  0  0  0  0  0  0  0
    2.0960   13.9200   20.7500 C   0  0  0  0  0  0  0  0  0  0  0  0
    1.2170   12.8410   20.7690 C   0  0  0  0  0  0  0  0  0  0  0  0
    0.4830   12.6610   21.8710 F   0  0  0  0  0  0  0  0  0  0  0  0
    1.8640   11.5510   17.6970 H   0  0  0  0  0  0  0  0  0  0  0  0
    3.4150   13.4560   17.6540 H   0  0  0  0  0  0  0  0  0  0  0  0
    3.5850   14.9820   19.6140 H   0  0  0  0  0  0  0  0  0  0  0  0
    2.1460   14.5810   21.6100 H   0  0  0  0  0  0  0  0  0  0  0  0
  1  2  1  0  0  0  0
  2  3  2  0  0  0  0
  4  2  1  0  0  0  0
  4  8  1  0  0  0  0
  5  6  1  0  0  0  0
  5  4  1  0  0  0  0
  6 12  1  0  0  0  0
  6  7  1  0  0  0  0
  7 33  1  0  0  0  0
  7  8  1  0  0  0  0
  7 14  1  1  0  0  0
  8 16  1  0  0  0  0
  8 15  1  0  0  0  0
  9  1  1  0  0  0  0
 10  5  1  0  0  0  0
 11  5  1  0  0  0  0
 13  6  1  0  0  0  0
 17 22  1  6  0  0  0
 17 18  1  0  0  0  0
 17 31  1  0  0  0  0
 18 23  1  0  0  0  0
 19 18  1  0  0  0  0
 19 25  1  0  0  0  0
 20 27  1  6  0  0  0
 20  1  1  0  0  0  0
 20 21  1  0  0  0  0
 20 19  1  0  0  0  0
 21 29  1  0  0  0  0
 21 17  1  0  0  0  0
 24 18  1  0  0  0  0
 26 19  1  0  0  0  0
 28 21  1  0  0  0  0
 31 30  1  0  0  0  0
 32 31  2  0  0  0  0
 33 38  1  0  0  0  0
 34 33  2  0  0  0  0
 35 34  1  0  0  0  0
 35 36  2  0  0  0  0
 36 37  1  0  0  0  0
 37 38  2  0  0  0  0
 37 43  1  0  0  0  0
 38 39  1  0  0  0  0
 40 34  1  0  0  0  0
 41 35  1  0  0  0  0
 42 36  1  0  0  0  0
M  END
>  <MODEL>
25

>  <REMARK>
 VINA RESULT:    -5.520      1.936      3.092
 INTER + INTRA:          -6.600
 INTER:                  -7.111
 INTRA:                   0.511
 UNBOUND:                -0.113
  Name = 
  3 active torsions:
  status: ('A' for Active; 'I' for Inactive)
    1  A    between atoms: C_2  and  C_4
    2  A    between atoms: C_7  and  N_8
    3  A    between atoms: C_14  and  C_15
                            x       y       z     vdW  Elec       q    Type
                         _______ _______ _______ _____ _____    ______ ____

>  <TORSDO>
F 3

$$$$
=
 OpenBabel07192307433D

 43 45  0  0  1  0  0  0  0  0999 V2000
    2.3360    7.3980   19.2810 N   0  0  0  0  0  0  0  0  0  0  0  0
    2.3830    6.2260   18.5730 C   0  0  0  0  0  0  0  0  0  0  0  0
    1.4000    5.7440   18.0090 O   0  0  0  0  0  0  0  0  0  0  0  0
    3.5920    5.5800   18.6060 N   0  0  0  0  0  0  0  0  0  0  0  0
    4.8160    6.0170   19.2520 C   0  0  0  0  0  0  0  0  0  0  0  0
    5.7510    4.8130   19.1740 C   0  0  0  0  0  0  0  0  0  0  0  0
    5.2440    3.9910   17.9770 C   0  0  1  0  0  0  0  0  0  0  0  0
    3.7300    4.2540   18.0390 C   0  0  0  0  0  0  0  0  0  0  0  0
    3.1800    7.9600   19.2800 H   0  0  0  0  0  0  0  0  0  0  0  0
    5.1970    6.8860   18.7110 H   0  0  0  0  0  0  0  0  0  0  0  0
    4.6200    6.3120   20.2870 H   0  0  0  0  0  0  0  0  0  0  0  0
    5.6100    4.2130   20.0850 H   0  0  0  0  0  0  0  0  0  0  0  0
    6.8100    5.0810   19.1390 H   0  0  0  0  0  0  0  0  0  0  0  0
    5.4340    2.9300   18.1880 H   0  0  0  0  0  0  0  0  0  0  0  0
    3.1870    4.1480   17.0930 H   0  0  0  0  0  0  0  0  0  0  0  0
    3.2700    3.5660   18.7600 H   0  0  0  0  0  0  0  0  0  0  0  0
    0.7910   10.4480   18.6000 C   0  0  2  0  0  0  0  0  0  0  0  0
    0.4700   10.3790   20.0860 C   0  0  0  0  0  0  0  0  0  0  0  0
    1.1640    9.1210   20.5750 C   0  0  0  0  0  0  0  0  0  0  0  0
    1.1100    8.1530   19.3930 C   0  0  1  0  0  0  0  0  0  0  0  0
    0.8070    8.9880   18.1410 C   0  0  0  0  0  0  0  0  0  0  0  0
    0.0130   11.0150   18.0750 H   0  0  0  0  0  0  0  0  0  0  0  0
    0.8000   11.2680   20.6390 H   0  0  0  0  0  0  0  0  0  0  0  0
   -0.6140   10.2700   20.2300 H   0  0  0  0  0  0  0  0  0  0  0  0
    2.1950    9.3420   20.8720 H   0  0  0  0  0  0  0  0  0  0  0  0
    0.6670    8.7080   21.4610 H   0  0  0  0  0  0  0  0  0  0  0  0
    0.2910    7.4400   19.5510 H   0  0  0  0  0  0  0  0  0  0  0  0
   -0.1860    8.7060   17.7490 H   0  0  0  0  0  0  0  0  0  0  0  0
    1.5260    8.8060   17.3270 H   0  0  0  0  0  0  0  0  0  0  0  0
    2.9760   10.2260   17.7170 O   0  0  0  0  0  0  0  0  0  0  0  0
    2.1660   11.0460   18.2390 C   0  0  0  0  0  0  0  0  0  0  0  0
    2.3380   12.2670   18.5150 O   0  0  0  0  0  1  0  0  0  0  0  0
    5.8190    4.2590   16.5970 C   0  0  0  0  0  0  0  0  0  0  0  0
    4.9740    4.0570   15.4910 C   0  0  0  0  0  0  0  0  0  0  0  0
    5.4260    4.2820   14.1900 C   0  0  0  0  0  0  0  0  0  0  0  0
    6.7360    4.7040   13.9660 C   0  0  0  0  0  0  0  0  0  0  0  0
    7.5860    4.9110   15.0470 C   0  0  0  0  0  0  0  0  0  0  0  0
    7.1270    4.6840   16.3420 C   0  0  0  0  0  0  0  0  0  0  0  0
    7.9880    4.8810   17.3450 F   0  0  0  0  0  0  0  0  0  0  0  0
    3.9480    3.7270   15.6400 H   0  0  0  0  0  0  0  0  0  0  0  0
    4.7470    4.1290   13.3520 H   0  0  0  0  0  0  0  0  0  0  0  0
    7.0870    4.8800   12.9530 H   0  0  0  0  0  0  0  0  0  0  0  0
    8.6060    5.2500   14.8950 H   0  0  0  0  0  0  0  0  0  0  0  0
  1 20  1  0  0  0  0
  2  4  1  0  0  0  0
  2  1  1  0  0  0  0
  3  2  2  0  0  0  0
  4  5  1  0  0  0  0
  5 11  1  0  0  0  0
  6  5  1  0  0  0  0
  6 12  1  0  0  0  0
  7  8  1  0  0  0  0
  7 14  1  1  0  0  0
  7  6  1  0  0  0  0
  8  4  1  0  0  0  0
  8 16  1  0  0  0  0
  9  1  1  0  0  0  0
 10  5  1  0  0  0  0
 13  6  1  0  0  0  0
 15  8  1  0  0  0  0
 17 22  1  6  0  0  0
 17 18  1  0  0  0  0
 18 24  1  0  0  0  0
 18 19  1  0  0  0  0
 18 23  1  0  0  0  0
 19 25  1  0  0  0  0
 19 26  1  0  0  0  0
 20 27  1  1  0  0  0
 20 19  1  0  0  0  0
 21 17  1  0  0  0  0
 21 20  1  0  0  0  0
 28 21  1  0  0  0  0
 29 21  1  0  0  0  0
 30 31  2  0  0  0  0
 31 32  1  0  0  0  0
 31 17  1  0  0  0  0
 33  7  1  0  0  0  0
 34 40  1  0  0  0  0
 34 33  2  0  0  0  0
 35 34  1  0  0  0  0
 36 35  2  0  0  0  0
 36 37  1  0  0  0  0
 37 38  2  0  0  0  0
 38 33  1  0  0  0  0
 38 39  1  0  0  0  0
 41 35  1  0  0  0  0
 42 36  1  0  0  0  0
 43 37  1  0  0  0  0
M  END
>  <MODEL>
26

>  <REMARK>
 VINA RESULT:    -5.512      3.915      8.140
 INTER + INTRA:          -6.592
 INTER:                  -6.107
 INTRA:                  -0.485
 UNBOUND:                -0.113
  Name = 
  3 active torsions:
  status: ('A' for Active; 'I' for Inactive)
    1  A    between atoms: C_2  and  C_4
    2  A    between atoms: C_7  and  N_8
    3  A    between atoms: C_14  and  C_15
                            x       y       z     vdW  Elec       q    Type
                         _______ _______ _______ _____ _____    ______ ____

>  <TORSDO>
F 3

$$$$
=
 OpenBabel07192307433D

 43 45  0  0  1  0  0  0  0  0999 V2000
    2.9210    5.5940   18.8140 N   0  0  0  0  0  0  0  0  0  0  0  0
    2.8920    6.8810   18.3470 C   0  0  0  0  0  0  0  0  0  0  0  0
    3.4560    7.2320   17.3100 O   0  0  0  0  0  0  0  0  0  0  0  0
    2.2530    7.7770   19.1660 N   0  0  0  0  0  0  0  0  0  0  0  0
    1.5750    7.5080   20.4210 C   0  0  0  0  0  0  0  0  0  0  0  0
    1.2710    8.8850   21.0060 C   0  0  0  0  0  0  0  0  0  0  0  0
    1.2410    9.8340   19.7950 C   0  0  1  0  0  0  0  0  0  0  0  0
    2.2930    9.1950   18.8740 C   0  0  0  0  0  0  0  0  0  0  0  0
    2.1020    5.2780   19.3220 H   0  0  0  0  0  0  0  0  0  0  0  0
    0.6740    6.9300   20.2060 H   0  0  0  0  0  0  0  0  0  0  0  0
    2.2150    6.9180   21.0840 H   0  0  0  0  0  0  0  0  0  0  0  0
    2.1170    9.1760   21.6460 H   0  0  0  0  0  0  0  0  0  0  0  0
    0.3800    8.9070   21.6370 H   0  0  0  0  0  0  0  0  0  0  0  0
    1.6010   10.8180   20.1250 H   0  0  0  0  0  0  0  0  0  0  0  0
    2.1800    9.4010   17.8040 H   0  0  0  0  0  0  0  0  0  0  0  0
    3.2930    9.5390   19.1700 H   0  0  0  0  0  0  0  0  0  0  0  0
    6.0520    4.3650   17.8960 C   0  0  2  0  0  0  0  0  0  0  0  0
    5.4380    4.4320   16.5050 C   0  0  0  0  0  0  0  0  0  0  0  0
    4.0670    5.0470   16.7150 C   0  0  0  0  0  0  0  0  0  0  0  0
    3.6170    4.5550   18.0910 C   0  0  1  0  0  0  0  0  0  0  0  0
    4.8720    4.0580   18.8230 C   0  0  0  0  0  0  0  0  0  0  0  0
    6.8000    3.5650   17.9370 H   0  0  0  0  0  0  0  0  0  0  0  0
    6.0410    5.0130   15.7970 H   0  0  0  0  0  0  0  0  0  0  0  0
    5.3180    3.4170   16.0990 H   0  0  0  0  0  0  0  0  0  0  0  0
    4.1250    6.1400   16.6740 H   0  0  0  0  0  0  0  0  0  0  0  0
    3.3670    4.7430   15.9280 H   0  0  0  0  0  0  0  0  0  0  0  0
    2.9250    3.7140   17.9630 H   0  0  0  0  0  0  0  0  0  0  0  0
    4.7930    2.9690   18.9820 H   0  0  0  0  0  0  0  0  0  0  0  0
    4.9880    4.5100   19.8210 H   0  0  0  0  0  0  0  0  0  0  0  0
    6.9660    6.5130   17.5020 O   0  0  0  0  0  0  0  0  0  0  0  0
    6.6960    5.6690   18.4070 C   0  0  0  0  0  0  0  0  0  0  0  0
    6.8970    5.7470   19.6510 O   0  0  0  0  0  1  0  0  0  0  0  0
   -0.0760   10.0800   19.0810 C   0  0  0  0  0  0  0  0  0  0  0  0
   -0.2370    9.5170   17.8020 C   0  0  0  0  0  0  0  0  0  0  0  0
   -1.4180    9.6960   17.0800 C   0  0  0  0  0  0  0  0  0  0  0  0
   -2.4600   10.4510   17.6170 C   0  0  0  0  0  0  0  0  0  0  0  0
   -2.3210   11.0140   18.8810 C   0  0  0  0  0  0  0  0  0  0  0  0
   -1.1400   10.8310   19.5940 C   0  0  0  0  0  0  0  0  0  0  0  0
   -1.0490   11.4070   20.7970 F   0  0  0  0  0  0  0  0  0  0  0  0
    0.5620    8.9250   17.3610 H   0  0  0  0  0  0  0  0  0  0  0  0
   -1.5200    9.2390   16.0960 H   0  0  0  0  0  0  0  0  0  0  0  0
   -3.3800   10.5900   17.0550 H   0  0  0  0  0  0  0  0  0  0  0  0
   -3.1250   11.5960   19.3210 H   0  0  0  0  0  0  0  0  0  0  0  0
  1  9  1  0  0  0  0
  2  1  1  0  0  0  0
  2  4  1  0  0  0  0
  3  2  2  0  0  0  0
  4  5  1  0  0  0  0
  5  6  1  0  0  0  0
  5 11  1  0  0  0  0
  6 13  1  0  0  0  0
  6 12  1  0  0  0  0
  7 14  1  1  0  0  0
  7  6  1  0  0  0  0
  8  4  1  0  0  0  0
  8 16  1  0  0  0  0
  8  7  1  0  0  0  0
 10  5  1  0  0  0  0
 15  8  1  0  0  0  0
 17 22  1  1  0  0  0
 17 31  1  0  0  0  0
 17 21  1  0  0  0  0
 18 19  1  0  0  0  0
 18 17  1  0  0  0  0
 19 20  1  0  0  0  0
 20 27  1  6  0  0  0
 20  1  1  0  0  0  0
 20 21  1  0  0  0  0
 21 28  1  0  0  0  0
 21 29  1  0  0  0  0
 23 18  1  0  0  0  0
 24 18  1  0  0  0  0
 25 19  1  0  0  0  0
 26 19  1  0  0  0  0
 30 31  2  0  0  0  0
 31 32  1  0  0  0  0
 33 38  1  0  0  0  0
 33  7  1  0  0  0  0
 34 33  2  0  0  0  0
 35 36  2  0  0  0  0
 35 34  1  0  0  0  0
 36 37  1  0  0  0  0
 37 43  1  0  0  0  0
 37 38  2  0  0  0  0
 38 39  1  0  0  0  0
 40 34  1  0  0  0  0
 41 35  1  0  0  0  0
 42 36  1  0  0  0  0
M  END
>  <MODEL>
27

>  <REMARK>
 VINA RESULT:    -5.423      2.066      2.857
 INTER + INTRA:          -6.487
 INTER:                  -7.053
 INTRA:                   0.566
 UNBOUND:                -0.113
  Name = 
  3 active torsions:
  status: ('A' for Active; 'I' for Inactive)
    1  A    between atoms: C_2  and  C_4
    2  A    between atoms: C_7  and  N_8
    3  A    between atoms: C_14  and  C_15
                            x       y       z     vdW  Elec       q    Type
                         _______ _______ _______ _____ _____    ______ ____

>  <TORSDO>
F 3

$$$$
=
 OpenBabel07192307433D

 43 45  0  0  1  0  0  0  0  0999 V2000
    4.2620    3.9230   17.2600 N   0  0  0  0  0  0  0  0  0  0  0  0
    4.3410    4.5430   18.4800 C   0  0  0  0  0  0  0  0  0  0  0  0
    5.4080    4.8910   18.9870 O   0  0  0  0  0  0  0  0  0  0  0  0
    3.1450    4.6770   19.1370 N   0  0  0  0  0  0  0  0  0  0  0  0
    1.8270    4.2890   18.6720 C   0  0  0  0  0  0  0  0  0  0  0  0
    0.9200    4.4430   19.8900 C   0  0  0  0  0  0  0  0  0  0  0  0
    1.6310    5.4710   20.7880 C   0  0  1  0  0  0  0  0  0  0  0  0
    3.1090    5.1630   20.5010 C   0  0  0  0  0  0  0  0  0  0  0  0
    3.4320    4.1120   16.7110 H   0  0  0  0  0  0  0  0  0  0  0  0
    1.5460    4.9480   17.8480 H   0  0  0  0  0  0  0  0  0  0  0  0
    1.8380    3.2580   18.3030 H   0  0  0  0  0  0  0  0  0  0  0  0
    0.9000    3.4810   20.4240 H   0  0  0  0  0  0  0  0  0  0  0  0
   -0.1160    4.6820   19.6390 H   0  0  0  0  0  0  0  0  0  0  0  0
    1.4070    5.2210   21.8340 H   0  0  0  0  0  0  0  0  0  0  0  0
    3.8100    5.9890   20.6660 H   0  0  0  0  0  0  0  0  0  0  0  0
    3.4360    4.3260   21.1310 H   0  0  0  0  0  0  0  0  0  0  0  0
    7.3030    5.2190   16.1520 C   0  0  2  0  0  0  0  0  0  0  0  0
    6.7500    4.7990   14.7980 C   0  0  0  0  0  0  0  0  0  0  0  0
    5.3540    4.2810   15.0930 C   0  0  0  0  0  0  0  0  0  0  0  0
    5.4490    3.6520   16.4840 C   0  0  1  0  0  0  0  0  0  0  0  0
    6.7270    4.1980   17.1370 C   0  0  0  0  0  0  0  0  0  0  0  0
    8.3990    5.1740   16.1390 H   0  0  0  0  0  0  0  0  0  0  0  0
    6.7350    5.6170   14.0670 H   0  0  0  0  0  0  0  0  0  0  0  0
    7.3560    3.9810   14.3840 H   0  0  0  0  0  0  0  0  0  0  0  0
    4.6270    5.1000   15.0660 H   0  0  0  0  0  0  0  0  0  0  0  0
    5.0300    3.5520   14.3400 H   0  0  0  0  0  0  0  0  0  0  0  0
    5.5410    2.5640   16.3800 H   0  0  0  0  0  0  0  0  0  0  0  0
    7.4420    3.3700   17.2830 H   0  0  0  0  0  0  0  0  0  0  0  0
    6.5420    4.6280   18.1340 H   0  0  0  0  0  0  0  0  0  0  0  0
    7.7240    7.1980   17.3790 O   0  0  0  0  0  1  0  0  0  0  0  0
    6.8720    6.6130   16.6480 C   0  0  0  0  0  0  0  0  0  0  0  0
    5.7270    7.0080   16.2910 O   0  0  0  0  0  0  0  0  0  0  0  0
    1.3070    6.9450   20.6240 C   0  0  0  0  0  0  0  0  0  0  0  0
    0.4250    7.5240   21.5560 C   0  0  0  0  0  0  0  0  0  0  0  0
    0.0770    8.8730   21.4760 C   0  0  0  0  0  0  0  0  0  0  0  0
    0.5950    9.6710   20.4560 C   0  0  0  0  0  0  0  0  0  0  0  0
    1.4690    9.1170   19.5270 C   0  0  0  0  0  0  0  0  0  0  0  0
    1.8110    7.7710   19.6140 C   0  0  0  0  0  0  0  0  0  0  0  0
    2.6410    7.2840   18.6870 F   0  0  0  0  0  0  0  0  0  0  0  0
    0.0070    6.9210   22.3600 H   0  0  0  0  0  0  0  0  0  0  0  0
   -0.5990    9.2980   22.2170 H   0  0  0  0  0  0  0  0  0  0  0  0
    0.3240   10.7210   20.3940 H   0  0  0  0  0  0  0  0  0  0  0  0
    1.8920    9.7250   18.7320 H   0  0  0  0  0  0  0  0  0  0  0  0
  1  2  1  0  0  0  0
  2  3  2  0  0  0  0
  2  4  1  0  0  0  0
  4  8  1  0  0  0  0
  5  4  1  0  0  0  0
  5  6  1  0  0  0  0
  6 12  1  0  0  0  0
  6  7  1  0  0  0  0
  7 14  1  1  0  0  0
  8 15  1  0  0  0  0
  8  7  1  0  0  0  0
  8 16  1  0  0  0  0
  9  1  1  0  0  0  0
 10  5  1  0  0  0  0
 11  5  1  0  0  0  0
 13  6  1  0  0  0  0
 17 22  1  6  0  0  0
 17 31  1  0  0  0  0
 17 21  1  0  0  0  0
 18 19  1  0  0  0  0
 18 17  1  0  0  0  0
 19 20  1  0  0  0  0
 20 27  1  6  0  0  0
 20 21  1  0  0  0  0
 20  1  1  0  0  0  0
 21 28  1  0  0  0  0
 21 29  1  0  0  0  0
 23 18  1  0  0  0  0
 24 18  1  0  0  0  0
 25 19  1  0  0  0  0
 26 19  1  0  0  0  0
 31 30  1  0  0  0  0
 32 31  2  0  0  0  0
 33  7  1  0  0  0  0
 33 34  1  0  0  0  0
 34 40  1  0  0  0  0
 35 34  2  0  0  0  0
 35 41  1  0  0  0  0
 36 35  1  0  0  0  0
 37 38  1  0  0  0  0
 37 36  2  0  0  0  0
 38 33  2  0  0  0  0
 39 38  1  0  0  0  0
 42 36  1  0  0  0  0
 43 37  1  0  0  0  0
M  END
>  <MODEL>
28

>  <REMARK>
 VINA RESULT:    -5.300      3.335      5.470
 INTER + INTRA:          -6.342
 INTER:                  -7.802
 INTRA:                   1.459
 UNBOUND:                -0.113
  Name = 
  3 active torsions:
  status: ('A' for Active; 'I' for Inactive)
    1  A    between atoms: C_2  and  C_4
    2  A    between atoms: C_7  and  N_8
    3  A    between atoms: C_14  and  C_15
                            x       y       z     vdW  Elec       q    Type
                         _______ _______ _______ _____ _____    ______ ____

>  <TORSDO>
F 3

$$$$
=
 OpenBabel07192307433D

 43 45  0  0  1  0  0  0  0  0999 V2000
    1.9720    9.3900   18.2160 N   0  0  0  0  0  0  0  0  0  0  0  0
    0.7210    9.9420   18.1380 C   0  0  0  0  0  0  0  0  0  0  0  0
   -0.1890    9.4490   17.4690 O   0  0  0  0  0  0  0  0  0  0  0  0
    0.5750   11.1360   18.7960 N   0  0  0  0  0  0  0  0  0  0  0  0
    1.5640   11.8390   19.5920 C   0  0  0  0  0  0  0  0  0  0  0  0
    0.9430   13.2050   19.8720 C   0  0  0  0  0  0  0  0  0  0  0  0
   -0.5750   12.9850   19.7490 C   0  0  1  0  0  0  0  0  0  0  0  0
   -0.6450   11.9060   18.6570 C   0  0  0  0  0  0  0  0  0  0  0  0
    2.4690    9.5190   19.0900 H   0  0  0  0  0  0  0  0  0  0  0  0
    1.7460   11.2620   20.5010 H   0  0  0  0  0  0  0  0  0  0  0  0
    2.5070   11.9270   19.0430 H   0  0  0  0  0  0  0  0  0  0  0  0
    1.2540   13.8910   19.0700 H   0  0  0  0  0  0  0  0  0  0  0  0
    1.2730   13.6530   20.8120 H   0  0  0  0  0  0  0  0  0  0  0  0
   -1.0230   13.9130   19.3680 H   0  0  0  0  0  0  0  0  0  0  0  0
   -1.5380   11.2720   18.6670 H   0  0  0  0  0  0  0  0  0  0  0  0
   -0.5920   12.3830   17.6690 H   0  0  0  0  0  0  0  0  0  0  0  0
    2.3520    5.9390   18.5290 C   0  0  2  0  0  0  0  0  0  0  0  0
    3.7020    6.2400   17.8950 C   0  0  0  0  0  0  0  0  0  0  0  0
    3.7420    7.7520   17.7680 C   0  0  0  0  0  0  0  0  0  0  0  0
    2.2930    8.1680   17.5160 C   0  0  1  0  0  0  0  0  0  0  0  0
    1.4060    6.9880   17.9390 C   0  0  0  0  0  0  0  0  0  0  0  0
    2.0290    4.9250   18.2590 H   0  0  0  0  0  0  0  0  0  0  0  0
    4.5470    5.8570   18.4810 H   0  0  0  0  0  0  0  0  0  0  0  0
    3.7520    5.7940   16.8910 H   0  0  0  0  0  0  0  0  0  0  0  0
    4.1410    8.2040   18.6830 H   0  0  0  0  0  0  0  0  0  0  0  0
    4.4030    8.0680   16.9520 H   0  0  0  0  0  0  0  0  0  0  0  0
    2.1530    8.3500   16.4430 H   0  0  0  0  0  0  0  0  0  0  0  0
    0.8980    6.5780   17.0490 H   0  0  0  0  0  0  0  0  0  0  0  0
    0.6110    7.2860   18.6410 H   0  0  0  0  0  0  0  0  0  0  0  0
    2.7070    5.0810   20.7060 O   0  0  0  0  0  1  0  0  0  0  0  0
    2.2850    6.0850   20.0620 C   0  0  0  0  0  0  0  0  0  0  0  0
    1.8070    7.1680   20.5030 O   0  0  0  0  0  0  0  0  0  0  0  0
   -1.3700   12.6060   20.9850 C   0  0  0  0  0  0  0  0  0  0  0  0
   -0.7360   11.7910   21.9410 C   0  0  0  0  0  0  0  0  0  0  0  0
   -1.3980   11.3980   23.1050 C   0  0  0  0  0  0  0  0  0  0  0  0
   -2.7120   11.8040   23.3340 C   0  0  0  0  0  0  0  0  0  0  0  0
   -3.3550   12.6120   22.4030 C   0  0  0  0  0  0  0  0  0  0  0  0
   -2.6880   12.9990   21.2440 C   0  0  0  0  0  0  0  0  0  0  0  0
   -3.3560   13.7600   20.3720 F   0  0  0  0  0  0  0  0  0  0  0  0
    0.2890   11.4610   21.7840 H   0  0  0  0  0  0  0  0  0  0  0  0
   -0.8790   10.7770   23.8340 H   0  0  0  0  0  0  0  0  0  0  0  0
   -3.2270   11.4990   24.2420 H   0  0  0  0  0  0  0  0  0  0  0  0
   -4.3750   12.9470   22.5680 H   0  0  0  0  0  0  0  0  0  0  0  0
  1  9  1  0  0  0  0
  2  1  1  0  0  0  0
  2  4  1  0  0  0  0
  3  2  2  0  0  0  0
  4  5  1  0  0  0  0
  5  6  1  0  0  0  0
  5 10  1  0  0  0  0
  6 13  1  0  0  0  0
  7 14  1  6  0  0  0
  7  6  1  0  0  0  0
  7 33  1  0  0  0  0
  8 15  1  0  0  0  0
  8  4  1  0  0  0  0
  8  7  1  0  0  0  0
 11  5  1  0  0  0  0
 12  6  1  0  0  0  0
 16  8  1  0  0  0  0
 17 22  1  6  0  0  0
 17 31  1  0  0  0  0
 18 23  1  0  0  0  0
 18 17  1  0  0  0  0
 19 18  1  0  0  0  0
 19 25  1  0  0  0  0
 20 27  1  6  0  0  0
 20 19  1  0  0  0  0
 20 21  1  0  0  0  0
 20  1  1  0  0  0  0
 21 17  1  0  0  0  0
 21 29  1  0  0  0  0
 24 18  1  0  0  0  0
 26 19  1  0  0  0  0
 28 21  1  0  0  0  0
 31 32  2  0  0  0  0
 31 30  1  0  0  0  0
 33 38  2  0  0  0  0
 33 34  1  0  0  0  0
 34 35  2  0  0  0  0
 35 36  1  0  0  0  0
 35 41  1  0  0  0  0
 36 42  1  0  0  0  0
 37 43  1  0  0  0  0
 37 36  2  0  0  0  0
 38 37  1  0  0  0  0
 39 38  1  0  0  0  0
 40 34  1  0  0  0  0
M  END
>  <MODEL>
29

>  <REMARK>
 VINA RESULT:    -5.083      2.325      3.461
 INTER + INTRA:          -6.087
 INTER:                  -5.994
 INTRA:                  -0.093
 UNBOUND:                -0.113
  Name = 
  3 active torsions:
  status: ('A' for Active; 'I' for Inactive)
    1  A    between atoms: C_2  and  C_4
    2  A    between atoms: C_7  and  N_8
    3  A    between atoms: C_14  and  C_15
                            x       y       z     vdW  Elec       q    Type
                         _______ _______ _______ _____ _____    ______ ____

>  <TORSDO>
F 3

$$$$
