=
 OpenBabel07192307433D

 33 34  0  0  0  0  0  0  0  0999 V2000
    0.8960   10.6730   18.9760 N   0  0  0  0  0  0  0  0  0  0  0  0
    1.9970   10.1920   18.1140 C   0  0  0  0  0  0  0  0  0  0  0  0
    1.9550    8.6750   17.8180 C   0  0  0  0  0  0  0  0  0  0  0  0
    2.0450    7.9010   19.0690 N   0  0  0  0  0  0  0  0  0  0  0  0
    1.5230    8.5560   20.2810 C   0  0  0  0  0  0  0  0  0  0  0  0
    0.4640    9.6280   19.9290 C   0  0  0  0  0  0  0  0  0  0  0  0
    1.9650   10.7430   17.1670 H   0  0  0  0  0  0  0  0  0  0  0  0
    2.9690   10.4090   18.5810 H   0  0  0  0  0  0  0  0  0  0  0  0
    1.0280    8.4180   17.2890 H   0  0  0  0  0  0  0  0  0  0  0  0
    2.8000    8.4480   17.1590 H   0  0  0  0  0  0  0  0  0  0  0  0
    2.3510    9.0160   20.8320 H   0  0  0  0  0  0  0  0  0  0  0  0
    1.0370    7.8250   20.9390 H   0  0  0  0  0  0  0  0  0  0  0  0
    0.0700   10.0700   20.8510 H   0  0  0  0  0  0  0  0  0  0  0  0
   -0.3890    9.1140   19.4640 H   0  0  0  0  0  0  0  0  0  0  0  0
    2.5330    6.6060   19.0960 C   0  0  0  0  0  0  0  0  0  0  0  0
    2.1470    5.6900   20.0840 C   0  0  0  0  0  0  0  0  0  0  0  0
    2.6440    4.3770   20.1130 C   0  0  0  0  0  0  0  0  0  0  0  0
    3.5510    3.9280   19.1480 C   0  0  0  0  0  0  0  0  0  0  0  0
    3.9480    4.8240   18.1600 C   0  0  0  0  0  0  0  0  0  0  0  0
    3.4470    6.1360   18.1410 C   0  0  0  0  0  0  0  0  0  0  0  0
    2.0410    3.2380   21.5150 Br  0  0  0  0  0  0  0  0  0  0  0  0
    1.4640    5.9970   20.8700 H   0  0  0  0  0  0  0  0  0  0  0  0
    4.6450    4.5440   17.3760 H   0  0  0  0  0  0  0  0  0  0  0  0
    3.7760    6.7820   17.3310 H   0  0  0  0  0  0  0  0  0  0  0  0
    3.9850    2.6340   19.2490 O   0  0  0  0  0  0  0  0  0  0  0  0
    3.4890    1.6980   18.3020 C   0  0  0  0  0  0  0  0  0  0  0  0
    3.8100    2.0260   17.3080 H   0  0  0  0  0  0  0  0  0  0  0  0
    2.3950    1.6720   18.3060 H   0  0  0  0  0  0  0  0  0  0  0  0
    3.9100    0.7010   18.4730 H   0  0  0  0  0  0  0  0  0  0  0  0
    1.2800   11.9050   19.6590 C   0  0  0  0  0  0  0  0  0  0  0  0
    0.5670   12.7070   19.4370 H   0  0  0  0  0  0  0  0  0  0  0  0
    2.2820   12.2430   19.3710 H   0  0  0  0  0  0  0  0  0  0  0  0
    1.2640   11.7630   20.7450 H   0  0  0  0  0  0  0  0  0  0  0  0
  1 30  1  0  0  0  0
  1  6  1  0  0  0  0
  2  8  1  0  0  0  0
  2  1  1  0  0  0  0
  3  2  1  0  0  0  0
  3  4  1  0  0  0  0
  4 15  1  0  0  0  0
  4  5  1  0  0  0  0
  5 11  1  0  0  0  0
  5 12  1  0  0  0  0
  6  5  1  0  0  0  0
  6 13  1  0  0  0  0
  7  2  1  0  0  0  0
  9  3  1  0  0  0  0
 10  3  1  0  0  0  0
 14  6  1  0  0  0  0
 15 16  1  0  0  0  0
 16 17  2  0  0  0  0
 16 22  1  0  0  0  0
 17 21  1  0  0  0  0
 18 25  1  0  0  0  0
 18 17  1  0  0  0  0
 19 18  2  0  0  0  0
 20 19  1  0  0  0  0
 20 15  2  0  0  0  0
 23 19  1  0  0  0  0
 24 20  1  0  0  0  0
 26 28  1  0  0  0  0
 26 29  1  0  0  0  0
 26 25  1  0  0  0  0
 27 26  1  0  0  0  0
 30 33  1  0  0  0  0
 31 30  1  0  0  0  0
 32 30  1  0  0  0  0
M  END
>  <MODEL>
1

>  <REMARK>
 VINA RESULT:    -5.605      0.000      0.000
 INTER + INTRA:          -6.798
 INTER:                  -6.562
 INTRA:                  -0.236
 UNBOUND:                -0.211
  Name = 
  4 active torsions:
  status: ('A' for Active; 'I' for Inactive)
    1  A    between atoms: C_1  and  N_2
    2  A    between atoms: N_5  and  C_6
    3  A    between atoms: C_9  and  O_12
    4  A    between atoms: O_12  and  C_13
                            x       y       z     vdW  Elec       q    Type
                         _______ _______ _______ _____ _____    ______ ____

>  <TORSDO>
F 4

$$$$
=
 OpenBabel07192307433D

 33 34  0  0  0  0  0  0  0  0999 V2000
    1.2570    3.4870   20.8440 N   0  0  0  0  0  0  0  0  0  0  0  0
    2.3510    4.4630   21.0370 C   0  0  0  0  0  0  0  0  0  0  0  0
    2.8490    5.1250   19.7320 C   0  0  0  0  0  0  0  0  0  0  0  0
    3.3680    4.1070   18.8010 N   0  0  0  0  0  0  0  0  0  0  0  0
    2.7810    2.7610   18.9140 C   0  0  0  0  0  0  0  0  0  0  0  0
    1.3630    2.8150   19.5310 C   0  0  0  0  0  0  0  0  0  0  0  0
    2.0050    5.2440   21.7250 H   0  0  0  0  0  0  0  0  0  0  0  0
    3.2160    3.9770   21.5110 H   0  0  0  0  0  0  0  0  0  0  0  0
    2.0330    5.6830   19.2550 H   0  0  0  0  0  0  0  0  0  0  0  0
    3.6360    5.8370   20.0060 H   0  0  0  0  0  0  0  0  0  0  0  0
    3.4320    2.1290   19.5290 H   0  0  0  0  0  0  0  0  0  0  0  0
    2.6850    2.2940   17.9250 H   0  0  0  0  0  0  0  0  0  0  0  0
    0.9400    1.8040   19.5680 H   0  0  0  0  0  0  0  0  0  0  0  0
    0.7190    3.3760   18.8400 H   0  0  0  0  0  0  0  0  0  0  0  0
    4.3070    4.4110   17.8320 C   0  0  0  0  0  0  0  0  0  0  0  0
    5.2450    5.4390   18.0060 C   0  0  0  0  0  0  0  0  0  0  0  0
    6.1970    5.7490   17.0220 C   0  0  0  0  0  0  0  0  0  0  0  0
    6.2480    5.0380   15.8190 C   0  0  0  0  0  0  0  0  0  0  0  0
    5.3230    4.0160   15.6260 C   0  0  0  0  0  0  0  0  0  0  0  0
    4.3740    3.7150   16.6160 C   0  0  0  0  0  0  0  0  0  0  0  0
    7.4080    7.1730   17.3860 Br  0  0  0  0  0  0  0  0  0  0  0  0
    5.2320    6.0360   18.9130 H   0  0  0  0  0  0  0  0  0  0  0  0
    5.3070    3.4190   14.7190 H   0  0  0  0  0  0  0  0  0  0  0  0
    3.6930    2.8910   16.4180 H   0  0  0  0  0  0  0  0  0  0  0  0
    7.2080    5.4040   14.9140 O   0  0  0  0  0  0  0  0  0  0  0  0
    7.1920    4.7670   13.6440 C   0  0  0  0  0  0  0  0  0  0  0  0
    6.1490    4.5510   13.3910 H   0  0  0  0  0  0  0  0  0  0  0  0
    7.7310    3.8140   13.6720 H   0  0  0  0  0  0  0  0  0  0  0  0
    7.5920    5.4260   12.8660 H   0  0  0  0  0  0  0  0  0  0  0  0
    1.2250    2.5290   21.9450 C   0  0  0  0  0  0  0  0  0  0  0  0
    0.4270    2.7810   22.6520 H   0  0  0  0  0  0  0  0  0  0  0  0
    2.1740    2.4930   22.4920 H   0  0  0  0  0  0  0  0  0  0  0  0
    1.0050    1.5230   21.5710 H   0  0  0  0  0  0  0  0  0  0  0  0
  1  2  1  0  0  0  0
  1 30  1  0  0  0  0
  2  8  1  0  0  0  0
  2  7  1  0  0  0  0
  3 10  1  0  0  0  0
  3  2  1  0  0  0  0
  4  5  1  0  0  0  0
  4  3  1  0  0  0  0
  5 11  1  0  0  0  0
  5  6  1  0  0  0  0
  6 13  1  0  0  0  0
  6  1  1  0  0  0  0
  9  3  1  0  0  0  0
 12  5  1  0  0  0  0
 14  6  1  0  0  0  0
 15 16  1  0  0  0  0
 15  4  1  0  0  0  0
 16 22  1  0  0  0  0
 17 21  1  0  0  0  0
 17 16  2  0  0  0  0
 18 17  1  0  0  0  0
 19 18  2  0  0  0  0
 19 20  1  0  0  0  0
 20 15  2  0  0  0  0
 23 19  1  0  0  0  0
 24 20  1  0  0  0  0
 25 18  1  0  0  0  0
 26 28  1  0  0  0  0
 26 25  1  0  0  0  0
 27 26  1  0  0  0  0
 29 26  1  0  0  0  0
 30 32  1  0  0  0  0
 30 31  1  0  0  0  0
 33 30  1  0  0  0  0
M  END
>  <MODEL>
2

>  <REMARK>
 VINA RESULT:    -5.582      4.406      5.787
 INTER + INTRA:          -6.772
 INTER:                  -6.551
 INTRA:                  -0.222
 UNBOUND:                -0.211
  Name = 
  4 active torsions:
  status: ('A' for Active; 'I' for Inactive)
    1  A    between atoms: C_1  and  N_2
    2  A    between atoms: N_5  and  C_6
    3  A    between atoms: C_9  and  O_12
    4  A    between atoms: O_12  and  C_13
                            x       y       z     vdW  Elec       q    Type
                         _______ _______ _______ _____ _____    ______ ____

>  <TORSDO>
F 4

$$$$
=
 OpenBabel07192307433D

 33 34  0  0  0  0  0  0  0  0999 V2000
    0.9630   10.5880   19.2030 N   0  0  0  0  0  0  0  0  0  0  0  0
    0.5350    9.5380   20.1510 C   0  0  0  0  0  0  0  0  0  0  0  0
    1.6090    8.4620   20.4340 C   0  0  0  0  0  0  0  0  0  0  0  0
    1.9810    7.7640   19.1910 N   0  0  0  0  0  0  0  0  0  0  0  0
    1.8430    8.5350   17.9430 C   0  0  0  0  0  0  0  0  0  0  0  0
    1.9220   10.0570   18.2110 C   0  0  0  0  0  0  0  0  0  0  0  0
    0.2490   10.0160   21.0960 H   0  0  0  0  0  0  0  0  0  0  0  0
   -0.3570    9.0200   19.7700 H   0  0  0  0  0  0  0  0  0  0  0  0
    2.4980    8.9230   20.8810 H   0  0  0  0  0  0  0  0  0  0  0  0
    1.1840    7.7600   21.1610 H   0  0  0  0  0  0  0  0  0  0  0  0
    0.8870    8.2890   17.4670 H   0  0  0  0  0  0  0  0  0  0  0  0
    2.6490    8.2880   17.2410 H   0  0  0  0  0  0  0  0  0  0  0  0
    1.8520   10.6010   17.2610 H   0  0  0  0  0  0  0  0  0  0  0  0
    2.9260   10.2760   18.5990 H   0  0  0  0  0  0  0  0  0  0  0  0
    2.4940    6.4790   19.1970 C   0  0  0  0  0  0  0  0  0  0  0  0
    2.1110    5.5340   20.1600 C   0  0  0  0  0  0  0  0  0  0  0  0
    2.6320    4.2300   20.1680 C   0  0  0  0  0  0  0  0  0  0  0  0
    3.5610    3.8200   19.2070 C   0  0  0  0  0  0  0  0  0  0  0  0
    3.9560    4.7440   18.2440 C   0  0  0  0  0  0  0  0  0  0  0  0
    3.4290    6.0460   18.2460 C   0  0  0  0  0  0  0  0  0  0  0  0
    2.0310    3.0500   21.5360 Br  0  0  0  0  0  0  0  0  0  0  0  0
    1.4100    5.8110   20.9420 H   0  0  0  0  0  0  0  0  0  0  0  0
    4.6690    4.4940   17.4650 H   0  0  0  0  0  0  0  0  0  0  0  0
    3.7580    6.7160   17.4550 H   0  0  0  0  0  0  0  0  0  0  0  0
    4.0180    2.5320   19.2860 O   0  0  0  0  0  0  0  0  0  0  0  0
    3.5160    1.5950   18.3430 C   0  0  0  0  0  0  0  0  0  0  0  0
    4.1700    0.7180   18.3610 H   0  0  0  0  0  0  0  0  0  0  0  0
    3.5390    2.0050   17.3280 H   0  0  0  0  0  0  0  0  0  0  0  0
    2.5070    1.2630   18.6130 H   0  0  0  0  0  0  0  0  0  0  0  0
   -0.1970   11.2040   18.5630 C   0  0  0  0  0  0  0  0  0  0  0  0
    0.0050   12.2550   18.3300 H   0  0  0  0  0  0  0  0  0  0  0  0
   -1.0930   11.1530   19.1920 H   0  0  0  0  0  0  0  0  0  0  0  0
   -0.4170   10.7080   17.6100 H   0  0  0  0  0  0  0  0  0  0  0  0
  1  2  1  0  0  0  0
  2  3  1  0  0  0  0
  2  7  1  0  0  0  0
  3  9  1  0  0  0  0
  3 10  1  0  0  0  0
  4 15  1  0  0  0  0
  4  3  1  0  0  0  0
  5  6  1  0  0  0  0
  5  4  1  0  0  0  0
  6 14  1  0  0  0  0
  6  1  1  0  0  0  0
  8  2  1  0  0  0  0
 11  5  1  0  0  0  0
 12  5  1  0  0  0  0
 13  6  1  0  0  0  0
 15 16  1  0  0  0  0
 16 17  2  0  0  0  0
 16 22  1  0  0  0  0
 17 21  1  0  0  0  0
 18 25  1  0  0  0  0
 18 17  1  0  0  0  0
 19 20  1  0  0  0  0
 19 18  2  0  0  0  0
 20 15  2  0  0  0  0
 23 19  1  0  0  0  0
 24 20  1  0  0  0  0
 26 27  1  0  0  0  0
 26 29  1  0  0  0  0
 26 25  1  0  0  0  0
 28 26  1  0  0  0  0
 30 32  1  0  0  0  0
 30  1  1  0  0  0  0
 31 30  1  0  0  0  0
 33 30  1  0  0  0  0
M  END
>  <MODEL>
3

>  <REMARK>
 VINA RESULT:    -5.572      0.522      1.340
 INTER + INTRA:          -6.761
 INTER:                  -6.531
 INTRA:                  -0.230
 UNBOUND:                -0.211
  Name = 
  4 active torsions:
  status: ('A' for Active; 'I' for Inactive)
    1  A    between atoms: C_1  and  N_2
    2  A    between atoms: N_5  and  C_6
    3  A    between atoms: C_9  and  O_12
    4  A    between atoms: O_12  and  C_13
                            x       y       z     vdW  Elec       q    Type
                         _______ _______ _______ _____ _____    ______ ____

>  <TORSDO>
F 4

$$$$
=
 OpenBabel07192307433D

 33 34  0  0  0  0  0  0  0  0999 V2000
    3.9920    2.7050   19.4030 N   0  0  0  0  0  0  0  0  0  0  0  0
    4.6070    3.8210   18.6520 C   0  0  0  0  0  0  0  0  0  0  0  0
    4.3260    5.2190   19.2500 C   0  0  0  0  0  0  0  0  0  0  0  0
    2.8780    5.4900   19.2750 N   0  0  0  0  0  0  0  0  0  0  0  0
    1.9960    4.3140   19.3840 C   0  0  0  0  0  0  0  0  0  0  0  0
    2.7280    3.1220   20.0450 C   0  0  0  0  0  0  0  0  0  0  0  0
    5.6900    3.6600   18.6110 H   0  0  0  0  0  0  0  0  0  0  0  0
    4.2420    3.8280   17.6140 H   0  0  0  0  0  0  0  0  0  0  0  0
    4.7330    5.2840   20.2670 H   0  0  0  0  0  0  0  0  0  0  0  0
    4.8470    5.9520   18.6250 H   0  0  0  0  0  0  0  0  0  0  0  0
    1.6440    4.0290   18.3860 H   0  0  0  0  0  0  0  0  0  0  0  0
    1.1200    4.5410   20.0040 H   0  0  0  0  0  0  0  0  0  0  0  0
    2.0360    2.2770   20.1440 H   0  0  0  0  0  0  0  0  0  0  0  0
    2.9800    3.4140   21.0730 H   0  0  0  0  0  0  0  0  0  0  0  0
    2.3730    6.7780   19.2630 C   0  0  0  0  0  0  0  0  0  0  0  0
    1.8000    7.3600   20.4030 C   0  0  0  0  0  0  0  0  0  0  0  0
    1.2850    8.6660   20.3890 C   0  0  0  0  0  0  0  0  0  0  0  0
    1.3250    9.4450   19.2290 C   0  0  0  0  0  0  0  0  0  0  0  0
    1.8890    8.8840   18.0860 C   0  0  0  0  0  0  0  0  0  0  0  0
    2.3990    7.5760   18.1100 C   0  0  0  0  0  0  0  0  0  0  0  0
    0.5290    9.3300   22.0050 Br  0  0  0  0  0  0  0  0  0  0  0  0
    1.7230    6.7880   21.3220 H   0  0  0  0  0  0  0  0  0  0  0  0
    1.9580    9.4320   17.1520 H   0  0  0  0  0  0  0  0  0  0  0  0
    2.8470    7.2010   17.1930 H   0  0  0  0  0  0  0  0  0  0  0  0
    0.8030   10.7080   19.3030 O   0  0  0  0  0  0  0  0  0  0  0  0
   -0.4390   10.9460   18.6550 C   0  0  0  0  0  0  0  0  0  0  0  0
   -1.0980   11.4480   19.3710 H   0  0  0  0  0  0  0  0  0  0  0  0
   -0.9190   10.0070   18.3630 H   0  0  0  0  0  0  0  0  0  0  0  0
   -0.3160   11.6120   17.7950 H   0  0  0  0  0  0  0  0  0  0  0  0
    3.8060    1.5450   18.5360 C   0  0  0  0  0  0  0  0  0  0  0  0
    4.4540    1.6140   17.6560 H   0  0  0  0  0  0  0  0  0  0  0  0
    2.7690    1.4430   18.1970 H   0  0  0  0  0  0  0  0  0  0  0  0
    4.0880    0.6250   19.0610 H   0  0  0  0  0  0  0  0  0  0  0  0
  1  6  1  0  0  0  0
  2  3  1  0  0  0  0
  2  1  1  0  0  0  0
  3  4  1  0  0  0  0
  3  9  1  0  0  0  0
  4  5  1  0  0  0  0
  5 12  1  0  0  0  0
  5  6  1  0  0  0  0
  6 13  1  0  0  0  0
  6 14  1  0  0  0  0
  7  2  1  0  0  0  0
  8  2  1  0  0  0  0
 10  3  1  0  0  0  0
 11  5  1  0  0  0  0
 15  4  1  0  0  0  0
 15 16  1  0  0  0  0
 16 22  1  0  0  0  0
 17 16  2  0  0  0  0
 17 21  1  0  0  0  0
 18 25  1  0  0  0  0
 18 17  1  0  0  0  0
 19 20  1  0  0  0  0
 19 18  2  0  0  0  0
 20 15  2  0  0  0  0
 23 19  1  0  0  0  0
 24 20  1  0  0  0  0
 26 25  1  0  0  0  0
 26 27  1  0  0  0  0
 28 26  1  0  0  0  0
 29 26  1  0  0  0  0
 30 33  1  0  0  0  0
 30  1  1  0  0  0  0
 31 30  1  0  0  0  0
 32 30  1  0  0  0  0
M  END
>  <MODEL>
4

>  <REMARK>
 VINA RESULT:    -5.509      3.253      6.262
 INTER + INTRA:          -6.687
 INTER:                  -6.469
 INTRA:                  -0.217
 UNBOUND:                -0.211
  Name = 
  4 active torsions:
  status: ('A' for Active; 'I' for Inactive)
    1  A    between atoms: C_1  and  N_2
    2  A    between atoms: N_5  and  C_6
    3  A    between atoms: C_9  and  O_12
    4  A    between atoms: O_12  and  C_13
                            x       y       z     vdW  Elec       q    Type
                         _______ _______ _______ _____ _____    ______ ____

>  <TORSDO>
F 4

$$$$
=
 OpenBabel07192307433D

 33 34  0  0  0  0  0  0  0  0999 V2000
    5.4200    4.3830   17.9360 N   0  0  0  0  0  0  0  0  0  0  0  0
    5.1540    4.9420   19.2790 C   0  0  0  0  0  0  0  0  0  0  0  0
    3.7280    5.5140   19.4560 C   0  0  0  0  0  0  0  0  0  0  0  0
    3.4870    6.6100   18.5010 N   0  0  0  0  0  0  0  0  0  0  0  0
    4.2390    6.5480   17.2350 C   0  0  0  0  0  0  0  0  0  0  0  0
    4.6500    5.0950   16.8950 C   0  0  0  0  0  0  0  0  0  0  0  0
    5.3190    4.1550   20.0240 H   0  0  0  0  0  0  0  0  0  0  0  0
    5.8630    5.7530   19.5020 H   0  0  0  0  0  0  0  0  0  0  0  0
    2.9820    4.7230   19.3090 H   0  0  0  0  0  0  0  0  0  0  0  0
    3.6470    5.8740   20.4880 H   0  0  0  0  0  0  0  0  0  0  0  0
    5.1300    7.1800   17.3090 H   0  0  0  0  0  0  0  0  0  0  0  0
    3.6270    6.9140   16.4010 H   0  0  0  0  0  0  0  0  0  0  0  0
    5.1740    5.0780   15.9320 H   0  0  0  0  0  0  0  0  0  0  0  0
    3.7300    4.5160   16.7360 H   0  0  0  0  0  0  0  0  0  0  0  0
    2.5610    7.6070   18.7470 C   0  0  0  0  0  0  0  0  0  0  0  0
    1.9830    7.7850   20.0130 C   0  0  0  0  0  0  0  0  0  0  0  0
    1.0410    8.7960   20.2630 C   0  0  0  0  0  0  0  0  0  0  0  0
    0.6410    9.6730   19.2520 C   0  0  0  0  0  0  0  0  0  0  0  0
    1.2010    9.5120   17.9880 C   0  0  0  0  0  0  0  0  0  0  0  0
    2.1410    8.4960   17.7470 C   0  0  0  0  0  0  0  0  0  0  0  0
    0.3320    8.9210   22.0250 Br  0  0  0  0  0  0  0  0  0  0  0  0
    2.2440    7.1140   20.8260 H   0  0  0  0  0  0  0  0  0  0  0  0
    0.9400   10.1590   17.1560 H   0  0  0  0  0  0  0  0  0  0  0  0
    2.5610    8.4340   16.7460 H   0  0  0  0  0  0  0  0  0  0  0  0
   -0.2810   10.6310   19.5800 O   0  0  0  0  0  0  0  0  0  0  0  0
   -1.4320   10.7480   18.7560 C   0  0  0  0  0  0  0  0  0  0  0  0
   -2.2460   10.1970   19.2380 H   0  0  0  0  0  0  0  0  0  0  0  0
   -1.2620   10.2970   17.7730 H   0  0  0  0  0  0  0  0  0  0  0  0
   -1.7480   11.7930   18.6630 H   0  0  0  0  0  0  0  0  0  0  0  0
    6.8530    4.3910   17.6530 C   0  0  0  0  0  0  0  0  0  0  0  0
    7.0550    3.9410   16.6750 H   0  0  0  0  0  0  0  0  0  0  0  0
    7.4280    3.8450   18.4110 H   0  0  0  0  0  0  0  0  0  0  0  0
    7.2290    5.4190   17.6100 H   0  0  0  0  0  0  0  0  0  0  0  0
  1  2  1  0  0  0  0
  2  3  1  0  0  0  0
  2  8  1  0  0  0  0
  2  7  1  0  0  0  0
  3 10  1  0  0  0  0
  4 15  1  0  0  0  0
  4  3  1  0  0  0  0
  5 11  1  0  0  0  0
  5  4  1  0  0  0  0
  6  5  1  0  0  0  0
  6  1  1  0  0  0  0
  9  3  1  0  0  0  0
 12  5  1  0  0  0  0
 13  6  1  0  0  0  0
 14  6  1  0  0  0  0
 15 16  1  0  0  0  0
 16 17  2  0  0  0  0
 16 22  1  0  0  0  0
 17 21  1  0  0  0  0
 18 25  1  0  0  0  0
 18 17  1  0  0  0  0
 19 18  2  0  0  0  0
 20 19  1  0  0  0  0
 20 15  2  0  0  0  0
 23 19  1  0  0  0  0
 24 20  1  0  0  0  0
 26 27  1  0  0  0  0
 26 25  1  0  0  0  0
 28 26  1  0  0  0  0
 29 26  1  0  0  0  0
 30  1  1  0  0  0  0
 30 32  1  0  0  0  0
 31 30  1  0  0  0  0
 33 30  1  0  0  0  0
M  END
>  <MODEL>
5

>  <REMARK>
 VINA RESULT:    -5.401      3.358      6.172
 INTER + INTRA:          -6.559
 INTER:                  -6.324
 INTRA:                  -0.235
 UNBOUND:                -0.211
  Name = 
  4 active torsions:
  status: ('A' for Active; 'I' for Inactive)
    1  A    between atoms: C_1  and  N_2
    2  A    between atoms: N_5  and  C_6
    3  A    between atoms: C_9  and  O_12
    4  A    between atoms: O_12  and  C_13
                            x       y       z     vdW  Elec       q    Type
                         _______ _______ _______ _____ _____    ______ ____

>  <TORSDO>
F 4

$$$$
=
 OpenBabel07192307433D

 33 34  0  0  0  0  0  0  0  0999 V2000
    0.8540   10.7410   18.9920 N   0  0  0  0  0  0  0  0  0  0  0  0
    1.9810   10.3170   18.1330 C   0  0  0  0  0  0  0  0  0  0  0  0
    1.9750    8.8130   17.7750 C   0  0  0  0  0  0  0  0  0  0  0  0
    2.0580    7.9910   18.9940 N   0  0  0  0  0  0  0  0  0  0  0  0
    1.5010    8.5850   20.2210 C   0  0  0  0  0  0  0  0  0  0  0  0
    0.4260    9.6500   19.8930 C   0  0  0  0  0  0  0  0  0  0  0  0
    1.9550   10.9060   17.2080 H   0  0  0  0  0  0  0  0  0  0  0  0
    2.9390   10.5340   18.6260 H   0  0  0  0  0  0  0  0  0  0  0  0
    1.0640    8.5600   17.2180 H   0  0  0  0  0  0  0  0  0  0  0  0
    2.8370    8.6300   17.1230 H   0  0  0  0  0  0  0  0  0  0  0  0
    2.3090    9.0390   20.8060 H   0  0  0  0  0  0  0  0  0  0  0  0
    1.0180    7.8190   20.8410 H   0  0  0  0  0  0  0  0  0  0  0  0
    0.0060   10.0460   20.8250 H   0  0  0  0  0  0  0  0  0  0  0  0
   -0.4070    9.1390   19.3910 H   0  0  0  0  0  0  0  0  0  0  0  0
    2.5720    6.7060   18.9780 C   0  0  0  0  0  0  0  0  0  0  0  0
    3.3920    6.2500   17.9360 C   0  0  0  0  0  0  0  0  0  0  0  0
    3.9120    4.9450   17.9180 C   0  0  0  0  0  0  0  0  0  0  0  0
    3.6320    4.0440   18.9490 C   0  0  0  0  0  0  0  0  0  0  0  0
    2.8180    4.4780   19.9920 C   0  0  0  0  0  0  0  0  0  0  0  0
    2.3010    5.7840   19.9990 C   0  0  0  0  0  0  0  0  0  0  0  0
    5.0050    4.4540   16.4390 Br  0  0  0  0  0  0  0  0  0  0  0  0
    3.6190    6.9040   17.1000 H   0  0  0  0  0  0  0  0  0  0  0  0
    2.5630    3.8340   20.8280 H   0  0  0  0  0  0  0  0  0  0  0  0
    1.6910    6.0720   20.8520 H   0  0  0  0  0  0  0  0  0  0  0  0
    4.1790    2.7930   18.8550 O   0  0  0  0  0  0  0  0  0  0  0  0
    3.3170    1.7210   18.5020 C   0  0  0  0  0  0  0  0  0  0  0  0
    2.9530    1.9050   17.4860 H   0  0  0  0  0  0  0  0  0  0  0  0
    2.4460    1.6790   19.1640 H   0  0  0  0  0  0  0  0  0  0  0  0
    3.8540    0.7660   18.4940 H   0  0  0  0  0  0  0  0  0  0  0  0
    1.2000   11.9520   19.7310 C   0  0  0  0  0  0  0  0  0  0  0  0
    2.2400   12.2370   19.5370 H   0  0  0  0  0  0  0  0  0  0  0  0
    1.0700   11.8290   20.8130 H   0  0  0  0  0  0  0  0  0  0  0  0
    0.5780   12.7920   19.4030 H   0  0  0  0  0  0  0  0  0  0  0  0
  1 30  1  0  0  0  0
  1  6  1  0  0  0  0
  2  8  1  0  0  0  0
  2  1  1  0  0  0  0
  3  2  1  0  0  0  0
  3  4  1  0  0  0  0
  4  5  1  0  0  0  0
  5 11  1  0  0  0  0
  5 12  1  0  0  0  0
  6  5  1  0  0  0  0
  6 13  1  0  0  0  0
  7  2  1  0  0  0  0
  9  3  1  0  0  0  0
 10  3  1  0  0  0  0
 14  6  1  0  0  0  0
 15  4  1  0  0  0  0
 15 20  1  0  0  0  0
 16 15  2  0  0  0  0
 17 16  1  0  0  0  0
 17 18  2  0  0  0  0
 18 19  1  0  0  0  0
 19 20  2  0  0  0  0
 19 23  1  0  0  0  0
 20 24  1  0  0  0  0
 21 17  1  0  0  0  0
 22 16  1  0  0  0  0
 25 18  1  0  0  0  0
 26 25  1  0  0  0  0
 26 28  1  0  0  0  0
 27 26  1  0  0  0  0
 29 26  1  0  0  0  0
 30 32  1  0  0  0  0
 31 30  1  0  0  0  0
 33 30  1  0  0  0  0
M  END
>  <MODEL>
6

>  <REMARK>
 VINA RESULT:    -5.350      1.515      1.926
 INTER + INTRA:          -6.499
 INTER:                  -6.266
 INTRA:                  -0.233
 UNBOUND:                -0.211
  Name = 
  4 active torsions:
  status: ('A' for Active; 'I' for Inactive)
    1  A    between atoms: C_1  and  N_2
    2  A    between atoms: N_5  and  C_6
    3  A    between atoms: C_9  and  O_12
    4  A    between atoms: O_12  and  C_13
                            x       y       z     vdW  Elec       q    Type
                         _______ _______ _______ _____ _____    ______ ____

>  <TORSDO>
F 4

$$$$
=
 OpenBabel07192307433D

 33 34  0  0  0  0  0  0  0  0999 V2000
    6.4170    4.4140   14.5720 N   0  0  0  0  0  0  0  0  0  0  0  0
    5.6500    5.6780   14.5540 C   0  0  0  0  0  0  0  0  0  0  0  0
    5.3640    6.2670   15.9550 C   0  0  0  0  0  0  0  0  0  0  0  0
    4.5740    5.3200   16.7620 N   0  0  0  0  0  0  0  0  0  0  0  0
    4.7480    3.8910   16.4470 C   0  0  0  0  0  0  0  0  0  0  0  0
    6.1220    3.6240   15.7860 C   0  0  0  0  0  0  0  0  0  0  0  0
    6.2060    6.4160   13.9620 H   0  0  0  0  0  0  0  0  0  0  0  0
    4.6810    5.5300   14.0550 H   0  0  0  0  0  0  0  0  0  0  0  0
    6.3060    6.4960   16.4690 H   0  0  0  0  0  0  0  0  0  0  0  0
    4.8150    7.2040   15.8090 H   0  0  0  0  0  0  0  0  0  0  0  0
    3.9430    3.5640   15.7800 H   0  0  0  0  0  0  0  0  0  0  0  0
    4.7050    3.2840   17.3600 H   0  0  0  0  0  0  0  0  0  0  0  0
    6.2350    2.5500   15.5980 H   0  0  0  0  0  0  0  0  0  0  0  0
    6.9000    3.8760   16.5190 H   0  0  0  0  0  0  0  0  0  0  0  0
    3.7620    5.7420   17.8000 C   0  0  0  0  0  0  0  0  0  0  0  0
    3.3490    4.8700   18.8180 C   0  0  0  0  0  0  0  0  0  0  0  0
    2.5230    5.2970   19.8700 C   0  0  0  0  0  0  0  0  0  0  0  0
    2.0780    6.6200   19.9450 C   0  0  0  0  0  0  0  0  0  0  0  0
    2.4750    7.5000   18.9430 C   0  0  0  0  0  0  0  0  0  0  0  0
    3.3000    7.0630   17.8940 C   0  0  0  0  0  0  0  0  0  0  0  0
    2.0330    4.0080   21.1830 Br  0  0  0  0  0  0  0  0  0  0  0  0
    3.6490    3.8270   18.7920 H   0  0  0  0  0  0  0  0  0  0  0  0
    2.1720    8.5420   18.9390 H   0  0  0  0  0  0  0  0  0  0  0  0
    3.5960    7.8010   17.1520 H   0  0  0  0  0  0  0  0  0  0  0  0
    1.2770    6.9530   21.0040 O   0  0  0  0  0  0  0  0  0  0  0  0
    1.1380    8.3330   21.3170 C   0  0  0  0  0  0  0  0  0  0  0  0
    0.1320    8.6430   21.0190 H   0  0  0  0  0  0  0  0  0  0  0  0
    1.8530    8.9400   20.7520 H   0  0  0  0  0  0  0  0  0  0  0  0
    1.2340    8.5060   22.3940 H   0  0  0  0  0  0  0  0  0  0  0  0
    6.1710    3.6490   13.3520 C   0  0  0  0  0  0  0  0  0  0  0  0
    5.8140    4.3050   12.5510 H   0  0  0  0  0  0  0  0  0  0  0  0
    5.4330    2.8520   13.5040 H   0  0  0  0  0  0  0  0  0  0  0  0
    7.1010    3.1930   12.9930 H   0  0  0  0  0  0  0  0  0  0  0  0
  1  6  1  0  0  0  0
  2  1  1  0  0  0  0
  2  3  1  0  0  0  0
  3  9  1  0  0  0  0
  3  4  1  0  0  0  0
  4 15  1  0  0  0  0
  5  4  1  0  0  0  0
  5 12  1  0  0  0  0
  6  5  1  0  0  0  0
  6 14  1  0  0  0  0
  7  2  1  0  0  0  0
  8  2  1  0  0  0  0
 10  3  1  0  0  0  0
 11  5  1  0  0  0  0
 13  6  1  0  0  0  0
 15 20  2  0  0  0  0
 15 16  1  0  0  0  0
 16 17  2  0  0  0  0
 17 18  1  0  0  0  0
 17 21  1  0  0  0  0
 18 25  1  0  0  0  0
 19 18  2  0  0  0  0
 20 19  1  0  0  0  0
 22 16  1  0  0  0  0
 23 19  1  0  0  0  0
 24 20  1  0  0  0  0
 25 26  1  0  0  0  0
 26 29  1  0  0  0  0
 27 26  1  0  0  0  0
 28 26  1  0  0  0  0
 30 32  1  0  0  0  0
 30  1  1  0  0  0  0
 31 30  1  0  0  0  0
 33 30  1  0  0  0  0
M  END
>  <MODEL>
7

>  <REMARK>
 VINA RESULT:    -5.309      3.315      5.898
 INTER + INTRA:          -6.450
 INTER:                  -6.226
 INTRA:                  -0.224
 UNBOUND:                -0.211
  Name = 
  4 active torsions:
  status: ('A' for Active; 'I' for Inactive)
    1  A    between atoms: C_1  and  N_2
    2  A    between atoms: N_5  and  C_6
    3  A    between atoms: C_9  and  O_12
    4  A    between atoms: O_12  and  C_13
                            x       y       z     vdW  Elec       q    Type
                         _______ _______ _______ _____ _____    ______ ____

>  <TORSDO>
F 4

$$$$
=
 OpenBabel07192307433D

 33 34  0  0  0  0  0  0  0  0999 V2000
    0.8960   10.6660   19.1470 N   0  0  0  0  0  0  0  0  0  0  0  0
    0.4960    9.5670   20.0520 C   0  0  0  0  0  0  0  0  0  0  0  0
    1.6030    8.5170   20.3030 C   0  0  0  0  0  0  0  0  0  0  0  0
    2.0090    7.8800   19.0380 N   0  0  0  0  0  0  0  0  0  0  0  0
    1.8540    8.6930   17.8190 C   0  0  0  0  0  0  0  0  0  0  0  0
    1.8810   10.2060   18.1450 C   0  0  0  0  0  0  0  0  0  0  0  0
    0.1870    9.9990   21.0110 H   0  0  0  0  0  0  0  0  0  0  0  0
   -0.3750    9.0350   19.6420 H   0  0  0  0  0  0  0  0  0  0  0  0
    2.4730    8.9900   20.7760 H   0  0  0  0  0  0  0  0  0  0  0  0
    1.1960    7.7740   20.9990 H   0  0  0  0  0  0  0  0  0  0  0  0
    0.9110    8.4340   17.3250 H   0  0  0  0  0  0  0  0  0  0  0  0
    2.6740    8.4990   17.1160 H   0  0  0  0  0  0  0  0  0  0  0  0
    1.8000   10.7820   17.2160 H   0  0  0  0  0  0  0  0  0  0  0  0
    2.8740   10.4420   18.5500 H   0  0  0  0  0  0  0  0  0  0  0  0
    2.5630    6.6130   19.0010 C   0  0  0  0  0  0  0  0  0  0  0  0
    3.3660    6.1870   17.9330 C   0  0  0  0  0  0  0  0  0  0  0  0
    3.9280    4.9010   17.8930 C   0  0  0  0  0  0  0  0  0  0  0  0
    3.7070    3.9860   18.9270 C   0  0  0  0  0  0  0  0  0  0  0  0
    2.9100    4.3890   19.9960 C   0  0  0  0  0  0  0  0  0  0  0  0
    2.3520    5.6770   20.0240 C   0  0  0  0  0  0  0  0  0  0  0  0
    4.9930    4.4510   16.3810 Br  0  0  0  0  0  0  0  0  0  0  0  0
    3.5480    6.8520   17.0940 H   0  0  0  0  0  0  0  0  0  0  0  0
    2.7000    3.7340   20.8350 H   0  0  0  0  0  0  0  0  0  0  0  0
    1.7570    5.9420   20.8960 H   0  0  0  0  0  0  0  0  0  0  0  0
    4.2920    2.7540   18.8110 O   0  0  0  0  0  0  0  0  0  0  0  0
    3.4470    1.6490   18.5200 C   0  0  0  0  0  0  0  0  0  0  0  0
    2.9650    1.3420   19.4530 H   0  0  0  0  0  0  0  0  0  0  0  0
    4.0260    0.7970   18.1490 H   0  0  0  0  0  0  0  0  0  0  0  0
    2.6580    1.9290   17.8150 H   0  0  0  0  0  0  0  0  0  0  0  0
   -0.2780   11.2670   18.5200 C   0  0  0  0  0  0  0  0  0  0  0  0
   -0.5320   12.2150   19.0070 H   0  0  0  0  0  0  0  0  0  0  0  0
   -1.1530   10.6090   18.5630 H   0  0  0  0  0  0  0  0  0  0  0  0
   -0.0740   11.5000   17.4690 H   0  0  0  0  0  0  0  0  0  0  0  0
  1  2  1  0  0  0  0
  2  3  1  0  0  0  0
  2  7  1  0  0  0  0
  3  9  1  0  0  0  0
  3 10  1  0  0  0  0
  4  3  1  0  0  0  0
  5  6  1  0  0  0  0
  5  4  1  0  0  0  0
  6 14  1  0  0  0  0
  6  1  1  0  0  0  0
  8  2  1  0  0  0  0
 11  5  1  0  0  0  0
 12  5  1  0  0  0  0
 13  6  1  0  0  0  0
 15  4  1  0  0  0  0
 15 20  1  0  0  0  0
 16 15  2  0  0  0  0
 17 16  1  0  0  0  0
 17 18  2  0  0  0  0
 18 19  1  0  0  0  0
 19 20  2  0  0  0  0
 19 23  1  0  0  0  0
 20 24  1  0  0  0  0
 21 17  1  0  0  0  0
 22 16  1  0  0  0  0
 25 18  1  0  0  0  0
 26 25  1  0  0  0  0
 26 27  1  0  0  0  0
 28 26  1  0  0  0  0
 29 26  1  0  0  0  0
 30 32  1  0  0  0  0
 30 31  1  0  0  0  0
 30  1  1  0  0  0  0
 33 30  1  0  0  0  0
M  END
>  <MODEL>
8

>  <REMARK>
 VINA RESULT:    -5.304      1.610      2.350
 INTER + INTRA:          -6.445
 INTER:                  -6.207
 INTRA:                  -0.237
 UNBOUND:                -0.211
  Name = 
  4 active torsions:
  status: ('A' for Active; 'I' for Inactive)
    1  A    between atoms: C_1  and  N_2
    2  A    between atoms: N_5  and  C_6
    3  A    between atoms: C_9  and  O_12
    4  A    between atoms: O_12  and  C_13
                            x       y       z     vdW  Elec       q    Type
                         _______ _______ _______ _____ _____    ______ ____

>  <TORSDO>
F 4

$$$$
=
 OpenBabel07192307433D

 33 34  0  0  0  0  0  0  0  0999 V2000
    0.5410   10.0530   19.8180 N   0  0  0  0  0  0  0  0  0  0  0  0
    1.4110   10.2100   18.6320 C   0  0  0  0  0  0  0  0  0  0  0  0
    1.5990    8.9160   17.8070 C   0  0  0  0  0  0  0  0  0  0  0  0
    2.2160    7.8620   18.6310 N   0  0  0  0  0  0  0  0  0  0  0  0
    1.9530    7.9290   20.0800 C   0  0  0  0  0  0  0  0  0  0  0  0
    0.6390    8.6890   20.3780 C   0  0  0  0  0  0  0  0  0  0  0  0
    0.9850   10.9880   17.9870 H   0  0  0  0  0  0  0  0  0  0  0  0
    2.4110   10.5550   18.9360 H   0  0  0  0  0  0  0  0  0  0  0  0
    0.6320    8.5690   17.4230 H   0  0  0  0  0  0  0  0  0  0  0  0
    2.2390    9.1650   16.9520 H   0  0  0  0  0  0  0  0  0  0  0  0
    2.7930    8.4250   20.5800 H   0  0  0  0  0  0  0  0  0  0  0  0
    1.8490    6.9220   20.5030 H   0  0  0  0  0  0  0  0  0  0  0  0
    0.4530    8.6900   21.4590 H   0  0  0  0  0  0  0  0  0  0  0  0
   -0.1870    8.1110   19.9410 H   0  0  0  0  0  0  0  0  0  0  0  0
    2.9490    6.8300   18.0730 C   0  0  0  0  0  0  0  0  0  0  0  0
    2.5120    5.4980   18.1290 C   0  0  0  0  0  0  0  0  0  0  0  0
    3.2560    4.4490   17.5640 C   0  0  0  0  0  0  0  0  0  0  0  0
    4.4710    4.6950   16.9180 C   0  0  0  0  0  0  0  0  0  0  0  0
    4.9230    6.0100   16.8540 C   0  0  0  0  0  0  0  0  0  0  0  0
    4.1720    7.0520   17.4240 C   0  0  0  0  0  0  0  0  0  0  0  0
    2.5510    2.6880   17.7170 Br  0  0  0  0  0  0  0  0  0  0  0  0
    1.5870    5.2530   18.6400 H   0  0  0  0  0  0  0  0  0  0  0  0
    5.8540    6.2750   16.3640 H   0  0  0  0  0  0  0  0  0  0  0  0
    4.5640    8.0610   17.3220 H   0  0  0  0  0  0  0  0  0  0  0  0
    5.1330    3.6170   16.3940 O   0  0  0  0  0  0  0  0  0  0  0  0
    6.0440    3.8560   15.3310 C   0  0  0  0  0  0  0  0  0  0  0  0
    6.3210    2.8870   14.9030 H   0  0  0  0  0  0  0  0  0  0  0  0
    6.9610    4.3320   15.6950 H   0  0  0  0  0  0  0  0  0  0  0  0
    5.5790    4.4490   14.5360 H   0  0  0  0  0  0  0  0  0  0  0  0
    0.8460   11.0750   20.8160 C   0  0  0  0  0  0  0  0  0  0  0  0
   -0.0300   11.2730   21.4440 H   0  0  0  0  0  0  0  0  0  0  0  0
    1.1660   12.0180   20.3590 H   0  0  0  0  0  0  0  0  0  0  0  0
    1.6410   10.7300   21.4860 H   0  0  0  0  0  0  0  0  0  0  0  0
  1  6  1  0  0  0  0
  1 30  1  0  0  0  0
  2  8  1  0  0  0  0
  2  1  1  0  0  0  0
  3  4  1  0  0  0  0
  3  2  1  0  0  0  0
  4  5  1  0  0  0  0
  5  6  1  0  0  0  0
  5 12  1  0  0  0  0
  5 11  1  0  0  0  0
  6 13  1  0  0  0  0
  7  2  1  0  0  0  0
  9  3  1  0  0  0  0
 10  3  1  0  0  0  0
 14  6  1  0  0  0  0
 15 16  1  0  0  0  0
 15  4  1  0  0  0  0
 16 22  1  0  0  0  0
 17 21  1  0  0  0  0
 17 16  2  0  0  0  0
 18 17  1  0  0  0  0
 19 18  2  0  0  0  0
 19 20  1  0  0  0  0
 20 15  2  0  0  0  0
 23 19  1  0  0  0  0
 24 20  1  0  0  0  0
 25 18  1  0  0  0  0
 26 28  1  0  0  0  0
 26 25  1  0  0  0  0
 27 26  1  0  0  0  0
 29 26  1  0  0  0  0
 30 31  1  0  0  0  0
 30 33  1  0  0  0  0
 32 30  1  0  0  0  0
M  END
>  <MODEL>
9

>  <REMARK>
 VINA RESULT:    -5.288      1.857      2.181
 INTER + INTRA:          -6.426
 INTER:                  -6.218
 INTRA:                  -0.208
 UNBOUND:                -0.211
  Name = 
  4 active torsions:
  status: ('A' for Active; 'I' for Inactive)
    1  A    between atoms: C_1  and  N_2
    2  A    between atoms: N_5  and  C_6
    3  A    between atoms: C_9  and  O_12
    4  A    between atoms: O_12  and  C_13
                            x       y       z     vdW  Elec       q    Type
                         _______ _______ _______ _____ _____    ______ ____

>  <TORSDO>
F 4

$$$$
=
 OpenBabel07192307433D

 33 34  0  0  0  0  0  0  0  0999 V2000
    0.6770   10.0680   19.8580 N   0  0  0  0  0  0  0  0  0  0  0  0
    0.6740    8.6750   20.3530 C   0  0  0  0  0  0  0  0  0  0  0  0
    1.9780    7.8960   20.0640 C   0  0  0  0  0  0  0  0  0  0  0  0
    2.2210    7.8140   18.6130 N   0  0  0  0  0  0  0  0  0  0  0  0
    1.6760    8.9140   17.7970 C   0  0  0  0  0  0  0  0  0  0  0  0
    1.4990   10.2020   18.6370 C   0  0  0  0  0  0  0  0  0  0  0  0
    0.4980    8.6890   21.4350 H   0  0  0  0  0  0  0  0  0  0  0  0
   -0.1540    8.1110   19.8990 H   0  0  0  0  0  0  0  0  0  0  0  0
    2.8280    8.3850   20.5550 H   0  0  0  0  0  0  0  0  0  0  0  0
    1.8630    6.8950   20.4950 H   0  0  0  0  0  0  0  0  0  0  0  0
    0.7130    8.6100   17.3720 H   0  0  0  0  0  0  0  0  0  0  0  0
    2.3540    9.1580   16.9700 H   0  0  0  0  0  0  0  0  0  0  0  0
    1.1270   11.0100   17.9950 H   0  0  0  0  0  0  0  0  0  0  0  0
    2.4960   10.5260   18.9650 H   0  0  0  0  0  0  0  0  0  0  0  0
    2.9720    6.7970   18.0510 C   0  0  0  0  0  0  0  0  0  0  0  0
    2.5800    5.4540   18.1340 C   0  0  0  0  0  0  0  0  0  0  0  0
    3.3440    4.4210   17.5670 C   0  0  0  0  0  0  0  0  0  0  0  0
    4.5350    4.6950   16.8890 C   0  0  0  0  0  0  0  0  0  0  0  0
    4.9440    6.0230   16.7980 C   0  0  0  0  0  0  0  0  0  0  0  0
    4.1730    7.0480   17.3710 C   0  0  0  0  0  0  0  0  0  0  0  0
    2.6970    2.6410   17.7590 Br  0  0  0  0  0  0  0  0  0  0  0  0
    1.6740    5.1870   18.6700 H   0  0  0  0  0  0  0  0  0  0  0  0
    5.8550    6.3100   16.2840 H   0  0  0  0  0  0  0  0  0  0  0  0
    4.5310    8.0670   17.2480 H   0  0  0  0  0  0  0  0  0  0  0  0
    5.2180    3.6310   16.3650 O   0  0  0  0  0  0  0  0  0  0  0  0
    6.0560    3.8740   15.2430 C   0  0  0  0  0  0  0  0  0  0  0  0
    6.6870    2.9910   15.1000 H   0  0  0  0  0  0  0  0  0  0  0  0
    6.7160    4.7290   15.4210 H   0  0  0  0  0  0  0  0  0  0  0  0
    5.4660    4.0120   14.3310 H   0  0  0  0  0  0  0  0  0  0  0  0
   -0.6890   10.5400   19.6480 C   0  0  0  0  0  0  0  0  0  0  0  0
   -1.0190   10.3220   18.6270 H   0  0  0  0  0  0  0  0  0  0  0  0
   -0.7870   11.6180   19.8220 H   0  0  0  0  0  0  0  0  0  0  0  0
   -1.3810   10.0200   20.3200 H   0  0  0  0  0  0  0  0  0  0  0  0
  1  2  1  0  0  0  0
  2  7  1  0  0  0  0
  3  2  1  0  0  0  0
  3 10  1  0  0  0  0
  3  9  1  0  0  0  0
  4  3  1  0  0  0  0
  5  4  1  0  0  0  0
  5  6  1  0  0  0  0
  6 14  1  0  0  0  0
  6  1  1  0  0  0  0
  8  2  1  0  0  0  0
 11  5  1  0  0  0  0
 12  5  1  0  0  0  0
 13  6  1  0  0  0  0
 15 16  1  0  0  0  0
 15  4  1  0  0  0  0
 16 22  1  0  0  0  0
 17 21  1  0  0  0  0
 17 16  2  0  0  0  0
 18 17  1  0  0  0  0
 19 18  2  0  0  0  0
 19 20  1  0  0  0  0
 20 15  2  0  0  0  0
 23 19  1  0  0  0  0
 24 20  1  0  0  0  0
 25 18  1  0  0  0  0
 26 28  1  0  0  0  0
 26 25  1  0  0  0  0
 27 26  1  0  0  0  0
 29 26  1  0  0  0  0
 30 32  1  0  0  0  0
 30  1  1  0  0  0  0
 30 33  1  0  0  0  0
 31 30  1  0  0  0  0
M  END
>  <MODEL>
10

>  <REMARK>
 VINA RESULT:    -5.280      1.877      2.536
 INTER + INTRA:          -6.417
 INTER:                  -6.206
 INTRA:                  -0.211
 UNBOUND:                -0.211
  Name = 
  4 active torsions:
  status: ('A' for Active; 'I' for Inactive)
    1  A    between atoms: C_1  and  N_2
    2  A    between atoms: N_5  and  C_6
    3  A    between atoms: C_9  and  O_12
    4  A    between atoms: O_12  and  C_13
                            x       y       z     vdW  Elec       q    Type
                         _______ _______ _______ _____ _____    ______ ____

>  <TORSDO>
F 4

$$$$
=
 OpenBabel07192307433D

 33 34  0  0  0  0  0  0  0  0999 V2000
    0.3100   10.8300   20.5290 N   0  0  0  0  0  0  0  0  0  0  0  0
    0.0480    9.5820   21.2780 C   0  0  0  0  0  0  0  0  0  0  0  0
    1.2290    8.5840   21.2810 C   0  0  0  0  0  0  0  0  0  0  0  0
    1.5640    8.1740   19.9060 N   0  0  0  0  0  0  0  0  0  0  0  0
    1.2640    9.1500   18.8430 C   0  0  0  0  0  0  0  0  0  0  0  0
    1.2320   10.5940   19.3980 C   0  0  0  0  0  0  0  0  0  0  0  0
   -0.2040    9.8420   22.3130 H   0  0  0  0  0  0  0  0  0  0  0  0
   -0.8230    9.0600   20.8560 H   0  0  0  0  0  0  0  0  0  0  0  0
    2.1070    9.0390   21.7570 H   0  0  0  0  0  0  0  0  0  0  0  0
    0.9240    7.7190   21.8800 H   0  0  0  0  0  0  0  0  0  0  0  0
    0.2990    8.9050   18.3850 H   0  0  0  0  0  0  0  0  0  0  0  0
    2.0320    9.1210   18.0600 H   0  0  0  0  0  0  0  0  0  0  0  0
    1.0420   11.2980   18.5790 H   0  0  0  0  0  0  0  0  0  0  0  0
    2.2400   10.8340   19.7620 H   0  0  0  0  0  0  0  0  0  0  0  0
    2.1830    6.9680   19.6310 C   0  0  0  0  0  0  0  0  0  0  0  0
    1.9900    5.8360   20.4350 C   0  0  0  0  0  0  0  0  0  0  0  0
    2.6210    4.6120   20.1570 C   0  0  0  0  0  0  0  0  0  0  0  0
    3.4730    4.4740   19.0580 C   0  0  0  0  0  0  0  0  0  0  0  0
    3.6800    5.5880   18.2480 C   0  0  0  0  0  0  0  0  0  0  0  0
    3.0450    6.8080   18.5360 C   0  0  0  0  0  0  0  0  0  0  0  0
    2.2750    3.1570   21.3340 Br  0  0  0  0  0  0  0  0  0  0  0  0
    1.3560    5.8980   21.3140 H   0  0  0  0  0  0  0  0  0  0  0  0
    4.3240    5.5530   17.3760 H   0  0  0  0  0  0  0  0  0  0  0  0
    3.2280    7.6360   17.8550 H   0  0  0  0  0  0  0  0  0  0  0  0
    4.0460    3.2470   18.8580 O   0  0  0  0  0  0  0  0  0  0  0  0
    3.5000    2.4230   17.8370 C   0  0  0  0  0  0  0  0  0  0  0  0
    2.8590    3.0500   17.2080 H   0  0  0  0  0  0  0  0  0  0  0  0
    2.8750    1.6300   18.2610 H   0  0  0  0  0  0  0  0  0  0  0  0
    4.2880    2.0090   17.1990 H   0  0  0  0  0  0  0  0  0  0  0  0
   -0.9440   11.4370   20.0910 C   0  0  0  0  0  0  0  0  0  0  0  0
   -1.4370   11.9470   20.9260 H   0  0  0  0  0  0  0  0  0  0  0  0
   -1.6400   10.6990   19.6760 H   0  0  0  0  0  0  0  0  0  0  0  0
   -0.7540   12.1990   19.3260 H   0  0  0  0  0  0  0  0  0  0  0  0
  1  2  1  0  0  0  0
  2  3  1  0  0  0  0
  2  7  1  0  0  0  0
  3  9  1  0  0  0  0
  3 10  1  0  0  0  0
  4  3  1  0  0  0  0
  5  6  1  0  0  0  0
  5  4  1  0  0  0  0
  6 14  1  0  0  0  0
  6  1  1  0  0  0  0
  8  2  1  0  0  0  0
 11  5  1  0  0  0  0
 12  5  1  0  0  0  0
 13  6  1  0  0  0  0
 15  4  1  0  0  0  0
 15 16  1  0  0  0  0
 16 22  1  0  0  0  0
 17 16  2  0  0  0  0
 17 21  1  0  0  0  0
 18 17  1  0  0  0  0
 19 20  1  0  0  0  0
 19 18  2  0  0  0  0
 20 15  2  0  0  0  0
 23 19  1  0  0  0  0
 24 20  1  0  0  0  0
 25 18  1  0  0  0  0
 26 28  1  0  0  0  0
 26 25  1  0  0  0  0
 27 26  1  0  0  0  0
 29 26  1  0  0  0  0
 30  1  1  0  0  0  0
 30 31  1  0  0  0  0
 32 30  1  0  0  0  0
 33 30  1  0  0  0  0
M  END
>  <MODEL>
11

>  <REMARK>
 VINA RESULT:    -5.215      1.093      1.659
 INTER + INTRA:          -6.340
 INTER:                  -6.117
 INTRA:                  -0.223
 UNBOUND:                -0.211
  Name = 
  4 active torsions:
  status: ('A' for Active; 'I' for Inactive)
    1  A    between atoms: C_1  and  N_2
    2  A    between atoms: N_5  and  C_6
    3  A    between atoms: C_9  and  O_12
    4  A    between atoms: O_12  and  C_13
                            x       y       z     vdW  Elec       q    Type
                         _______ _______ _______ _____ _____    ______ ____

>  <TORSDO>
F 4

$$$$
=
 OpenBabel07192307433D

 33 34  0  0  0  0  0  0  0  0999 V2000
    7.9490    7.5560   17.5340 N   0  0  0  0  0  0  0  0  0  0  0  0
    7.9430    6.6520   18.7040 C   0  0  0  0  0  0  0  0  0  0  0  0
    7.1980    5.3180   18.4710 C   0  0  0  0  0  0  0  0  0  0  0  0
    5.7840    5.5660   18.1380 N   0  0  0  0  0  0  0  0  0  0  0  0
    5.4860    6.8460   17.4720 C   0  0  0  0  0  0  0  0  0  0  0  0
    6.7250    7.3910   16.7220 C   0  0  0  0  0  0  0  0  0  0  0  0
    8.9810    6.4390   18.9860 H   0  0  0  0  0  0  0  0  0  0  0  0
    7.4700    7.1470   19.5650 H   0  0  0  0  0  0  0  0  0  0  0  0
    7.6770    4.7530   17.6620 H   0  0  0  0  0  0  0  0  0  0  0  0
    7.2820    4.7320   19.3940 H   0  0  0  0  0  0  0  0  0  0  0  0
    5.1500    7.5750   18.2170 H   0  0  0  0  0  0  0  0  0  0  0  0
    4.6880    6.7210   16.7300 H   0  0  0  0  0  0  0  0  0  0  0  0
    6.4610    8.3240   16.2080 H   0  0  0  0  0  0  0  0  0  0  0  0
    6.9730    6.6780   15.9240 H   0  0  0  0  0  0  0  0  0  0  0  0
    4.7980    4.6250   18.3770 C   0  0  0  0  0  0  0  0  0  0  0  0
    4.0900    4.5860   19.5870 C   0  0  0  0  0  0  0  0  0  0  0  0
    3.0910    3.6290   19.8310 C   0  0  0  0  0  0  0  0  0  0  0  0
    2.7600    2.6710   18.8680 C   0  0  0  0  0  0  0  0  0  0  0  0
    3.4540    2.6920   17.6610 C   0  0  0  0  0  0  0  0  0  0  0  0
    4.4530    3.6520   17.4280 C   0  0  0  0  0  0  0  0  0  0  0  0
    2.2130    3.6850   21.5190 Br  0  0  0  0  0  0  0  0  0  0  0  0
    4.3260    5.2930   20.3760 H   0  0  0  0  0  0  0  0  0  0  0  0
    3.2470    1.9820   16.8670 H   0  0  0  0  0  0  0  0  0  0  0  0
    4.9440    3.6320   16.4580 H   0  0  0  0  0  0  0  0  0  0  0  0
    1.7740    1.7760   19.1860 O   0  0  0  0  0  0  0  0  0  0  0  0
    0.4440    2.0990   18.8040 C   0  0  0  0  0  0  0  0  0  0  0  0
   -0.0810    2.4610   19.6930 H   0  0  0  0  0  0  0  0  0  0  0  0
   -0.0880    1.2130   18.4410 H   0  0  0  0  0  0  0  0  0  0  0  0
    0.4300    2.9030   18.0600 H   0  0  0  0  0  0  0  0  0  0  0  0
    8.1390    8.9410   17.9570 C   0  0  0  0  0  0  0  0  0  0  0  0
    8.1800    9.6070   17.0880 H   0  0  0  0  0  0  0  0  0  0  0  0
    9.0580    9.0740   18.5400 H   0  0  0  0  0  0  0  0  0  0  0  0
    7.2930    9.2740   18.5680 H   0  0  0  0  0  0  0  0  0  0  0  0
  1 30  1  0  0  0  0
  1  2  1  0  0  0  0
  2  7  1  0  0  0  0
  2  8  1  0  0  0  0
  3  2  1  0  0  0  0
  3 10  1  0  0  0  0
  4 15  1  0  0  0  0
  4  3  1  0  0  0  0
  5  4  1  0  0  0  0
  5 11  1  0  0  0  0
  6  5  1  0  0  0  0
  6  1  1  0  0  0  0
  9  3  1  0  0  0  0
 12  5  1  0  0  0  0
 13  6  1  0  0  0  0
 14  6  1  0  0  0  0
 15 16  1  0  0  0  0
 16 17  2  0  0  0  0
 16 22  1  0  0  0  0
 17 21  1  0  0  0  0
 18 25  1  0  0  0  0
 18 17  1  0  0  0  0
 19 18  2  0  0  0  0
 20 19  1  0  0  0  0
 20 15  2  0  0  0  0
 23 19  1  0  0  0  0
 24 20  1  0  0  0  0
 26 25  1  0  0  0  0
 26 27  1  0  0  0  0
 28 26  1  0  0  0  0
 29 26  1  0  0  0  0
 30 32  1  0  0  0  0
 30 33  1  0  0  0  0
 31 30  1  0  0  0  0
M  END
>  <MODEL>
12

>  <REMARK>
 VINA RESULT:    -5.140      3.922      4.712
 INTER + INTRA:          -6.252
 INTER:                  -6.121
 INTRA:                  -0.131
 UNBOUND:                -0.211
  Name = 
  4 active torsions:
  status: ('A' for Active; 'I' for Inactive)
    1  A    between atoms: C_1  and  N_2
    2  A    between atoms: N_5  and  C_6
    3  A    between atoms: C_9  and  O_12
    4  A    between atoms: O_12  and  C_13
                            x       y       z     vdW  Elec       q    Type
                         _______ _______ _______ _____ _____    ______ ____

>  <TORSDO>
F 4

$$$$
=
 OpenBabel07192307433D

 33 34  0  0  0  0  0  0  0  0999 V2000
    3.2270    3.0720   19.6610 N   0  0  0  0  0  0  0  0  0  0  0  0
    2.5540    3.6690   20.8350 C   0  0  0  0  0  0  0  0  0  0  0  0
    1.5940    4.8310   20.4930 C   0  0  0  0  0  0  0  0  0  0  0  0
    2.3250    5.9300   19.8370 N   0  0  0  0  0  0  0  0  0  0  0  0
    3.5240    5.5490   19.0700 C   0  0  0  0  0  0  0  0  0  0  0  0
    3.4470    4.0770   18.6000 C   0  0  0  0  0  0  0  0  0  0  0  0
    1.9930    2.8820   21.3540 H   0  0  0  0  0  0  0  0  0  0  0  0
    3.2990    4.0550   21.5460 H   0  0  0  0  0  0  0  0  0  0  0  0
    0.7900    4.4770   19.8360 H   0  0  0  0  0  0  0  0  0  0  0  0
    1.1450    5.1710   21.4330 H   0  0  0  0  0  0  0  0  0  0  0  0
    4.4160    5.6970   19.6900 H   0  0  0  0  0  0  0  0  0  0  0  0
    3.6250    6.1710   18.1720 H   0  0  0  0  0  0  0  0  0  0  0  0
    4.3340    3.8360   18.0030 H   0  0  0  0  0  0  0  0  0  0  0  0
    2.5980    3.9920   17.9080 H   0  0  0  0  0  0  0  0  0  0  0  0
    1.8780    7.2380   19.8840 C   0  0  0  0  0  0  0  0  0  0  0  0
    1.2560    7.7680   21.0240 C   0  0  0  0  0  0  0  0  0  0  0  0
    0.8000    9.0950   21.0710 C   0  0  0  0  0  0  0  0  0  0  0  0
    0.9520    9.9480   19.9740 C   0  0  0  0  0  0  0  0  0  0  0  0
    1.5650    9.4410   18.8320 C   0  0  0  0  0  0  0  0  0  0  0  0
    2.0160    8.1110   18.7950 C   0  0  0  0  0  0  0  0  0  0  0  0
   -0.0330    9.6830   22.6790 Br  0  0  0  0  0  0  0  0  0  0  0  0
    1.0930    7.1390   21.8930 H   0  0  0  0  0  0  0  0  0  0  0  0
    1.7210   10.0470   17.9450 H   0  0  0  0  0  0  0  0  0  0  0  0
    2.5080    7.7780   17.8840 H   0  0  0  0  0  0  0  0  0  0  0  0
    0.4810   11.2270   20.1030 O   0  0  0  0  0  0  0  0  0  0  0  0
   -0.2710   11.7650   19.0240 C   0  0  0  0  0  0  0  0  0  0  0  0
   -1.3300   11.7070   19.2930 H   0  0  0  0  0  0  0  0  0  0  0  0
   -0.1270   11.1780   18.1110 H   0  0  0  0  0  0  0  0  0  0  0  0
   -0.0270   12.8200   18.8600 H   0  0  0  0  0  0  0  0  0  0  0  0
    4.4720    2.4210   20.0610 C   0  0  0  0  0  0  0  0  0  0  0  0
    5.3360    2.9970   19.7130 H   0  0  0  0  0  0  0  0  0  0  0  0
    4.5530    1.4020   19.6650 H   0  0  0  0  0  0  0  0  0  0  0  0
    4.5460    2.3730   21.1530 H   0  0  0  0  0  0  0  0  0  0  0  0
  1 30  1  0  0  0  0
  1  2  1  0  0  0  0
  2  7  1  0  0  0  0
  2  8  1  0  0  0  0
  3  2  1  0  0  0  0
  3 10  1  0  0  0  0
  4 15  1  0  0  0  0
  4  3  1  0  0  0  0
  5 11  1  0  0  0  0
  5  4  1  0  0  0  0
  6  5  1  0  0  0  0
  6  1  1  0  0  0  0
  9  3  1  0  0  0  0
 12  5  1  0  0  0  0
 13  6  1  0  0  0  0
 14  6  1  0  0  0  0
 15 16  1  0  0  0  0
 16 17  2  0  0  0  0
 16 22  1  0  0  0  0
 17 21  1  0  0  0  0
 18 25  1  0  0  0  0
 18 17  1  0  0  0  0
 19 18  2  0  0  0  0
 20 19  1  0  0  0  0
 20 15  2  0  0  0  0
 23 19  1  0  0  0  0
 24 20  1  0  0  0  0
 26 27  1  0  0  0  0
 26 25  1  0  0  0  0
 28 26  1  0  0  0  0
 29 26  1  0  0  0  0
 30 33  1  0  0  0  0
 31 30  1  0  0  0  0
 32 30  1  0  0  0  0
M  END
>  <MODEL>
13

>  <REMARK>
 VINA RESULT:    -5.134      3.370      6.415
 INTER + INTRA:          -6.245
 INTER:                  -6.016
 INTRA:                  -0.229
 UNBOUND:                -0.211
  Name = 
  4 active torsions:
  status: ('A' for Active; 'I' for Inactive)
    1  A    between atoms: C_1  and  N_2
    2  A    between atoms: N_5  and  C_6
    3  A    between atoms: C_9  and  O_12
    4  A    between atoms: O_12  and  C_13
                            x       y       z     vdW  Elec       q    Type
                         _______ _______ _______ _____ _____    ______ ____

>  <TORSDO>
F 4

$$$$
=
 OpenBabel07192307433D

 33 34  0  0  0  0  0  0  0  0999 V2000
    5.4260    4.6290   15.9470 N   0  0  0  0  0  0  0  0  0  0  0  0
    4.7750    4.0670   17.1500 C   0  0  0  0  0  0  0  0  0  0  0  0
    3.4560    4.7700   17.5440 C   0  0  0  0  0  0  0  0  0  0  0  0
    3.6960    6.1950   17.8360 N   0  0  0  0  0  0  0  0  0  0  0  0
    4.8290    6.8220   17.1350 C   0  0  0  0  0  0  0  0  0  0  0  0
    5.1580    6.0770   15.8180 C   0  0  0  0  0  0  0  0  0  0  0  0
    4.5750    3.0030   16.9740 H   0  0  0  0  0  0  0  0  0  0  0  0
    5.4520    4.1290   18.0140 H   0  0  0  0  0  0  0  0  0  0  0  0
    2.7200    4.6760   16.7350 H   0  0  0  0  0  0  0  0  0  0  0  0
    3.0620    4.2540   18.4270 H   0  0  0  0  0  0  0  0  0  0  0  0
    5.7070    6.8260   17.7910 H   0  0  0  0  0  0  0  0  0  0  0  0
    4.5960    7.8600   16.8690 H   0  0  0  0  0  0  0  0  0  0  0  0
    5.9810    6.5880   15.3040 H   0  0  0  0  0  0  0  0  0  0  0  0
    4.2900    6.1770   15.1530 H   0  0  0  0  0  0  0  0  0  0  0  0
    2.8660    6.9210   18.6720 C   0  0  0  0  0  0  0  0  0  0  0  0
    2.3980    8.1970   18.3240 C   0  0  0  0  0  0  0  0  0  0  0  0
    1.5580    8.9360   19.1730 C   0  0  0  0  0  0  0  0  0  0  0  0
    1.1520    8.4230   20.4080 C   0  0  0  0  0  0  0  0  0  0  0  0
    1.6080    7.1600   20.7730 C   0  0  0  0  0  0  0  0  0  0  0  0
    2.4490    6.4300   19.9170 C   0  0  0  0  0  0  0  0  0  0  0  0
    1.0010   10.6570   18.5790 Br  0  0  0  0  0  0  0  0  0  0  0  0
    2.7040    8.6480   17.3850 H   0  0  0  0  0  0  0  0  0  0  0  0
    1.3300    6.6980   21.7150 H   0  0  0  0  0  0  0  0  0  0  0  0
    2.7550    5.4390   20.2460 H   0  0  0  0  0  0  0  0  0  0  0  0
    0.3320    9.2080   21.1740 O   0  0  0  0  0  0  0  0  0  0  0  0
    0.6260    9.3110   22.5600 C   0  0  0  0  0  0  0  0  0  0  0  0
   -0.2640    8.9960   23.1150 H   0  0  0  0  0  0  0  0  0  0  0  0
    0.8440   10.3460   22.8420 H   0  0  0  0  0  0  0  0  0  0  0  0
    1.4460    8.6420   22.8420 H   0  0  0  0  0  0  0  0  0  0  0  0
    6.8580    4.3390   15.9570 C   0  0  0  0  0  0  0  0  0  0  0  0
    7.1210    3.7300   16.8280 H   0  0  0  0  0  0  0  0  0  0  0  0
    7.4650    5.2510   15.9750 H   0  0  0  0  0  0  0  0  0  0  0  0
    7.1370    3.7580   15.0710 H   0  0  0  0  0  0  0  0  0  0  0  0
  1 30  1  0  0  0  0
  1  2  1  0  0  0  0
  2  3  1  0  0  0  0
  2  8  1  0  0  0  0
  3  4  1  0  0  0  0
  3 10  1  0  0  0  0
  4 15  1  0  0  0  0
  5 11  1  0  0  0  0
  5  4  1  0  0  0  0
  6  1  1  0  0  0  0
  6  5  1  0  0  0  0
  7  2  1  0  0  0  0
  9  3  1  0  0  0  0
 12  5  1  0  0  0  0
 13  6  1  0  0  0  0
 14  6  1  0  0  0  0
 15 20  1  0  0  0  0
 16 15  2  0  0  0  0
 16 17  1  0  0  0  0
 17 18  2  0  0  0  0
 18 19  1  0  0  0  0
 18 25  1  0  0  0  0
 19 23  1  0  0  0  0
 20 24  1  0  0  0  0
 20 19  2  0  0  0  0
 21 17  1  0  0  0  0
 22 16  1  0  0  0  0
 25 26  1  0  0  0  0
 26 28  1  0  0  0  0
 26 29  1  0  0  0  0
 26 27  1  0  0  0  0
 30 32  1  0  0  0  0
 30 31  1  0  0  0  0
 33 30  1  0  0  0  0
M  END
>  <MODEL>
14

>  <REMARK>
 VINA RESULT:    -5.129      3.573      6.155
 INTER + INTRA:          -6.240
 INTER:                  -6.015
 INTRA:                  -0.225
 UNBOUND:                -0.211
  Name = 
  4 active torsions:
  status: ('A' for Active; 'I' for Inactive)
    1  A    between atoms: C_1  and  N_2
    2  A    between atoms: N_5  and  C_6
    3  A    between atoms: C_9  and  O_12
    4  A    between atoms: O_12  and  C_13
                            x       y       z     vdW  Elec       q    Type
                         _______ _______ _______ _____ _____    ______ ____

>  <TORSDO>
F 4

$$$$
=
 OpenBabel07192307433D

 33 34  0  0  0  0  0  0  0  0999 V2000
   -0.8600   11.5640   22.6960 N   0  0  0  0  0  0  0  0  0  0  0  0
   -0.6280   10.1410   23.0280 C   0  0  0  0  0  0  0  0  0  0  0  0
    0.6380    9.5360   22.3770 C   0  0  0  0  0  0  0  0  0  0  0  0
    0.5460    9.6040   20.9080 N   0  0  0  0  0  0  0  0  0  0  0  0
   -0.2650   10.7030   20.3550 C   0  0  0  0  0  0  0  0  0  0  0  0
   -0.3550   11.8890   21.3450 C   0  0  0  0  0  0  0  0  0  0  0  0
   -0.5510   10.0450   24.1180 H   0  0  0  0  0  0  0  0  0  0  0  0
   -1.4850    9.5310   22.7110 H   0  0  0  0  0  0  0  0  0  0  0  0
    1.5320   10.0720   22.7190 H   0  0  0  0  0  0  0  0  0  0  0  0
    0.7120    8.4960   22.7140 H   0  0  0  0  0  0  0  0  0  0  0  0
   -1.2700   10.3330   20.1230 H   0  0  0  0  0  0  0  0  0  0  0  0
    0.1810   11.0870   19.4290 H   0  0  0  0  0  0  0  0  0  0  0  0
   -0.9340   12.7020   20.8910 H   0  0  0  0  0  0  0  0  0  0  0  0
    0.6580   12.2900   21.4780 H   0  0  0  0  0  0  0  0  0  0  0  0
    1.2340    8.7260   20.0900 C   0  0  0  0  0  0  0  0  0  0  0  0
    1.5800    7.4350   20.5140 C   0  0  0  0  0  0  0  0  0  0  0  0
    2.2800    6.5440   19.6840 C   0  0  0  0  0  0  0  0  0  0  0  0
    2.6620    6.9130   18.3910 C   0  0  0  0  0  0  0  0  0  0  0  0
    2.3310    8.1920   17.9520 C   0  0  0  0  0  0  0  0  0  0  0  0
    1.6320    9.0760   18.7910 C   0  0  0  0  0  0  0  0  0  0  0  0
    2.6910    4.8240   20.3880 Br  0  0  0  0  0  0  0  0  0  0  0  0
    1.3270    7.1090   21.5180 H   0  0  0  0  0  0  0  0  0  0  0  0
    2.5910    8.5440   16.9600 H   0  0  0  0  0  0  0  0  0  0  0  0
    1.3810   10.0530   18.3850 H   0  0  0  0  0  0  0  0  0  0  0  0
    3.3400    5.9850   17.6480 O   0  0  0  0  0  0  0  0  0  0  0  0
    4.5460    6.3970   17.0190 C   0  0  0  0  0  0  0  0  0  0  0  0
    4.4710    7.4730   16.8270 H   0  0  0  0  0  0  0  0  0  0  0  0
    4.6800    5.8960   16.0550 H   0  0  0  0  0  0  0  0  0  0  0  0
    5.4090    6.2360   17.6740 H   0  0  0  0  0  0  0  0  0  0  0  0
   -2.2740   11.9000   22.8440 C   0  0  0  0  0  0  0  0  0  0  0  0
   -2.7690   11.9190   21.8680 H   0  0  0  0  0  0  0  0  0  0  0  0
   -2.4200   12.8730   23.3270 H   0  0  0  0  0  0  0  0  0  0  0  0
   -2.7870   11.1390   23.4430 H   0  0  0  0  0  0  0  0  0  0  0  0
  1 30  1  0  0  0  0
  1  2  1  0  0  0  0
  2  7  1  0  0  0  0
  3 10  1  0  0  0  0
  3  9  1  0  0  0  0
  3  2  1  0  0  0  0
  4  3  1  0  0  0  0
  5  4  1  0  0  0  0
  5  6  1  0  0  0  0
  6 14  1  0  0  0  0
  6  1  1  0  0  0  0
  8  2  1  0  0  0  0
 11  5  1  0  0  0  0
 12  5  1  0  0  0  0
 13  6  1  0  0  0  0
 15 16  1  0  0  0  0
 15  4  1  0  0  0  0
 16 22  1  0  0  0  0
 17 21  1  0  0  0  0
 17 16  2  0  0  0  0
 18 17  1  0  0  0  0
 19 18  2  0  0  0  0
 19 20  1  0  0  0  0
 20 15  2  0  0  0  0
 23 19  1  0  0  0  0
 24 20  1  0  0  0  0
 25 18  1  0  0  0  0
 26 25  1  0  0  0  0
 26 29  1  0  0  0  0
 27 26  1  0  0  0  0
 28 26  1  0  0  0  0
 30 32  1  0  0  0  0
 30 33  1  0  0  0  0
 31 30  1  0  0  0  0
M  END
>  <MODEL>
15

>  <REMARK>
 VINA RESULT:    -5.074      2.416      3.662
 INTER + INTRA:          -6.175
 INTER:                  -5.941
 INTRA:                  -0.234
 UNBOUND:                -0.211
  Name = 
  4 active torsions:
  status: ('A' for Active; 'I' for Inactive)
    1  A    between atoms: C_1  and  N_2
    2  A    between atoms: N_5  and  C_6
    3  A    between atoms: C_9  and  O_12
    4  A    between atoms: O_12  and  C_13
                            x       y       z     vdW  Elec       q    Type
                         _______ _______ _______ _____ _____    ______ ____

>  <TORSDO>
F 4

$$$$
=
 OpenBabel07192307433D

 33 34  0  0  0  0  0  0  0  0999 V2000
    4.0920    2.7830   18.2720 N   0  0  0  0  0  0  0  0  0  0  0  0
    3.2470    3.6390   17.4110 C   0  0  0  0  0  0  0  0  0  0  0  0
    3.2800    5.1400   17.7820 C   0  0  0  0  0  0  0  0  0  0  0  0
    2.7980    5.3430   19.1600 N   0  0  0  0  0  0  0  0  0  0  0  0
    3.0000    4.2210   20.0930 C   0  0  0  0  0  0  0  0  0  0  0  0
    4.1780    3.3220   19.6460 C   0  0  0  0  0  0  0  0  0  0  0  0
    3.5750    3.5200   16.3710 H   0  0  0  0  0  0  0  0  0  0  0  0
    2.1990    3.3110   17.4580 H   0  0  0  0  0  0  0  0  0  0  0  0
    4.3000    5.5320   17.6840 H   0  0  0  0  0  0  0  0  0  0  0  0
    2.6400    5.6670   17.0660 H   0  0  0  0  0  0  0  0  0  0  0  0
    2.0800    3.6280   20.1550 H   0  0  0  0  0  0  0  0  0  0  0  0
    3.2380    4.5890   21.0990 H   0  0  0  0  0  0  0  0  0  0  0  0
    4.3240    2.5190   20.3780 H   0  0  0  0  0  0  0  0  0  0  0  0
    5.0930    3.9260   19.6880 H   0  0  0  0  0  0  0  0  0  0  0  0
    2.2450    6.5410   19.5740 C   0  0  0  0  0  0  0  0  0  0  0  0
    2.2790    7.6900   18.7700 C   0  0  0  0  0  0  0  0  0  0  0  0
    1.7210    8.9070   19.1910 C   0  0  0  0  0  0  0  0  0  0  0  0
    1.1010    9.0220   20.4390 C   0  0  0  0  0  0  0  0  0  0  0  0
    1.0590    7.8940   21.2530 C   0  0  0  0  0  0  0  0  0  0  0  0
    1.6230    6.6810   20.8230 C   0  0  0  0  0  0  0  0  0  0  0  0
    1.8420   10.3890   18.0020 Br  0  0  0  0  0  0  0  0  0  0  0  0
    2.7700    7.6580   17.8020 H   0  0  0  0  0  0  0  0  0  0  0  0
    0.5910    7.9080   22.2320 H   0  0  0  0  0  0  0  0  0  0  0  0
    1.5390    5.8290   21.4930 H   0  0  0  0  0  0  0  0  0  0  0  0
    0.5810   10.2440   20.7710 O   0  0  0  0  0  0  0  0  0  0  0  0
   -0.2930   10.3060   21.8900 C   0  0  0  0  0  0  0  0  0  0  0  0
    0.2890   10.0570   22.7830 H   0  0  0  0  0  0  0  0  0  0  0  0
   -1.0990    9.5700   21.8030 H   0  0  0  0  0  0  0  0  0  0  0  0
   -0.6920   11.3170   22.0250 H   0  0  0  0  0  0  0  0  0  0  0  0
    3.6060    1.4050   18.2570 C   0  0  0  0  0  0  0  0  0  0  0  0
    2.5190    1.3790   18.3890 H   0  0  0  0  0  0  0  0  0  0  0  0
    4.0670    0.7950   19.0430 H   0  0  0  0  0  0  0  0  0  0  0  0
    3.8170    0.9360   17.2890 H   0  0  0  0  0  0  0  0  0  0  0  0
  1  6  1  0  0  0  0
  2  8  1  0  0  0  0
  2  3  1  0  0  0  0
  2  1  1  0  0  0  0
  3  4  1  0  0  0  0
  4 15  1  0  0  0  0
  4  5  1  0  0  0  0
  5 11  1  0  0  0  0
  5 12  1  0  0  0  0
  6 14  1  0  0  0  0
  6  5  1  0  0  0  0
  6 13  1  0  0  0  0
  7  2  1  0  0  0  0
  9  3  1  0  0  0  0
 10  3  1  0  0  0  0
 15 20  1  0  0  0  0
 16 17  1  0  0  0  0
 16 15  2  0  0  0  0
 17 18  2  0  0  0  0
 18 25  1  0  0  0  0
 18 19  1  0  0  0  0
 19 23  1  0  0  0  0
 20 19  2  0  0  0  0
 20 24  1  0  0  0  0
 21 17  1  0  0  0  0
 22 16  1  0  0  0  0
 25 26  1  0  0  0  0
 26 29  1  0  0  0  0
 26 27  1  0  0  0  0
 28 26  1  0  0  0  0
 30  1  1  0  0  0  0
 30 31  1  0  0  0  0
 30 32  1  0  0  0  0
 33 30  1  0  0  0  0
M  END
>  <MODEL>
16

>  <REMARK>
 VINA RESULT:    -4.923      3.484      6.463
 INTER + INTRA:          -5.997
 INTER:                  -5.779
 INTRA:                  -0.218
 UNBOUND:                -0.211
  Name = 
  4 active torsions:
  status: ('A' for Active; 'I' for Inactive)
    1  A    between atoms: C_1  and  N_2
    2  A    between atoms: N_5  and  C_6
    3  A    between atoms: C_9  and  O_12
    4  A    between atoms: O_12  and  C_13
                            x       y       z     vdW  Elec       q    Type
                         _______ _______ _______ _____ _____    ______ ____

>  <TORSDO>
F 4

$$$$
=
 OpenBabel07192307433D

 33 34  0  0  0  0  0  0  0  0999 V2000
    2.7020    3.5920   19.7150 N   0  0  0  0  0  0  0  0  0  0  0  0
    4.1100    3.1460   19.6220 C   0  0  0  0  0  0  0  0  0  0  0  0
    4.9920    4.0190   18.7000 C   0  0  0  0  0  0  0  0  0  0  0  0
    4.4680    4.0100   17.3230 N   0  0  0  0  0  0  0  0  0  0  0  0
    3.0170    3.7990   17.1780 C   0  0  0  0  0  0  0  0  0  0  0  0
    2.2570    4.2270   18.4570 C   0  0  0  0  0  0  0  0  0  0  0  0
    4.5410    3.1410   20.6300 H   0  0  0  0  0  0  0  0  0  0  0  0
    4.1590    2.1150   19.2450 H   0  0  0  0  0  0  0  0  0  0  0  0
    5.0290    5.0490   19.0760 H   0  0  0  0  0  0  0  0  0  0  0  0
    6.0060    3.6050   18.7320 H   0  0  0  0  0  0  0  0  0  0  0  0
    2.8210    2.7430   16.9640 H   0  0  0  0  0  0  0  0  0  0  0  0
    2.6180    4.3970   16.3490 H   0  0  0  0  0  0  0  0  0  0  0  0
    1.1790    4.0920   18.3040 H   0  0  0  0  0  0  0  0  0  0  0  0
    2.4000    5.3080   18.5840 H   0  0  0  0  0  0  0  0  0  0  0  0
    5.2800    4.2490   16.2280 C   0  0  0  0  0  0  0  0  0  0  0  0
    4.9600    3.7680   14.9500 C   0  0  0  0  0  0  0  0  0  0  0  0
    5.7850    4.0090   13.8390 C   0  0  0  0  0  0  0  0  0  0  0  0
    6.9660    4.7460   13.9650 C   0  0  0  0  0  0  0  0  0  0  0  0
    7.3020    5.2300   15.2260 C   0  0  0  0  0  0  0  0  0  0  0  0
    6.4710    4.9820   16.3310 C   0  0  0  0  0  0  0  0  0  0  0  0
    5.2350    3.2930   12.1630 Br  0  0  0  0  0  0  0  0  0  0  0  0
    4.0650    3.1710   14.8050 H   0  0  0  0  0  0  0  0  0  0  0  0
    8.2020    5.8130   15.3980 H   0  0  0  0  0  0  0  0  0  0  0  0
    6.7740    5.4050   17.2860 H   0  0  0  0  0  0  0  0  0  0  0  0
    7.7110    4.9350   12.8330 O   0  0  0  0  0  0  0  0  0  0  0  0
    8.7330    5.9220   12.8740 C   0  0  0  0  0  0  0  0  0  0  0  0
    8.3300    6.7990   13.3920 H   0  0  0  0  0  0  0  0  0  0  0  0
    9.0200    6.2360   11.8650 H   0  0  0  0  0  0  0  0  0  0  0  0
    9.6010    5.5700   13.4420 H   0  0  0  0  0  0  0  0  0  0  0  0
    1.8370    2.4800   20.0990 C   0  0  0  0  0  0  0  0  0  0  0  0
    2.3540    1.5240   19.9590 H   0  0  0  0  0  0  0  0  0  0  0  0
    0.9060    2.4600   19.5210 H   0  0  0  0  0  0  0  0  0  0  0  0
    1.5810    2.5440   21.1630 H   0  0  0  0  0  0  0  0  0  0  0  0
  1 30  1  0  0  0  0
  2  1  1  0  0  0  0
  2  7  1  0  0  0  0
  3 10  1  0  0  0  0
  3  9  1  0  0  0  0
  3  2  1  0  0  0  0
  4  3  1  0  0  0  0
  5  4  1  0  0  0  0
  5  6  1  0  0  0  0
  6 14  1  0  0  0  0
  6  1  1  0  0  0  0
  8  2  1  0  0  0  0
 11  5  1  0  0  0  0
 12  5  1  0  0  0  0
 13  6  1  0  0  0  0
 15 20  1  0  0  0  0
 15  4  1  0  0  0  0
 16 15  2  0  0  0  0
 17 18  2  0  0  0  0
 17 16  1  0  0  0  0
 18 19  1  0  0  0  0
 19 23  1  0  0  0  0
 19 20  2  0  0  0  0
 20 24  1  0  0  0  0
 21 17  1  0  0  0  0
 22 16  1  0  0  0  0
 25 26  1  0  0  0  0
 25 18  1  0  0  0  0
 26 27  1  0  0  0  0
 26 29  1  0  0  0  0
 28 26  1  0  0  0  0
 30 33  1  0  0  0  0
 31 30  1  0  0  0  0
 32 30  1  0  0  0  0
M  END
>  <MODEL>
17

>  <REMARK>
 VINA RESULT:    -4.910      5.198      6.796
 INTER + INTRA:          -5.982
 INTER:                  -5.771
 INTRA:                  -0.211
 UNBOUND:                -0.211
  Name = 
  4 active torsions:
  status: ('A' for Active; 'I' for Inactive)
    1  A    between atoms: C_1  and  N_2
    2  A    between atoms: N_5  and  C_6
    3  A    between atoms: C_9  and  O_12
    4  A    between atoms: O_12  and  C_13
                            x       y       z     vdW  Elec       q    Type
                         _______ _______ _______ _____ _____    ______ ____

>  <TORSDO>
F 4

$$$$
=
 OpenBabel07192307433D

 33 34  0  0  0  0  0  0  0  0999 V2000
   -0.0560   11.2560   20.2980 N   0  0  0  0  0  0  0  0  0  0  0  0
    0.9620   11.0320   19.2490 C   0  0  0  0  0  0  0  0  0  0  0  0
    1.0510    9.5710   18.7530 C   0  0  0  0  0  0  0  0  0  0  0  0
    1.4030    8.6680   19.8630 N   0  0  0  0  0  0  0  0  0  0  0  0
    0.9840    9.0960   21.2090 C   0  0  0  0  0  0  0  0  0  0  0  0
   -0.2290   10.0550   21.1430 C   0  0  0  0  0  0  0  0  0  0  0  0
    0.7350   11.6860   18.3980 H   0  0  0  0  0  0  0  0  0  0  0  0
    1.9580   11.3160   19.6170 H   0  0  0  0  0  0  0  0  0  0  0  0
    0.0950    9.2620   18.3120 H   0  0  0  0  0  0  0  0  0  0  0  0
    1.8160    9.5380   17.9690 H   0  0  0  0  0  0  0  0  0  0  0  0
    1.8230    9.5900   21.7120 H   0  0  0  0  0  0  0  0  0  0  0  0
    0.6810    8.2330   21.8150 H   0  0  0  0  0  0  0  0  0  0  0  0
   -0.5380   10.3260   22.1590 H   0  0  0  0  0  0  0  0  0  0  0  0
   -1.0740    9.4950   20.7200 H   0  0  0  0  0  0  0  0  0  0  0  0
    2.0340    7.4550   19.6500 C   0  0  0  0  0  0  0  0  0  0  0  0
    2.9300    7.2630   18.5890 C   0  0  0  0  0  0  0  0  0  0  0  0
    3.5690    6.0320   18.3710 C   0  0  0  0  0  0  0  0  0  0  0  0
    3.3350    4.9400   19.2120 C   0  0  0  0  0  0  0  0  0  0  0  0
    2.4470    5.1100   20.2710 C   0  0  0  0  0  0  0  0  0  0  0  0
    1.8120    6.3450   20.4780 C   0  0  0  0  0  0  0  0  0  0  0  0
    4.7570    5.9070   16.8890 Br  0  0  0  0  0  0  0  0  0  0  0  0
    3.1270    8.0730   17.8930 H   0  0  0  0  0  0  0  0  0  0  0  0
    2.2210    4.3080   20.9660 H   0  0  0  0  0  0  0  0  0  0  0  0
    1.1460    6.4240   21.3350 H   0  0  0  0  0  0  0  0  0  0  0  0
    4.0000    3.7770   18.9300 O   0  0  0  0  0  0  0  0  0  0  0  0
    3.2810    2.5590   19.0630 C   0  0  0  0  0  0  0  0  0  0  0  0
    2.6940    2.6150   19.9850 H   0  0  0  0  0  0  0  0  0  0  0  0
    3.9610    1.7060   19.1530 H   0  0  0  0  0  0  0  0  0  0  0  0
    2.5800    2.4210   18.2320 H   0  0  0  0  0  0  0  0  0  0  0  0
    0.2770   12.4360   21.0920 C   0  0  0  0  0  0  0  0  0  0  0  0
    0.6220   12.1440   22.0900 H   0  0  0  0  0  0  0  0  0  0  0  0
   -0.5760   13.1140   21.2050 H   0  0  0  0  0  0  0  0  0  0  0  0
    1.0990   12.9910   20.6260 H   0  0  0  0  0  0  0  0  0  0  0  0
  1 30  1  0  0  0  0
  1  6  1  0  0  0  0
  2  8  1  0  0  0  0
  2  1  1  0  0  0  0
  3  2  1  0  0  0  0
  3  4  1  0  0  0  0
  4  5  1  0  0  0  0
  5 11  1  0  0  0  0
  5 12  1  0  0  0  0
  6  5  1  0  0  0  0
  6 13  1  0  0  0  0
  7  2  1  0  0  0  0
  9  3  1  0  0  0  0
 10  3  1  0  0  0  0
 14  6  1  0  0  0  0
 15  4  1  0  0  0  0
 15 20  1  0  0  0  0
 16 15  2  0  0  0  0
 17 16  1  0  0  0  0
 17 18  2  0  0  0  0
 18 19  1  0  0  0  0
 19 20  2  0  0  0  0
 19 23  1  0  0  0  0
 20 24  1  0  0  0  0
 21 17  1  0  0  0  0
 22 16  1  0  0  0  0
 25 26  1  0  0  0  0
 25 18  1  0  0  0  0
 26 28  1  0  0  0  0
 26 27  1  0  0  0  0
 29 26  1  0  0  0  0
 30 32  1  0  0  0  0
 30 31  1  0  0  0  0
 33 30  1  0  0  0  0
M  END
>  <MODEL>
18

>  <REMARK>
 VINA RESULT:    -4.887      1.894      2.306
 INTER + INTRA:          -5.955
 INTER:                  -5.726
 INTRA:                  -0.229
 UNBOUND:                -0.211
  Name = 
  4 active torsions:
  status: ('A' for Active; 'I' for Inactive)
    1  A    between atoms: C_1  and  N_2
    2  A    between atoms: N_5  and  C_6
    3  A    between atoms: C_9  and  O_12
    4  A    between atoms: O_12  and  C_13
                            x       y       z     vdW  Elec       q    Type
                         _______ _______ _______ _____ _____    ______ ____

>  <TORSDO>
F 4

$$$$
=
 OpenBabel07192307433D

 33 34  0  0  0  0  0  0  0  0999 V2000
    6.8530    5.1860   14.8300 N   0  0  0  0  0  0  0  0  0  0  0  0
    5.5500    5.8740   14.9540 C   0  0  0  0  0  0  0  0  0  0  0  0
    4.9520    5.8480   16.3800 C   0  0  0  0  0  0  0  0  0  0  0  0
    4.7250    4.4600   16.8200 N   0  0  0  0  0  0  0  0  0  0  0  0
    5.6140    3.4390   16.2410 C   0  0  0  0  0  0  0  0  0  0  0  0
    6.9560    4.0570   15.7800 C   0  0  0  0  0  0  0  0  0  0  0  0
    5.6750    6.9170   14.6370 H   0  0  0  0  0  0  0  0  0  0  0  0
    4.8120    5.4180   14.2790 H   0  0  0  0  0  0  0  0  0  0  0  0
    5.6250    6.3550   17.0820 H   0  0  0  0  0  0  0  0  0  0  0  0
    4.0080    6.4040   16.3480 H   0  0  0  0  0  0  0  0  0  0  0  0
    5.1140    2.9580   15.3930 H   0  0  0  0  0  0  0  0  0  0  0  0
    5.8530    2.6650   16.9820 H   0  0  0  0  0  0  0  0  0  0  0  0
    7.6080    3.2670   15.3870 H   0  0  0  0  0  0  0  0  0  0  0  0
    7.4690    4.4440   16.6700 H   0  0  0  0  0  0  0  0  0  0  0  0
    3.7730    4.1400   17.7720 C   0  0  0  0  0  0  0  0  0  0  0  0
    3.2360    5.1040   18.6370 C   0  0  0  0  0  0  0  0  0  0  0  0
    2.2720    4.7790   19.6050 C   0  0  0  0  0  0  0  0  0  0  0  0
    1.8050    3.4680   19.7440 C   0  0  0  0  0  0  0  0  0  0  0  0
    2.3280    2.4960   18.8960 C   0  0  0  0  0  0  0  0  0  0  0  0
    3.2930    2.8320   17.9330 C   0  0  0  0  0  0  0  0  0  0  0  0
    1.6330    6.1850   20.7180 Br  0  0  0  0  0  0  0  0  0  0  0  0
    3.5840    6.1310   18.5850 H   0  0  0  0  0  0  0  0  0  0  0  0
    2.0080    1.4600   18.9440 H   0  0  0  0  0  0  0  0  0  0  0  0
    3.6470    2.0340   17.2840 H   0  0  0  0  0  0  0  0  0  0  0  0
    0.8650    3.2370   20.7110 O   0  0  0  0  0  0  0  0  0  0  0  0
    1.2820    2.5580   21.8870 C   0  0  0  0  0  0  0  0  0  0  0  0
    2.3450    2.7720   22.0370 H   0  0  0  0  0  0  0  0  0  0  0  0
    1.1730    1.4740   21.7780 H   0  0  0  0  0  0  0  0  0  0  0  0
    0.7430    2.9240   22.7680 H   0  0  0  0  0  0  0  0  0  0  0  0
    7.0770    4.7590   13.4510 C   0  0  0  0  0  0  0  0  0  0  0  0
    7.7390    3.8870   13.4210 H   0  0  0  0  0  0  0  0  0  0  0  0
    7.5210    5.5530   12.8390 H   0  0  0  0  0  0  0  0  0  0  0  0
    6.1330    4.4530   12.9870 H   0  0  0  0  0  0  0  0  0  0  0  0
  1  2  1  0  0  0  0
  1  6  1  0  0  0  0
  2  3  1  0  0  0  0
  3  4  1  0  0  0  0
  3  9  1  0  0  0  0
  4 15  1  0  0  0  0
  5  4  1  0  0  0  0
  5 12  1  0  0  0  0
  6  5  1  0  0  0  0
  6 14  1  0  0  0  0
  7  2  1  0  0  0  0
  8  2  1  0  0  0  0
 10  3  1  0  0  0  0
 11  5  1  0  0  0  0
 13  6  1  0  0  0  0
 15 20  2  0  0  0  0
 15 16  1  0  0  0  0
 16 17  2  0  0  0  0
 17 18  1  0  0  0  0
 17 21  1  0  0  0  0
 18 25  1  0  0  0  0
 19 23  1  0  0  0  0
 19 18  2  0  0  0  0
 20 19  1  0  0  0  0
 22 16  1  0  0  0  0
 24 20  1  0  0  0  0
 25 26  1  0  0  0  0
 26 27  1  0  0  0  0
 26 29  1  0  0  0  0
 28 26  1  0  0  0  0
 30  1  1  0  0  0  0
 31 30  1  0  0  0  0
 32 30  1  0  0  0  0
 33 30  1  0  0  0  0
M  END
>  <MODEL>
19

>  <REMARK>
 VINA RESULT:    -4.844      3.949      5.684
 INTER + INTRA:          -5.904
 INTER:                  -5.679
 INTRA:                  -0.225
 UNBOUND:                -0.211
  Name = 
  4 active torsions:
  status: ('A' for Active; 'I' for Inactive)
    1  A    between atoms: C_1  and  N_2
    2  A    between atoms: N_5  and  C_6
    3  A    between atoms: C_9  and  O_12
    4  A    between atoms: O_12  and  C_13
                            x       y       z     vdW  Elec       q    Type
                         _______ _______ _______ _____ _____    ______ ____

>  <TORSDO>
F 4

$$$$
=
 OpenBabel07192307433D

 33 34  0  0  0  0  0  0  0  0999 V2000
    3.3570    4.4750   18.5760 N   0  0  0  0  0  0  0  0  0  0  0  0
    3.1830    4.7080   20.0260 C   0  0  0  0  0  0  0  0  0  0  0  0
    1.9930    5.6300   20.3810 C   0  0  0  0  0  0  0  0  0  0  0  0
    2.1690    6.9590   19.7710 N   0  0  0  0  0  0  0  0  0  0  0  0
    2.9510    7.0060   18.5230 C   0  0  0  0  0  0  0  0  0  0  0  0
    2.9180    5.6450   17.7870 C   0  0  0  0  0  0  0  0  0  0  0  0
    3.0460    3.7390   20.5210 H   0  0  0  0  0  0  0  0  0  0  0  0
    4.0900    5.1620   20.4510 H   0  0  0  0  0  0  0  0  0  0  0  0
    1.0530    5.1840   20.0360 H   0  0  0  0  0  0  0  0  0  0  0  0
    1.9560    5.7070   21.4740 H   0  0  0  0  0  0  0  0  0  0  0  0
    3.9870    7.2810   18.7520 H   0  0  0  0  0  0  0  0  0  0  0  0
    2.5410    7.7560   17.8350 H   0  0  0  0  0  0  0  0  0  0  0  0
    3.4770    5.7230   16.8470 H   0  0  0  0  0  0  0  0  0  0  0  0
    1.8780    5.4500   17.4920 H   0  0  0  0  0  0  0  0  0  0  0  0
    1.5790    8.0930   20.3010 C   0  0  0  0  0  0  0  0  0  0  0  0
    1.2520    9.1990   19.5040 C   0  0  0  0  0  0  0  0  0  0  0  0
    0.6560   10.3510   20.0430 C   0  0  0  0  0  0  0  0  0  0  0  0
    0.3620   10.4400   21.4070 C   0  0  0  0  0  0  0  0  0  0  0  0
    0.6820    9.3530   22.2150 C   0  0  0  0  0  0  0  0  0  0  0  0
    1.2800    8.2060   21.6670 C   0  0  0  0  0  0  0  0  0  0  0  0
    0.2700   11.7830   18.8490 Br  0  0  0  0  0  0  0  0  0  0  0  0
    1.4820    9.1890   18.4430 H   0  0  0  0  0  0  0  0  0  0  0  0
    0.4790    9.3500   23.2810 H   0  0  0  0  0  0  0  0  0  0  0  0
    1.4850    7.3800   22.3440 H   0  0  0  0  0  0  0  0  0  0  0  0
   -0.2190   11.5970   21.8500 O   0  0  0  0  0  0  0  0  0  0  0  0
   -1.1730   11.4960   22.8990 C   0  0  0  0  0  0  0  0  0  0  0  0
   -0.6530   11.1230   23.7870 H   0  0  0  0  0  0  0  0  0  0  0  0
   -1.9600   10.7780   22.6490 H   0  0  0  0  0  0  0  0  0  0  0  0
   -1.5930   12.4760   23.1470 H   0  0  0  0  0  0  0  0  0  0  0  0
    4.7390    4.1060   18.2790 C   0  0  0  0  0  0  0  0  0  0  0  0
    4.8350    3.7770   17.2390 H   0  0  0  0  0  0  0  0  0  0  0  0
    5.1040    3.3050   18.9320 H   0  0  0  0  0  0  0  0  0  0  0  0
    5.4000    4.9730   18.3960 H   0  0  0  0  0  0  0  0  0  0  0  0
  1  2  1  0  0  0  0
  2  3  1  0  0  0  0
  2  8  1  0  0  0  0
  2  7  1  0  0  0  0
  3 10  1  0  0  0  0
  4 15  1  0  0  0  0
  4  3  1  0  0  0  0
  5 11  1  0  0  0  0
  5  4  1  0  0  0  0
  6  5  1  0  0  0  0
  6  1  1  0  0  0  0
  9  3  1  0  0  0  0
 12  5  1  0  0  0  0
 13  6  1  0  0  0  0
 14  6  1  0  0  0  0
 15 20  1  0  0  0  0
 16 17  1  0  0  0  0
 16 15  2  0  0  0  0
 17 18  2  0  0  0  0
 18 25  1  0  0  0  0
 18 19  1  0  0  0  0
 19 23  1  0  0  0  0
 20 19  2  0  0  0  0
 20 24  1  0  0  0  0
 21 17  1  0  0  0  0
 22 16  1  0  0  0  0
 25 26  1  0  0  0  0
 26 29  1  0  0  0  0
 26 27  1  0  0  0  0
 28 26  1  0  0  0  0
 30 33  1  0  0  0  0
 30  1  1  0  0  0  0
 30 32  1  0  0  0  0
 31 30  1  0  0  0  0
M  END
>  <MODEL>
20

>  <REMARK>
 VINA RESULT:    -4.740      3.815      6.694
 INTER + INTRA:          -5.782
 INTER:                  -5.555
 INTRA:                  -0.227
 UNBOUND:                -0.211
  Name = 
  4 active torsions:
  status: ('A' for Active; 'I' for Inactive)
    1  A    between atoms: C_1  and  N_2
    2  A    between atoms: N_5  and  C_6
    3  A    between atoms: C_9  and  O_12
    4  A    between atoms: O_12  and  C_13
                            x       y       z     vdW  Elec       q    Type
                         _______ _______ _______ _____ _____    ______ ____

>  <TORSDO>
F 4

$$$$
=
 OpenBabel07192307433D

 33 34  0  0  0  0  0  0  0  0999 V2000
    4.4710    4.6850   18.1790 N   0  0  0  0  0  0  0  0  0  0  0  0
    3.7360    5.7060   17.4020 C   0  0  0  0  0  0  0  0  0  0  0  0
    3.4540    7.0140   18.1780 C   0  0  0  0  0  0  0  0  0  0  0  0
    2.6350    6.7400   19.3720 N   0  0  0  0  0  0  0  0  0  0  0  0
    2.7770    5.4000   19.9670 C   0  0  0  0  0  0  0  0  0  0  0  0
    4.1480    4.7720   19.6190 C   0  0  0  0  0  0  0  0  0  0  0  0
    4.3140    5.9420   16.5000 H   0  0  0  0  0  0  0  0  0  0  0  0
    2.7670    5.3060   17.0680 H   0  0  0  0  0  0  0  0  0  0  0  0
    4.3980    7.4880   18.4750 H   0  0  0  0  0  0  0  0  0  0  0  0
    2.9300    7.6920   17.4950 H   0  0  0  0  0  0  0  0  0  0  0  0
    1.9680    4.7540   19.6060 H   0  0  0  0  0  0  0  0  0  0  0  0
    2.7120    5.4510   21.0610 H   0  0  0  0  0  0  0  0  0  0  0  0
    4.2360    3.7930   20.1050 H   0  0  0  0  0  0  0  0  0  0  0  0
    4.9270    5.3960   20.0780 H   0  0  0  0  0  0  0  0  0  0  0  0
    1.8270    7.7070   19.9430 C   0  0  0  0  0  0  0  0  0  0  0  0
    1.5850    8.9360   19.3140 C   0  0  0  0  0  0  0  0  0  0  0  0
    0.7660    9.9190   19.8940 C   0  0  0  0  0  0  0  0  0  0  0  0
    0.1540    9.7060   21.1330 C   0  0  0  0  0  0  0  0  0  0  0  0
    0.3840    8.4920   21.7750 C   0  0  0  0  0  0  0  0  0  0  0  0
    1.2060    7.5170   21.1870 C   0  0  0  0  0  0  0  0  0  0  0  0
    0.5270   11.5450   18.9350 Br  0  0  0  0  0  0  0  0  0  0  0  0
    2.0560    9.1590   18.3620 H   0  0  0  0  0  0  0  0  0  0  0  0
   -0.0620    8.2570   22.7360 H   0  0  0  0  0  0  0  0  0  0  0  0
    1.3290    6.5800   21.7250 H   0  0  0  0  0  0  0  0  0  0  0  0
   -0.6290   10.7140   21.6270 O   0  0  0  0  0  0  0  0  0  0  0  0
   -0.9650   10.6710   23.0070 C   0  0  0  0  0  0  0  0  0  0  0  0
   -1.5220   11.5830   23.2440 H   0  0  0  0  0  0  0  0  0  0  0  0
   -0.0670   10.6590   23.6330 H   0  0  0  0  0  0  0  0  0  0  0  0
   -1.6160    9.8180   23.2300 H   0  0  0  0  0  0  0  0  0  0  0  0
    4.2160    3.3510   17.6430 C   0  0  0  0  0  0  0  0  0  0  0  0
    3.2560    2.9680   18.0060 H   0  0  0  0  0  0  0  0  0  0  0  0
    5.0000    2.6370   17.9180 H   0  0  0  0  0  0  0  0  0  0  0  0
    4.1480    3.3840   16.5500 H   0  0  0  0  0  0  0  0  0  0  0  0
  1  6  1  0  0  0  0
  2  3  1  0  0  0  0
  2  1  1  0  0  0  0
  3  9  1  0  0  0  0
  3  4  1  0  0  0  0
  4 15  1  0  0  0  0
  4  5  1  0  0  0  0
  5 12  1  0  0  0  0
  6  5  1  0  0  0  0
  6 14  1  0  0  0  0
  6 13  1  0  0  0  0
  7  2  1  0  0  0  0
  8  2  1  0  0  0  0
 10  3  1  0  0  0  0
 11  5  1  0  0  0  0
 15 20  1  0  0  0  0
 16 17  1  0  0  0  0
 16 15  2  0  0  0  0
 17 18  2  0  0  0  0
 18 25  1  0  0  0  0
 18 19  1  0  0  0  0
 19 23  1  0  0  0  0
 20 24  1  0  0  0  0
 20 19  2  0  0  0  0
 21 17  1  0  0  0  0
 22 16  1  0  0  0  0
 25 26  1  0  0  0  0
 26 29  1  0  0  0  0
 26 27  1  0  0  0  0
 26 28  1  0  0  0  0
 30 32  1  0  0  0  0
 30 31  1  0  0  0  0
 30  1  1  0  0  0  0
 33 30  1  0  0  0  0
M  END
>  <MODEL>
21

>  <REMARK>
 VINA RESULT:    -4.707      3.681      6.421
 INTER + INTRA:          -5.744
 INTER:                  -5.520
 INTRA:                  -0.223
 UNBOUND:                -0.211
  Name = 
  4 active torsions:
  status: ('A' for Active; 'I' for Inactive)
    1  A    between atoms: C_1  and  N_2
    2  A    between atoms: N_5  and  C_6
    3  A    between atoms: C_9  and  O_12
    4  A    between atoms: O_12  and  C_13
                            x       y       z     vdW  Elec       q    Type
                         _______ _______ _______ _____ _____    ______ ____

>  <TORSDO>
F 4

$$$$
=
 OpenBabel07192307433D

 33 34  0  0  0  0  0  0  0  0999 V2000
    7.3850    4.3960   14.1490 N   0  0  0  0  0  0  0  0  0  0  0  0
    7.6180    5.1380   15.4070 C   0  0  0  0  0  0  0  0  0  0  0  0
    6.9210    4.5240   16.6440 C   0  0  0  0  0  0  0  0  0  0  0  0
    5.4610    4.4910   16.4520 N   0  0  0  0  0  0  0  0  0  0  0  0
    4.9880    4.3920   15.0600 C   0  0  0  0  0  0  0  0  0  0  0  0
    6.0570    3.7460   14.1470 C   0  0  0  0  0  0  0  0  0  0  0  0
    8.6980    5.1840   15.5900 H   0  0  0  0  0  0  0  0  0  0  0  0
    7.2620    6.1740   15.3100 H   0  0  0  0  0  0  0  0  0  0  0  0
    7.2950    3.5080   16.8230 H   0  0  0  0  0  0  0  0  0  0  0  0
    7.1850    5.1440   17.5080 H   0  0  0  0  0  0  0  0  0  0  0  0
    4.7350    5.3920   14.6890 H   0  0  0  0  0  0  0  0  0  0  0  0
    4.0890    3.7660   14.9990 H   0  0  0  0  0  0  0  0  0  0  0  0
    5.6620    3.6530   13.1290 H   0  0  0  0  0  0  0  0  0  0  0  0
    6.2130    2.7150   14.4940 H   0  0  0  0  0  0  0  0  0  0  0  0
    4.5810    4.4890   17.5200 C   0  0  0  0  0  0  0  0  0  0  0  0
    3.4860    3.6150   17.5750 C   0  0  0  0  0  0  0  0  0  0  0  0
    2.5920    3.6140   18.6580 C   0  0  0  0  0  0  0  0  0  0  0  0
    2.7610    4.4910   19.7330 C   0  0  0  0  0  0  0  0  0  0  0  0
    3.8410    5.3680   19.6960 C   0  0  0  0  0  0  0  0  0  0  0  0
    4.7290    5.3620   18.6070 C   0  0  0  0  0  0  0  0  0  0  0  0
    1.1430    2.3790   18.6020 Br  0  0  0  0  0  0  0  0  0  0  0  0
    3.2970    2.9310   16.7540 H   0  0  0  0  0  0  0  0  0  0  0  0
    4.0370    6.0730   20.4980 H   0  0  0  0  0  0  0  0  0  0  0  0
    5.5670    6.0550   18.6450 H   0  0  0  0  0  0  0  0  0  0  0  0
    1.8450    4.4240   20.7480 O   0  0  0  0  0  0  0  0  0  0  0  0
    2.0880    3.4920   21.7940 C   0  0  0  0  0  0  0  0  0  0  0  0
    1.5640    3.8480   22.6870 H   0  0  0  0  0  0  0  0  0  0  0  0
    3.1540    3.4370   22.0350 H   0  0  0  0  0  0  0  0  0  0  0  0
    1.6860    2.5040   21.5440 H   0  0  0  0  0  0  0  0  0  0  0  0
    7.5620    5.2750   12.9960 C   0  0  0  0  0  0  0  0  0  0  0  0
    8.3800    5.9810   13.1730 H   0  0  0  0  0  0  0  0  0  0  0  0
    6.6540    5.8450   12.7660 H   0  0  0  0  0  0  0  0  0  0  0  0
    7.8360    4.6920   12.1090 H   0  0  0  0  0  0  0  0  0  0  0  0
  1  2  1  0  0  0  0
  2  7  1  0  0  0  0
  2  3  1  0  0  0  0
  3  9  1  0  0  0  0
  3 10  1  0  0  0  0
  4  3  1  0  0  0  0
  4 15  1  0  0  0  0
  5  4  1  0  0  0  0
  6  1  1  0  0  0  0
  6 14  1  0  0  0  0
  6  5  1  0  0  0  0
  8  2  1  0  0  0  0
 11  5  1  0  0  0  0
 12  5  1  0  0  0  0
 13  6  1  0  0  0  0
 15 16  2  0  0  0  0
 15 20  1  0  0  0  0
 16 17  1  0  0  0  0
 17 18  2  0  0  0  0
 18 25  1  0  0  0  0
 19 18  1  0  0  0  0
 19 23  1  0  0  0  0
 20 24  1  0  0  0  0
 20 19  2  0  0  0  0
 21 17  1  0  0  0  0
 22 16  1  0  0  0  0
 25 26  1  0  0  0  0
 26 28  1  0  0  0  0
 26 27  1  0  0  0  0
 29 26  1  0  0  0  0
 30 31  1  0  0  0  0
 30  1  1  0  0  0  0
 32 30  1  0  0  0  0
 33 30  1  0  0  0  0
M  END
>  <MODEL>
22

>  <REMARK>
 VINA RESULT:    -4.695      4.124      6.106
 INTER + INTRA:          -5.729
 INTER:                  -5.638
 INTRA:                  -0.090
 UNBOUND:                -0.211
  Name = 
  4 active torsions:
  status: ('A' for Active; 'I' for Inactive)
    1  A    between atoms: C_1  and  N_2
    2  A    between atoms: N_5  and  C_6
    3  A    between atoms: C_9  and  O_12
    4  A    between atoms: O_12  and  C_13
                            x       y       z     vdW  Elec       q    Type
                         _______ _______ _______ _____ _____    ______ ____

>  <TORSDO>
F 4

$$$$
=
 OpenBabel07192307433D

 33 34  0  0  0  0  0  0  0  0999 V2000
    0.5470   10.0920   19.7720 N   0  0  0  0  0  0  0  0  0  0  0  0
    0.5820    8.7240   20.3340 C   0  0  0  0  0  0  0  0  0  0  0  0
    1.9250    7.9870   20.1260 C   0  0  0  0  0  0  0  0  0  0  0  0
    2.2210    7.8460   18.6900 N   0  0  0  0  0  0  0  0  0  0  0  0
    1.6630    8.8830   17.8040 C   0  0  0  0  0  0  0  0  0  0  0  0
    1.4060   10.2010   18.5730 C   0  0  0  0  0  0  0  0  0  0  0  0
    0.3680    8.7830   21.4080 H   0  0  0  0  0  0  0  0  0  0  0  0
   -0.2070    8.1060   19.8810 H   0  0  0  0  0  0  0  0  0  0  0  0
    2.7370    8.5330   20.6210 H   0  0  0  0  0  0  0  0  0  0  0  0
    1.8340    7.0030   20.6020 H   0  0  0  0  0  0  0  0  0  0  0  0
    0.7270    8.5200   17.3630 H   0  0  0  0  0  0  0  0  0  0  0  0
    2.3590    9.1140   16.9890 H   0  0  0  0  0  0  0  0  0  0  0  0
    1.0250   10.9610   17.8810 H   0  0  0  0  0  0  0  0  0  0  0  0
    2.3770   10.5810   18.9180 H   0  0  0  0  0  0  0  0  0  0  0  0
    3.0320    6.8360   18.2040 C   0  0  0  0  0  0  0  0  0  0  0  0
    4.3950    7.0390   17.9460 C   0  0  0  0  0  0  0  0  0  0  0  0
    5.2170    6.0140   17.4500 C   0  0  0  0  0  0  0  0  0  0  0  0
    4.7040    4.7390   17.1950 C   0  0  0  0  0  0  0  0  0  0  0  0
    3.3520    4.5180   17.4430 C   0  0  0  0  0  0  0  0  0  0  0  0
    2.5380    5.5500   17.9360 C   0  0  0  0  0  0  0  0  0  0  0  0
    7.0490    6.4290   17.1380 Br  0  0  0  0  0  0  0  0  0  0  0  0
    4.8360    8.0180   18.1060 H   0  0  0  0  0  0  0  0  0  0  0  0
    2.8870    3.5520   17.2720 H   0  0  0  0  0  0  0  0  0  0  0  0
    1.4960    5.3110   18.1320 H   0  0  0  0  0  0  0  0  0  0  0  0
    5.5740    3.7970   16.7140 O   0  0  0  0  0  0  0  0  0  0  0  0
    5.7720    3.7400   15.3090 C   0  0  0  0  0  0  0  0  0  0  0  0
    5.9830    2.6990   15.0430 H   0  0  0  0  0  0  0  0  0  0  0  0
    6.6360    4.3410   15.0060 H   0  0  0  0  0  0  0  0  0  0  0  0
    4.8690    4.0440   14.7690 H   0  0  0  0  0  0  0  0  0  0  0  0
   -0.8280   10.4970   19.4940 C   0  0  0  0  0  0  0  0  0  0  0  0
   -1.5340    9.7510   19.8770 H   0  0  0  0  0  0  0  0  0  0  0  0
   -1.0130   10.6310   18.4220 H   0  0  0  0  0  0  0  0  0  0  0  0
   -1.0600   11.4390   20.0040 H   0  0  0  0  0  0  0  0  0  0  0  0
  1  2  1  0  0  0  0
  2  7  1  0  0  0  0
  3  2  1  0  0  0  0
  3 10  1  0  0  0  0
  3  9  1  0  0  0  0
  4  3  1  0  0  0  0
  5  6  1  0  0  0  0
  5  4  1  0  0  0  0
  6 14  1  0  0  0  0
  6  1  1  0  0  0  0
  8  2  1  0  0  0  0
 11  5  1  0  0  0  0
 12  5  1  0  0  0  0
 13  6  1  0  0  0  0
 15  4  1  0  0  0  0
 16 22  1  0  0  0  0
 16 15  1  0  0  0  0
 17 16  2  0  0  0  0
 18 19  2  0  0  0  0
 18 17  1  0  0  0  0
 19 20  1  0  0  0  0
 20 24  1  0  0  0  0
 20 15  2  0  0  0  0
 21 17  1  0  0  0  0
 23 19  1  0  0  0  0
 25 18  1  0  0  0  0
 26 25  1  0  0  0  0
 27 26  1  0  0  0  0
 28 26  1  0  0  0  0
 29 26  1  0  0  0  0
 30  1  1  0  0  0  0
 30 31  1  0  0  0  0
 30 33  1  0  0  0  0
 32 30  1  0  0  0  0
M  END
>  <MODEL>
23

>  <REMARK>
 VINA RESULT:    -4.694      2.474      3.081
 INTER + INTRA:          -5.728
 INTER:                  -5.668
 INTRA:                  -0.060
 UNBOUND:                -0.211
  Name = 
  4 active torsions:
  status: ('A' for Active; 'I' for Inactive)
    1  A    between atoms: C_1  and  N_2
    2  A    between atoms: N_5  and  C_6
    3  A    between atoms: C_9  and  O_12
    4  A    between atoms: O_12  and  C_13
                            x       y       z     vdW  Elec       q    Type
                         _______ _______ _______ _____ _____    ______ ____

>  <TORSDO>
F 4

$$$$
=
 OpenBabel07192307433D

 33 34  0  0  0  0  0  0  0  0999 V2000
    6.4170    4.2500   14.9900 N   0  0  0  0  0  0  0  0  0  0  0  0
    6.1430    5.7030   14.9520 C   0  0  0  0  0  0  0  0  0  0  0  0
    5.7890    6.3180   16.3260 C   0  0  0  0  0  0  0  0  0  0  0  0
    4.5780    5.6870   16.8790 N   0  0  0  0  0  0  0  0  0  0  0  0
    4.3210    4.2960   16.4660 C   0  0  0  0  0  0  0  0  0  0  0  0
    5.6290    3.5830   16.0470 C   0  0  0  0  0  0  0  0  0  0  0  0
    7.0250    6.2140   14.5470 H   0  0  0  0  0  0  0  0  0  0  0  0
    5.3060    5.9150   14.2710 H   0  0  0  0  0  0  0  0  0  0  0  0
    6.6260    6.1900   17.0240 H   0  0  0  0  0  0  0  0  0  0  0  0
    5.6320    7.3920   16.1720 H   0  0  0  0  0  0  0  0  0  0  0  0
    3.6080    4.2890   15.6340 H   0  0  0  0  0  0  0  0  0  0  0  0
    3.8880    3.7190   17.2930 H   0  0  0  0  0  0  0  0  0  0  0  0
    5.4090    2.5420   15.7810 H   0  0  0  0  0  0  0  0  0  0  0  0
    6.2770    3.5280   16.9330 H   0  0  0  0  0  0  0  0  0  0  0  0
    3.7600    6.3390   17.7840 C   0  0  0  0  0  0  0  0  0  0  0  0
    3.2110    7.6010   17.5120 C   0  0  0  0  0  0  0  0  0  0  0  0
    2.3830    8.2640   18.4320 C   0  0  0  0  0  0  0  0  0  0  0  0
    2.0700    7.6860   19.6660 C   0  0  0  0  0  0  0  0  0  0  0  0
    2.6070    6.4350   19.9560 C   0  0  0  0  0  0  0  0  0  0  0  0
    3.4360    5.7810   19.0300 C   0  0  0  0  0  0  0  0  0  0  0  0
    1.7100    9.9740   17.9360 Br  0  0  0  0  0  0  0  0  0  0  0  0
    3.4430    8.1020   16.5770 H   0  0  0  0  0  0  0  0  0  0  0  0
    2.4030    5.9250   20.8920 H   0  0  0  0  0  0  0  0  0  0  0  0
    3.8070    4.7960   19.3030 H   0  0  0  0  0  0  0  0  0  0  0  0
    1.2550    8.3990   20.5030 O   0  0  0  0  0  0  0  0  0  0  0  0
    0.6190    7.6940   21.5610 C   0  0  0  0  0  0  0  0  0  0  0  0
    1.0860    8.0080   22.5000 H   0  0  0  0  0  0  0  0  0  0  0  0
    0.7660    6.6140   21.4610 H   0  0  0  0  0  0  0  0  0  0  0  0
   -0.4460    7.9450   21.6190 H   0  0  0  0  0  0  0  0  0  0  0  0
    6.1850    3.6510   13.6780 C   0  0  0  0  0  0  0  0  0  0  0  0
    5.2710    4.0520   13.2280 H   0  0  0  0  0  0  0  0  0  0  0  0
    6.0960    2.5600   13.7310 H   0  0  0  0  0  0  0  0  0  0  0  0
    7.0060    3.8960   12.9950 H   0  0  0  0  0  0  0  0  0  0  0  0
  1  6  1  0  0  0  0
  2  1  1  0  0  0  0
  2  3  1  0  0  0  0
  3  4  1  0  0  0  0
  3  9  1  0  0  0  0
  4 15  1  0  0  0  0
  5  4  1  0  0  0  0
  5 12  1  0  0  0  0
  6  5  1  0  0  0  0
  6 14  1  0  0  0  0
  7  2  1  0  0  0  0
  8  2  1  0  0  0  0
 10  3  1  0  0  0  0
 11  5  1  0  0  0  0
 13  6  1  0  0  0  0
 15 20  1  0  0  0  0
 16 15  2  0  0  0  0
 16 17  1  0  0  0  0
 17 18  2  0  0  0  0
 18 19  1  0  0  0  0
 18 25  1  0  0  0  0
 19 23  1  0  0  0  0
 20 24  1  0  0  0  0
 20 19  2  0  0  0  0
 21 17  1  0  0  0  0
 22 16  1  0  0  0  0
 25 26  1  0  0  0  0
 26 29  1  0  0  0  0
 26 27  1  0  0  0  0
 28 26  1  0  0  0  0
 30 32  1  0  0  0  0
 30  1  1  0  0  0  0
 31 30  1  0  0  0  0
 33 30  1  0  0  0  0
M  END
>  <MODEL>
24

>  <REMARK>
 VINA RESULT:    -4.515      3.864      6.292
 INTER + INTRA:          -5.517
 INTER:                  -5.304
 INTRA:                  -0.213
 UNBOUND:                -0.211
  Name = 
  4 active torsions:
  status: ('A' for Active; 'I' for Inactive)
    1  A    between atoms: C_1  and  N_2
    2  A    between atoms: N_5  and  C_6
    3  A    between atoms: C_9  and  O_12
    4  A    between atoms: O_12  and  C_13
                            x       y       z     vdW  Elec       q    Type
                         _______ _______ _______ _____ _____    ______ ____

>  <TORSDO>
F 4

$$$$
=
 OpenBabel07192307433D

 33 34  0  0  0  0  0  0  0  0999 V2000
    1.0990    2.9470   20.3520 N   0  0  0  0  0  0  0  0  0  0  0  0
    1.2670    4.4060   20.5270 C   0  0  0  0  0  0  0  0  0  0  0  0
    2.0500    5.0960   19.3850 C   0  0  0  0  0  0  0  0  0  0  0  0
    3.4090    4.5370   19.2780 N   0  0  0  0  0  0  0  0  0  0  0  0
    3.5750    3.1390   19.7130 C   0  0  0  0  0  0  0  0  0  0  0  0
    2.2420    2.3590   19.6220 C   0  0  0  0  0  0  0  0  0  0  0  0
    0.2740    4.8650   20.6090 H   0  0  0  0  0  0  0  0  0  0  0  0
    1.7990    4.6190   21.4650 H   0  0  0  0  0  0  0  0  0  0  0  0
    1.5200    4.9690   18.4330 H   0  0  0  0  0  0  0  0  0  0  0  0
    2.0880    6.1670   19.6160 H   0  0  0  0  0  0  0  0  0  0  0  0
    3.9490    3.1200   20.7440 H   0  0  0  0  0  0  0  0  0  0  0  0
    4.3000    2.6170   19.0770 H   0  0  0  0  0  0  0  0  0  0  0  0
    2.4060    1.3160   19.9180 H   0  0  0  0  0  0  0  0  0  0  0  0
    1.9500    2.3190   18.5640 H   0  0  0  0  0  0  0  0  0  0  0  0
    4.4580    5.2590   18.7390 C   0  0  0  0  0  0  0  0  0  0  0  0
    5.7620    5.1610   19.2450 C   0  0  0  0  0  0  0  0  0  0  0  0
    6.8270    5.8960   18.7000 C   0  0  0  0  0  0  0  0  0  0  0  0
    6.6270    6.7610   17.6210 C   0  0  0  0  0  0  0  0  0  0  0  0
    5.3390    6.8750   17.1050 C   0  0  0  0  0  0  0  0  0  0  0  0
    4.2800    6.1370   17.6590 C   0  0  0  0  0  0  0  0  0  0  0  0
    8.5460    5.6710   19.4880 Br  0  0  0  0  0  0  0  0  0  0  0  0
    5.9650    4.5200   20.0980 H   0  0  0  0  0  0  0  0  0  0  0  0
    5.1110    7.5240   16.2660 H   0  0  0  0  0  0  0  0  0  0  0  0
    3.3010    6.2500   17.1990 H   0  0  0  0  0  0  0  0  0  0  0  0
    7.7190    7.4390   17.1490 O   0  0  0  0  0  0  0  0  0  0  0  0
    7.9870    8.7210   17.6990 C   0  0  0  0  0  0  0  0  0  0  0  0
    9.0720    8.8670   17.6950 H   0  0  0  0  0  0  0  0  0  0  0  0
    7.6480    8.7840   18.7380 H   0  0  0  0  0  0  0  0  0  0  0  0
    7.5430    9.5150   17.0880 H   0  0  0  0  0  0  0  0  0  0  0  0
    0.8850    2.2980   21.6430 C   0  0  0  0  0  0  0  0  0  0  0  0
    0.3900    2.9820   22.3400 H   0  0  0  0  0  0  0  0  0  0  0  0
    1.8230    1.9580   22.0960 H   0  0  0  0  0  0  0  0  0  0  0  0
    0.2240    1.4320   21.5300 H   0  0  0  0  0  0  0  0  0  0  0  0
  1  2  1  0  0  0  0
  1 30  1  0  0  0  0
  2  7  1  0  0  0  0
  2  8  1  0  0  0  0
  3 10  1  0  0  0  0
  3  2  1  0  0  0  0
  4  3  1  0  0  0  0
  4  5  1  0  0  0  0
  5 11  1  0  0  0  0
  6  5  1  0  0  0  0
  6 13  1  0  0  0  0
  6  1  1  0  0  0  0
  9  3  1  0  0  0  0
 12  5  1  0  0  0  0
 14  6  1  0  0  0  0
 15 16  1  0  0  0  0
 15  4  1  0  0  0  0
 16 22  1  0  0  0  0
 17 16  2  0  0  0  0
 17 21  1  0  0  0  0
 18 17  1  0  0  0  0
 19 18  2  0  0  0  0
 19 20  1  0  0  0  0
 20 15  2  0  0  0  0
 23 19  1  0  0  0  0
 24 20  1  0  0  0  0
 25 18  1  0  0  0  0
 25 26  1  0  0  0  0
 26 28  1  0  0  0  0
 27 26  1  0  0  0  0
 29 26  1  0  0  0  0
 30 32  1  0  0  0  0
 30 31  1  0  0  0  0
 33 30  1  0  0  0  0
M  END
>  <MODEL>
25

>  <REMARK>
 VINA RESULT:    -4.408      4.174      5.860
 INTER + INTRA:          -5.392
 INTER:                  -5.268
 INTRA:                  -0.124
 UNBOUND:                -0.211
  Name = 
  4 active torsions:
  status: ('A' for Active; 'I' for Inactive)
    1  A    between atoms: C_1  and  N_2
    2  A    between atoms: N_5  and  C_6
    3  A    between atoms: C_9  and  O_12
    4  A    between atoms: O_12  and  C_13
                            x       y       z     vdW  Elec       q    Type
                         _______ _______ _______ _____ _____    ______ ____

>  <TORSDO>
F 4

$$$$
=
 OpenBabel07192307433D

 33 34  0  0  0  0  0  0  0  0999 V2000
   -2.7590   13.5930   22.5200 N   0  0  0  0  0  0  0  0  0  0  0  0
   -2.7740   12.2530   23.1460 C   0  0  0  0  0  0  0  0  0  0  0  0
   -1.4280   11.4970   23.0590 C   0  0  0  0  0  0  0  0  0  0  0  0
   -1.0420   11.2880   21.6530 N   0  0  0  0  0  0  0  0  0  0  0  0
   -1.5320   12.2860   20.6870 C   0  0  0  0  0  0  0  0  0  0  0  0
   -1.8240   13.6410   21.3760 C   0  0  0  0  0  0  0  0  0  0  0  0
   -3.0560   12.3630   24.2000 H   0  0  0  0  0  0  0  0  0  0  0  0
   -3.5380   11.6200   22.6720 H   0  0  0  0  0  0  0  0  0  0  0  0
   -0.6440   12.0600   23.5800 H   0  0  0  0  0  0  0  0  0  0  0  0
   -1.5590   10.5370   23.5720 H   0  0  0  0  0  0  0  0  0  0  0  0
   -2.4400   11.9100   20.2030 H   0  0  0  0  0  0  0  0  0  0  0  0
   -0.7820   12.4750   19.9080 H   0  0  0  0  0  0  0  0  0  0  0  0
   -2.1510   14.3710   20.6260 H   0  0  0  0  0  0  0  0  0  0  0  0
   -0.8730   14.0290   21.7650 H   0  0  0  0  0  0  0  0  0  0  0  0
   -0.2120   10.2500   21.2670 C   0  0  0  0  0  0  0  0  0  0  0  0
    0.3650   10.1990   19.9900 C   0  0  0  0  0  0  0  0  0  0  0  0
    1.2050    9.1440   19.5970 C   0  0  0  0  0  0  0  0  0  0  0  0
    1.5020    8.0960   20.4730 C   0  0  0  0  0  0  0  0  0  0  0  0
    0.9370    8.1270   21.7450 C   0  0  0  0  0  0  0  0  0  0  0  0
    0.0960    9.1850   22.1270 C   0  0  0  0  0  0  0  0  0  0  0  0
    1.9170    9.1970   17.8330 Br  0  0  0  0  0  0  0  0  0  0  0  0
    0.1470   10.9770   19.2660 H   0  0  0  0  0  0  0  0  0  0  0  0
    1.1270    7.3500   22.4780 H   0  0  0  0  0  0  0  0  0  0  0  0
   -0.2970    9.1670   23.1400 H   0  0  0  0  0  0  0  0  0  0  0  0
    2.3300    7.1080   20.0110 O   0  0  0  0  0  0  0  0  0  0  0  0
    1.9970    5.7650   20.3330 C   0  0  0  0  0  0  0  0  0  0  0  0
    0.9690    5.7560   20.7090 H   0  0  0  0  0  0  0  0  0  0  0  0
    2.6440    5.3770   21.1270 H   0  0  0  0  0  0  0  0  0  0  0  0
    2.0310    5.1250   19.4450 H   0  0  0  0  0  0  0  0  0  0  0  0
   -4.1090   13.9950   22.1360 C   0  0  0  0  0  0  0  0  0  0  0  0
   -4.6850   14.2990   23.0170 H   0  0  0  0  0  0  0  0  0  0  0  0
   -4.6520   13.1900   21.6270 H   0  0  0  0  0  0  0  0  0  0  0  0
   -4.0750   14.8630   21.4690 H   0  0  0  0  0  0  0  0  0  0  0  0
  1  2  1  0  0  0  0
  2  7  1  0  0  0  0
  3  2  1  0  0  0  0
  3 10  1  0  0  0  0
  3  9  1  0  0  0  0
  4  3  1  0  0  0  0
  5  6  1  0  0  0  0
  5  4  1  0  0  0  0
  6 14  1  0  0  0  0
  6  1  1  0  0  0  0
  8  2  1  0  0  0  0
 11  5  1  0  0  0  0
 12  5  1  0  0  0  0
 13  6  1  0  0  0  0
 15  4  1  0  0  0  0
 15 20  1  0  0  0  0
 16 15  2  0  0  0  0
 17 16  1  0  0  0  0
 17 18  2  0  0  0  0
 18 19  1  0  0  0  0
 19 20  2  0  0  0  0
 19 23  1  0  0  0  0
 20 24  1  0  0  0  0
 21 17  1  0  0  0  0
 22 16  1  0  0  0  0
 25 26  1  0  0  0  0
 25 18  1  0  0  0  0
 26 27  1  0  0  0  0
 26 28  1  0  0  0  0
 29 26  1  0  0  0  0
 30  1  1  0  0  0  0
 30 31  1  0  0  0  0
 32 30  1  0  0  0  0
 33 30  1  0  0  0  0
M  END
>  <MODEL>
26

>  <REMARK>
 VINA RESULT:    -4.407      3.865      5.644
 INTER + INTRA:          -5.391
 INTER:                  -5.160
 INTRA:                  -0.230
 UNBOUND:                -0.211
  Name = 
  4 active torsions:
  status: ('A' for Active; 'I' for Inactive)
    1  A    between atoms: C_1  and  N_2
    2  A    between atoms: N_5  and  C_6
    3  A    between atoms: C_9  and  O_12
    4  A    between atoms: O_12  and  C_13
                            x       y       z     vdW  Elec       q    Type
                         _______ _______ _______ _____ _____    ______ ____

>  <TORSDO>
F 4

$$$$
=
 OpenBabel07192307433D

 33 34  0  0  0  0  0  0  0  0999 V2000
   -3.4620   14.0340   23.6250 N   0  0  0  0  0  0  0  0  0  0  0  0
   -2.6620   14.6270   22.5310 C   0  0  0  0  0  0  0  0  0  0  0  0
   -2.5570   13.7390   21.2690 C   0  0  0  0  0  0  0  0  0  0  0  0
   -1.9170   12.4520   21.5940 N   0  0  0  0  0  0  0  0  0  0  0  0
   -2.0890   11.9680   22.9750 C   0  0  0  0  0  0  0  0  0  0  0  0
   -3.3640   12.5590   23.6230 C   0  0  0  0  0  0  0  0  0  0  0  0
   -3.1060   15.5900   22.2550 H   0  0  0  0  0  0  0  0  0  0  0  0
   -1.6370   14.8310   22.8760 H   0  0  0  0  0  0  0  0  0  0  0  0
   -3.5540   13.5620   20.8470 H   0  0  0  0  0  0  0  0  0  0  0  0
   -1.9640   14.2910   20.5300 H   0  0  0  0  0  0  0  0  0  0  0  0
   -1.2090   12.2390   23.5690 H   0  0  0  0  0  0  0  0  0  0  0  0
   -2.1930   10.8760   22.9940 H   0  0  0  0  0  0  0  0  0  0  0  0
   -3.4830   12.1530   24.6350 H   0  0  0  0  0  0  0  0  0  0  0  0
   -4.2290   12.1890   23.0560 H   0  0  0  0  0  0  0  0  0  0  0  0
   -1.2460   11.7060   20.6410 C   0  0  0  0  0  0  0  0  0  0  0  0
   -1.8710   11.2780   19.4610 C   0  0  0  0  0  0  0  0  0  0  0  0
   -1.1910   10.5190   18.4950 C   0  0  0  0  0  0  0  0  0  0  0  0
    0.1480   10.1580   18.6740 C   0  0  0  0  0  0  0  0  0  0  0  0
    0.7850   10.5710   19.8410 C   0  0  0  0  0  0  0  0  0  0  0  0
    0.0950   11.3280   20.8010 C   0  0  0  0  0  0  0  0  0  0  0  0
   -2.1610    9.9990   16.9410 Br  0  0  0  0  0  0  0  0  0  0  0  0
   -2.9160   11.5120   19.2860 H   0  0  0  0  0  0  0  0  0  0  0  0
    1.8240   10.3310   20.0440 H   0  0  0  0  0  0  0  0  0  0  0  0
    0.6520   11.6410   21.6810 H   0  0  0  0  0  0  0  0  0  0  0  0
    0.7360    9.4180   17.6830 O   0  0  0  0  0  0  0  0  0  0  0  0
    1.9800    8.7980   17.9750 C   0  0  0  0  0  0  0  0  0  0  0  0
    2.2530    9.0620   19.0020 H   0  0  0  0  0  0  0  0  0  0  0  0
    2.7720    9.1690   17.3160 H   0  0  0  0  0  0  0  0  0  0  0  0
    1.9010    7.7070   17.9230 H   0  0  0  0  0  0  0  0  0  0  0  0
   -3.0720   14.6050   24.9110 C   0  0  0  0  0  0  0  0  0  0  0  0
   -3.2130   15.6910   24.9100 H   0  0  0  0  0  0  0  0  0  0  0  0
   -2.0250   14.3910   25.1590 H   0  0  0  0  0  0  0  0  0  0  0  0
   -3.7030   14.2070   25.7140 H   0  0  0  0  0  0  0  0  0  0  0  0
  1 30  1  0  0  0  0
  2  8  1  0  0  0  0
  2  1  1  0  0  0  0
  3  4  1  0  0  0  0
  3  2  1  0  0  0  0
  4  5  1  0  0  0  0
  5 12  1  0  0  0  0
  5 11  1  0  0  0  0
  5  6  1  0  0  0  0
  6  1  1  0  0  0  0
  6 13  1  0  0  0  0
  7  2  1  0  0  0  0
  9  3  1  0  0  0  0
 10  3  1  0  0  0  0
 14  6  1  0  0  0  0
 15 20  1  0  0  0  0
 15  4  1  0  0  0  0
 16 15  2  0  0  0  0
 17 18  2  0  0  0  0
 17 16  1  0  0  0  0
 18 19  1  0  0  0  0
 19 23  1  0  0  0  0
 19 20  2  0  0  0  0
 20 24  1  0  0  0  0
 21 17  1  0  0  0  0
 22 16  1  0  0  0  0
 25 26  1  0  0  0  0
 25 18  1  0  0  0  0
 26 27  1  0  0  0  0
 28 26  1  0  0  0  0
 29 26  1  0  0  0  0
 30 32  1  0  0  0  0
 30 33  1  0  0  0  0
 31 30  1  0  0  0  0
M  END
>  <MODEL>
27

>  <REMARK>
 VINA RESULT:    -4.116      5.027      7.157
 INTER + INTRA:          -5.048
 INTER:                  -4.852
 INTRA:                  -0.197
 UNBOUND:                -0.211
  Name = 
  4 active torsions:
  status: ('A' for Active; 'I' for Inactive)
    1  A    between atoms: C_1  and  N_2
    2  A    between atoms: N_5  and  C_6
    3  A    between atoms: C_9  and  O_12
    4  A    between atoms: O_12  and  C_13
                            x       y       z     vdW  Elec       q    Type
                         _______ _______ _______ _____ _____    ______ ____

>  <TORSDO>
F 4

$$$$
=
 OpenBabel07192307433D

 33 34  0  0  0  0  0  0  0  0999 V2000
   -3.8700   14.0460   23.7520 N   0  0  0  0  0  0  0  0  0  0  0  0
   -3.9460   14.7250   22.4400 C   0  0  0  0  0  0  0  0  0  0  0  0
   -4.2800   13.7850   21.2580 C   0  0  0  0  0  0  0  0  0  0  0  0
   -3.2490   12.7420   21.1190 N   0  0  0  0  0  0  0  0  0  0  0  0
   -2.5420   12.3550   22.3530 C   0  0  0  0  0  0  0  0  0  0  0  0
   -3.3980   12.6520   23.6080 C   0  0  0  0  0  0  0  0  0  0  0  0
   -4.7070   15.5120   22.4980 H   0  0  0  0  0  0  0  0  0  0  0  0
   -2.9900   15.2170   22.2090 H   0  0  0  0  0  0  0  0  0  0  0  0
   -5.2610   13.3200   21.4100 H   0  0  0  0  0  0  0  0  0  0  0  0
   -4.3300   14.4040   20.3540 H   0  0  0  0  0  0  0  0  0  0  0  0
   -1.5910   12.8960   22.4140 H   0  0  0  0  0  0  0  0  0  0  0  0
   -2.3260   11.2800   22.3570 H   0  0  0  0  0  0  0  0  0  0  0  0
   -2.8610   12.3210   24.5050 H   0  0  0  0  0  0  0  0  0  0  0  0
   -4.2960   12.0220   23.5560 H   0  0  0  0  0  0  0  0  0  0  0  0
   -3.0000   12.1130   19.9130 C   0  0  0  0  0  0  0  0  0  0  0  0
   -1.7710   11.4960   19.6390 C   0  0  0  0  0  0  0  0  0  0  0  0
   -1.5170   10.8590   18.4130 C   0  0  0  0  0  0  0  0  0  0  0  0
   -2.4900   10.8140   17.4100 C   0  0  0  0  0  0  0  0  0  0  0  0
   -3.7160   11.4230   17.6620 C   0  0  0  0  0  0  0  0  0  0  0  0
   -3.9590   12.0580   18.8900 C   0  0  0  0  0  0  0  0  0  0  0  0
    0.1970   10.0680   18.1710 Br  0  0  0  0  0  0  0  0  0  0  0  0
   -0.9750   11.5240   20.3760 H   0  0  0  0  0  0  0  0  0  0  0  0
   -4.5190   11.4220   16.9310 H   0  0  0  0  0  0  0  0  0  0  0  0
   -4.9430   12.4960   19.0380 H   0  0  0  0  0  0  0  0  0  0  0  0
   -2.1610   10.1720   16.2460 O   0  0  0  0  0  0  0  0  0  0  0  0
   -2.9320   10.4700   15.0900 C   0  0  0  0  0  0  0  0  0  0  0  0
   -3.9120    9.9960   15.2100 H   0  0  0  0  0  0  0  0  0  0  0  0
   -2.4700   10.0530   14.1890 H   0  0  0  0  0  0  0  0  0  0  0  0
   -3.0960   11.5480   14.9900 H   0  0  0  0  0  0  0  0  0  0  0  0
   -3.0370   14.8100   24.6760 C   0  0  0  0  0  0  0  0  0  0  0  0
   -3.5810   15.0170   25.6040 H   0  0  0  0  0  0  0  0  0  0  0  0
   -2.7080   15.7640   24.2470 H   0  0  0  0  0  0  0  0  0  0  0  0
   -2.1470   14.2340   24.9550 H   0  0  0  0  0  0  0  0  0  0  0  0
  1 30  1  0  0  0  0
  2  7  1  0  0  0  0
  2  1  1  0  0  0  0
  3  9  1  0  0  0  0
  3  2  1  0  0  0  0
  4  3  1  0  0  0  0
  4  5  1  0  0  0  0
  5 12  1  0  0  0  0
  5 11  1  0  0  0  0
  5  6  1  0  0  0  0
  6  1  1  0  0  0  0
  6 13  1  0  0  0  0
  8  2  1  0  0  0  0
 10  3  1  0  0  0  0
 14  6  1  0  0  0  0
 15  4  1  0  0  0  0
 16 15  1  0  0  0  0
 16 22  1  0  0  0  0
 17 16  2  0  0  0  0
 18 19  2  0  0  0  0
 18 17  1  0  0  0  0
 19 20  1  0  0  0  0
 20 24  1  0  0  0  0
 20 15  2  0  0  0  0
 21 17  1  0  0  0  0
 23 19  1  0  0  0  0
 25 18  1  0  0  0  0
 26 27  1  0  0  0  0
 26 25  1  0  0  0  0
 28 26  1  0  0  0  0
 29 26  1  0  0  0  0
 30 33  1  0  0  0  0
 30 31  1  0  0  0  0
 32 30  1  0  0  0  0
M  END
>  <MODEL>
28

>  <REMARK>
 VINA RESULT:    -3.965      6.840      8.424
 INTER + INTRA:          -4.871
 INTER:                  -4.659
 INTRA:                  -0.212
 UNBOUND:                -0.211
  Name = 
  4 active torsions:
  status: ('A' for Active; 'I' for Inactive)
    1  A    between atoms: C_1  and  N_2
    2  A    between atoms: N_5  and  C_6
    3  A    between atoms: C_9  and  O_12
    4  A    between atoms: O_12  and  C_13
                            x       y       z     vdW  Elec       q    Type
                         _______ _______ _______ _____ _____    ______ ____

>  <TORSDO>
F 4

$$$$
=
 OpenBabel07192307433D

 33 34  0  0  0  0  0  0  0  0999 V2000
   -3.6850   14.2470   23.6810 N   0  0  0  0  0  0  0  0  0  0  0  0
   -3.7290   12.7680   23.6770 C   0  0  0  0  0  0  0  0  0  0  0  0
   -2.4440   12.0980   23.1390 C   0  0  0  0  0  0  0  0  0  0  0  0
   -2.1930   12.5030   21.7450 N   0  0  0  0  0  0  0  0  0  0  0  0
   -2.7020   13.8280   21.3500 C   0  0  0  0  0  0  0  0  0  0  0  0
   -2.8510   14.7620   22.5750 C   0  0  0  0  0  0  0  0  0  0  0  0
   -3.9120   12.4220   24.7010 H   0  0  0  0  0  0  0  0  0  0  0  0
   -4.5680   12.4130   23.0610 H   0  0  0  0  0  0  0  0  0  0  0  0
   -1.5850   12.3690   23.7650 H   0  0  0  0  0  0  0  0  0  0  0  0
   -2.5890   11.0130   23.2080 H   0  0  0  0  0  0  0  0  0  0  0  0
   -3.6700   13.7120   20.8490 H   0  0  0  0  0  0  0  0  0  0  0  0
   -2.0120   14.3180   20.6520 H   0  0  0  0  0  0  0  0  0  0  0  0
   -3.1970   15.7490   22.2430 H   0  0  0  0  0  0  0  0  0  0  0  0
   -1.8480   14.9290   22.9910 H   0  0  0  0  0  0  0  0  0  0  0  0
   -1.4640   11.7150   20.8720 C   0  0  0  0  0  0  0  0  0  0  0  0
   -0.6550   10.6630   21.3240 C   0  0  0  0  0  0  0  0  0  0  0  0
    0.0870    9.8640   20.4390 C   0  0  0  0  0  0  0  0  0  0  0  0
    0.0450   10.0880   19.0590 C   0  0  0  0  0  0  0  0  0  0  0  0
   -0.7510   11.1300   18.5910 C   0  0  0  0  0  0  0  0  0  0  0  0
   -1.4870   11.9240   19.4860 C   0  0  0  0  0  0  0  0  0  0  0  0
    1.1490    8.4730   21.1870 Br  0  0  0  0  0  0  0  0  0  0  0  0
   -0.5700   10.4630   22.3880 H   0  0  0  0  0  0  0  0  0  0  0  0
   -0.8340   11.3580   17.5340 H   0  0  0  0  0  0  0  0  0  0  0  0
   -2.1080   12.7080   19.0590 H   0  0  0  0  0  0  0  0  0  0  0  0
    0.7970    9.2630   18.2670 O   0  0  0  0  0  0  0  0  0  0  0  0
    2.0680    9.7360   17.8420 C   0  0  0  0  0  0  0  0  0  0  0  0
    2.5180   10.2800   18.6780 H   0  0  0  0  0  0  0  0  0  0  0  0
    1.9700   10.4350   17.0050 H   0  0  0  0  0  0  0  0  0  0  0  0
    2.7350    8.9040   17.5890 H   0  0  0  0  0  0  0  0  0  0  0  0
   -5.0370   14.7990   23.6460 C   0  0  0  0  0  0  0  0  0  0  0  0
   -5.1930   15.3780   22.7290 H   0  0  0  0  0  0  0  0  0  0  0  0
   -5.2420   15.4470   24.5050 H   0  0  0  0  0  0  0  0  0  0  0  0
   -5.7800   13.9930   23.6370 H   0  0  0  0  0  0  0  0  0  0  0  0
  2  1  1  0  0  0  0
  2  7  1  0  0  0  0
  3 10  1  0  0  0  0
  3  2  1  0  0  0  0
  3  9  1  0  0  0  0
  4  3  1  0  0  0  0
  5  4  1  0  0  0  0
  5  6  1  0  0  0  0
  6 14  1  0  0  0  0
  6  1  1  0  0  0  0
  8  2  1  0  0  0  0
 11  5  1  0  0  0  0
 12  5  1  0  0  0  0
 13  6  1  0  0  0  0
 15 16  1  0  0  0  0
 15  4  1  0  0  0  0
 16 22  1  0  0  0  0
 17 21  1  0  0  0  0
 17 16  2  0  0  0  0
 18 17  1  0  0  0  0
 19 18  2  0  0  0  0
 19 20  1  0  0  0  0
 20 15  2  0  0  0  0
 23 19  1  0  0  0  0
 24 20  1  0  0  0  0
 25 18  1  0  0  0  0
 26 25  1  0  0  0  0
 26 27  1  0  0  0  0
 28 26  1  0  0  0  0
 29 26  1  0  0  0  0
 30  1  1  0  0  0  0
 30 32  1  0  0  0  0
 31 30  1  0  0  0  0
 33 30  1  0  0  0  0
M  END
>  <MODEL>
29

>  <REMARK>
 VINA RESULT:    -3.865      4.844      7.183
 INTER + INTRA:          -4.754
 INTER:                  -4.564
 INTRA:                  -0.190
 UNBOUND:                -0.211
  Name = 
  4 active torsions:
  status: ('A' for Active; 'I' for Inactive)
    1  A    between atoms: C_1  and  N_2
    2  A    between atoms: N_5  and  C_6
    3  A    between atoms: C_9  and  O_12
    4  A    between atoms: O_12  and  C_13
                            x       y       z     vdW  Elec       q    Type
                         _______ _______ _______ _____ _____    ______ ____

>  <TORSDO>
F 4

$$$$
=
 OpenBabel07192307433D

 33 34  0  0  0  0  0  0  0  0999 V2000
   -3.2450   10.9840   15.7620 N   0  0  0  0  0  0  0  0  0  0  0  0
   -4.5070   10.8690   16.5260 C   0  0  0  0  0  0  0  0  0  0  0  0
   -4.6690   11.9240   17.6450 C   0  0  0  0  0  0  0  0  0  0  0  0
   -3.5810   11.8040   18.6310 N   0  0  0  0  0  0  0  0  0  0  0  0
   -2.3020   11.2710   18.1290 C   0  0  0  0  0  0  0  0  0  0  0  0
   -2.1520   11.5090   16.6070 C   0  0  0  0  0  0  0  0  0  0  0  0
   -5.3470   10.9560   15.8270 H   0  0  0  0  0  0  0  0  0  0  0  0
   -4.5790    9.8770   16.9950 H   0  0  0  0  0  0  0  0  0  0  0  0
   -4.6710   12.9330   17.2160 H   0  0  0  0  0  0  0  0  0  0  0  0
   -5.6420   11.7500   18.1180 H   0  0  0  0  0  0  0  0  0  0  0  0
   -2.2430   10.1990   18.3470 H   0  0  0  0  0  0  0  0  0  0  0  0
   -1.4550   11.7670   18.6190 H   0  0  0  0  0  0  0  0  0  0  0  0
   -1.1770   11.1340   16.2720 H   0  0  0  0  0  0  0  0  0  0  0  0
   -2.1210   12.5940   16.4400 H   0  0  0  0  0  0  0  0  0  0  0  0
   -3.7280   12.2260   19.9400 C   0  0  0  0  0  0  0  0  0  0  0  0
   -2.6250   12.5590   20.7390 C   0  0  0  0  0  0  0  0  0  0  0  0
   -2.7730   12.9850   22.0690 C   0  0  0  0  0  0  0  0  0  0  0  0
   -4.0390   13.0980   22.6520 C   0  0  0  0  0  0  0  0  0  0  0  0
   -5.1470   12.7700   21.8750 C   0  0  0  0  0  0  0  0  0  0  0  0
   -4.9870   12.3430   20.5470 C   0  0  0  0  0  0  0  0  0  0  0  0
   -1.1910   13.3990   23.0430 Br  0  0  0  0  0  0  0  0  0  0  0  0
   -1.6190   12.4650   20.3400 H   0  0  0  0  0  0  0  0  0  0  0  0
   -6.1590   12.8380   22.2600 H   0  0  0  0  0  0  0  0  0  0  0  0
   -5.8900   12.1230   19.9830 H   0  0  0  0  0  0  0  0  0  0  0  0
   -4.0950   13.5220   23.9520 O   0  0  0  0  0  0  0  0  0  0  0  0
   -4.4030   12.5560   24.9480 C   0  0  0  0  0  0  0  0  0  0  0  0
   -5.4210   12.1990   24.7640 H   0  0  0  0  0  0  0  0  0  0  0  0
   -4.3810   12.9990   25.9480 H   0  0  0  0  0  0  0  0  0  0  0  0
   -3.7320   11.6930   24.8820 H   0  0  0  0  0  0  0  0  0  0  0  0
   -2.8960    9.7030   15.1540 C   0  0  0  0  0  0  0  0  0  0  0  0
   -2.7350    8.9420   15.9250 H   0  0  0  0  0  0  0  0  0  0  0  0
   -1.9920    9.7690   14.5370 H   0  0  0  0  0  0  0  0  0  0  0  0
   -3.7170    9.3420   14.5230 H   0  0  0  0  0  0  0  0  0  0  0  0
  1  2  1  0  0  0  0
  1  6  1  0  0  0  0
  2  8  1  0  0  0  0
  2  3  1  0  0  0  0
  3 10  1  0  0  0  0
  3  4  1  0  0  0  0
  4 15  1  0  0  0  0
  5 11  1  0  0  0  0
  5 12  1  0  0  0  0
  5  4  1  0  0  0  0
  6  5  1  0  0  0  0
  7  2  1  0  0  0  0
  9  3  1  0  0  0  0
 13  6  1  0  0  0  0
 14  6  1  0  0  0  0
 15 20  2  0  0  0  0
 15 16  1  0  0  0  0
 16 17  2  0  0  0  0
 17 18  1  0  0  0  0
 17 21  1  0  0  0  0
 18 25  1  0  0  0  0
 19 23  1  0  0  0  0
 19 18  2  0  0  0  0
 20 19  1  0  0  0  0
 22 16  1  0  0  0  0
 24 20  1  0  0  0  0
 25 26  1  0  0  0  0
 26 28  1  0  0  0  0
 27 26  1  0  0  0  0
 29 26  1  0  0  0  0
 30  1  1  0  0  0  0
 30 31  1  0  0  0  0
 32 30  1  0  0  0  0
 33 30  1  0  0  0  0
M  END
>  <MODEL>
30

>  <REMARK>
 VINA RESULT:    -3.718      7.948      9.649
 INTER + INTRA:          -4.580
 INTER:                  -4.346
 INTRA:                  -0.235
 UNBOUND:                -0.211
  Name = 
  4 active torsions:
  status: ('A' for Active; 'I' for Inactive)
    1  A    between atoms: C_1  and  N_2
    2  A    between atoms: N_5  and  C_6
    3  A    between atoms: C_9  and  O_12
    4  A    between atoms: O_12  and  C_13
                            x       y       z     vdW  Elec       q    Type
                         _______ _______ _______ _____ _____    ______ ____

>  <TORSDO>
F 4

$$$$
=
 OpenBabel07192307433D

 33 34  0  0  0  0  0  0  0  0999 V2000
   -3.2450    9.9340   16.1750 N   0  0  0  0  0  0  0  0  0  0  0  0
   -1.8770   10.0210   16.7300 C   0  0  0  0  0  0  0  0  0  0  0  0
   -1.8230   10.1350   18.2710 C   0  0  0  0  0  0  0  0  0  0  0  0
   -2.5270   11.3480   18.7240 N   0  0  0  0  0  0  0  0  0  0  0  0
   -3.6220   11.8270   17.8630 C   0  0  0  0  0  0  0  0  0  0  0  0
   -4.2110   10.6770   17.0110 C   0  0  0  0  0  0  0  0  0  0  0  0
   -1.3160    9.1310   16.4170 H   0  0  0  0  0  0  0  0  0  0  0  0
   -1.3530   10.8940   16.3170 H   0  0  0  0  0  0  0  0  0  0  0  0
   -2.2760    9.2490   18.7330 H   0  0  0  0  0  0  0  0  0  0  0  0
   -0.7660   10.1690   18.5590 H   0  0  0  0  0  0  0  0  0  0  0  0
   -3.2500   12.6230   17.2090 H   0  0  0  0  0  0  0  0  0  0  0  0
   -4.4420   12.2350   18.4670 H   0  0  0  0  0  0  0  0  0  0  0  0
   -5.0460   11.0570   16.4090 H   0  0  0  0  0  0  0  0  0  0  0  0
   -4.6570    9.9460   17.6990 H   0  0  0  0  0  0  0  0  0  0  0  0
   -2.2220   11.9680   19.9230 C   0  0  0  0  0  0  0  0  0  0  0  0
   -3.1790   12.6940   20.6460 C   0  0  0  0  0  0  0  0  0  0  0  0
   -2.8690   13.3250   21.8620 C   0  0  0  0  0  0  0  0  0  0  0  0
   -1.5820   13.2520   22.4030 C   0  0  0  0  0  0  0  0  0  0  0  0
   -0.6170   12.5380   21.6990 C   0  0  0  0  0  0  0  0  0  0  0  0
   -0.9370   11.9120   20.4840 C   0  0  0  0  0  0  0  0  0  0  0  0
   -4.2620   14.2840   22.7360 Br  0  0  0  0  0  0  0  0  0  0  0  0
   -4.1860   12.8000   20.2560 H   0  0  0  0  0  0  0  0  0  0  0  0
    0.4010   12.4350   22.0620 H   0  0  0  0  0  0  0  0  0  0  0  0
   -0.1470   11.3490   19.9910 H   0  0  0  0  0  0  0  0  0  0  0  0
   -1.3640   13.8950   23.5920 O   0  0  0  0  0  0  0  0  0  0  0  0
   -0.7300   15.1650   23.5480 C   0  0  0  0  0  0  0  0  0  0  0  0
   -1.3810   15.8820   24.0580 H   0  0  0  0  0  0  0  0  0  0  0  0
   -0.6020   15.5080   22.5170 H   0  0  0  0  0  0  0  0  0  0  0  0
    0.2270   15.1490   24.0820 H   0  0  0  0  0  0  0  0  0  0  0  0
   -3.2640   10.3870   14.7870 C   0  0  0  0  0  0  0  0  0  0  0  0
   -4.1930   10.9260   14.5710 H   0  0  0  0  0  0  0  0  0  0  0  0
   -3.1720    9.5550   14.0780 H   0  0  0  0  0  0  0  0  0  0  0  0
   -2.4440   11.0880   14.6020 H   0  0  0  0  0  0  0  0  0  0  0  0
  1  2  1  0  0  0  0
  1  6  1  0  0  0  0
  2  3  1  0  0  0  0
  3 10  1  0  0  0  0
  3  4  1  0  0  0  0
  3  9  1  0  0  0  0
  4 15  1  0  0  0  0
  5 12  1  0  0  0  0
  5  4  1  0  0  0  0
  6 14  1  0  0  0  0
  6  5  1  0  0  0  0
  7  2  1  0  0  0  0
  8  2  1  0  0  0  0
 11  5  1  0  0  0  0
 13  6  1  0  0  0  0
 15 20  2  0  0  0  0
 15 16  1  0  0  0  0
 16 17  2  0  0  0  0
 17 18  1  0  0  0  0
 17 21  1  0  0  0  0
 18 25  1  0  0  0  0
 19 23  1  0  0  0  0
 19 18  2  0  0  0  0
 20 19  1  0  0  0  0
 22 16  1  0  0  0  0
 24 20  1  0  0  0  0
 26 25  1  0  0  0  0
 26 27  1  0  0  0  0
 26 29  1  0  0  0  0
 28 26  1  0  0  0  0
 30  1  1  0  0  0  0
 31 30  1  0  0  0  0
 32 30  1  0  0  0  0
 33 30  1  0  0  0  0
M  END
>  <MODEL>
31

>  <REMARK>
 VINA RESULT:    -3.665      7.266      8.998
 INTER + INTRA:          -4.519
 INTER:                  -4.308
 INTRA:                  -0.211
 UNBOUND:                -0.211
  Name = 
  4 active torsions:
  status: ('A' for Active; 'I' for Inactive)
    1  A    between atoms: C_1  and  N_2
    2  A    between atoms: N_5  and  C_6
    3  A    between atoms: C_9  and  O_12
    4  A    between atoms: O_12  and  C_13
                            x       y       z     vdW  Elec       q    Type
                         _______ _______ _______ _____ _____    ______ ____

>  <TORSDO>
F 4

$$$$
=
 OpenBabel07192307433D

 33 34  0  0  0  0  0  0  0  0999 V2000
   -2.7820    9.7490   16.9480 N   0  0  0  0  0  0  0  0  0  0  0  0
   -1.3970   10.0550   17.3680 C   0  0  0  0  0  0  0  0  0  0  0  0
   -1.2450   10.3680   18.8740 C   0  0  0  0  0  0  0  0  0  0  0  0
   -2.0530   11.5440   19.2420 N   0  0  0  0  0  0  0  0  0  0  0  0
   -3.2580   11.7870   18.4290 C   0  0  0  0  0  0  0  0  0  0  0  0
   -3.7660   10.4820   17.7720 C   0  0  0  0  0  0  0  0  0  0  0  0
   -0.7590    9.2000   17.1130 H   0  0  0  0  0  0  0  0  0  0  0  0
   -1.0120   10.9210   16.8110 H   0  0  0  0  0  0  0  0  0  0  0  0
   -1.5540    9.5030   19.4740 H   0  0  0  0  0  0  0  0  0  0  0  0
   -0.1810   10.5540   19.0630 H   0  0  0  0  0  0  0  0  0  0  0  0
   -3.0320   12.5310   17.6570 H   0  0  0  0  0  0  0  0  0  0  0  0
   -4.0740   12.1760   19.0510 H   0  0  0  0  0  0  0  0  0  0  0  0
   -4.6820   10.6900   17.2050 H   0  0  0  0  0  0  0  0  0  0  0  0
   -4.0700    9.7990   18.5770 H   0  0  0  0  0  0  0  0  0  0  0  0
   -1.7370   12.3400   20.3290 C   0  0  0  0  0  0  0  0  0  0  0  0
   -0.5050   13.0030   20.4270 C   0  0  0  0  0  0  0  0  0  0  0  0
   -0.1830   13.8090   21.5310 C   0  0  0  0  0  0  0  0  0  0  0  0
   -1.0860   13.9840   22.5830 C   0  0  0  0  0  0  0  0  0  0  0  0
   -2.3140   13.3320   22.5050 C   0  0  0  0  0  0  0  0  0  0  0  0
   -2.6250   12.5260   21.3980 C   0  0  0  0  0  0  0  0  0  0  0  0
    1.5260   14.6470   21.5400 Br  0  0  0  0  0  0  0  0  0  0  0  0
    0.2400   12.8800   19.6470 H   0  0  0  0  0  0  0  0  0  0  0  0
   -3.0650   13.4260   23.2830 H   0  0  0  0  0  0  0  0  0  0  0  0
   -3.6080   12.0610   21.3820 H   0  0  0  0  0  0  0  0  0  0  0  0
   -0.6940   14.7870   23.6200 O   0  0  0  0  0  0  0  0  0  0  0  0
   -1.6070   14.9690   24.6940 C   0  0  0  0  0  0  0  0  0  0  0  0
   -2.2020   15.8620   24.4790 H   0  0  0  0  0  0  0  0  0  0  0  0
   -1.0780   15.1410   25.6370 H   0  0  0  0  0  0  0  0  0  0  0  0
   -2.2970   14.1220   24.7750 H   0  0  0  0  0  0  0  0  0  0  0  0
   -2.9570   10.0180   15.5230 C   0  0  0  0  0  0  0  0  0  0  0  0
   -3.9360    9.6660   15.1830 H   0  0  0  0  0  0  0  0  0  0  0  0
   -2.1830    9.5380   14.9130 H   0  0  0  0  0  0  0  0  0  0  0  0
   -2.9260   11.0970   15.3310 H   0  0  0  0  0  0  0  0  0  0  0  0
  1  2  1  0  0  0  0
  1  6  1  0  0  0  0
  2  3  1  0  0  0  0
  3 10  1  0  0  0  0
  3  4  1  0  0  0  0
  3  9  1  0  0  0  0
  4 15  1  0  0  0  0
  5 12  1  0  0  0  0
  5  4  1  0  0  0  0
  6  5  1  0  0  0  0
  6 14  1  0  0  0  0
  7  2  1  0  0  0  0
  8  2  1  0  0  0  0
 11  5  1  0  0  0  0
 13  6  1  0  0  0  0
 15 16  2  0  0  0  0
 15 20  1  0  0  0  0
 16 17  1  0  0  0  0
 17 21  1  0  0  0  0
 17 18  2  0  0  0  0
 18 25  1  0  0  0  0
 19 18  1  0  0  0  0
 19 23  1  0  0  0  0
 20 19  2  0  0  0  0
 22 16  1  0  0  0  0
 24 20  1  0  0  0  0
 25 26  1  0  0  0  0
 26 29  1  0  0  0  0
 26 28  1  0  0  0  0
 27 26  1  0  0  0  0
 30  1  1  0  0  0  0
 31 30  1  0  0  0  0
 32 30  1  0  0  0  0
 33 30  1  0  0  0  0
M  END
>  <MODEL>
32

>  <REMARK>
 VINA RESULT:    -3.650      6.967      9.018
 INTER + INTRA:          -4.501
 INTER:                  -4.291
 INTRA:                  -0.210
 UNBOUND:                -0.211
  Name = 
  4 active torsions:
  status: ('A' for Active; 'I' for Inactive)
    1  A    between atoms: C_1  and  N_2
    2  A    between atoms: N_5  and  C_6
    3  A    between atoms: C_9  and  O_12
    4  A    between atoms: O_12  and  C_13
                            x       y       z     vdW  Elec       q    Type
                         _______ _______ _______ _____ _____    ______ ____

>  <TORSDO>
F 4

$$$$
