=
 OpenBabel07192307433D

 58 62  0  0  1  0  0  0  0  0999 V2000
   -0.6230   10.7730   20.9660 C   0  0  0  0  0  0  0  0  0  0  0  0
   -0.6300   10.3320   22.2950 C   0  0  0  0  0  0  0  0  0  0  0  0
    0.1710    9.2610   22.6880 C   0  0  0  0  0  0  0  0  0  0  0  0
    0.9880    8.6190   21.7560 C   0  0  0  0  0  0  0  0  0  0  0  0
    1.0260    9.0400   20.4170 C   0  0  0  0  0  0  0  0  0  0  0  0
    0.2140   10.1210   20.0400 C   0  0  0  0  0  0  0  0  0  0  0  0
   -1.2590   10.8200   23.0360 H   0  0  0  0  0  0  0  0  0  0  0  0
    0.1610    8.9230   23.7200 H   0  0  0  0  0  0  0  0  0  0  0  0
    1.6040    7.7840   22.0830 H   0  0  0  0  0  0  0  0  0  0  0  0
    0.2170   10.4650   19.0090 H   0  0  0  0  0  0  0  0  0  0  0  0
    1.8920    8.3490   19.4500 C   0  0  0  0  0  0  0  0  0  0  0  0
    2.3940    9.0030   18.3800 N   0  0  0  0  0  0  0  0  0  0  0  0
    3.1220    8.0750   17.7360 N   0  0  0  0  0  0  0  0  0  0  0  0
    3.1270    6.8480   18.3260 C   0  0  0  0  0  0  0  0  0  0  0  0
    2.3330    6.9830   19.4490 C   0  0  0  0  0  0  0  0  0  0  0  0
    2.0960    5.9520   20.2990 N   0  0  0  0  0  0  0  0  0  0  0  0
    2.6820    4.7700   19.9710 C   0  0  0  0  0  0  0  0  0  0  0  0
    3.4960    4.5960   18.8420 C   0  0  0  0  0  0  0  0  0  0  0  0
    3.7490    5.6560   17.9670 C   0  0  0  0  0  0  0  0  0  0  0  0
    3.6000    8.3320   16.8810 H   0  0  0  0  0  0  0  0  0  0  0  0
    3.9410    3.6210   18.6470 H   0  0  0  0  0  0  0  0  0  0  0  0
    4.5440    5.5800   16.8290 N   0  0  0  0  0  0  0  0  0  0  0  0
    4.3870    4.3370   16.0390 C   0  0  0  0  0  0  0  0  0  0  0  0
    5.7680    3.6970   16.0000 C   0  0  0  0  0  0  0  0  0  0  0  0
    6.6990    4.8940   16.0700 C   0  0  1  0  0  0  0  0  0  0  0  0
    5.9850    5.7880   17.0910 C   0  0  0  0  0  0  0  0  0  0  0  0
    3.6360    3.6440   16.4340 H   0  0  0  0  0  0  0  0  0  0  0  0
    4.0760    4.6190   15.0260 H   0  0  0  0  0  0  0  0  0  0  0  0
    5.9250    3.0930   15.1000 H   0  0  0  0  0  0  0  0  0  0  0  0
    5.9170    3.0380   16.8650 H   0  0  0  0  0  0  0  0  0  0  0  0
    6.7690    5.3870   15.0920 H   0  0  0  0  0  0  0  0  0  0  0  0
    6.2540    6.8410   16.9430 H   0  0  0  0  0  0  0  0  0  0  0  0
    6.2850    5.5110   18.1100 H   0  0  0  0  0  0  0  0  0  0  0  0
    7.9910    4.4880   16.4900 O   0  0  0  0  0  0  0  0  0  0  0  0
    8.2560    5.0630   17.2300 H   0  0  0  0  0  0  0  0  0  0  0  0
    2.4660    3.5850   20.9070 C   0  0  0  0  0  0  0  0  0  0  0  0
    2.4140    3.9530   22.2230 F   0  0  0  0  0  0  0  0  0  0  0  0
    3.4600    2.6530   20.8360 F   0  0  0  0  0  0  0  0  0  0  0  0
    0.9160    2.7900   20.5070 Cl  0  0  0  0  0  0  0  0  0  0  0  0
   -1.5240   11.9280   20.5460 C   0  0  1  0  0  0  0  0  0  0  0  0
   -2.5270   11.7400   20.9530 H   0  0  0  0  0  0  0  0  0  0  0  0
   -1.0220   13.2420   21.1550 C   0  0  0  0  0  0  0  0  0  0  0  0
   -0.2810   13.7290   20.5100 H   0  0  0  0  0  0  0  0  0  0  0  0
   -0.5500   13.0730   22.1300 H   0  0  0  0  0  0  0  0  0  0  0  0
   -1.8440   13.9490   21.3070 H   0  0  0  0  0  0  0  0  0  0  0  0
   -1.6270   11.9970   19.0060 C   0  0  0  0  0  0  0  0  0  0  0  0
   -1.4070   13.0120   18.6500 H   0  0  0  0  0  0  0  0  0  0  0  0
   -0.8620   11.3470   18.5640 H   0  0  0  0  0  0  0  0  0  0  0  0
   -2.9710   11.5940   18.4970 C   0  0  0  0  0  0  0  0  0  0  0  0
   -4.1410   12.0180   18.9360 N   0  0  0  0  0  0  0  0  0  0  0  0
   -5.1260   11.4130   18.1950 N   0  0  0  0  0  0  0  0  0  0  0  0
   -4.5420   10.6390   17.3120 C   0  0  0  0  0  0  0  0  0  0  0  0
   -3.1920   10.7240   17.4590 N   0  0  0  0  0  0  0  0  0  0  0  0
   -5.0380   10.0280   16.5740 H   0  0  0  0  0  0  0  0  0  0  0  0
   -2.2120   10.0390   16.6610 C   0  0  0  0  0  0  0  0  0  0  0  0
   -1.2440   10.1080   17.1610 H   0  0  0  0  0  0  0  0  0  0  0  0
   -2.1480   10.5080   15.6760 H   0  0  0  0  0  0  0  0  0  0  0  0
   -2.5170    8.9940   16.5570 H   0  0  0  0  0  0  0  0  0  0  0  0
  1  2  1  0  0  0  0
  2  3  2  0  0  0  0
  2  7  1  0  0  0  0
  3  8  1  0  0  0  0
  4  9  1  0  0  0  0
  4  3  1  0  0  0  0
  5  4  2  0  0  0  0
  6  5  1  0  0  0  0
  6  1  2  0  0  0  0
 10  6  1  0  0  0  0
 11  5  1  0  0  0  0
 12 11  2  0  0  0  0
 13 14  1  0  0  0  0
 13 12  1  0  0  0  0
 14 15  1  0  0  0  0
 15 11  1  0  0  0  0
 15 16  2  0  0  0  0
 17 16  1  0  0  0  0
 17 36  1  0  0  0  0
 18 17  2  0  0  0  0
 19 14  2  0  0  0  0
 19 18  1  0  0  0  0
 20 13  1  0  0  0  0
 21 18  1  0  0  0  0
 22 26  1  0  0  0  0
 22 19  1  0  0  0  0
 23 27  1  0  0  0  0
 23 22  1  0  0  0  0
 24 23  1  0  0  0  0
 24 25  1  0  0  0  0
 24 30  1  0  0  0  0
 25 31  1  6  0  0  0
 25 34  1  0  0  0  0
 25 26  1  0  0  0  0
 26 33  1  0  0  0  0
 28 23  1  0  0  0  0
 29 24  1  0  0  0  0
 32 26  1  0  0  0  0
 34 35  1  0  0  0  0
 36 37  1  0  0  0  0
 38 36  1  0  0  0  0
 39 36  1  0  0  0  0
 40 41  1  1  0  0  0
 40  1  1  0  0  0  0
 40 42  1  0  0  0  0
 42 45  1  0  0  0  0
 42 44  1  0  0  0  0
 43 42  1  0  0  0  0
 46 40  1  0  0  0  0
 47 46  1  0  0  0  0
 48 46  1  0  0  0  0
 49 50  2  0  0  0  0
 49 46  1  0  0  0  0
 51 50  1  0  0  0  0
 52 53  1  0  0  0  0
 52 51  2  0  0  0  0
 53 49  1  0  0  0  0
 54 52  1  0  0  0  0
 55 56  1  0  0  0  0
 55 53  1  0  0  0  0
 57 55  1  0  0  0  0
 58 55  1  0  0  0  0
M  END
>  <MODEL>
1

>  <REMARK>
 VINA RESULT:    -9.935      0.000      0.000
 INTER + INTRA:         -13.777
 INTER:                 -12.622
 INTRA:                  -1.155
 UNBOUND:                 0.514
  Name = 
  9 active torsions:
  status: ('A' for Active; 'I' for Inactive)
    1  A    between atoms: C_1  and  C_2
    2  A    between atoms: C_2  and  C_3
    3  A    between atoms: C_2  and  C_10
    4  A    between atoms: C_3  and  C_4
    5  A    between atoms: N_8  and  C_9
    6  A    between atoms: C_14  and  C_16
    7  A    between atoms: C_22  and  C_31
    8  A    between atoms: C_24  and  N_25
    9  A    between atoms: C_28  and  O_30
                            x       y       z     vdW  Elec       q    Type
                         _______ _______ _______ _____ _____    ______ ____

>  <TORSDO>
F 9

$$$$
=
 OpenBabel07192307433D

 58 62  0  0  1  0  0  0  0  0999 V2000
    0.1690    9.9810   19.6180 C   0  0  0  0  0  0  0  0  0  0  0  0
   -0.0240    9.7940   20.9920 C   0  0  0  0  0  0  0  0  0  0  0  0
    0.6620    8.7890   21.6710 C   0  0  0  0  0  0  0  0  0  0  0  0
    1.5480    7.9580   20.9840 C   0  0  0  0  0  0  0  0  0  0  0  0
    1.7720    8.1220   19.6070 C   0  0  0  0  0  0  0  0  0  0  0  0
    1.0730    9.1410   18.9400 C   0  0  0  0  0  0  0  0  0  0  0  0
   -0.7090   10.4320   21.5460 H   0  0  0  0  0  0  0  0  0  0  0  0
    0.5080    8.6480   22.7380 H   0  0  0  0  0  0  0  0  0  0  0  0
    2.0720    7.1780   21.5320 H   0  0  0  0  0  0  0  0  0  0  0  0
    1.2200    9.2880   17.8730 H   0  0  0  0  0  0  0  0  0  0  0  0
    2.7070    7.2350   18.9000 C   0  0  0  0  0  0  0  0  0  0  0  0
    3.7140    7.7430   18.1560 N   0  0  0  0  0  0  0  0  0  0  0  0
    4.3480    6.6610   17.6720 N   0  0  0  0  0  0  0  0  0  0  0  0
    3.8140    5.4700   18.0610 C   0  0  0  0  0  0  0  0  0  0  0  0
    2.7370    5.8010   18.8620 C   0  0  0  0  0  0  0  0  0  0  0  0
    1.9460    4.8610   19.4380 N   0  0  0  0  0  0  0  0  0  0  0  0
    2.2710    3.5690   19.1690 C   0  0  0  0  0  0  0  0  0  0  0  0
    3.3570    3.1950   18.3640 C   0  0  0  0  0  0  0  0  0  0  0  0
    4.1790    4.1590   17.7730 C   0  0  0  0  0  0  0  0  0  0  0  0
    5.1500    6.7910   17.0680 H   0  0  0  0  0  0  0  0  0  0  0  0
    3.5640    2.1390   18.1990 H   0  0  0  0  0  0  0  0  0  0  0  0
    5.2770    3.8850   16.9650 N   0  0  0  0  0  0  0  0  0  0  0  0
    6.5750    4.3670   17.4910 C   0  0  0  0  0  0  0  0  0  0  0  0
    7.1200    5.3170   16.4340 C   0  0  0  0  0  0  0  0  0  0  0  0
    6.5500    4.7550   15.1440 C   0  0  1  0  0  0  0  0  0  0  0  0
    5.1300    4.3640   15.5730 C   0  0  0  0  0  0  0  0  0  0  0  0
    6.5120    4.8520   18.4710 H   0  0  0  0  0  0  0  0  0  0  0  0
    7.2390    3.5000   17.5930 H   0  0  0  0  0  0  0  0  0  0  0  0
    8.2140    5.3570   16.4280 H   0  0  0  0  0  0  0  0  0  0  0  0
    6.7580    6.3400   16.6040 H   0  0  0  0  0  0  0  0  0  0  0  0
    7.1210    3.8770   14.8200 H   0  0  0  0  0  0  0  0  0  0  0  0
    4.7350    3.5660   14.9320 H   0  0  0  0  0  0  0  0  0  0  0  0
    4.4570    5.2260   15.4790 H   0  0  0  0  0  0  0  0  0  0  0  0
    6.5740    5.7400   14.1250 O   0  0  0  0  0  0  0  0  0  0  0  0
    5.8590    5.5330   13.4960 H   0  0  0  0  0  0  0  0  0  0  0  0
    1.4270    2.4730   19.8130 C   0  0  0  0  0  0  0  0  0  0  0  0
    1.8070    1.2170   19.4280 F   0  0  0  0  0  0  0  0  0  0  0  0
    0.1020    2.5580   19.4980 F   0  0  0  0  0  0  0  0  0  0  0  0
    1.5940    2.5670   21.5900 Cl  0  0  0  0  0  0  0  0  0  0  0  0
   -0.6080   11.0680   18.8850 C   0  0  1  0  0  0  0  0  0  0  0  0
   -1.3730   11.4570   19.5700 H   0  0  0  0  0  0  0  0  0  0  0  0
    0.3200   12.2330   18.5240 C   0  0  0  0  0  0  0  0  0  0  0  0
    0.5870   12.2220   17.4610 H   0  0  0  0  0  0  0  0  0  0  0  0
    1.2530   12.1910   19.0990 H   0  0  0  0  0  0  0  0  0  0  0  0
   -0.1530   13.1970   18.7370 H   0  0  0  0  0  0  0  0  0  0  0  0
   -1.3170   10.4780   17.6450 C   0  0  0  0  0  0  0  0  0  0  0  0
   -0.7580   10.7170   16.7310 H   0  0  0  0  0  0  0  0  0  0  0  0
   -1.3240    9.3840   17.7200 H   0  0  0  0  0  0  0  0  0  0  0  0
   -2.7180   10.9700   17.4900 C   0  0  0  0  0  0  0  0  0  0  0  0
   -3.4670   11.5250   18.4230 N   0  0  0  0  0  0  0  0  0  0  0  0
   -4.6830   11.8430   17.8700 N   0  0  0  0  0  0  0  0  0  0  0  0
   -4.6520   11.4850   16.6090 C   0  0  0  0  0  0  0  0  0  0  0  0
   -3.4390   10.9390   16.3230 N   0  0  0  0  0  0  0  0  0  0  0  0
   -5.4520   11.6030   15.8930 H   0  0  0  0  0  0  0  0  0  0  0  0
   -3.0160   10.4470   15.0400 C   0  0  0  0  0  0  0  0  0  0  0  0
   -3.0520    9.3570   15.0540 H   0  0  0  0  0  0  0  0  0  0  0  0
   -1.9940   10.7760   14.8400 H   0  0  0  0  0  0  0  0  0  0  0  0
   -3.6910   10.8430   14.2760 H   0  0  0  0  0  0  0  0  0  0  0  0
  1  2  1  0  0  0  0
  2  7  1  0  0  0  0
  2  3  2  0  0  0  0
  3  8  1  0  0  0  0
  4  9  1  0  0  0  0
  4  3  1  0  0  0  0
  5  4  2  0  0  0  0
  6  5  1  0  0  0  0
  6  1  2  0  0  0  0
 10  6  1  0  0  0  0
 11  5  1  0  0  0  0
 12 11  2  0  0  0  0
 13 14  1  0  0  0  0
 13 12  1  0  0  0  0
 14 15  1  0  0  0  0
 15 11  1  0  0  0  0
 15 16  2  0  0  0  0
 17 16  1  0  0  0  0
 17 36  1  0  0  0  0
 18 17  2  0  0  0  0
 19 14  2  0  0  0  0
 19 18  1  0  0  0  0
 20 13  1  0  0  0  0
 21 18  1  0  0  0  0
 22 23  1  0  0  0  0
 22 19  1  0  0  0  0
 23 28  1  0  0  0  0
 23 27  1  0  0  0  0
 24 30  1  0  0  0  0
 24 23  1  0  0  0  0
 25 31  1  6  0  0  0
 25 26  1  0  0  0  0
 25 24  1  0  0  0  0
 26 22  1  0  0  0  0
 29 24  1  0  0  0  0
 32 26  1  0  0  0  0
 33 26  1  0  0  0  0
 34 25  1  0  0  0  0
 35 34  1  0  0  0  0
 36 39  1  0  0  0  0
 37 36  1  0  0  0  0
 38 36  1  0  0  0  0
 40 41  1  1  0  0  0
 40  1  1  0  0  0  0
 42 45  1  0  0  0  0
 42 40  1  0  0  0  0
 42 44  1  0  0  0  0
 43 42  1  0  0  0  0
 46 48  1  0  0  0  0
 46 40  1  0  0  0  0
 47 46  1  0  0  0  0
 49 46  1  0  0  0  0
 49 50  2  0  0  0  0
 51 50  1  0  0  0  0
 52 51  2  0  0  0  0
 53 52  1  0  0  0  0
 53 49  1  0  0  0  0
 54 52  1  0  0  0  0
 55 56  1  0  0  0  0
 55 53  1  0  0  0  0
 57 55  1  0  0  0  0
 58 55  1  0  0  0  0
M  END
>  <MODEL>
2

>  <REMARK>
 VINA RESULT:    -9.885      1.564      1.932
 INTER + INTRA:         -13.706
 INTER:                 -13.021
 INTRA:                  -0.685
 UNBOUND:                 0.514
  Name = 
  9 active torsions:
  status: ('A' for Active; 'I' for Inactive)
    1  A    between atoms: C_1  and  C_2
    2  A    between atoms: C_2  and  C_3
    3  A    between atoms: C_2  and  C_10
    4  A    between atoms: C_3  and  C_4
    5  A    between atoms: N_8  and  C_9
    6  A    between atoms: C_14  and  C_16
    7  A    between atoms: C_22  and  C_31
    8  A    between atoms: C_24  and  N_25
    9  A    between atoms: C_28  and  O_30
                            x       y       z     vdW  Elec       q    Type
                         _______ _______ _______ _____ _____    ______ ____

>  <TORSDO>
F 9

$$$$
=
 OpenBabel07192307433D

 58 62  0  0  1  0  0  0  0  0999 V2000
    0.1780    9.6560   20.3670 C   0  0  0  0  0  0  0  0  0  0  0  0
   -0.5110   10.3090   19.3370 C   0  0  0  0  0  0  0  0  0  0  0  0
   -0.1810   10.0690   18.0050 C   0  0  0  0  0  0  0  0  0  0  0  0
    0.8420    9.1740   17.6870 C   0  0  0  0  0  0  0  0  0  0  0  0
    1.5470    8.4950   18.6940 C   0  0  0  0  0  0  0  0  0  0  0  0
    1.2000    8.7490   20.0300 C   0  0  0  0  0  0  0  0  0  0  0  0
   -1.3110   11.0090   19.5640 H   0  0  0  0  0  0  0  0  0  0  0  0
   -0.7180   10.5790   17.2100 H   0  0  0  0  0  0  0  0  0  0  0  0
    1.0850    9.0020   16.6400 H   0  0  0  0  0  0  0  0  0  0  0  0
    1.7330    8.2440   20.8320 H   0  0  0  0  0  0  0  0  0  0  0  0
    2.6230    7.5580   18.3390 C   0  0  0  0  0  0  0  0  0  0  0  0
    3.7020    7.9750   17.6430 N   0  0  0  0  0  0  0  0  0  0  0  0
    4.4560    6.8710   17.5070 N   0  0  0  0  0  0  0  0  0  0  0  0
    3.9330    5.7520   18.0800 C   0  0  0  0  0  0  0  0  0  0  0  0
    2.7330    6.1580   18.6330 C   0  0  0  0  0  0  0  0  0  0  0  0
    1.9130    5.3020   19.2950 N   0  0  0  0  0  0  0  0  0  0  0  0
    2.3420    4.0140   19.3730 C   0  0  0  0  0  0  0  0  0  0  0  0
    3.5540    3.5670   18.8270 C   0  0  0  0  0  0  0  0  0  0  0  0
    4.4050    4.4450   18.1490 C   0  0  0  0  0  0  0  0  0  0  0  0
    5.3320    6.9330   17.0030 H   0  0  0  0  0  0  0  0  0  0  0  0
    3.8380    2.5220   18.9360 H   0  0  0  0  0  0  0  0  0  0  0  0
    5.6240    4.0960   17.5800 N   0  0  0  0  0  0  0  0  0  0  0  0
    6.8090    4.7340   18.1990 C   0  0  0  0  0  0  0  0  0  0  0  0
    7.4870    5.5130   17.0820 C   0  0  0  0  0  0  0  0  0  0  0  0
    7.1450    4.7030   15.8450 C   0  0  1  0  0  0  0  0  0  0  0  0
    5.6880    4.3140   16.1180 C   0  0  0  0  0  0  0  0  0  0  0  0
    6.5770    5.3790   19.0540 H   0  0  0  0  0  0  0  0  0  0  0  0
    7.4720    3.9370   18.5570 H   0  0  0  0  0  0  0  0  0  0  0  0
    8.5670    5.6130   17.2350 H   0  0  0  0  0  0  0  0  0  0  0  0
    7.0750    6.5280   17.0070 H   0  0  0  0  0  0  0  0  0  0  0  0
    7.7860    3.8150   15.7760 H   0  0  0  0  0  0  0  0  0  0  0  0
    5.4210    3.3960   15.5810 H   0  0  0  0  0  0  0  0  0  0  0  0
    5.0140    5.1080   15.7690 H   0  0  0  0  0  0  0  0  0  0  0  0
    7.3040    5.4940   14.6790 O   0  0  0  0  0  0  0  0  0  0  0  0
    8.0490    6.1020   14.8330 H   0  0  0  0  0  0  0  0  0  0  0  0
    1.4690    3.0170   20.1280 C   0  0  0  0  0  0  0  0  0  0  0  0
    1.5570    1.7490   19.6260 F   0  0  0  0  0  0  0  0  0  0  0  0
    0.1400    3.3260   20.0890 F   0  0  0  0  0  0  0  0  0  0  0  0
    1.9860    2.9580   21.8390 Cl  0  0  0  0  0  0  0  0  0  0  0  0
   -0.1770    9.9500   21.8200 C   0  0  1  0  0  0  0  0  0  0  0  0
   -1.1720    9.5280   22.0170 H   0  0  0  0  0  0  0  0  0  0  0  0
    0.8110    9.2500   22.7600 C   0  0  0  0  0  0  0  0  0  0  0  0
    0.2970    8.7680   23.6000 H   0  0  0  0  0  0  0  0  0  0  0  0
    1.5310    9.9620   23.1810 H   0  0  0  0  0  0  0  0  0  0  0  0
    1.3810    8.4790   22.2340 H   0  0  0  0  0  0  0  0  0  0  0  0
   -0.2360   11.4740   22.0610 C   0  0  0  0  0  0  0  0  0  0  0  0
    0.4490   11.7640   22.8690 H   0  0  0  0  0  0  0  0  0  0  0  0
    0.1160   11.9950   21.1630 H   0  0  0  0  0  0  0  0  0  0  0  0
   -1.6080   11.9540   22.4050 C   0  0  0  0  0  0  0  0  0  0  0  0
   -2.3200   11.6140   23.4610 N   0  0  0  0  0  0  0  0  0  0  0  0
   -3.5190   12.2830   23.4080 N   0  0  0  0  0  0  0  0  0  0  0  0
   -3.5120   13.0250   22.3270 C   0  0  0  0  0  0  0  0  0  0  0  0
   -2.3340   12.8570   21.6690 N   0  0  0  0  0  0  0  0  0  0  0  0
   -4.3070   13.6780   21.9980 H   0  0  0  0  0  0  0  0  0  0  0  0
   -1.9440   13.5170   20.4540 C   0  0  0  0  0  0  0  0  0  0  0  0
   -1.5160   12.7780   19.7750 H   0  0  0  0  0  0  0  0  0  0  0  0
   -1.1970   14.2830   20.6750 H   0  0  0  0  0  0  0  0  0  0  0  0
   -2.8300   13.9780   20.0090 H   0  0  0  0  0  0  0  0  0  0  0  0
  1 40  1  0  0  0  0
  2  7  1  0  0  0  0
  2  1  2  0  0  0  0
  3  2  1  0  0  0  0
  4  3  2  0  0  0  0
  4  5  1  0  0  0  0
  5  6  2  0  0  0  0
  6  1  1  0  0  0  0
  6 10  1  0  0  0  0
  8  3  1  0  0  0  0
  9  4  1  0  0  0  0
 11 15  1  0  0  0  0
 11  5  1  0  0  0  0
 12 11  2  0  0  0  0
 13 12  1  0  0  0  0
 13 14  1  0  0  0  0
 14 19  2  0  0  0  0
 14 15  1  0  0  0  0
 15 16  2  0  0  0  0
 16 17  1  0  0  0  0
 17 36  1  0  0  0  0
 18 21  1  0  0  0  0
 18 17  2  0  0  0  0
 19 18  1  0  0  0  0
 20 13  1  0  0  0  0
 22 19  1  0  0  0  0
 22 23  1  0  0  0  0
 23 28  1  0  0  0  0
 23 27  1  0  0  0  0
 24 29  1  0  0  0  0
 24 23  1  0  0  0  0
 25 31  1  6  0  0  0
 25 26  1  0  0  0  0
 25 24  1  0  0  0  0
 26 22  1  0  0  0  0
 30 24  1  0  0  0  0
 32 26  1  0  0  0  0
 33 26  1  0  0  0  0
 34 35  1  0  0  0  0
 34 25  1  0  0  0  0
 36 39  1  0  0  0  0
 37 36  1  0  0  0  0
 38 36  1  0  0  0  0
 40 41  1  1  0  0  0
 40 46  1  0  0  0  0
 40 42  1  0  0  0  0
 42 44  1  0  0  0  0
 42 43  1  0  0  0  0
 45 42  1  0  0  0  0
 46 49  1  0  0  0  0
 46 47  1  0  0  0  0
 48 46  1  0  0  0  0
 49 50  2  0  0  0  0
 51 50  1  0  0  0  0
 52 51  2  0  0  0  0
 53 52  1  0  0  0  0
 53 49  1  0  0  0  0
 54 52  1  0  0  0  0
 55 57  1  0  0  0  0
 55 53  1  0  0  0  0
 56 55  1  0  0  0  0
 58 55  1  0  0  0  0
M  END
>  <MODEL>
3

>  <REMARK>
 VINA RESULT:    -9.724      2.074      3.108
 INTER + INTRA:         -13.474
 INTER:                 -12.649
 INTRA:                  -0.825
 UNBOUND:                 0.514
  Name = 
  9 active torsions:
  status: ('A' for Active; 'I' for Inactive)
    1  A    between atoms: C_1  and  C_2
    2  A    between atoms: C_2  and  C_3
    3  A    between atoms: C_2  and  C_10
    4  A    between atoms: C_3  and  C_4
    5  A    between atoms: N_8  and  C_9
    6  A    between atoms: C_14  and  C_16
    7  A    between atoms: C_22  and  C_31
    8  A    between atoms: C_24  and  N_25
    9  A    between atoms: C_28  and  O_30
                            x       y       z     vdW  Elec       q    Type
                         _______ _______ _______ _____ _____    ______ ____

>  <TORSDO>
F 9

$$$$
=
 OpenBabel07192307433D

 58 62  0  0  1  0  0  0  0  0999 V2000
    0.1840   10.0190   18.9280 C   0  0  0  0  0  0  0  0  0  0  0  0
   -0.0520    9.9280   20.3050 C   0  0  0  0  0  0  0  0  0  0  0  0
    0.6270    8.9870   21.0770 C   0  0  0  0  0  0  0  0  0  0  0  0
    1.5500    8.1270   20.4800 C   0  0  0  0  0  0  0  0  0  0  0  0
    1.8170    8.1970   19.1030 C   0  0  0  0  0  0  0  0  0  0  0  0
    1.1250    9.1510   18.3420 C   0  0  0  0  0  0  0  0  0  0  0  0
   -0.7670   10.5900   20.7890 H   0  0  0  0  0  0  0  0  0  0  0  0
    0.4400    8.9200   22.1450 H   0  0  0  0  0  0  0  0  0  0  0  0
    2.0690    7.3990   21.1000 H   0  0  0  0  0  0  0  0  0  0  0  0
    1.3050    9.2240   17.2730 H   0  0  0  0  0  0  0  0  0  0  0  0
    2.7920    7.2800   18.4930 C   0  0  0  0  0  0  0  0  0  0  0  0
    3.8570    7.7560   17.8120 N   0  0  0  0  0  0  0  0  0  0  0  0
    4.5110    6.6540   17.4070 N   0  0  0  0  0  0  0  0  0  0  0  0
    3.9350    5.4800   17.7890 C   0  0  0  0  0  0  0  0  0  0  0  0
    2.8070    5.8450   18.4980 C   0  0  0  0  0  0  0  0  0  0  0  0
    1.9630    4.9310   19.0410 N   0  0  0  0  0  0  0  0  0  0  0  0
    2.2920    3.6280   18.8340 C   0  0  0  0  0  0  0  0  0  0  0  0
    3.4290    3.2200   18.1220 C   0  0  0  0  0  0  0  0  0  0  0  0
    4.3050    4.1570   17.5660 C   0  0  0  0  0  0  0  0  0  0  0  0
    5.3570    6.7570   16.8610 H   0  0  0  0  0  0  0  0  0  0  0  0
    3.6350    2.1570   18.0030 H   0  0  0  0  0  0  0  0  0  0  0  0
    5.4560    3.8480   16.8500 N   0  0  0  0  0  0  0  0  0  0  0  0
    6.7150    4.3600   17.4400 C   0  0  0  0  0  0  0  0  0  0  0  0
    7.3300    5.2600   16.3780 C   0  0  0  0  0  0  0  0  0  0  0  0
    6.8510    4.6340   15.0810 C   0  0  1  0  0  0  0  0  0  0  0  0
    5.4050    4.2590   15.4300 C   0  0  0  0  0  0  0  0  0  0  0  0
    6.5840    4.8920   18.3890 H   0  0  0  0  0  0  0  0  0  0  0  0
    7.3700    3.5010   17.6290 H   0  0  0  0  0  0  0  0  0  0  0  0
    8.4220    5.3040   16.4460 H   0  0  0  0  0  0  0  0  0  0  0  0
    6.9570    6.2880   16.4740 H   0  0  0  0  0  0  0  0  0  0  0  0
    7.4440    3.7430   14.8390 H   0  0  0  0  0  0  0  0  0  0  0  0
    5.0550    3.4300   14.8030 H   0  0  0  0  0  0  0  0  0  0  0  0
    4.7400    5.1130   15.2480 H   0  0  0  0  0  0  0  0  0  0  0  0
    6.9440    5.5690   14.0190 O   0  0  0  0  0  0  0  0  0  0  0  0
    6.3220    5.2900   13.3230 H   0  0  0  0  0  0  0  0  0  0  0  0
    1.3890    2.5600   19.4440 C   0  0  0  0  0  0  0  0  0  0  0  0
    1.9030    1.2990   19.3220 F   0  0  0  0  0  0  0  0  0  0  0  0
    0.1550    2.5000   18.8640 F   0  0  0  0  0  0  0  0  0  0  0  0
    1.1790    2.8910   21.1880 Cl  0  0  0  0  0  0  0  0  0  0  0  0
   -0.5870   11.0350   18.0930 C   0  0  1  0  0  0  0  0  0  0  0  0
   -0.0690   11.1460   17.1310 H   0  0  0  0  0  0  0  0  0  0  0  0
   -1.9990   10.5170   17.7960 C   0  0  0  0  0  0  0  0  0  0  0  0
   -2.6560   11.3180   17.4370 H   0  0  0  0  0  0  0  0  0  0  0  0
   -2.4620   10.0890   18.6930 H   0  0  0  0  0  0  0  0  0  0  0  0
   -1.9820    9.7350   17.0310 H   0  0  0  0  0  0  0  0  0  0  0  0
   -0.6040   12.4090   18.7990 C   0  0  0  0  0  0  0  0  0  0  0  0
   -1.2050   13.1290   18.2290 H   0  0  0  0  0  0  0  0  0  0  0  0
   -1.0960   12.3070   19.7740 H   0  0  0  0  0  0  0  0  0  0  0  0
    0.7630   12.9780   18.9930 C   0  0  0  0  0  0  0  0  0  0  0  0
    1.6970   13.1160   18.0720 N   0  0  0  0  0  0  0  0  0  0  0  0
    2.8000   13.6870   18.6580 N   0  0  0  0  0  0  0  0  0  0  0  0
    2.5170   13.8950   19.9210 C   0  0  0  0  0  0  0  0  0  0  0  0
    1.2500   13.4720   20.1770 N   0  0  0  0  0  0  0  0  0  0  0  0
    3.1730   14.3370   20.6570 H   0  0  0  0  0  0  0  0  0  0  0  0
    0.5730   13.5520   21.4420 C   0  0  0  0  0  0  0  0  0  0  0  0
   -0.5010   13.4510   21.2710 H   0  0  0  0  0  0  0  0  0  0  0  0
    0.7770   14.5190   21.9070 H   0  0  0  0  0  0  0  0  0  0  0  0
    0.9370   12.7450   22.0840 H   0  0  0  0  0  0  0  0  0  0  0  0
  1  2  1  0  0  0  0
  2  7  1  0  0  0  0
  2  3  2  0  0  0  0
  3  8  1  0  0  0  0
  4  3  1  0  0  0  0
  4  9  1  0  0  0  0
  5  4  2  0  0  0  0
  6  1  2  0  0  0  0
  6  5  1  0  0  0  0
 10  6  1  0  0  0  0
 11 15  1  0  0  0  0
 11  5  1  0  0  0  0
 12 11  2  0  0  0  0
 13 14  1  0  0  0  0
 13 12  1  0  0  0  0
 14 15  1  0  0  0  0
 15 16  2  0  0  0  0
 17 16  1  0  0  0  0
 17 36  1  0  0  0  0
 18 17  2  0  0  0  0
 19 14  2  0  0  0  0
 19 18  1  0  0  0  0
 20 13  1  0  0  0  0
 21 18  1  0  0  0  0
 22 23  1  0  0  0  0
 22 19  1  0  0  0  0
 23 28  1  0  0  0  0
 23 27  1  0  0  0  0
 24 29  1  0  0  0  0
 24 30  1  0  0  0  0
 24 23  1  0  0  0  0
 25 31  1  6  0  0  0
 25 26  1  0  0  0  0
 25 24  1  0  0  0  0
 26 22  1  0  0  0  0
 32 26  1  0  0  0  0
 33 26  1  0  0  0  0
 34 25  1  0  0  0  0
 35 34  1  0  0  0  0
 36 39  1  0  0  0  0
 37 36  1  0  0  0  0
 38 36  1  0  0  0  0
 40 41  1  6  0  0  0
 40 46  1  0  0  0  0
 40  1  1  0  0  0  0
 42 40  1  0  0  0  0
 42 44  1  0  0  0  0
 43 42  1  0  0  0  0
 45 42  1  0  0  0  0
 46 49  1  0  0  0  0
 46 48  1  0  0  0  0
 47 46  1  0  0  0  0
 49 53  1  0  0  0  0
 50 51  1  0  0  0  0
 50 49  2  0  0  0  0
 51 52  2  0  0  0  0
 52 53  1  0  0  0  0
 52 54  1  0  0  0  0
 53 55  1  0  0  0  0
 55 57  1  0  0  0  0
 55 58  1  0  0  0  0
 56 55  1  0  0  0  0
M  END
>  <MODEL>
4

>  <REMARK>
 VINA RESULT:    -9.692      2.408      3.471
 INTER + INTRA:         -13.427
 INTER:                 -12.664
 INTRA:                  -0.763
 UNBOUND:                 0.514
  Name = 
  9 active torsions:
  status: ('A' for Active; 'I' for Inactive)
    1  A    between atoms: C_1  and  C_2
    2  A    between atoms: C_2  and  C_3
    3  A    between atoms: C_2  and  C_10
    4  A    between atoms: C_3  and  C_4
    5  A    between atoms: N_8  and  C_9
    6  A    between atoms: C_14  and  C_16
    7  A    between atoms: C_22  and  C_31
    8  A    between atoms: C_24  and  N_25
    9  A    between atoms: C_28  and  O_30
                            x       y       z     vdW  Elec       q    Type
                         _______ _______ _______ _____ _____    ______ ____

>  <TORSDO>
F 9

$$$$
=
 OpenBabel07192307433D

 58 62  0  0  1  0  0  0  0  0999 V2000
   -0.7990   10.8940   20.1110 C   0  0  0  0  0  0  0  0  0  0  0  0
   -0.8570   10.6340   21.4850 C   0  0  0  0  0  0  0  0  0  0  0  0
   -0.0200    9.6790   22.0600 C   0  0  0  0  0  0  0  0  0  0  0  0
    0.8840    8.9730   21.2650 C   0  0  0  0  0  0  0  0  0  0  0  0
    0.9750    9.2130   19.8850 C   0  0  0  0  0  0  0  0  0  0  0  0
    0.1250   10.1790   19.3240 C   0  0  0  0  0  0  0  0  0  0  0  0
   -1.5540   11.1760   22.1210 H   0  0  0  0  0  0  0  0  0  0  0  0
   -0.0700    9.4820   23.1270 H   0  0  0  0  0  0  0  0  0  0  0  0
    1.5270    8.2300   21.7330 H   0  0  0  0  0  0  0  0  0  0  0  0
    0.1670   10.3830   18.2580 H   0  0  0  0  0  0  0  0  0  0  0  0
    1.9320    8.4560   19.0640 C   0  0  0  0  0  0  0  0  0  0  0  0
    2.6060    9.0540   18.0580 N   0  0  0  0  0  0  0  0  0  0  0  0
    3.3710    8.0770   17.5440 N   0  0  0  0  0  0  0  0  0  0  0  0
    3.2400    6.8700   18.1610 C   0  0  0  0  0  0  0  0  0  0  0  0
    2.3070    7.0740   19.1590 C   0  0  0  0  0  0  0  0  0  0  0  0
    1.9090    6.0810   19.9950 N   0  0  0  0  0  0  0  0  0  0  0  0
    2.4800    4.8650   19.7820 C   0  0  0  0  0  0  0  0  0  0  0  0
    3.4320    4.6220   18.7820 C   0  0  0  0  0  0  0  0  0  0  0  0
    3.8500    5.6420   17.9220 C   0  0  0  0  0  0  0  0  0  0  0  0
    3.9730    8.2860   16.7570 H   0  0  0  0  0  0  0  0  0  0  0  0
    3.8540    3.6240   18.6750 H   0  0  0  0  0  0  0  0  0  0  0  0
    4.7890    5.4970   16.9080 N   0  0  0  0  0  0  0  0  0  0  0  0
    4.6230    4.2850   16.0720 C   0  0  0  0  0  0  0  0  0  0  0  0
    5.9240    3.5080   16.2130 C   0  0  0  0  0  0  0  0  0  0  0  0
    6.9510    4.6010   16.4450 C   0  0  1  0  0  0  0  0  0  0  0  0
    6.1910    5.5520   17.3760 C   0  0  0  0  0  0  0  0  0  0  0  0
    3.7570    3.6690   16.3380 H   0  0  0  0  0  0  0  0  0  0  0  0
    4.4910    4.6090   15.0320 H   0  0  0  0  0  0  0  0  0  0  0  0
    6.1480    2.9000   15.3300 H   0  0  0  0  0  0  0  0  0  0  0  0
    5.8810    2.8270   17.0730 H   0  0  0  0  0  0  0  0  0  0  0  0
    7.2100    5.0950   15.5000 H   0  0  0  0  0  0  0  0  0  0  0  0
    6.5830    6.5740   17.2950 H   0  0  0  0  0  0  0  0  0  0  0  0
    6.3120    5.2350   18.4200 H   0  0  0  0  0  0  0  0  0  0  0  0
    8.1210    4.0590   17.0340 O   0  0  0  0  0  0  0  0  0  0  0  0
    8.7160    3.7840   16.3130 H   0  0  0  0  0  0  0  0  0  0  0  0
    2.0840    3.7210   20.7100 C   0  0  0  0  0  0  0  0  0  0  0  0
    0.7350    3.5030   20.7370 F   0  0  0  0  0  0  0  0  0  0  0  0
    2.4390    3.9340   22.0100 F   0  0  0  0  0  0  0  0  0  0  0  0
    2.8640    2.2120   20.1510 Cl  0  0  0  0  0  0  0  0  0  0  0  0
   -1.7390   11.9220   19.4940 C   0  0  1  0  0  0  0  0  0  0  0  0
   -1.9540   12.6840   20.2550 H   0  0  0  0  0  0  0  0  0  0  0  0
   -1.0560   12.6300   18.3180 C   0  0  0  0  0  0  0  0  0  0  0  0
   -1.3760   12.2130   17.3550 H   0  0  0  0  0  0  0  0  0  0  0  0
    0.0350   12.5290   18.3730 H   0  0  0  0  0  0  0  0  0  0  0  0
   -1.2870   13.6990   18.3090 H   0  0  0  0  0  0  0  0  0  0  0  0
   -3.0700   11.2550   19.0820 C   0  0  0  0  0  0  0  0  0  0  0  0
   -3.2610   10.3640   19.6950 H   0  0  0  0  0  0  0  0  0  0  0  0
   -3.8980   11.9460   19.2830 H   0  0  0  0  0  0  0  0  0  0  0  0
   -3.0980   10.8570   17.6430 C   0  0  0  0  0  0  0  0  0  0  0  0
   -2.2630   10.0370   17.0350 N   0  0  0  0  0  0  0  0  0  0  0  0
   -2.6410    9.9330   15.7190 N   0  0  0  0  0  0  0  0  0  0  0  0
   -3.7030   10.6830   15.5490 C   0  0  0  0  0  0  0  0  0  0  0  0
   -4.0310   11.2780   16.7280 N   0  0  0  0  0  0  0  0  0  0  0  0
   -4.2490   10.8160   14.6270 H   0  0  0  0  0  0  0  0  0  0  0  0
   -5.1470   12.1560   16.9480 C   0  0  0  0  0  0  0  0  0  0  0  0
   -5.1850   12.4130   18.0080 H   0  0  0  0  0  0  0  0  0  0  0  0
   -6.0730   11.6520   16.6620 H   0  0  0  0  0  0  0  0  0  0  0  0
   -5.0080   13.0540   16.3400 H   0  0  0  0  0  0  0  0  0  0  0  0
  1  2  1  0  0  0  0
  2  3  2  0  0  0  0
  2  7  1  0  0  0  0
  3  8  1  0  0  0  0
  4  9  1  0  0  0  0
  4  3  1  0  0  0  0
  5  4  2  0  0  0  0
  6  5  1  0  0  0  0
  6  1  2  0  0  0  0
 10  6  1  0  0  0  0
 11 15  1  0  0  0  0
 11  5  1  0  0  0  0
 12 11  2  0  0  0  0
 13 12  1  0  0  0  0
 13 14  1  0  0  0  0
 14 15  1  0  0  0  0
 15 16  2  0  0  0  0
 17 16  1  0  0  0  0
 17 36  1  0  0  0  0
 18 17  2  0  0  0  0
 19 14  2  0  0  0  0
 19 18  1  0  0  0  0
 20 13  1  0  0  0  0
 21 18  1  0  0  0  0
 22 26  1  0  0  0  0
 22 19  1  0  0  0  0
 23 24  1  0  0  0  0
 23 27  1  0  0  0  0
 23 22  1  0  0  0  0
 24 25  1  0  0  0  0
 24 30  1  0  0  0  0
 25 31  1  6  0  0  0
 25 34  1  0  0  0  0
 25 26  1  0  0  0  0
 26 33  1  0  0  0  0
 28 23  1  0  0  0  0
 29 24  1  0  0  0  0
 32 26  1  0  0  0  0
 35 34  1  0  0  0  0
 36 37  1  0  0  0  0
 36 38  1  0  0  0  0
 39 36  1  0  0  0  0
 40  1  1  0  0  0  0
 40 41  1  1  0  0  0
 42 44  1  0  0  0  0
 42 40  1  0  0  0  0
 43 42  1  0  0  0  0
 45 42  1  0  0  0  0
 46 48  1  0  0  0  0
 46 40  1  0  0  0  0
 46 47  1  0  0  0  0
 49 46  1  0  0  0  0
 50 49  2  0  0  0  0
 51 50  1  0  0  0  0
 52 51  2  0  0  0  0
 52 53  1  0  0  0  0
 53 55  1  0  0  0  0
 53 49  1  0  0  0  0
 54 52  1  0  0  0  0
 55 56  1  0  0  0  0
 57 55  1  0  0  0  0
 58 55  1  0  0  0  0
M  END
>  <MODEL>
5

>  <REMARK>
 VINA RESULT:    -9.661      1.020      1.502
 INTER + INTRA:         -13.384
 INTER:                 -12.520
 INTRA:                  -0.864
 UNBOUND:                 0.514
  Name = 
  9 active torsions:
  status: ('A' for Active; 'I' for Inactive)
    1  A    between atoms: C_1  and  C_2
    2  A    between atoms: C_2  and  C_3
    3  A    between atoms: C_2  and  C_10
    4  A    between atoms: C_3  and  C_4
    5  A    between atoms: N_8  and  C_9
    6  A    between atoms: C_14  and  C_16
    7  A    between atoms: C_22  and  C_31
    8  A    between atoms: C_24  and  N_25
    9  A    between atoms: C_28  and  O_30
                            x       y       z     vdW  Elec       q    Type
                         _______ _______ _______ _____ _____    ______ ____

>  <TORSDO>
F 9

$$$$
=
 OpenBabel07192307433D

 58 62  0  0  1  0  0  0  0  0999 V2000
    3.1150    3.9510   18.9660 C   0  0  0  0  0  0  0  0  0  0  0  0
    2.6950    3.4830   20.2160 C   0  0  0  0  0  0  0  0  0  0  0  0
    2.0610    4.3400   21.1140 C   0  0  0  0  0  0  0  0  0  0  0  0
    1.8400    5.6740   20.7720 C   0  0  0  0  0  0  0  0  0  0  0  0
    2.2410    6.1750   19.5230 C   0  0  0  0  0  0  0  0  0  0  0  0
    2.8770    5.2980   18.6310 C   0  0  0  0  0  0  0  0  0  0  0  0
    2.8560    2.4460   20.5020 H   0  0  0  0  0  0  0  0  0  0  0  0
    1.7370    3.9710   22.0840 H   0  0  0  0  0  0  0  0  0  0  0  0
    1.3450    6.3280   21.4880 H   0  0  0  0  0  0  0  0  0  0  0  0
    3.2050    5.6580   17.6590 H   0  0  0  0  0  0  0  0  0  0  0  0
    2.0030    7.5860   19.1810 C   0  0  0  0  0  0  0  0  0  0  0  0
    2.4100    8.0890   17.9960 N   0  0  0  0  0  0  0  0  0  0  0  0
    2.0300    9.3770   18.0340 N   0  0  0  0  0  0  0  0  0  0  0  0
    1.3910    9.7460   19.1780 C   0  0  0  0  0  0  0  0  0  0  0  0
    1.3550    8.6040   19.9560 C   0  0  0  0  0  0  0  0  0  0  0  0
    0.7900    8.5850   21.1900 N   0  0  0  0  0  0  0  0  0  0  0  0
    0.2690    9.7650   21.6210 C   0  0  0  0  0  0  0  0  0  0  0  0
    0.2840   10.9420   20.8580 C   0  0  0  0  0  0  0  0  0  0  0  0
    0.8590   10.9670   19.5840 C   0  0  0  0  0  0  0  0  0  0  0  0
    2.2360    9.9740   17.2420 H   0  0  0  0  0  0  0  0  0  0  0  0
   -0.1610   11.8490   21.2640 H   0  0  0  0  0  0  0  0  0  0  0  0
    0.9170   12.0810   18.7560 N   0  0  0  0  0  0  0  0  0  0  0  0
    2.0170   13.0260   19.0560 C   0  0  0  0  0  0  0  0  0  0  0  0
    1.3450   14.3570   19.3610 C   0  0  0  0  0  0  0  0  0  0  0  0
    0.0850   14.3050   18.5150 C   0  0  1  0  0  0  0  0  0  0  0  0
   -0.3490   12.8440   18.6890 C   0  0  0  0  0  0  0  0  0  0  0  0
    2.6710   12.7100   19.8760 H   0  0  0  0  0  0  0  0  0  0  0  0
    2.6360   13.1180   18.1550 H   0  0  0  0  0  0  0  0  0  0  0  0
    1.9800   15.2140   19.1180 H   0  0  0  0  0  0  0  0  0  0  0  0
    1.0930   14.4310   20.4280 H   0  0  0  0  0  0  0  0  0  0  0  0
    0.3160   14.5270   17.4660 H   0  0  0  0  0  0  0  0  0  0  0  0
   -0.9530   12.5130   17.8360 H   0  0  0  0  0  0  0  0  0  0  0  0
   -0.9660   12.7400   19.5910 H   0  0  0  0  0  0  0  0  0  0  0  0
   -0.8710   15.2330   18.9980 O   0  0  0  0  0  0  0  0  0  0  0  0
   -0.9470   15.1060   19.9610 H   0  0  0  0  0  0  0  0  0  0  0  0
   -0.3990    9.7900   22.9920 C   0  0  0  0  0  0  0  0  0  0  0  0
    0.4920    9.6420   24.0180 F   0  0  0  0  0  0  0  0  0  0  0  0
   -1.3130    8.7920   23.1660 F   0  0  0  0  0  0  0  0  0  0  0  0
   -1.2260   11.3590   23.2160 Cl  0  0  0  0  0  0  0  0  0  0  0  0
    3.8310    3.0080   18.0060 C   0  0  1  0  0  0  0  0  0  0  0  0
    4.7630    2.6800   18.4850 H   0  0  0  0  0  0  0  0  0  0  0  0
    2.9800    1.7580   17.7550 C   0  0  0  0  0  0  0  0  0  0  0  0
    3.4850    0.8490   18.1030 H   0  0  0  0  0  0  0  0  0  0  0  0
    2.7680    1.6280   16.6870 H   0  0  0  0  0  0  0  0  0  0  0  0
    2.0180    1.8210   18.2740 H   0  0  0  0  0  0  0  0  0  0  0  0
    4.1890    3.7450   16.6960 C   0  0  0  0  0  0  0  0  0  0  0  0
    4.0030    3.1000   15.8270 H   0  0  0  0  0  0  0  0  0  0  0  0
    3.5270    4.6120   16.5770 H   0  0  0  0  0  0  0  0  0  0  0  0
    5.6100    4.1990   16.6560 C   0  0  0  0  0  0  0  0  0  0  0  0
    6.3600    4.5350   17.6880 N   0  0  0  0  0  0  0  0  0  0  0  0
    7.6040    4.8840   17.2240 N   0  0  0  0  0  0  0  0  0  0  0  0
    7.5950    4.7470   15.9200 C   0  0  0  0  0  0  0  0  0  0  0  0
    6.3690    4.3150   15.5190 N   0  0  0  0  0  0  0  0  0  0  0  0
    8.4230    4.9370   15.2530 H   0  0  0  0  0  0  0  0  0  0  0  0
    5.9770    4.0280   14.1660 C   0  0  0  0  0  0  0  0  0  0  0  0
    5.0730    3.4160   14.1860 H   0  0  0  0  0  0  0  0  0  0  0  0
    6.7750    3.4810   13.6600 H   0  0  0  0  0  0  0  0  0  0  0  0
    5.7880    4.9740   13.6510 H   0  0  0  0  0  0  0  0  0  0  0  0
  1  2  1  0  0  0  0
  2  7  1  0  0  0  0
  2  3  2  0  0  0  0
  3  8  1  0  0  0  0
  4  3  1  0  0  0  0
  4  9  1  0  0  0  0
  5  4  2  0  0  0  0
  6  1  2  0  0  0  0
  6  5  1  0  0  0  0
 10  6  1  0  0  0  0
 11  5  1  0  0  0  0
 11 15  1  0  0  0  0
 12 13  1  0  0  0  0
 12 11  2  0  0  0  0
 13 14  1  0  0  0  0
 14 19  2  0  0  0  0
 14 15  1  0  0  0  0
 15 16  2  0  0  0  0
 16 17  1  0  0  0  0
 17 36  1  0  0  0  0
 18 21  1  0  0  0  0
 18 17  2  0  0  0  0
 19 18  1  0  0  0  0
 20 13  1  0  0  0  0
 22 23  1  0  0  0  0
 22 19  1  0  0  0  0
 23 24  1  0  0  0  0
 23 27  1  0  0  0  0
 24 30  1  0  0  0  0
 25 31  1  6  0  0  0
 25 26  1  0  0  0  0
 25 34  1  0  0  0  0
 25 24  1  0  0  0  0
 26 22  1  0  0  0  0
 26 33  1  0  0  0  0
 28 23  1  0  0  0  0
 29 24  1  0  0  0  0
 32 26  1  0  0  0  0
 34 35  1  0  0  0  0
 36 38  1  0  0  0  0
 36 39  1  0  0  0  0
 36 37  1  0  0  0  0
 40 41  1  1  0  0  0
 40  1  1  0  0  0  0
 42 40  1  0  0  0  0
 42 43  1  0  0  0  0
 42 45  1  0  0  0  0
 44 42  1  0  0  0  0
 46 40  1  0  0  0  0
 47 46  1  0  0  0  0
 48 46  1  0  0  0  0
 49 46  1  0  0  0  0
 49 50  2  0  0  0  0
 51 50  1  0  0  0  0
 52 51  2  0  0  0  0
 53 52  1  0  0  0  0
 53 49  1  0  0  0  0
 54 52  1  0  0  0  0
 55 56  1  0  0  0  0
 55 53  1  0  0  0  0
 57 55  1  0  0  0  0
 58 55  1  0  0  0  0
M  END
>  <MODEL>
6

>  <REMARK>
 VINA RESULT:    -9.629      4.093      8.829
 INTER + INTRA:         -13.337
 INTER:                 -12.352
 INTRA:                  -0.985
 UNBOUND:                 0.514
  Name = 
  9 active torsions:
  status: ('A' for Active; 'I' for Inactive)
    1  A    between atoms: C_1  and  C_2
    2  A    between atoms: C_2  and  C_3
    3  A    between atoms: C_2  and  C_10
    4  A    between atoms: C_3  and  C_4
    5  A    between atoms: N_8  and  C_9
    6  A    between atoms: C_14  and  C_16
    7  A    between atoms: C_22  and  C_31
    8  A    between atoms: C_24  and  N_25
    9  A    between atoms: C_28  and  O_30
                            x       y       z     vdW  Elec       q    Type
                         _______ _______ _______ _____ _____    ______ ____

>  <TORSDO>
F 9

$$$$
=
 OpenBabel07192307433D

 58 62  0  0  1  0  0  0  0  0999 V2000
   -0.6590   11.0030   21.4680 C   0  0  0  0  0  0  0  0  0  0  0  0
   -0.6780   10.4840   22.7680 C   0  0  0  0  0  0  0  0  0  0  0  0
    0.0420    9.3310   23.0780 C   0  0  0  0  0  0  0  0  0  0  0  0
    0.7880    8.6850   22.0910 C   0  0  0  0  0  0  0  0  0  0  0  0
    0.8350    9.1820   20.7790 C   0  0  0  0  0  0  0  0  0  0  0  0
    0.1060   10.3450   20.4850 C   0  0  0  0  0  0  0  0  0  0  0  0
   -1.2520   10.9740   23.5510 H   0  0  0  0  0  0  0  0  0  0  0  0
    0.0230    8.9320   24.0880 H   0  0  0  0  0  0  0  0  0  0  0  0
    1.3410    7.7850   22.3540 H   0  0  0  0  0  0  0  0  0  0  0  0
    0.1180   10.7510   19.4770 H   0  0  0  0  0  0  0  0  0  0  0  0
    1.6250    8.4850   19.7530 C   0  0  0  0  0  0  0  0  0  0  0  0
    2.0700    9.1410   18.6590 N   0  0  0  0  0  0  0  0  0  0  0  0
    2.7380    8.2060   17.9610 N   0  0  0  0  0  0  0  0  0  0  0  0
    2.7600    6.9740   18.5400 C   0  0  0  0  0  0  0  0  0  0  0  0
    2.0410    7.1120   19.7120 C   0  0  0  0  0  0  0  0  0  0  0  0
    1.8400    6.0780   20.5680 N   0  0  0  0  0  0  0  0  0  0  0  0
    2.3830    4.8880   20.1940 C   0  0  0  0  0  0  0  0  0  0  0  0
    3.1210    4.7110   19.0140 C   0  0  0  0  0  0  0  0  0  0  0  0
    3.3360    5.7740   18.1320 C   0  0  0  0  0  0  0  0  0  0  0  0
    3.1650    8.4630   17.0800 H   0  0  0  0  0  0  0  0  0  0  0  0
    3.5340    3.7310   18.7830 H   0  0  0  0  0  0  0  0  0  0  0  0
    4.0550    5.6950   16.9460 N   0  0  0  0  0  0  0  0  0  0  0  0
    4.4690    4.3270   16.5560 C   0  0  0  0  0  0  0  0  0  0  0  0
    5.9880    4.3660   16.4700 C   0  0  0  0  0  0  0  0  0  0  0  0
    6.2700    5.8010   16.0650 C   0  0  1  0  0  0  0  0  0  0  0  0
    5.2460    6.5720   16.9080 C   0  0  0  0  0  0  0  0  0  0  0  0
    4.1250    3.5410   17.2380 H   0  0  0  0  0  0  0  0  0  0  0  0
    4.0430    4.1160   15.5670 H   0  0  0  0  0  0  0  0  0  0  0  0
    6.3860    3.6400   15.7540 H   0  0  0  0  0  0  0  0  0  0  0  0
    6.4390    4.1420   17.4460 H   0  0  0  0  0  0  0  0  0  0  0  0
    6.0870    5.9430   14.9930 H   0  0  0  0  0  0  0  0  0  0  0  0
    5.0010    7.5330   16.4410 H   0  0  0  0  0  0  0  0  0  0  0  0
    5.6600    6.7840   17.9020 H   0  0  0  0  0  0  0  0  0  0  0  0
    7.6120    6.1430   16.3680 O   0  0  0  0  0  0  0  0  0  0  0  0
    8.1520    5.3390   16.2650 H   0  0  0  0  0  0  0  0  0  0  0  0
    2.2070    3.6990   21.1320 C   0  0  0  0  0  0  0  0  0  0  0  0
    0.9420    3.1800   21.0980 F   0  0  0  0  0  0  0  0  0  0  0  0
    2.4320    4.0070   22.4420 F   0  0  0  0  0  0  0  0  0  0  0  0
    3.3370    2.3980   20.6550 Cl  0  0  0  0  0  0  0  0  0  0  0  0
   -1.4720   12.2490   21.1380 C   0  0  1  0  0  0  0  0  0  0  0  0
   -0.8140   13.1220   21.2480 H   0  0  0  0  0  0  0  0  0  0  0  0
   -1.9390   12.2090   19.6780 C   0  0  0  0  0  0  0  0  0  0  0  0
   -3.0000   12.4710   19.5860 H   0  0  0  0  0  0  0  0  0  0  0  0
   -1.8090   11.2090   19.2480 H   0  0  0  0  0  0  0  0  0  0  0  0
   -1.3700   12.9090   19.0600 H   0  0  0  0  0  0  0  0  0  0  0  0
   -2.6510   12.3990   22.1260 C   0  0  0  0  0  0  0  0  0  0  0  0
   -3.5760   12.6430   21.5890 H   0  0  0  0  0  0  0  0  0  0  0  0
   -2.8310   11.4360   22.6200 H   0  0  0  0  0  0  0  0  0  0  0  0
   -2.4090   13.4470   23.1610 C   0  0  0  0  0  0  0  0  0  0  0  0
   -1.2390   13.9030   23.5640 N   0  0  0  0  0  0  0  0  0  0  0  0
   -1.4550   14.8650   24.5200 N   0  0  0  0  0  0  0  0  0  0  0  0
   -2.7510   14.9840   24.6780 C   0  0  0  0  0  0  0  0  0  0  0  0
   -3.3910   14.1200   23.8440 N   0  0  0  0  0  0  0  0  0  0  0  0
   -3.2510   15.6610   25.3560 H   0  0  0  0  0  0  0  0  0  0  0  0
   -4.8140   13.9720   23.7130 C   0  0  0  0  0  0  0  0  0  0  0  0
   -5.0310   12.9560   23.3790 H   0  0  0  0  0  0  0  0  0  0  0  0
   -5.1910   14.6860   22.9760 H   0  0  0  0  0  0  0  0  0  0  0  0
   -5.2750   14.1640   24.6850 H   0  0  0  0  0  0  0  0  0  0  0  0
  1  2  1  0  0  0  0
  2  3  2  0  0  0  0
  2  7  1  0  0  0  0
  3  8  1  0  0  0  0
  4  9  1  0  0  0  0
  4  3  1  0  0  0  0
  5  4  2  0  0  0  0
  6  5  1  0  0  0  0
  6  1  2  0  0  0  0
 10  6  1  0  0  0  0
 11  5  1  0  0  0  0
 12 11  2  0  0  0  0
 13 14  1  0  0  0  0
 13 12  1  0  0  0  0
 14 15  1  0  0  0  0
 15 11  1  0  0  0  0
 15 16  2  0  0  0  0
 17 16  1  0  0  0  0
 17 36  1  0  0  0  0
 18 17  2  0  0  0  0
 19 14  2  0  0  0  0
 19 18  1  0  0  0  0
 20 13  1  0  0  0  0
 21 18  1  0  0  0  0
 22 19  1  0  0  0  0
 23 22  1  0  0  0  0
 23 27  1  0  0  0  0
 24 23  1  0  0  0  0
 24 30  1  0  0  0  0
 25 31  1  6  0  0  0
 25 34  1  0  0  0  0
 25 24  1  0  0  0  0
 25 26  1  0  0  0  0
 26 22  1  0  0  0  0
 26 33  1  0  0  0  0
 28 23  1  0  0  0  0
 29 24  1  0  0  0  0
 32 26  1  0  0  0  0
 35 34  1  0  0  0  0
 36 38  1  0  0  0  0
 37 36  1  0  0  0  0
 39 36  1  0  0  0  0
 40 41  1  1  0  0  0
 40  1  1  0  0  0  0
 40 46  1  0  0  0  0
 42 40  1  0  0  0  0
 43 42  1  0  0  0  0
 44 42  1  0  0  0  0
 45 42  1  0  0  0  0
 46 48  1  0  0  0  0
 46 49  1  0  0  0  0
 47 46  1  0  0  0  0
 49 50  2  0  0  0  0
 49 53  1  0  0  0  0
 50 51  1  0  0  0  0
 51 52  2  0  0  0  0
 52 54  1  0  0  0  0
 53 52  1  0  0  0  0
 55 53  1  0  0  0  0
 55 58  1  0  0  0  0
 56 55  1  0  0  0  0
 57 55  1  0  0  0  0
M  END
>  <MODEL>
7

>  <REMARK>
 VINA RESULT:    -9.428      2.298      3.279
 INTER + INTRA:         -13.048
 INTER:                 -12.390
 INTRA:                  -0.658
 UNBOUND:                 0.514
  Name = 
  9 active torsions:
  status: ('A' for Active; 'I' for Inactive)
    1  A    between atoms: C_1  and  C_2
    2  A    between atoms: C_2  and  C_3
    3  A    between atoms: C_2  and  C_10
    4  A    between atoms: C_3  and  C_4
    5  A    between atoms: N_8  and  C_9
    6  A    between atoms: C_14  and  C_16
    7  A    between atoms: C_22  and  C_31
    8  A    between atoms: C_24  and  N_25
    9  A    between atoms: C_28  and  O_30
                            x       y       z     vdW  Elec       q    Type
                         _______ _______ _______ _____ _____    ______ ____

>  <TORSDO>
F 9

$$$$
=
 OpenBabel07192307433D

 58 62  0  0  1  0  0  0  0  0999 V2000
   -0.2060   11.0360   21.0160 C   0  0  0  0  0  0  0  0  0  0  0  0
   -0.6350   10.3620   22.1660 C   0  0  0  0  0  0  0  0  0  0  0  0
   -0.2480    9.0430   22.3960 C   0  0  0  0  0  0  0  0  0  0  0  0
    0.5710    8.3830   21.4790 C   0  0  0  0  0  0  0  0  0  0  0  0
    1.0260    9.0310   20.3200 C   0  0  0  0  0  0  0  0  0  0  0  0
    0.6280   10.3600   20.1040 C   0  0  0  0  0  0  0  0  0  0  0  0
   -1.2730   10.8590   22.8930 H   0  0  0  0  0  0  0  0  0  0  0  0
   -0.5840    8.5240   23.2900 H   0  0  0  0  0  0  0  0  0  0  0  0
    0.8600    7.3520   21.6760 H   0  0  0  0  0  0  0  0  0  0  0  0
    0.9580   10.8860   19.2130 H   0  0  0  0  0  0  0  0  0  0  0  0
    1.8860    8.3180   19.3630 C   0  0  0  0  0  0  0  0  0  0  0  0
    2.3860    8.9480   18.2790 N   0  0  0  0  0  0  0  0  0  0  0  0
    3.1090    8.0060   17.6510 N   0  0  0  0  0  0  0  0  0  0  0  0
    3.1140    6.7910   18.2660 C   0  0  0  0  0  0  0  0  0  0  0  0
    2.3240    6.9520   19.3890 C   0  0  0  0  0  0  0  0  0  0  0  0
    2.0870    5.9390   20.2610 N   0  0  0  0  0  0  0  0  0  0  0  0
    2.6690    4.7480   19.9560 C   0  0  0  0  0  0  0  0  0  0  0  0
    3.4800    4.5490   18.8280 C   0  0  0  0  0  0  0  0  0  0  0  0
    3.7320    5.5900   17.9300 C   0  0  0  0  0  0  0  0  0  0  0  0
    3.5850    8.2440   16.7900 H   0  0  0  0  0  0  0  0  0  0  0  0
    3.9210    3.5700   18.6520 H   0  0  0  0  0  0  0  0  0  0  0  0
    4.5220    5.4880   16.7920 N   0  0  0  0  0  0  0  0  0  0  0  0
    4.3900    4.2120   16.0510 C   0  0  0  0  0  0  0  0  0  0  0  0
    5.7860    3.6040   16.0280 C   0  0  0  0  0  0  0  0  0  0  0  0
    6.6890    4.8240   16.0460 C   0  0  1  0  0  0  0  0  0  0  0  0
    5.9590    5.7400   17.0360 C   0  0  0  0  0  0  0  0  0  0  0  0
    3.6580    3.5180   16.4770 H   0  0  0  0  0  0  0  0  0  0  0  0
    4.0680    4.4480   15.0300 H   0  0  0  0  0  0  0  0  0  0  0  0
    5.9530    2.9700   15.1520 H   0  0  0  0  0  0  0  0  0  0  0  0
    5.9550    2.9830   16.9170 H   0  0  0  0  0  0  0  0  0  0  0  0
    6.7420    5.2800   15.0500 H   0  0  0  0  0  0  0  0  0  0  0  0
    6.2030    6.7920   16.8460 H   0  0  0  0  0  0  0  0  0  0  0  0
    6.2710    5.5090   18.0630 H   0  0  0  0  0  0  0  0  0  0  0  0
    7.9920    4.4640   16.4740 O   0  0  0  0  0  0  0  0  0  0  0  0
    8.5250    4.2830   15.6790 H   0  0  0  0  0  0  0  0  0  0  0  0
    2.4550    3.5840   20.9170 C   0  0  0  0  0  0  0  0  0  0  0  0
    2.3970    3.9800   22.2250 F   0  0  0  0  0  0  0  0  0  0  0  0
    3.4510    2.6530   20.8690 F   0  0  0  0  0  0  0  0  0  0  0  0
    0.9080    2.7760   20.5300 Cl  0  0  0  0  0  0  0  0  0  0  0  0
   -0.6590   12.4690   20.7650 C   0  0  1  0  0  0  0  0  0  0  0  0
   -0.8240   12.5890   19.6860 H   0  0  0  0  0  0  0  0  0  0  0  0
   -1.9970   12.7340   21.4650 C   0  0  0  0  0  0  0  0  0  0  0  0
   -2.8460   12.5660   20.7910 H   0  0  0  0  0  0  0  0  0  0  0  0
   -2.0600   13.7690   21.8230 H   0  0  0  0  0  0  0  0  0  0  0  0
   -2.1280   12.0790   22.3320 H   0  0  0  0  0  0  0  0  0  0  0  0
    0.4380   13.4640   21.2040 C   0  0  0  0  0  0  0  0  0  0  0  0
   -0.0100   14.3970   21.5690 H   0  0  0  0  0  0  0  0  0  0  0  0
    0.9910   13.0410   22.0510 H   0  0  0  0  0  0  0  0  0  0  0  0
    1.3950   13.7930   20.1060 C   0  0  0  0  0  0  0  0  0  0  0  0
    1.1600   13.7290   18.8100 N   0  0  0  0  0  0  0  0  0  0  0  0
    2.2950   14.1220   18.1440 N   0  0  0  0  0  0  0  0  0  0  0  0
    3.1980   14.4270   19.0440 C   0  0  0  0  0  0  0  0  0  0  0  0
    2.6790   14.2420   20.2880 N   0  0  0  0  0  0  0  0  0  0  0  0
    4.2010   14.7770   18.8480 H   0  0  0  0  0  0  0  0  0  0  0  0
    3.3560   14.4900   21.5310 C   0  0  0  0  0  0  0  0  0  0  0  0
    3.3130   13.5860   22.1390 H   0  0  0  0  0  0  0  0  0  0  0  0
    2.8640   15.3090   22.0600 H   0  0  0  0  0  0  0  0  0  0  0  0
    4.3940   14.7580   21.3140 H   0  0  0  0  0  0  0  0  0  0  0  0
  1  2  1  0  0  0  0
  2  3  2  0  0  0  0
  2  7  1  0  0  0  0
  3  8  1  0  0  0  0
  4  9  1  0  0  0  0
  4  3  1  0  0  0  0
  5  4  2  0  0  0  0
  6  5  1  0  0  0  0
  6  1  2  0  0  0  0
 10  6  1  0  0  0  0
 11 15  1  0  0  0  0
 11  5  1  0  0  0  0
 12 11  2  0  0  0  0
 13 14  1  0  0  0  0
 13 12  1  0  0  0  0
 14 15  1  0  0  0  0
 15 16  2  0  0  0  0
 17 16  1  0  0  0  0
 17 36  1  0  0  0  0
 18 17  2  0  0  0  0
 19 14  2  0  0  0  0
 19 18  1  0  0  0  0
 20 13  1  0  0  0  0
 21 18  1  0  0  0  0
 22 26  1  0  0  0  0
 22 19  1  0  0  0  0
 23 27  1  0  0  0  0
 23 22  1  0  0  0  0
 24 25  1  0  0  0  0
 24 23  1  0  0  0  0
 24 30  1  0  0  0  0
 25 31  1  6  0  0  0
 25 34  1  0  0  0  0
 25 26  1  0  0  0  0
 26 33  1  0  0  0  0
 28 23  1  0  0  0  0
 29 24  1  0  0  0  0
 32 26  1  0  0  0  0
 35 34  1  0  0  0  0
 36 37  1  0  0  0  0
 38 36  1  0  0  0  0
 39 36  1  0  0  0  0
 40 41  1  6  0  0  0
 40  1  1  0  0  0  0
 40 46  1  0  0  0  0
 40 42  1  0  0  0  0
 42 44  1  0  0  0  0
 42 45  1  0  0  0  0
 43 42  1  0  0  0  0
 46 47  1  0  0  0  0
 46 48  1  0  0  0  0
 49 53  1  0  0  0  0
 49 46  1  0  0  0  0
 50 49  2  0  0  0  0
 51 50  1  0  0  0  0
 51 52  2  0  0  0  0
 52 53  1  0  0  0  0
 53 55  1  0  0  0  0
 54 52  1  0  0  0  0
 55 57  1  0  0  0  0
 55 56  1  0  0  0  0
 58 55  1  0  0  0  0
M  END
>  <MODEL>
8

>  <REMARK>
 VINA RESULT:    -9.281      2.254      3.169
 INTER + INTRA:         -12.836
 INTER:                 -11.820
 INTRA:                  -1.016
 UNBOUND:                 0.514
  Name = 
  9 active torsions:
  status: ('A' for Active; 'I' for Inactive)
    1  A    between atoms: C_1  and  C_2
    2  A    between atoms: C_2  and  C_3
    3  A    between atoms: C_2  and  C_10
    4  A    between atoms: C_3  and  C_4
    5  A    between atoms: N_8  and  C_9
    6  A    between atoms: C_14  and  C_16
    7  A    between atoms: C_22  and  C_31
    8  A    between atoms: C_24  and  N_25
    9  A    between atoms: C_28  and  O_30
                            x       y       z     vdW  Elec       q    Type
                         _______ _______ _______ _____ _____    ______ ____

>  <TORSDO>
F 9

$$$$
=
 OpenBabel07192307433D

 58 62  0  0  1  0  0  0  0  0999 V2000
    2.7410    6.5290   19.3180 C   0  0  0  0  0  0  0  0  0  0  0  0
    3.1610    6.7620   18.0030 C   0  0  0  0  0  0  0  0  0  0  0  0
    2.8080    7.9400   17.3470 C   0  0  0  0  0  0  0  0  0  0  0  0
    2.0300    8.8980   17.9990 C   0  0  0  0  0  0  0  0  0  0  0  0
    1.5980    8.7010   19.3200 C   0  0  0  0  0  0  0  0  0  0  0  0
    1.9650    7.5090   19.9650 C   0  0  0  0  0  0  0  0  0  0  0  0
    3.7690    6.0290   17.4780 H   0  0  0  0  0  0  0  0  0  0  0  0
    3.1360    8.1160   16.3260 H   0  0  0  0  0  0  0  0  0  0  0  0
    1.7630    9.8100   17.4690 H   0  0  0  0  0  0  0  0  0  0  0  0
    1.6400    7.3250   20.9860 H   0  0  0  0  0  0  0  0  0  0  0  0
    0.7770    9.7210   19.9890 C   0  0  0  0  0  0  0  0  0  0  0  0
    1.1080   10.1810   21.2150 N   0  0  0  0  0  0  0  0  0  0  0  0
    0.1530   11.0820   21.5010 N   0  0  0  0  0  0  0  0  0  0  0  0
   -0.7860   11.2410   20.5270 C   0  0  0  0  0  0  0  0  0  0  0  0
   -0.4160   10.3670   19.5220 C   0  0  0  0  0  0  0  0  0  0  0  0
   -1.1260   10.2410   18.3730 N   0  0  0  0  0  0  0  0  0  0  0  0
   -2.2350   11.0220   18.2740 C   0  0  0  0  0  0  0  0  0  0  0  0
   -2.6390   11.9220   19.2710 C   0  0  0  0  0  0  0  0  0  0  0  0
   -1.9090   12.0600   20.4550 C   0  0  0  0  0  0  0  0  0  0  0  0
    0.1840   11.5660   22.3890 H   0  0  0  0  0  0  0  0  0  0  0  0
   -3.5340   12.5230   19.1200 H   0  0  0  0  0  0  0  0  0  0  0  0
   -2.2280   12.9260   21.4940 N   0  0  0  0  0  0  0  0  0  0  0  0
   -2.9210   12.2960   22.6420 C   0  0  0  0  0  0  0  0  0  0  0  0
   -4.2500   13.0250   22.7710 C   0  0  0  0  0  0  0  0  0  0  0  0
   -3.9270   14.4170   22.2600 C   0  0  1  0  0  0  0  0  0  0  0  0
   -3.0100   14.1080   21.0700 C   0  0  0  0  0  0  0  0  0  0  0  0
   -3.0640   11.2140   22.5430 H   0  0  0  0  0  0  0  0  0  0  0  0
   -2.3110   12.4670   23.5370 H   0  0  0  0  0  0  0  0  0  0  0  0
   -4.6270   13.0310   23.7990 H   0  0  0  0  0  0  0  0  0  0  0  0
   -5.0180   12.5500   22.1460 H   0  0  0  0  0  0  0  0  0  0  0  0
   -3.3990   14.9970   23.0260 H   0  0  0  0  0  0  0  0  0  0  0  0
   -2.3450   14.9540   20.8600 H   0  0  0  0  0  0  0  0  0  0  0  0
   -3.6110   13.9300   20.1680 H   0  0  0  0  0  0  0  0  0  0  0  0
   -5.1160   15.0920   21.8880 O   0  0  0  0  0  0  0  0  0  0  0  0
   -5.2420   15.8330   22.5080 H   0  0  0  0  0  0  0  0  0  0  0  0
   -3.0550   10.9350   16.9910 C   0  0  0  0  0  0  0  0  0  0  0  0
   -3.3040    9.6460   16.6080 F   0  0  0  0  0  0  0  0  0  0  0  0
   -2.4430   11.5150   15.9190 F   0  0  0  0  0  0  0  0  0  0  0  0
   -4.6330   11.7380   17.2430 Cl  0  0  0  0  0  0  0  0  0  0  0  0
    3.1140    5.2240   20.0120 C   0  0  1  0  0  0  0  0  0  0  0  0
    3.8380    5.4570   20.8040 H   0  0  0  0  0  0  0  0  0  0  0  0
    1.8810    4.6090   20.6840 C   0  0  0  0  0  0  0  0  0  0  0  0
    1.1130    4.3400   19.9500 H   0  0  0  0  0  0  0  0  0  0  0  0
    1.4260    5.3080   21.3950 H   0  0  0  0  0  0  0  0  0  0  0  0
    2.1420    3.7020   21.2380 H   0  0  0  0  0  0  0  0  0  0  0  0
    3.7800    4.2550   19.0110 C   0  0  0  0  0  0  0  0  0  0  0  0
    3.7700    3.2290   19.4020 H   0  0  0  0  0  0  0  0  0  0  0  0
    3.1930    4.2330   18.0850 H   0  0  0  0  0  0  0  0  0  0  0  0
    5.1900    4.6290   18.6930 C   0  0  0  0  0  0  0  0  0  0  0  0
    6.0710    5.1580   19.5190 N   0  0  0  0  0  0  0  0  0  0  0  0
    7.2490    5.3400   18.8370 N   0  0  0  0  0  0  0  0  0  0  0  0
    7.0690    4.9120   17.6110 C   0  0  0  0  0  0  0  0  0  0  0  0
    5.7970    4.4520   17.4750 N   0  0  0  0  0  0  0  0  0  0  0  0
    7.8060    4.9120   16.8220 H   0  0  0  0  0  0  0  0  0  0  0  0
    5.2290    3.8830   16.2830 C   0  0  0  0  0  0  0  0  0  0  0  0
    5.6500    2.8870   16.1360 H   0  0  0  0  0  0  0  0  0  0  0  0
    5.4720    4.5110   15.4240 H   0  0  0  0  0  0  0  0  0  0  0  0
    4.1440    3.8260   16.4080 H   0  0  0  0  0  0  0  0  0  0  0  0
  1  6  1  0  0  0  0
  1 40  1  0  0  0  0
  2  1  2  0  0  0  0
  3  4  2  0  0  0  0
  3  2  1  0  0  0  0
  4  5  1  0  0  0  0
  5  6  2  0  0  0  0
  5 11  1  0  0  0  0
  6 10  1  0  0  0  0
  7  2  1  0  0  0  0
  8  3  1  0  0  0  0
  9  4  1  0  0  0  0
 11 12  2  0  0  0  0
 12 13  1  0  0  0  0
 13 20  1  0  0  0  0
 14 13  1  0  0  0  0
 15 11  1  0  0  0  0
 15 14  2  0  0  0  0
 16 15  1  0  0  0  0
 17 16  2  0  0  0  0
 17 18  1  0  0  0  0
 18 19  2  0  0  0  0
 19 14  1  0  0  0  0
 19 22  1  0  0  0  0
 21 18  1  0  0  0  0
 22 23  1  0  0  0  0
 23 24  1  0  0  0  0
 23 28  1  0  0  0  0
 24 29  1  0  0  0  0
 25 24  1  0  0  0  0
 25 31  1  1  0  0  0
 26 22  1  0  0  0  0
 26 25  1  0  0  0  0
 27 23  1  0  0  0  0
 30 24  1  0  0  0  0
 32 26  1  0  0  0  0
 33 26  1  0  0  0  0
 34 25  1  0  0  0  0
 34 35  1  0  0  0  0
 36 39  1  0  0  0  0
 36 17  1  0  0  0  0
 37 36  1  0  0  0  0
 38 36  1  0  0  0  0
 40 42  1  0  0  0  0
 40 41  1  1  0  0  0
 42 45  1  0  0  0  0
 42 44  1  0  0  0  0
 43 42  1  0  0  0  0
 46 47  1  0  0  0  0
 46 40  1  0  0  0  0
 48 46  1  0  0  0  0
 49 46  1  0  0  0  0
 49 50  2  0  0  0  0
 51 50  1  0  0  0  0
 52 51  2  0  0  0  0
 53 52  1  0  0  0  0
 53 49  1  0  0  0  0
 54 52  1  0  0  0  0
 55 58  1  0  0  0  0
 55 53  1  0  0  0  0
 56 55  1  0  0  0  0
 57 55  1  0  0  0  0
M  END
>  <MODEL>
9

>  <REMARK>
 VINA RESULT:    -9.182      4.780      9.830
 INTER + INTRA:         -12.694
 INTER:                 -11.977
 INTRA:                  -0.717
 UNBOUND:                 0.514
  Name = 
  9 active torsions:
  status: ('A' for Active; 'I' for Inactive)
    1  A    between atoms: C_1  and  C_2
    2  A    between atoms: C_2  and  C_3
    3  A    between atoms: C_2  and  C_10
    4  A    between atoms: C_3  and  C_4
    5  A    between atoms: N_8  and  C_9
    6  A    between atoms: C_14  and  C_16
    7  A    between atoms: C_22  and  C_31
    8  A    between atoms: C_24  and  N_25
    9  A    between atoms: C_28  and  O_30
                            x       y       z     vdW  Elec       q    Type
                         _______ _______ _______ _____ _____    ______ ____

>  <TORSDO>
F 9

$$$$
=
 OpenBabel07192307433D

 58 62  0  0  1  0  0  0  0  0999 V2000
   -0.6040   10.3170   20.6880 C   0  0  0  0  0  0  0  0  0  0  0  0
   -1.5380   10.8390   19.7850 C   0  0  0  0  0  0  0  0  0  0  0  0
   -1.3540   10.6870   18.4120 C   0  0  0  0  0  0  0  0  0  0  0  0
   -0.2340   10.0110   17.9260 C   0  0  0  0  0  0  0  0  0  0  0  0
    0.7180    9.4680   18.8040 C   0  0  0  0  0  0  0  0  0  0  0  0
    0.5160    9.6300   20.1830 C   0  0  0  0  0  0  0  0  0  0  0  0
   -2.4180   11.3680   20.1440 H   0  0  0  0  0  0  0  0  0  0  0  0
   -2.0820   11.0950   17.7160 H   0  0  0  0  0  0  0  0  0  0  0  0
   -0.1080    9.9050   16.8510 H   0  0  0  0  0  0  0  0  0  0  0  0
    1.2390    9.2260   20.8870 H   0  0  0  0  0  0  0  0  0  0  0  0
    1.8940    8.7610   18.2720 C   0  0  0  0  0  0  0  0  0  0  0  0
    2.8030    9.4070   17.5100 N   0  0  0  0  0  0  0  0  0  0  0  0
    3.7160    8.4660   17.2140 N   0  0  0  0  0  0  0  0  0  0  0  0
    3.4570    7.2390   17.7440 C   0  0  0  0  0  0  0  0  0  0  0  0
    2.2730    7.3880   18.4410 C   0  0  0  0  0  0  0  0  0  0  0  0
    1.6900    6.3600   19.1100 N   0  0  0  0  0  0  0  0  0  0  0  0
    2.3390    5.1680   19.0420 C   0  0  0  0  0  0  0  0  0  0  0  0
    3.5430    4.9790   18.3480 C   0  0  0  0  0  0  0  0  0  0  0  0
    4.1520    6.0350   17.6630 C   0  0  0  0  0  0  0  0  0  0  0  0
    4.5080    8.7150   16.6350 H   0  0  0  0  0  0  0  0  0  0  0  0
    4.0120    3.9970   18.3450 H   0  0  0  0  0  0  0  0  0  0  0  0
    5.3430    5.9450   16.9530 N   0  0  0  0  0  0  0  0  0  0  0  0
    5.3280    4.9830   15.8260 C   0  0  0  0  0  0  0  0  0  0  0  0
    6.4320    3.9790   16.1280 C   0  0  0  0  0  0  0  0  0  0  0  0
    7.4380    4.8040   16.9100 C   0  0  1  0  0  0  0  0  0  0  0  0
    6.5230    5.6570   17.7970 C   0  0  0  0  0  0  0  0  0  0  0  0
    4.3650    4.4850   15.6720 H   0  0  0  0  0  0  0  0  0  0  0  0
    5.5650    5.5360   14.9090 H   0  0  0  0  0  0  0  0  0  0  0  0
    6.8610    3.5410   15.2210 H   0  0  0  0  0  0  0  0  0  0  0  0
    6.0500    3.1520   16.7400 H   0  0  0  0  0  0  0  0  0  0  0  0
    8.0310    5.4330   16.2340 H   0  0  0  0  0  0  0  0  0  0  0  0
    7.0220    6.5880   18.0910 H   0  0  0  0  0  0  0  0  0  0  0  0
    6.2750    5.1110   18.7170 H   0  0  0  0  0  0  0  0  0  0  0  0
    8.3010    3.9560   17.6490 O   0  0  0  0  0  0  0  0  0  0  0  0
    8.2550    3.0680   17.2510 H   0  0  0  0  0  0  0  0  0  0  0  0
    1.7380    3.9860   19.7970 C   0  0  0  0  0  0  0  0  0  0  0  0
    0.8420    4.3710   20.7560 F   0  0  0  0  0  0  0  0  0  0  0  0
    2.6680    3.2370   20.4570 F   0  0  0  0  0  0  0  0  0  0  0  0
    0.8730    2.9280   18.6440 Cl  0  0  0  0  0  0  0  0  0  0  0  0
   -0.8060   10.5150   22.1860 C   0  0  1  0  0  0  0  0  0  0  0  0
   -1.8310   10.2080   22.4330 H   0  0  0  0  0  0  0  0  0  0  0  0
    0.1470    9.6100   22.9750 C   0  0  0  0  0  0  0  0  0  0  0  0
   -0.0410    9.6690   24.0530 H   0  0  0  0  0  0  0  0  0  0  0  0
    1.1930    9.8920   22.8070 H   0  0  0  0  0  0  0  0  0  0  0  0
    0.0380    8.5630   22.6760 H   0  0  0  0  0  0  0  0  0  0  0  0
   -0.6400   12.0050   22.5580 C   0  0  0  0  0  0  0  0  0  0  0  0
    0.2290   12.1450   23.2130 H   0  0  0  0  0  0  0  0  0  0  0  0
   -0.4320   12.5830   21.6490 H   0  0  0  0  0  0  0  0  0  0  0  0
   -1.8450   12.5710   23.2360 C   0  0  0  0  0  0  0  0  0  0  0  0
   -2.9560   11.9260   23.5360 N   0  0  0  0  0  0  0  0  0  0  0  0
   -3.8090   12.8030   24.1610 N   0  0  0  0  0  0  0  0  0  0  0  0
   -3.2010   13.9620   24.2390 C   0  0  0  0  0  0  0  0  0  0  0  0
   -1.9660   13.8640   23.6780 N   0  0  0  0  0  0  0  0  0  0  0  0
   -3.6010   14.8630   24.6800 H   0  0  0  0  0  0  0  0  0  0  0  0
   -0.9920   14.9180   23.5910 C   0  0  0  0  0  0  0  0  0  0  0  0
    0.0050   14.4770   23.6320 H   0  0  0  0  0  0  0  0  0  0  0  0
   -1.1200   15.6060   24.4300 H   0  0  0  0  0  0  0  0  0  0  0  0
   -1.1390   15.4500   22.6470 H   0  0  0  0  0  0  0  0  0  0  0  0
  1 40  1  0  0  0  0
  2  7  1  0  0  0  0
  2  1  2  0  0  0  0
  3  2  1  0  0  0  0
  4  3  2  0  0  0  0
  4  5  1  0  0  0  0
  5  6  2  0  0  0  0
  6  1  1  0  0  0  0
  6 10  1  0  0  0  0
  8  3  1  0  0  0  0
  9  4  1  0  0  0  0
 11 15  1  0  0  0  0
 11  5  1  0  0  0  0
 12 11  2  0  0  0  0
 13 12  1  0  0  0  0
 13 14  1  0  0  0  0
 14 15  1  0  0  0  0
 15 16  2  0  0  0  0
 17 16  1  0  0  0  0
 17 36  1  0  0  0  0
 18 17  2  0  0  0  0
 19 14  2  0  0  0  0
 19 18  1  0  0  0  0
 20 13  1  0  0  0  0
 21 18  1  0  0  0  0
 22 19  1  0  0  0  0
 22 26  1  0  0  0  0
 23 24  1  0  0  0  0
 23 22  1  0  0  0  0
 24 30  1  0  0  0  0
 24 25  1  0  0  0  0
 25 31  1  6  0  0  0
 25 34  1  0  0  0  0
 25 26  1  0  0  0  0
 26 32  1  0  0  0  0
 26 33  1  0  0  0  0
 27 23  1  0  0  0  0
 28 23  1  0  0  0  0
 29 24  1  0  0  0  0
 35 34  1  0  0  0  0
 36 38  1  0  0  0  0
 36 37  1  0  0  0  0
 39 36  1  0  0  0  0
 40 41  1  1  0  0  0
 40 46  1  0  0  0  0
 40 42  1  0  0  0  0
 42 43  1  0  0  0  0
 44 42  1  0  0  0  0
 45 42  1  0  0  0  0
 46 47  1  0  0  0  0
 46 49  1  0  0  0  0
 48 46  1  0  0  0  0
 49 50  2  0  0  0  0
 49 53  1  0  0  0  0
 50 51  1  0  0  0  0
 51 52  2  0  0  0  0
 52 54  1  0  0  0  0
 53 52  1  0  0  0  0
 55 56  1  0  0  0  0
 55 53  1  0  0  0  0
 55 57  1  0  0  0  0
 58 55  1  0  0  0  0
M  END
>  <MODEL>
10

>  <REMARK>
 VINA RESULT:    -9.104      2.107      3.368
 INTER + INTRA:         -12.582
 INTER:                 -11.286
 INTRA:                  -1.296
 UNBOUND:                 0.514
  Name = 
  9 active torsions:
  status: ('A' for Active; 'I' for Inactive)
    1  A    between atoms: C_1  and  C_2
    2  A    between atoms: C_2  and  C_3
    3  A    between atoms: C_2  and  C_10
    4  A    between atoms: C_3  and  C_4
    5  A    between atoms: N_8  and  C_9
    6  A    between atoms: C_14  and  C_16
    7  A    between atoms: C_22  and  C_31
    8  A    between atoms: C_24  and  N_25
    9  A    between atoms: C_28  and  O_30
                            x       y       z     vdW  Elec       q    Type
                         _______ _______ _______ _____ _____    ______ ____

>  <TORSDO>
F 9

$$$$
=
 OpenBabel07192307433D

 58 62  0  0  1  0  0  0  0  0999 V2000
   -0.0400    9.9550   18.7490 C   0  0  0  0  0  0  0  0  0  0  0  0
   -0.1530   10.0460   20.1420 C   0  0  0  0  0  0  0  0  0  0  0  0
    0.6530    9.2660   20.9680 C   0  0  0  0  0  0  0  0  0  0  0  0
    1.5820    8.3860   20.4110 C   0  0  0  0  0  0  0  0  0  0  0  0
    1.7270    8.2750   19.0190 C   0  0  0  0  0  0  0  0  0  0  0  0
    0.9070    9.0690   18.2020 C   0  0  0  0  0  0  0  0  0  0  0  0
   -0.8700   10.7270   20.5950 H   0  0  0  0  0  0  0  0  0  0  0  0
    0.5610    9.3400   22.0480 H   0  0  0  0  0  0  0  0  0  0  0  0
    2.2010    7.7840   21.0730 H   0  0  0  0  0  0  0  0  0  0  0  0
    0.9920    9.0010   17.1210 H   0  0  0  0  0  0  0  0  0  0  0  0
    2.7100    7.3390   18.4500 C   0  0  0  0  0  0  0  0  0  0  0  0
    3.7650    7.7920   17.7400 N   0  0  0  0  0  0  0  0  0  0  0  0
    4.4310    6.6780   17.3890 N   0  0  0  0  0  0  0  0  0  0  0  0
    3.8710    5.5190   17.8340 C   0  0  0  0  0  0  0  0  0  0  0  0
    2.7420    5.9070   18.5300 C   0  0  0  0  0  0  0  0  0  0  0  0
    1.9130    5.0120   19.1240 N   0  0  0  0  0  0  0  0  0  0  0  0
    2.2560    3.7040   18.9820 C   0  0  0  0  0  0  0  0  0  0  0  0
    3.3950    3.2730   18.2860 C   0  0  0  0  0  0  0  0  0  0  0  0
    4.2560    4.1910   17.6770 C   0  0  0  0  0  0  0  0  0  0  0  0
    5.2730    6.7640   16.8330 H   0  0  0  0  0  0  0  0  0  0  0  0
    3.6120    2.2090   18.2210 H   0  0  0  0  0  0  0  0  0  0  0  0
    5.4070    3.8600   16.9720 N   0  0  0  0  0  0  0  0  0  0  0  0
    6.6680    4.3700   17.5570 C   0  0  0  0  0  0  0  0  0  0  0  0
    7.2960    5.2460   16.4820 C   0  0  0  0  0  0  0  0  0  0  0  0
    6.8160    4.6010   15.1950 C   0  0  1  0  0  0  0  0  0  0  0  0
    5.3660    4.2450   15.5440 C   0  0  0  0  0  0  0  0  0  0  0  0
    6.5380    4.9200   18.4970 H   0  0  0  0  0  0  0  0  0  0  0  0
    7.3150    3.5090   17.7650 H   0  0  0  0  0  0  0  0  0  0  0  0
    8.3870    5.2810   16.5540 H   0  0  0  0  0  0  0  0  0  0  0  0
    6.9310    6.2790   16.5590 H   0  0  0  0  0  0  0  0  0  0  0  0
    7.4010    3.7010   14.9710 H   0  0  0  0  0  0  0  0  0  0  0  0
    5.0100    3.4080   14.9300 H   0  0  0  0  0  0  0  0  0  0  0  0
    4.7090    5.1020   15.3450 H   0  0  0  0  0  0  0  0  0  0  0  0
    6.9220    5.5160   14.1170 O   0  0  0  0  0  0  0  0  0  0  0  0
    7.8650    5.5900   13.8830 H   0  0  0  0  0  0  0  0  0  0  0  0
    1.3690    2.6580   19.6520 C   0  0  0  0  0  0  0  0  0  0  0  0
    1.7720    1.3780   19.3910 F   0  0  0  0  0  0  0  0  0  0  0  0
    0.0680    2.7140   19.2460 F   0  0  0  0  0  0  0  0  0  0  0  0
    1.4190    2.8900   21.4240 Cl  0  0  0  0  0  0  0  0  0  0  0  0
   -0.9480   10.7960   17.8590 C   0  0  1  0  0  0  0  0  0  0  0  0
   -0.3370   11.2100   17.0460 H   0  0  0  0  0  0  0  0  0  0  0  0
   -2.0270    9.9160   17.2180 C   0  0  0  0  0  0  0  0  0  0  0  0
   -3.0330   10.2120   17.5380 H   0  0  0  0  0  0  0  0  0  0  0  0
   -1.8930    8.8620   17.4890 H   0  0  0  0  0  0  0  0  0  0  0  0
   -1.9950    9.9800   16.1260 H   0  0  0  0  0  0  0  0  0  0  0  0
   -1.5520   11.9700   18.6630 C   0  0  0  0  0  0  0  0  0  0  0  0
   -1.2260   11.9280   19.7100 H   0  0  0  0  0  0  0  0  0  0  0  0
   -1.1680   12.9160   18.2630 H   0  0  0  0  0  0  0  0  0  0  0  0
   -3.0440   11.9890   18.6280 C   0  0  0  0  0  0  0  0  0  0  0  0
   -3.8130   11.6710   17.6050 N   0  0  0  0  0  0  0  0  0  0  0  0
   -5.1240   11.8140   17.9880 N   0  0  0  0  0  0  0  0  0  0  0  0
   -5.1320   12.2060   19.2390 C   0  0  0  0  0  0  0  0  0  0  0  0
   -3.8530   12.3250   19.6850 N   0  0  0  0  0  0  0  0  0  0  0  0
   -6.0080   12.4040   19.8390 H   0  0  0  0  0  0  0  0  0  0  0  0
   -3.4530   12.7120   21.0100 C   0  0  0  0  0  0  0  0  0  0  0  0
   -4.3200   13.1200   21.5320 H   0  0  0  0  0  0  0  0  0  0  0  0
   -2.6730   13.4740   20.9500 H   0  0  0  0  0  0  0  0  0  0  0  0
   -3.0720   11.8290   21.5300 H   0  0  0  0  0  0  0  0  0  0  0  0
  1  2  1  0  0  0  0
  2  7  1  0  0  0  0
  2  3  2  0  0  0  0
  3  8  1  0  0  0  0
  4  3  1  0  0  0  0
  4  9  1  0  0  0  0
  5  4  2  0  0  0  0
  6  1  2  0  0  0  0
  6  5  1  0  0  0  0
 10  6  1  0  0  0  0
 11 15  1  0  0  0  0
 11  5  1  0  0  0  0
 12 11  2  0  0  0  0
 13 12  1  0  0  0  0
 13 14  1  0  0  0  0
 14 15  1  0  0  0  0
 15 16  2  0  0  0  0
 17 16  1  0  0  0  0
 17 36  1  0  0  0  0
 18 17  2  0  0  0  0
 19 14  2  0  0  0  0
 19 18  1  0  0  0  0
 20 13  1  0  0  0  0
 21 18  1  0  0  0  0
 22 23  1  0  0  0  0
 22 19  1  0  0  0  0
 23 28  1  0  0  0  0
 23 27  1  0  0  0  0
 24 29  1  0  0  0  0
 24 30  1  0  0  0  0
 24 23  1  0  0  0  0
 25 31  1  6  0  0  0
 25 26  1  0  0  0  0
 25 24  1  0  0  0  0
 26 22  1  0  0  0  0
 32 26  1  0  0  0  0
 33 26  1  0  0  0  0
 34 25  1  0  0  0  0
 35 34  1  0  0  0  0
 36 39  1  0  0  0  0
 37 36  1  0  0  0  0
 38 36  1  0  0  0  0
 40 41  1  6  0  0  0
 40 46  1  0  0  0  0
 40  1  1  0  0  0  0
 42 44  1  0  0  0  0
 42 43  1  0  0  0  0
 42 40  1  0  0  0  0
 45 42  1  0  0  0  0
 46 47  1  0  0  0  0
 48 46  1  0  0  0  0
 49 46  1  0  0  0  0
 49 53  1  0  0  0  0
 50 51  1  0  0  0  0
 50 49  2  0  0  0  0
 51 52  2  0  0  0  0
 52 53  1  0  0  0  0
 52 54  1  0  0  0  0
 53 55  1  0  0  0  0
 55 58  1  0  0  0  0
 55 56  1  0  0  0  0
 57 55  1  0  0  0  0
M  END
>  <MODEL>
11

>  <REMARK>
 VINA RESULT:    -9.102      1.561      2.384
 INTER + INTRA:         -12.580
 INTER:                 -12.936
 INTRA:                   0.356
 UNBOUND:                 0.514
  Name = 
  9 active torsions:
  status: ('A' for Active; 'I' for Inactive)
    1  A    between atoms: C_1  and  C_2
    2  A    between atoms: C_2  and  C_3
    3  A    between atoms: C_2  and  C_10
    4  A    between atoms: C_3  and  C_4
    5  A    between atoms: N_8  and  C_9
    6  A    between atoms: C_14  and  C_16
    7  A    between atoms: C_22  and  C_31
    8  A    between atoms: C_24  and  N_25
    9  A    between atoms: C_28  and  O_30
                            x       y       z     vdW  Elec       q    Type
                         _______ _______ _______ _____ _____    ______ ____

>  <TORSDO>
F 9

$$$$
=
 OpenBabel07192307433D

 58 62  0  0  1  0  0  0  0  0999 V2000
    2.7020    6.8140   19.4020 C   0  0  0  0  0  0  0  0  0  0  0  0
    3.1960    7.0330   18.1100 C   0  0  0  0  0  0  0  0  0  0  0  0
    2.8180    8.1660   17.3930 C   0  0  0  0  0  0  0  0  0  0  0  0
    1.9420    9.0930   17.9590 C   0  0  0  0  0  0  0  0  0  0  0  0
    1.4340    8.9090   19.2550 C   0  0  0  0  0  0  0  0  0  0  0  0
    1.8260    7.7630   19.9630 C   0  0  0  0  0  0  0  0  0  0  0  0
    3.8810    6.3230   17.6520 H   0  0  0  0  0  0  0  0  0  0  0  0
    3.2040    8.3310   16.3900 H   0  0  0  0  0  0  0  0  0  0  0  0
    1.6580    9.9710   17.3810 H   0  0  0  0  0  0  0  0  0  0  0  0
    1.4450    7.5890   20.9660 H   0  0  0  0  0  0  0  0  0  0  0  0
    0.5090    9.8970   19.8330 C   0  0  0  0  0  0  0  0  0  0  0  0
    0.7280   10.4120   21.0620 N   0  0  0  0  0  0  0  0  0  0  0  0
   -0.2970   11.2600   21.2530 N   0  0  0  0  0  0  0  0  0  0  0  0
   -1.1740   11.3330   20.2140 C   0  0  0  0  0  0  0  0  0  0  0  0
   -0.6840   10.4540   19.2650 C   0  0  0  0  0  0  0  0  0  0  0  0
   -1.3050   10.2510   18.0760 N   0  0  0  0  0  0  0  0  0  0  0  0
   -2.4490   10.9600   17.8770 C   0  0  0  0  0  0  0  0  0  0  0  0
   -2.9730   11.8620   18.8140 C   0  0  0  0  0  0  0  0  0  0  0  0
   -2.3350   12.0790   20.0390 C   0  0  0  0  0  0  0  0  0  0  0  0
   -0.3560   11.7710   22.1250 H   0  0  0  0  0  0  0  0  0  0  0  0
   -3.8900   12.4020   18.5830 H   0  0  0  0  0  0  0  0  0  0  0  0
   -2.7770   12.9540   21.0250 N   0  0  0  0  0  0  0  0  0  0  0  0
   -1.9020   13.0450   22.2170 C   0  0  0  0  0  0  0  0  0  0  0  0
   -2.7710   12.6370   23.3970 C   0  0  0  0  0  0  0  0  0  0  0  0
   -4.1590   13.0740   22.9660 C   0  0  1  0  0  0  0  0  0  0  0  0
   -4.1600   12.6940   21.4800 C   0  0  0  0  0  0  0  0  0  0  0  0
   -0.9940   12.4340   22.1570 H   0  0  0  0  0  0  0  0  0  0  0  0
   -1.5900   14.0910   22.3250 H   0  0  0  0  0  0  0  0  0  0  0  0
   -2.4550   13.1060   24.3340 H   0  0  0  0  0  0  0  0  0  0  0  0
   -2.7370   11.5500   23.5500 H   0  0  0  0  0  0  0  0  0  0  0  0
   -4.2820   14.1560   23.0970 H   0  0  0  0  0  0  0  0  0  0  0  0
   -4.8720   13.3110   20.9200 H   0  0  0  0  0  0  0  0  0  0  0  0
   -4.4660   11.6460   21.3600 H   0  0  0  0  0  0  0  0  0  0  0  0
   -5.1470   12.3890   23.7180 O   0  0  0  0  0  0  0  0  0  0  0  0
   -5.5840   13.0410   24.2950 H   0  0  0  0  0  0  0  0  0  0  0  0
   -3.1720   10.7850   16.5450 C   0  0  0  0  0  0  0  0  0  0  0  0
   -3.3140    9.4730   16.1880 F   0  0  0  0  0  0  0  0  0  0  0  0
   -2.5240   11.3730   15.4980 F   0  0  0  0  0  0  0  0  0  0  0  0
   -4.8090   11.4930   16.6660 Cl  0  0  0  0  0  0  0  0  0  0  0  0
    3.1040    5.5560   20.1630 C   0  0  1  0  0  0  0  0  0  0  0  0
    3.5070    5.8640   21.1370 H   0  0  0  0  0  0  0  0  0  0  0  0
    1.8740    4.6810   20.4310 C   0  0  0  0  0  0  0  0  0  0  0  0
    1.4400    4.2980   19.5000 H   0  0  0  0  0  0  0  0  0  0  0  0
    1.0910    5.2460   20.9510 H   0  0  0  0  0  0  0  0  0  0  0  0
    2.1280    3.8210   21.0580 H   0  0  0  0  0  0  0  0  0  0  0  0
    4.2080    4.7940   19.3970 C   0  0  0  0  0  0  0  0  0  0  0  0
    4.6460    5.4300   18.6170 H   0  0  0  0  0  0  0  0  0  0  0  0
    5.0260    4.5530   20.0880 H   0  0  0  0  0  0  0  0  0  0  0  0
    3.7120    3.5370   18.7630 C   0  0  0  0  0  0  0  0  0  0  0  0
    3.0260    3.4370   17.6410 N   0  0  0  0  0  0  0  0  0  0  0  0
    2.7740    2.1080   17.4040 N   0  0  0  0  0  0  0  0  0  0  0  0
    3.3170    1.4210   18.3800 C   0  0  0  0  0  0  0  0  0  0  0  0
    3.9200    2.2720   19.2520 N   0  0  0  0  0  0  0  0  0  0  0  0
    3.3010    0.3460   18.4880 H   0  0  0  0  0  0  0  0  0  0  0  0
    4.6420    1.8940   20.4370 C   0  0  0  0  0  0  0  0  0  0  0  0
    5.6030    2.4120   20.4410 H   0  0  0  0  0  0  0  0  0  0  0  0
    4.8090    0.8150   20.4370 H   0  0  0  0  0  0  0  0  0  0  0  0
    4.0490    2.1790   21.3100 H   0  0  0  0  0  0  0  0  0  0  0  0
  1  6  1  0  0  0  0
  1 40  1  0  0  0  0
  2  1  2  0  0  0  0
  3  4  2  0  0  0  0
  3  2  1  0  0  0  0
  4  5  1  0  0  0  0
  5 11  1  0  0  0  0
  5  6  2  0  0  0  0
  6 10  1  0  0  0  0
  7  2  1  0  0  0  0
  8  3  1  0  0  0  0
  9  4  1  0  0  0  0
 11 12  2  0  0  0  0
 12 13  1  0  0  0  0
 13 20  1  0  0  0  0
 14 13  1  0  0  0  0
 15 11  1  0  0  0  0
 15 14  2  0  0  0  0
 16 15  1  0  0  0  0
 17 16  2  0  0  0  0
 17 18  1  0  0  0  0
 18 19  2  0  0  0  0
 19 14  1  0  0  0  0
 19 22  1  0  0  0  0
 21 18  1  0  0  0  0
 22 26  1  0  0  0  0
 22 23  1  0  0  0  0
 23 28  1  0  0  0  0
 23 24  1  0  0  0  0
 24 30  1  0  0  0  0
 24 29  1  0  0  0  0
 25 31  1  1  0  0  0
 25 24  1  0  0  0  0
 25 34  1  0  0  0  0
 26 25  1  0  0  0  0
 27 23  1  0  0  0  0
 32 26  1  0  0  0  0
 33 26  1  0  0  0  0
 34 35  1  0  0  0  0
 36 39  1  0  0  0  0
 36 17  1  0  0  0  0
 37 36  1  0  0  0  0
 38 36  1  0  0  0  0
 40 42  1  0  0  0  0
 40 41  1  1  0  0  0
 42 44  1  0  0  0  0
 42 45  1  0  0  0  0
 43 42  1  0  0  0  0
 46 48  1  0  0  0  0
 46 40  1  0  0  0  0
 47 46  1  0  0  0  0
 49 53  1  0  0  0  0
 49 46  1  0  0  0  0
 50 49  2  0  0  0  0
 51 50  1  0  0  0  0
 51 52  2  0  0  0  0
 52 54  1  0  0  0  0
 52 53  1  0  0  0  0
 53 55  1  0  0  0  0
 55 56  1  0  0  0  0
 55 58  1  0  0  0  0
 57 55  1  0  0  0  0
M  END
>  <MODEL>
12

>  <REMARK>
 VINA RESULT:    -9.095      4.821      9.684
 INTER + INTRA:         -12.569
 INTER:                 -12.554
 INTRA:                  -0.015
 UNBOUND:                 0.514
  Name = 
  9 active torsions:
  status: ('A' for Active; 'I' for Inactive)
    1  A    between atoms: C_1  and  C_2
    2  A    between atoms: C_2  and  C_3
    3  A    between atoms: C_2  and  C_10
    4  A    between atoms: C_3  and  C_4
    5  A    between atoms: N_8  and  C_9
    6  A    between atoms: C_14  and  C_16
    7  A    between atoms: C_22  and  C_31
    8  A    between atoms: C_24  and  N_25
    9  A    between atoms: C_28  and  O_30
                            x       y       z     vdW  Elec       q    Type
                         _______ _______ _______ _____ _____    ______ ____

>  <TORSDO>
F 9

$$$$
=
 OpenBabel07192307433D

 58 62  0  0  1  0  0  0  0  0999 V2000
    2.8510    5.9390   18.6850 C   0  0  0  0  0  0  0  0  0  0  0  0
    2.6010    4.7540   19.3890 C   0  0  0  0  0  0  0  0  0  0  0  0
    1.8760    4.7800   20.5790 C   0  0  0  0  0  0  0  0  0  0  0  0
    1.3920    5.9900   21.0780 C   0  0  0  0  0  0  0  0  0  0  0  0
    1.6170    7.1950   20.3940 C   0  0  0  0  0  0  0  0  0  0  0  0
    2.3490    7.1510   19.1970 C   0  0  0  0  0  0  0  0  0  0  0  0
    2.9690    3.8010   19.0160 H   0  0  0  0  0  0  0  0  0  0  0  0
    1.6860    3.8580   21.1210 H   0  0  0  0  0  0  0  0  0  0  0  0
    0.8300    5.9890   22.0100 H   0  0  0  0  0  0  0  0  0  0  0  0
    2.5450    8.0680   18.6480 H   0  0  0  0  0  0  0  0  0  0  0  0
    1.1020    8.4610   20.9370 C   0  0  0  0  0  0  0  0  0  0  0  0
    1.4700    8.8870   22.1650 N   0  0  0  0  0  0  0  0  0  0  0  0
    0.8180   10.0520   22.3210 N   0  0  0  0  0  0  0  0  0  0  0  0
    0.0450   10.4160   21.2610 C   0  0  0  0  0  0  0  0  0  0  0  0
    0.2010    9.4010   20.3350 C   0  0  0  0  0  0  0  0  0  0  0  0
   -0.4300    9.4120   19.1330 N   0  0  0  0  0  0  0  0  0  0  0  0
   -1.2360   10.4820   18.8990 C   0  0  0  0  0  0  0  0  0  0  0  0
   -1.4160   11.5310   19.8120 C   0  0  0  0  0  0  0  0  0  0  0  0
   -0.7640   11.5280   21.0490 C   0  0  0  0  0  0  0  0  0  0  0  0
    0.9320   10.5670   23.1850 H   0  0  0  0  0  0  0  0  0  0  0  0
   -2.0710   12.3610   19.5520 H   0  0  0  0  0  0  0  0  0  0  0  0
   -0.8770   12.5220   22.0130 N   0  0  0  0  0  0  0  0  0  0  0  0
   -1.6620   12.1440   23.2110 C   0  0  0  0  0  0  0  0  0  0  0  0
   -2.8090   13.1420   23.2840 C   0  0  0  0  0  0  0  0  0  0  0  0
   -2.2160   14.3900   22.6570 C   0  0  1  0  0  0  0  0  0  0  0  0
   -1.4070   13.8030   21.4940 C   0  0  0  0  0  0  0  0  0  0  0  0
   -2.0280   11.1120   23.2030 H   0  0  0  0  0  0  0  0  0  0  0  0
   -1.0120   12.2570   24.0880 H   0  0  0  0  0  0  0  0  0  0  0  0
   -3.1560   13.3090   24.3080 H   0  0  0  0  0  0  0  0  0  0  0  0
   -3.6710   12.7880   22.7020 H   0  0  0  0  0  0  0  0  0  0  0  0
   -1.5630   14.9080   23.3710 H   0  0  0  0  0  0  0  0  0  0  0  0
   -0.5850   14.4720   21.2130 H   0  0  0  0  0  0  0  0  0  0  0  0
   -2.0490   13.6810   20.6120 H   0  0  0  0  0  0  0  0  0  0  0  0
   -3.2470   15.2660   22.2330 O   0  0  0  0  0  0  0  0  0  0  0  0
   -3.9560   14.7220   21.8450 H   0  0  0  0  0  0  0  0  0  0  0  0
   -1.9490   10.5540   17.5520 C   0  0  0  0  0  0  0  0  0  0  0  0
   -1.4160    9.7030   16.6240 F   0  0  0  0  0  0  0  0  0  0  0  0
   -1.8930   11.7900   16.9770 F   0  0  0  0  0  0  0  0  0  0  0  0
   -3.6670   10.1080   17.7690 Cl  0  0  0  0  0  0  0  0  0  0  0  0
    3.6690    5.8970   17.4000 C   0  0  1  0  0  0  0  0  0  0  0  0
    2.9760    6.0010   16.5540 H   0  0  0  0  0  0  0  0  0  0  0  0
    4.6380    7.0850   17.3470 C   0  0  0  0  0  0  0  0  0  0  0  0
    4.1100    8.0400   17.4500 H   0  0  0  0  0  0  0  0  0  0  0  0
    5.1830    7.1100   16.3960 H   0  0  0  0  0  0  0  0  0  0  0  0
    5.3800    7.0270   18.1500 H   0  0  0  0  0  0  0  0  0  0  0  0
    4.3980    4.5410   17.2700 C   0  0  0  0  0  0  0  0  0  0  0  0
    4.9400    4.3040   18.1940 H   0  0  0  0  0  0  0  0  0  0  0  0
    3.6560    3.7440   17.1390 H   0  0  0  0  0  0  0  0  0  0  0  0
    5.3620    4.5080   16.1300 C   0  0  0  0  0  0  0  0  0  0  0  0
    5.0640    4.4610   14.8460 N   0  0  0  0  0  0  0  0  0  0  0  0
    6.2360    4.4540   14.1300 N   0  0  0  0  0  0  0  0  0  0  0  0
    7.2260    4.5060   14.9880 C   0  0  0  0  0  0  0  0  0  0  0  0
    6.7280    4.5470   16.2530 N   0  0  0  0  0  0  0  0  0  0  0  0
    8.2790    4.5200   14.7460 H   0  0  0  0  0  0  0  0  0  0  0  0
    7.5010    4.6300   17.4620 C   0  0  0  0  0  0  0  0  0  0  0  0
    7.4060    3.6870   18.0030 H   0  0  0  0  0  0  0  0  0  0  0  0
    7.1250    5.4460   18.0830 H   0  0  0  0  0  0  0  0  0  0  0  0
    8.5450    4.8160   17.1950 H   0  0  0  0  0  0  0  0  0  0  0  0
  1  6  2  0  0  0  0
  1  2  1  0  0  0  0
  2  3  2  0  0  0  0
  3  4  1  0  0  0  0
  3  8  1  0  0  0  0
  4  9  1  0  0  0  0
  5 11  1  0  0  0  0
  5  4  2  0  0  0  0
  6  5  1  0  0  0  0
  7  2  1  0  0  0  0
 10  6  1  0  0  0  0
 11 12  2  0  0  0  0
 12 13  1  0  0  0  0
 13 20  1  0  0  0  0
 14 13  1  0  0  0  0
 15 11  1  0  0  0  0
 15 14  2  0  0  0  0
 16 15  1  0  0  0  0
 17 16  2  0  0  0  0
 17 18  1  0  0  0  0
 18 19  2  0  0  0  0
 19 14  1  0  0  0  0
 19 22  1  0  0  0  0
 21 18  1  0  0  0  0
 22 23  1  0  0  0  0
 23 24  1  0  0  0  0
 23 28  1  0  0  0  0
 24 29  1  0  0  0  0
 25 24  1  0  0  0  0
 25 31  1  1  0  0  0
 26 22  1  0  0  0  0
 26 25  1  0  0  0  0
 27 23  1  0  0  0  0
 30 24  1  0  0  0  0
 32 26  1  0  0  0  0
 33 26  1  0  0  0  0
 34 25  1  0  0  0  0
 35 34  1  0  0  0  0
 36 39  1  0  0  0  0
 36 17  1  0  0  0  0
 37 36  1  0  0  0  0
 38 36  1  0  0  0  0
 40 41  1  6  0  0  0
 40  1  1  0  0  0  0
 42 40  1  0  0  0  0
 42 43  1  0  0  0  0
 42 45  1  0  0  0  0
 44 42  1  0  0  0  0
 46 40  1  0  0  0  0
 46 47  1  0  0  0  0
 48 46  1  0  0  0  0
 49 53  1  0  0  0  0
 49 46  1  0  0  0  0
 50 49  2  0  0  0  0
 51 50  1  0  0  0  0
 51 52  2  0  0  0  0
 52 53  1  0  0  0  0
 53 55  1  0  0  0  0
 54 52  1  0  0  0  0
 55 56  1  0  0  0  0
 55 57  1  0  0  0  0
 58 55  1  0  0  0  0
M  END
>  <MODEL>
13

>  <REMARK>
 VINA RESULT:    -8.943      4.445      9.514
 INTER + INTRA:         -12.351
 INTER:                 -11.182
 INTRA:                  -1.169
 UNBOUND:                 0.514
  Name = 
  9 active torsions:
  status: ('A' for Active; 'I' for Inactive)
    1  A    between atoms: C_1  and  C_2
    2  A    between atoms: C_2  and  C_3
    3  A    between atoms: C_2  and  C_10
    4  A    between atoms: C_3  and  C_4
    5  A    between atoms: N_8  and  C_9
    6  A    between atoms: C_14  and  C_16
    7  A    between atoms: C_22  and  C_31
    8  A    between atoms: C_24  and  N_25
    9  A    between atoms: C_28  and  O_30
                            x       y       z     vdW  Elec       q    Type
                         _______ _______ _______ _____ _____    ______ ____

>  <TORSDO>
F 9

$$$$
=
 OpenBabel07192307433D

 58 62  0  0  1  0  0  0  0  0999 V2000
    0.1760    9.9410   19.9840 C   0  0  0  0  0  0  0  0  0  0  0  0
   -0.7020   10.2740   18.9460 C   0  0  0  0  0  0  0  0  0  0  0  0
   -0.5250    9.7390   17.6720 C   0  0  0  0  0  0  0  0  0  0  0  0
    0.5340    8.8640   17.4210 C   0  0  0  0  0  0  0  0  0  0  0  0
    1.4280    8.5020   18.4410 C   0  0  0  0  0  0  0  0  0  0  0  0
    1.2330    9.0500   19.7180 C   0  0  0  0  0  0  0  0  0  0  0  0
   -1.5340   10.9530   19.1210 H   0  0  0  0  0  0  0  0  0  0  0  0
   -1.2090   10.0010   16.8700 H   0  0  0  0  0  0  0  0  0  0  0  0
    0.6560    8.4590   16.4190 H   0  0  0  0  0  0  0  0  0  0  0  0
    1.9130    8.7940   20.5260 H   0  0  0  0  0  0  0  0  0  0  0  0
    2.5390    7.5810   18.1560 C   0  0  0  0  0  0  0  0  0  0  0  0
    3.6220    7.9970   17.4640 N   0  0  0  0  0  0  0  0  0  0  0  0
    4.4110    6.9110   17.3990 N   0  0  0  0  0  0  0  0  0  0  0  0
    3.9070    5.8060   18.0150 C   0  0  0  0  0  0  0  0  0  0  0  0
    2.6830    6.2010   18.5210 C   0  0  0  0  0  0  0  0  0  0  0  0
    1.8730    5.3540   19.2070 N   0  0  0  0  0  0  0  0  0  0  0  0
    2.3370    4.0850   19.3570 C   0  0  0  0  0  0  0  0  0  0  0  0
    3.5750    3.6490   18.8610 C   0  0  0  0  0  0  0  0  0  0  0  0
    4.4150    4.5180   18.1590 C   0  0  0  0  0  0  0  0  0  0  0  0
    5.2970    6.9750   16.9130 H   0  0  0  0  0  0  0  0  0  0  0  0
    3.8860    2.6190   19.0270 H   0  0  0  0  0  0  0  0  0  0  0  0
    5.6570    4.1790   17.6350 N   0  0  0  0  0  0  0  0  0  0  0  0
    6.8070    4.8900   18.2420 C   0  0  0  0  0  0  0  0  0  0  0  0
    7.4840    5.6280   17.0960 C   0  0  0  0  0  0  0  0  0  0  0  0
    7.1960    4.7390   15.9000 C   0  0  1  0  0  0  0  0  0  0  0  0
    5.7450    4.3180   16.1650 C   0  0  0  0  0  0  0  0  0  0  0  0
    6.5360    5.5730   19.0540 H   0  0  0  0  0  0  0  0  0  0  0  0
    7.4870    4.1360   18.6560 H   0  0  0  0  0  0  0  0  0  0  0  0
    8.5570    5.7710   17.2650 H   0  0  0  0  0  0  0  0  0  0  0  0
    7.0410    6.6230   16.9570 H   0  0  0  0  0  0  0  0  0  0  0  0
    7.8650    3.8700   15.8930 H   0  0  0  0  0  0  0  0  0  0  0  0
    5.5200    3.3630   15.6750 H   0  0  0  0  0  0  0  0  0  0  0  0
    5.0550    5.0680   15.7590 H   0  0  0  0  0  0  0  0  0  0  0  0
    7.3540    5.4700   14.6950 O   0  0  0  0  0  0  0  0  0  0  0  0
    7.3440    4.8320   13.9590 H   0  0  0  0  0  0  0  0  0  0  0  0
    1.4760    3.1000   20.1420 C   0  0  0  0  0  0  0  0  0  0  0  0
    1.5950    1.8150   19.6880 F   0  0  0  0  0  0  0  0  0  0  0  0
    0.1420    3.3800   20.0780 F   0  0  0  0  0  0  0  0  0  0  0  0
    1.9760    3.1160   21.8580 Cl  0  0  0  0  0  0  0  0  0  0  0  0
   -0.0170   10.5560   21.3660 C   0  0  1  0  0  0  0  0  0  0  0  0
   -1.0780   10.8170   21.4750 H   0  0  0  0  0  0  0  0  0  0  0  0
    0.3170    9.5300   22.4550 C   0  0  0  0  0  0  0  0  0  0  0  0
    1.3200    9.1080   22.3190 H   0  0  0  0  0  0  0  0  0  0  0  0
   -0.3950    8.6960   22.4470 H   0  0  0  0  0  0  0  0  0  0  0  0
    0.2800    9.9820   23.4510 H   0  0  0  0  0  0  0  0  0  0  0  0
    0.8210   11.8470   21.5010 C   0  0  0  0  0  0  0  0  0  0  0  0
    0.8230   12.1980   22.5400 H   0  0  0  0  0  0  0  0  0  0  0  0
    1.8660   11.6260   21.2520 H   0  0  0  0  0  0  0  0  0  0  0  0
    0.3280   12.9510   20.6250 C   0  0  0  0  0  0  0  0  0  0  0  0
   -0.7630   13.6710   20.8030 N   0  0  0  0  0  0  0  0  0  0  0  0
   -0.8490   14.5860   19.7820 N   0  0  0  0  0  0  0  0  0  0  0  0
    0.1950   14.4150   19.0060 C   0  0  0  0  0  0  0  0  0  0  0  0
    0.9640   13.4060   19.4970 N   0  0  0  0  0  0  0  0  0  0  0  0
    0.4260   14.9810   18.1160 H   0  0  0  0  0  0  0  0  0  0  0  0
    2.2010   12.9380   18.9350 C   0  0  0  0  0  0  0  0  0  0  0  0
    3.0150   13.5580   19.3170 H   0  0  0  0  0  0  0  0  0  0  0  0
    2.1630   13.0170   17.8470 H   0  0  0  0  0  0  0  0  0  0  0  0
    2.3430   11.8950   19.2290 H   0  0  0  0  0  0  0  0  0  0  0  0
  1 40  1  0  0  0  0
  2  7  1  0  0  0  0
  2  1  2  0  0  0  0
  3  2  1  0  0  0  0
  4  3  2  0  0  0  0
  4  5  1  0  0  0  0
  5  6  2  0  0  0  0
  6  1  1  0  0  0  0
  6 10  1  0  0  0  0
  8  3  1  0  0  0  0
  9  4  1  0  0  0  0
 11  5  1  0  0  0  0
 11 15  1  0  0  0  0
 12 11  2  0  0  0  0
 13 12  1  0  0  0  0
 13 14  1  0  0  0  0
 14 19  2  0  0  0  0
 14 15  1  0  0  0  0
 15 16  2  0  0  0  0
 16 17  1  0  0  0  0
 17 36  1  0  0  0  0
 18 21  1  0  0  0  0
 18 17  2  0  0  0  0
 19 18  1  0  0  0  0
 20 13  1  0  0  0  0
 22 19  1  0  0  0  0
 22 23  1  0  0  0  0
 23 28  1  0  0  0  0
 23 27  1  0  0  0  0
 24 29  1  0  0  0  0
 24 23  1  0  0  0  0
 25 31  1  1  0  0  0
 25 26  1  0  0  0  0
 25 24  1  0  0  0  0
 26 22  1  0  0  0  0
 30 24  1  0  0  0  0
 32 26  1  0  0  0  0
 33 26  1  0  0  0  0
 34 25  1  0  0  0  0
 35 34  1  0  0  0  0
 36 39  1  0  0  0  0
 37 36  1  0  0  0  0
 38 36  1  0  0  0  0
 40 41  1  1  0  0  0
 40 46  1  0  0  0  0
 40 42  1  0  0  0  0
 42 45  1  0  0  0  0
 43 42  1  0  0  0  0
 44 42  1  0  0  0  0
 46 47  1  0  0  0  0
 48 46  1  0  0  0  0
 49 50  2  0  0  0  0
 49 46  1  0  0  0  0
 51 50  1  0  0  0  0
 52 53  1  0  0  0  0
 52 51  2  0  0  0  0
 53 49  1  0  0  0  0
 54 52  1  0  0  0  0
 55 58  1  0  0  0  0
 55 56  1  0  0  0  0
 55 53  1  0  0  0  0
 57 55  1  0  0  0  0
M  END
>  <MODEL>
14

>  <REMARK>
 VINA RESULT:    -8.862      2.167      3.179
 INTER + INTRA:         -12.234
 INTER:                 -11.376
 INTRA:                  -0.857
 UNBOUND:                 0.514
  Name = 
  9 active torsions:
  status: ('A' for Active; 'I' for Inactive)
    1  A    between atoms: C_1  and  C_2
    2  A    between atoms: C_2  and  C_3
    3  A    between atoms: C_2  and  C_10
    4  A    between atoms: C_3  and  C_4
    5  A    between atoms: N_8  and  C_9
    6  A    between atoms: C_14  and  C_16
    7  A    between atoms: C_22  and  C_31
    8  A    between atoms: C_24  and  N_25
    9  A    between atoms: C_28  and  O_30
                            x       y       z     vdW  Elec       q    Type
                         _______ _______ _______ _____ _____    ______ ____

>  <TORSDO>
F 9

$$$$
=
 OpenBabel07192307433D

 58 62  0  0  1  0  0  0  0  0999 V2000
    2.3580    7.1170   19.5040 C   0  0  0  0  0  0  0  0  0  0  0  0
    2.8520    7.2750   18.2030 C   0  0  0  0  0  0  0  0  0  0  0  0
    2.5480    8.4190   17.4670 C   0  0  0  0  0  0  0  0  0  0  0  0
    1.7480    9.4180   18.0230 C   0  0  0  0  0  0  0  0  0  0  0  0
    1.2430    9.2960   19.3280 C   0  0  0  0  0  0  0  0  0  0  0  0
    1.5600    8.1380   20.0540 C   0  0  0  0  0  0  0  0  0  0  0  0
    3.4780    6.5090   17.7520 H   0  0  0  0  0  0  0  0  0  0  0  0
    2.9330    8.5360   16.4580 H   0  0  0  0  0  0  0  0  0  0  0  0
    1.5210   10.3020   17.4310 H   0  0  0  0  0  0  0  0  0  0  0  0
    1.1780    8.0120   21.0640 H   0  0  0  0  0  0  0  0  0  0  0  0
    0.3980   10.3580   19.8950 C   0  0  0  0  0  0  0  0  0  0  0  0
    0.7980   11.0520   20.9830 N   0  0  0  0  0  0  0  0  0  0  0  0
   -0.2040   11.9190   21.2100 N   0  0  0  0  0  0  0  0  0  0  0  0
   -1.2370   11.8340   20.3280 C   0  0  0  0  0  0  0  0  0  0  0  0
   -0.8840   10.8240   19.4530 C   0  0  0  0  0  0  0  0  0  0  0  0
   -1.6820   10.4440   18.4230 N   0  0  0  0  0  0  0  0  0  0  0  0
   -2.8600   11.1140   18.3100 C   0  0  0  0  0  0  0  0  0  0  0  0
   -3.2500   12.1460   19.1760 C   0  0  0  0  0  0  0  0  0  0  0  0
   -2.4300   12.5460   20.2350 C   0  0  0  0  0  0  0  0  0  0  0  0
   -0.1350   12.5550   21.9940 H   0  0  0  0  0  0  0  0  0  0  0  0
   -4.2050   12.6450   19.0190 H   0  0  0  0  0  0  0  0  0  0  0  0
   -2.7290   13.5580   21.1390 N   0  0  0  0  0  0  0  0  0  0  0  0
   -2.0950   14.8650   20.8470 C   0  0  0  0  0  0  0  0  0  0  0  0
   -1.2540   15.1960   22.0710 C   0  0  0  0  0  0  0  0  0  0  0  0
   -2.0160   14.5260   23.2000 C   0  0  1  0  0  0  0  0  0  0  0  0
   -2.4450   13.2060   22.5470 C   0  0  0  0  0  0  0  0  0  0  0  0
   -1.4940   14.8790   19.9310 H   0  0  0  0  0  0  0  0  0  0  0  0
   -2.8940   15.6070   20.7290 H   0  0  0  0  0  0  0  0  0  0  0  0
   -1.1400   16.2750   22.2230 H   0  0  0  0  0  0  0  0  0  0  0  0
   -0.2460   14.7730   21.9780 H   0  0  0  0  0  0  0  0  0  0  0  0
   -2.8870   15.1260   23.4880 H   0  0  0  0  0  0  0  0  0  0  0  0
   -3.3440   12.8050   23.0320 H   0  0  0  0  0  0  0  0  0  0  0  0
   -1.6510   12.4560   22.6550 H   0  0  0  0  0  0  0  0  0  0  0  0
   -1.1710   14.3440   24.3230 O   0  0  0  0  0  0  0  0  0  0  0  0
   -0.3790   14.8950   24.1900 H   0  0  0  0  0  0  0  0  0  0  0  0
   -3.7830   10.7420   17.1530 C   0  0  0  0  0  0  0  0  0  0  0  0
   -4.2520   11.8340   16.4780 F   0  0  0  0  0  0  0  0  0  0  0  0
   -4.8970   10.0600   17.5490 F   0  0  0  0  0  0  0  0  0  0  0  0
   -2.8850    9.7280   15.9850 Cl  0  0  0  0  0  0  0  0  0  0  0  0
    2.6770    5.8490   20.2860 C   0  0  1  0  0  0  0  0  0  0  0  0
    2.9990    6.1440   21.2940 H   0  0  0  0  0  0  0  0  0  0  0  0
    1.4180    4.9880   20.4400 C   0  0  0  0  0  0  0  0  0  0  0  0
    0.7040    5.1680   19.6270 H   0  0  0  0  0  0  0  0  0  0  0  0
    0.9030    5.2040   21.3840 H   0  0  0  0  0  0  0  0  0  0  0  0
    1.6630    3.9220   20.4360 H   0  0  0  0  0  0  0  0  0  0  0  0
    3.8340    5.0780   19.6110 C   0  0  0  0  0  0  0  0  0  0  0  0
    4.3510    5.7170   18.8830 H   0  0  0  0  0  0  0  0  0  0  0  0
    4.5810    4.8140   20.3680 H   0  0  0  0  0  0  0  0  0  0  0  0
    3.3760    3.8380   18.9160 C   0  0  0  0  0  0  0  0  0  0  0  0
    2.6620    3.7720   17.8090 N   0  0  0  0  0  0  0  0  0  0  0  0
    2.4640    2.4490   17.5000 N   0  0  0  0  0  0  0  0  0  0  0  0
    3.0670    1.7320   18.4180 C   0  0  0  0  0  0  0  0  0  0  0  0
    3.6570    2.5580   19.3230 N   0  0  0  0  0  0  0  0  0  0  0  0
    3.1040    0.6530   18.4610 H   0  0  0  0  0  0  0  0  0  0  0  0
    4.4300    2.1460   20.4620 C   0  0  0  0  0  0  0  0  0  0  0  0
    4.4140    1.0560   20.5210 H   0  0  0  0  0  0  0  0  0  0  0  0
    3.9950    2.5660   21.3720 H   0  0  0  0  0  0  0  0  0  0  0  0
    5.4540    2.5090   20.3370 H   0  0  0  0  0  0  0  0  0  0  0  0
  1  6  1  0  0  0  0
  1 40  1  0  0  0  0
  2  1  2  0  0  0  0
  3  4  2  0  0  0  0
  3  2  1  0  0  0  0
  4  5  1  0  0  0  0
  5 11  1  0  0  0  0
  5  6  2  0  0  0  0
  6 10  1  0  0  0  0
  7  2  1  0  0  0  0
  8  3  1  0  0  0  0
  9  4  1  0  0  0  0
 11 12  2  0  0  0  0
 12 13  1  0  0  0  0
 13 20  1  0  0  0  0
 14 13  1  0  0  0  0
 15 11  1  0  0  0  0
 15 14  2  0  0  0  0
 16 15  1  0  0  0  0
 17 16  2  0  0  0  0
 17 18  1  0  0  0  0
 18 19  2  0  0  0  0
 19 14  1  0  0  0  0
 19 22  1  0  0  0  0
 21 18  1  0  0  0  0
 22 26  1  0  0  0  0
 23 22  1  0  0  0  0
 23 24  1  0  0  0  0
 24 29  1  0  0  0  0
 24 25  1  0  0  0  0
 25 31  1  1  0  0  0
 25 34  1  0  0  0  0
 26 33  1  0  0  0  0
 26 32  1  0  0  0  0
 26 25  1  0  0  0  0
 27 23  1  0  0  0  0
 28 23  1  0  0  0  0
 30 24  1  0  0  0  0
 35 34  1  0  0  0  0
 36 38  1  0  0  0  0
 36 17  1  0  0  0  0
 37 36  1  0  0  0  0
 39 36  1  0  0  0  0
 40 42  1  0  0  0  0
 40 41  1  1  0  0  0
 42 44  1  0  0  0  0
 43 42  1  0  0  0  0
 45 42  1  0  0  0  0
 46 40  1  0  0  0  0
 46 48  1  0  0  0  0
 47 46  1  0  0  0  0
 49 53  1  0  0  0  0
 49 46  1  0  0  0  0
 50 49  2  0  0  0  0
 51 50  1  0  0  0  0
 51 52  2  0  0  0  0
 52 54  1  0  0  0  0
 52 53  1  0  0  0  0
 53 55  1  0  0  0  0
 55 56  1  0  0  0  0
 55 57  1  0  0  0  0
 58 55  1  0  0  0  0
M  END
>  <MODEL>
15

>  <REMARK>
 VINA RESULT:    -8.770      4.682      9.553
 INTER + INTRA:         -12.102
 INTER:                 -11.586
 INTRA:                  -0.515
 UNBOUND:                 0.514
  Name = 
  9 active torsions:
  status: ('A' for Active; 'I' for Inactive)
    1  A    between atoms: C_1  and  C_2
    2  A    between atoms: C_2  and  C_3
    3  A    between atoms: C_2  and  C_10
    4  A    between atoms: C_3  and  C_4
    5  A    between atoms: N_8  and  C_9
    6  A    between atoms: C_14  and  C_16
    7  A    between atoms: C_22  and  C_31
    8  A    between atoms: C_24  and  N_25
    9  A    between atoms: C_28  and  O_30
                            x       y       z     vdW  Elec       q    Type
                         _______ _______ _______ _____ _____    ______ ____

>  <TORSDO>
F 9

$$$$
=
 OpenBabel07192307433D

 58 62  0  0  1  0  0  0  0  0999 V2000
    0.8470   10.9660   18.9480 C   0  0  0  0  0  0  0  0  0  0  0  0
   -0.4070   10.7700   18.3560 C   0  0  0  0  0  0  0  0  0  0  0  0
   -0.6570    9.6310   17.5920 C   0  0  0  0  0  0  0  0  0  0  0  0
    0.3440    8.6750   17.4120 C   0  0  0  0  0  0  0  0  0  0  0  0
    1.6100    8.8360   17.9980 C   0  0  0  0  0  0  0  0  0  0  0  0
    1.8430    9.9880   18.7650 C   0  0  0  0  0  0  0  0  0  0  0  0
   -1.2000   11.5020   18.4860 H   0  0  0  0  0  0  0  0  0  0  0  0
   -1.6310    9.4850   17.1350 H   0  0  0  0  0  0  0  0  0  0  0  0
    0.1290    7.7940   16.8110 H   0  0  0  0  0  0  0  0  0  0  0  0
    2.8150   10.1430   19.2260 H   0  0  0  0  0  0  0  0  0  0  0  0
    2.6530    7.8180   17.7940 C   0  0  0  0  0  0  0  0  0  0  0  0
    3.7600    8.0980   17.0740 N   0  0  0  0  0  0  0  0  0  0  0  0
    4.4710    6.9580   17.1010 N   0  0  0  0  0  0  0  0  0  0  0  0
    3.8920    5.9460   17.8040 C   0  0  0  0  0  0  0  0  0  0  0  0
    2.7000    6.4660   18.2720 C   0  0  0  0  0  0  0  0  0  0  0  0
    1.8340    5.7380   19.0220 N   0  0  0  0  0  0  0  0  0  0  0  0
    2.2080    4.4560   19.2780 C   0  0  0  0  0  0  0  0  0  0  0  0
    3.4110    3.8950   18.8240 C   0  0  0  0  0  0  0  0  0  0  0  0
    4.3090    4.6420   18.0560 C   0  0  0  0  0  0  0  0  0  0  0  0
    5.3570    6.9200   16.6140 H   0  0  0  0  0  0  0  0  0  0  0  0
    3.6490    2.8630   19.0750 H   0  0  0  0  0  0  0  0  0  0  0  0
    5.5220    4.1740   17.5660 N   0  0  0  0  0  0  0  0  0  0  0  0
    6.7220    4.7190   18.2430 C   0  0  0  0  0  0  0  0  0  0  0  0
    7.5300    5.4100   17.1550 C   0  0  0  0  0  0  0  0  0  0  0  0
    7.1890    4.6060   15.9130 C   0  0  1  0  0  0  0  0  0  0  0  0
    5.6880    4.3540   16.1070 C   0  0  0  0  0  0  0  0  0  0  0  0
    6.5000    5.4000   19.0720 H   0  0  0  0  0  0  0  0  0  0  0  0
    7.2890    3.8740   18.6520 H   0  0  0  0  0  0  0  0  0  0  0  0
    8.6040    5.4170   17.3700 H   0  0  0  0  0  0  0  0  0  0  0  0
    7.2150    6.4560   17.0390 H   0  0  0  0  0  0  0  0  0  0  0  0
    7.7500    3.6640   15.8970 H   0  0  0  0  0  0  0  0  0  0  0  0
    5.3720    3.4520   15.5700 H   0  0  0  0  0  0  0  0  0  0  0  0
    5.1100    5.1960   15.7050 H   0  0  0  0  0  0  0  0  0  0  0  0
    7.4830    5.3550   14.7460 O   0  0  0  0  0  0  0  0  0  0  0  0
    6.7630    5.9980   14.6180 H   0  0  0  0  0  0  0  0  0  0  0  0
    1.2820    3.6020   20.1380 C   0  0  0  0  0  0  0  0  0  0  0  0
    0.8020    2.5080   19.4730 F   0  0  0  0  0  0  0  0  0  0  0  0
    0.1740    4.2730   20.5680 F   0  0  0  0  0  0  0  0  0  0  0  0
    2.1790    3.0150   21.5690 Cl  0  0  0  0  0  0  0  0  0  0  0  0
    1.1130   12.2290   19.7580 C   0  0  1  0  0  0  0  0  0  0  0  0
    2.0850   12.1140   20.2560 H   0  0  0  0  0  0  0  0  0  0  0  0
    1.2160   13.4440   18.8290 C   0  0  0  0  0  0  0  0  0  0  0  0
    1.0650   14.3830   19.3740 H   0  0  0  0  0  0  0  0  0  0  0  0
    0.4630   13.4010   18.0330 H   0  0  0  0  0  0  0  0  0  0  0  0
    2.1980   13.4940   18.3490 H   0  0  0  0  0  0  0  0  0  0  0  0
    0.0270   12.4110   20.8420 C   0  0  0  0  0  0  0  0  0  0  0  0
    0.2090   13.3260   21.4210 H   0  0  0  0  0  0  0  0  0  0  0  0
   -0.9470   12.5480   20.3570 H   0  0  0  0  0  0  0  0  0  0  0  0
   -0.0490   11.2570   21.7860 C   0  0  0  0  0  0  0  0  0  0  0  0
    0.8220   10.2730   21.9000 N   0  0  0  0  0  0  0  0  0  0  0  0
    0.3880    9.4230   22.8870 N   0  0  0  0  0  0  0  0  0  0  0  0
   -0.7350    9.9070   23.3630 C   0  0  0  0  0  0  0  0  0  0  0  0
   -1.0450   11.0580   22.7080 N   0  0  0  0  0  0  0  0  0  0  0  0
   -1.3290    9.4750   24.1540 H   0  0  0  0  0  0  0  0  0  0  0  0
   -2.1890   11.8900   22.9610 C   0  0  0  0  0  0  0  0  0  0  0  0
   -2.1360   12.7650   22.3110 H   0  0  0  0  0  0  0  0  0  0  0  0
   -2.1850   12.2120   24.0050 H   0  0  0  0  0  0  0  0  0  0  0  0
   -3.0930   11.3120   22.7530 H   0  0  0  0  0  0  0  0  0  0  0  0
  1 40  1  0  0  0  0
  2  7  1  0  0  0  0
  2  1  2  0  0  0  0
  3  2  1  0  0  0  0
  4  3  2  0  0  0  0
  4  5  1  0  0  0  0
  5  6  2  0  0  0  0
  6  1  1  0  0  0  0
  6 10  1  0  0  0  0
  8  3  1  0  0  0  0
  9  4  1  0  0  0  0
 11  5  1  0  0  0  0
 11 15  1  0  0  0  0
 12 13  1  0  0  0  0
 12 11  2  0  0  0  0
 13 14  1  0  0  0  0
 14 19  2  0  0  0  0
 14 15  1  0  0  0  0
 15 16  2  0  0  0  0
 16 17  1  0  0  0  0
 17 36  1  0  0  0  0
 18 21  1  0  0  0  0
 18 17  2  0  0  0  0
 19 18  1  0  0  0  0
 20 13  1  0  0  0  0
 22 19  1  0  0  0  0
 22 23  1  0  0  0  0
 23 28  1  0  0  0  0
 23 27  1  0  0  0  0
 24 29  1  0  0  0  0
 24 23  1  0  0  0  0
 25 31  1  6  0  0  0
 25 26  1  0  0  0  0
 25 24  1  0  0  0  0
 26 22  1  0  0  0  0
 30 24  1  0  0  0  0
 32 26  1  0  0  0  0
 33 26  1  0  0  0  0
 34 25  1  0  0  0  0
 35 34  1  0  0  0  0
 36 38  1  0  0  0  0
 36 39  1  0  0  0  0
 37 36  1  0  0  0  0
 40 41  1  1  0  0  0
 40 46  1  0  0  0  0
 42 43  1  0  0  0  0
 42 40  1  0  0  0  0
 44 42  1  0  0  0  0
 45 42  1  0  0  0  0
 46 47  1  0  0  0  0
 46 49  1  0  0  0  0
 48 46  1  0  0  0  0
 49 50  2  0  0  0  0
 49 53  1  0  0  0  0
 50 51  1  0  0  0  0
 51 52  2  0  0  0  0
 52 54  1  0  0  0  0
 53 55  1  0  0  0  0
 53 52  1  0  0  0  0
 55 57  1  0  0  0  0
 56 55  1  0  0  0  0
 58 55  1  0  0  0  0
M  END
>  <MODEL>
16

>  <REMARK>
 VINA RESULT:    -8.433      2.381      3.519
 INTER + INTRA:         -11.617
 INTER:                 -11.183
 INTRA:                  -0.433
 UNBOUND:                 0.514
  Name = 
  9 active torsions:
  status: ('A' for Active; 'I' for Inactive)
    1  A    between atoms: C_1  and  C_2
    2  A    between atoms: C_2  and  C_3
    3  A    between atoms: C_2  and  C_10
    4  A    between atoms: C_3  and  C_4
    5  A    between atoms: N_8  and  C_9
    6  A    between atoms: C_14  and  C_16
    7  A    between atoms: C_22  and  C_31
    8  A    between atoms: C_24  and  N_25
    9  A    between atoms: C_28  and  O_30
                            x       y       z     vdW  Elec       q    Type
                         _______ _______ _______ _____ _____    ______ ____

>  <TORSDO>
F 9

$$$$
=
 OpenBabel07192307433D

 58 62  0  0  1  0  0  0  0  0999 V2000
    0.1940   11.2070   19.7900 C   0  0  0  0  0  0  0  0  0  0  0  0
    0.9330   11.9330   18.8480 C   0  0  0  0  0  0  0  0  0  0  0  0
    1.9530   11.3170   18.1250 C   0  0  0  0  0  0  0  0  0  0  0  0
    2.2450    9.9690   18.3350 C   0  0  0  0  0  0  0  0  0  0  0  0
    1.5190    9.2090   19.2660 C   0  0  0  0  0  0  0  0  0  0  0  0
    0.4950    9.8450   19.9850 C   0  0  0  0  0  0  0  0  0  0  0  0
    0.7190   12.9840   18.6680 H   0  0  0  0  0  0  0  0  0  0  0  0
    2.5240   11.8850   17.3950 H   0  0  0  0  0  0  0  0  0  0  0  0
    3.0470    9.5080   17.7620 H   0  0  0  0  0  0  0  0  0  0  0  0
   -0.0810    9.2850   20.7170 H   0  0  0  0  0  0  0  0  0  0  0  0
    1.8440    7.7900   19.4760 C   0  0  0  0  0  0  0  0  0  0  0  0
    1.2500    7.0830   20.4610 N   0  0  0  0  0  0  0  0  0  0  0  0
    1.7800    5.8530   20.3530 N   0  0  0  0  0  0  0  0  0  0  0  0
    2.6880    5.7130   19.3480 C   0  0  0  0  0  0  0  0  0  0  0  0
    2.7610    6.9580   18.7510 C   0  0  0  0  0  0  0  0  0  0  0  0
    3.5780    7.2110   17.6980 N   0  0  0  0  0  0  0  0  0  0  0  0
    4.3320    6.1630   17.2690 C   0  0  0  0  0  0  0  0  0  0  0  0
    4.2820    4.8860   17.8470 C   0  0  0  0  0  0  0  0  0  0  0  0
    3.4380    4.6180   18.9290 C   0  0  0  0  0  0  0  0  0  0  0  0
    1.4880    5.1330   21.0020 H   0  0  0  0  0  0  0  0  0  0  0  0
    4.9080    4.0920   17.4460 H   0  0  0  0  0  0  0  0  0  0  0  0
    3.3180    3.3870   19.5620 N   0  0  0  0  0  0  0  0  0  0  0  0
    2.3400    2.4600   18.9470 C   0  0  0  0  0  0  0  0  0  0  0  0
    1.3230    2.1530   20.0370 C   0  0  0  0  0  0  0  0  0  0  0  0
    2.1430    2.2650   21.3090 C   0  0  1  0  0  0  0  0  0  0  0  0
    3.0230    3.4840   21.0090 C   0  0  0  0  0  0  0  0  0  0  0  0
    1.8550    2.8500   18.0450 H   0  0  0  0  0  0  0  0  0  0  0  0
    2.8750    1.5450   18.6650 H   0  0  0  0  0  0  0  0  0  0  0  0
    0.8650    1.1660   19.9170 H   0  0  0  0  0  0  0  0  0  0  0  0
    0.5110    2.8910   20.0320 H   0  0  0  0  0  0  0  0  0  0  0  0
    2.7520    1.3640   21.4570 H   0  0  0  0  0  0  0  0  0  0  0  0
    3.9510    3.4490   21.5930 H   0  0  0  0  0  0  0  0  0  0  0  0
    2.4960    4.4070   21.2830 H   0  0  0  0  0  0  0  0  0  0  0  0
    1.2920    2.4520   22.4280 O   0  0  0  0  0  0  0  0  0  0  0  0
    0.3850    2.5670   22.0930 H   0  0  0  0  0  0  0  0  0  0  0  0
    5.2500    6.3890   16.0720 C   0  0  0  0  0  0  0  0  0  0  0  0
    6.4380    6.9700   16.4180 F   0  0  0  0  0  0  0  0  0  0  0  0
    4.7110    7.2120   15.1270 F   0  0  0  0  0  0  0  0  0  0  0  0
    5.6200    4.8160   15.3070 Cl  0  0  0  0  0  0  0  0  0  0  0  0
   -0.9010   11.9010   20.5920 C   0  0  1  0  0  0  0  0  0  0  0  0
   -1.5740   11.1280   20.9860 H   0  0  0  0  0  0  0  0  0  0  0  0
   -0.2950   12.6370   21.7920 C   0  0  0  0  0  0  0  0  0  0  0  0
    0.5210   12.0630   22.2470 H   0  0  0  0  0  0  0  0  0  0  0  0
   -1.0470   12.8130   22.5710 H   0  0  0  0  0  0  0  0  0  0  0  0
    0.1090   13.6110   21.4990 H   0  0  0  0  0  0  0  0  0  0  0  0
   -1.7190   12.8430   19.6800 C   0  0  0  0  0  0  0  0  0  0  0  0
   -1.8990   13.8030   20.1800 H   0  0  0  0  0  0  0  0  0  0  0  0
   -1.1350   13.0720   18.7810 H   0  0  0  0  0  0  0  0  0  0  0  0
   -3.0350   12.2620   19.2790 C   0  0  0  0  0  0  0  0  0  0  0  0
   -4.1820   12.3920   19.9160 N   0  0  0  0  0  0  0  0  0  0  0  0
   -5.1470   11.7140   19.2120 N   0  0  0  0  0  0  0  0  0  0  0  0
   -4.5740   11.1890   18.1560 C   0  0  0  0  0  0  0  0  0  0  0  0
   -3.2520   11.5100   18.1510 N   0  0  0  0  0  0  0  0  0  0  0  0
   -5.0610   10.5970   17.3960 H   0  0  0  0  0  0  0  0  0  0  0  0
   -2.2970   11.1360   17.1450 C   0  0  0  0  0  0  0  0  0  0  0  0
   -1.7980   12.0370   16.7840 H   0  0  0  0  0  0  0  0  0  0  0  0
   -2.8110   10.6470   16.3140 H   0  0  0  0  0  0  0  0  0  0  0  0
   -1.5730   10.4490   17.5910 H   0  0  0  0  0  0  0  0  0  0  0  0
  1  6  1  0  0  0  0
  1 40  1  0  0  0  0
  2  1  2  0  0  0  0
  3  4  2  0  0  0  0
  3  2  1  0  0  0  0
  4  5  1  0  0  0  0
  5 11  1  0  0  0  0
  5  6  2  0  0  0  0
  6 10  1  0  0  0  0
  7  2  1  0  0  0  0
  8  3  1  0  0  0  0
  9  4  1  0  0  0  0
 11 12  2  0  0  0  0
 13 12  1  0  0  0  0
 13 20  1  0  0  0  0
 14 13  1  0  0  0  0
 15 14  2  0  0  0  0
 15 11  1  0  0  0  0
 16 15  1  0  0  0  0
 17 16  2  0  0  0  0
 17 18  1  0  0  0  0
 18 19  2  0  0  0  0
 19 14  1  0  0  0  0
 19 22  1  0  0  0  0
 21 18  1  0  0  0  0
 22 26  1  0  0  0  0
 23 22  1  0  0  0  0
 23 24  1  0  0  0  0
 24 25  1  0  0  0  0
 25 31  1  1  0  0  0
 25 34  1  0  0  0  0
 26 33  1  0  0  0  0
 26 25  1  0  0  0  0
 26 32  1  0  0  0  0
 27 23  1  0  0  0  0
 28 23  1  0  0  0  0
 29 24  1  0  0  0  0
 30 24  1  0  0  0  0
 35 34  1  0  0  0  0
 36 37  1  0  0  0  0
 36 17  1  0  0  0  0
 38 36  1  0  0  0  0
 39 36  1  0  0  0  0
 40 41  1  1  0  0  0
 40 42  1  0  0  0  0
 42 43  1  0  0  0  0
 42 44  1  0  0  0  0
 45 42  1  0  0  0  0
 46 47  1  0  0  0  0
 46 40  1  0  0  0  0
 48 46  1  0  0  0  0
 49 46  1  0  0  0  0
 49 50  2  0  0  0  0
 51 50  1  0  0  0  0
 52 51  2  0  0  0  0
 53 52  1  0  0  0  0
 53 49  1  0  0  0  0
 54 52  1  0  0  0  0
 55 58  1  0  0  0  0
 55 53  1  0  0  0  0
 56 55  1  0  0  0  0
 57 55  1  0  0  0  0
M  END
>  <MODEL>
17

>  <REMARK>
 VINA RESULT:    -8.403      2.997      4.095
 INTER + INTRA:         -11.573
 INTER:                 -11.121
 INTRA:                  -0.452
 UNBOUND:                 0.514
  Name = 
  9 active torsions:
  status: ('A' for Active; 'I' for Inactive)
    1  A    between atoms: C_1  and  C_2
    2  A    between atoms: C_2  and  C_3
    3  A    between atoms: C_2  and  C_10
    4  A    between atoms: C_3  and  C_4
    5  A    between atoms: N_8  and  C_9
    6  A    between atoms: C_14  and  C_16
    7  A    between atoms: C_22  and  C_31
    8  A    between atoms: C_24  and  N_25
    9  A    between atoms: C_28  and  O_30
                            x       y       z     vdW  Elec       q    Type
                         _______ _______ _______ _____ _____    ______ ____

>  <TORSDO>
F 9

$$$$
=
 OpenBabel07192307433D

 58 62  0  0  1  0  0  0  0  0999 V2000
    2.7160    6.6270   19.3270 C   0  0  0  0  0  0  0  0  0  0  0  0
    3.1050    6.8510   18.0010 C   0  0  0  0  0  0  0  0  0  0  0  0
    2.7280    8.0190   17.3420 C   0  0  0  0  0  0  0  0  0  0  0  0
    1.9560    8.9770   18.0020 C   0  0  0  0  0  0  0  0  0  0  0  0
    1.5550    8.7890   19.3340 C   0  0  0  0  0  0  0  0  0  0  0  0
    1.9460    7.6070   19.9820 C   0  0  0  0  0  0  0  0  0  0  0  0
    3.7080    6.1170   17.4700 H   0  0  0  0  0  0  0  0  0  0  0  0
    3.0320    8.1880   16.3130 H   0  0  0  0  0  0  0  0  0  0  0  0
    1.6700    9.8820   17.4690 H   0  0  0  0  0  0  0  0  0  0  0  0
    1.6450    7.4290   21.0120 H   0  0  0  0  0  0  0  0  0  0  0  0
    0.7400    9.8080   20.0120 C   0  0  0  0  0  0  0  0  0  0  0  0
   -0.3080    9.4530   20.7870 N   0  0  0  0  0  0  0  0  0  0  0  0
   -0.8030   10.6210   21.2300 N   0  0  0  0  0  0  0  0  0  0  0  0
   -0.1340   11.7240   20.7920 C   0  0  0  0  0  0  0  0  0  0  0  0
    0.8800   11.2360   19.9910 C   0  0  0  0  0  0  0  0  0  0  0  0
    1.7660   12.0520   19.3640 N   0  0  0  0  0  0  0  0  0  0  0  0
    1.5870   13.3840   19.5660 C   0  0  0  0  0  0  0  0  0  0  0  0
    0.5710   13.9150   20.3750 C   0  0  0  0  0  0  0  0  0  0  0  0
   -0.3400   13.0800   21.0270 C   0  0  0  0  0  0  0  0  0  0  0  0
   -1.6140   10.6130   21.8370 H   0  0  0  0  0  0  0  0  0  0  0  0
    0.4940   14.9940   20.4980 H   0  0  0  0  0  0  0  0  0  0  0  0
   -1.3730   13.5130   21.8500 N   0  0  0  0  0  0  0  0  0  0  0  0
   -1.3880   12.9130   23.2040 C   0  0  0  0  0  0  0  0  0  0  0  0
   -2.7340   12.2130   23.3290 C   0  0  0  0  0  0  0  0  0  0  0  0
   -3.6380   13.0530   22.4440 C   0  0  1  0  0  0  0  0  0  0  0  0
   -2.7180   13.3550   21.2540 C   0  0  0  0  0  0  0  0  0  0  0  0
   -0.5590   12.2240   23.4000 H   0  0  0  0  0  0  0  0  0  0  0  0
   -1.3210   13.7290   23.9340 H   0  0  0  0  0  0  0  0  0  0  0  0
   -3.0870   12.1640   24.3640 H   0  0  0  0  0  0  0  0  0  0  0  0
   -2.6740   11.1830   22.9550 H   0  0  0  0  0  0  0  0  0  0  0  0
   -3.9350   13.9750   22.9590 H   0  0  0  0  0  0  0  0  0  0  0  0
   -3.0260   14.2790   20.7490 H   0  0  0  0  0  0  0  0  0  0  0  0
   -2.7740   12.5420   20.5190 H   0  0  0  0  0  0  0  0  0  0  0  0
   -4.7940   12.3170   22.0830 O   0  0  0  0  0  0  0  0  0  0  0  0
   -4.6210   11.3780   22.2790 H   0  0  0  0  0  0  0  0  0  0  0  0
    2.5710   14.3440   18.9040 C   0  0  0  0  0  0  0  0  0  0  0  0
    1.9540   15.2670   18.1050 F   0  0  0  0  0  0  0  0  0  0  0  0
    3.4740   13.7170   18.0950 F   0  0  0  0  0  0  0  0  0  0  0  0
    3.4680   15.2350   20.1670 Cl  0  0  0  0  0  0  0  0  0  0  0  0
    3.1150    5.3320   20.0250 C   0  0  1  0  0  0  0  0  0  0  0  0
    3.8580    5.5770   20.7960 H   0  0  0  0  0  0  0  0  0  0  0  0
    1.9040    4.7160   20.7350 C   0  0  0  0  0  0  0  0  0  0  0  0
    1.8760    4.9890   21.7960 H   0  0  0  0  0  0  0  0  0  0  0  0
    1.9250    3.6210   20.6780 H   0  0  0  0  0  0  0  0  0  0  0  0
    0.9660    5.0500   20.2820 H   0  0  0  0  0  0  0  0  0  0  0  0
    3.7620    4.3560   19.0170 C   0  0  0  0  0  0  0  0  0  0  0  0
    3.7170    3.3260   19.3950 H   0  0  0  0  0  0  0  0  0  0  0  0
    3.1840    4.3630   18.0860 H   0  0  0  0  0  0  0  0  0  0  0  0
    5.1850    4.6920   18.7170 C   0  0  0  0  0  0  0  0  0  0  0  0
    6.0700    5.1960   19.5550 N   0  0  0  0  0  0  0  0  0  0  0  0
    7.2610    5.3470   18.8880 N   0  0  0  0  0  0  0  0  0  0  0  0
    7.0850    4.9240   17.6590 C   0  0  0  0  0  0  0  0  0  0  0  0
    5.8020    4.4990   17.5060 N   0  0  0  0  0  0  0  0  0  0  0  0
    7.8310    4.9050   16.8790 H   0  0  0  0  0  0  0  0  0  0  0  0
    5.2340    3.9460   16.3080 C   0  0  0  0  0  0  0  0  0  0  0  0
    4.1680    3.7780   16.4710 H   0  0  0  0  0  0  0  0  0  0  0  0
    5.7200    2.9960   16.0750 H   0  0  0  0  0  0  0  0  0  0  0  0
    5.3890    4.6550   15.4900 H   0  0  0  0  0  0  0  0  0  0  0  0
  1  6  1  0  0  0  0
  1 40  1  0  0  0  0
  2  1  2  0  0  0  0
  3  2  1  0  0  0  0
  3  4  2  0  0  0  0
  4  5  1  0  0  0  0
  5  6  2  0  0  0  0
  5 11  1  0  0  0  0
  6 10  1  0  0  0  0
  7  2  1  0  0  0  0
  8  3  1  0  0  0  0
  9  4  1  0  0  0  0
 11 12  2  0  0  0  0
 12 13  1  0  0  0  0
 13 20  1  0  0  0  0
 14 19  1  0  0  0  0
 14 13  1  0  0  0  0
 15 11  1  0  0  0  0
 15 14  2  0  0  0  0
 16 17  2  0  0  0  0
 16 15  1  0  0  0  0
 17 18  1  0  0  0  0
 18 21  1  0  0  0  0
 18 19  2  0  0  0  0
 19 22  1  0  0  0  0
 22 23  1  0  0  0  0
 23 24  1  0  0  0  0
 23 27  1  0  0  0  0
 23 28  1  0  0  0  0
 24 29  1  0  0  0  0
 25 31  1  1  0  0  0
 25 24  1  0  0  0  0
 26 22  1  0  0  0  0
 26 25  1  0  0  0  0
 30 24  1  0  0  0  0
 32 26  1  0  0  0  0
 33 26  1  0  0  0  0
 34 35  1  0  0  0  0
 34 25  1  0  0  0  0
 36 17  1  0  0  0  0
 36 39  1  0  0  0  0
 37 36  1  0  0  0  0
 38 36  1  0  0  0  0
 40 42  1  0  0  0  0
 40 41  1  1  0  0  0
 42 43  1  0  0  0  0
 44 42  1  0  0  0  0
 45 42  1  0  0  0  0
 46 47  1  0  0  0  0
 46 40  1  0  0  0  0
 48 46  1  0  0  0  0
 49 46  1  0  0  0  0
 49 50  2  0  0  0  0
 51 50  1  0  0  0  0
 52 51  2  0  0  0  0
 53 52  1  0  0  0  0
 53 49  1  0  0  0  0
 54 52  1  0  0  0  0
 55 56  1  0  0  0  0
 55 53  1  0  0  0  0
 57 55  1  0  0  0  0
 58 55  1  0  0  0  0
M  END
>  <MODEL>
18

>  <REMARK>
 VINA RESULT:    -8.391      5.070      9.808
 INTER + INTRA:         -11.557
 INTER:                 -11.343
 INTRA:                  -0.213
 UNBOUND:                 0.514
  Name = 
  9 active torsions:
  status: ('A' for Active; 'I' for Inactive)
    1  A    between atoms: C_1  and  C_2
    2  A    between atoms: C_2  and  C_3
    3  A    between atoms: C_2  and  C_10
    4  A    between atoms: C_3  and  C_4
    5  A    between atoms: N_8  and  C_9
    6  A    between atoms: C_14  and  C_16
    7  A    between atoms: C_22  and  C_31
    8  A    between atoms: C_24  and  N_25
    9  A    between atoms: C_28  and  O_30
                            x       y       z     vdW  Elec       q    Type
                         _______ _______ _______ _____ _____    ______ ____

>  <TORSDO>
F 9

$$$$
=
 OpenBabel07192307433D

 58 62  0  0  1  0  0  0  0  0999 V2000
    2.6050    6.7250   18.6670 C   0  0  0  0  0  0  0  0  0  0  0  0
    2.3940    5.8110   19.7060 C   0  0  0  0  0  0  0  0  0  0  0  0
    1.6880    6.1890   20.8470 C   0  0  0  0  0  0  0  0  0  0  0  0
    1.1850    7.4860   20.9610 C   0  0  0  0  0  0  0  0  0  0  0  0
    1.3700    8.4250   19.9340 C   0  0  0  0  0  0  0  0  0  0  0  0
    2.0840    8.0270   18.7930 C   0  0  0  0  0  0  0  0  0  0  0  0
    2.7780    4.7950   19.6360 H   0  0  0  0  0  0  0  0  0  0  0  0
    1.5280    5.4760   21.6500 H   0  0  0  0  0  0  0  0  0  0  0  0
    0.6370    7.7610   21.8600 H   0  0  0  0  0  0  0  0  0  0  0  0
    2.2500    8.7340   17.9840 H   0  0  0  0  0  0  0  0  0  0  0  0
    0.8350    9.7880   20.0740 C   0  0  0  0  0  0  0  0  0  0  0  0
    1.3360   10.6370   20.9980 N   0  0  0  0  0  0  0  0  0  0  0  0
    0.6190   11.7620   20.8370 N   0  0  0  0  0  0  0  0  0  0  0  0
   -0.3230   11.7000   19.8560 C   0  0  0  0  0  0  0  0  0  0  0  0
   -0.2160   10.4250   19.3340 C   0  0  0  0  0  0  0  0  0  0  0  0
   -1.0090    9.9860   18.3230 N   0  0  0  0  0  0  0  0  0  0  0  0
   -1.9260   10.8780   17.8610 C   0  0  0  0  0  0  0  0  0  0  0  0
   -2.0600   12.1800   18.3640 C   0  0  0  0  0  0  0  0  0  0  0  0
   -1.2430   12.6400   19.4010 C   0  0  0  0  0  0  0  0  0  0  0  0
    0.8120   12.5570   21.4350 H   0  0  0  0  0  0  0  0  0  0  0  0
   -2.8110   12.8440   17.9390 H   0  0  0  0  0  0  0  0  0  0  0  0
   -1.3000   13.9110   19.9590 N   0  0  0  0  0  0  0  0  0  0  0  0
   -0.0960   14.7460   19.7370 C   0  0  0  0  0  0  0  0  0  0  0  0
    0.4230   15.0970   21.1240 C   0  0  0  0  0  0  0  0  0  0  0  0
   -0.8410   15.1190   21.9650 C   0  0  1  0  0  0  0  0  0  0  0  0
   -1.6110   13.9170   21.4050 C   0  0  0  0  0  0  0  0  0  0  0  0
    0.6790   14.2660   19.1290 H   0  0  0  0  0  0  0  0  0  0  0  0
   -0.4110   15.6570   19.2140 H   0  0  0  0  0  0  0  0  0  0  0  0
    0.9580   16.0510   21.1440 H   0  0  0  0  0  0  0  0  0  0  0  0
    1.1170   14.3270   21.4870 H   0  0  0  0  0  0  0  0  0  0  0  0
   -1.3950   16.0520   21.8060 H   0  0  0  0  0  0  0  0  0  0  0  0
   -2.6890   14.0350   21.5660 H   0  0  0  0  0  0  0  0  0  0  0  0
   -1.3010   12.9970   21.9190 H   0  0  0  0  0  0  0  0  0  0  0  0
   -0.5200   14.9850   23.3390 O   0  0  0  0  0  0  0  0  0  0  0  0
   -1.2310   15.4090   23.8520 H   0  0  0  0  0  0  0  0  0  0  0  0
   -2.8260   10.4420   16.7090 C   0  0  0  0  0  0  0  0  0  0  0  0
   -3.2520    9.1480   16.8300 F   0  0  0  0  0  0  0  0  0  0  0  0
   -2.2120   10.5040   15.4920 F   0  0  0  0  0  0  0  0  0  0  0  0
   -4.2760   11.4860   16.6650 Cl  0  0  0  0  0  0  0  0  0  0  0  0
    3.4030    6.3040   17.4380 C   0  0  1  0  0  0  0  0  0  0  0  0
    2.7120    6.2560   16.5860 H   0  0  0  0  0  0  0  0  0  0  0  0
    4.4660    7.3590   17.1080 C   0  0  0  0  0  0  0  0  0  0  0  0
    5.0030    7.6860   18.0050 H   0  0  0  0  0  0  0  0  0  0  0  0
    4.0140    8.2480   16.6530 H   0  0  0  0  0  0  0  0  0  0  0  0
    5.2050    6.9690   16.4020 H   0  0  0  0  0  0  0  0  0  0  0  0
    4.0160    4.9020   17.6500 C   0  0  0  0  0  0  0  0  0  0  0  0
    3.4960    4.3720   18.4580 H   0  0  0  0  0  0  0  0  0  0  0  0
    3.8640    4.3020   16.7450 H   0  0  0  0  0  0  0  0  0  0  0  0
    5.4740    4.9490   17.9720 C   0  0  0  0  0  0  0  0  0  0  0  0
    6.0170    5.3040   19.1200 N   0  0  0  0  0  0  0  0  0  0  0  0
    7.3810    5.2010   19.0030 N   0  0  0  0  0  0  0  0  0  0  0  0
    7.6460    4.7780   17.7910 C   0  0  0  0  0  0  0  0  0  0  0  0
    6.4820    4.6000   17.1090 N   0  0  0  0  0  0  0  0  0  0  0  0
    8.6270    4.5890   17.3820 H   0  0  0  0  0  0  0  0  0  0  0  0
    6.3600    4.1250   15.7580 C   0  0  0  0  0  0  0  0  0  0  0  0
    5.9200    4.9160   15.1480 H   0  0  0  0  0  0  0  0  0  0  0  0
    5.7130    3.2450   15.7350 H   0  0  0  0  0  0  0  0  0  0  0  0
    7.3560    3.8650   15.3890 H   0  0  0  0  0  0  0  0  0  0  0  0
  1  6  2  0  0  0  0
  1  2  1  0  0  0  0
  2  3  2  0  0  0  0
  3  4  1  0  0  0  0
  3  8  1  0  0  0  0
  4  9  1  0  0  0  0
  5 11  1  0  0  0  0
  5  4  2  0  0  0  0
  6  5  1  0  0  0  0
  7  2  1  0  0  0  0
 10  6  1  0  0  0  0
 11 12  2  0  0  0  0
 13 12  1  0  0  0  0
 13 20  1  0  0  0  0
 14 13  1  0  0  0  0
 15 14  2  0  0  0  0
 15 11  1  0  0  0  0
 16 15  1  0  0  0  0
 17 16  2  0  0  0  0
 17 18  1  0  0  0  0
 18 19  2  0  0  0  0
 19 14  1  0  0  0  0
 19 22  1  0  0  0  0
 21 18  1  0  0  0  0
 22 26  1  0  0  0  0
 23 22  1  0  0  0  0
 23 24  1  0  0  0  0
 24 29  1  0  0  0  0
 24 30  1  0  0  0  0
 24 25  1  0  0  0  0
 25 31  1  6  0  0  0
 25 34  1  0  0  0  0
 26 32  1  0  0  0  0
 26 33  1  0  0  0  0
 26 25  1  0  0  0  0
 27 23  1  0  0  0  0
 28 23  1  0  0  0  0
 34 35  1  0  0  0  0
 36 37  1  0  0  0  0
 36 17  1  0  0  0  0
 38 36  1  0  0  0  0
 39 36  1  0  0  0  0
 40 41  1  6  0  0  0
 40 46  1  0  0  0  0
 40  1  1  0  0  0  0
 42 40  1  0  0  0  0
 42 43  1  0  0  0  0
 44 42  1  0  0  0  0
 45 42  1  0  0  0  0
 46 49  1  0  0  0  0
 46 47  1  0  0  0  0
 48 46  1  0  0  0  0
 49 50  2  0  0  0  0
 51 50  1  0  0  0  0
 52 51  2  0  0  0  0
 53 52  1  0  0  0  0
 53 49  1  0  0  0  0
 54 52  1  0  0  0  0
 55 53  1  0  0  0  0
 56 55  1  0  0  0  0
 57 55  1  0  0  0  0
 58 55  1  0  0  0  0
M  END
>  <MODEL>
19

>  <REMARK>
 VINA RESULT:    -8.391      4.449      9.386
 INTER + INTRA:         -11.556
 INTER:                 -10.866
 INTRA:                  -0.691
 UNBOUND:                 0.514
  Name = 
  9 active torsions:
  status: ('A' for Active; 'I' for Inactive)
    1  A    between atoms: C_1  and  C_2
    2  A    between atoms: C_2  and  C_3
    3  A    between atoms: C_2  and  C_10
    4  A    between atoms: C_3  and  C_4
    5  A    between atoms: N_8  and  C_9
    6  A    between atoms: C_14  and  C_16
    7  A    between atoms: C_22  and  C_31
    8  A    between atoms: C_24  and  N_25
    9  A    between atoms: C_28  and  O_30
                            x       y       z     vdW  Elec       q    Type
                         _______ _______ _______ _____ _____    ______ ____

>  <TORSDO>
F 9

$$$$
=
 OpenBabel07192307433D

 58 62  0  0  1  0  0  0  0  0999 V2000
    2.7110    6.5820   18.6650 C   0  0  0  0  0  0  0  0  0  0  0  0
    2.4680    5.5880   19.6210 C   0  0  0  0  0  0  0  0  0  0  0  0
    1.7110    5.8700   20.7560 C   0  0  0  0  0  0  0  0  0  0  0  0
    1.1870    7.1490   20.9490 C   0  0  0  0  0  0  0  0  0  0  0  0
    1.4040    8.1680   20.0080 C   0  0  0  0  0  0  0  0  0  0  0  0
    2.1680    7.8660   18.8700 C   0  0  0  0  0  0  0  0  0  0  0  0
    2.8660    4.5840   19.4880 H   0  0  0  0  0  0  0  0  0  0  0  0
    1.5260    5.0940   21.4950 H   0  0  0  0  0  0  0  0  0  0  0  0
    0.6000    7.3490   21.8440 H   0  0  0  0  0  0  0  0  0  0  0  0
    2.3590    8.6350   18.1260 H   0  0  0  0  0  0  0  0  0  0  0  0
    0.8470    9.5110   20.2310 C   0  0  0  0  0  0  0  0  0  0  0  0
    1.3240   10.3030   21.2150 N   0  0  0  0  0  0  0  0  0  0  0  0
    0.5930   11.4260   21.1200 N   0  0  0  0  0  0  0  0  0  0  0  0
   -0.3360   11.4160   20.1240 C   0  0  0  0  0  0  0  0  0  0  0  0
   -0.2040   10.1800   19.5200 C   0  0  0  0  0  0  0  0  0  0  0  0
   -0.9780    9.7980   18.4720 N   0  0  0  0  0  0  0  0  0  0  0  0
   -1.9020   10.7060   18.0580 C   0  0  0  0  0  0  0  0  0  0  0  0
   -2.0620   11.9710   18.6440 C   0  0  0  0  0  0  0  0  0  0  0  0
   -1.2640   12.3720   19.7200 C   0  0  0  0  0  0  0  0  0  0  0  0
    0.7660   12.1820   21.7710 H   0  0  0  0  0  0  0  0  0  0  0  0
   -2.8170   12.6510   18.2540 H   0  0  0  0  0  0  0  0  0  0  0  0
   -1.3460   13.6020   20.3600 N   0  0  0  0  0  0  0  0  0  0  0  0
   -0.0910   14.3890   20.3660 C   0  0  0  0  0  0  0  0  0  0  0  0
    0.2450   14.6160   21.8330 C   0  0  0  0  0  0  0  0  0  0  0  0
   -1.1210   14.6420   22.4960 C   0  0  1  0  0  0  0  0  0  0  0  0
   -1.8540   13.5220   21.7470 C   0  0  0  0  0  0  0  0  0  0  0  0
    0.7400   13.9150   19.8330 H   0  0  0  0  0  0  0  0  0  0  0  0
   -0.2940   15.3490   19.8760 H   0  0  0  0  0  0  0  0  0  0  0  0
    0.8100   15.5390   21.9970 H   0  0  0  0  0  0  0  0  0  0  0  0
    0.8510   13.7890   22.2270 H   0  0  0  0  0  0  0  0  0  0  0  0
   -1.6090   15.6110   22.3350 H   0  0  0  0  0  0  0  0  0  0  0  0
   -2.9380   13.6830   21.7700 H   0  0  0  0  0  0  0  0  0  0  0  0
   -1.6540   12.5550   22.2270 H   0  0  0  0  0  0  0  0  0  0  0  0
   -0.9980   14.3970   23.8870 O   0  0  0  0  0  0  0  0  0  0  0  0
   -1.3700   15.1650   24.3560 H   0  0  0  0  0  0  0  0  0  0  0  0
   -2.7810   10.3360   16.8670 C   0  0  0  0  0  0  0  0  0  0  0  0
   -3.2540    9.0550   16.9380 F   0  0  0  0  0  0  0  0  0  0  0  0
   -2.1290   10.4110   15.6710 F   0  0  0  0  0  0  0  0  0  0  0  0
   -4.1920   11.4310   16.8120 Cl  0  0  0  0  0  0  0  0  0  0  0  0
    3.5630    6.2660   17.4420 C   0  0  1  0  0  0  0  0  0  0  0  0
    2.8970    6.2110   16.5700 H   0  0  0  0  0  0  0  0  0  0  0  0
    4.5640    7.3980   17.1840 C   0  0  0  0  0  0  0  0  0  0  0  0
    4.2240    8.0610   16.3800 H   0  0  0  0  0  0  0  0  0  0  0  0
    5.5440    7.0030   16.8930 H   0  0  0  0  0  0  0  0  0  0  0  0
    4.7100    8.0110   18.0790 H   0  0  0  0  0  0  0  0  0  0  0  0
    4.2590    4.8970   17.6120 C   0  0  0  0  0  0  0  0  0  0  0  0
    4.7630    4.8380   18.5850 H   0  0  0  0  0  0  0  0  0  0  0  0
    3.5010    4.1050   17.6140 H   0  0  0  0  0  0  0  0  0  0  0  0
    5.2600    4.6190   16.5400 C   0  0  0  0  0  0  0  0  0  0  0  0
    5.0060    4.3700   15.2700 N   0  0  0  0  0  0  0  0  0  0  0  0
    6.2010    4.1780   14.6200 N   0  0  0  0  0  0  0  0  0  0  0  0
    7.1610    4.3220   15.5010 C   0  0  0  0  0  0  0  0  0  0  0  0
    6.6210    4.6040   16.7170 N   0  0  0  0  0  0  0  0  0  0  0  0
    8.2200    4.2380   15.3090 H   0  0  0  0  0  0  0  0  0  0  0  0
    7.3530    4.8500   17.9290 C   0  0  0  0  0  0  0  0  0  0  0  0
    6.9620    4.1990   18.7130 H   0  0  0  0  0  0  0  0  0  0  0  0
    7.2290    5.8940   18.2270 H   0  0  0  0  0  0  0  0  0  0  0  0
    8.4100    4.6380   17.7460 H   0  0  0  0  0  0  0  0  0  0  0  0
  1  6  2  0  0  0  0
  1  2  1  0  0  0  0
  2  3  2  0  0  0  0
  3  4  1  0  0  0  0
  3  8  1  0  0  0  0
  4  9  1  0  0  0  0
  5 11  1  0  0  0  0
  5  4  2  0  0  0  0
  6  5  1  0  0  0  0
  7  2  1  0  0  0  0
 10  6  1  0  0  0  0
 11 12  2  0  0  0  0
 13 12  1  0  0  0  0
 13 20  1  0  0  0  0
 14 13  1  0  0  0  0
 15 14  2  0  0  0  0
 15 11  1  0  0  0  0
 16 15  1  0  0  0  0
 17 16  2  0  0  0  0
 17 18  1  0  0  0  0
 18 19  2  0  0  0  0
 19 14  1  0  0  0  0
 19 22  1  0  0  0  0
 21 18  1  0  0  0  0
 22 23  1  0  0  0  0
 22 26  1  0  0  0  0
 23 24  1  0  0  0  0
 24 29  1  0  0  0  0
 24 30  1  0  0  0  0
 24 25  1  0  0  0  0
 25 31  1  6  0  0  0
 25 34  1  0  0  0  0
 26 32  1  0  0  0  0
 26 33  1  0  0  0  0
 26 25  1  0  0  0  0
 27 23  1  0  0  0  0
 28 23  1  0  0  0  0
 34 35  1  0  0  0  0
 36 37  1  0  0  0  0
 36 17  1  0  0  0  0
 38 36  1  0  0  0  0
 39 36  1  0  0  0  0
 40 41  1  6  0  0  0
 40 46  1  0  0  0  0
 40  1  1  0  0  0  0
 42 40  1  0  0  0  0
 42 45  1  0  0  0  0
 43 42  1  0  0  0  0
 44 42  1  0  0  0  0
 46 48  1  0  0  0  0
 46 47  1  0  0  0  0
 49 53  1  0  0  0  0
 49 46  1  0  0  0  0
 50 49  2  0  0  0  0
 51 50  1  0  0  0  0
 51 52  2  0  0  0  0
 52 53  1  0  0  0  0
 53 55  1  0  0  0  0
 54 52  1  0  0  0  0
 55 57  1  0  0  0  0
 55 56  1  0  0  0  0
 58 55  1  0  0  0  0
M  END
>  <MODEL>
20

>  <REMARK>
 VINA RESULT:    -8.383      4.444      9.399
 INTER + INTRA:         -11.545
 INTER:                 -10.805
 INTRA:                  -0.740
 UNBOUND:                 0.514
  Name = 
  9 active torsions:
  status: ('A' for Active; 'I' for Inactive)
    1  A    between atoms: C_1  and  C_2
    2  A    between atoms: C_2  and  C_3
    3  A    between atoms: C_2  and  C_10
    4  A    between atoms: C_3  and  C_4
    5  A    between atoms: N_8  and  C_9
    6  A    between atoms: C_14  and  C_16
    7  A    between atoms: C_22  and  C_31
    8  A    between atoms: C_24  and  N_25
    9  A    between atoms: C_28  and  O_30
                            x       y       z     vdW  Elec       q    Type
                         _______ _______ _______ _____ _____    ______ ____

>  <TORSDO>
F 9

$$$$
=
 OpenBabel07192307433D

 58 62  0  0  1  0  0  0  0  0999 V2000
    0.5090   11.3780   20.2290 C   0  0  0  0  0  0  0  0  0  0  0  0
    0.9980   12.0290   19.0910 C   0  0  0  0  0  0  0  0  0  0  0  0
    1.7430   11.3290   18.1430 C   0  0  0  0  0  0  0  0  0  0  0  0
    2.0060    9.9710   18.3230 C   0  0  0  0  0  0  0  0  0  0  0  0
    1.5240    9.2840   19.4490 C   0  0  0  0  0  0  0  0  0  0  0  0
    0.7750   10.0050   20.3920 C   0  0  0  0  0  0  0  0  0  0  0  0
    0.8030   13.0870   18.9320 H   0  0  0  0  0  0  0  0  0  0  0  0
    2.1210   11.8400   17.2610 H   0  0  0  0  0  0  0  0  0  0  0  0
    2.5910    9.4430   17.5720 H   0  0  0  0  0  0  0  0  0  0  0  0
    0.3940    9.5030   21.2780 H   0  0  0  0  0  0  0  0  0  0  0  0
    1.8140    7.8530   19.6220 C   0  0  0  0  0  0  0  0  0  0  0  0
    1.2190    7.1400   20.6030 N   0  0  0  0  0  0  0  0  0  0  0  0
    1.7140    5.8990   20.4580 N   0  0  0  0  0  0  0  0  0  0  0  0
    2.5990    5.7580   19.4330 C   0  0  0  0  0  0  0  0  0  0  0  0
    2.6950    7.0130   18.8620 C   0  0  0  0  0  0  0  0  0  0  0  0
    3.5000    7.2670   17.7990 N   0  0  0  0  0  0  0  0  0  0  0  0
    4.2170    6.2100   17.3350 C   0  0  0  0  0  0  0  0  0  0  0  0
    4.1430    4.9220   17.8860 C   0  0  0  0  0  0  0  0  0  0  0  0
    3.3120    4.6530   18.9770 C   0  0  0  0  0  0  0  0  0  0  0  0
    1.4140    5.1730   21.0970 H   0  0  0  0  0  0  0  0  0  0  0  0
    4.7400    4.1200   17.4550 H   0  0  0  0  0  0  0  0  0  0  0  0
    3.1700    3.4110   19.5860 N   0  0  0  0  0  0  0  0  0  0  0  0
    2.1690    2.5180   18.9580 C   0  0  0  0  0  0  0  0  0  0  0  0
    1.1530    2.2090   20.0480 C   0  0  0  0  0  0  0  0  0  0  0  0
    1.9820    2.2780   21.3170 C   0  0  1  0  0  0  0  0  0  0  0  0
    2.8860    3.4850   21.0360 C   0  0  0  0  0  0  0  0  0  0  0  0
    1.6880    2.9360   18.0670 H   0  0  0  0  0  0  0  0  0  0  0  0
    2.6840    1.5980   18.6540 H   0  0  0  0  0  0  0  0  0  0  0  0
    0.6730    1.2340   19.9110 H   0  0  0  0  0  0  0  0  0  0  0  0
    0.3560    2.9640   20.0630 H   0  0  0  0  0  0  0  0  0  0  0  0
    2.5730    1.3620   21.4430 H   0  0  0  0  0  0  0  0  0  0  0  0
    3.8150    3.4190   21.6130 H   0  0  0  0  0  0  0  0  0  0  0  0
    2.3780    4.4120   21.3320 H   0  0  0  0  0  0  0  0  0  0  0  0
    1.1420    2.4600   22.4440 O   0  0  0  0  0  0  0  0  0  0  0  0
    0.4360    3.0810   22.1900 H   0  0  0  0  0  0  0  0  0  0  0  0
    5.1180    6.4370   16.1250 C   0  0  0  0  0  0  0  0  0  0  0  0
    6.3370    6.9560   16.4640 F   0  0  0  0  0  0  0  0  0  0  0  0
    4.5960    7.3130   15.2200 F   0  0  0  0  0  0  0  0  0  0  0  0
    5.4060    4.8770   15.3010 Cl  0  0  0  0  0  0  0  0  0  0  0  0
   -0.2810   12.1630   21.2700 C   0  0  1  0  0  0  0  0  0  0  0  0
   -0.2400   11.6070   22.2170 H   0  0  0  0  0  0  0  0  0  0  0  0
    0.3710   13.5290   21.5120 C   0  0  0  0  0  0  0  0  0  0  0  0
   -0.3140   14.3510   21.2760 H   0  0  0  0  0  0  0  0  0  0  0  0
    1.2660   13.6580   20.8920 H   0  0  0  0  0  0  0  0  0  0  0  0
    0.6770   13.6430   22.5570 H   0  0  0  0  0  0  0  0  0  0  0  0
   -1.7600   12.2880   20.8410 C   0  0  0  0  0  0  0  0  0  0  0  0
   -1.8980   13.1530   20.1800 H   0  0  0  0  0  0  0  0  0  0  0  0
   -2.0390   11.4070   20.2510 H   0  0  0  0  0  0  0  0  0  0  0  0
   -2.6900   12.4200   22.0010 C   0  0  0  0  0  0  0  0  0  0  0  0
   -2.4870   11.9840   23.2290 N   0  0  0  0  0  0  0  0  0  0  0  0
   -3.5800   12.3150   23.9920 N   0  0  0  0  0  0  0  0  0  0  0  0
   -4.4250   12.9540   23.2200 C   0  0  0  0  0  0  0  0  0  0  0  0
   -3.9100   13.0490   21.9650 N   0  0  0  0  0  0  0  0  0  0  0  0
   -5.3830   13.3530   23.5180 H   0  0  0  0  0  0  0  0  0  0  0  0
   -4.5320   13.6990   20.8440 C   0  0  0  0  0  0  0  0  0  0  0  0
   -4.1630   14.7240   20.7850 H   0  0  0  0  0  0  0  0  0  0  0  0
   -5.6160   13.7100   20.9810 H   0  0  0  0  0  0  0  0  0  0  0  0
   -4.2770   13.1450   19.9360 H   0  0  0  0  0  0  0  0  0  0  0  0
  1  6  1  0  0  0  0
  1 40  1  0  0  0  0
  2  1  2  0  0  0  0
  3  4  2  0  0  0  0
  3  2  1  0  0  0  0
  4  5  1  0  0  0  0
  5 11  1  0  0  0  0
  5  6  2  0  0  0  0
  6 10  1  0  0  0  0
  7  2  1  0  0  0  0
  8  3  1  0  0  0  0
  9  4  1  0  0  0  0
 11 12  2  0  0  0  0
 13 12  1  0  0  0  0
 13 20  1  0  0  0  0
 14 13  1  0  0  0  0
 15 14  2  0  0  0  0
 15 11  1  0  0  0  0
 16 15  1  0  0  0  0
 17 16  2  0  0  0  0
 17 18  1  0  0  0  0
 18 19  2  0  0  0  0
 19 14  1  0  0  0  0
 19 22  1  0  0  0  0
 21 18  1  0  0  0  0
 22 26  1  0  0  0  0
 23 22  1  0  0  0  0
 23 24  1  0  0  0  0
 24 30  1  0  0  0  0
 24 25  1  0  0  0  0
 25 31  1  1  0  0  0
 25 34  1  0  0  0  0
 26 25  1  0  0  0  0
 26 33  1  0  0  0  0
 26 32  1  0  0  0  0
 27 23  1  0  0  0  0
 28 23  1  0  0  0  0
 29 24  1  0  0  0  0
 35 34  1  0  0  0  0
 36 37  1  0  0  0  0
 36 17  1  0  0  0  0
 38 36  1  0  0  0  0
 39 36  1  0  0  0  0
 40 42  1  0  0  0  0
 40 41  1  1  0  0  0
 42 45  1  0  0  0  0
 43 42  1  0  0  0  0
 44 42  1  0  0  0  0
 46 40  1  0  0  0  0
 46 49  1  0  0  0  0
 47 46  1  0  0  0  0
 48 46  1  0  0  0  0
 49 50  2  0  0  0  0
 50 51  1  0  0  0  0
 52 54  1  0  0  0  0
 52 51  2  0  0  0  0
 53 49  1  0  0  0  0
 53 52  1  0  0  0  0
 55 57  1  0  0  0  0
 55 53  1  0  0  0  0
 56 55  1  0  0  0  0
 58 55  1  0  0  0  0
M  END
>  <MODEL>
21

>  <REMARK>
 VINA RESULT:    -8.326      3.435      4.671
 INTER + INTRA:         -11.463
 INTER:                 -11.183
 INTRA:                  -0.281
 UNBOUND:                 0.514
  Name = 
  9 active torsions:
  status: ('A' for Active; 'I' for Inactive)
    1  A    between atoms: C_1  and  C_2
    2  A    between atoms: C_2  and  C_3
    3  A    between atoms: C_2  and  C_10
    4  A    between atoms: C_3  and  C_4
    5  A    between atoms: N_8  and  C_9
    6  A    between atoms: C_14  and  C_16
    7  A    between atoms: C_22  and  C_31
    8  A    between atoms: C_24  and  N_25
    9  A    between atoms: C_28  and  O_30
                            x       y       z     vdW  Elec       q    Type
                         _______ _______ _______ _____ _____    ______ ____

>  <TORSDO>
F 9

$$$$
=
 OpenBabel07192307433D

 58 62  0  0  1  0  0  0  0  0999 V2000
    0.5870   10.8020   19.3610 C   0  0  0  0  0  0  0  0  0  0  0  0
   -0.5690   10.6950   18.5780 C   0  0  0  0  0  0  0  0  0  0  0  0
   -0.6830    9.6860   17.6230 C   0  0  0  0  0  0  0  0  0  0  0  0
    0.3560    8.7730   17.4410 C   0  0  0  0  0  0  0  0  0  0  0  0
    1.5260    8.8460   18.2150 C   0  0  0  0  0  0  0  0  0  0  0  0
    1.6230    9.8680   19.1720 C   0  0  0  0  0  0  0  0  0  0  0  0
   -1.3910   11.3960   18.7050 H   0  0  0  0  0  0  0  0  0  0  0  0
   -1.5820    9.6080   17.0170 H   0  0  0  0  0  0  0  0  0  0  0  0
    0.2480    7.9940   16.6890 H   0  0  0  0  0  0  0  0  0  0  0  0
    2.5190    9.9540   19.7820 H   0  0  0  0  0  0  0  0  0  0  0  0
    2.6120    7.8760   18.0060 C   0  0  0  0  0  0  0  0  0  0  0  0
    3.7120    8.2120   17.2970 N   0  0  0  0  0  0  0  0  0  0  0  0
    4.4690    7.1020   17.3160 N   0  0  0  0  0  0  0  0  0  0  0  0
    3.9280    6.0570   18.0020 C   0  0  0  0  0  0  0  0  0  0  0  0
    2.7120    6.5210   18.4670 C   0  0  0  0  0  0  0  0  0  0  0  0
    1.8730    5.7480   19.2010 N   0  0  0  0  0  0  0  0  0  0  0  0
    2.2990    4.4800   19.4440 C   0  0  0  0  0  0  0  0  0  0  0  0
    3.5270    3.9750   18.9920 C   0  0  0  0  0  0  0  0  0  0  0  0
    4.3980    4.7690   18.2400 C   0  0  0  0  0  0  0  0  0  0  0  0
    5.3600    7.1070   16.8350 H   0  0  0  0  0  0  0  0  0  0  0  0
    3.8070    2.9510   19.2320 H   0  0  0  0  0  0  0  0  0  0  0  0
    5.6330    4.3590   17.7530 N   0  0  0  0  0  0  0  0  0  0  0  0
    6.8010    5.0380   18.3610 C   0  0  0  0  0  0  0  0  0  0  0  0
    7.5330    5.7080   17.2070 C   0  0  0  0  0  0  0  0  0  0  0  0
    7.2290    4.7940   16.0340 C   0  0  1  0  0  0  0  0  0  0  0  0
    5.7560    4.4460   16.2820 C   0  0  0  0  0  0  0  0  0  0  0  0
    6.5450    5.7590   19.1450 H   0  0  0  0  0  0  0  0  0  0  0  0
    7.4390    4.2690   18.8130 H   0  0  0  0  0  0  0  0  0  0  0  0
    8.6070    5.8100   17.3930 H   0  0  0  0  0  0  0  0  0  0  0  0
    7.1370    6.7160   17.0260 H   0  0  0  0  0  0  0  0  0  0  0  0
    7.8590    3.8970   16.0690 H   0  0  0  0  0  0  0  0  0  0  0  0
    5.4990    3.4860   15.8170 H   0  0  0  0  0  0  0  0  0  0  0  0
    5.1070    5.2120   15.8370 H   0  0  0  0  0  0  0  0  0  0  0  0
    7.4430    5.4770   14.8100 O   0  0  0  0  0  0  0  0  0  0  0  0
    7.7430    4.8230   14.1540 H   0  0  0  0  0  0  0  0  0  0  0  0
    1.4020    3.5770   20.2860 C   0  0  0  0  0  0  0  0  0  0  0  0
    1.2200    2.3420   19.7280 F   0  0  0  0  0  0  0  0  0  0  0  0
    0.1460    4.0780   20.4640 F   0  0  0  0  0  0  0  0  0  0  0  0
    2.1490    3.3380   21.8930 Cl  0  0  0  0  0  0  0  0  0  0  0  0
    0.7080   11.9270   20.3820 C   0  0  1  0  0  0  0  0  0  0  0  0
    0.8480   11.4720   21.3720 H   0  0  0  0  0  0  0  0  0  0  0  0
    1.9480   12.7800   20.0900 C   0  0  0  0  0  0  0  0  0  0  0  0
    2.6590   12.2500   19.4450 H   0  0  0  0  0  0  0  0  0  0  0  0
    2.4750   13.0440   21.0140 H   0  0  0  0  0  0  0  0  0  0  0  0
    1.6780   13.7140   19.5880 H   0  0  0  0  0  0  0  0  0  0  0  0
   -0.5880   12.7690   20.4110 C   0  0  0  0  0  0  0  0  0  0  0  0
   -0.5950   13.4940   19.5880 H   0  0  0  0  0  0  0  0  0  0  0  0
   -1.4490   12.1100   20.2440 H   0  0  0  0  0  0  0  0  0  0  0  0
   -0.7720   13.5050   21.6970 C   0  0  0  0  0  0  0  0  0  0  0  0
   -0.4930   14.7730   21.9260 N   0  0  0  0  0  0  0  0  0  0  0  0
   -0.8170   15.0580   23.2300 N   0  0  0  0  0  0  0  0  0  0  0  0
   -1.2950   13.9630   23.7700 C   0  0  0  0  0  0  0  0  0  0  0  0
   -1.2930   12.9650   22.8460 N   0  0  0  0  0  0  0  0  0  0  0  0
   -1.6470   13.8540   24.7850 H   0  0  0  0  0  0  0  0  0  0  0  0
   -1.7610   11.6220   23.0540 C   0  0  0  0  0  0  0  0  0  0  0  0
   -2.6230   11.4480   22.4060 H   0  0  0  0  0  0  0  0  0  0  0  0
   -2.0590   11.4940   24.0970 H   0  0  0  0  0  0  0  0  0  0  0  0
   -0.9520   10.9290   22.8100 H   0  0  0  0  0  0  0  0  0  0  0  0
  1 40  1  0  0  0  0
  2  7  1  0  0  0  0
  2  1  2  0  0  0  0
  3  2  1  0  0  0  0
  4  3  2  0  0  0  0
  4  5  1  0  0  0  0
  5  6  2  0  0  0  0
  6  1  1  0  0  0  0
  6 10  1  0  0  0  0
  8  3  1  0  0  0  0
  9  4  1  0  0  0  0
 11  5  1  0  0  0  0
 11 15  1  0  0  0  0
 12 13  1  0  0  0  0
 12 11  2  0  0  0  0
 13 14  1  0  0  0  0
 14 19  2  0  0  0  0
 14 15  1  0  0  0  0
 15 16  2  0  0  0  0
 16 17  1  0  0  0  0
 17 36  1  0  0  0  0
 18 21  1  0  0  0  0
 18 17  2  0  0  0  0
 19 18  1  0  0  0  0
 20 13  1  0  0  0  0
 22 19  1  0  0  0  0
 22 23  1  0  0  0  0
 23 28  1  0  0  0  0
 23 27  1  0  0  0  0
 24 29  1  0  0  0  0
 24 23  1  0  0  0  0
 25 31  1  1  0  0  0
 25 26  1  0  0  0  0
 25 24  1  0  0  0  0
 26 22  1  0  0  0  0
 30 24  1  0  0  0  0
 32 26  1  0  0  0  0
 33 26  1  0  0  0  0
 34 25  1  0  0  0  0
 35 34  1  0  0  0  0
 36 38  1  0  0  0  0
 36 39  1  0  0  0  0
 37 36  1  0  0  0  0
 40 46  1  0  0  0  0
 40 41  1  1  0  0  0
 42 40  1  0  0  0  0
 42 44  1  0  0  0  0
 43 42  1  0  0  0  0
 45 42  1  0  0  0  0
 46 49  1  0  0  0  0
 47 46  1  0  0  0  0
 48 46  1  0  0  0  0
 49 50  2  0  0  0  0
 49 53  1  0  0  0  0
 50 51  1  0  0  0  0
 51 52  2  0  0  0  0
 52 54  1  0  0  0  0
 53 55  1  0  0  0  0
 53 52  1  0  0  0  0
 55 57  1  0  0  0  0
 56 55  1  0  0  0  0
 58 55  1  0  0  0  0
M  END
>  <MODEL>
22

>  <REMARK>
 VINA RESULT:    -8.311      2.438      3.496
 INTER + INTRA:         -11.441
 INTER:                 -10.692
 INTRA:                  -0.749
 UNBOUND:                 0.514
  Name = 
  9 active torsions:
  status: ('A' for Active; 'I' for Inactive)
    1  A    between atoms: C_1  and  C_2
    2  A    between atoms: C_2  and  C_3
    3  A    between atoms: C_2  and  C_10
    4  A    between atoms: C_3  and  C_4
    5  A    between atoms: N_8  and  C_9
    6  A    between atoms: C_14  and  C_16
    7  A    between atoms: C_22  and  C_31
    8  A    between atoms: C_24  and  N_25
    9  A    between atoms: C_28  and  O_30
                            x       y       z     vdW  Elec       q    Type
                         _______ _______ _______ _____ _____    ______ ____

>  <TORSDO>
F 9

$$$$
=
 OpenBabel07192307433D

 58 62  0  0  1  0  0  0  0  0999 V2000
    0.2760   11.4390   19.5610 C   0  0  0  0  0  0  0  0  0  0  0  0
    1.0280   12.0950   18.5790 C   0  0  0  0  0  0  0  0  0  0  0  0
    2.0540   11.4280   17.9120 C   0  0  0  0  0  0  0  0  0  0  0  0
    2.3390   10.0970   18.2180 C   0  0  0  0  0  0  0  0  0  0  0  0
    1.6000    9.4050   19.1910 C   0  0  0  0  0  0  0  0  0  0  0  0
    0.5700   10.0930   19.8530 C   0  0  0  0  0  0  0  0  0  0  0  0
    0.8210   13.1320   18.3250 H   0  0  0  0  0  0  0  0  0  0  0  0
    2.6350   11.9430   17.1510 H   0  0  0  0  0  0  0  0  0  0  0  0
    3.1450    9.5950   17.6870 H   0  0  0  0  0  0  0  0  0  0  0  0
   -0.0160    9.5860   20.6160 H   0  0  0  0  0  0  0  0  0  0  0  0
    1.9170    8.0030   19.5020 C   0  0  0  0  0  0  0  0  0  0  0  0
    1.3570    7.3870   20.5650 N   0  0  0  0  0  0  0  0  0  0  0  0
    1.8680    6.1440   20.5360 N   0  0  0  0  0  0  0  0  0  0  0  0
    2.7300    5.9110   19.5090 C   0  0  0  0  0  0  0  0  0  0  0  0
    2.7930    7.1020   18.8100 C   0  0  0  0  0  0  0  0  0  0  0  0
    3.5670    7.2570   17.7070 N   0  0  0  0  0  0  0  0  0  0  0  0
    4.2900    6.1670   17.3340 C   0  0  0  0  0  0  0  0  0  0  0  0
    4.2500    4.9410   18.0160 C   0  0  0  0  0  0  0  0  0  0  0  0
    3.4490    4.7740   19.1490 C   0  0  0  0  0  0  0  0  0  0  0  0
    1.5950    5.4840   21.2530 H   0  0  0  0  0  0  0  0  0  0  0  0
    4.8490    4.1080   17.6540 H   0  0  0  0  0  0  0  0  0  0  0  0
    3.3420    3.6000   19.8850 N   0  0  0  0  0  0  0  0  0  0  0  0
    2.6580    2.4860   19.1890 C   0  0  0  0  0  0  0  0  0  0  0  0
    1.4640    2.1270   20.0610 C   0  0  0  0  0  0  0  0  0  0  0  0
    1.9460    2.4740   21.4580 C   0  0  1  0  0  0  0  0  0  0  0  0
    2.7100    3.7790   21.2110 C   0  0  0  0  0  0  0  0  0  0  0  0
    2.3500    2.7170   18.1630 H   0  0  0  0  0  0  0  0  0  0  0  0
    3.3550    1.6410   19.1420 H   0  0  0  0  0  0  0  0  0  0  0  0
    1.1740    1.0760   19.9640 H   0  0  0  0  0  0  0  0  0  0  0  0
    0.5880    2.7320   19.7910 H   0  0  0  0  0  0  0  0  0  0  0  0
    2.6120    1.6910   21.8420 H   0  0  0  0  0  0  0  0  0  0  0  0
    3.4740    3.9370   21.9820 H   0  0  0  0  0  0  0  0  0  0  0  0
    2.0210    4.6330   21.2510 H   0  0  0  0  0  0  0  0  0  0  0  0
    0.8420    2.6300   22.3340 O   0  0  0  0  0  0  0  0  0  0  0  0
    0.0490    2.7750   21.7880 H   0  0  0  0  0  0  0  0  0  0  0  0
    5.1580    6.2810   16.0850 C   0  0  0  0  0  0  0  0  0  0  0  0
    6.4320    6.6940   16.3620 F   0  0  0  0  0  0  0  0  0  0  0  0
    4.6810    7.1800   15.1770 F   0  0  0  0  0  0  0  0  0  0  0  0
    5.2690    4.6820   15.2940 Cl  0  0  0  0  0  0  0  0  0  0  0  0
   -0.8240   12.1900   20.3010 C   0  0  1  0  0  0  0  0  0  0  0  0
   -0.6420   13.2660   20.1760 H   0  0  0  0  0  0  0  0  0  0  0  0
   -2.1900   11.8810   19.6770 C   0  0  0  0  0  0  0  0  0  0  0  0
   -3.0110   12.1290   20.3610 H   0  0  0  0  0  0  0  0  0  0  0  0
   -2.2810   10.8180   19.4260 H   0  0  0  0  0  0  0  0  0  0  0  0
   -2.3440   12.4510   18.7550 H   0  0  0  0  0  0  0  0  0  0  0  0
   -0.7810   11.8590   21.8090 C   0  0  0  0  0  0  0  0  0  0  0  0
   -1.4920   11.0590   22.0490 H   0  0  0  0  0  0  0  0  0  0  0  0
    0.2120   11.4700   22.0640 H   0  0  0  0  0  0  0  0  0  0  0  0
   -1.0830   13.0410   22.6710 C   0  0  0  0  0  0  0  0  0  0  0  0
   -0.3610   14.1380   22.7860 N   0  0  0  0  0  0  0  0  0  0  0  0
   -0.9910   14.9800   23.6700 N   0  0  0  0  0  0  0  0  0  0  0  0
   -2.0890   14.3850   24.0710 C   0  0  0  0  0  0  0  0  0  0  0  0
   -2.1920   13.1710   23.4680 N   0  0  0  0  0  0  0  0  0  0  0  0
   -2.8110   14.7850   24.7670 H   0  0  0  0  0  0  0  0  0  0  0  0
   -3.2690   12.2330   23.6380 C   0  0  0  0  0  0  0  0  0  0  0  0
   -3.3520   11.6280   22.7340 H   0  0  0  0  0  0  0  0  0  0  0  0
   -4.2040   12.7740   23.8010 H   0  0  0  0  0  0  0  0  0  0  0  0
   -3.0470   11.6020   24.5030 H   0  0  0  0  0  0  0  0  0  0  0  0
  1  6  1  0  0  0  0
  1 40  1  0  0  0  0
  2  1  2  0  0  0  0
  3  4  2  0  0  0  0
  3  2  1  0  0  0  0
  4  5  1  0  0  0  0
  5 11  1  0  0  0  0
  5  6  2  0  0  0  0
  6 10  1  0  0  0  0
  7  2  1  0  0  0  0
  8  3  1  0  0  0  0
  9  4  1  0  0  0  0
 11 12  2  0  0  0  0
 13 12  1  0  0  0  0
 13 20  1  0  0  0  0
 14 13  1  0  0  0  0
 15 11  1  0  0  0  0
 15 14  2  0  0  0  0
 16 15  1  0  0  0  0
 17 16  2  0  0  0  0
 17 18  1  0  0  0  0
 18 19  2  0  0  0  0
 19 14  1  0  0  0  0
 19 22  1  0  0  0  0
 21 18  1  0  0  0  0
 22 26  1  0  0  0  0
 23 22  1  0  0  0  0
 23 24  1  0  0  0  0
 24 25  1  0  0  0  0
 25 31  1  1  0  0  0
 25 34  1  0  0  0  0
 26 33  1  0  0  0  0
 26 25  1  0  0  0  0
 26 32  1  0  0  0  0
 27 23  1  0  0  0  0
 28 23  1  0  0  0  0
 29 24  1  0  0  0  0
 30 24  1  0  0  0  0
 35 34  1  0  0  0  0
 36 37  1  0  0  0  0
 36 17  1  0  0  0  0
 38 36  1  0  0  0  0
 39 36  1  0  0  0  0
 40 41  1  6  0  0  0
 40 46  1  0  0  0  0
 42 40  1  0  0  0  0
 42 43  1  0  0  0  0
 44 42  1  0  0  0  0
 45 42  1  0  0  0  0
 46 47  1  0  0  0  0
 46 48  1  0  0  0  0
 46 49  1  0  0  0  0
 49 50  2  0  0  0  0
 49 53  1  0  0  0  0
 50 51  1  0  0  0  0
 51 52  2  0  0  0  0
 52 54  1  0  0  0  0
 53 55  1  0  0  0  0
 53 52  1  0  0  0  0
 55 57  1  0  0  0  0
 55 58  1  0  0  0  0
 56 55  1  0  0  0  0
M  END
>  <MODEL>
23

>  <REMARK>
 VINA RESULT:    -8.188      3.560      5.040
 INTER + INTRA:         -11.265
 INTER:                 -11.210
 INTRA:                  -0.055
 UNBOUND:                 0.514
  Name = 
  9 active torsions:
  status: ('A' for Active; 'I' for Inactive)
    1  A    between atoms: C_1  and  C_2
    2  A    between atoms: C_2  and  C_3
    3  A    between atoms: C_2  and  C_10
    4  A    between atoms: C_3  and  C_4
    5  A    between atoms: N_8  and  C_9
    6  A    between atoms: C_14  and  C_16
    7  A    between atoms: C_22  and  C_31
    8  A    between atoms: C_24  and  N_25
    9  A    between atoms: C_28  and  O_30
                            x       y       z     vdW  Elec       q    Type
                         _______ _______ _______ _____ _____    ______ ____

>  <TORSDO>
F 9

$$$$
=
 OpenBabel07192307433D

 58 62  0  0  1  0  0  0  0  0999 V2000
    0.4520   12.1990   19.5550 C   0  0  0  0  0  0  0  0  0  0  0  0
    1.2920   12.7920   18.6040 C   0  0  0  0  0  0  0  0  0  0  0  0
    2.2550   12.0330   17.9410 C   0  0  0  0  0  0  0  0  0  0  0  0
    2.3870   10.6720   18.2210 C   0  0  0  0  0  0  0  0  0  0  0  0
    1.5560   10.0430   19.1620 C   0  0  0  0  0  0  0  0  0  0  0  0
    0.5920   10.8230   19.8190 C   0  0  0  0  0  0  0  0  0  0  0  0
    1.2040   13.8510   18.3710 H   0  0  0  0  0  0  0  0  0  0  0  0
    2.9040   12.4980   17.2050 H   0  0  0  0  0  0  0  0  0  0  0  0
    3.1460   10.0970   17.6940 H   0  0  0  0  0  0  0  0  0  0  0  0
   -0.0620   10.3670   20.5580 H   0  0  0  0  0  0  0  0  0  0  0  0
    1.7140    8.6090   19.4460 C   0  0  0  0  0  0  0  0  0  0  0  0
    1.0210    8.0210   20.4450 N   0  0  0  0  0  0  0  0  0  0  0  0
    1.4110    6.7350   20.4070 N   0  0  0  0  0  0  0  0  0  0  0  0
    2.3190    6.4460   19.4350 C   0  0  0  0  0  0  0  0  0  0  0  0
    2.5460    7.6450   18.7850 C   0  0  0  0  0  0  0  0  0  0  0  0
    3.4100    7.7530   17.7440 N   0  0  0  0  0  0  0  0  0  0  0  0
    4.0500    6.6080   17.3850 C   0  0  0  0  0  0  0  0  0  0  0  0
    3.8420    5.3740   18.0190 C   0  0  0  0  0  0  0  0  0  0  0  0
    2.9490    5.2550   19.0870 C   0  0  0  0  0  0  0  0  0  0  0  0
    1.0240    6.0850   21.0800 H   0  0  0  0  0  0  0  0  0  0  0  0
    4.3830    4.4960   17.6710 H   0  0  0  0  0  0  0  0  0  0  0  0
    2.6760    4.0770   19.7720 N   0  0  0  0  0  0  0  0  0  0  0  0
    3.6770    3.0010   19.5880 C   0  0  0  0  0  0  0  0  0  0  0  0
    2.9120    1.8240   18.9990 C   0  0  0  0  0  0  0  0  0  0  0  0
    1.5190    1.9990   19.5770 C   0  0  1  0  0  0  0  0  0  0  0  0
    1.3340    3.5190   19.4940 C   0  0  0  0  0  0  0  0  0  0  0  0
    4.5290    3.2810   18.9590 H   0  0  0  0  0  0  0  0  0  0  0  0
    4.0700    2.7350   20.5770 H   0  0  0  0  0  0  0  0  0  0  0  0
    3.3580    0.8600   19.2610 H   0  0  0  0  0  0  0  0  0  0  0  0
    2.8880    1.8840   17.9030 H   0  0  0  0  0  0  0  0  0  0  0  0
    1.4860    1.6530   20.6170 H   0  0  0  0  0  0  0  0  0  0  0  0
    0.6110    3.8660   20.2420 H   0  0  0  0  0  0  0  0  0  0  0  0
    0.9460    3.7980   18.5060 H   0  0  0  0  0  0  0  0  0  0  0  0
    0.5730    1.2780   18.8060 O   0  0  0  0  0  0  0  0  0  0  0  0
    0.4060    0.4320   19.2580 H   0  0  0  0  0  0  0  0  0  0  0  0
    5.0140    6.6710   16.2040 C   0  0  0  0  0  0  0  0  0  0  0  0
    6.2010    7.2720   16.5220 F   0  0  0  0  0  0  0  0  0  0  0  0
    4.5260    7.3810   15.1460 F   0  0  0  0  0  0  0  0  0  0  0  0
    5.3800    5.0110   15.6520 Cl  0  0  0  0  0  0  0  0  0  0  0  0
   -0.5770   13.0490   20.2900 C   0  0  1  0  0  0  0  0  0  0  0  0
   -0.2390   13.1680   21.3290 H   0  0  0  0  0  0  0  0  0  0  0  0
   -0.6510   14.4500   19.6700 C   0  0  0  0  0  0  0  0  0  0  0  0
   -1.6800   14.7200   19.4060 H   0  0  0  0  0  0  0  0  0  0  0  0
   -0.0490   14.5110   18.7560 H   0  0  0  0  0  0  0  0  0  0  0  0
   -0.2760   15.2100   20.3620 H   0  0  0  0  0  0  0  0  0  0  0  0
   -1.9500   12.3410   20.3020 C   0  0  0  0  0  0  0  0  0  0  0  0
   -2.5720   12.6920   19.4690 H   0  0  0  0  0  0  0  0  0  0  0  0
   -1.8020   11.2660   20.1390 H   0  0  0  0  0  0  0  0  0  0  0  0
   -2.6980   12.5480   21.5770 C   0  0  0  0  0  0  0  0  0  0  0  0
   -3.7810   13.2830   21.7450 N   0  0  0  0  0  0  0  0  0  0  0  0
   -4.1590   13.2010   23.0630 N   0  0  0  0  0  0  0  0  0  0  0  0
   -3.3070   12.4120   23.6730 C   0  0  0  0  0  0  0  0  0  0  0  0
   -2.3770   11.9740   22.7820 N   0  0  0  0  0  0  0  0  0  0  0  0
   -3.3280   12.1380   24.7170 H   0  0  0  0  0  0  0  0  0  0  0  0
   -1.2920   11.0760   23.0670 C   0  0  0  0  0  0  0  0  0  0  0  0
   -0.3760   11.6590   23.1810 H   0  0  0  0  0  0  0  0  0  0  0  0
   -1.1730   10.3700   22.2420 H   0  0  0  0  0  0  0  0  0  0  0  0
   -1.5210   10.5360   23.9900 H   0  0  0  0  0  0  0  0  0  0  0  0
  1  6  1  0  0  0  0
  1 40  1  0  0  0  0
  2  1  2  0  0  0  0
  3  4  2  0  0  0  0
  3  2  1  0  0  0  0
  4  5  1  0  0  0  0
  5 11  1  0  0  0  0
  5  6  2  0  0  0  0
  6 10  1  0  0  0  0
  7  2  1  0  0  0  0
  8  3  1  0  0  0  0
  9  4  1  0  0  0  0
 11 12  2  0  0  0  0
 13 12  1  0  0  0  0
 13 20  1  0  0  0  0
 14 13  1  0  0  0  0
 15 14  2  0  0  0  0
 15 11  1  0  0  0  0
 16 15  1  0  0  0  0
 17 16  2  0  0  0  0
 17 18  1  0  0  0  0
 18 19  2  0  0  0  0
 19 14  1  0  0  0  0
 19 22  1  0  0  0  0
 21 18  1  0  0  0  0
 23 22  1  0  0  0  0
 23 28  1  0  0  0  0
 24 29  1  0  0  0  0
 24 25  1  0  0  0  0
 24 23  1  0  0  0  0
 25 31  1  1  0  0  0
 26 25  1  0  0  0  0
 26 22  1  0  0  0  0
 26 32  1  0  0  0  0
 27 23  1  0  0  0  0
 30 24  1  0  0  0  0
 33 26  1  0  0  0  0
 34 35  1  0  0  0  0
 34 25  1  0  0  0  0
 36 37  1  0  0  0  0
 36 17  1  0  0  0  0
 38 36  1  0  0  0  0
 39 36  1  0  0  0  0
 40 46  1  0  0  0  0
 40 41  1  1  0  0  0
 42 40  1  0  0  0  0
 42 45  1  0  0  0  0
 43 42  1  0  0  0  0
 44 42  1  0  0  0  0
 46 49  1  0  0  0  0
 47 46  1  0  0  0  0
 48 46  1  0  0  0  0
 49 50  2  0  0  0  0
 49 53  1  0  0  0  0
 50 51  1  0  0  0  0
 51 52  2  0  0  0  0
 52 54  1  0  0  0  0
 53 55  1  0  0  0  0
 53 52  1  0  0  0  0
 55 56  1  0  0  0  0
 55 58  1  0  0  0  0
 57 55  1  0  0  0  0
M  END
>  <MODEL>
24

>  <REMARK>
 VINA RESULT:    -8.116      3.351      4.569
 INTER + INTRA:         -11.161
 INTER:                 -10.304
 INTRA:                  -0.857
 UNBOUND:                 0.514
  Name = 
  9 active torsions:
  status: ('A' for Active; 'I' for Inactive)
    1  A    between atoms: C_1  and  C_2
    2  A    between atoms: C_2  and  C_3
    3  A    between atoms: C_2  and  C_10
    4  A    between atoms: C_3  and  C_4
    5  A    between atoms: N_8  and  C_9
    6  A    between atoms: C_14  and  C_16
    7  A    between atoms: C_22  and  C_31
    8  A    between atoms: C_24  and  N_25
    9  A    between atoms: C_28  and  O_30
                            x       y       z     vdW  Elec       q    Type
                         _______ _______ _______ _____ _____    ______ ____

>  <TORSDO>
F 9

$$$$
=
 OpenBabel07192307433D

 58 62  0  0  1  0  0  0  0  0999 V2000
    2.5890    6.7460   19.6020 C   0  0  0  0  0  0  0  0  0  0  0  0
    3.0440    6.9170   18.2890 C   0  0  0  0  0  0  0  0  0  0  0  0
    2.6940    8.0550   17.5630 C   0  0  0  0  0  0  0  0  0  0  0  0
    1.8850    9.0330   18.1430 C   0  0  0  0  0  0  0  0  0  0  0  0
    1.4180    8.8970   19.4600 C   0  0  0  0  0  0  0  0  0  0  0  0
    1.7810    7.7460   20.1760 C   0  0  0  0  0  0  0  0  0  0  0  0
    3.6770    6.1670   17.8200 H   0  0  0  0  0  0  0  0  0  0  0  0
    3.0500    8.1820   16.5450 H   0  0  0  0  0  0  0  0  0  0  0  0
    1.6210    9.9130   17.5590 H   0  0  0  0  0  0  0  0  0  0  0  0
    1.4300    7.6090   21.1950 H   0  0  0  0  0  0  0  0  0  0  0  0
    0.5630    9.9380   20.0520 C   0  0  0  0  0  0  0  0  0  0  0  0
   -0.5230    9.6070   20.7830 N   0  0  0  0  0  0  0  0  0  0  0  0
   -1.0460   10.7890   21.1530 N   0  0  0  0  0  0  0  0  0  0  0  0
   -0.3590   11.8770   20.7080 C   0  0  0  0  0  0  0  0  0  0  0  0
    0.6990   11.3640   19.9810 C   0  0  0  0  0  0  0  0  0  0  0  0
    1.6130   12.1600   19.3700 N   0  0  0  0  0  0  0  0  0  0  0  0
    1.4180   13.4990   19.5090 C   0  0  0  0  0  0  0  0  0  0  0  0
    0.3590   14.0550   20.2410 C   0  0  0  0  0  0  0  0  0  0  0  0
   -0.5820   13.2400   20.8770 C   0  0  0  0  0  0  0  0  0  0  0  0
   -1.8870   10.7990   21.7160 H   0  0  0  0  0  0  0  0  0  0  0  0
    0.2700   15.1370   20.3170 H   0  0  0  0  0  0  0  0  0  0  0  0
   -1.6600   13.6990   21.6250 N   0  0  0  0  0  0  0  0  0  0  0  0
   -1.6470   13.2970   23.0510 C   0  0  0  0  0  0  0  0  0  0  0  0
   -2.9350   12.5150   23.2690 C   0  0  0  0  0  0  0  0  0  0  0  0
   -3.8890   13.1440   22.2700 C   0  0  1  0  0  0  0  0  0  0  0  0
   -2.9790   13.3500   21.0530 C   0  0  0  0  0  0  0  0  0  0  0  0
   -0.7690   12.7130   23.3460 H   0  0  0  0  0  0  0  0  0  0  0  0
   -1.6570   14.2110   23.6580 H   0  0  0  0  0  0  0  0  0  0  0  0
   -3.2980   12.5830   24.2990 H   0  0  0  0  0  0  0  0  0  0  0  0
   -2.7860   11.4500   23.0460 H   0  0  0  0  0  0  0  0  0  0  0  0
   -4.2670   14.1020   22.6480 H   0  0  0  0  0  0  0  0  0  0  0  0
   -3.3510   14.1640   20.4200 H   0  0  0  0  0  0  0  0  0  0  0  0
   -2.9570   12.4390   20.4400 H   0  0  0  0  0  0  0  0  0  0  0  0
   -4.9770   12.2720   22.0130 O   0  0  0  0  0  0  0  0  0  0  0  0
   -5.2200   12.3710   21.0750 H   0  0  0  0  0  0  0  0  0  0  0  0
    2.4320   14.4370   18.8620 C   0  0  0  0  0  0  0  0  0  0  0  0
    3.0380   15.2660   19.7650 F   0  0  0  0  0  0  0  0  0  0  0  0
    1.8820   15.2650   17.9280 F   0  0  0  0  0  0  0  0  0  0  0  0
    3.7130   13.4690   18.0750 Cl  0  0  0  0  0  0  0  0  0  0  0  0
    2.9590    5.4840   20.3730 C   0  0  1  0  0  0  0  0  0  0  0  0
    3.3470    5.7880   21.3540 H   0  0  0  0  0  0  0  0  0  0  0  0
    1.7120    4.6260   20.6180 C   0  0  0  0  0  0  0  0  0  0  0  0
    1.8970    3.5700   20.3880 H   0  0  0  0  0  0  0  0  0  0  0  0
    0.8740    4.9570   19.9940 H   0  0  0  0  0  0  0  0  0  0  0  0
    1.3880    4.6860   21.6620 H   0  0  0  0  0  0  0  0  0  0  0  0
    4.0680    4.7060   19.6300 C   0  0  0  0  0  0  0  0  0  0  0  0
    4.5590    5.3480   18.8870 H   0  0  0  0  0  0  0  0  0  0  0  0
    4.8480    4.4180   20.3450 H   0  0  0  0  0  0  0  0  0  0  0  0
    3.5560    3.4850   18.9400 C   0  0  0  0  0  0  0  0  0  0  0  0
    2.7500    3.4480   17.8970 N   0  0  0  0  0  0  0  0  0  0  0  0
    2.5300    2.1330   17.5660 N   0  0  0  0  0  0  0  0  0  0  0  0
    3.2120    1.3920   18.4060 C   0  0  0  0  0  0  0  0  0  0  0  0
    3.8750    2.1940   19.2820 N   0  0  0  0  0  0  0  0  0  0  0  0
    3.2550    0.3130   18.4140 H   0  0  0  0  0  0  0  0  0  0  0  0
    4.7450    1.7530   20.3380 C   0  0  0  0  0  0  0  0  0  0  0  0
    5.5450    1.1520   19.9040 H   0  0  0  0  0  0  0  0  0  0  0  0
    4.1790    1.1480   21.0500 H   0  0  0  0  0  0  0  0  0  0  0  0
    5.1550    2.6330   20.8410 H   0  0  0  0  0  0  0  0  0  0  0  0
  1  6  1  0  0  0  0
  1 40  1  0  0  0  0
  2  1  2  0  0  0  0
  3  4  2  0  0  0  0
  3  2  1  0  0  0  0
  4  5  1  0  0  0  0
  5 11  1  0  0  0  0
  5  6  2  0  0  0  0
  6 10  1  0  0  0  0
  7  2  1  0  0  0  0
  8  3  1  0  0  0  0
  9  4  1  0  0  0  0
 11 12  2  0  0  0  0
 12 13  1  0  0  0  0
 13 20  1  0  0  0  0
 14 19  1  0  0  0  0
 14 13  1  0  0  0  0
 15 11  1  0  0  0  0
 15 14  2  0  0  0  0
 16 17  2  0  0  0  0
 16 15  1  0  0  0  0
 17 18  1  0  0  0  0
 18 21  1  0  0  0  0
 18 19  2  0  0  0  0
 19 22  1  0  0  0  0
 22 23  1  0  0  0  0
 23 24  1  0  0  0  0
 23 27  1  0  0  0  0
 23 28  1  0  0  0  0
 24 29  1  0  0  0  0
 25 31  1  1  0  0  0
 25 24  1  0  0  0  0
 26 22  1  0  0  0  0
 26 25  1  0  0  0  0
 30 24  1  0  0  0  0
 32 26  1  0  0  0  0
 33 26  1  0  0  0  0
 34 25  1  0  0  0  0
 35 34  1  0  0  0  0
 36 17  1  0  0  0  0
 36 37  1  0  0  0  0
 38 36  1  0  0  0  0
 39 36  1  0  0  0  0
 40 42  1  0  0  0  0
 40 41  1  1  0  0  0
 42 45  1  0  0  0  0
 43 42  1  0  0  0  0
 44 42  1  0  0  0  0
 46 48  1  0  0  0  0
 46 40  1  0  0  0  0
 47 46  1  0  0  0  0
 49 53  1  0  0  0  0
 49 46  1  0  0  0  0
 50 49  2  0  0  0  0
 51 50  1  0  0  0  0
 51 52  2  0  0  0  0
 52 54  1  0  0  0  0
 52 53  1  0  0  0  0
 53 55  1  0  0  0  0
 55 58  1  0  0  0  0
 55 57  1  0  0  0  0
 56 55  1  0  0  0  0
M  END
>  <MODEL>
25

>  <REMARK>
 VINA RESULT:    -8.071      5.244      9.770
 INTER + INTRA:         -11.097
 INTER:                 -10.726
 INTRA:                  -0.371
 UNBOUND:                 0.514
  Name = 
  9 active torsions:
  status: ('A' for Active; 'I' for Inactive)
    1  A    between atoms: C_1  and  C_2
    2  A    between atoms: C_2  and  C_3
    3  A    between atoms: C_2  and  C_10
    4  A    between atoms: C_3  and  C_4
    5  A    between atoms: N_8  and  C_9
    6  A    between atoms: C_14  and  C_16
    7  A    between atoms: C_22  and  C_31
    8  A    between atoms: C_24  and  N_25
    9  A    between atoms: C_28  and  O_30
                            x       y       z     vdW  Elec       q    Type
                         _______ _______ _______ _____ _____    ______ ____

>  <TORSDO>
F 9

$$$$
=
 OpenBabel07192307433D

 58 62  0  0  1  0  0  0  0  0999 V2000
    2.6050    6.6710   18.9190 C   0  0  0  0  0  0  0  0  0  0  0  0
    2.3060    5.7890   19.9650 C   0  0  0  0  0  0  0  0  0  0  0  0
    1.5370    6.2120   21.0470 C   0  0  0  0  0  0  0  0  0  0  0  0
    1.0590    7.5230   21.0970 C   0  0  0  0  0  0  0  0  0  0  0  0
    1.3340    8.4310   20.0620 C   0  0  0  0  0  0  0  0  0  0  0  0
    2.1090    7.9870   18.9790 C   0  0  0  0  0  0  0  0  0  0  0  0
    2.6670    4.7630   19.9440 H   0  0  0  0  0  0  0  0  0  0  0  0
    1.3080    5.5240   21.8560 H   0  0  0  0  0  0  0  0  0  0  0  0
    0.4630    7.8340   21.9520 H   0  0  0  0  0  0  0  0  0  0  0  0
    2.3430    8.6690   18.1660 H   0  0  0  0  0  0  0  0  0  0  0  0
    0.8240    9.8090   20.1340 C   0  0  0  0  0  0  0  0  0  0  0  0
    1.3420   10.6930   21.0140 N   0  0  0  0  0  0  0  0  0  0  0  0
    0.6460   11.8220   20.7980 N   0  0  0  0  0  0  0  0  0  0  0  0
   -0.2980   11.7290   19.8210 C   0  0  0  0  0  0  0  0  0  0  0  0
   -0.2160   10.4280   19.3630 C   0  0  0  0  0  0  0  0  0  0  0  0
   -1.0180    9.9540   18.3760 N   0  0  0  0  0  0  0  0  0  0  0  0
   -1.9180   10.8390   17.8700 C   0  0  0  0  0  0  0  0  0  0  0  0
   -2.0280   12.1670   18.3080 C   0  0  0  0  0  0  0  0  0  0  0  0
   -1.2000   12.6620   19.3200 C   0  0  0  0  0  0  0  0  0  0  0  0
    0.8550   12.6420   21.3550 H   0  0  0  0  0  0  0  0  0  0  0  0
   -2.7660   12.8230   17.8500 H   0  0  0  0  0  0  0  0  0  0  0  0
   -1.2330   13.9610   19.8140 N   0  0  0  0  0  0  0  0  0  0  0  0
   -0.0360   14.7770   19.5060 C   0  0  0  0  0  0  0  0  0  0  0  0
    0.5350   15.1950   20.8540 C   0  0  0  0  0  0  0  0  0  0  0  0
   -0.6970   15.2670   21.7380 C   0  0  1  0  0  0  0  0  0  0  0  0
   -1.4910   14.0410   21.2690 C   0  0  0  0  0  0  0  0  0  0  0  0
    0.7150   14.2630   18.8950 H   0  0  0  0  0  0  0  0  0  0  0  0
   -0.3670   15.6620   18.9480 H   0  0  0  0  0  0  0  0  0  0  0  0
    1.0730   16.1470   20.8040 H   0  0  0  0  0  0  0  0  0  0  0  0
    1.2400   14.4420   21.2300 H   0  0  0  0  0  0  0  0  0  0  0  0
   -1.2530   16.1940   21.5520 H   0  0  0  0  0  0  0  0  0  0  0  0
   -2.5620   14.1730   21.4620 H   0  0  0  0  0  0  0  0  0  0  0  0
   -1.1640   13.1480   21.8170 H   0  0  0  0  0  0  0  0  0  0  0  0
   -0.3250   15.2020   23.1040 O   0  0  0  0  0  0  0  0  0  0  0  0
   -0.7300   14.4010   23.4830 H   0  0  0  0  0  0  0  0  0  0  0  0
   -2.8270   10.3630   16.7410 C   0  0  0  0  0  0  0  0  0  0  0  0
   -3.3040    9.0970   16.9430 F   0  0  0  0  0  0  0  0  0  0  0  0
   -2.2050   10.3220   15.5280 F   0  0  0  0  0  0  0  0  0  0  0  0
   -4.2360   11.4570   16.6170 Cl  0  0  0  0  0  0  0  0  0  0  0  0
    3.4690    6.2000   17.7550 C   0  0  1  0  0  0  0  0  0  0  0  0
    2.8010    5.8660   16.9510 H   0  0  0  0  0  0  0  0  0  0  0  0
    4.3010    7.3650   17.2060 C   0  0  0  0  0  0  0  0  0  0  0  0
    3.6730    8.2300   16.9620 H   0  0  0  0  0  0  0  0  0  0  0  0
    4.8330    7.0760   16.2910 H   0  0  0  0  0  0  0  0  0  0  0  0
    5.0510    7.6940   17.9310 H   0  0  0  0  0  0  0  0  0  0  0  0
    4.3490    5.0060   18.1870 C   0  0  0  0  0  0  0  0  0  0  0  0
    5.2690    4.9680   17.5910 H   0  0  0  0  0  0  0  0  0  0  0  0
    4.6660    5.1490   19.2270 H   0  0  0  0  0  0  0  0  0  0  0  0
    3.6460    3.6940   18.0630 C   0  0  0  0  0  0  0  0  0  0  0  0
    2.8140    3.3330   17.1050 N   0  0  0  0  0  0  0  0  0  0  0  0
    2.3970    2.0490   17.3560 N   0  0  0  0  0  0  0  0  0  0  0  0
    2.9870    1.6470   18.4550 C   0  0  0  0  0  0  0  0  0  0  0  0
    3.7840    2.6410   18.9310 N   0  0  0  0  0  0  0  0  0  0  0  0
    2.8750    0.6790   18.9210 H   0  0  0  0  0  0  0  0  0  0  0  0
    4.6100    2.5710   20.1060 C   0  0  0  0  0  0  0  0  0  0  0  0
    3.9690    2.6290   20.9870 H   0  0  0  0  0  0  0  0  0  0  0  0
    5.3120    3.4070   20.1110 H   0  0  0  0  0  0  0  0  0  0  0  0
    5.1570    1.6250   20.0900 H   0  0  0  0  0  0  0  0  0  0  0  0
  1  6  2  0  0  0  0
  1  2  1  0  0  0  0
  2  3  2  0  0  0  0
  3  4  1  0  0  0  0
  3  8  1  0  0  0  0
  4  9  1  0  0  0  0
  5 11  1  0  0  0  0
  5  4  2  0  0  0  0
  6  5  1  0  0  0  0
  7  2  1  0  0  0  0
 10  6  1  0  0  0  0
 11 12  2  0  0  0  0
 13 12  1  0  0  0  0
 13 20  1  0  0  0  0
 14 13  1  0  0  0  0
 15 14  1  0  0  0  0
 15 11  1  0  0  0  0
 16 15  2  0  0  0  0
 17 18  2  0  0  0  0
 17 16  1  0  0  0  0
 18 19  1  0  0  0  0
 19 22  1  0  0  0  0
 19 14  2  0  0  0  0
 21 18  1  0  0  0  0
 22 26  1  0  0  0  0
 23 22  1  0  0  0  0
 23 24  1  0  0  0  0
 24 30  1  0  0  0  0
 24 25  1  0  0  0  0
 25 31  1  6  0  0  0
 25 34  1  0  0  0  0
 26 32  1  0  0  0  0
 26 25  1  0  0  0  0
 26 33  1  0  0  0  0
 27 23  1  0  0  0  0
 28 23  1  0  0  0  0
 29 24  1  0  0  0  0
 34 35  1  0  0  0  0
 36 37  1  0  0  0  0
 36 17  1  0  0  0  0
 38 36  1  0  0  0  0
 39 36  1  0  0  0  0
 40 41  1  6  0  0  0
 40 46  1  0  0  0  0
 40  1  1  0  0  0  0
 42 40  1  0  0  0  0
 42 45  1  0  0  0  0
 43 42  1  0  0  0  0
 44 42  1  0  0  0  0
 46 48  1  0  0  0  0
 47 46  1  0  0  0  0
 49 46  1  0  0  0  0
 49 53  1  0  0  0  0
 50 51  1  0  0  0  0
 50 49  2  0  0  0  0
 51 52  2  0  0  0  0
 52 54  1  0  0  0  0
 52 53  1  0  0  0  0
 53 55  1  0  0  0  0
 55 57  1  0  0  0  0
 55 56  1  0  0  0  0
 58 55  1  0  0  0  0
M  END
>  <MODEL>
26

>  <REMARK>
 VINA RESULT:    -8.058      4.515      9.137
 INTER + INTRA:         -11.078
 INTER:                 -10.555
 INTRA:                  -0.523
 UNBOUND:                 0.514
  Name = 
  9 active torsions:
  status: ('A' for Active; 'I' for Inactive)
    1  A    between atoms: C_1  and  C_2
    2  A    between atoms: C_2  and  C_3
    3  A    between atoms: C_2  and  C_10
    4  A    between atoms: C_3  and  C_4
    5  A    between atoms: N_8  and  C_9
    6  A    between atoms: C_14  and  C_16
    7  A    between atoms: C_22  and  C_31
    8  A    between atoms: C_24  and  N_25
    9  A    between atoms: C_28  and  O_30
                            x       y       z     vdW  Elec       q    Type
                         _______ _______ _______ _____ _____    ______ ____

>  <TORSDO>
F 9

$$$$
=
 OpenBabel07192307433D

 58 62  0  0  1  0  0  0  0  0999 V2000
    0.3970   10.2750   19.2360 C   0  0  0  0  0  0  0  0  0  0  0  0
    0.8740   11.5290   18.8370 C   0  0  0  0  0  0  0  0  0  0  0  0
    2.0560   11.6360   18.1070 C   0  0  0  0  0  0  0  0  0  0  0  0
    2.7750   10.4890   17.7680 C   0  0  0  0  0  0  0  0  0  0  0  0
    2.3220    9.2140   18.1440 C   0  0  0  0  0  0  0  0  0  0  0  0
    1.1280    9.1260   18.8780 C   0  0  0  0  0  0  0  0  0  0  0  0
    0.3270   12.4350   19.0910 H   0  0  0  0  0  0  0  0  0  0  0  0
    2.4220   12.6120   17.8010 H   0  0  0  0  0  0  0  0  0  0  0  0
    3.6970   10.5940   17.1990 H   0  0  0  0  0  0  0  0  0  0  0  0
    0.7550    8.1540   19.1890 H   0  0  0  0  0  0  0  0  0  0  0  0
    3.0950    8.0170   17.7790 C   0  0  0  0  0  0  0  0  0  0  0  0
    4.1400    8.1020   16.9270 N   0  0  0  0  0  0  0  0  0  0  0  0
    4.5930    6.8410   16.8320 N   0  0  0  0  0  0  0  0  0  0  0  0
    3.9050    5.9330   17.5780 C   0  0  0  0  0  0  0  0  0  0  0  0
    2.9160    6.6610   18.2110 C   0  0  0  0  0  0  0  0  0  0  0  0
    2.0160    6.0870   19.0490 N   0  0  0  0  0  0  0  0  0  0  0  0
    2.1410    4.7440   19.2210 C   0  0  0  0  0  0  0  0  0  0  0  0
    3.1340    3.9730   18.5990 C   0  0  0  0  0  0  0  0  0  0  0  0
    4.0680    4.5600   17.7390 C   0  0  0  0  0  0  0  0  0  0  0  0
    5.3850    6.6470   16.2320 H   0  0  0  0  0  0  0  0  0  0  0  0
    3.1800    2.9030   18.7900 H   0  0  0  0  0  0  0  0  0  0  0  0
    5.0860    3.8800   17.0830 N   0  0  0  0  0  0  0  0  0  0  0  0
    6.4530    4.1820   17.5680 C   0  0  0  0  0  0  0  0  0  0  0  0
    7.2070    4.7250   16.3630 C   0  0  0  0  0  0  0  0  0  0  0  0
    6.5420    4.0160   15.1970 C   0  0  1  0  0  0  0  0  0  0  0  0
    5.0660    4.0460   15.6130 C   0  0  0  0  0  0  0  0  0  0  0  0
    6.4880    4.8820   18.4110 H   0  0  0  0  0  0  0  0  0  0  0  0
    6.9070    3.2410   17.9010 H   0  0  0  0  0  0  0  0  0  0  0  0
    8.2830    4.5280   16.4170 H   0  0  0  0  0  0  0  0  0  0  0  0
    7.0790    5.8120   16.2790 H   0  0  0  0  0  0  0  0  0  0  0  0
    6.9080    2.9850   15.1120 H   0  0  0  0  0  0  0  0  0  0  0  0
    4.5110    3.2250   15.1410 H   0  0  0  0  0  0  0  0  0  0  0  0
    4.6030    4.9860   15.2880 H   0  0  0  0  0  0  0  0  0  0  0  0
    6.7960    4.7110   13.9880 O   0  0  0  0  0  0  0  0  0  0  0  0
    6.2390    5.5110   13.9840 H   0  0  0  0  0  0  0  0  0  0  0  0
    1.1690    4.0540   20.1730 C   0  0  0  0  0  0  0  0  0  0  0  0
    0.4340    3.0760   19.5620 F   0  0  0  0  0  0  0  0  0  0  0  0
    0.2510    4.9040   20.7160 F   0  0  0  0  0  0  0  0  0  0  0  0
    2.0870    3.2880   21.5020 Cl  0  0  0  0  0  0  0  0  0  0  0  0
   -0.8840   10.1770   20.0570 C   0  0  1  0  0  0  0  0  0  0  0  0
   -1.3840    9.2350   19.7930 H   0  0  0  0  0  0  0  0  0  0  0  0
   -0.5530   10.1170   21.5530 C   0  0  0  0  0  0  0  0  0  0  0  0
    0.3710   10.6600   21.7840 H   0  0  0  0  0  0  0  0  0  0  0  0
   -0.4180    9.0820   21.8880 H   0  0  0  0  0  0  0  0  0  0  0  0
   -1.3550   10.5550   22.1540 H   0  0  0  0  0  0  0  0  0  0  0  0
   -1.8330   11.3470   19.7140 C   0  0  0  0  0  0  0  0  0  0  0  0
   -2.4890   11.5740   20.5630 H   0  0  0  0  0  0  0  0  0  0  0  0
   -1.2400   12.2520   19.5370 H   0  0  0  0  0  0  0  0  0  0  0  0
   -2.6810   11.0720   18.5160 C   0  0  0  0  0  0  0  0  0  0  0  0
   -2.3460   10.3600   17.4590 N   0  0  0  0  0  0  0  0  0  0  0  0
   -3.4110   10.3440   16.5910 N   0  0  0  0  0  0  0  0  0  0  0  0
   -4.3790   11.0400   17.1380 C   0  0  0  0  0  0  0  0  0  0  0  0
   -3.9710   11.5110   18.3470 N   0  0  0  0  0  0  0  0  0  0  0  0
   -5.3550   11.2170   16.7120 H   0  0  0  0  0  0  0  0  0  0  0  0
   -4.7590   12.2980   19.2560 C   0  0  0  0  0  0  0  0  0  0  0  0
   -5.7390   11.8300   19.3640 H   0  0  0  0  0  0  0  0  0  0  0  0
   -4.8800   13.3080   18.8570 H   0  0  0  0  0  0  0  0  0  0  0  0
   -4.2430   12.3370   20.2190 H   0  0  0  0  0  0  0  0  0  0  0  0
  1 40  1  0  0  0  0
  2  7  1  0  0  0  0
  2  1  2  0  0  0  0
  3  2  1  0  0  0  0
  4  3  2  0  0  0  0
  4  5  1  0  0  0  0
  5  6  2  0  0  0  0
  6 10  1  0  0  0  0
  6  1  1  0  0  0  0
  8  3  1  0  0  0  0
  9  4  1  0  0  0  0
 11  5  1  0  0  0  0
 11 15  1  0  0  0  0
 12 11  2  0  0  0  0
 13 12  1  0  0  0  0
 13 14  1  0  0  0  0
 14 19  2  0  0  0  0
 14 15  1  0  0  0  0
 15 16  2  0  0  0  0
 16 17  1  0  0  0  0
 17 36  1  0  0  0  0
 18 21  1  0  0  0  0
 18 17  2  0  0  0  0
 19 18  1  0  0  0  0
 20 13  1  0  0  0  0
 22 23  1  0  0  0  0
 22 19  1  0  0  0  0
 23 28  1  0  0  0  0
 23 27  1  0  0  0  0
 24 29  1  0  0  0  0
 24 23  1  0  0  0  0
 25 31  1  6  0  0  0
 25 26  1  0  0  0  0
 25 24  1  0  0  0  0
 26 22  1  0  0  0  0
 30 24  1  0  0  0  0
 32 26  1  0  0  0  0
 33 26  1  0  0  0  0
 34 25  1  0  0  0  0
 35 34  1  0  0  0  0
 36 38  1  0  0  0  0
 36 39  1  0  0  0  0
 37 36  1  0  0  0  0
 40 41  1  6  0  0  0
 40 42  1  0  0  0  0
 42 43  1  0  0  0  0
 42 44  1  0  0  0  0
 42 45  1  0  0  0  0
 46 40  1  0  0  0  0
 46 47  1  0  0  0  0
 48 46  1  0  0  0  0
 49 46  1  0  0  0  0
 50 49  2  0  0  0  0
 51 52  2  0  0  0  0
 51 50  1  0  0  0  0
 52 53  1  0  0  0  0
 53 49  1  0  0  0  0
 53 55  1  0  0  0  0
 54 52  1  0  0  0  0
 55 56  1  0  0  0  0
 55 58  1  0  0  0  0
 57 55  1  0  0  0  0
M  END
>  <MODEL>
27

>  <REMARK>
 VINA RESULT:    -7.954      1.592      2.527
 INTER + INTRA:         -10.928
 INTER:                 -10.416
 INTRA:                  -0.512
 UNBOUND:                 0.514
  Name = 
  9 active torsions:
  status: ('A' for Active; 'I' for Inactive)
    1  A    between atoms: C_1  and  C_2
    2  A    between atoms: C_2  and  C_3
    3  A    between atoms: C_2  and  C_10
    4  A    between atoms: C_3  and  C_4
    5  A    between atoms: N_8  and  C_9
    6  A    between atoms: C_14  and  C_16
    7  A    between atoms: C_22  and  C_31
    8  A    between atoms: C_24  and  N_25
    9  A    between atoms: C_28  and  O_30
                            x       y       z     vdW  Elec       q    Type
                         _______ _______ _______ _____ _____    ______ ____

>  <TORSDO>
F 9

$$$$
=
 OpenBabel07192307433D

 58 62  0  0  1  0  0  0  0  0999 V2000
    2.7610    6.7040   18.8330 C   0  0  0  0  0  0  0  0  0  0  0  0
    2.6380    5.3850   19.2860 C   0  0  0  0  0  0  0  0  0  0  0  0
    1.8670    5.0940   20.4110 C   0  0  0  0  0  0  0  0  0  0  0  0
    1.2120    6.1190   21.0950 C   0  0  0  0  0  0  0  0  0  0  0  0
    1.3070    7.4520   20.6630 C   0  0  0  0  0  0  0  0  0  0  0  0
    2.0860    7.7260   19.5280 C   0  0  0  0  0  0  0  0  0  0  0  0
    3.1400    4.5720   18.7660 H   0  0  0  0  0  0  0  0  0  0  0  0
    1.7760    4.0690   20.7590 H   0  0  0  0  0  0  0  0  0  0  0  0
    0.6170    5.8710   21.9720 H   0  0  0  0  0  0  0  0  0  0  0  0
    2.1840    8.7490   19.1730 H   0  0  0  0  0  0  0  0  0  0  0  0
    0.6110    8.5180   21.3990 C   0  0  0  0  0  0  0  0  0  0  0  0
   -0.0270    8.2550   22.5600 N   0  0  0  0  0  0  0  0  0  0  0  0
   -0.5340    9.4410   22.9360 N   0  0  0  0  0  0  0  0  0  0  0  0
   -0.2600   10.4700   22.0870 C   0  0  0  0  0  0  0  0  0  0  0  0
    0.4850    9.9090   21.0670 C   0  0  0  0  0  0  0  0  0  0  0  0
    0.9440   10.6370   20.0180 N   0  0  0  0  0  0  0  0  0  0  0  0
    0.6160   11.9570   20.0270 C   0  0  0  0  0  0  0  0  0  0  0  0
   -0.1340   12.5620   21.0460 C   0  0  0  0  0  0  0  0  0  0  0  0
   -0.6050   11.8180   22.1320 C   0  0  0  0  0  0  0  0  0  0  0  0
   -1.0720    9.4960   23.7920 H   0  0  0  0  0  0  0  0  0  0  0  0
   -0.3510   13.6270   20.9910 H   0  0  0  0  0  0  0  0  0  0  0  0
   -1.3500   12.3290   23.1870 N   0  0  0  0  0  0  0  0  0  0  0  0
   -2.6880   11.7190   23.3610 C   0  0  0  0  0  0  0  0  0  0  0  0
   -3.6820   12.8640   23.2320 C   0  0  0  0  0  0  0  0  0  0  0  0
   -2.8980   14.0570   23.7480 C   0  0  1  0  0  0  0  0  0  0  0  0
   -1.5090   13.8000   23.1510 C   0  0  0  0  0  0  0  0  0  0  0  0
   -2.9110   10.9130   22.6530 H   0  0  0  0  0  0  0  0  0  0  0  0
   -2.7350   11.2940   24.3710 H   0  0  0  0  0  0  0  0  0  0  0  0
   -4.6020   12.6880   23.8000 H   0  0  0  0  0  0  0  0  0  0  0  0
   -3.9710   13.0140   22.1830 H   0  0  0  0  0  0  0  0  0  0  0  0
   -2.8640   14.0520   24.8440 H   0  0  0  0  0  0  0  0  0  0  0  0
   -0.7300   14.2860   23.7510 H   0  0  0  0  0  0  0  0  0  0  0  0
   -1.4520   14.2170   22.1370 H   0  0  0  0  0  0  0  0  0  0  0  0
   -3.4850   15.2650   23.2960 O   0  0  0  0  0  0  0  0  0  0  0  0
   -3.6190   15.8380   24.0730 H   0  0  0  0  0  0  0  0  0  0  0  0
    1.1290   12.8250   18.8820 C   0  0  0  0  0  0  0  0  0  0  0  0
    1.4830   14.0820   19.2880 F   0  0  0  0  0  0  0  0  0  0  0  0
    0.2080   13.0140   17.8940 F   0  0  0  0  0  0  0  0  0  0  0  0
    2.5780   12.0610   18.1660 Cl  0  0  0  0  0  0  0  0  0  0  0  0
    3.6280    7.0090   17.6170 C   0  0  1  0  0  0  0  0  0  0  0  0
    3.2210    6.4520   16.7630 H   0  0  0  0  0  0  0  0  0  0  0  0
    3.5520    8.5010   17.2710 C   0  0  0  0  0  0  0  0  0  0  0  0
    4.5170    8.8830   16.9170 H   0  0  0  0  0  0  0  0  0  0  0  0
    3.2620    9.0970   18.1440 H   0  0  0  0  0  0  0  0  0  0  0  0
    2.8140    8.6880   16.4850 H   0  0  0  0  0  0  0  0  0  0  0  0
    5.0790    6.5380   17.8610 C   0  0  0  0  0  0  0  0  0  0  0  0
    5.7280    7.3910   18.0970 H   0  0  0  0  0  0  0  0  0  0  0  0
    5.1030    5.8850   18.7420 H   0  0  0  0  0  0  0  0  0  0  0  0
    5.6560    5.8100   16.6920 C   0  0  0  0  0  0  0  0  0  0  0  0
    5.2110    5.8340   15.4510 N   0  0  0  0  0  0  0  0  0  0  0  0
    6.0270    5.0390   14.6830 N   0  0  0  0  0  0  0  0  0  0  0  0
    6.9590    4.5520   15.4670 C   0  0  0  0  0  0  0  0  0  0  0  0
    6.7710    5.0110   16.7330 N   0  0  0  0  0  0  0  0  0  0  0  0
    7.7600    3.8920   15.1700 H   0  0  0  0  0  0  0  0  0  0  0  0
    7.6010    4.7160   17.8690 C   0  0  0  0  0  0  0  0  0  0  0  0
    7.2470    3.7930   18.3300 H   0  0  0  0  0  0  0  0  0  0  0  0
    7.5360    5.5320   18.5930 H   0  0  0  0  0  0  0  0  0  0  0  0
    8.6330    4.6030   17.5270 H   0  0  0  0  0  0  0  0  0  0  0  0
  1  2  2  0  0  0  0
  1  6  1  0  0  0  0
  2  3  1  0  0  0  0
  3  8  1  0  0  0  0
  3  4  2  0  0  0  0
  4  9  1  0  0  0  0
  5  4  1  0  0  0  0
  5 11  1  0  0  0  0
  6  5  2  0  0  0  0
  7  2  1  0  0  0  0
 10  6  1  0  0  0  0
 11 12  2  0  0  0  0
 12 13  1  0  0  0  0
 13 20  1  0  0  0  0
 14 19  1  0  0  0  0
 14 13  1  0  0  0  0
 15 11  1  0  0  0  0
 15 14  2  0  0  0  0
 16 17  2  0  0  0  0
 16 15  1  0  0  0  0
 17 18  1  0  0  0  0
 18 19  2  0  0  0  0
 19 22  1  0  0  0  0
 21 18  1  0  0  0  0
 22 23  1  0  0  0  0
 23 28  1  0  0  0  0
 24 23  1  0  0  0  0
 24 25  1  0  0  0  0
 24 29  1  0  0  0  0
 25 31  1  1  0  0  0
 26 22  1  0  0  0  0
 26 25  1  0  0  0  0
 26 32  1  0  0  0  0
 27 23  1  0  0  0  0
 30 24  1  0  0  0  0
 33 26  1  0  0  0  0
 34 25  1  0  0  0  0
 34 35  1  0  0  0  0
 36 37  1  0  0  0  0
 36 17  1  0  0  0  0
 38 36  1  0  0  0  0
 39 36  1  0  0  0  0
 40 41  1  6  0  0  0
 40 46  1  0  0  0  0
 40  1  1  0  0  0  0
 42 40  1  0  0  0  0
 42 44  1  0  0  0  0
 43 42  1  0  0  0  0
 45 42  1  0  0  0  0
 46 47  1  0  0  0  0
 46 48  1  0  0  0  0
 49 53  1  0  0  0  0
 49 46  1  0  0  0  0
 50 49  2  0  0  0  0
 51 50  1  0  0  0  0
 51 52  2  0  0  0  0
 52 53  1  0  0  0  0
 53 55  1  0  0  0  0
 54 52  1  0  0  0  0
 55 56  1  0  0  0  0
 55 57  1  0  0  0  0
 58 55  1  0  0  0  0
M  END
>  <MODEL>
28

>  <REMARK>
 VINA RESULT:    -7.868      5.019      9.622
 INTER + INTRA:         -10.804
 INTER:                  -9.919
 INTRA:                  -0.886
 UNBOUND:                 0.514
  Name = 
  9 active torsions:
  status: ('A' for Active; 'I' for Inactive)
    1  A    between atoms: C_1  and  C_2
    2  A    between atoms: C_2  and  C_3
    3  A    between atoms: C_2  and  C_10
    4  A    between atoms: C_3  and  C_4
    5  A    between atoms: N_8  and  C_9
    6  A    between atoms: C_14  and  C_16
    7  A    between atoms: C_22  and  C_31
    8  A    between atoms: C_24  and  N_25
    9  A    between atoms: C_28  and  O_30
                            x       y       z     vdW  Elec       q    Type
                         _______ _______ _______ _____ _____    ______ ____

>  <TORSDO>
F 9

$$$$
=
 OpenBabel07192307433D

 58 62  0  0  1  0  0  0  0  0999 V2000
    1.4800   11.4860   18.6020 C   0  0  0  0  0  0  0  0  0  0  0  0
    0.2390   11.1580   19.1600 C   0  0  0  0  0  0  0  0  0  0  0  0
   -0.1370    9.8250   19.3140 C   0  0  0  0  0  0  0  0  0  0  0  0
    0.7250    8.8040   18.9100 C   0  0  0  0  0  0  0  0  0  0  0  0
    1.9810    9.0960   18.3530 C   0  0  0  0  0  0  0  0  0  0  0  0
    2.3420   10.4450   18.2080 C   0  0  0  0  0  0  0  0  0  0  0  0
   -0.4460   11.9390   19.4820 H   0  0  0  0  0  0  0  0  0  0  0  0
   -1.1010    9.5760   19.7470 H   0  0  0  0  0  0  0  0  0  0  0  0
    0.4130    7.7700   19.0360 H   0  0  0  0  0  0  0  0  0  0  0  0
    3.3050   10.7030   17.7740 H   0  0  0  0  0  0  0  0  0  0  0  0
    2.8740    8.0070   17.9310 C   0  0  0  0  0  0  0  0  0  0  0  0
    3.9220    8.2490   17.1150 N   0  0  0  0  0  0  0  0  0  0  0  0
    4.4980    7.0460   16.9490 N   0  0  0  0  0  0  0  0  0  0  0  0
    3.8870    6.0280   17.6160 C   0  0  0  0  0  0  0  0  0  0  0  0
    2.8180    6.6130   18.2680 C   0  0  0  0  0  0  0  0  0  0  0  0
    1.9620    5.9000   19.0430 N   0  0  0  0  0  0  0  0  0  0  0  0
    2.2140    4.5670   19.1290 C   0  0  0  0  0  0  0  0  0  0  0  0
    3.2890    3.9380   18.4840 C   0  0  0  0  0  0  0  0  0  0  0  0
    4.1780    4.6690   17.6900 C   0  0  0  0  0  0  0  0  0  0  0  0
    5.3170    6.9700   16.3590 H   0  0  0  0  0  0  0  0  0  0  0  0
    3.4350    2.8670   18.6060 H   0  0  0  0  0  0  0  0  0  0  0  0
    5.2710    4.1360   17.0180 N   0  0  0  0  0  0  0  0  0  0  0  0
    6.5850    4.4030   17.6490 C   0  0  0  0  0  0  0  0  0  0  0  0
    7.3980    5.1540   16.6040 C   0  0  0  0  0  0  0  0  0  0  0  0
    6.8510    4.6150   15.2950 C   0  0  1  0  0  0  0  0  0  0  0  0
    5.3490    4.5300   15.5940 C   0  0  0  0  0  0  0  0  0  0  0  0
    6.5270    4.9620   18.5890 H   0  0  0  0  0  0  0  0  0  0  0  0
    7.0550    3.4370   17.8660 H   0  0  0  0  0  0  0  0  0  0  0  0
    8.4740    4.9870   16.7110 H   0  0  0  0  0  0  0  0  0  0  0  0
    7.2270    6.2360   16.6810 H   0  0  0  0  0  0  0  0  0  0  0  0
    7.2690    3.6240   15.0800 H   0  0  0  0  0  0  0  0  0  0  0  0
    4.8670    3.7760   14.9600 H   0  0  0  0  0  0  0  0  0  0  0  0
    4.8670    5.4940   15.3840 H   0  0  0  0  0  0  0  0  0  0  0  0
    7.1590    5.5010   14.2320 O   0  0  0  0  0  0  0  0  0  0  0  0
    6.3180    5.7990   13.8410 H   0  0  0  0  0  0  0  0  0  0  0  0
    1.2940    3.7240   20.0070 C   0  0  0  0  0  0  0  0  0  0  0  0
    0.2400    4.4370   20.5070 F   0  0  0  0  0  0  0  0  0  0  0  0
    1.9210    3.1990   21.0990 F   0  0  0  0  0  0  0  0  0  0  0  0
    0.6240    2.3780   19.0390 Cl  0  0  0  0  0  0  0  0  0  0  0  0
    1.8650   12.9490   18.4160 C   0  0  1  0  0  0  0  0  0  0  0  0
    2.5000   13.0220   17.5230 H   0  0  0  0  0  0  0  0  0  0  0  0
    0.6150   13.7990   18.1590 C   0  0  0  0  0  0  0  0  0  0  0  0
   -0.2920   13.1830   18.1230 H   0  0  0  0  0  0  0  0  0  0  0  0
    0.6870   14.3340   17.2050 H   0  0  0  0  0  0  0  0  0  0  0  0
    0.4750   14.5470   18.9460 H   0  0  0  0  0  0  0  0  0  0  0  0
    2.6740   13.4510   19.6330 C   0  0  0  0  0  0  0  0  0  0  0  0
    2.0720   14.1390   20.2390 H   0  0  0  0  0  0  0  0  0  0  0  0
    2.9110   12.6000   20.2830 H   0  0  0  0  0  0  0  0  0  0  0  0
    3.9390   14.1410   19.2430 C   0  0  0  0  0  0  0  0  0  0  0  0
    4.4120   14.2880   18.0210 N   0  0  0  0  0  0  0  0  0  0  0  0
    5.5910   14.9880   18.0950 N   0  0  0  0  0  0  0  0  0  0  0  0
    5.8120   15.2620   19.3580 C   0  0  0  0  0  0  0  0  0  0  0  0
    4.8010   14.7570   20.1150 N   0  0  0  0  0  0  0  0  0  0  0  0
    6.6560   15.8080   19.7530 H   0  0  0  0  0  0  0  0  0  0  0  0
    4.6760   14.8720   21.5420 C   0  0  0  0  0  0  0  0  0  0  0  0
    4.3210   13.9200   21.9400 H   0  0  0  0  0  0  0  0  0  0  0  0
    3.9590   15.6590   21.7850 H   0  0  0  0  0  0  0  0  0  0  0  0
    5.6570   15.1200   21.9580 H   0  0  0  0  0  0  0  0  0  0  0  0
  1  2  1  0  0  0  0
  2  3  2  0  0  0  0
  2  7  1  0  0  0  0
  3  8  1  0  0  0  0
  4  9  1  0  0  0  0
  4  3  1  0  0  0  0
  5  4  2  0  0  0  0
  6  5  1  0  0  0  0
  6  1  2  0  0  0  0
 10  6  1  0  0  0  0
 11 15  1  0  0  0  0
 11  5  1  0  0  0  0
 12 11  2  0  0  0  0
 13 12  1  0  0  0  0
 13 14  1  0  0  0  0
 14 19  2  0  0  0  0
 14 15  1  0  0  0  0
 15 16  2  0  0  0  0
 16 17  1  0  0  0  0
 17 36  1  0  0  0  0
 18 21  1  0  0  0  0
 18 17  2  0  0  0  0
 19 18  1  0  0  0  0
 20 13  1  0  0  0  0
 22 23  1  0  0  0  0
 22 19  1  0  0  0  0
 23 28  1  0  0  0  0
 23 27  1  0  0  0  0
 24 30  1  0  0  0  0
 24 29  1  0  0  0  0
 24 23  1  0  0  0  0
 25 31  1  6  0  0  0
 25 26  1  0  0  0  0
 25 24  1  0  0  0  0
 26 22  1  0  0  0  0
 32 26  1  0  0  0  0
 33 26  1  0  0  0  0
 34 25  1  0  0  0  0
 35 34  1  0  0  0  0
 36 37  1  0  0  0  0
 36 38  1  0  0  0  0
 39 36  1  0  0  0  0
 40 41  1  6  0  0  0
 40  1  1  0  0  0  0
 40 46  1  0  0  0  0
 42 40  1  0  0  0  0
 42 45  1  0  0  0  0
 43 42  1  0  0  0  0
 44 42  1  0  0  0  0
 46 47  1  0  0  0  0
 46 48  1  0  0  0  0
 49 46  1  0  0  0  0
 49 53  1  0  0  0  0
 50 51  1  0  0  0  0
 50 49  2  0  0  0  0
 51 52  2  0  0  0  0
 52 54  1  0  0  0  0
 52 53  1  0  0  0  0
 53 55  1  0  0  0  0
 55 57  1  0  0  0  0
 55 56  1  0  0  0  0
 55 58  1  0  0  0  0
M  END
>  <MODEL>
29

>  <REMARK>
 VINA RESULT:    -7.741      3.197      4.674
 INTER + INTRA:         -10.622
 INTER:                 -10.066
 INTRA:                  -0.556
 UNBOUND:                 0.514
  Name = 
  9 active torsions:
  status: ('A' for Active; 'I' for Inactive)
    1  A    between atoms: C_1  and  C_2
    2  A    between atoms: C_2  and  C_3
    3  A    between atoms: C_2  and  C_10
    4  A    between atoms: C_3  and  C_4
    5  A    between atoms: N_8  and  C_9
    6  A    between atoms: C_14  and  C_16
    7  A    between atoms: C_22  and  C_31
    8  A    between atoms: C_24  and  N_25
    9  A    between atoms: C_28  and  O_30
                            x       y       z     vdW  Elec       q    Type
                         _______ _______ _______ _____ _____    ______ ____

>  <TORSDO>
F 9

$$$$
=
 OpenBabel07192307433D

 58 62  0  0  1  0  0  0  0  0999 V2000
    3.0070    6.0560   18.7280 C   0  0  0  0  0  0  0  0  0  0  0  0
    3.0710    4.9180   19.5420 C   0  0  0  0  0  0  0  0  0  0  0  0
    2.3660    4.8690   20.7430 C   0  0  0  0  0  0  0  0  0  0  0  0
    1.5890    5.9570   21.1430 C   0  0  0  0  0  0  0  0  0  0  0  0
    1.4950    7.1100   20.3480 C   0  0  0  0  0  0  0  0  0  0  0  0
    2.2110    7.1410   19.1410 C   0  0  0  0  0  0  0  0  0  0  0  0
    3.6700    4.0600   19.2460 H   0  0  0  0  0  0  0  0  0  0  0  0
    2.4200    3.9840   21.3710 H   0  0  0  0  0  0  0  0  0  0  0  0
    1.0470    5.8990   22.0860 H   0  0  0  0  0  0  0  0  0  0  0  0
    2.1640    8.0230   18.5070 H   0  0  0  0  0  0  0  0  0  0  0  0
    0.6730    8.2470   20.7890 C   0  0  0  0  0  0  0  0  0  0  0  0
   -0.3080    8.0790   21.7020 N   0  0  0  0  0  0  0  0  0  0  0  0
   -0.8320    9.3060   21.8560 N   0  0  0  0  0  0  0  0  0  0  0  0
   -0.2460   10.2730   21.0970 C   0  0  0  0  0  0  0  0  0  0  0  0
    0.7420    9.6210   20.3820 C   0  0  0  0  0  0  0  0  0  0  0  0
    1.5470   10.2680   19.5010 N   0  0  0  0  0  0  0  0  0  0  0  0
    1.3150   11.6000   19.3560 C   0  0  0  0  0  0  0  0  0  0  0  0
    0.3250   12.2950   20.0670 C   0  0  0  0  0  0  0  0  0  0  0  0
   -0.5030   11.6360   20.9800 C   0  0  0  0  0  0  0  0  0  0  0  0
   -1.6030    9.4340   22.5000 H   0  0  0  0  0  0  0  0  0  0  0  0
    0.2020   13.3650   19.9070 H   0  0  0  0  0  0  0  0  0  0  0  0
   -1.5050   12.2390   21.7300 N   0  0  0  0  0  0  0  0  0  0  0  0
   -2.1200   13.4340   21.1050 C   0  0  0  0  0  0  0  0  0  0  0  0
   -1.8870   14.5760   22.0840 C   0  0  0  0  0  0  0  0  0  0  0  0
   -1.8710   13.8730   23.4300 C   0  0  1  0  0  0  0  0  0  0  0  0
   -1.0920   12.5930   23.1060 C   0  0  0  0  0  0  0  0  0  0  0  0
   -1.7290   13.6730   20.1100 H   0  0  0  0  0  0  0  0  0  0  0  0
   -3.1950   13.2420   21.0020 H   0  0  0  0  0  0  0  0  0  0  0  0
   -2.6610   15.3470   22.0210 H   0  0  0  0  0  0  0  0  0  0  0  0
   -0.9230   15.0650   21.8910 H   0  0  0  0  0  0  0  0  0  0  0  0
   -2.8930   13.6430   23.7570 H   0  0  0  0  0  0  0  0  0  0  0  0
   -1.3540   11.7890   23.8040 H   0  0  0  0  0  0  0  0  0  0  0  0
   -0.0130   12.7740   23.2020 H   0  0  0  0  0  0  0  0  0  0  0  0
   -1.2330   14.6850   24.4010 O   0  0  0  0  0  0  0  0  0  0  0  0
   -1.1060   14.1450   25.2020 H   0  0  0  0  0  0  0  0  0  0  0  0
    2.2090   12.3780   18.3960 C   0  0  0  0  0  0  0  0  0  0  0  0
    1.5000   13.0400   17.4320 F   0  0  0  0  0  0  0  0  0  0  0  0
    3.0870   11.5870   17.7150 F   0  0  0  0  0  0  0  0  0  0  0  0
    3.1400   13.5970   19.3140 Cl  0  0  0  0  0  0  0  0  0  0  0  0
    3.8050    6.1040   17.4300 C   0  0  1  0  0  0  0  0  0  0  0  0
    3.1120    6.3510   16.6150 H   0  0  0  0  0  0  0  0  0  0  0  0
    4.8540    7.2210   17.4930 C   0  0  0  0  0  0  0  0  0  0  0  0
    5.7680    6.9470   16.9540 H   0  0  0  0  0  0  0  0  0  0  0  0
    5.1370    7.4420   18.5290 H   0  0  0  0  0  0  0  0  0  0  0  0
    4.4740    8.1470   17.0510 H   0  0  0  0  0  0  0  0  0  0  0  0
    4.4350    4.7250   17.1350 C   0  0  0  0  0  0  0  0  0  0  0  0
    4.9100    4.3170   18.0360 H   0  0  0  0  0  0  0  0  0  0  0  0
    3.6430    4.0180   16.8610 H   0  0  0  0  0  0  0  0  0  0  0  0
    5.4520    4.7740   16.0420 C   0  0  0  0  0  0  0  0  0  0  0  0
    5.2150    4.8890   14.7500 N   0  0  0  0  0  0  0  0  0  0  0  0
    6.4190    4.9050   14.0890 N   0  0  0  0  0  0  0  0  0  0  0  0
    7.3680    4.8090   14.9890 C   0  0  0  0  0  0  0  0  0  0  0  0
    6.8110    4.7310   16.2280 N   0  0  0  0  0  0  0  0  0  0  0  0
    8.4300    4.7980   14.7960 H   0  0  0  0  0  0  0  0  0  0  0  0
    7.5270    4.6360   17.4700 C   0  0  0  0  0  0  0  0  0  0  0  0
    7.6720    3.5820   17.7110 H   0  0  0  0  0  0  0  0  0  0  0  0
    6.9480    5.1140   18.2640 H   0  0  0  0  0  0  0  0  0  0  0  0
    8.4900    5.1410   17.3560 H   0  0  0  0  0  0  0  0  0  0  0  0
  1  6  2  0  0  0  0
  1  2  1  0  0  0  0
  2  3  2  0  0  0  0
  3  4  1  0  0  0  0
  3  8  1  0  0  0  0
  4  9  1  0  0  0  0
  5 11  1  0  0  0  0
  5  4  2  0  0  0  0
  6  5  1  0  0  0  0
  7  2  1  0  0  0  0
 10  6  1  0  0  0  0
 11 12  2  0  0  0  0
 12 13  1  0  0  0  0
 13 20  1  0  0  0  0
 14 13  1  0  0  0  0
 15 11  1  0  0  0  0
 15 14  2  0  0  0  0
 16 15  1  0  0  0  0
 17 16  2  0  0  0  0
 17 18  1  0  0  0  0
 18 19  2  0  0  0  0
 19 14  1  0  0  0  0
 19 22  1  0  0  0  0
 21 18  1  0  0  0  0
 22 26  1  0  0  0  0
 23 22  1  0  0  0  0
 23 24  1  0  0  0  0
 24 25  1  0  0  0  0
 25 31  1  1  0  0  0
 25 34  1  0  0  0  0
 26 33  1  0  0  0  0
 26 25  1  0  0  0  0
 26 32  1  0  0  0  0
 27 23  1  0  0  0  0
 28 23  1  0  0  0  0
 29 24  1  0  0  0  0
 30 24  1  0  0  0  0
 34 35  1  0  0  0  0
 36 39  1  0  0  0  0
 36 17  1  0  0  0  0
 37 36  1  0  0  0  0
 38 36  1  0  0  0  0
 40 41  1  6  0  0  0
 40 42  1  0  0  0  0
 40  1  1  0  0  0  0
 42 44  1  0  0  0  0
 43 42  1  0  0  0  0
 45 42  1  0  0  0  0
 46 40  1  0  0  0  0
 46 47  1  0  0  0  0
 48 46  1  0  0  0  0
 49 53  1  0  0  0  0
 49 46  1  0  0  0  0
 50 49  2  0  0  0  0
 51 50  1  0  0  0  0
 51 52  2  0  0  0  0
 52 53  1  0  0  0  0
 53 55  1  0  0  0  0
 54 52  1  0  0  0  0
 55 56  1  0  0  0  0
 55 57  1  0  0  0  0
 58 55  1  0  0  0  0
M  END
>  <MODEL>
30

>  <REMARK>
 VINA RESULT:    -7.562      4.629      9.509
 INTER + INTRA:         -10.365
 INTER:                  -9.317
 INTRA:                  -1.047
 UNBOUND:                 0.514
  Name = 
  9 active torsions:
  status: ('A' for Active; 'I' for Inactive)
    1  A    between atoms: C_1  and  C_2
    2  A    between atoms: C_2  and  C_3
    3  A    between atoms: C_2  and  C_10
    4  A    between atoms: C_3  and  C_4
    5  A    between atoms: N_8  and  C_9
    6  A    between atoms: C_14  and  C_16
    7  A    between atoms: C_22  and  C_31
    8  A    between atoms: C_24  and  N_25
    9  A    between atoms: C_28  and  O_30
                            x       y       z     vdW  Elec       q    Type
                         _______ _______ _______ _____ _____    ______ ____

>  <TORSDO>
F 9

$$$$
=
 OpenBabel07192307433D

 58 62  0  0  1  0  0  0  0  0999 V2000
    2.8790    6.3190   18.7660 C   0  0  0  0  0  0  0  0  0  0  0  0
    2.8170    5.1770   19.5750 C   0  0  0  0  0  0  0  0  0  0  0  0
    2.0690    5.1850   20.7510 C   0  0  0  0  0  0  0  0  0  0  0  0
    1.3750    6.3340   21.1310 C   0  0  0  0  0  0  0  0  0  0  0  0
    1.4080    7.4940   20.3400 C   0  0  0  0  0  0  0  0  0  0  0  0
    2.1660    7.4670   19.1590 C   0  0  0  0  0  0  0  0  0  0  0  0
    3.3500    4.2710   19.2950 H   0  0  0  0  0  0  0  0  0  0  0  0
    2.0250    4.2970   21.3750 H   0  0  0  0  0  0  0  0  0  0  0  0
    0.7990    6.3210   22.0540 H   0  0  0  0  0  0  0  0  0  0  0  0
    2.2160    8.3510   18.5290 H   0  0  0  0  0  0  0  0  0  0  0  0
    0.6720    8.6960   20.7600 C   0  0  0  0  0  0  0  0  0  0  0  0
   -0.3000    8.6210   21.6940 N   0  0  0  0  0  0  0  0  0  0  0  0
   -0.7380    9.8850   21.8190 N   0  0  0  0  0  0  0  0  0  0  0  0
   -0.1040   10.7870   21.0200 C   0  0  0  0  0  0  0  0  0  0  0  0
    0.8240   10.0500   20.3090 C   0  0  0  0  0  0  0  0  0  0  0  0
    1.6530   10.6150   19.3950 N   0  0  0  0  0  0  0  0  0  0  0  0
    1.5080   11.9540   19.2140 C   0  0  0  0  0  0  0  0  0  0  0  0
    0.5800   12.7350   19.9190 C   0  0  0  0  0  0  0  0  0  0  0  0
   -0.2730   12.1600   20.8660 C   0  0  0  0  0  0  0  0  0  0  0  0
   -1.4870   10.0830   22.4720 H   0  0  0  0  0  0  0  0  0  0  0  0
    0.5250   13.8050   19.7280 H   0  0  0  0  0  0  0  0  0  0  0  0
   -1.2180   12.8510   21.6140 N   0  0  0  0  0  0  0  0  0  0  0  0
   -1.2680   12.4870   23.0490 C   0  0  0  0  0  0  0  0  0  0  0  0
   -2.6870   11.9980   23.3000 C   0  0  0  0  0  0  0  0  0  0  0  0
   -3.5030   12.7910   22.2960 C   0  0  1  0  0  0  0  0  0  0  0  0
   -2.5890   12.7740   21.0650 C   0  0  0  0  0  0  0  0  0  0  0  0
   -0.5270   11.7380   23.3490 H   0  0  0  0  0  0  0  0  0  0  0  0
   -1.0750   13.3950   23.6330 H   0  0  0  0  0  0  0  0  0  0  0  0
   -3.0120   12.1640   24.3320 H   0  0  0  0  0  0  0  0  0  0  0  0
   -2.7690   10.9210   23.1020 H   0  0  0  0  0  0  0  0  0  0  0  0
   -3.6660   13.8160   22.6540 H   0  0  0  0  0  0  0  0  0  0  0  0
   -2.7920   13.6350   20.4160 H   0  0  0  0  0  0  0  0  0  0  0  0
   -2.7700   11.8670   20.4750 H   0  0  0  0  0  0  0  0  0  0  0  0
   -4.7540   12.1620   22.0720 O   0  0  0  0  0  0  0  0  0  0  0  0
   -4.6370   11.5200   21.3490 H   0  0  0  0  0  0  0  0  0  0  0  0
    2.4330   12.6420   18.2150 C   0  0  0  0  0  0  0  0  0  0  0  0
    1.7520   13.3470   17.2610 F   0  0  0  0  0  0  0  0  0  0  0  0
    3.2210   11.7710   17.5210 F   0  0  0  0  0  0  0  0  0  0  0  0
    3.4900   13.7920   19.0840 Cl  0  0  0  0  0  0  0  0  0  0  0  0
    3.7230    6.3020   17.4970 C   0  0  1  0  0  0  0  0  0  0  0  0
    3.0680    6.5540   16.6520 H   0  0  0  0  0  0  0  0  0  0  0  0
    4.8120    7.3790   17.5690 C   0  0  0  0  0  0  0  0  0  0  0  0
    4.4880    8.2420   18.1620 H   0  0  0  0  0  0  0  0  0  0  0  0
    5.0740    7.7460   16.5700 H   0  0  0  0  0  0  0  0  0  0  0  0
    5.7270    6.9880   18.0250 H   0  0  0  0  0  0  0  0  0  0  0  0
    4.3080    4.8930   17.2580 C   0  0  0  0  0  0  0  0  0  0  0  0
    4.7450    4.4950   18.1830 H   0  0  0  0  0  0  0  0  0  0  0  0
    3.4960    4.2070   16.9860 H   0  0  0  0  0  0  0  0  0  0  0  0
    5.3500    4.8710   16.1900 C   0  0  0  0  0  0  0  0  0  0  0  0
    5.1520    4.9920   14.8910 N   0  0  0  0  0  0  0  0  0  0  0  0
    6.3690    4.9280   14.2590 N   0  0  0  0  0  0  0  0  0  0  0  0
    7.2890    4.7790   15.1820 C   0  0  0  0  0  0  0  0  0  0  0  0
    6.6990    4.7440   16.4070 N   0  0  0  0  0  0  0  0  0  0  0  0
    8.3530    4.7000   15.0140 H   0  0  0  0  0  0  0  0  0  0  0  0
    7.3790    4.6130   17.6670 C   0  0  0  0  0  0  0  0  0  0  0  0
    8.1920    3.8950   17.5530 H   0  0  0  0  0  0  0  0  0  0  0  0
    6.6800    4.2530   18.4260 H   0  0  0  0  0  0  0  0  0  0  0  0
    7.7690    5.5930   17.9550 H   0  0  0  0  0  0  0  0  0  0  0  0
  1  6  2  0  0  0  0
  1  2  1  0  0  0  0
  2  3  2  0  0  0  0
  3  4  1  0  0  0  0
  3  8  1  0  0  0  0
  4  9  1  0  0  0  0
  5 11  1  0  0  0  0
  5  4  2  0  0  0  0
  6  5  1  0  0  0  0
  7  2  1  0  0  0  0
 10  6  1  0  0  0  0
 11 12  2  0  0  0  0
 12 13  1  0  0  0  0
 13 20  1  0  0  0  0
 14 13  1  0  0  0  0
 15 11  1  0  0  0  0
 15 14  2  0  0  0  0
 16 15  1  0  0  0  0
 17 16  2  0  0  0  0
 17 18  1  0  0  0  0
 18 19  2  0  0  0  0
 19 14  1  0  0  0  0
 19 22  1  0  0  0  0
 21 18  1  0  0  0  0
 22 23  1  0  0  0  0
 23 24  1  0  0  0  0
 23 27  1  0  0  0  0
 23 28  1  0  0  0  0
 24 29  1  0  0  0  0
 25 31  1  1  0  0  0
 25 24  1  0  0  0  0
 26 22  1  0  0  0  0
 26 25  1  0  0  0  0
 30 24  1  0  0  0  0
 32 26  1  0  0  0  0
 33 26  1  0  0  0  0
 34 25  1  0  0  0  0
 35 34  1  0  0  0  0
 36 39  1  0  0  0  0
 36 17  1  0  0  0  0
 37 36  1  0  0  0  0
 38 36  1  0  0  0  0
 40 41  1  6  0  0  0
 40 42  1  0  0  0  0
 40  1  1  0  0  0  0
 42 45  1  0  0  0  0
 42 43  1  0  0  0  0
 44 42  1  0  0  0  0
 46 40  1  0  0  0  0
 46 47  1  0  0  0  0
 48 46  1  0  0  0  0
 49 53  1  0  0  0  0
 49 46  1  0  0  0  0
 50 49  2  0  0  0  0
 51 50  1  0  0  0  0
 51 52  2  0  0  0  0
 52 53  1  0  0  0  0
 53 55  1  0  0  0  0
 54 52  1  0  0  0  0
 55 58  1  0  0  0  0
 55 57  1  0  0  0  0
 56 55  1  0  0  0  0
M  END
>  <MODEL>
31

>  <REMARK>
 VINA RESULT:    -7.557      4.696      9.481
 INTER + INTRA:         -10.357
 INTER:                  -9.986
 INTRA:                  -0.371
 UNBOUND:                 0.514
  Name = 
  9 active torsions:
  status: ('A' for Active; 'I' for Inactive)
    1  A    between atoms: C_1  and  C_2
    2  A    between atoms: C_2  and  C_3
    3  A    between atoms: C_2  and  C_10
    4  A    between atoms: C_3  and  C_4
    5  A    between atoms: N_8  and  C_9
    6  A    between atoms: C_14  and  C_16
    7  A    between atoms: C_22  and  C_31
    8  A    between atoms: C_24  and  N_25
    9  A    between atoms: C_28  and  O_30
                            x       y       z     vdW  Elec       q    Type
                         _______ _______ _______ _____ _____    ______ ____

>  <TORSDO>
F 9

$$$$
=
 OpenBabel07192307433D

 58 62  0  0  1  0  0  0  0  0999 V2000
    3.6130    4.5590   18.7620 C   0  0  0  0  0  0  0  0  0  0  0  0
    2.5810    3.7400   18.2880 C   0  0  0  0  0  0  0  0  0  0  0  0
    1.4050    4.3000   17.7930 C   0  0  0  0  0  0  0  0  0  0  0  0
    1.2480    5.6860   17.7670 C   0  0  0  0  0  0  0  0  0  0  0  0
    2.2650    6.5380   18.2270 C   0  0  0  0  0  0  0  0  0  0  0  0
    3.4420    5.9560   18.7210 C   0  0  0  0  0  0  0  0  0  0  0  0
    2.6860    2.6570   18.2990 H   0  0  0  0  0  0  0  0  0  0  0  0
    0.6080    3.6590   17.4260 H   0  0  0  0  0  0  0  0  0  0  0  0
    0.3210    6.1040   17.3780 H   0  0  0  0  0  0  0  0  0  0  0  0
    4.2450    6.5890   19.0900 H   0  0  0  0  0  0  0  0  0  0  0  0
    2.0780    7.9970   18.1940 C   0  0  0  0  0  0  0  0  0  0  0  0
    2.3560    8.7040   17.0770 N   0  0  0  0  0  0  0  0  0  0  0  0
    2.0720    9.9750   17.4100 N   0  0  0  0  0  0  0  0  0  0  0  0
    1.6180   10.1390   18.6840 C   0  0  0  0  0  0  0  0  0  0  0  0
    1.6100    8.8700   19.2310 C   0  0  0  0  0  0  0  0  0  0  0  0
    1.2160    8.6330   20.5080 N   0  0  0  0  0  0  0  0  0  0  0  0
    0.8380    9.7260   21.2230 C   0  0  0  0  0  0  0  0  0  0  0  0
    0.8300   11.0280   20.7000 C   0  0  0  0  0  0  0  0  0  0  0  0
    1.2290   11.2780   19.3840 C   0  0  0  0  0  0  0  0  0  0  0  0
    2.2100   10.7060   16.7230 H   0  0  0  0  0  0  0  0  0  0  0  0
    0.5060   11.8560   21.3280 H   0  0  0  0  0  0  0  0  0  0  0  0
    1.2510   12.5290   18.7800 N   0  0  0  0  0  0  0  0  0  0  0  0
    2.0560   13.5510   19.4870 C   0  0  0  0  0  0  0  0  0  0  0  0
    1.0900   14.6790   19.8180 C   0  0  0  0  0  0  0  0  0  0  0  0
    0.0800   14.6060   18.6870 C   0  0  1  0  0  0  0  0  0  0  0  0
   -0.0920   13.0910   18.5190 C   0  0  0  0  0  0  0  0  0  0  0  0
    2.5640   13.1820   20.3850 H   0  0  0  0  0  0  0  0  0  0  0  0
    2.8280   13.9100   18.7950 H   0  0  0  0  0  0  0  0  0  0  0  0
    1.5860   15.6530   19.8770 H   0  0  0  0  0  0  0  0  0  0  0  0
    0.6020   14.5030   20.7860 H   0  0  0  0  0  0  0  0  0  0  0  0
    0.4870   15.0620   17.7760 H   0  0  0  0  0  0  0  0  0  0  0  0
   -0.4200   12.8470   17.5010 H   0  0  0  0  0  0  0  0  0  0  0  0
   -0.8600   12.7200   19.2110 H   0  0  0  0  0  0  0  0  0  0  0  0
   -1.1190   15.2670   19.0550 O   0  0  0  0  0  0  0  0  0  0  0  0
   -1.1560   16.1080   18.5640 H   0  0  0  0  0  0  0  0  0  0  0  0
    0.3630    9.5110   22.6560 C   0  0  0  0  0  0  0  0  0  0  0  0
   -0.2790   10.6030   23.1710 F   0  0  0  0  0  0  0  0  0  0  0  0
    1.3790    9.2500   23.5280 F   0  0  0  0  0  0  0  0  0  0  0  0
   -0.7840    8.1400   22.6980 Cl  0  0  0  0  0  0  0  0  0  0  0  0
    4.8820    3.9300   19.3250 C   0  0  1  0  0  0  0  0  0  0  0  0
    5.2700    4.5940   20.1090 H   0  0  0  0  0  0  0  0  0  0  0  0
    4.5610    2.5830   19.9830 C   0  0  0  0  0  0  0  0  0  0  0  0
    5.4160    1.8990   19.9410 H   0  0  0  0  0  0  0  0  0  0  0  0
    3.7190    2.0880   19.4840 H   0  0  0  0  0  0  0  0  0  0  0  0
    4.2890    2.7100   21.0360 H   0  0  0  0  0  0  0  0  0  0  0  0
    5.9540    3.8010   18.2200 C   0  0  0  0  0  0  0  0  0  0  0  0
    6.8330    3.2630   18.5960 H   0  0  0  0  0  0  0  0  0  0  0  0
    5.5540    3.1940   17.3990 H   0  0  0  0  0  0  0  0  0  0  0  0
    6.3970    5.1230   17.6860 C   0  0  0  0  0  0  0  0  0  0  0  0
    5.9900    5.6990   16.5710 N   0  0  0  0  0  0  0  0  0  0  0  0
    6.6320    6.9070   16.4500 N   0  0  0  0  0  0  0  0  0  0  0  0
    7.4110    7.0500   17.4940 C   0  0  0  0  0  0  0  0  0  0  0  0
    7.2940    5.9600   18.3000 N   0  0  0  0  0  0  0  0  0  0  0  0
    8.0500    7.8960   17.7020 H   0  0  0  0  0  0  0  0  0  0  0  0
    7.9740    5.7570   19.5490 C   0  0  0  0  0  0  0  0  0  0  0  0
    8.4300    6.7000   19.8570 H   0  0  0  0  0  0  0  0  0  0  0  0
    8.7520    5.0000   19.4250 H   0  0  0  0  0  0  0  0  0  0  0  0
    7.2450    5.4230   20.2920 H   0  0  0  0  0  0  0  0  0  0  0  0
  1 40  1  0  0  0  0
  2  7  1  0  0  0  0
  2  1  2  0  0  0  0
  3  2  1  0  0  0  0
  4  3  2  0  0  0  0
  4  5  1  0  0  0  0
  5  6  2  0  0  0  0
  6  1  1  0  0  0  0
  6 10  1  0  0  0  0
  8  3  1  0  0  0  0
  9  4  1  0  0  0  0
 11  5  1  0  0  0  0
 11 15  1  0  0  0  0
 12 13  1  0  0  0  0
 12 11  2  0  0  0  0
 13 14  1  0  0  0  0
 14 15  2  0  0  0  0
 14 19  1  0  0  0  0
 15 16  1  0  0  0  0
 16 17  2  0  0  0  0
 17 36  1  0  0  0  0
 18 17  1  0  0  0  0
 18 21  1  0  0  0  0
 19 18  2  0  0  0  0
 20 13  1  0  0  0  0
 22 19  1  0  0  0  0
 22 23  1  0  0  0  0
 23 24  1  0  0  0  0
 23 27  1  0  0  0  0
 24 29  1  0  0  0  0
 24 30  1  0  0  0  0
 25 31  1  6  0  0  0
 25 34  1  0  0  0  0
 25 24  1  0  0  0  0
 26 25  1  0  0  0  0
 26 22  1  0  0  0  0
 26 33  1  0  0  0  0
 28 23  1  0  0  0  0
 32 26  1  0  0  0  0
 35 34  1  0  0  0  0
 36 39  1  0  0  0  0
 36 37  1  0  0  0  0
 36 38  1  0  0  0  0
 40 42  1  0  0  0  0
 40 41  1  1  0  0  0
 42 45  1  0  0  0  0
 43 42  1  0  0  0  0
 44 42  1  0  0  0  0
 46 47  1  0  0  0  0
 46 40  1  0  0  0  0
 48 46  1  0  0  0  0
 49 46  1  0  0  0  0
 49 53  1  0  0  0  0
 50 49  2  0  0  0  0
 51 50  1  0  0  0  0
 51 52  2  0  0  0  0
 52 54  1  0  0  0  0
 52 53  1  0  0  0  0
 53 55  1  0  0  0  0
 55 56  1  0  0  0  0
 55 58  1  0  0  0  0
 57 55  1  0  0  0  0
M  END
>  <MODEL>
32

>  <REMARK>
 VINA RESULT:    -7.411      4.013      8.732
 INTER + INTRA:         -10.147
 INTER:                  -9.073
 INTRA:                  -1.074
 UNBOUND:                 0.514
  Name = 
  9 active torsions:
  status: ('A' for Active; 'I' for Inactive)
    1  A    between atoms: C_1  and  C_2
    2  A    between atoms: C_2  and  C_3
    3  A    between atoms: C_2  and  C_10
    4  A    between atoms: C_3  and  C_4
    5  A    between atoms: N_8  and  C_9
    6  A    between atoms: C_14  and  C_16
    7  A    between atoms: C_22  and  C_31
    8  A    between atoms: C_24  and  N_25
    9  A    between atoms: C_28  and  O_30
                            x       y       z     vdW  Elec       q    Type
                         _______ _______ _______ _____ _____    ______ ____

>  <TORSDO>
F 9

$$$$
