=
 OpenBabel07192307433D

 24 25  0  0  0  0  0  0  0  0999 V2000
    4.8290    4.9930   16.6480 N   0  0  0  0  0  0  0  0  0  0  0  0
    4.9410    6.3570   16.5930 C   0  0  0  0  0  0  0  0  0  0  0  0
    4.1720    6.9430   17.4910 N   0  0  0  0  0  0  0  0  0  0  0  0
    3.5550    5.9120   18.1330 C   0  0  0  0  0  0  0  0  0  0  0  0
    3.9370    4.7030   17.6390 C   0  0  0  0  0  0  0  0  0  0  0  0
    3.4400    3.4660   18.1350 C   0  0  0  0  0  0  0  0  0  0  0  0
    3.7920    2.3810   17.6830 O   0  0  0  0  0  0  0  0  0  0  0  0
    2.5240    3.6310   19.1780 N   0  0  0  0  0  0  0  0  0  0  0  0
    2.1040    4.8650   19.7160 C   0  0  0  0  0  0  0  0  0  0  0  0
    1.2860    4.9080   20.6410 O   0  0  0  0  0  0  0  0  0  0  0  0
    2.6500    6.0230   19.1610 N   0  0  0  0  0  0  0  0  0  0  0  0
    5.5870    6.8680   15.8910 H   0  0  0  0  0  0  0  0  0  0  0  0
    5.5260    4.0480   15.8120 C   0  0  0  0  0  0  0  0  0  0  0  0
    5.7650    3.1650   16.4090 H   0  0  0  0  0  0  0  0  0  0  0  0
    6.4380    4.5210   15.4370 H   0  0  0  0  0  0  0  0  0  0  0  0
    4.8880    3.7640   14.9720 H   0  0  0  0  0  0  0  0  0  0  0  0
    2.2690    7.3330   19.6570 C   0  0  0  0  0  0  0  0  0  0  0  0
    1.2570    7.5660   19.3100 H   0  0  0  0  0  0  0  0  0  0  0  0
    2.9470    8.1150   19.3030 H   0  0  0  0  0  0  0  0  0  0  0  0
    2.2900    7.3220   20.7510 H   0  0  0  0  0  0  0  0  0  0  0  0
    1.9430    2.4430   19.7720 C   0  0  0  0  0  0  0  0  0  0  0  0
    1.3080    1.9480   19.0300 H   0  0  0  0  0  0  0  0  0  0  0  0
    1.3180    2.7380   20.6210 H   0  0  0  0  0  0  0  0  0  0  0  0
    2.6990    1.7330   20.1180 H   0  0  0  0  0  0  0  0  0  0  0  0
  1  5  1  0  0  0  0
  2  1  1  0  0  0  0
  2  3  2  0  0  0  0
  3  4  1  0  0  0  0
  4 11  1  0  0  0  0
  5  4  2  0  0  0  0
  5  6  1  0  0  0  0
  6  8  1  0  0  0  0
  7  6  2  0  0  0  0
  8  9  1  0  0  0  0
  8 21  1  0  0  0  0
  9 10  2  0  0  0  0
 11 17  1  0  0  0  0
 11  9  1  0  0  0  0
 12  2  1  0  0  0  0
 13 14  1  0  0  0  0
 13  1  1  0  0  0  0
 15 13  1  0  0  0  0
 16 13  1  0  0  0  0
 17 20  1  0  0  0  0
 18 17  1  0  0  0  0
 19 17  1  0  0  0  0
 21 24  1  0  0  0  0
 21 23  1  0  0  0  0
 22 21  1  0  0  0  0
M  END
>  <MODEL>
1

>  <REMARK>
 VINA RESULT:    -5.147      0.000      0.000
 INTER + INTRA:          -5.598
 INTER:                  -5.598
 INTRA:                   0.000
 UNBOUND:                 0.000
  Name = 
  3 active torsions:
  status: ('A' for Active; 'I' for Inactive)
    1  A    between atoms: C_1  and  N_2
    2  A    between atoms: N_9  and  C_14
    3  A    between atoms: N_12  and  C_13
                            x       y       z     vdW  Elec       q    Type
                         _______ _______ _______ _____ _____    ______ ____

>  <TORSDO>
F 3

$$$$
=
 OpenBabel07192307433D

 24 25  0  0  0  0  0  0  0  0999 V2000
    2.7170    3.1320   20.3330 N   0  0  0  0  0  0  0  0  0  0  0  0
    3.5150    2.1770   19.7610 C   0  0  0  0  0  0  0  0  0  0  0  0
    4.1860    2.6580   18.7320 N   0  0  0  0  0  0  0  0  0  0  0  0
    3.7980    3.9620   18.6550 C   0  0  0  0  0  0  0  0  0  0  0  0
    2.8980    4.2830   19.6230 C   0  0  0  0  0  0  0  0  0  0  0  0
    2.3340    5.5810   19.7630 C   0  0  0  0  0  0  0  0  0  0  0  0
    1.5230    5.8610   20.6400 O   0  0  0  0  0  0  0  0  0  0  0  0
    2.8050    6.4820   18.8030 N   0  0  0  0  0  0  0  0  0  0  0  0
    3.7360    6.1870   17.7860 C   0  0  0  0  0  0  0  0  0  0  0  0
    4.0920    7.0530   16.9800 O   0  0  0  0  0  0  0  0  0  0  0  0
    4.2320    4.8830   17.7320 N   0  0  0  0  0  0  0  0  0  0  0  0
    3.5700    1.1600   20.1250 H   0  0  0  0  0  0  0  0  0  0  0  0
    1.8540    2.9480   21.4720 C   0  0  0  0  0  0  0  0  0  0  0  0
    2.3750    3.3010   22.3650 H   0  0  0  0  0  0  0  0  0  0  0  0
    1.6130    1.8850   21.5580 H   0  0  0  0  0  0  0  0  0  0  0  0
    0.9350    3.5230   21.3300 H   0  0  0  0  0  0  0  0  0  0  0  0
    5.1930    4.4970   16.7150 C   0  0  0  0  0  0  0  0  0  0  0  0
    5.7280    3.6030   17.0510 H   0  0  0  0  0  0  0  0  0  0  0  0
    5.9220    5.2890   16.5230 H   0  0  0  0  0  0  0  0  0  0  0  0
    4.6610    4.2790   15.7840 H   0  0  0  0  0  0  0  0  0  0  0  0
    2.3050    7.8420   18.8380 C   0  0  0  0  0  0  0  0  0  0  0  0
    3.1440    8.5260   19.0060 H   0  0  0  0  0  0  0  0  0  0  0  0
    1.6050    7.9420   19.6740 H   0  0  0  0  0  0  0  0  0  0  0  0
    1.7970    8.1280   17.9140 H   0  0  0  0  0  0  0  0  0  0  0  0
  1 13  1  0  0  0  0
  2 12  1  0  0  0  0
  2  1  1  0  0  0  0
  3  2  2  0  0  0  0
  4  3  1  0  0  0  0
  4  5  2  0  0  0  0
  5  6  1  0  0  0  0
  5  1  1  0  0  0  0
  6  7  2  0  0  0  0
  8 21  1  0  0  0  0
  8  6  1  0  0  0  0
  9  8  1  0  0  0  0
 10  9  2  0  0  0  0
 11  9  1  0  0  0  0
 11  4  1  0  0  0  0
 13 15  1  0  0  0  0
 13 14  1  0  0  0  0
 16 13  1  0  0  0  0
 17 18  1  0  0  0  0
 17 11  1  0  0  0  0
 19 17  1  0  0  0  0
 20 17  1  0  0  0  0
 21 22  1  0  0  0  0
 21 23  1  0  0  0  0
 24 21  1  0  0  0  0
M  END
>  <MODEL>
2

>  <REMARK>
 VINA RESULT:    -5.041      1.716      4.350
 INTER + INTRA:          -5.483
 INTER:                  -5.483
 INTRA:                   0.000
 UNBOUND:                 0.000
  Name = 
  3 active torsions:
  status: ('A' for Active; 'I' for Inactive)
    1  A    between atoms: C_1  and  N_2
    2  A    between atoms: N_9  and  C_14
    3  A    between atoms: N_12  and  C_13
                            x       y       z     vdW  Elec       q    Type
                         _______ _______ _______ _____ _____    ______ ____

>  <TORSDO>
F 3

$$$$
=
 OpenBabel07192307433D

 24 25  0  0  0  0  0  0  0  0999 V2000
    4.1650    6.3230   17.1680 N   0  0  0  0  0  0  0  0  0  0  0  0
    3.5410    7.3610   17.8080 C   0  0  0  0  0  0  0  0  0  0  0  0
    2.7610    6.9320   18.7810 N   0  0  0  0  0  0  0  0  0  0  0  0
    2.8980    5.5780   18.7540 C   0  0  0  0  0  0  0  0  0  0  0  0
    3.7530    5.1730   17.7750 C   0  0  0  0  0  0  0  0  0  0  0  0
    4.0710    3.8080   17.5340 C   0  0  0  0  0  0  0  0  0  0  0  0
    4.8440    3.4530   16.6490 O   0  0  0  0  0  0  0  0  0  0  0  0
    3.4130    2.9360   18.4080 N   0  0  0  0  0  0  0  0  0  0  0  0
    2.5220    3.3180   19.4320 C   0  0  0  0  0  0  0  0  0  0  0  0
    1.9870    2.4710   20.1550 O   0  0  0  0  0  0  0  0  0  0  0  0
    2.2750    4.6820   19.5890 N   0  0  0  0  0  0  0  0  0  0  0  0
    3.6860    8.3970   17.5300 H   0  0  0  0  0  0  0  0  0  0  0  0
    5.0820    6.4350   16.0630 C   0  0  0  0  0  0  0  0  0  0  0  0
    5.4740    7.4540   16.0370 H   0  0  0  0  0  0  0  0  0  0  0  0
    4.5460    6.2010   15.1390 H   0  0  0  0  0  0  0  0  0  0  0  0
    5.9050    5.7270   16.1990 H   0  0  0  0  0  0  0  0  0  0  0  0
    1.3690    5.1570   20.6190 C   0  0  0  0  0  0  0  0  0  0  0  0
    0.8480    4.3010   21.0590 H   0  0  0  0  0  0  0  0  0  0  0  0
    0.6250    5.8500   20.2180 H   0  0  0  0  0  0  0  0  0  0  0  0
    1.9470    5.6730   21.3920 H   0  0  0  0  0  0  0  0  0  0  0  0
    3.6530    1.5150   18.2640 C   0  0  0  0  0  0  0  0  0  0  0  0
    3.0600    1.1360   17.4250 H   0  0  0  0  0  0  0  0  0  0  0  0
    3.3270    1.0040   19.1770 H   0  0  0  0  0  0  0  0  0  0  0  0
    4.7060    1.2810   18.0860 H   0  0  0  0  0  0  0  0  0  0  0  0
  1  5  1  0  0  0  0
  1  2  1  0  0  0  0
  2  3  2  0  0  0  0
  4  3  1  0  0  0  0
  4 11  1  0  0  0  0
  5  4  2  0  0  0  0
  6  5  1  0  0  0  0
  6  8  1  0  0  0  0
  7  6  2  0  0  0  0
  8  9  1  0  0  0  0
  9 11  1  0  0  0  0
  9 10  2  0  0  0  0
 11 17  1  0  0  0  0
 12  2  1  0  0  0  0
 13 16  1  0  0  0  0
 13  1  1  0  0  0  0
 14 13  1  0  0  0  0
 15 13  1  0  0  0  0
 17 18  1  0  0  0  0
 17 20  1  0  0  0  0
 19 17  1  0  0  0  0
 21  8  1  0  0  0  0
 21 23  1  0  0  0  0
 22 21  1  0  0  0  0
 24 21  1  0  0  0  0
M  END
>  <MODEL>
3

>  <REMARK>
 VINA RESULT:    -5.016      1.453      1.847
 INTER + INTRA:          -5.456
 INTER:                  -5.456
 INTRA:                   0.000
 UNBOUND:                 0.000
  Name = 
  3 active torsions:
  status: ('A' for Active; 'I' for Inactive)
    1  A    between atoms: C_1  and  N_2
    2  A    between atoms: N_9  and  C_14
    3  A    between atoms: N_12  and  C_13
                            x       y       z     vdW  Elec       q    Type
                         _______ _______ _______ _____ _____    ______ ____

>  <TORSDO>
F 3

$$$$
=
 OpenBabel07192307433D

 24 25  0  0  0  0  0  0  0  0999 V2000
    4.7130    5.1480   16.6130 N   0  0  0  0  0  0  0  0  0  0  0  0
    4.9070    3.7930   16.5350 C   0  0  0  0  0  0  0  0  0  0  0  0
    4.2610    3.1550   17.4910 N   0  0  0  0  0  0  0  0  0  0  0  0
    3.6380    4.1400   18.1960 C   0  0  0  0  0  0  0  0  0  0  0  0
    3.8960    5.3750   17.6820 C   0  0  0  0  0  0  0  0  0  0  0  0
    3.3670    6.5740   18.2330 C   0  0  0  0  0  0  0  0  0  0  0  0
    3.6050    7.6810   17.7620 O   0  0  0  0  0  0  0  0  0  0  0  0
    2.5590    6.3450   19.3510 N   0  0  0  0  0  0  0  0  0  0  0  0
    2.2690    5.0840   19.9120 C   0  0  0  0  0  0  0  0  0  0  0  0
    1.5410    4.9840   20.9050 O   0  0  0  0  0  0  0  0  0  0  0  0
    2.8360    3.9670   19.2980 N   0  0  0  0  0  0  0  0  0  0  0  0
    5.5190    3.3290   15.7730 H   0  0  0  0  0  0  0  0  0  0  0  0
    5.2710    6.1390   15.7280 C   0  0  0  0  0  0  0  0  0  0  0  0
    6.2270    6.4730   16.1380 H   0  0  0  0  0  0  0  0  0  0  0  0
    4.5690    6.9730   15.6520 H   0  0  0  0  0  0  0  0  0  0  0  0
    5.4270    5.6980   14.7400 H   0  0  0  0  0  0  0  0  0  0  0  0
    2.5880    2.6330   19.8140 C   0  0  0  0  0  0  0  0  0  0  0  0
    1.8690    2.6960   20.6380 H   0  0  0  0  0  0  0  0  0  0  0  0
    3.5030    2.1640   20.1860 H   0  0  0  0  0  0  0  0  0  0  0  0
    2.1770    2.0100   19.0130 H   0  0  0  0  0  0  0  0  0  0  0  0
    1.9580    7.4900   20.0050 C   0  0  0  0  0  0  0  0  0  0  0  0
    1.8560    7.2770   21.0740 H   0  0  0  0  0  0  0  0  0  0  0  0
    0.9580    7.6550   19.5890 H   0  0  0  0  0  0  0  0  0  0  0  0
    2.5470    8.4030   19.8820 H   0  0  0  0  0  0  0  0  0  0  0  0
  1  5  1  0  0  0  0
  2  1  1  0  0  0  0
  2  3  2  0  0  0  0
  3  4  1  0  0  0  0
  4 11  1  0  0  0  0
  5  4  2  0  0  0  0
  5  6  1  0  0  0  0
  6  8  1  0  0  0  0
  7  6  2  0  0  0  0
  8  9  1  0  0  0  0
  8 21  1  0  0  0  0
  9 10  2  0  0  0  0
 11 17  1  0  0  0  0
 11  9  1  0  0  0  0
 12  2  1  0  0  0  0
 13 14  1  0  0  0  0
 13  1  1  0  0  0  0
 15 13  1  0  0  0  0
 16 13  1  0  0  0  0
 17 19  1  0  0  0  0
 17 18  1  0  0  0  0
 20 17  1  0  0  0  0
 21 22  1  0  0  0  0
 23 21  1  0  0  0  0
 24 21  1  0  0  0  0
M  END
>  <MODEL>
4

>  <REMARK>
 VINA RESULT:    -4.942      1.492      3.006
 INTER + INTRA:          -5.375
 INTER:                  -5.375
 INTRA:                   0.000
 UNBOUND:                 0.000
  Name = 
  3 active torsions:
  status: ('A' for Active; 'I' for Inactive)
    1  A    between atoms: C_1  and  N_2
    2  A    between atoms: N_9  and  C_14
    3  A    between atoms: N_12  and  C_13
                            x       y       z     vdW  Elec       q    Type
                         _______ _______ _______ _____ _____    ______ ____

>  <TORSDO>
F 3

$$$$
=
 OpenBabel07192307433D

 24 25  0  0  0  0  0  0  0  0999 V2000
    4.7040    5.5470   16.8860 N   0  0  0  0  0  0  0  0  0  0  0  0
    5.2720    4.4900   16.2250 C   0  0  0  0  0  0  0  0  0  0  0  0
    4.9010    3.3360   16.7460 N   0  0  0  0  0  0  0  0  0  0  0  0
    4.0700    3.6780   17.7700 C   0  0  0  0  0  0  0  0  0  0  0  0
    3.9290    5.0270   17.8820 C   0  0  0  0  0  0  0  0  0  0  0  0
    3.1160    5.6460   18.8710 C   0  0  0  0  0  0  0  0  0  0  0  0
    2.9950    6.8630   18.9630 O   0  0  0  0  0  0  0  0  0  0  0  0
    2.4830    4.7210   19.7070 N   0  0  0  0  0  0  0  0  0  0  0  0
    2.6050    3.3180   19.6220 C   0  0  0  0  0  0  0  0  0  0  0  0
    2.0050    2.5810   20.4110 O   0  0  0  0  0  0  0  0  0  0  0  0
    3.4270    2.8080   18.6170 N   0  0  0  0  0  0  0  0  0  0  0  0
    5.9400    4.6120   15.3820 H   0  0  0  0  0  0  0  0  0  0  0  0
    4.8940    6.9420   16.5810 C   0  0  0  0  0  0  0  0  0  0  0  0
    5.9420    7.1000   16.3130 H   0  0  0  0  0  0  0  0  0  0  0  0
    4.6250    7.5320   17.4610 H   0  0  0  0  0  0  0  0  0  0  0  0
    4.2530    7.2220   15.7400 H   0  0  0  0  0  0  0  0  0  0  0  0
    3.6070    1.3760   18.4620 C   0  0  0  0  0  0  0  0  0  0  0  0
    4.0800    0.9760   19.3650 H   0  0  0  0  0  0  0  0  0  0  0  0
    4.2380    1.1360   17.6020 H   0  0  0  0  0  0  0  0  0  0  0  0
    2.6290    0.9060   18.3200 H   0  0  0  0  0  0  0  0  0  0  0  0
    1.6250    5.2260   20.7590 C   0  0  0  0  0  0  0  0  0  0  0  0
    1.0650    4.3920   21.1950 H   0  0  0  0  0  0  0  0  0  0  0  0
    0.9090    5.9340   20.3260 H   0  0  0  0  0  0  0  0  0  0  0  0
    2.1830    5.7300   21.5530 H   0  0  0  0  0  0  0  0  0  0  0  0
  1  5  1  0  0  0  0
  2  3  2  0  0  0  0
  2  1  1  0  0  0  0
  3  4  1  0  0  0  0
  4  5  2  0  0  0  0
  4 11  1  0  0  0  0
  5  6  1  0  0  0  0
  6  7  2  0  0  0  0
  6  8  1  0  0  0  0
  8 21  1  0  0  0  0
  9  8  1  0  0  0  0
  9 10  2  0  0  0  0
 11  9  1  0  0  0  0
 12  2  1  0  0  0  0
 13  1  1  0  0  0  0
 13 15  1  0  0  0  0
 14 13  1  0  0  0  0
 16 13  1  0  0  0  0
 17 11  1  0  0  0  0
 17 18  1  0  0  0  0
 19 17  1  0  0  0  0
 20 17  1  0  0  0  0
 21 22  1  0  0  0  0
 21 24  1  0  0  0  0
 23 21  1  0  0  0  0
M  END
>  <MODEL>
5

>  <REMARK>
 VINA RESULT:    -4.899      1.519      3.044
 INTER + INTRA:          -5.329
 INTER:                  -5.329
 INTRA:                   0.000
 UNBOUND:                 0.000
  Name = 
  3 active torsions:
  status: ('A' for Active; 'I' for Inactive)
    1  A    between atoms: C_1  and  N_2
    2  A    between atoms: N_9  and  C_14
    3  A    between atoms: N_12  and  C_13
                            x       y       z     vdW  Elec       q    Type
                         _______ _______ _______ _____ _____    ______ ____

>  <TORSDO>
F 3

$$$$
=
 OpenBabel07192307433D

 24 25  0  0  0  0  0  0  0  0999 V2000
    2.7530    6.9500   18.8160 N   0  0  0  0  0  0  0  0  0  0  0  0
    3.6190    7.4120   17.8600 C   0  0  0  0  0  0  0  0  0  0  0  0
    4.1970    6.4200   17.2100 N   0  0  0  0  0  0  0  0  0  0  0  0
    3.6770    5.2960   17.7750 C   0  0  0  0  0  0  0  0  0  0  0  0
    2.7870    5.5870   18.7630 C   0  0  0  0  0  0  0  0  0  0  0  0
    2.1020    4.5920   19.5130 C   0  0  0  0  0  0  0  0  0  0  0  0
    1.3010    4.8650   20.4020 O   0  0  0  0  0  0  0  0  0  0  0  0
    2.4400    3.2920   19.1240 N   0  0  0  0  0  0  0  0  0  0  0  0
    3.3550    2.9510   18.1060 C   0  0  0  0  0  0  0  0  0  0  0  0
    3.5900    1.7690   17.8350 O   0  0  0  0  0  0  0  0  0  0  0  0
    3.9770    4.0000   17.4280 N   0  0  0  0  0  0  0  0  0  0  0  0
    3.7910    8.4650   17.6800 H   0  0  0  0  0  0  0  0  0  0  0  0
    1.9580    7.7590   19.7050 C   0  0  0  0  0  0  0  0  0  0  0  0
    1.5400    7.1150   20.4820 H   0  0  0  0  0  0  0  0  0  0  0  0
    1.1620    8.2350   19.1250 H   0  0  0  0  0  0  0  0  0  0  0  0
    2.5890    8.5260   20.1620 H   0  0  0  0  0  0  0  0  0  0  0  0
    4.9320    3.7340   16.3680 C   0  0  0  0  0  0  0  0  0  0  0  0
    4.3900    3.5720   15.4300 H   0  0  0  0  0  0  0  0  0  0  0  0
    5.5370    2.8480   16.5780 H   0  0  0  0  0  0  0  0  0  0  0  0
    5.5990    4.5950   16.2630 H   0  0  0  0  0  0  0  0  0  0  0  0
    1.8080    2.1860   19.8140 C   0  0  0  0  0  0  0  0  0  0  0  0
    2.4400    1.2970   19.7170 H   0  0  0  0  0  0  0  0  0  0  0  0
    0.8420    1.9770   19.3410 H   0  0  0  0  0  0  0  0  0  0  0  0
    1.6450    2.3890   20.8750 H   0  0  0  0  0  0  0  0  0  0  0  0
  1 13  1  0  0  0  0
  2  1  1  0  0  0  0
  3  4  1  0  0  0  0
  3  2  2  0  0  0  0
  4  5  2  0  0  0  0
  5  1  1  0  0  0  0
  5  6  1  0  0  0  0
  6  7  2  0  0  0  0
  8  6  1  0  0  0  0
  8 21  1  0  0  0  0
  9  8  1  0  0  0  0
 10  9  2  0  0  0  0
 11  4  1  0  0  0  0
 11  9  1  0  0  0  0
 12  2  1  0  0  0  0
 13 16  1  0  0  0  0
 13 14  1  0  0  0  0
 15 13  1  0  0  0  0
 17 19  1  0  0  0  0
 17 11  1  0  0  0  0
 18 17  1  0  0  0  0
 20 17  1  0  0  0  0
 21 24  1  0  0  0  0
 22 21  1  0  0  0  0
 23 21  1  0  0  0  0
M  END
>  <MODEL>
6

>  <REMARK>
 VINA RESULT:    -4.882      0.882      3.367
 INTER + INTRA:          -5.310
 INTER:                  -5.310
 INTRA:                   0.000
 UNBOUND:                 0.000
  Name = 
  3 active torsions:
  status: ('A' for Active; 'I' for Inactive)
    1  A    between atoms: C_1  and  N_2
    2  A    between atoms: N_9  and  C_14
    3  A    between atoms: N_12  and  C_13
                            x       y       z     vdW  Elec       q    Type
                         _______ _______ _______ _____ _____    ______ ____

>  <TORSDO>
F 3

$$$$
=
 OpenBabel07192307433D

 24 25  0  0  0  0  0  0  0  0999 V2000
    2.5690    4.1680   20.4570 N   0  0  0  0  0  0  0  0  0  0  0  0
    1.7860    5.2180   20.8580 C   0  0  0  0  0  0  0  0  0  0  0  0
    1.9580    6.2740   20.0870 N   0  0  0  0  0  0  0  0  0  0  0  0
    2.8810    5.8760   19.1680 C   0  0  0  0  0  0  0  0  0  0  0  0
    3.2760    4.5890   19.3680 C   0  0  0  0  0  0  0  0  0  0  0  0
    4.2320    3.9310   18.5470 C   0  0  0  0  0  0  0  0  0  0  0  0
    4.5810    2.7700   18.7350 O   0  0  0  0  0  0  0  0  0  0  0  0
    4.7160    4.7470   17.5200 N   0  0  0  0  0  0  0  0  0  0  0  0
    4.3320    6.0830   17.2810 C   0  0  0  0  0  0  0  0  0  0  0  0
    4.8180    6.7250   16.3450 O   0  0  0  0  0  0  0  0  0  0  0  0
    3.3860    6.6390   18.1430 N   0  0  0  0  0  0  0  0  0  0  0  0
    1.1170    5.1630   21.7070 H   0  0  0  0  0  0  0  0  0  0  0  0
    2.6290    2.8670   21.0740 C   0  0  0  0  0  0  0  0  0  0  0  0
    3.4010    2.8840   21.8470 H   0  0  0  0  0  0  0  0  0  0  0  0
    2.8640    2.1270   20.3050 H   0  0  0  0  0  0  0  0  0  0  0  0
    1.6610    2.6330   21.5260 H   0  0  0  0  0  0  0  0  0  0  0  0
    2.9380    8.0090   17.9670 C   0  0  0  0  0  0  0  0  0  0  0  0
    2.1140    8.2070   18.6610 H   0  0  0  0  0  0  0  0  0  0  0  0
    2.5870    8.1940   16.9480 H   0  0  0  0  0  0  0  0  0  0  0  0
    3.7690    8.6880   18.1800 H   0  0  0  0  0  0  0  0  0  0  0  0
    5.6990    4.1910   16.6110 C   0  0  0  0  0  0  0  0  0  0  0  0
    6.6560    4.7000   16.7670 H   0  0  0  0  0  0  0  0  0  0  0  0
    5.3750    4.3730   15.5810 H   0  0  0  0  0  0  0  0  0  0  0  0
    5.8430    3.1170   16.7530 H   0  0  0  0  0  0  0  0  0  0  0  0
  1  2  1  0  0  0  0
  1 13  1  0  0  0  0
  2 12  1  0  0  0  0
  3  2  2  0  0  0  0
  4  5  2  0  0  0  0
  4  3  1  0  0  0  0
  5  1  1  0  0  0  0
  6  7  2  0  0  0  0
  6  5  1  0  0  0  0
  8  6  1  0  0  0  0
  9  8  1  0  0  0  0
  9 11  1  0  0  0  0
 10  9  2  0  0  0  0
 11  4  1  0  0  0  0
 13 16  1  0  0  0  0
 13 14  1  0  0  0  0
 15 13  1  0  0  0  0
 17 11  1  0  0  0  0
 17 20  1  0  0  0  0
 17 18  1  0  0  0  0
 19 17  1  0  0  0  0
 21 24  1  0  0  0  0
 21 22  1  0  0  0  0
 21  8  1  0  0  0  0
 23 21  1  0  0  0  0
M  END
>  <MODEL>
7

>  <REMARK>
 VINA RESULT:    -4.874      1.737      3.736
 INTER + INTRA:          -5.302
 INTER:                  -5.302
 INTRA:                   0.000
 UNBOUND:                 0.000
  Name = 
  3 active torsions:
  status: ('A' for Active; 'I' for Inactive)
    1  A    between atoms: C_1  and  N_2
    2  A    between atoms: N_9  and  C_14
    3  A    between atoms: N_12  and  C_13
                            x       y       z     vdW  Elec       q    Type
                         _______ _______ _______ _____ _____    ______ ____

>  <TORSDO>
F 3

$$$$
=
 OpenBabel07192307433D

 24 25  0  0  0  0  0  0  0  0999 V2000
    1.9940    5.9010   20.1730 N   0  0  0  0  0  0  0  0  0  0  0  0
    1.5970    4.7300   20.7640 C   0  0  0  0  0  0  0  0  0  0  0  0
    2.1130    3.6810   20.1550 N   0  0  0  0  0  0  0  0  0  0  0  0
    2.8600    4.2070   19.1460 C   0  0  0  0  0  0  0  0  0  0  0  0
    2.8080    5.5680   19.1300 C   0  0  0  0  0  0  0  0  0  0  0  0
    3.5000    6.3630   18.1760 C   0  0  0  0  0  0  0  0  0  0  0  0
    3.4470    7.5890   18.1710 O   0  0  0  0  0  0  0  0  0  0  0  0
    4.2350    5.5980   17.2650 N   0  0  0  0  0  0  0  0  0  0  0  0
    4.3140    4.1900   17.2490 C   0  0  0  0  0  0  0  0  0  0  0  0
    4.9910    3.6020   16.4000 O   0  0  0  0  0  0  0  0  0  0  0  0
    3.5980    3.4990   18.2270 N   0  0  0  0  0  0  0  0  0  0  0  0
    0.9400    4.6980   21.6230 H   0  0  0  0  0  0  0  0  0  0  0  0
    1.6170    7.2300   20.5820 C   0  0  0  0  0  0  0  0  0  0  0  0
    1.5980    7.8740   19.6990 H   0  0  0  0  0  0  0  0  0  0  0  0
    2.3480    7.5910   21.3100 H   0  0  0  0  0  0  0  0  0  0  0  0
    0.6250    7.2030   21.0400 H   0  0  0  0  0  0  0  0  0  0  0  0
    3.6250    2.0490   18.2800 C   0  0  0  0  0  0  0  0  0  0  0  0
    3.2310    1.7190   19.2470 H   0  0  0  0  0  0  0  0  0  0  0  0
    4.6390    1.6560   18.1650 H   0  0  0  0  0  0  0  0  0  0  0  0
    3.0030    1.6500   17.4730 H   0  0  0  0  0  0  0  0  0  0  0  0
    4.9870    6.2930   16.2390 C   0  0  0  0  0  0  0  0  0  0  0  0
    6.0570    6.1510   16.4240 H   0  0  0  0  0  0  0  0  0  0  0  0
    4.7640    7.3640   16.2980 H   0  0  0  0  0  0  0  0  0  0  0  0
    4.7530    5.9380   15.2320 H   0  0  0  0  0  0  0  0  0  0  0  0
  1 13  1  0  0  0  0
  1  2  1  0  0  0  0
  2 12  1  0  0  0  0
  3  2  2  0  0  0  0
  4  3  1  0  0  0  0
  5  4  2  0  0  0  0
  5  1  1  0  0  0  0
  6  5  1  0  0  0  0
  7  6  2  0  0  0  0
  8  6  1  0  0  0  0
  9  8  1  0  0  0  0
  9 11  1  0  0  0  0
 10  9  2  0  0  0  0
 11 17  1  0  0  0  0
 11  4  1  0  0  0  0
 13 16  1  0  0  0  0
 13 15  1  0  0  0  0
 14 13  1  0  0  0  0
 17 18  1  0  0  0  0
 19 17  1  0  0  0  0
 20 17  1  0  0  0  0
 21 23  1  0  0  0  0
 21 22  1  0  0  0  0
 21  8  1  0  0  0  0
 24 21  1  0  0  0  0
M  END
>  <MODEL>
8

>  <REMARK>
 VINA RESULT:    -4.837      1.720      4.620
 INTER + INTRA:          -5.261
 INTER:                  -5.261
 INTRA:                   0.000
 UNBOUND:                 0.000
  Name = 
  3 active torsions:
  status: ('A' for Active; 'I' for Inactive)
    1  A    between atoms: C_1  and  N_2
    2  A    between atoms: N_9  and  C_14
    3  A    between atoms: N_12  and  C_13
                            x       y       z     vdW  Elec       q    Type
                         _______ _______ _______ _____ _____    ______ ____

>  <TORSDO>
F 3

$$$$
=
 OpenBabel07192307433D

 24 25  0  0  0  0  0  0  0  0999 V2000
    3.0400    2.6730   19.0330 N   0  0  0  0  0  0  0  0  0  0  0  0
    2.2040    2.8670   20.1010 C   0  0  0  0  0  0  0  0  0  0  0  0
    1.9580    4.1480   20.2980 N   0  0  0  0  0  0  0  0  0  0  0  0
    2.6620    4.7830   19.3200 C   0  0  0  0  0  0  0  0  0  0  0  0
    3.3360    3.9050   18.5270 C   0  0  0  0  0  0  0  0  0  0  0  0
    4.1470    4.3100   17.4310 C   0  0  0  0  0  0  0  0  0  0  0  0
    4.7500    3.5110   16.7220 O   0  0  0  0  0  0  0  0  0  0  0  0
    4.1740    5.6980   17.2610 N   0  0  0  0  0  0  0  0  0  0  0  0
    3.4900    6.6370   18.0610 C   0  0  0  0  0  0  0  0  0  0  0  0
    3.5770    7.8480   17.8310 O   0  0  0  0  0  0  0  0  0  0  0  0
    2.7200    6.1400   19.1130 N   0  0  0  0  0  0  0  0  0  0  0  0
    1.8090    2.0540   20.6950 H   0  0  0  0  0  0  0  0  0  0  0  0
    3.5110    1.4030   18.5420 C   0  0  0  0  0  0  0  0  0  0  0  0
    4.5870    1.3370   18.7230 H   0  0  0  0  0  0  0  0  0  0  0  0
    3.2920    1.3400   17.4720 H   0  0  0  0  0  0  0  0  0  0  0  0
    2.9980    0.5950   19.0700 H   0  0  0  0  0  0  0  0  0  0  0  0
    1.9850    7.0400   19.9830 C   0  0  0  0  0  0  0  0  0  0  0  0
    1.1070    7.4170   19.4490 H   0  0  0  0  0  0  0  0  0  0  0  0
    2.5950    7.8920   20.2950 H   0  0  0  0  0  0  0  0  0  0  0  0
    1.6660    6.4940   20.8760 H   0  0  0  0  0  0  0  0  0  0  0  0
    4.9680    6.2380   16.1760 C   0  0  0  0  0  0  0  0  0  0  0  0
    5.7760    5.5380   15.9430 H   0  0  0  0  0  0  0  0  0  0  0  0
    5.4130    7.1860   16.4970 H   0  0  0  0  0  0  0  0  0  0  0  0
    4.3800    6.4120   15.2710 H   0  0  0  0  0  0  0  0  0  0  0  0
  1  2  1  0  0  0  0
  2  3  2  0  0  0  0
  2 12  1  0  0  0  0
  4  3  1  0  0  0  0
  5  1  1  0  0  0  0
  5  4  2  0  0  0  0
  6  5  1  0  0  0  0
  7  6  2  0  0  0  0
  8  6  1  0  0  0  0
  8  9  1  0  0  0  0
  9 11  1  0  0  0  0
 10  9  2  0  0  0  0
 11  4  1  0  0  0  0
 11 17  1  0  0  0  0
 13 14  1  0  0  0  0
 13  1  1  0  0  0  0
 13 16  1  0  0  0  0
 15 13  1  0  0  0  0
 17 19  1  0  0  0  0
 17 20  1  0  0  0  0
 18 17  1  0  0  0  0
 21 23  1  0  0  0  0
 21  8  1  0  0  0  0
 22 21  1  0  0  0  0
 24 21  1  0  0  0  0
M  END
>  <MODEL>
9

>  <REMARK>
 VINA RESULT:    -4.789      1.606      3.510
 INTER + INTRA:          -5.209
 INTER:                  -5.209
 INTRA:                   0.000
 UNBOUND:                 0.000
  Name = 
  3 active torsions:
  status: ('A' for Active; 'I' for Inactive)
    1  A    between atoms: C_1  and  N_2
    2  A    between atoms: N_9  and  C_14
    3  A    between atoms: N_12  and  C_13
                            x       y       z     vdW  Elec       q    Type
                         _______ _______ _______ _____ _____    ______ ____

>  <TORSDO>
F 3

$$$$
=
 OpenBabel07192307433D

 24 25  0  0  0  0  0  0  0  0999 V2000
    4.1100    3.3850   17.4100 N   0  0  0  0  0  0  0  0  0  0  0  0
    3.8570    2.1230   17.8790 C   0  0  0  0  0  0  0  0  0  0  0  0
    3.0620    2.1470   18.9310 N   0  0  0  0  0  0  0  0  0  0  0  0
    2.8040    3.4690   19.1300 C   0  0  0  0  0  0  0  0  0  0  0  0
    3.4320    4.2550   18.2130 C   0  0  0  0  0  0  0  0  0  0  0  0
    3.3280    5.6730   18.1990 C   0  0  0  0  0  0  0  0  0  0  0  0
    3.8980    6.3710   17.3670 O   0  0  0  0  0  0  0  0  0  0  0  0
    2.5140    6.1660   19.2230 N   0  0  0  0  0  0  0  0  0  0  0  0
    1.8470    5.3850   20.1910 C   0  0  0  0  0  0  0  0  0  0  0  0
    1.1480    5.9150   21.0610 O   0  0  0  0  0  0  0  0  0  0  0  0
    2.0130    4.0020   20.1200 N   0  0  0  0  0  0  0  0  0  0  0  0
    4.2720    1.2320   17.4270 H   0  0  0  0  0  0  0  0  0  0  0  0
    4.9360    3.7210   16.2780 C   0  0  0  0  0  0  0  0  0  0  0  0
    4.5530    4.6400   15.8270 H   0  0  0  0  0  0  0  0  0  0  0  0
    4.9030    2.8940   15.5630 H   0  0  0  0  0  0  0  0  0  0  0  0
    5.9660    3.8760   16.6120 H   0  0  0  0  0  0  0  0  0  0  0  0
    1.3610    3.1270   21.0790 C   0  0  0  0  0  0  0  0  0  0  0  0
    0.6260    2.5080   20.5550 H   0  0  0  0  0  0  0  0  0  0  0  0
    0.8470    3.6920   21.8610 H   0  0  0  0  0  0  0  0  0  0  0  0
    2.1140    2.4870   21.5480 H   0  0  0  0  0  0  0  0  0  0  0  0
    2.3260    7.5990   19.3180 C   0  0  0  0  0  0  0  0  0  0  0  0
    3.2830    8.0970   19.1280 H   0  0  0  0  0  0  0  0  0  0  0  0
    2.0010    7.8500   20.3330 H   0  0  0  0  0  0  0  0  0  0  0  0
    1.5870    7.9750   18.6060 H   0  0  0  0  0  0  0  0  0  0  0  0
  1  2  1  0  0  0  0
  1  5  1  0  0  0  0
  2  3  2  0  0  0  0
  3  4  1  0  0  0  0
  4 11  1  0  0  0  0
  5  4  2  0  0  0  0
  6  5  1  0  0  0  0
  6  8  1  0  0  0  0
  7  6  2  0  0  0  0
  8 21  1  0  0  0  0
  8  9  1  0  0  0  0
  9 10  2  0  0  0  0
 11  9  1  0  0  0  0
 11 17  1  0  0  0  0
 12  2  1  0  0  0  0
 13 16  1  0  0  0  0
 13  1  1  0  0  0  0
 14 13  1  0  0  0  0
 15 13  1  0  0  0  0
 17 20  1  0  0  0  0
 17 19  1  0  0  0  0
 18 17  1  0  0  0  0
 21 23  1  0  0  0  0
 22 21  1  0  0  0  0
 24 21  1  0  0  0  0
M  END
>  <MODEL>
10

>  <REMARK>
 VINA RESULT:    -4.709      1.678      3.182
 INTER + INTRA:          -5.122
 INTER:                  -5.122
 INTRA:                   0.000
 UNBOUND:                 0.000
  Name = 
  3 active torsions:
  status: ('A' for Active; 'I' for Inactive)
    1  A    between atoms: C_1  and  N_2
    2  A    between atoms: N_9  and  C_14
    3  A    between atoms: N_12  and  C_13
                            x       y       z     vdW  Elec       q    Type
                         _______ _______ _______ _____ _____    ______ ____

>  <TORSDO>
F 3

$$$$
=
 OpenBabel07192307433D

 24 25  0  0  0  0  0  0  0  0999 V2000
    2.3560    7.4380   19.0320 N   0  0  0  0  0  0  0  0  0  0  0  0
    1.6030    7.4150   20.1760 C   0  0  0  0  0  0  0  0  0  0  0  0
    1.6560    6.2370   20.7670 N   0  0  0  0  0  0  0  0  0  0  0  0
    2.4710    5.4930   19.9690 C   0  0  0  0  0  0  0  0  0  0  0  0
    2.9170    6.2020   18.8950 C   0  0  0  0  0  0  0  0  0  0  0  0
    3.7820    5.6570   17.9070 C   0  0  0  0  0  0  0  0  0  0  0  0
    4.1790    6.3050   16.9440 O   0  0  0  0  0  0  0  0  0  0  0  0
    4.1210    4.3240   18.1600 N   0  0  0  0  0  0  0  0  0  0  0  0
    3.6790    3.5580   19.2590 C   0  0  0  0  0  0  0  0  0  0  0  0
    4.0340    2.3830   19.3960 O   0  0  0  0  0  0  0  0  0  0  0  0
    2.8320    4.1830   20.1740 N   0  0  0  0  0  0  0  0  0  0  0  0
    1.0420    8.2700   20.5300 H   0  0  0  0  0  0  0  0  0  0  0  0
    2.5200    8.5620   18.1450 C   0  0  0  0  0  0  0  0  0  0  0  0
    1.6210    8.6560   17.5310 H   0  0  0  0  0  0  0  0  0  0  0  0
    3.4010    8.3890   17.5210 H   0  0  0  0  0  0  0  0  0  0  0  0
    2.6610    9.4730   18.7330 H   0  0  0  0  0  0  0  0  0  0  0  0
    2.3320    3.4640   21.3320 C   0  0  0  0  0  0  0  0  0  0  0  0
    2.8520    3.8230   22.2270 H   0  0  0  0  0  0  0  0  0  0  0  0
    2.4950    2.3870   21.2430 H   0  0  0  0  0  0  0  0  0  0  0  0
    1.2580    3.6490   21.4320 H   0  0  0  0  0  0  0  0  0  0  0  0
    5.0000    3.6530   17.2230 C   0  0  0  0  0  0  0  0  0  0  0  0
    4.7730    2.5820   17.2260 H   0  0  0  0  0  0  0  0  0  0  0  0
    6.0370    3.7880   17.5480 H   0  0  0  0  0  0  0  0  0  0  0  0
    4.8970    4.0330   16.2030 H   0  0  0  0  0  0  0  0  0  0  0  0
  1  2  1  0  0  0  0
  2 12  1  0  0  0  0
  2  3  2  0  0  0  0
  4 11  1  0  0  0  0
  4  3  1  0  0  0  0
  5  1  1  0  0  0  0
  5  4  2  0  0  0  0
  6  8  1  0  0  0  0
  6  5  1  0  0  0  0
  7  6  2  0  0  0  0
  8  9  1  0  0  0  0
  9 10  2  0  0  0  0
  9 11  1  0  0  0  0
 11 17  1  0  0  0  0
 13 16  1  0  0  0  0
 13  1  1  0  0  0  0
 14 13  1  0  0  0  0
 15 13  1  0  0  0  0
 17 20  1  0  0  0  0
 17 18  1  0  0  0  0
 19 17  1  0  0  0  0
 21 22  1  0  0  0  0
 21 23  1  0  0  0  0
 21  8  1  0  0  0  0
 24 21  1  0  0  0  0
M  END
>  <MODEL>
11

>  <REMARK>
 VINA RESULT:    -4.640      1.784      3.678
 INTER + INTRA:          -5.046
 INTER:                  -5.046
 INTRA:                   0.000
 UNBOUND:                 0.000
  Name = 
  3 active torsions:
  status: ('A' for Active; 'I' for Inactive)
    1  A    between atoms: C_1  and  N_2
    2  A    between atoms: N_9  and  C_14
    3  A    between atoms: N_12  and  C_13
                            x       y       z     vdW  Elec       q    Type
                         _______ _______ _______ _____ _____    ______ ____

>  <TORSDO>
F 3

$$$$
=
 OpenBabel07192307433D

 24 25  0  0  0  0  0  0  0  0999 V2000
    2.1000    7.3910   19.6550 N   0  0  0  0  0  0  0  0  0  0  0  0
    2.2900    8.3320   18.6780 C   0  0  0  0  0  0  0  0  0  0  0  0
    3.1060    7.8970   17.7380 N   0  0  0  0  0  0  0  0  0  0  0  0
    3.4410    6.6380   18.1360 C   0  0  0  0  0  0  0  0  0  0  0  0
    2.8400    6.2980   19.3090 C   0  0  0  0  0  0  0  0  0  0  0  0
    3.0230    5.0380   19.9410 C   0  0  0  0  0  0  0  0  0  0  0  0
    2.4760    4.7410   20.9980 O   0  0  0  0  0  0  0  0  0  0  0  0
    3.8820    4.1950   19.2300 N   0  0  0  0  0  0  0  0  0  0  0  0
    4.5230    4.5110   18.0140 C   0  0  0  0  0  0  0  0  0  0  0  0
    5.2680    3.6970   17.4590 O   0  0  0  0  0  0  0  0  0  0  0  0
    4.2790    5.7740   17.4730 N   0  0  0  0  0  0  0  0  0  0  0  0
    1.8180    9.3060   18.6980 H   0  0  0  0  0  0  0  0  0  0  0  0
    1.2710    7.5350   20.8250 C   0  0  0  0  0  0  0  0  0  0  0  0
    1.7870    8.1810   21.5400 H   0  0  0  0  0  0  0  0  0  0  0  0
    1.0960    6.5450   21.2530 H   0  0  0  0  0  0  0  0  0  0  0  0
    0.3170    7.9880   20.5420 H   0  0  0  0  0  0  0  0  0  0  0  0
    4.9000    6.1780   16.2250 C   0  0  0  0  0  0  0  0  0  0  0  0
    4.1330    6.5900   15.5600 H   0  0  0  0  0  0  0  0  0  0  0  0
    5.3830    5.3370   15.7190 H   0  0  0  0  0  0  0  0  0  0  0  0
    5.6560    6.9410   16.4320 H   0  0  0  0  0  0  0  0  0  0  0  0
    4.1510    2.8780   19.7720 C   0  0  0  0  0  0  0  0  0  0  0  0
    4.6240    2.9870   20.7530 H   0  0  0  0  0  0  0  0  0  0  0  0
    4.8480    2.3550   19.1080 H   0  0  0  0  0  0  0  0  0  0  0  0
    3.2460    2.2750   19.8810 H   0  0  0  0  0  0  0  0  0  0  0  0
  1 13  1  0  0  0  0
  2 12  1  0  0  0  0
  2  1  1  0  0  0  0
  3  4  1  0  0  0  0
  3  2  2  0  0  0  0
  4  5  2  0  0  0  0
  5  1  1  0  0  0  0
  5  6  1  0  0  0  0
  6  7  2  0  0  0  0
  8 21  1  0  0  0  0
  8  6  1  0  0  0  0
  9  8  1  0  0  0  0
 10  9  2  0  0  0  0
 11  9  1  0  0  0  0
 11  4  1  0  0  0  0
 13 15  1  0  0  0  0
 13 14  1  0  0  0  0
 16 13  1  0  0  0  0
 17 20  1  0  0  0  0
 17 11  1  0  0  0  0
 18 17  1  0  0  0  0
 19 17  1  0  0  0  0
 21 24  1  0  0  0  0
 21 22  1  0  0  0  0
 23 21  1  0  0  0  0
M  END
>  <MODEL>
12

>  <REMARK>
 VINA RESULT:    -4.639      1.444      3.736
 INTER + INTRA:          -5.046
 INTER:                  -5.046
 INTRA:                   0.000
 UNBOUND:                 0.000
  Name = 
  3 active torsions:
  status: ('A' for Active; 'I' for Inactive)
    1  A    between atoms: C_1  and  N_2
    2  A    between atoms: N_9  and  C_14
    3  A    between atoms: N_12  and  C_13
                            x       y       z     vdW  Elec       q    Type
                         _______ _______ _______ _____ _____    ______ ____

>  <TORSDO>
F 3

$$$$
=
 OpenBabel07192307433D

 24 25  0  0  0  0  0  0  0  0999 V2000
    3.3320    3.8650   18.5290 N   0  0  0  0  0  0  0  0  0  0  0  0
    2.6760    3.1830   17.5380 C   0  0  0  0  0  0  0  0  0  0  0  0
    3.3210    3.2560   16.3900 N   0  0  0  0  0  0  0  0  0  0  0  0
    4.4210    4.0090   16.6670 C   0  0  0  0  0  0  0  0  0  0  0  0
    4.4570    4.3990   17.9710 C   0  0  0  0  0  0  0  0  0  0  0  0
    5.5010    5.1940   18.5190 C   0  0  0  0  0  0  0  0  0  0  0  0
    5.5240    5.5390   19.6960 O   0  0  0  0  0  0  0  0  0  0  0  0
    6.4780    5.5280   17.5760 N   0  0  0  0  0  0  0  0  0  0  0  0
    6.4760    5.1440   16.2180 C   0  0  0  0  0  0  0  0  0  0  0  0
    7.3870    5.4910   15.4600 O   0  0  0  0  0  0  0  0  0  0  0  0
    5.4070    4.3630   15.7770 N   0  0  0  0  0  0  0  0  0  0  0  0
    1.7450    2.6570   17.7020 H   0  0  0  0  0  0  0  0  0  0  0  0
    2.9070    3.9900   19.9000 C   0  0  0  0  0  0  0  0  0  0  0  0
    2.5260    3.0220   20.2360 H   0  0  0  0  0  0  0  0  0  0  0  0
    2.1280    4.7550   19.9550 H   0  0  0  0  0  0  0  0  0  0  0  0
    3.7570    4.2860   20.5200 H   0  0  0  0  0  0  0  0  0  0  0  0
    5.3290    3.9270   14.3950 C   0  0  0  0  0  0  0  0  0  0  0  0
    4.2870    3.9790   14.0620 H   0  0  0  0  0  0  0  0  0  0  0  0
    5.6830    2.9000   14.2720 H   0  0  0  0  0  0  0  0  0  0  0  0
    5.9470    4.5860   13.7760 H   0  0  0  0  0  0  0  0  0  0  0  0
    7.5980    6.3390   18.0100 C   0  0  0  0  0  0  0  0  0  0  0  0
    8.3700    5.6850   18.4280 H   0  0  0  0  0  0  0  0  0  0  0  0
    7.2600    7.0210   18.7970 H   0  0  0  0  0  0  0  0  0  0  0  0
    8.0340    6.9250   17.1970 H   0  0  0  0  0  0  0  0  0  0  0  0
  1 13  1  0  0  0  0
  2 12  1  0  0  0  0
  2  1  1  0  0  0  0
  3  4  1  0  0  0  0
  3  2  2  0  0  0  0
  4  5  2  0  0  0  0
  5  6  1  0  0  0  0
  5  1  1  0  0  0  0
  6  7  2  0  0  0  0
  8 21  1  0  0  0  0
  8  6  1  0  0  0  0
  9  8  1  0  0  0  0
 10  9  2  0  0  0  0
 11  9  1  0  0  0  0
 11  4  1  0  0  0  0
 13 15  1  0  0  0  0
 13 14  1  0  0  0  0
 13 16  1  0  0  0  0
 17 11  1  0  0  0  0
 18 17  1  0  0  0  0
 19 17  1  0  0  0  0
 20 17  1  0  0  0  0
 21 22  1  0  0  0  0
 21 23  1  0  0  0  0
 24 21  1  0  0  0  0
M  END
>  <MODEL>
13

>  <REMARK>
 VINA RESULT:    -4.008      2.371      4.870
 INTER + INTRA:          -4.360
 INTER:                  -4.360
 INTRA:                   0.000
 UNBOUND:                 0.000
  Name = 
  3 active torsions:
  status: ('A' for Active; 'I' for Inactive)
    1  A    between atoms: C_1  and  N_2
    2  A    between atoms: N_9  and  C_14
    3  A    between atoms: N_12  and  C_13
                            x       y       z     vdW  Elec       q    Type
                         _______ _______ _______ _____ _____    ______ ____

>  <TORSDO>
F 3

$$$$
=
 OpenBabel07192307433D

 24 25  0  0  0  0  0  0  0  0999 V2000
    2.7090    4.4590   18.6020 N   0  0  0  0  0  0  0  0  0  0  0  0
    2.9450    5.0030   19.8370 C   0  0  0  0  0  0  0  0  0  0  0  0
    4.2210    5.2930   20.0030 N   0  0  0  0  0  0  0  0  0  0  0  0
    4.8090    4.9200   18.8330 C   0  0  0  0  0  0  0  0  0  0  0  0
    3.9070    4.4040   17.9520 C   0  0  0  0  0  0  0  0  0  0  0  0
    4.2630    3.9400   16.6560 C   0  0  0  0  0  0  0  0  0  0  0  0
    3.4420    3.4770   15.8700 O   0  0  0  0  0  0  0  0  0  0  0  0
    5.6290    4.0700   16.3900 N   0  0  0  0  0  0  0  0  0  0  0  0
    6.5920    4.5980   17.2750 C   0  0  0  0  0  0  0  0  0  0  0  0
    7.7810    4.6720   16.9480 O   0  0  0  0  0  0  0  0  0  0  0  0
    6.1440    5.0280   18.5240 N   0  0  0  0  0  0  0  0  0  0  0  0
    2.1650    5.1640   20.5690 H   0  0  0  0  0  0  0  0  0  0  0  0
    1.4310    4.0300   18.0920 C   0  0  0  0  0  0  0  0  0  0  0  0
    0.6520    4.6550   18.5340 H   0  0  0  0  0  0  0  0  0  0  0  0
    1.2850    2.9800   18.3600 H   0  0  0  0  0  0  0  0  0  0  0  0
    1.4180    4.1380   17.0050 H   0  0  0  0  0  0  0  0  0  0  0  0
    7.0710    5.5830   19.4940 C   0  0  0  0  0  0  0  0  0  0  0  0
    7.3420    6.5990   19.1880 H   0  0  0  0  0  0  0  0  0  0  0  0
    7.9850    4.9870   19.5700 H   0  0  0  0  0  0  0  0  0  0  0  0
    6.5890    5.6100   20.4760 H   0  0  0  0  0  0  0  0  0  0  0  0
    6.1190    3.6310   15.0990 C   0  0  0  0  0  0  0  0  0  0  0  0
    6.6600    2.6870   15.2250 H   0  0  0  0  0  0  0  0  0  0  0  0
    6.8160    4.3790   14.7080 H   0  0  0  0  0  0  0  0  0  0  0  0
    5.3160    3.4820   14.3720 H   0  0  0  0  0  0  0  0  0  0  0  0
  1  2  1  0  0  0  0
  2  3  2  0  0  0  0
  2 12  1  0  0  0  0
  4  3  1  0  0  0  0
  5  1  1  0  0  0  0
  5  4  2  0  0  0  0
  6  5  1  0  0  0  0
  7  6  2  0  0  0  0
  8  6  1  0  0  0  0
  8  9  1  0  0  0  0
  9 11  1  0  0  0  0
 10  9  2  0  0  0  0
 11  4  1  0  0  0  0
 11 17  1  0  0  0  0
 13 15  1  0  0  0  0
 13 14  1  0  0  0  0
 13  1  1  0  0  0  0
 16 13  1  0  0  0  0
 17 19  1  0  0  0  0
 17 20  1  0  0  0  0
 18 17  1  0  0  0  0
 21 22  1  0  0  0  0
 21  8  1  0  0  0  0
 23 21  1  0  0  0  0
 24 21  1  0  0  0  0
M  END
>  <MODEL>
14

>  <REMARK>
 VINA RESULT:    -4.000      2.258      4.200
 INTER + INTRA:          -4.351
 INTER:                  -4.351
 INTRA:                   0.000
 UNBOUND:                 0.000
  Name = 
  3 active torsions:
  status: ('A' for Active; 'I' for Inactive)
    1  A    between atoms: C_1  and  N_2
    2  A    between atoms: N_9  and  C_14
    3  A    between atoms: N_12  and  C_13
                            x       y       z     vdW  Elec       q    Type
                         _______ _______ _______ _____ _____    ______ ____

>  <TORSDO>
F 3

$$$$
=
 OpenBabel07192307433D

 24 25  0  0  0  0  0  0  0  0999 V2000
   -3.5220   10.9740   17.4320 N   0  0  0  0  0  0  0  0  0  0  0  0
   -2.9890   10.0950   16.5260 C   0  0  0  0  0  0  0  0  0  0  0  0
   -1.7440    9.7830   16.8290 N   0  0  0  0  0  0  0  0  0  0  0  0
   -1.4840   10.4880   17.9650 C   0  0  0  0  0  0  0  0  0  0  0  0
   -2.5560   11.2290   18.3600 C   0  0  0  0  0  0  0  0  0  0  0  0
   -2.5470   12.0560   19.5170 C   0  0  0  0  0  0  0  0  0  0  0  0
   -3.5180   12.7190   19.8650 O   0  0  0  0  0  0  0  0  0  0  0  0
   -1.3250   12.0240   20.1960 N   0  0  0  0  0  0  0  0  0  0  0  0
   -0.1940   11.2710   19.8170 C   0  0  0  0  0  0  0  0  0  0  0  0
    0.8450   11.3080   20.4850 O   0  0  0  0  0  0  0  0  0  0  0  0
   -0.3020   10.4890   18.6670 N   0  0  0  0  0  0  0  0  0  0  0  0
   -3.5410    9.7190   15.6750 H   0  0  0  0  0  0  0  0  0  0  0  0
   -4.8560   11.5200   17.4030 C   0  0  0  0  0  0  0  0  0  0  0  0
   -5.1680   11.7300   18.4290 H   0  0  0  0  0  0  0  0  0  0  0  0
   -5.5220   10.7900   16.9360 H   0  0  0  0  0  0  0  0  0  0  0  0
   -4.8580   12.4450   16.8210 H   0  0  0  0  0  0  0  0  0  0  0  0
    0.8160    9.6860   18.2080 C   0  0  0  0  0  0  0  0  0  0  0  0
    0.7500    9.5680   17.1220 H   0  0  0  0  0  0  0  0  0  0  0  0
    0.8180    8.6930   18.6660 H   0  0  0  0  0  0  0  0  0  0  0  0
    1.7510   10.1920   18.4670 H   0  0  0  0  0  0  0  0  0  0  0  0
   -1.1870   12.8270   21.3940 C   0  0  0  0  0  0  0  0  0  0  0  0
   -0.6680   13.7570   21.1420 H   0  0  0  0  0  0  0  0  0  0  0  0
   -0.5810   12.2780   22.1230 H   0  0  0  0  0  0  0  0  0  0  0  0
   -2.1500   13.0720   21.8490 H   0  0  0  0  0  0  0  0  0  0  0  0
  1  5  1  0  0  0  0
  2  3  2  0  0  0  0
  2  1  1  0  0  0  0
  3  4  1  0  0  0  0
  4  5  2  0  0  0  0
  4 11  1  0  0  0  0
  5  6  1  0  0  0  0
  6  7  2  0  0  0  0
  6  8  1  0  0  0  0
  8 21  1  0  0  0  0
  9  8  1  0  0  0  0
  9 10  2  0  0  0  0
 11  9  1  0  0  0  0
 12  2  1  0  0  0  0
 13  1  1  0  0  0  0
 13 14  1  0  0  0  0
 15 13  1  0  0  0  0
 16 13  1  0  0  0  0
 17 20  1  0  0  0  0
 17 19  1  0  0  0  0
 17 11  1  0  0  0  0
 18 17  1  0  0  0  0
 21 24  1  0  0  0  0
 21 23  1  0  0  0  0
 22 21  1  0  0  0  0
M  END
>  <MODEL>
15

>  <REMARK>
 VINA RESULT:    -3.927      6.653      8.998
 INTER + INTRA:          -4.272
 INTER:                  -4.272
 INTRA:                   0.000
 UNBOUND:                 0.000
  Name = 
  3 active torsions:
  status: ('A' for Active; 'I' for Inactive)
    1  A    between atoms: C_1  and  N_2
    2  A    between atoms: N_9  and  C_14
    3  A    between atoms: N_12  and  C_13
                            x       y       z     vdW  Elec       q    Type
                         _______ _______ _______ _____ _____    ______ ____

>  <TORSDO>
F 3

$$$$
=
 OpenBabel07192307433D

 24 25  0  0  0  0  0  0  0  0999 V2000
    1.3330    9.1460   19.1970 N   0  0  0  0  0  0  0  0  0  0  0  0
    1.7570    8.1510   20.0380 C   0  0  0  0  0  0  0  0  0  0  0  0
    1.2910    8.3180   21.2600 N   0  0  0  0  0  0  0  0  0  0  0  0
    0.5480    9.4570   21.1870 C   0  0  0  0  0  0  0  0  0  0  0  0
    0.5540    9.9890   19.9340 C   0  0  0  0  0  0  0  0  0  0  0  0
   -0.1450   11.1780   19.5900 C   0  0  0  0  0  0  0  0  0  0  0  0
   -0.1340   11.6490   18.4570 O   0  0  0  0  0  0  0  0  0  0  0  0
   -0.8330   11.7350   20.6720 N   0  0  0  0  0  0  0  0  0  0  0  0
   -0.8620   11.2140   21.9830 C   0  0  0  0  0  0  0  0  0  0  0  0
   -1.5010   11.7800   22.8760 O   0  0  0  0  0  0  0  0  0  0  0  0
   -0.1440   10.0410   22.2200 N   0  0  0  0  0  0  0  0  0  0  0  0
    2.3960    7.3390   19.7150 H   0  0  0  0  0  0  0  0  0  0  0  0
    1.6540    9.2710   17.7980 C   0  0  0  0  0  0  0  0  0  0  0  0
    1.0580    8.5470   17.2370 H   0  0  0  0  0  0  0  0  0  0  0  0
    2.7220    9.0780   17.6660 H   0  0  0  0  0  0  0  0  0  0  0  0
    1.4190   10.2830   17.4590 H   0  0  0  0  0  0  0  0  0  0  0  0
   -0.1230    9.4410   23.5420 C   0  0  0  0  0  0  0  0  0  0  0  0
   -0.4650    8.4030   23.4680 H   0  0  0  0  0  0  0  0  0  0  0  0
   -0.7730    9.9730   24.2410 H   0  0  0  0  0  0  0  0  0  0  0  0
    0.9000    9.4640   23.9290 H   0  0  0  0  0  0  0  0  0  0  0  0
   -1.5860   12.9530   20.4500 C   0  0  0  0  0  0  0  0  0  0  0  0
   -2.3830   12.7520   19.7270 H   0  0  0  0  0  0  0  0  0  0  0  0
   -0.9190   13.7120   20.0280 H   0  0  0  0  0  0  0  0  0  0  0  0
   -2.0320   13.3450   21.3680 H   0  0  0  0  0  0  0  0  0  0  0  0
  1  5  1  0  0  0  0
  1  2  1  0  0  0  0
  2  3  2  0  0  0  0
  4  3  1  0  0  0  0
  4 11  1  0  0  0  0
  5  4  2  0  0  0  0
  6  5  1  0  0  0  0
  6  8  1  0  0  0  0
  7  6  2  0  0  0  0
  8  9  1  0  0  0  0
  9 11  1  0  0  0  0
  9 10  2  0  0  0  0
 11 17  1  0  0  0  0
 12  2  1  0  0  0  0
 13  1  1  0  0  0  0
 14 13  1  0  0  0  0
 15 13  1  0  0  0  0
 16 13  1  0  0  0  0
 17 20  1  0  0  0  0
 17 19  1  0  0  0  0
 18 17  1  0  0  0  0
 21  8  1  0  0  0  0
 21 24  1  0  0  0  0
 22 21  1  0  0  0  0
 23 21  1  0  0  0  0
M  END
>  <MODEL>
16

>  <REMARK>
 VINA RESULT:    -3.905      5.475      7.363
 INTER + INTRA:          -4.247
 INTER:                  -4.247
 INTRA:                   0.000
 UNBOUND:                 0.000
  Name = 
  3 active torsions:
  status: ('A' for Active; 'I' for Inactive)
    1  A    between atoms: C_1  and  N_2
    2  A    between atoms: N_9  and  C_14
    3  A    between atoms: N_12  and  C_13
                            x       y       z     vdW  Elec       q    Type
                         _______ _______ _______ _____ _____    ______ ____

>  <TORSDO>
F 3

$$$$
=
 OpenBabel07192307433D

 24 25  0  0  0  0  0  0  0  0999 V2000
    1.3290    9.1430   19.2380 N   0  0  0  0  0  0  0  0  0  0  0  0
    1.8740    9.6800   18.1020 C   0  0  0  0  0  0  0  0  0  0  0  0
    2.7240    8.8490   17.5320 N   0  0  0  0  0  0  0  0  0  0  0  0
    2.7140    7.7500   18.3360 C   0  0  0  0  0  0  0  0  0  0  0  0
    1.8680    7.8990   19.3920 C   0  0  0  0  0  0  0  0  0  0  0  0
    1.6730    6.8970   20.3820 C   0  0  0  0  0  0  0  0  0  0  0  0
    0.9070    7.0410   21.3290 O   0  0  0  0  0  0  0  0  0  0  0  0
    2.4400    5.7510   20.1510 N   0  0  0  0  0  0  0  0  0  0  0  0
    3.3270    5.5600   19.0700 C   0  0  0  0  0  0  0  0  0  0  0  0
    3.9640    4.5080   18.9520 O   0  0  0  0  0  0  0  0  0  0  0  0
    3.4490    6.6030   18.1520 N   0  0  0  0  0  0  0  0  0  0  0  0
    1.6220   10.6670   17.7380 H   0  0  0  0  0  0  0  0  0  0  0  0
    0.3660    9.7780   20.1030 C   0  0  0  0  0  0  0  0  0  0  0  0
   -0.6370    9.5010   19.7700 H   0  0  0  0  0  0  0  0  0  0  0  0
    0.5090   10.8610   20.0460 H   0  0  0  0  0  0  0  0  0  0  0  0
    0.5210    9.4400   21.1310 H   0  0  0  0  0  0  0  0  0  0  0  0
    4.3400    6.4860   17.0120 C   0  0  0  0  0  0  0  0  0  0  0  0
    3.7890    6.7370   16.1000 H   0  0  0  0  0  0  0  0  0  0  0  0
    4.7400    5.4730   16.9100 H   0  0  0  0  0  0  0  0  0  0  0  0
    5.1760    7.1800   17.1400 H   0  0  0  0  0  0  0  0  0  0  0  0
    2.3310    4.6540   21.0910 C   0  0  0  0  0  0  0  0  0  0  0  0
    2.6120    5.0090   22.0880 H   0  0  0  0  0  0  0  0  0  0  0  0
    3.0270    3.8620   20.7970 H   0  0  0  0  0  0  0  0  0  0  0  0
    1.3210    4.2380   21.1370 H   0  0  0  0  0  0  0  0  0  0  0  0
  1  5  1  0  0  0  0
  1 13  1  0  0  0  0
  2  1  1  0  0  0  0
  3  2  2  0  0  0  0
  3  4  1  0  0  0  0
  4  5  2  0  0  0  0
  5  6  1  0  0  0  0
  6  7  2  0  0  0  0
  8  6  1  0  0  0  0
  8 21  1  0  0  0  0
  9  8  1  0  0  0  0
 10  9  2  0  0  0  0
 11  4  1  0  0  0  0
 11  9  1  0  0  0  0
 12  2  1  0  0  0  0
 13 16  1  0  0  0  0
 14 13  1  0  0  0  0
 15 13  1  0  0  0  0
 17 20  1  0  0  0  0
 17 11  1  0  0  0  0
 18 17  1  0  0  0  0
 19 17  1  0  0  0  0
 21 24  1  0  0  0  0
 21 22  1  0  0  0  0
 23 21  1  0  0  0  0
M  END
>  <MODEL>
17

>  <REMARK>
 VINA RESULT:    -3.900      1.999      4.361
 INTER + INTRA:          -4.242
 INTER:                  -4.242
 INTRA:                   0.000
 UNBOUND:                 0.000
  Name = 
  3 active torsions:
  status: ('A' for Active; 'I' for Inactive)
    1  A    between atoms: C_1  and  N_2
    2  A    between atoms: N_9  and  C_14
    3  A    between atoms: N_12  and  C_13
                            x       y       z     vdW  Elec       q    Type
                         _______ _______ _______ _____ _____    ______ ____

>  <TORSDO>
F 3

$$$$
=
 OpenBabel07192307433D

 24 25  0  0  0  0  0  0  0  0999 V2000
    0.4020    9.2360   21.7480 N   0  0  0  0  0  0  0  0  0  0  0  0
    0.1200    9.3370   23.0850 C   0  0  0  0  0  0  0  0  0  0  0  0
   -0.7140   10.3290   23.3300 N   0  0  0  0  0  0  0  0  0  0  0  0
   -0.9670   10.8710   22.1070 C   0  0  0  0  0  0  0  0  0  0  0  0
   -0.2970   10.2220   21.1150 C   0  0  0  0  0  0  0  0  0  0  0  0
   -0.3870   10.5890   19.7440 C   0  0  0  0  0  0  0  0  0  0  0  0
    0.2200    9.9980   18.8580 O   0  0  0  0  0  0  0  0  0  0  0  0
   -1.2340   11.6810   19.5310 N   0  0  0  0  0  0  0  0  0  0  0  0
   -1.9440   12.3780   20.5320 C   0  0  0  0  0  0  0  0  0  0  0  0
   -2.6700   13.3350   20.2440 O   0  0  0  0  0  0  0  0  0  0  0  0
   -1.7890   11.9410   21.8470 N   0  0  0  0  0  0  0  0  0  0  0  0
    0.5420    8.6740   23.8280 H   0  0  0  0  0  0  0  0  0  0  0  0
    1.2730    8.2660   21.1340 C   0  0  0  0  0  0  0  0  0  0  0  0
    1.3800    8.5140   20.0750 H   0  0  0  0  0  0  0  0  0  0  0  0
    0.8320    7.2730   21.2580 H   0  0  0  0  0  0  0  0  0  0  0  0
    2.2520    8.2960   21.6200 H   0  0  0  0  0  0  0  0  0  0  0  0
   -2.4840   12.6040   22.9350 C   0  0  0  0  0  0  0  0  0  0  0  0
   -2.0880   13.6190   23.0460 H   0  0  0  0  0  0  0  0  0  0  0  0
   -2.3550   12.0750   23.8830 H   0  0  0  0  0  0  0  0  0  0  0  0
   -3.5520   12.6490   22.7030 H   0  0  0  0  0  0  0  0  0  0  0  0
   -1.4110   12.1550   18.1730 C   0  0  0  0  0  0  0  0  0  0  0  0
   -1.3580   13.2480   18.1670 H   0  0  0  0  0  0  0  0  0  0  0  0
   -2.4030   11.8550   17.8180 H   0  0  0  0  0  0  0  0  0  0  0  0
   -0.6560   11.7600   17.4880 H   0  0  0  0  0  0  0  0  0  0  0  0
  1  2  1  0  0  0  0
  2  3  2  0  0  0  0
  2 12  1  0  0  0  0
  4  3  1  0  0  0  0
  5  1  1  0  0  0  0
  5  4  2  0  0  0  0
  6  5  1  0  0  0  0
  7  6  2  0  0  0  0
  8  6  1  0  0  0  0
  8  9  1  0  0  0  0
  9 11  1  0  0  0  0
 10  9  2  0  0  0  0
 11  4  1  0  0  0  0
 11 17  1  0  0  0  0
 13 15  1  0  0  0  0
 13 16  1  0  0  0  0
 13  1  1  0  0  0  0
 14 13  1  0  0  0  0
 17 18  1  0  0  0  0
 17 19  1  0  0  0  0
 20 17  1  0  0  0  0
 21  8  1  0  0  0  0
 22 21  1  0  0  0  0
 23 21  1  0  0  0  0
 24 21  1  0  0  0  0
M  END
>  <MODEL>
18

>  <REMARK>
 VINA RESULT:    -3.894      6.140      8.466
 INTER + INTRA:          -4.235
 INTER:                  -4.235
 INTRA:                   0.000
 UNBOUND:                 0.000
  Name = 
  3 active torsions:
  status: ('A' for Active; 'I' for Inactive)
    1  A    between atoms: C_1  and  N_2
    2  A    between atoms: N_9  and  C_14
    3  A    between atoms: N_12  and  C_13
                            x       y       z     vdW  Elec       q    Type
                         _______ _______ _______ _____ _____    ______ ____

>  <TORSDO>
F 3

$$$$
=
 OpenBabel07192307433D

 24 25  0  0  0  0  0  0  0  0999 V2000
    1.9890    8.1730   19.0150 N   0  0  0  0  0  0  0  0  0  0  0  0
    2.1220    8.8050   17.8070 C   0  0  0  0  0  0  0  0  0  0  0  0
    1.5010    9.9680   17.7970 N   0  0  0  0  0  0  0  0  0  0  0  0
    0.9570   10.0730   19.0410 C   0  0  0  0  0  0  0  0  0  0  0  0
    1.2390    8.9870   19.8130 C   0  0  0  0  0  0  0  0  0  0  0  0
    0.7890    8.8460   21.1540 C   0  0  0  0  0  0  0  0  0  0  0  0
    1.0490    7.8640   21.8410 O   0  0  0  0  0  0  0  0  0  0  0  0
    0.0310    9.9390   21.5880 N   0  0  0  0  0  0  0  0  0  0  0  0
   -0.2810   11.0800   20.8200 C   0  0  0  0  0  0  0  0  0  0  0  0
   -0.9600   11.9970   21.2930 O   0  0  0  0  0  0  0  0  0  0  0  0
    0.2070   11.1230   19.5130 N   0  0  0  0  0  0  0  0  0  0  0  0
    2.6750    8.3820   16.9780 H   0  0  0  0  0  0  0  0  0  0  0  0
    2.5410    6.8900   19.3680 C   0  0  0  0  0  0  0  0  0  0  0  0
    2.2810    6.1720   18.5860 H   0  0  0  0  0  0  0  0  0  0  0  0
    2.1230    6.5830   20.3310 H   0  0  0  0  0  0  0  0  0  0  0  0
    3.6280    6.9700   19.4480 H   0  0  0  0  0  0  0  0  0  0  0  0
   -0.0700   12.2620   18.6560 C   0  0  0  0  0  0  0  0  0  0  0  0
   -0.5510   13.0470   19.2490 H   0  0  0  0  0  0  0  0  0  0  0  0
   -0.7330   11.9950   17.8280 H   0  0  0  0  0  0  0  0  0  0  0  0
    0.8710   12.6370   18.2440 H   0  0  0  0  0  0  0  0  0  0  0  0
   -0.4870    9.9170   22.9410 C   0  0  0  0  0  0  0  0  0  0  0  0
   -1.0110   10.8580   23.1370 H   0  0  0  0  0  0  0  0  0  0  0  0
    0.3500    9.8350   23.6420 H   0  0  0  0  0  0  0  0  0  0  0  0
   -1.1760    9.0860   23.1140 H   0  0  0  0  0  0  0  0  0  0  0  0
  1 13  1  0  0  0  0
  1  5  1  0  0  0  0
  2  1  1  0  0  0  0
  3  2  2  0  0  0  0
  3  4  1  0  0  0  0
  4 11  1  0  0  0  0
  4  5  2  0  0  0  0
  5  6  1  0  0  0  0
  6  8  1  0  0  0  0
  6  7  2  0  0  0  0
  8 21  1  0  0  0  0
  9 10  2  0  0  0  0
  9  8  1  0  0  0  0
 11  9  1  0  0  0  0
 12  2  1  0  0  0  0
 13 16  1  0  0  0  0
 13 15  1  0  0  0  0
 14 13  1  0  0  0  0
 17 18  1  0  0  0  0
 17 11  1  0  0  0  0
 19 17  1  0  0  0  0
 20 17  1  0  0  0  0
 21 24  1  0  0  0  0
 21 22  1  0  0  0  0
 21 23  1  0  0  0  0
M  END
>  <MODEL>
19

>  <REMARK>
 VINA RESULT:    -3.890      4.238      6.142
 INTER + INTRA:          -4.232
 INTER:                  -4.232
 INTRA:                   0.000
 UNBOUND:                 0.000
  Name = 
  3 active torsions:
  status: ('A' for Active; 'I' for Inactive)
    1  A    between atoms: C_1  and  N_2
    2  A    between atoms: N_9  and  C_14
    3  A    between atoms: N_12  and  C_13
                            x       y       z     vdW  Elec       q    Type
                         _______ _______ _______ _____ _____    ______ ____

>  <TORSDO>
F 3

$$$$
=
 OpenBabel07192307433D

 24 25  0  0  0  0  0  0  0  0999 V2000
   -3.2520   10.5950   16.5380 N   0  0  0  0  0  0  0  0  0  0  0  0
   -4.4390   11.2670   16.6680 C   0  0  0  0  0  0  0  0  0  0  0  0
   -4.5050   11.9170   17.8130 N   0  0  0  0  0  0  0  0  0  0  0  0
   -3.3190   11.6470   18.4250 C   0  0  0  0  0  0  0  0  0  0  0  0
   -2.5280   10.8390   17.6680 C   0  0  0  0  0  0  0  0  0  0  0  0
   -1.2370   10.4070   18.0780 C   0  0  0  0  0  0  0  0  0  0  0  0
   -0.5310    9.6780   17.3870 O   0  0  0  0  0  0  0  0  0  0  0  0
   -0.8740   10.9010   19.3340 N   0  0  0  0  0  0  0  0  0  0  0  0
   -1.6650   11.7400   20.1470 C   0  0  0  0  0  0  0  0  0  0  0  0
   -1.2560   12.1260   21.2470 O   0  0  0  0  0  0  0  0  0  0  0  0
   -2.9170   12.1090   19.6560 N   0  0  0  0  0  0  0  0  0  0  0  0
   -5.2120   11.2490   15.9110 H   0  0  0  0  0  0  0  0  0  0  0  0
   -2.8520    9.7870   15.4140 C   0  0  0  0  0  0  0  0  0  0  0  0
   -2.8070    8.7430   15.7350 H   0  0  0  0  0  0  0  0  0  0  0  0
   -1.8730   10.1290   15.0690 H   0  0  0  0  0  0  0  0  0  0  0  0
   -3.5830    9.8940   14.6090 H   0  0  0  0  0  0  0  0  0  0  0  0
   -3.7930   12.9690   20.4310 C   0  0  0  0  0  0  0  0  0  0  0  0
   -3.7250   13.9910   20.0430 H   0  0  0  0  0  0  0  0  0  0  0  0
   -3.5200   12.9800   21.4900 H   0  0  0  0  0  0  0  0  0  0  0  0
   -4.8220   12.6080   20.3390 H   0  0  0  0  0  0  0  0  0  0  0  0
    0.4230   10.5320   19.8660 C   0  0  0  0  0  0  0  0  0  0  0  0
    0.6070    9.4740   19.6530 H   0  0  0  0  0  0  0  0  0  0  0  0
    0.4150   10.6700   20.9520 H   0  0  0  0  0  0  0  0  0  0  0  0
    1.2370   11.1240   19.4400 H   0  0  0  0  0  0  0  0  0  0  0  0
  1  2  1  0  0  0  0
  1  5  1  0  0  0  0
  2  3  2  0  0  0  0
  3  4  1  0  0  0  0
  4 11  1  0  0  0  0
  5  6  1  0  0  0  0
  5  4  2  0  0  0  0
  6  8  1  0  0  0  0
  7  6  2  0  0  0  0
  8 21  1  0  0  0  0
  8  9  1  0  0  0  0
  9 10  2  0  0  0  0
 11  9  1  0  0  0  0
 11 17  1  0  0  0  0
 12  2  1  0  0  0  0
 13 14  1  0  0  0  0
 13  1  1  0  0  0  0
 15 13  1  0  0  0  0
 16 13  1  0  0  0  0
 17 19  1  0  0  0  0
 18 17  1  0  0  0  0
 20 17  1  0  0  0  0
 21 23  1  0  0  0  0
 22 21  1  0  0  0  0
 24 21  1  0  0  0  0
M  END
>  <MODEL>
20

>  <REMARK>
 VINA RESULT:    -3.884      7.198      8.881
 INTER + INTRA:          -4.225
 INTER:                  -4.225
 INTRA:                   0.000
 UNBOUND:                 0.000
  Name = 
  3 active torsions:
  status: ('A' for Active; 'I' for Inactive)
    1  A    between atoms: C_1  and  N_2
    2  A    between atoms: N_9  and  C_14
    3  A    between atoms: N_12  and  C_13
                            x       y       z     vdW  Elec       q    Type
                         _______ _______ _______ _____ _____    ______ ____

>  <TORSDO>
F 3

$$$$
=
 OpenBabel07192307433D

 24 25  0  0  0  0  0  0  0  0999 V2000
    0.3220   10.4340   18.9990 N   0  0  0  0  0  0  0  0  0  0  0  0
    0.7810   11.0180   20.1500 C   0  0  0  0  0  0  0  0  0  0  0  0
   -0.1510   11.7510   20.7260 N   0  0  0  0  0  0  0  0  0  0  0  0
   -1.2350   11.6240   19.9110 C   0  0  0  0  0  0  0  0  0  0  0  0
   -0.9760   10.8220   18.8420 C   0  0  0  0  0  0  0  0  0  0  0  0
   -1.9390   10.5260   17.8390 C   0  0  0  0  0  0  0  0  0  0  0  0
   -1.6970    9.8010   16.8800 O   0  0  0  0  0  0  0  0  0  0  0  0
   -3.1710   11.1460   18.0720 N   0  0  0  0  0  0  0  0  0  0  0  0
   -3.4770   11.9820   19.1660 C   0  0  0  0  0  0  0  0  0  0  0  0
   -4.5980   12.4860   19.2850 O   0  0  0  0  0  0  0  0  0  0  0  0
   -2.4630   12.2120   20.0970 N   0  0  0  0  0  0  0  0  0  0  0  0
    1.7890   10.8800   20.5200 H   0  0  0  0  0  0  0  0  0  0  0  0
    1.0760    9.5710   18.1240 C   0  0  0  0  0  0  0  0  0  0  0  0
    1.1240   10.0340   17.1350 H   0  0  0  0  0  0  0  0  0  0  0  0
    0.5760    8.6010   18.0750 H   0  0  0  0  0  0  0  0  0  0  0  0
    2.0870    9.4440   18.5210 H   0  0  0  0  0  0  0  0  0  0  0  0
   -2.6960   13.0610   21.2510 C   0  0  0  0  0  0  0  0  0  0  0  0
   -3.6430   13.5940   21.1170 H   0  0  0  0  0  0  0  0  0  0  0  0
   -1.8980   13.7980   21.3810 H   0  0  0  0  0  0  0  0  0  0  0  0
   -2.7470   12.4390   22.1490 H   0  0  0  0  0  0  0  0  0  0  0  0
   -4.2400   10.9220   17.1180 C   0  0  0  0  0  0  0  0  0  0  0  0
   -4.8460   11.8310   17.0430 H   0  0  0  0  0  0  0  0  0  0  0  0
   -4.8780   10.1100   17.4820 H   0  0  0  0  0  0  0  0  0  0  0  0
   -3.8690   10.6620   16.1240 H   0  0  0  0  0  0  0  0  0  0  0  0
  1  2  1  0  0  0  0
  2 12  1  0  0  0  0
  2  3  2  0  0  0  0
  4 11  1  0  0  0  0
  4  3  1  0  0  0  0
  5  1  1  0  0  0  0
  5  4  2  0  0  0  0
  6  8  1  0  0  0  0
  6  5  1  0  0  0  0
  7  6  2  0  0  0  0
  8  9  1  0  0  0  0
  9 10  2  0  0  0  0
  9 11  1  0  0  0  0
 11 17  1  0  0  0  0
 13 16  1  0  0  0  0
 13  1  1  0  0  0  0
 14 13  1  0  0  0  0
 15 13  1  0  0  0  0
 17 19  1  0  0  0  0
 17 20  1  0  0  0  0
 18 17  1  0  0  0  0
 21 23  1  0  0  0  0
 21  8  1  0  0  0  0
 22 21  1  0  0  0  0
 24 21  1  0  0  0  0
M  END
>  <MODEL>
21

>  <REMARK>
 VINA RESULT:    -3.780      6.667      8.494
 INTER + INTRA:          -4.111
 INTER:                  -4.111
 INTRA:                   0.000
 UNBOUND:                 0.000
  Name = 
  3 active torsions:
  status: ('A' for Active; 'I' for Inactive)
    1  A    between atoms: C_1  and  N_2
    2  A    between atoms: N_9  and  C_14
    3  A    between atoms: N_12  and  C_13
                            x       y       z     vdW  Elec       q    Type
                         _______ _______ _______ _____ _____    ______ ____

>  <TORSDO>
F 3

$$$$
=
 OpenBabel07192307433D

 24 25  0  0  0  0  0  0  0  0999 V2000
   -3.6950   11.5130   18.2840 N   0  0  0  0  0  0  0  0  0  0  0  0
   -4.1720   12.3560   19.2530 C   0  0  0  0  0  0  0  0  0  0  0  0
   -3.2560   12.6120   20.1670 N   0  0  0  0  0  0  0  0  0  0  0  0
   -2.1640   11.9070   19.7590 C   0  0  0  0  0  0  0  0  0  0  0  0
   -2.4020   11.2230   18.6060 C   0  0  0  0  0  0  0  0  0  0  0  0
   -1.4260   10.4080   17.9680 C   0  0  0  0  0  0  0  0  0  0  0  0
   -1.6500    9.7960   16.9290 O   0  0  0  0  0  0  0  0  0  0  0  0
   -0.2060   10.3900   18.6510 N   0  0  0  0  0  0  0  0  0  0  0  0
    0.0780   11.0850   19.8450 C   0  0  0  0  0  0  0  0  0  0  0  0
    1.1900   11.0050   20.3760 O   0  0  0  0  0  0  0  0  0  0  0  0
   -0.9460   11.8580   20.3930 N   0  0  0  0  0  0  0  0  0  0  0  0
   -5.1800   12.7480   19.2490 H   0  0  0  0  0  0  0  0  0  0  0  0
   -4.4290   11.0300   17.1410 C   0  0  0  0  0  0  0  0  0  0  0  0
   -4.0030   10.0720   16.8330 H   0  0  0  0  0  0  0  0  0  0  0  0
   -4.3480   11.7670   16.3380 H   0  0  0  0  0  0  0  0  0  0  0  0
   -5.4790   10.8960   17.4130 H   0  0  0  0  0  0  0  0  0  0  0  0
   -0.7360   12.6030   21.6210 C   0  0  0  0  0  0  0  0  0  0  0  0
    0.3270   12.5680   21.8830 H   0  0  0  0  0  0  0  0  0  0  0  0
   -1.3130   12.1880   22.4530 H   0  0  0  0  0  0  0  0  0  0  0  0
   -1.0430   13.6420   21.4670 H   0  0  0  0  0  0  0  0  0  0  0  0
    0.8730    9.5950   18.1010 C   0  0  0  0  0  0  0  0  0  0  0  0
    0.5320    8.5610   17.9880 H   0  0  0  0  0  0  0  0  0  0  0  0
    1.7160    9.6060   18.8000 H   0  0  0  0  0  0  0  0  0  0  0  0
    1.2140    9.9620   17.1300 H   0  0  0  0  0  0  0  0  0  0  0  0
  1  5  1  0  0  0  0
  1  2  1  0  0  0  0
  2  3  2  0  0  0  0
  4  3  1  0  0  0  0
  4 11  1  0  0  0  0
  5  4  2  0  0  0  0
  6  5  1  0  0  0  0
  6  8  1  0  0  0  0
  7  6  2  0  0  0  0
  8  9  1  0  0  0  0
  9 10  2  0  0  0  0
  9 11  1  0  0  0  0
 11 17  1  0  0  0  0
 12  2  1  0  0  0  0
 13 16  1  0  0  0  0
 13  1  1  0  0  0  0
 14 13  1  0  0  0  0
 15 13  1  0  0  0  0
 17 18  1  0  0  0  0
 17 19  1  0  0  0  0
 20 17  1  0  0  0  0
 21  8  1  0  0  0  0
 21 23  1  0  0  0  0
 22 21  1  0  0  0  0
 24 21  1  0  0  0  0
M  END
>  <MODEL>
22

>  <REMARK>
 VINA RESULT:    -3.752      6.630      8.774
 INTER + INTRA:          -4.081
 INTER:                  -4.081
 INTRA:                   0.000
 UNBOUND:                 0.000
  Name = 
  3 active torsions:
  status: ('A' for Active; 'I' for Inactive)
    1  A    between atoms: C_1  and  N_2
    2  A    between atoms: N_9  and  C_14
    3  A    between atoms: N_12  and  C_13
                            x       y       z     vdW  Elec       q    Type
                         _______ _______ _______ _____ _____    ______ ____

>  <TORSDO>
F 3

$$$$
=
 OpenBabel07192307433D

 24 25  0  0  0  0  0  0  0  0999 V2000
   -0.4100   11.1630   19.6920 N   0  0  0  0  0  0  0  0  0  0  0  0
    0.2570   10.3730   18.7930 C   0  0  0  0  0  0  0  0  0  0  0  0
   -0.5140   10.0410   17.7760 N   0  0  0  0  0  0  0  0  0  0  0  0
   -1.7060   10.6420   18.0420 C   0  0  0  0  0  0  0  0  0  0  0  0
   -1.6750   11.3380   19.2120 C   0  0  0  0  0  0  0  0  0  0  0  0
   -2.7910   12.0570   19.7200 C   0  0  0  0  0  0  0  0  0  0  0  0
   -2.7520   12.6830   20.7750 O   0  0  0  0  0  0  0  0  0  0  0  0
   -3.9140   11.9700   18.8920 N   0  0  0  0  0  0  0  0  0  0  0  0
   -3.9850   11.2590   17.6760 C   0  0  0  0  0  0  0  0  0  0  0  0
   -5.0270   11.2410   17.0120 O   0  0  0  0  0  0  0  0  0  0  0  0
   -2.8360   10.5860   17.2620 N   0  0  0  0  0  0  0  0  0  0  0  0
    1.2880   10.0730   18.9240 H   0  0  0  0  0  0  0  0  0  0  0  0
    0.1310   11.7040   20.9140 C   0  0  0  0  0  0  0  0  0  0  0  0
    0.2360   10.8920   21.6380 H   0  0  0  0  0  0  0  0  0  0  0  0
   -0.5510   12.4720   21.2870 H   0  0  0  0  0  0  0  0  0  0  0  0
    1.1100   12.1470   20.7140 H   0  0  0  0  0  0  0  0  0  0  0  0
   -2.8260    9.8300   16.0220 C   0  0  0  0  0  0  0  0  0  0  0  0
   -1.8430    9.9310   15.5500 H   0  0  0  0  0  0  0  0  0  0  0  0
   -3.5860   10.1870   15.3220 H   0  0  0  0  0  0  0  0  0  0  0  0
   -3.0220    8.7770   16.2440 H   0  0  0  0  0  0  0  0  0  0  0  0
   -5.1200   12.6620   19.3010 C   0  0  0  0  0  0  0  0  0  0  0  0
   -5.1110   13.6730   18.8800 H   0  0  0  0  0  0  0  0  0  0  0  0
   -5.1320   12.7420   20.3930 H   0  0  0  0  0  0  0  0  0  0  0  0
   -6.0300   12.1510   18.9740 H   0  0  0  0  0  0  0  0  0  0  0  0
  1 13  1  0  0  0  0
  2 12  1  0  0  0  0
  2  1  1  0  0  0  0
  3  4  1  0  0  0  0
  3  2  2  0  0  0  0
  4  5  2  0  0  0  0
  5  1  1  0  0  0  0
  5  6  1  0  0  0  0
  6  7  2  0  0  0  0
  8 21  1  0  0  0  0
  8  6  1  0  0  0  0
  9  8  1  0  0  0  0
 10  9  2  0  0  0  0
 11  9  1  0  0  0  0
 11  4  1  0  0  0  0
 13 15  1  0  0  0  0
 13 14  1  0  0  0  0
 16 13  1  0  0  0  0
 17 20  1  0  0  0  0
 17 11  1  0  0  0  0
 18 17  1  0  0  0  0
 19 17  1  0  0  0  0
 21 23  1  0  0  0  0
 22 21  1  0  0  0  0
 24 21  1  0  0  0  0
M  END
>  <MODEL>
23

>  <REMARK>
 VINA RESULT:    -3.741      7.427      9.280
 INTER + INTRA:          -4.070
 INTER:                  -4.070
 INTRA:                   0.000
 UNBOUND:                 0.000
  Name = 
  3 active torsions:
  status: ('A' for Active; 'I' for Inactive)
    1  A    between atoms: C_1  and  N_2
    2  A    between atoms: N_9  and  C_14
    3  A    between atoms: N_12  and  C_13
                            x       y       z     vdW  Elec       q    Type
                         _______ _______ _______ _____ _____    ______ ____

>  <TORSDO>
F 3

$$$$
=
 OpenBabel07192307433D

 24 25  0  0  0  0  0  0  0  0999 V2000
    1.1800    8.8660   20.0740 N   0  0  0  0  0  0  0  0  0  0  0  0
    1.5110    9.1910   18.7850 C   0  0  0  0  0  0  0  0  0  0  0  0
    0.9560   10.3290   18.4150 N   0  0  0  0  0  0  0  0  0  0  0  0
    0.2530   10.7350   19.5080 C   0  0  0  0  0  0  0  0  0  0  0  0
    0.3700    9.8590   20.5430 C   0  0  0  0  0  0  0  0  0  0  0  0
   -0.2680   10.0480   21.8000 C   0  0  0  0  0  0  0  0  0  0  0  0
   -0.1550    9.2520   22.7270 O   0  0  0  0  0  0  0  0  0  0  0  0
   -1.0200   11.2250   21.8530 N   0  0  0  0  0  0  0  0  0  0  0  0
   -1.1650   12.1560   20.8030 C   0  0  0  0  0  0  0  0  0  0  0  0
   -1.8550   13.1710   20.9470 O   0  0  0  0  0  0  0  0  0  0  0  0
   -0.5000   11.8810   19.6090 N   0  0  0  0  0  0  0  0  0  0  0  0
    2.1490    8.5740   18.1670 H   0  0  0  0  0  0  0  0  0  0  0  0
    1.6110    7.6940   20.7930 C   0  0  0  0  0  0  0  0  0  0  0  0
    2.1160    8.0130   21.7080 H   0  0  0  0  0  0  0  0  0  0  0  0
    2.2900    7.1230   20.1530 H   0  0  0  0  0  0  0  0  0  0  0  0
    0.7420    7.0810   21.0460 H   0  0  0  0  0  0  0  0  0  0  0  0
   -0.5980   12.7880   18.4790 C   0  0  0  0  0  0  0  0  0  0  0  0
    0.2520   12.6190   17.8110 H   0  0  0  0  0  0  0  0  0  0  0  0
   -0.5900   13.8340   18.7960 H   0  0  0  0  0  0  0  0  0  0  0  0
   -1.5320   12.5920   17.9430 H   0  0  0  0  0  0  0  0  0  0  0  0
   -1.7210   11.5340   23.0840 C   0  0  0  0  0  0  0  0  0  0  0  0
   -1.2750   12.4270   23.5330 H   0  0  0  0  0  0  0  0  0  0  0  0
   -1.5990   10.6980   23.7810 H   0  0  0  0  0  0  0  0  0  0  0  0
   -2.7870   11.7120   22.9280 H   0  0  0  0  0  0  0  0  0  0  0  0
  1  5  1  0  0  0  0
  1 13  1  0  0  0  0
  2  1  1  0  0  0  0
  3  2  2  0  0  0  0
  3  4  1  0  0  0  0
  4 11  1  0  0  0  0
  4  5  2  0  0  0  0
  5  6  1  0  0  0  0
  6  8  1  0  0  0  0
  6  7  2  0  0  0  0
  8 21  1  0  0  0  0
  9 10  2  0  0  0  0
  9  8  1  0  0  0  0
 11  9  1  0  0  0  0
 12  2  1  0  0  0  0
 13 16  1  0  0  0  0
 13 14  1  0  0  0  0
 15 13  1  0  0  0  0
 17 19  1  0  0  0  0
 17 11  1  0  0  0  0
 18 17  1  0  0  0  0
 20 17  1  0  0  0  0
 21 22  1  0  0  0  0
 21 23  1  0  0  0  0
 24 21  1  0  0  0  0
M  END
>  <MODEL>
24

>  <REMARK>
 VINA RESULT:    -3.716      5.354      7.535
 INTER + INTRA:          -4.042
 INTER:                  -4.042
 INTRA:                   0.000
 UNBOUND:                 0.000
  Name = 
  3 active torsions:
  status: ('A' for Active; 'I' for Inactive)
    1  A    between atoms: C_1  and  N_2
    2  A    between atoms: N_9  and  C_14
    3  A    between atoms: N_12  and  C_13
                            x       y       z     vdW  Elec       q    Type
                         _______ _______ _______ _____ _____    ______ ____

>  <TORSDO>
F 3

$$$$
=
 OpenBabel07192307433D

 24 25  0  0  0  0  0  0  0  0999 V2000
    1.4180   11.8440   18.9060 N   0  0  0  0  0  0  0  0  0  0  0  0
    1.6280   10.5540   18.4960 C   0  0  0  0  0  0  0  0  0  0  0  0
    1.0960    9.6860   19.3340 N   0  0  0  0  0  0  0  0  0  0  0  0
    0.5300   10.4550   20.3040 C   0  0  0  0  0  0  0  0  0  0  0  0
    0.7100   11.7840   20.0710 C   0  0  0  0  0  0  0  0  0  0  0  0
    0.2170   12.8010   20.9330 C   0  0  0  0  0  0  0  0  0  0  0  0
    0.3840   13.9960   20.7130 O   0  0  0  0  0  0  0  0  0  0  0  0
   -0.4690   12.2870   22.0390 N   0  0  0  0  0  0  0  0  0  0  0  0
   -0.6750   10.9190   22.3150 C   0  0  0  0  0  0  0  0  0  0  0  0
   -1.2950   10.5620   23.3220 O   0  0  0  0  0  0  0  0  0  0  0  0
   -0.1520    9.9980   21.4070 N   0  0  0  0  0  0  0  0  0  0  0  0
    2.1690   10.3030   17.5920 H   0  0  0  0  0  0  0  0  0  0  0  0
    1.8630   13.0350   18.2270 C   0  0  0  0  0  0  0  0  0  0  0  0
    1.0050   13.6960   18.0860 H   0  0  0  0  0  0  0  0  0  0  0  0
    2.2950   12.7470   17.2650 H   0  0  0  0  0  0  0  0  0  0  0  0
    2.6200   13.5380   18.8340 H   0  0  0  0  0  0  0  0  0  0  0  0
   -0.3200    8.5720   21.6180 C   0  0  0  0  0  0  0  0  0  0  0  0
   -0.9260    8.1590   20.8040 H   0  0  0  0  0  0  0  0  0  0  0  0
   -0.8190    8.3570   22.5670 H   0  0  0  0  0  0  0  0  0  0  0  0
    0.6630    8.0930   21.6240 H   0  0  0  0  0  0  0  0  0  0  0  0
   -1.0210   13.2240   22.9960 C   0  0  0  0  0  0  0  0  0  0  0  0
   -0.3340   14.0700   23.1040 H   0  0  0  0  0  0  0  0  0  0  0  0
   -1.1140   12.7280   23.9680 H   0  0  0  0  0  0  0  0  0  0  0  0
   -2.0020   13.6020   22.6970 H   0  0  0  0  0  0  0  0  0  0  0  0
  1  5  1  0  0  0  0
  2  1  1  0  0  0  0
  2  3  2  0  0  0  0
  3  4  1  0  0  0  0
  4 11  1  0  0  0  0
  5  4  2  0  0  0  0
  5  6  1  0  0  0  0
  6  8  1  0  0  0  0
  7  6  2  0  0  0  0
  8  9  1  0  0  0  0
  8 21  1  0  0  0  0
  9 10  2  0  0  0  0
 11 17  1  0  0  0  0
 11  9  1  0  0  0  0
 12  2  1  0  0  0  0
 13 16  1  0  0  0  0
 13  1  1  0  0  0  0
 14 13  1  0  0  0  0
 15 13  1  0  0  0  0
 17 20  1  0  0  0  0
 17 19  1  0  0  0  0
 18 17  1  0  0  0  0
 21 22  1  0  0  0  0
 21 23  1  0  0  0  0
 24 21  1  0  0  0  0
M  END
>  <MODEL>
25

>  <REMARK>
 VINA RESULT:    -3.705      6.464      8.209
 INTER + INTRA:          -4.030
 INTER:                  -4.030
 INTRA:                   0.000
 UNBOUND:                 0.000
  Name = 
  3 active torsions:
  status: ('A' for Active; 'I' for Inactive)
    1  A    between atoms: C_1  and  N_2
    2  A    between atoms: N_9  and  C_14
    3  A    between atoms: N_12  and  C_13
                            x       y       z     vdW  Elec       q    Type
                         _______ _______ _______ _____ _____    ______ ____

>  <TORSDO>
F 3

$$$$
=
 OpenBabel07192307433D

 24 25  0  0  0  0  0  0  0  0999 V2000
   -1.0840   10.8560   22.7330 N   0  0  0  0  0  0  0  0  0  0  0  0
   -0.3240    9.9010   23.3560 C   0  0  0  0  0  0  0  0  0  0  0  0
    0.4160    9.2320   22.4930 N   0  0  0  0  0  0  0  0  0  0  0  0
    0.1120    9.7830   21.2860 C   0  0  0  0  0  0  0  0  0  0  0  0
   -0.8060   10.7820   21.3990 C   0  0  0  0  0  0  0  0  0  0  0  0
   -1.2940   11.5210   20.2870 C   0  0  0  0  0  0  0  0  0  0  0  0
   -2.1210   12.4210   20.3990 O   0  0  0  0  0  0  0  0  0  0  0  0
   -0.7300   11.1110   19.0750 N   0  0  0  0  0  0  0  0  0  0  0  0
    0.2210   10.0820   18.9180 C   0  0  0  0  0  0  0  0  0  0  0  0
    0.6610    9.7900   17.8010 O   0  0  0  0  0  0  0  0  0  0  0  0
    0.6380    9.4160   20.0700 N   0  0  0  0  0  0  0  0  0  0  0  0
   -0.3460    9.7360   24.4250 H   0  0  0  0  0  0  0  0  0  0  0  0
   -2.0030   11.7620   23.3730 C   0  0  0  0  0  0  0  0  0  0  0  0
   -2.9430   11.2350   23.5550 H   0  0  0  0  0  0  0  0  0  0  0  0
   -2.1610   12.6210   22.7160 H   0  0  0  0  0  0  0  0  0  0  0  0
   -1.5800   12.0990   24.3230 H   0  0  0  0  0  0  0  0  0  0  0  0
    1.6140    8.3440   19.9950 C   0  0  0  0  0  0  0  0  0  0  0  0
    2.1300    8.3980   19.0310 H   0  0  0  0  0  0  0  0  0  0  0  0
    1.1460    7.3600   20.0850 H   0  0  0  0  0  0  0  0  0  0  0  0
    2.3380    8.4620   20.8070 H   0  0  0  0  0  0  0  0  0  0  0  0
   -1.1470   11.7880   17.8630 C   0  0  0  0  0  0  0  0  0  0  0  0
   -1.9870   11.2420   17.4210 H   0  0  0  0  0  0  0  0  0  0  0  0
   -0.3170   11.7830   17.1490 H   0  0  0  0  0  0  0  0  0  0  0  0
   -1.4540   12.8220   18.0430 H   0  0  0  0  0  0  0  0  0  0  0  0
  1  2  1  0  0  0  0
  1 13  1  0  0  0  0
  2 12  1  0  0  0  0
  3  2  2  0  0  0  0
  4  5  2  0  0  0  0
  4  3  1  0  0  0  0
  5  1  1  0  0  0  0
  6  7  2  0  0  0  0
  6  5  1  0  0  0  0
  8  6  1  0  0  0  0
  9  8  1  0  0  0  0
  9 11  1  0  0  0  0
 10  9  2  0  0  0  0
 11  4  1  0  0  0  0
 13 14  1  0  0  0  0
 13 16  1  0  0  0  0
 15 13  1  0  0  0  0
 17 11  1  0  0  0  0
 17 19  1  0  0  0  0
 17 20  1  0  0  0  0
 18 17  1  0  0  0  0
 21 24  1  0  0  0  0
 21  8  1  0  0  0  0
 22 21  1  0  0  0  0
 23 21  1  0  0  0  0
M  END
>  <MODEL>
26

>  <REMARK>
 VINA RESULT:    -3.703      5.517      8.469
 INTER + INTRA:          -4.027
 INTER:                  -4.027
 INTRA:                   0.000
 UNBOUND:                 0.000
  Name = 
  3 active torsions:
  status: ('A' for Active; 'I' for Inactive)
    1  A    between atoms: C_1  and  N_2
    2  A    between atoms: N_9  and  C_14
    3  A    between atoms: N_12  and  C_13
                            x       y       z     vdW  Elec       q    Type
                         _______ _______ _______ _____ _____    ______ ____

>  <TORSDO>
F 3

$$$$
=
 OpenBabel07192307433D

 24 25  0  0  0  0  0  0  0  0999 V2000
   -1.3230   12.8870   20.1490 N   0  0  0  0  0  0  0  0  0  0  0  0
   -0.9870   12.8940   18.8210 C   0  0  0  0  0  0  0  0  0  0  0  0
   -0.2400   11.8550   18.5040 N   0  0  0  0  0  0  0  0  0  0  0  0
   -0.1000   11.1690   19.6720 C   0  0  0  0  0  0  0  0  0  0  0  0
   -0.7530   11.7760   20.7000 C   0  0  0  0  0  0  0  0  0  0  0  0
   -0.7660   11.2630   22.0270 C   0  0  0  0  0  0  0  0  0  0  0  0
   -1.3580   11.8180   22.9470 O   0  0  0  0  0  0  0  0  0  0  0  0
   -0.0380   10.0760   22.1550 N   0  0  0  0  0  0  0  0  0  0  0  0
    0.6510    9.4180   21.1140 C   0  0  0  0  0  0  0  0  0  0  0  0
    1.2680    8.3690   21.3270 O   0  0  0  0  0  0  0  0  0  0  0  0
    0.6020   10.0010   19.8480 N   0  0  0  0  0  0  0  0  0  0  0  0
   -1.3080   13.6690   18.1370 H   0  0  0  0  0  0  0  0  0  0  0  0
   -2.1280   13.8700   20.8280 C   0  0  0  0  0  0  0  0  0  0  0  0
   -2.6350   13.3870   21.6670 H   0  0  0  0  0  0  0  0  0  0  0  0
   -2.8530   14.2780   20.1190 H   0  0  0  0  0  0  0  0  0  0  0  0
   -1.4860   14.6730   21.1990 H   0  0  0  0  0  0  0  0  0  0  0  0
    1.2850    9.3870   18.7230 C   0  0  0  0  0  0  0  0  0  0  0  0
    1.0030    8.3310   18.6670 H   0  0  0  0  0  0  0  0  0  0  0  0
    2.3720    9.4520   18.8230 H   0  0  0  0  0  0  0  0  0  0  0  0
    0.9880    9.8970   17.8020 H   0  0  0  0  0  0  0  0  0  0  0  0
    0.0260    9.4520   23.4610 C   0  0  0  0  0  0  0  0  0  0  0  0
   -0.9270    9.6050   23.9770 H   0  0  0  0  0  0  0  0  0  0  0  0
    0.8170    9.9320   24.0460 H   0  0  0  0  0  0  0  0  0  0  0  0
    0.2290    8.3790   23.4050 H   0  0  0  0  0  0  0  0  0  0  0  0
  1  5  1  0  0  0  0
  1 13  1  0  0  0  0
  2  1  1  0  0  0  0
  3  2  2  0  0  0  0
  3  4  1  0  0  0  0
  4 11  1  0  0  0  0
  4  5  2  0  0  0  0
  5  6  1  0  0  0  0
  6  8  1  0  0  0  0
  6  7  2  0  0  0  0
  8 21  1  0  0  0  0
  9 10  2  0  0  0  0
  9  8  1  0  0  0  0
 11  9  1  0  0  0  0
 12  2  1  0  0  0  0
 13 16  1  0  0  0  0
 13 14  1  0  0  0  0
 15 13  1  0  0  0  0
 17 19  1  0  0  0  0
 17 11  1  0  0  0  0
 18 17  1  0  0  0  0
 20 17  1  0  0  0  0
 21 22  1  0  0  0  0
 21 23  1  0  0  0  0
 24 21  1  0  0  0  0
M  END
>  <MODEL>
27

>  <REMARK>
 VINA RESULT:    -3.682      5.743      8.319
 INTER + INTRA:          -4.004
 INTER:                  -4.004
 INTRA:                   0.000
 UNBOUND:                 0.000
  Name = 
  3 active torsions:
  status: ('A' for Active; 'I' for Inactive)
    1  A    between atoms: C_1  and  N_2
    2  A    between atoms: N_9  and  C_14
    3  A    between atoms: N_12  and  C_13
                            x       y       z     vdW  Elec       q    Type
                         _______ _______ _______ _____ _____    ______ ____

>  <TORSDO>
F 3

$$$$
=
 OpenBabel07192307433D

 24 25  0  0  0  0  0  0  0  0999 V2000
   -0.6790   11.5480   20.3240 N   0  0  0  0  0  0  0  0  0  0  0  0
   -1.3040   12.3210   21.2670 C   0  0  0  0  0  0  0  0  0  0  0  0
   -2.5440   12.6040   20.9180 N   0  0  0  0  0  0  0  0  0  0  0  0
   -2.7060   11.9880   19.7140 C   0  0  0  0  0  0  0  0  0  0  0  0
   -1.5790   11.3310   19.3220 C   0  0  0  0  0  0  0  0  0  0  0  0
   -1.4840   10.6070   18.1030 C   0  0  0  0  0  0  0  0  0  0  0  0
   -0.4640   10.0180   17.7590 O   0  0  0  0  0  0  0  0  0  0  0  0
   -2.6670   10.6430   17.3580 N   0  0  0  0  0  0  0  0  0  0  0  0
   -3.8520   11.3110   17.7300 C   0  0  0  0  0  0  0  0  0  0  0  0
   -4.8500   11.2860   17.0010 O   0  0  0  0  0  0  0  0  0  0  0  0
   -3.8460   11.9940   18.9460 N   0  0  0  0  0  0  0  0  0  0  0  0
   -0.8180   12.6470   22.1770 H   0  0  0  0  0  0  0  0  0  0  0  0
    0.6760   11.0600   20.3870 C   0  0  0  0  0  0  0  0  0  0  0  0
    0.6940   10.0360   20.0070 H   0  0  0  0  0  0  0  0  0  0  0  0
    1.0110   11.0950   21.4260 H   0  0  0  0  0  0  0  0  0  0  0  0
    1.3200   11.6930   19.7710 H   0  0  0  0  0  0  0  0  0  0  0  0
   -5.0250   12.7080   19.4020 C   0  0  0  0  0  0  0  0  0  0  0  0
   -4.7330   13.7150   19.7170 H   0  0  0  0  0  0  0  0  0  0  0  0
   -5.5040   12.2050   20.2460 H   0  0  0  0  0  0  0  0  0  0  0  0
   -5.7440   12.7730   18.5790 H   0  0  0  0  0  0  0  0  0  0  0  0
   -2.6990    9.9410   16.0910 C   0  0  0  0  0  0  0  0  0  0  0  0
   -1.6740    9.6920   15.7960 H   0  0  0  0  0  0  0  0  0  0  0  0
   -3.1280   10.6000   15.3290 H   0  0  0  0  0  0  0  0  0  0  0  0
   -3.2870    9.0200   16.1340 H   0  0  0  0  0  0  0  0  0  0  0  0
  1 13  1  0  0  0  0
  1  2  1  0  0  0  0
  2 12  1  0  0  0  0
  3  2  2  0  0  0  0
  4  3  1  0  0  0  0
  5  4  2  0  0  0  0
  5  1  1  0  0  0  0
  6  5  1  0  0  0  0
  7  6  2  0  0  0  0
  8  9  1  0  0  0  0
  8  6  1  0  0  0  0
  9 11  1  0  0  0  0
 10  9  2  0  0  0  0
 11 17  1  0  0  0  0
 11  4  1  0  0  0  0
 13 15  1  0  0  0  0
 14 13  1  0  0  0  0
 16 13  1  0  0  0  0
 17 18  1  0  0  0  0
 17 19  1  0  0  0  0
 20 17  1  0  0  0  0
 21 24  1  0  0  0  0
 21  8  1  0  0  0  0
 22 21  1  0  0  0  0
 23 21  1  0  0  0  0
M  END
>  <MODEL>
28

>  <REMARK>
 VINA RESULT:    -3.680      7.662      9.167
 INTER + INTRA:          -4.003
 INTER:                  -4.003
 INTRA:                   0.000
 UNBOUND:                 0.000
  Name = 
  3 active torsions:
  status: ('A' for Active; 'I' for Inactive)
    1  A    between atoms: C_1  and  N_2
    2  A    between atoms: N_9  and  C_14
    3  A    between atoms: N_12  and  C_13
                            x       y       z     vdW  Elec       q    Type
                         _______ _______ _______ _____ _____    ______ ____

>  <TORSDO>
F 3

$$$$
=
 OpenBabel07192307433D

 24 25  0  0  0  0  0  0  0  0999 V2000
   -1.5740   12.7770   21.2330 N   0  0  0  0  0  0  0  0  0  0  0  0
   -2.8640   13.2240   21.1120 C   0  0  0  0  0  0  0  0  0  0  0  0
   -3.4530   12.7200   20.0450 N   0  0  0  0  0  0  0  0  0  0  0  0
   -2.5030   11.9280   19.4760 C   0  0  0  0  0  0  0  0  0  0  0  0
   -1.3390   11.9410   20.1810 C   0  0  0  0  0  0  0  0  0  0  0  0
   -0.1880   11.1990   19.8000 C   0  0  0  0  0  0  0  0  0  0  0  0
    0.8570   11.2180   20.4430 O   0  0  0  0  0  0  0  0  0  0  0  0
   -0.3850   10.4580   18.6300 N   0  0  0  0  0  0  0  0  0  0  0  0
   -1.5740   10.4190   17.8730 C   0  0  0  0  0  0  0  0  0  0  0  0
   -1.6510    9.7320   16.8480 O   0  0  0  0  0  0  0  0  0  0  0  0
   -2.6480   11.1830   18.3300 N   0  0  0  0  0  0  0  0  0  0  0  0
   -3.3190   13.9070   21.8170 H   0  0  0  0  0  0  0  0  0  0  0  0
   -0.6480   13.1290   22.2800 C   0  0  0  0  0  0  0  0  0  0  0  0
   -1.2020   13.2270   23.2170 H   0  0  0  0  0  0  0  0  0  0  0  0
   -0.1630   14.0720   22.0140 H   0  0  0  0  0  0  0  0  0  0  0  0
    0.1060   12.3430   22.3780 H   0  0  0  0  0  0  0  0  0  0  0  0
   -3.9070   11.1980   17.6080 C   0  0  0  0  0  0  0  0  0  0  0  0
   -4.3580   10.2010   17.6560 H   0  0  0  0  0  0  0  0  0  0  0  0
   -3.7710   11.4680   16.5570 H   0  0  0  0  0  0  0  0  0  0  0  0
   -4.5780   11.9280   18.0720 H   0  0  0  0  0  0  0  0  0  0  0  0
    0.7160    9.6570   18.1350 C   0  0  0  0  0  0  0  0  0  0  0  0
    1.3170   10.2620   17.4480 H   0  0  0  0  0  0  0  0  0  0  0  0
    0.3140    8.8020   17.5820 H   0  0  0  0  0  0  0  0  0  0  0  0
    1.3620    9.2880   18.9360 H   0  0  0  0  0  0  0  0  0  0  0  0
  1 13  1  0  0  0  0
  2  1  1  0  0  0  0
  2 12  1  0  0  0  0
  3  2  2  0  0  0  0
  4  3  1  0  0  0  0
  4  5  2  0  0  0  0
  5  1  1  0  0  0  0
  6  5  1  0  0  0  0
  6  7  2  0  0  0  0
  8  6  1  0  0  0  0
  9 11  1  0  0  0  0
  9  8  1  0  0  0  0
 10  9  2  0  0  0  0
 11  4  1  0  0  0  0
 13 16  1  0  0  0  0
 13 14  1  0  0  0  0
 15 13  1  0  0  0  0
 17 18  1  0  0  0  0
 17 20  1  0  0  0  0
 17 11  1  0  0  0  0
 19 17  1  0  0  0  0
 21  8  1  0  0  0  0
 21 24  1  0  0  0  0
 22 21  1  0  0  0  0
 23 21  1  0  0  0  0
M  END
>  <MODEL>
29

>  <REMARK>
 VINA RESULT:    -3.660      6.698      9.108
 INTER + INTRA:          -3.981
 INTER:                  -3.981
 INTRA:                   0.000
 UNBOUND:                 0.000
  Name = 
  3 active torsions:
  status: ('A' for Active; 'I' for Inactive)
    1  A    between atoms: C_1  and  N_2
    2  A    between atoms: N_9  and  C_14
    3  A    between atoms: N_12  and  C_13
                            x       y       z     vdW  Elec       q    Type
                         _______ _______ _______ _____ _____    ______ ____

>  <TORSDO>
F 3

$$$$
=
 OpenBabel07192307433D

 24 25  0  0  0  0  0  0  0  0999 V2000
    1.5410   12.4530   19.2880 N   0  0  0  0  0  0  0  0  0  0  0  0
    1.3520   13.7720   19.6090 C   0  0  0  0  0  0  0  0  0  0  0  0
    0.6040   13.9060   20.6860 N   0  0  0  0  0  0  0  0  0  0  0  0
    0.3120   12.6280   21.0580 C   0  0  0  0  0  0  0  0  0  0  0  0
    0.8730   11.7140   20.2190 C   0  0  0  0  0  0  0  0  0  0  0  0
    0.7220   10.3100   20.3840 C   0  0  0  0  0  0  0  0  0  0  0  0
    1.2320    9.4940   19.6230 O   0  0  0  0  0  0  0  0  0  0  0  0
   -0.0600    9.9760   21.4950 N   0  0  0  0  0  0  0  0  0  0  0  0
   -0.6570   10.8940   22.3850 C   0  0  0  0  0  0  0  0  0  0  0  0
   -1.3340   10.5010   23.3400 O   0  0  0  0  0  0  0  0  0  0  0  0
   -0.4490   12.2510   22.1380 N   0  0  0  0  0  0  0  0  0  0  0  0
    1.7740   14.5850   19.0330 H   0  0  0  0  0  0  0  0  0  0  0  0
    2.3050   11.9510   18.1730 C   0  0  0  0  0  0  0  0  0  0  0  0
    2.5300   10.8970   18.3530 H   0  0  0  0  0  0  0  0  0  0  0  0
    3.2250   12.5360   18.0890 H   0  0  0  0  0  0  0  0  0  0  0  0
    1.7200   12.0520   17.2560 H   0  0  0  0  0  0  0  0  0  0  0  0
   -1.0300   13.2590   23.0060 C   0  0  0  0  0  0  0  0  0  0  0  0
   -1.9370   12.8550   23.4660 H   0  0  0  0  0  0  0  0  0  0  0  0
   -1.2930   14.1670   22.4560 H   0  0  0  0  0  0  0  0  0  0  0  0
   -0.3060   13.5200   23.7840 H   0  0  0  0  0  0  0  0  0  0  0  0
   -0.2900    8.5730   21.7720 C   0  0  0  0  0  0  0  0  0  0  0  0
   -1.2840    8.4550   22.2150 H   0  0  0  0  0  0  0  0  0  0  0  0
    0.4550    8.2260   22.4960 H   0  0  0  0  0  0  0  0  0  0  0  0
   -0.2280    7.9510   20.8750 H   0  0  0  0  0  0  0  0  0  0  0  0
  1  2  1  0  0  0  0
  1  5  1  0  0  0  0
  2  3  2  0  0  0  0
  3  4  1  0  0  0  0
  4 11  1  0  0  0  0
  5  6  1  0  0  0  0
  5  4  2  0  0  0  0
  6  8  1  0  0  0  0
  7  6  2  0  0  0  0
  8 21  1  0  0  0  0
  8  9  1  0  0  0  0
  9 10  2  0  0  0  0
 11  9  1  0  0  0  0
 11 17  1  0  0  0  0
 12  2  1  0  0  0  0
 13 14  1  0  0  0  0
 13  1  1  0  0  0  0
 15 13  1  0  0  0  0
 16 13  1  0  0  0  0
 17 18  1  0  0  0  0
 17 20  1  0  0  0  0
 19 17  1  0  0  0  0
 21 22  1  0  0  0  0
 21 23  1  0  0  0  0
 24 21  1  0  0  0  0
M  END
>  <MODEL>
30

>  <REMARK>
 VINA RESULT:    -3.650      6.615      7.836
 INTER + INTRA:          -3.970
 INTER:                  -3.970
 INTRA:                   0.000
 UNBOUND:                 0.000
  Name = 
  3 active torsions:
  status: ('A' for Active; 'I' for Inactive)
    1  A    between atoms: C_1  and  N_2
    2  A    between atoms: N_9  and  C_14
    3  A    between atoms: N_12  and  C_13
                            x       y       z     vdW  Elec       q    Type
                         _______ _______ _______ _____ _____    ______ ____

>  <TORSDO>
F 3

$$$$
=
 OpenBabel07192307433D

 24 25  0  0  0  0  0  0  0  0999 V2000
   -1.3110   12.5450   21.1560 N   0  0  0  0  0  0  0  0  0  0  0  0
   -0.0130   12.1790   21.4000 C   0  0  0  0  0  0  0  0  0  0  0  0
    0.4430   11.3640   20.4680 N   0  0  0  0  0  0  0  0  0  0  0  0
   -0.6020   11.2120   19.6090 C   0  0  0  0  0  0  0  0  0  0  0  0
   -1.6930   11.9250   20.0030 C   0  0  0  0  0  0  0  0  0  0  0  0
   -2.9170   11.9380   19.2810 C   0  0  0  0  0  0  0  0  0  0  0  0
   -3.8950   12.5840   19.6440 O   0  0  0  0  0  0  0  0  0  0  0  0
   -2.8750   11.1460   18.1290 N   0  0  0  0  0  0  0  0  0  0  0  0
   -1.7650   10.3950   17.6890 C   0  0  0  0  0  0  0  0  0  0  0  0
   -1.8260    9.7220   16.6540 O   0  0  0  0  0  0  0  0  0  0  0  0
   -0.6090   10.4470   18.4670 N   0  0  0  0  0  0  0  0  0  0  0  0
    0.5470   12.5280   22.2570 H   0  0  0  0  0  0  0  0  0  0  0  0
   -2.1130   13.4230   21.9710 C   0  0  0  0  0  0  0  0  0  0  0  0
   -1.4730   14.2170   22.3630 H   0  0  0  0  0  0  0  0  0  0  0  0
   -2.5510   12.8390   22.7850 H   0  0  0  0  0  0  0  0  0  0  0  0
   -2.9090   13.8580   21.3610 H   0  0  0  0  0  0  0  0  0  0  0  0
    0.5770    9.7020   18.0840 C   0  0  0  0  0  0  0  0  0  0  0  0
    0.8270    8.9940   18.8810 H   0  0  0  0  0  0  0  0  0  0  0  0
    1.4350   10.3600   17.9200 H   0  0  0  0  0  0  0  0  0  0  0  0
    0.3730    9.1570   17.1580 H   0  0  0  0  0  0  0  0  0  0  0  0
   -4.0640   11.0750   17.3040 C   0  0  0  0  0  0  0  0  0  0  0  0
   -4.7070   10.2690   17.6730 H   0  0  0  0  0  0  0  0  0  0  0  0
   -3.7710   10.8400   16.2760 H   0  0  0  0  0  0  0  0  0  0  0  0
   -4.6330   12.0090   17.3050 H   0  0  0  0  0  0  0  0  0  0  0  0
  1  2  1  0  0  0  0
  1 13  1  0  0  0  0
  2 12  1  0  0  0  0
  3  2  2  0  0  0  0
  4  5  2  0  0  0  0
  4  3  1  0  0  0  0
  5  1  1  0  0  0  0
  6  7  2  0  0  0  0
  6  5  1  0  0  0  0
  8  6  1  0  0  0  0
  9  8  1  0  0  0  0
  9 11  1  0  0  0  0
 10  9  2  0  0  0  0
 11  4  1  0  0  0  0
 13 14  1  0  0  0  0
 13 15  1  0  0  0  0
 16 13  1  0  0  0  0
 17 11  1  0  0  0  0
 17 18  1  0  0  0  0
 19 17  1  0  0  0  0
 20 17  1  0  0  0  0
 21 24  1  0  0  0  0
 21 22  1  0  0  0  0
 21  8  1  0  0  0  0
 23 21  1  0  0  0  0
M  END
>  <MODEL>
31

>  <REMARK>
 VINA RESULT:    -3.602      6.672      9.196
 INTER + INTRA:          -3.917
 INTER:                  -3.917
 INTRA:                   0.000
 UNBOUND:                 0.000
  Name = 
  3 active torsions:
  status: ('A' for Active; 'I' for Inactive)
    1  A    between atoms: C_1  and  N_2
    2  A    between atoms: N_9  and  C_14
    3  A    between atoms: N_12  and  C_13
                            x       y       z     vdW  Elec       q    Type
                         _______ _______ _______ _____ _____    ______ ____

>  <TORSDO>
F 3

$$$$
=
 OpenBabel07192307433D

 24 25  0  0  0  0  0  0  0  0999 V2000
   -1.1840   13.0380   21.0260 N   0  0  0  0  0  0  0  0  0  0  0  0
   -1.5320   13.0270   22.3510 C   0  0  0  0  0  0  0  0  0  0  0  0
   -1.1160   11.9300   22.9520 N   0  0  0  0  0  0  0  0  0  0  0  0
   -0.4840   11.2250   21.9730 C   0  0  0  0  0  0  0  0  0  0  0  0
   -0.5090   11.8790   20.7790 C   0  0  0  0  0  0  0  0  0  0  0  0
    0.0810   11.3590   19.5940 C   0  0  0  0  0  0  0  0  0  0  0  0
    0.0530   11.9560   18.5230 O   0  0  0  0  0  0  0  0  0  0  0  0
    0.6840   10.1130   19.7910 N   0  0  0  0  0  0  0  0  0  0  0  0
    0.7300    9.4060   21.0110 C   0  0  0  0  0  0  0  0  0  0  0  0
    1.2870    8.3060   21.0850 O   0  0  0  0  0  0  0  0  0  0  0  0
    0.1220   10.0000   22.1170 N   0  0  0  0  0  0  0  0  0  0  0  0
   -2.0810   13.8320   22.8230 H   0  0  0  0  0  0  0  0  0  0  0  0
   -1.4800   14.0830   20.0780 C   0  0  0  0  0  0  0  0  0  0  0  0
   -0.7330   14.8730   20.1870 H   0  0  0  0  0  0  0  0  0  0  0  0
   -2.4830   14.4650   20.2820 H   0  0  0  0  0  0  0  0  0  0  0  0
   -1.4400   13.6760   19.0640 H   0  0  0  0  0  0  0  0  0  0  0  0
    0.1250    9.3370   23.4080 C   0  0  0  0  0  0  0  0  0  0  0  0
    0.1820   10.0940   24.1980 H   0  0  0  0  0  0  0  0  0  0  0  0
    0.9740    8.6570   23.5150 H   0  0  0  0  0  0  0  0  0  0  0  0
   -0.8000    8.7620   23.5170 H   0  0  0  0  0  0  0  0  0  0  0  0
    1.3210    9.4750   18.6570 C   0  0  0  0  0  0  0  0  0  0  0  0
    1.3900    8.3990   18.8450 H   0  0  0  0  0  0  0  0  0  0  0  0
    2.3360    9.8730   18.5480 H   0  0  0  0  0  0  0  0  0  0  0  0
    0.7770    9.6360   17.7230 H   0  0  0  0  0  0  0  0  0  0  0  0
  1  2  1  0  0  0  0
  2 12  1  0  0  0  0
  2  3  2  0  0  0  0
  4 11  1  0  0  0  0
  4  3  1  0  0  0  0
  5  1  1  0  0  0  0
  5  4  2  0  0  0  0
  6  8  1  0  0  0  0
  6  5  1  0  0  0  0
  7  6  2  0  0  0  0
  8  9  1  0  0  0  0
  9 10  2  0  0  0  0
  9 11  1  0  0  0  0
 11 17  1  0  0  0  0
 13 14  1  0  0  0  0
 13 15  1  0  0  0  0
 13  1  1  0  0  0  0
 16 13  1  0  0  0  0
 17 19  1  0  0  0  0
 17 20  1  0  0  0  0
 17 18  1  0  0  0  0
 21 22  1  0  0  0  0
 21  8  1  0  0  0  0
 23 21  1  0  0  0  0
 24 21  1  0  0  0  0
M  END
>  <MODEL>
32

>  <REMARK>
 VINA RESULT:    -3.543      5.859      8.448
 INTER + INTRA:          -3.853
 INTER:                  -3.853
 INTRA:                   0.000
 UNBOUND:                 0.000
  Name = 
  3 active torsions:
  status: ('A' for Active; 'I' for Inactive)
    1  A    between atoms: C_1  and  N_2
    2  A    between atoms: N_9  and  C_14
    3  A    between atoms: N_12  and  C_13
                            x       y       z     vdW  Elec       q    Type
                         _______ _______ _______ _____ _____    ______ ____

>  <TORSDO>
F 3

$$$$
