=
 OpenBabel07192307433D

 50 53  0  0  1  0  0  0  0  0999 V2000
    1.4360    8.3470   20.6560 C   0  0  0  0  0  0  0  0  0  0  0  0
    1.1150    8.5510   22.0000 C   0  0  0  0  0  0  0  0  0  0  0  0
    0.3250    9.6420   22.3690 C   0  0  0  0  0  0  0  0  0  0  0  0
   -0.1560   10.5300   21.4030 C   0  0  0  0  0  0  0  0  0  0  0  0
    0.1530   10.3420   20.0500 C   0  0  0  0  0  0  0  0  0  0  0  0
    0.9650    9.2520   19.6910 C   0  0  0  0  0  0  0  0  0  0  0  0
    1.4900    7.8890   22.7810 H   0  0  0  0  0  0  0  0  0  0  0  0
    0.0780    9.7900   23.4170 H   0  0  0  0  0  0  0  0  0  0  0  0
   -0.7770   11.3620   21.7230 H   0  0  0  0  0  0  0  0  0  0  0  0
    1.2000    9.0880   18.6370 H   0  0  0  0  0  0  0  0  0  0  0  0
    1.9480    5.9220   20.3010 C   0  0  0  0  0  0  0  0  0  0  0  0
    0.9410    5.3830   20.7540 O   0  0  0  0  0  0  0  0  0  0  0  0
    2.2260    7.2770   20.2010 N   0  0  0  0  0  0  0  0  0  0  0  0
    3.0440    7.5170   19.6430 H   0  0  0  0  0  0  0  0  0  0  0  0
    3.6950    3.1580   18.5630 C   0  0  0  0  0  0  0  0  0  0  0  0
    2.6700    3.8260   19.1880 C   0  0  0  0  0  0  0  0  0  0  0  0
    3.0020    5.0770   19.6710 C   0  0  0  0  0  0  0  0  0  0  0  0
    4.2200    5.6600   19.5510 N   0  0  0  0  0  0  0  0  0  0  0  0
    5.1710    4.9310   18.9490 C   0  0  0  0  0  0  0  0  0  0  0  0
    4.9250    3.7040   18.4170 N   0  0  0  0  0  0  0  0  0  0  0  0
    1.6710    3.4140   19.2900 H   0  0  0  0  0  0  0  0  0  0  0  0
    6.5640    5.5310   18.8970 C   0  0  0  0  0  0  0  0  0  0  0  0
    7.0260    6.3210   17.6900 C   0  0  0  0  0  0  0  0  0  0  0  0
    7.6370    4.9750   17.9860 C   0  0  0  0  0  0  0  0  0  0  0  0
    6.9150    5.9050   19.8560 H   0  0  0  0  0  0  0  0  0  0  0  0
    7.6200    7.2110   17.8660 H   0  0  0  0  0  0  0  0  0  0  0  0
    6.3730    6.3970   16.8220 H   0  0  0  0  0  0  0  0  0  0  0  0
    8.6500    4.9220   18.3800 H   0  0  0  0  0  0  0  0  0  0  0  0
    7.3790    4.1450   17.3310 H   0  0  0  0  0  0  0  0  0  0  0  0
    3.4700    1.8000   17.9780 C   0  0  0  0  0  0  0  0  0  0  0  0
    3.1060    1.1020   18.7390 H   0  0  0  0  0  0  0  0  0  0  0  0
    4.4010    1.3890   17.5610 H   0  0  0  0  0  0  0  0  0  0  0  0
    2.7280    1.8760   17.1760 H   0  0  0  0  0  0  0  0  0  0  0  0
   -0.4110   11.2400   18.9560 C   0  0  2  0  0  0  0  0  0  0  0  0
   -0.5140   10.6360   18.0430 H   0  0  0  0  0  0  0  0  0  0  0  0
    0.5500   12.3860   18.6150 C   0  0  0  0  0  0  0  0  0  0  0  0
    0.1920   13.3330   19.0290 H   0  0  0  0  0  0  0  0  0  0  0  0
    0.6430   12.5080   17.5320 H   0  0  0  0  0  0  0  0  0  0  0  0
    1.5570   12.2090   19.0120 H   0  0  0  0  0  0  0  0  0  0  0  0
   -1.8060   11.7530   19.3800 C   0  0  0  0  0  0  0  0  0  0  0  0
   -1.7420   12.8130   19.6600 H   0  0  0  0  0  0  0  0  0  0  0  0
   -2.1440   11.2180   20.2780 H   0  0  0  0  0  0  0  0  0  0  0  0
   -2.8520   11.5460   18.3290 C   0  0  0  0  0  0  0  0  0  0  0  0
   -4.1570   11.6090   18.5410 N   0  0  0  0  0  0  0  0  0  0  0  0
   -4.8950   11.4060   17.3800 N   0  0  0  0  0  0  0  0  0  0  0  0
   -4.1150   11.1980   16.3380 C   0  0  0  0  0  0  0  0  0  0  0  0
   -2.4720   11.2820   16.7210 S   0  0  2  0  0  0  0  0  0  0  0  0
   -2.0530    9.3610   16.5370 Cl  0  0  0  0  0  0  0  0  0  0  0  0
   -4.5030   11.0380   15.3360 H   0  0  0  0  0  0  0  0  0  0  0  0
   -2.0600   12.2630   15.8790 H   0  0  0  0  0  0  0  0  0  0  0  0
  1  2  1  0  0  0  0
  2  3  2  0  0  0  0
  2  7  1  0  0  0  0
  3  8  1  0  0  0  0
  4  9  1  0  0  0  0
  4  3  1  0  0  0  0
  5  4  2  0  0  0  0
  6  5  1  0  0  0  0
  6  1  2  0  0  0  0
 10  6  1  0  0  0  0
 11 12  2  0  0  0  0
 13 11  1  0  0  0  0
 13  1  1  0  0  0  0
 14 13  1  0  0  0  0
 15 16  1  0  0  0  0
 16 21  1  0  0  0  0
 16 17  2  0  0  0  0
 17 11  1  0  0  0  0
 18 17  1  0  0  0  0
 19 18  2  0  0  0  0
 20 15  2  0  0  0  0
 20 19  1  0  0  0  0
 22 19  1  0  0  0  0
 22 25  1  0  0  0  0
 23 26  1  0  0  0  0
 23 24  1  0  0  0  0
 23 22  1  0  0  0  0
 24 28  1  0  0  0  0
 24 22  1  0  0  0  0
 27 23  1  0  0  0  0
 29 24  1  0  0  0  0
 30 15  1  0  0  0  0
 30 31  1  0  0  0  0
 32 30  1  0  0  0  0
 33 30  1  0  0  0  0
 34 35  1  6  0  0  0
 34 40  1  0  0  0  0
 34  5  1  0  0  0  0
 36 34  1  0  0  0  0
 36 39  1  0  0  0  0
 36 37  1  0  0  0  0
 38 36  1  0  0  0  0
 40 41  1  0  0  0  0
 40 42  1  0  0  0  0
 43 44  2  0  0  0  0
 43 40  1  0  0  0  0
 45 44  1  0  0  0  0
 46 47  1  0  0  0  0
 46 45  2  0  0  0  0
 47 50  1  6  0  0  0
 47 43  1  0  0  0  0
 48 47  1  0  0  0  0
 49 46  1  0  0  0  0
M  END
>  <MODEL>
1

>  <REMARK>
 VINA RESULT:    -7.764      0.000      0.000
 INTER + INTRA:         -11.720
 INTER:                 -10.906
 INTRA:                  -0.814
 UNBOUND:                -0.779
  Name = 
  8 active torsions:
  status: ('A' for Active; 'I' for Inactive)
    1  A    between atoms: C_1  and  C_2
    2  A    between atoms: C_4  and  C_11
    3  A    between atoms: C_6  and  C_8
    4  A    between atoms: N_13  and  C_14
    5  A    between atoms: C_18  and  C_20
    6  A    between atoms: C_20  and  C_21
    7  A    between atoms: C_20  and  C_22
    8  A    between atoms: C_22  and  C_23
                            x       y       z     vdW  Elec       q    Type
                         _______ _______ _______ _____ _____    ______ ____

>  <TORSDO>
F 8

$$$$
=
 OpenBabel07192307433D

 50 53  0  0  1  0  0  0  0  0999 V2000
    1.2240    8.6510   20.5060 C   0  0  0  0  0  0  0  0  0  0  0  0
    0.9570    8.5960   21.8760 C   0  0  0  0  0  0  0  0  0  0  0  0
    0.2360    9.6240   22.4860 C   0  0  0  0  0  0  0  0  0  0  0  0
   -0.2330   10.7070   21.7360 C   0  0  0  0  0  0  0  0  0  0  0  0
    0.0210   10.7790   20.3610 C   0  0  0  0  0  0  0  0  0  0  0  0
    0.7660    9.7500   19.7590 C   0  0  0  0  0  0  0  0  0  0  0  0
    1.3250    7.7770   22.4930 H   0  0  0  0  0  0  0  0  0  0  0  0
    0.0320    9.5690   23.5530 H   0  0  0  0  0  0  0  0  0  0  0  0
   -0.8010   11.4830   22.2410 H   0  0  0  0  0  0  0  0  0  0  0  0
    0.9570    9.7900   18.6850 H   0  0  0  0  0  0  0  0  0  0  0  0
    2.3490    7.6840   18.4890 C   0  0  0  0  0  0  0  0  0  0  0  0
    2.2110    8.5860   17.6670 O   0  0  0  0  0  0  0  0  0  0  0  0
    1.9440    7.6610   19.8150 N   0  0  0  0  0  0  0  0  0  0  0  0
    2.3030    6.8850   20.3700 H   0  0  0  0  0  0  0  0  0  0  0  0
    3.2760    4.2140   17.5900 C   0  0  0  0  0  0  0  0  0  0  0  0
    2.4850    5.2540   18.0140 C   0  0  0  0  0  0  0  0  0  0  0  0
    3.1280    6.4720   18.1110 C   0  0  0  0  0  0  0  0  0  0  0  0
    4.4310    6.6900   17.8070 N   0  0  0  0  0  0  0  0  0  0  0  0
    5.1400    5.6170   17.4240 C   0  0  0  0  0  0  0  0  0  0  0  0
    4.5800    4.3870   17.2730 N   0  0  0  0  0  0  0  0  0  0  0  0
    1.4310    5.1370   18.2470 H   0  0  0  0  0  0  0  0  0  0  0  0
    6.6220    5.8280   17.1780 C   0  0  0  0  0  0  0  0  0  0  0  0
    7.6050    5.8720   18.3300 C   0  0  0  0  0  0  0  0  0  0  0  0
    7.3140    7.1240   17.5440 C   0  0  0  0  0  0  0  0  0  0  0  0
    6.9890    5.3430   16.2760 H   0  0  0  0  0  0  0  0  0  0  0  0
    8.5640    5.3850   18.1950 H   0  0  0  0  0  0  0  0  0  0  0  0
    7.2300    5.8200   19.3510 H   0  0  0  0  0  0  0  0  0  0  0  0
    8.0600    7.5060   16.8500 H   0  0  0  0  0  0  0  0  0  0  0  0
    6.7280    7.9030   18.0270 H   0  0  0  0  0  0  0  0  0  0  0  0
    2.7030    2.8420   17.4260 C   0  0  0  0  0  0  0  0  0  0  0  0
    3.3110    2.2450   16.7380 H   0  0  0  0  0  0  0  0  0  0  0  0
    1.6810    2.8850   17.0240 H   0  0  0  0  0  0  0  0  0  0  0  0
    2.6770    2.3480   18.4030 H   0  0  0  0  0  0  0  0  0  0  0  0
   -0.5340   11.9000   19.4910 C   0  0  2  0  0  0  0  0  0  0  0  0
   -0.4420   11.5900   18.4410 H   0  0  0  0  0  0  0  0  0  0  0  0
    0.2860   13.1880   19.6390 C   0  0  0  0  0  0  0  0  0  0  0  0
    0.9150   13.3550   18.7590 H   0  0  0  0  0  0  0  0  0  0  0  0
    0.9420   13.1340   20.5130 H   0  0  0  0  0  0  0  0  0  0  0  0
   -0.3530   14.0700   19.7640 H   0  0  0  0  0  0  0  0  0  0  0  0
   -2.0280   12.1170   19.8230 C   0  0  0  0  0  0  0  0  0  0  0  0
   -2.1890   13.1530   20.1480 H   0  0  0  0  0  0  0  0  0  0  0  0
   -2.3190   11.4800   20.6700 H   0  0  0  0  0  0  0  0  0  0  0  0
   -2.9380   11.7720   18.6850 C   0  0  0  0  0  0  0  0  0  0  0  0
   -4.2580   11.7210   18.7640 N   0  0  0  0  0  0  0  0  0  0  0  0
   -4.8510   11.4050   17.5460 N   0  0  0  0  0  0  0  0  0  0  0  0
   -3.9530   11.2290   16.5980 C   0  0  0  0  0  0  0  0  0  0  0  0
   -2.3720   11.4810   17.1370 S   0  0  2  0  0  0  0  0  0  0  0  0
   -1.7680    9.6020   17.0890 Cl  0  0  0  0  0  0  0  0  0  0  0  0
   -4.2200   10.9940   15.5710 H   0  0  0  0  0  0  0  0  0  0  0  0
   -1.9640   12.4630   16.2940 H   0  0  0  0  0  0  0  0  0  0  0  0
  1  2  1  0  0  0  0
  2  3  2  0  0  0  0
  2  7  1  0  0  0  0
  3  8  1  0  0  0  0
  4  9  1  0  0  0  0
  4  3  1  0  0  0  0
  5  4  2  0  0  0  0
  6  5  1  0  0  0  0
  6  1  2  0  0  0  0
 10  6  1  0  0  0  0
 11 13  1  0  0  0  0
 12 11  2  0  0  0  0
 13 14  1  0  0  0  0
 13  1  1  0  0  0  0
 15 16  1  0  0  0  0
 16 17  2  0  0  0  0
 16 21  1  0  0  0  0
 17 11  1  0  0  0  0
 18 17  1  0  0  0  0
 19 18  2  0  0  0  0
 20 19  1  0  0  0  0
 20 15  2  0  0  0  0
 22 19  1  0  0  0  0
 22 24  1  0  0  0  0
 22 23  1  0  0  0  0
 23 27  1  0  0  0  0
 24 29  1  0  0  0  0
 24 23  1  0  0  0  0
 25 22  1  0  0  0  0
 26 23  1  0  0  0  0
 28 24  1  0  0  0  0
 30 15  1  0  0  0  0
 30 33  1  0  0  0  0
 31 30  1  0  0  0  0
 32 30  1  0  0  0  0
 34 35  1  6  0  0  0
 34 36  1  0  0  0  0
 34 40  1  0  0  0  0
 34  5  1  0  0  0  0
 36 39  1  0  0  0  0
 36 38  1  0  0  0  0
 37 36  1  0  0  0  0
 40 41  1  0  0  0  0
 40 42  1  0  0  0  0
 43 44  2  0  0  0  0
 43 40  1  0  0  0  0
 45 44  1  0  0  0  0
 46 47  1  0  0  0  0
 46 45  2  0  0  0  0
 47 50  1  6  0  0  0
 47 43  1  0  0  0  0
 48 47  1  0  0  0  0
 49 46  1  0  0  0  0
M  END
>  <MODEL>
2

>  <REMARK>
 VINA RESULT:    -7.615      1.406      1.501
 INTER + INTRA:         -11.510
 INTER:                 -11.069
 INTRA:                  -0.441
 UNBOUND:                -0.779
  Name = 
  8 active torsions:
  status: ('A' for Active; 'I' for Inactive)
    1  A    between atoms: C_1  and  C_2
    2  A    between atoms: C_4  and  C_11
    3  A    between atoms: C_6  and  C_8
    4  A    between atoms: N_13  and  C_14
    5  A    between atoms: C_18  and  C_20
    6  A    between atoms: C_20  and  C_21
    7  A    between atoms: C_20  and  C_22
    8  A    between atoms: C_22  and  C_23
                            x       y       z     vdW  Elec       q    Type
                         _______ _______ _______ _____ _____    ______ ____

>  <TORSDO>
F 8

$$$$
=
 OpenBabel07192307433D

 50 53  0  0  1  0  0  0  0  0999 V2000
    0.9750    8.8110   20.6670 C   0  0  0  0  0  0  0  0  0  0  0  0
    0.7970    8.8970   22.0500 C   0  0  0  0  0  0  0  0  0  0  0  0
    0.1290    9.9940   22.5980 C   0  0  0  0  0  0  0  0  0  0  0  0
   -0.3720   11.0060   21.7750 C   0  0  0  0  0  0  0  0  0  0  0  0
   -0.2060   10.9370   20.3860 C   0  0  0  0  0  0  0  0  0  0  0  0
    0.4850    9.8390   19.8440 C   0  0  0  0  0  0  0  0  0  0  0  0
    1.1920    8.1350   22.7220 H   0  0  0  0  0  0  0  0  0  0  0  0
   -0.0070   10.0490   23.6760 H   0  0  0  0  0  0  0  0  0  0  0  0
   -0.8960   11.8400   22.2330 H   0  0  0  0  0  0  0  0  0  0  0  0
    0.6080    9.7690   18.7620 H   0  0  0  0  0  0  0  0  0  0  0  0
    2.3360    7.7750   18.8380 C   0  0  0  0  0  0  0  0  0  0  0  0
    2.5650    8.7420   18.1160 O   0  0  0  0  0  0  0  0  0  0  0  0
    1.6360    7.7430   20.0350 N   0  0  0  0  0  0  0  0  0  0  0  0
    1.7040    6.8720   20.5590 H   0  0  0  0  0  0  0  0  0  0  0  0
    4.4460    5.1380   17.3200 C   0  0  0  0  0  0  0  0  0  0  0  0
    3.9030    6.3850   17.5100 C   0  0  0  0  0  0  0  0  0  0  0  0
    2.9390    6.4560   18.4960 C   0  0  0  0  0  0  0  0  0  0  0  0
    2.5330    5.4150   19.2640 N   0  0  0  0  0  0  0  0  0  0  0  0
    3.0950    4.2260   18.9980 C   0  0  0  0  0  0  0  0  0  0  0  0
    4.0730    4.0720   18.0670 N   0  0  0  0  0  0  0  0  0  0  0  0
    4.2090    7.2560   16.9380 H   0  0  0  0  0  0  0  0  0  0  0  0
    2.5780    3.0340   19.7820 C   0  0  0  0  0  0  0  0  0  0  0  0
    1.4020    2.2230   19.2780 C   0  0  0  0  0  0  0  0  0  0  0  0
    1.2530    3.0750   20.5120 C   0  0  0  0  0  0  0  0  0  0  0  0
    3.3610    2.4590   20.2710 H   0  0  0  0  0  0  0  0  0  0  0  0
    1.4450    1.1460   19.3940 H   0  0  0  0  0  0  0  0  0  0  0  0
    0.8800    2.5440   18.3790 H   0  0  0  0  0  0  0  0  0  0  0  0
    1.2060    2.5990   21.4900 H   0  0  0  0  0  0  0  0  0  0  0  0
    0.6500    3.9780   20.4360 H   0  0  0  0  0  0  0  0  0  0  0  0
    5.5130    4.9220   16.2950 C   0  0  0  0  0  0  0  0  0  0  0  0
    6.3320    5.6360   16.4270 H   0  0  0  0  0  0  0  0  0  0  0  0
    5.1150    5.0470   15.2770 H   0  0  0  0  0  0  0  0  0  0  0  0
    5.9040    3.9030   16.3970 H   0  0  0  0  0  0  0  0  0  0  0  0
   -0.8000   11.9770   19.4440 C   0  0  2  0  0  0  0  0  0  0  0  0
   -0.6730   11.6130   18.4150 H   0  0  0  0  0  0  0  0  0  0  0  0
   -0.0480   13.3120   19.5310 C   0  0  0  0  0  0  0  0  0  0  0  0
   -0.3970   13.9020   20.3830 H   0  0  0  0  0  0  0  0  0  0  0  0
   -0.2040   13.9060   18.6260 H   0  0  0  0  0  0  0  0  0  0  0  0
    1.0320   13.1680   19.6460 H   0  0  0  0  0  0  0  0  0  0  0  0
   -2.3090   12.1360   19.7400 C   0  0  0  0  0  0  0  0  0  0  0  0
   -2.5230   13.1720   20.0330 H   0  0  0  0  0  0  0  0  0  0  0  0
   -2.5900   11.5090   20.5980 H   0  0  0  0  0  0  0  0  0  0  0  0
   -3.1790   11.7200   18.5940 C   0  0  0  0  0  0  0  0  0  0  0  0
   -4.4940   11.5900   18.6550 N   0  0  0  0  0  0  0  0  0  0  0  0
   -5.0490   11.2210   17.4330 N   0  0  0  0  0  0  0  0  0  0  0  0
   -4.1270   11.0880   16.5010 C   0  0  0  0  0  0  0  0  0  0  0  0
   -2.5720   11.4430   17.0600 S   0  0  2  0  0  0  0  0  0  0  0  0
   -1.8550    9.6030   17.0480 Cl  0  0  0  0  0  0  0  0  0  0  0  0
   -4.3630   10.8230   15.4740 H   0  0  0  0  0  0  0  0  0  0  0  0
   -2.2110   12.4360   16.2080 H   0  0  0  0  0  0  0  0  0  0  0  0
  1  2  1  0  0  0  0
  2  3  2  0  0  0  0
  2  7  1  0  0  0  0
  3  8  1  0  0  0  0
  4  9  1  0  0  0  0
  4  3  1  0  0  0  0
  5  4  2  0  0  0  0
  6  5  1  0  0  0  0
  6  1  2  0  0  0  0
 10  6  1  0  0  0  0
 11 13  1  0  0  0  0
 12 11  2  0  0  0  0
 13 14  1  0  0  0  0
 13  1  1  0  0  0  0
 15 16  1  0  0  0  0
 15 20  2  0  0  0  0
 16 17  2  0  0  0  0
 17 11  1  0  0  0  0
 17 18  1  0  0  0  0
 19 18  2  0  0  0  0
 19 22  1  0  0  0  0
 20 19  1  0  0  0  0
 21 16  1  0  0  0  0
 22 25  1  0  0  0  0
 22 24  1  0  0  0  0
 23 26  1  0  0  0  0
 23 22  1  0  0  0  0
 23 24  1  0  0  0  0
 24 28  1  0  0  0  0
 27 23  1  0  0  0  0
 29 24  1  0  0  0  0
 30 33  1  0  0  0  0
 30 31  1  0  0  0  0
 30 15  1  0  0  0  0
 32 30  1  0  0  0  0
 34 35  1  6  0  0  0
 34 36  1  0  0  0  0
 34 40  1  0  0  0  0
 34  5  1  0  0  0  0
 36 39  1  0  0  0  0
 36 37  1  0  0  0  0
 38 36  1  0  0  0  0
 40 41  1  0  0  0  0
 40 42  1  0  0  0  0
 43 44  2  0  0  0  0
 43 40  1  0  0  0  0
 45 44  1  0  0  0  0
 46 47  1  0  0  0  0
 46 45  2  0  0  0  0
 47 50  1  6  0  0  0
 47 43  1  0  0  0  0
 48 47  1  0  0  0  0
 49 46  1  0  0  0  0
M  END
>  <MODEL>
3

>  <REMARK>
 VINA RESULT:    -7.469      1.575      2.702
 INTER + INTRA:         -11.305
 INTER:                 -10.688
 INTRA:                  -0.617
 UNBOUND:                -0.779
  Name = 
  8 active torsions:
  status: ('A' for Active; 'I' for Inactive)
    1  A    between atoms: C_1  and  C_2
    2  A    between atoms: C_4  and  C_11
    3  A    between atoms: C_6  and  C_8
    4  A    between atoms: N_13  and  C_14
    5  A    between atoms: C_18  and  C_20
    6  A    between atoms: C_20  and  C_21
    7  A    between atoms: C_20  and  C_22
    8  A    between atoms: C_22  and  C_23
                            x       y       z     vdW  Elec       q    Type
                         _______ _______ _______ _____ _____    ______ ____

>  <TORSDO>
F 8

$$$$
=
 OpenBabel07192307433D

 50 53  0  0  1  0  0  0  0  0999 V2000
    1.6500    9.6690   18.1530 C   0  0  0  0  0  0  0  0  0  0  0  0
    2.3790   10.8600   18.1880 C   0  0  0  0  0  0  0  0  0  0  0  0
    1.7250   12.0700   18.4280 C   0  0  0  0  0  0  0  0  0  0  0  0
    0.3440   12.1010   18.6410 C   0  0  0  0  0  0  0  0  0  0  0  0
   -0.4050   10.9180   18.6120 C   0  0  0  0  0  0  0  0  0  0  0  0
    0.2600    9.7070   18.3510 C   0  0  0  0  0  0  0  0  0  0  0  0
    3.4540   10.8740   18.0060 H   0  0  0  0  0  0  0  0  0  0  0  0
    2.3030   12.9910   18.4560 H   0  0  0  0  0  0  0  0  0  0  0  0
   -0.1320   13.0590   18.8370 H   0  0  0  0  0  0  0  0  0  0  0  0
   -0.3130    8.7780   18.3400 H   0  0  0  0  0  0  0  0  0  0  0  0
    2.4030    7.3780   18.8250 C   0  0  0  0  0  0  0  0  0  0  0  0
    2.0420    7.3280   19.9980 O   0  0  0  0  0  0  0  0  0  0  0  0
    2.2300    8.4110   17.9160 N   0  0  0  0  0  0  0  0  0  0  0  0
    2.4560    8.1860   16.9480 H   0  0  0  0  0  0  0  0  0  0  0  0
    2.9810    3.9330   17.5970 C   0  0  0  0  0  0  0  0  0  0  0  0
    2.3590    4.9640   18.2580 C   0  0  0  0  0  0  0  0  0  0  0  0
    3.0240    6.1730   18.2060 C   0  0  0  0  0  0  0  0  0  0  0  0
    4.1920    6.3920   17.5530 N   0  0  0  0  0  0  0  0  0  0  0  0
    4.7460    5.3270   16.9540 C   0  0  0  0  0  0  0  0  0  0  0  0
    4.1450    4.1070   16.9290 N   0  0  0  0  0  0  0  0  0  0  0  0
    1.4120    4.8480   18.7760 H   0  0  0  0  0  0  0  0  0  0  0  0
    6.1020    5.5350   16.3050 C   0  0  0  0  0  0  0  0  0  0  0  0
    7.3250    4.7930   16.8030 C   0  0  0  0  0  0  0  0  0  0  0  0
    7.2140    6.2820   17.0080 C   0  0  0  0  0  0  0  0  0  0  0  0
    6.0540    5.6770   15.2270 H   0  0  0  0  0  0  0  0  0  0  0  0
    8.0260    4.4220   16.0640 H   0  0  0  0  0  0  0  0  0  0  0  0
    7.2400    4.1570   17.6820 H   0  0  0  0  0  0  0  0  0  0  0  0
    7.8250    6.9520   16.4050 H   0  0  0  0  0  0  0  0  0  0  0  0
    7.0350    6.6440   18.0180 H   0  0  0  0  0  0  0  0  0  0  0  0
    2.3620    2.5720   17.5590 C   0  0  0  0  0  0  0  0  0  0  0  0
    1.3840    2.5740   18.0510 H   0  0  0  0  0  0  0  0  0  0  0  0
    2.9970    1.8340   18.0710 H   0  0  0  0  0  0  0  0  0  0  0  0
    2.2380    2.2670   16.5140 H   0  0  0  0  0  0  0  0  0  0  0  0
   -1.8980   10.8950   18.9150 C   0  0  2  0  0  0  0  0  0  0  0  0
   -2.0670   10.1730   19.7260 H   0  0  0  0  0  0  0  0  0  0  0  0
   -2.7100   10.3970   17.7120 C   0  0  0  0  0  0  0  0  0  0  0  0
   -2.0500   10.0340   16.9180 H   0  0  0  0  0  0  0  0  0  0  0  0
   -3.3220   11.2010   17.2950 H   0  0  0  0  0  0  0  0  0  0  0  0
   -3.3860    9.5770   17.9830 H   0  0  0  0  0  0  0  0  0  0  0  0
   -2.3500   12.2970   19.3850 C   0  0  0  0  0  0  0  0  0  0  0  0
   -3.2150   12.6250   18.7940 H   0  0  0  0  0  0  0  0  0  0  0  0
   -1.5520   13.0290   19.1970 H   0  0  0  0  0  0  0  0  0  0  0  0
   -2.6570   12.3540   20.8490 C   0  0  0  0  0  0  0  0  0  0  0  0
   -3.8340   12.6780   21.3610 N   0  0  0  0  0  0  0  0  0  0  0  0
   -3.8440   12.6190   22.7510 N   0  0  0  0  0  0  0  0  0  0  0  0
   -2.6720   12.2530   23.2310 C   0  0  0  0  0  0  0  0  0  0  0  0
   -1.5390   11.9300   22.0200 S   0  0  2  0  0  0  0  0  0  0  0  0
   -0.3810   13.5040   22.3070 Cl  0  0  0  0  0  0  0  0  0  0  0  0
   -2.4850   12.1310   24.2940 H   0  0  0  0  0  0  0  0  0  0  0  0
   -1.2110   10.6450   22.3090 H   0  0  0  0  0  0  0  0  0  0  0  0
  1  2  2  0  0  0  0
  1  6  1  0  0  0  0
  2  3  1  0  0  0  0
  3  8  1  0  0  0  0
  3  4  2  0  0  0  0
  4  9  1  0  0  0  0
  5  4  1  0  0  0  0
  5 34  1  0  0  0  0
  6  5  2  0  0  0  0
  7  2  1  0  0  0  0
 10  6  1  0  0  0  0
 11 12  2  0  0  0  0
 13  1  1  0  0  0  0
 13 11  1  0  0  0  0
 14 13  1  0  0  0  0
 15 16  1  0  0  0  0
 16 21  1  0  0  0  0
 17 16  2  0  0  0  0
 17 11  1  0  0  0  0
 18 17  1  0  0  0  0
 19 18  2  0  0  0  0
 20 19  1  0  0  0  0
 20 15  2  0  0  0  0
 22 23  1  0  0  0  0
 22 19  1  0  0  0  0
 22 24  1  0  0  0  0
 23 24  1  0  0  0  0
 23 27  1  0  0  0  0
 24 29  1  0  0  0  0
 25 22  1  0  0  0  0
 26 23  1  0  0  0  0
 28 24  1  0  0  0  0
 30 15  1  0  0  0  0
 30 31  1  0  0  0  0
 30 32  1  0  0  0  0
 33 30  1  0  0  0  0
 34 40  1  0  0  0  0
 34 35  1  1  0  0  0
 36 39  1  0  0  0  0
 36 34  1  0  0  0  0
 37 36  1  0  0  0  0
 38 36  1  0  0  0  0
 40 43  1  0  0  0  0
 41 40  1  0  0  0  0
 42 40  1  0  0  0  0
 43 44  2  0  0  0  0
 43 47  1  0  0  0  0
 44 45  1  0  0  0  0
 45 46  2  0  0  0  0
 46 49  1  0  0  0  0
 47 48  1  0  0  0  0
 47 50  1  6  0  0  0
 47 46  1  0  0  0  0
M  END
>  <MODEL>
4

>  <REMARK>
 VINA RESULT:    -7.237      2.732      3.374
 INTER + INTRA:         -10.978
 INTER:                 -10.178
 INTRA:                  -0.800
 UNBOUND:                -0.779
  Name = 
  8 active torsions:
  status: ('A' for Active; 'I' for Inactive)
    1  A    between atoms: C_1  and  C_2
    2  A    between atoms: C_4  and  C_11
    3  A    between atoms: C_6  and  C_8
    4  A    between atoms: N_13  and  C_14
    5  A    between atoms: C_18  and  C_20
    6  A    between atoms: C_20  and  C_21
    7  A    between atoms: C_20  and  C_22
    8  A    between atoms: C_22  and  C_23
                            x       y       z     vdW  Elec       q    Type
                         _______ _______ _______ _____ _____    ______ ____

>  <TORSDO>
F 8

$$$$
=
 OpenBabel07192307433D

 50 53  0  0  1  0  0  0  0  0999 V2000
    1.4660    8.2760   20.7600 C   0  0  0  0  0  0  0  0  0  0  0  0
    1.1650    8.4980   22.1050 C   0  0  0  0  0  0  0  0  0  0  0  0
    0.3700    9.5870   22.4700 C   0  0  0  0  0  0  0  0  0  0  0  0
   -0.1370   10.4540   21.4980 C   0  0  0  0  0  0  0  0  0  0  0  0
    0.1510   10.2470   20.1430 C   0  0  0  0  0  0  0  0  0  0  0  0
    0.9690    9.1600   19.7880 C   0  0  0  0  0  0  0  0  0  0  0  0
    1.5610    7.8530   22.8900 H   0  0  0  0  0  0  0  0  0  0  0  0
    0.1400    9.7490   23.5200 H   0  0  0  0  0  0  0  0  0  0  0  0
   -0.7620   11.2850   21.8160 H   0  0  0  0  0  0  0  0  0  0  0  0
    1.1870    8.9820   18.7330 H   0  0  0  0  0  0  0  0  0  0  0  0
    1.9530    5.8550   20.3450 C   0  0  0  0  0  0  0  0  0  0  0  0
    0.9140    5.3210   20.7250 O   0  0  0  0  0  0  0  0  0  0  0  0
    2.2600    7.2070   20.3080 N   0  0  0  0  0  0  0  0  0  0  0  0
    3.1100    7.4500   19.8020 H   0  0  0  0  0  0  0  0  0  0  0  0
    3.7530    3.0770   18.6860 C   0  0  0  0  0  0  0  0  0  0  0  0
    2.7150    3.7440   19.2900 C   0  0  0  0  0  0  0  0  0  0  0  0
    3.0230    5.0120   19.7410 C   0  0  0  0  0  0  0  0  0  0  0  0
    4.2310    5.6130   19.6090 N   0  0  0  0  0  0  0  0  0  0  0  0
    5.1970    4.8850   19.0290 C   0  0  0  0  0  0  0  0  0  0  0  0
    4.9740    3.6400   18.5300 N   0  0  0  0  0  0  0  0  0  0  0  0
    1.7230    3.3170   19.4000 H   0  0  0  0  0  0  0  0  0  0  0  0
    6.5800    5.5080   18.9650 C   0  0  0  0  0  0  0  0  0  0  0  0
    7.0160    6.3110   17.7570 C   0  0  0  0  0  0  0  0  0  0  0  0
    7.6510    4.9740   18.0390 C   0  0  0  0  0  0  0  0  0  0  0  0
    6.9350    5.8820   19.9230 H   0  0  0  0  0  0  0  0  0  0  0  0
    7.5980    7.2090   17.9320 H   0  0  0  0  0  0  0  0  0  0  0  0
    6.3520    6.3810   16.8970 H   0  0  0  0  0  0  0  0  0  0  0  0
    8.6690    4.9350   18.4230 H   0  0  0  0  0  0  0  0  0  0  0  0
    7.4000    4.1430   17.3830 H   0  0  0  0  0  0  0  0  0  0  0  0
    3.5540    1.7000   18.1370 C   0  0  0  0  0  0  0  0  0  0  0  0
    2.5010    1.4070   18.1900 H   0  0  0  0  0  0  0  0  0  0  0  0
    4.1410    0.9600   18.7010 H   0  0  0  0  0  0  0  0  0  0  0  0
    3.8790    1.6840   17.0900 H   0  0  0  0  0  0  0  0  0  0  0  0
   -0.4410   11.1210   19.0450 C   0  0  2  0  0  0  0  0  0  0  0  0
   -1.1720   11.7990   19.5090 H   0  0  0  0  0  0  0  0  0  0  0  0
   -1.2130   10.2860   18.0150 C   0  0  0  0  0  0  0  0  0  0  0  0
   -1.3630    9.2640   18.3740 H   0  0  0  0  0  0  0  0  0  0  0  0
   -0.6660   10.2320   17.0690 H   0  0  0  0  0  0  0  0  0  0  0  0
   -2.2000   10.7110   17.7980 H   0  0  0  0  0  0  0  0  0  0  0  0
    0.6820   11.9620   18.3940 C   0  0  0  0  0  0  0  0  0  0  0  0
    0.3690   12.2870   17.3930 H   0  0  0  0  0  0  0  0  0  0  0  0
    1.5770   11.3410   18.2500 H   0  0  0  0  0  0  0  0  0  0  0  0
    1.0940   13.1350   19.2270 C   0  0  0  0  0  0  0  0  0  0  0  0
    2.2470   13.2360   19.8690 N   0  0  0  0  0  0  0  0  0  0  0  0
    2.3780   14.4480   20.5390 N   0  0  0  0  0  0  0  0  0  0  0  0
    1.3170   15.2120   20.3750 C   0  0  0  0  0  0  0  0  0  0  0  0
    0.1500   14.5090   19.3750 S   0  0  2  0  0  0  0  0  0  0  0  0
   -1.2020   14.1300   20.7640 Cl  0  0  0  0  0  0  0  0  0  0  0  0
    1.2360   16.2060   20.8050 H   0  0  0  0  0  0  0  0  0  0  0  0
    0.0410   15.4490   18.4030 H   0  0  0  0  0  0  0  0  0  0  0  0
  1  2  1  0  0  0  0
  2  3  2  0  0  0  0
  2  7  1  0  0  0  0
  3  8  1  0  0  0  0
  4  9  1  0  0  0  0
  4  3  1  0  0  0  0
  5  4  2  0  0  0  0
  6  5  1  0  0  0  0
  6  1  2  0  0  0  0
 10  6  1  0  0  0  0
 11 12  2  0  0  0  0
 13 11  1  0  0  0  0
 13  1  1  0  0  0  0
 14 13  1  0  0  0  0
 15 16  1  0  0  0  0
 16 21  1  0  0  0  0
 16 17  2  0  0  0  0
 17 11  1  0  0  0  0
 18 17  1  0  0  0  0
 19 18  2  0  0  0  0
 20 15  2  0  0  0  0
 20 19  1  0  0  0  0
 22 19  1  0  0  0  0
 22 25  1  0  0  0  0
 23 26  1  0  0  0  0
 23 24  1  0  0  0  0
 23 22  1  0  0  0  0
 24 28  1  0  0  0  0
 24 22  1  0  0  0  0
 27 23  1  0  0  0  0
 29 24  1  0  0  0  0
 30 31  1  0  0  0  0
 30 15  1  0  0  0  0
 30 32  1  0  0  0  0
 33 30  1  0  0  0  0
 34 35  1  1  0  0  0
 34  5  1  0  0  0  0
 36 37  1  0  0  0  0
 36 34  1  0  0  0  0
 38 36  1  0  0  0  0
 39 36  1  0  0  0  0
 40 34  1  0  0  0  0
 40 43  1  0  0  0  0
 41 40  1  0  0  0  0
 42 40  1  0  0  0  0
 43 47  1  0  0  0  0
 43 44  2  0  0  0  0
 44 45  1  0  0  0  0
 46 45  2  0  0  0  0
 46 49  1  0  0  0  0
 47 50  1  6  0  0  0
 47 46  1  0  0  0  0
 47 48  1  0  0  0  0
M  END
>  <MODEL>
5

>  <REMARK>
 VINA RESULT:    -7.220      2.612      3.159
 INTER + INTRA:         -10.954
 INTER:                  -9.994
 INTRA:                  -0.960
 UNBOUND:                -0.779
  Name = 
  8 active torsions:
  status: ('A' for Active; 'I' for Inactive)
    1  A    between atoms: C_1  and  C_2
    2  A    between atoms: C_4  and  C_11
    3  A    between atoms: C_6  and  C_8
    4  A    between atoms: N_13  and  C_14
    5  A    between atoms: C_18  and  C_20
    6  A    between atoms: C_20  and  C_21
    7  A    between atoms: C_20  and  C_22
    8  A    between atoms: C_22  and  C_23
                            x       y       z     vdW  Elec       q    Type
                         _______ _______ _______ _____ _____    ______ ____

>  <TORSDO>
F 8

$$$$
=
 OpenBabel07192307433D

 50 53  0  0  1  0  0  0  0  0999 V2000
    1.9550    7.8140   19.9280 C   0  0  0  0  0  0  0  0  0  0  0  0
    1.2590    7.4110   21.0700 C   0  0  0  0  0  0  0  0  0  0  0  0
    0.1580    8.1470   21.5110 C   0  0  0  0  0  0  0  0  0  0  0  0
   -0.2630    9.2830   20.8130 C   0  0  0  0  0  0  0  0  0  0  0  0
    0.4190    9.7030   19.6640 C   0  0  0  0  0  0  0  0  0  0  0  0
    1.5390    8.9670   19.2400 C   0  0  0  0  0  0  0  0  0  0  0  0
    1.5730    6.5420   21.6490 H   0  0  0  0  0  0  0  0  0  0  0  0
   -0.3780    7.8220   22.3990 H   0  0  0  0  0  0  0  0  0  0  0  0
   -1.1310    9.8270   21.1770 H   0  0  0  0  0  0  0  0  0  0  0  0
    2.0690    9.2780   18.3370 H   0  0  0  0  0  0  0  0  0  0  0  0
    3.0780    6.0450   18.5580 C   0  0  0  0  0  0  0  0  0  0  0  0
    2.1190    5.4920   18.0250 O   0  0  0  0  0  0  0  0  0  0  0  0
    3.0740    7.1320   19.4200 N   0  0  0  0  0  0  0  0  0  0  0  0
    3.9860    7.5390   19.6160 H   0  0  0  0  0  0  0  0  0  0  0  0
    6.7150    5.3590   18.6860 C   0  0  0  0  0  0  0  0  0  0  0  0
    5.4980    5.8650   19.0730 C   0  0  0  0  0  0  0  0  0  0  0  0
    4.4580    5.6070   18.2020 C   0  0  0  0  0  0  0  0  0  0  0  0
    4.5640    4.8990   17.0510 N   0  0  0  0  0  0  0  0  0  0  0  0
    5.7910    4.4610   16.7340 C   0  0  0  0  0  0  0  0  0  0  0  0
    6.8650    4.6430   17.5470 N   0  0  0  0  0  0  0  0  0  0  0  0
    5.3540    6.4180   19.9960 H   0  0  0  0  0  0  0  0  0  0  0  0
    5.9420    3.7540   15.4000 C   0  0  0  0  0  0  0  0  0  0  0  0
    6.7940    4.3480   14.2960 C   0  0  0  0  0  0  0  0  0  0  0  0
    5.2960    4.2870   14.1390 C   0  0  0  0  0  0  0  0  0  0  0  0
    5.9810    2.6700   15.4810 H   0  0  0  0  0  0  0  0  0  0  0  0
    7.4050    3.6710   13.7100 H   0  0  0  0  0  0  0  0  0  0  0  0
    7.2450    5.3280   14.4410 H   0  0  0  0  0  0  0  0  0  0  0  0
    4.8590    3.5610   13.4560 H   0  0  0  0  0  0  0  0  0  0  0  0
    4.7410    5.2210   14.1980 H   0  0  0  0  0  0  0  0  0  0  0  0
    7.9240    5.5510   19.5440 C   0  0  0  0  0  0  0  0  0  0  0  0
    8.3680    4.5870   19.8160 H   0  0  0  0  0  0  0  0  0  0  0  0
    7.6700    6.0800   20.4740 H   0  0  0  0  0  0  0  0  0  0  0  0
    8.6620    6.1430   18.9920 H   0  0  0  0  0  0  0  0  0  0  0  0
   -0.0490   10.8890   18.8300 C   0  0  2  0  0  0  0  0  0  0  0  0
   -0.3520   10.5100   17.8440 H   0  0  0  0  0  0  0  0  0  0  0  0
    1.0880   11.8880   18.5830 C   0  0  0  0  0  0  0  0  0  0  0  0
    0.6930   12.8830   18.3550 H   0  0  0  0  0  0  0  0  0  0  0  0
    1.7070   11.5730   17.7380 H   0  0  0  0  0  0  0  0  0  0  0  0
    1.7480   11.9840   19.4530 H   0  0  0  0  0  0  0  0  0  0  0  0
   -1.2690   11.5490   19.5130 C   0  0  0  0  0  0  0  0  0  0  0  0
   -1.0070   12.5640   19.8410 H   0  0  0  0  0  0  0  0  0  0  0  0
   -1.5360   10.9910   20.4220 H   0  0  0  0  0  0  0  0  0  0  0  0
   -2.4870   11.5720   18.6430 C   0  0  0  0  0  0  0  0  0  0  0  0
   -3.7090   11.8560   19.0640 N   0  0  0  0  0  0  0  0  0  0  0  0
   -4.6450   11.8340   18.0340 N   0  0  0  0  0  0  0  0  0  0  0  0
   -4.0890   11.5340   16.8780 C   0  0  0  0  0  0  0  0  0  0  0  0
   -2.4180   11.3110   16.9910 S   0  0  2  0  0  0  0  0  0  0  0  0
   -2.3880    9.3550   16.7200 Cl  0  0  0  0  0  0  0  0  0  0  0  0
   -4.6520   11.4860   15.9500 H   0  0  0  0  0  0  0  0  0  0  0  0
   -1.9720   12.2370   16.1060 H   0  0  0  0  0  0  0  0  0  0  0  0
  1  2  1  0  0  0  0
  2  3  2  0  0  0  0
  2  7  1  0  0  0  0
  3  8  1  0  0  0  0
  4  9  1  0  0  0  0
  4  3  1  0  0  0  0
  5  4  2  0  0  0  0
  6  5  1  0  0  0  0
  6  1  2  0  0  0  0
 10  6  1  0  0  0  0
 11 13  1  0  0  0  0
 12 11  2  0  0  0  0
 13 14  1  0  0  0  0
 13  1  1  0  0  0  0
 15 16  1  0  0  0  0
 15 30  1  0  0  0  0
 16 21  1  0  0  0  0
 17 11  1  0  0  0  0
 17 16  2  0  0  0  0
 18 17  1  0  0  0  0
 19 18  2  0  0  0  0
 19 20  1  0  0  0  0
 20 15  2  0  0  0  0
 22 25  1  0  0  0  0
 22 19  1  0  0  0  0
 23 27  1  0  0  0  0
 23 22  1  0  0  0  0
 24 29  1  0  0  0  0
 24 23  1  0  0  0  0
 24 22  1  0  0  0  0
 26 23  1  0  0  0  0
 28 24  1  0  0  0  0
 30 31  1  0  0  0  0
 30 32  1  0  0  0  0
 33 30  1  0  0  0  0
 34 35  1  6  0  0  0
 34 40  1  0  0  0  0
 34  5  1  0  0  0  0
 36 34  1  0  0  0  0
 36 39  1  0  0  0  0
 37 36  1  0  0  0  0
 38 36  1  0  0  0  0
 40 41  1  0  0  0  0
 40 42  1  0  0  0  0
 43 44  2  0  0  0  0
 43 40  1  0  0  0  0
 45 44  1  0  0  0  0
 46 47  1  0  0  0  0
 46 45  2  0  0  0  0
 47 50  1  6  0  0  0
 47 43  1  0  0  0  0
 48 47  1  0  0  0  0
 49 46  1  0  0  0  0
M  END
>  <MODEL>
6

>  <REMARK>
 VINA RESULT:    -7.190      1.757      2.421
 INTER + INTRA:         -10.912
 INTER:                 -10.013
 INTRA:                  -0.899
 UNBOUND:                -0.779
  Name = 
  8 active torsions:
  status: ('A' for Active; 'I' for Inactive)
    1  A    between atoms: C_1  and  C_2
    2  A    between atoms: C_4  and  C_11
    3  A    between atoms: C_6  and  C_8
    4  A    between atoms: N_13  and  C_14
    5  A    between atoms: C_18  and  C_20
    6  A    between atoms: C_20  and  C_21
    7  A    between atoms: C_20  and  C_22
    8  A    between atoms: C_22  and  C_23
                            x       y       z     vdW  Elec       q    Type
                         _______ _______ _______ _____ _____    ______ ____

>  <TORSDO>
F 8

$$$$
=
 OpenBabel07192307433D

 50 53  0  0  1  0  0  0  0  0999 V2000
    1.8480    4.8420   20.6760 C   0  0  0  0  0  0  0  0  0  0  0  0
    2.0100    4.0030   21.7810 C   0  0  0  0  0  0  0  0  0  0  0  0
    2.4120    2.6790   21.5960 C   0  0  0  0  0  0  0  0  0  0  0  0
    2.6640    2.1840   20.3130 C   0  0  0  0  0  0  0  0  0  0  0  0
    2.5090    3.0100   19.1920 C   0  0  0  0  0  0  0  0  0  0  0  0
    2.0840    4.3360   19.3870 C   0  0  0  0  0  0  0  0  0  0  0  0
    1.8030    4.3510   22.7930 H   0  0  0  0  0  0  0  0  0  0  0  0
    2.5390    2.0350   22.4630 H   0  0  0  0  0  0  0  0  0  0  0  0
    2.9870    1.1520   20.2050 H   0  0  0  0  0  0  0  0  0  0  0  0
    1.9750    4.9920   18.5200 H   0  0  0  0  0  0  0  0  0  0  0  0
    1.9230    7.2640   20.0470 C   0  0  0  0  0  0  0  0  0  0  0  0
    2.7510    7.2630   19.1390 O   0  0  0  0  0  0  0  0  0  0  0  0
    1.4440    6.1850   20.7740 N   0  0  0  0  0  0  0  0  0  0  0  0
    0.6390    6.3780   21.3670 H   0  0  0  0  0  0  0  0  0  0  0  0
    0.0650    9.8940   21.8760 C   0  0  0  0  0  0  0  0  0  0  0  0
    0.6120    8.6590   21.6240 C   0  0  0  0  0  0  0  0  0  0  0  0
    1.2310    8.5370   20.3950 C   0  0  0  0  0  0  0  0  0  0  0  0
    1.3400    9.5290   19.4770 N   0  0  0  0  0  0  0  0  0  0  0  0
    0.7580   10.6960   19.7910 C   0  0  0  0  0  0  0  0  0  0  0  0
    0.1540   10.9130   20.9900 N   0  0  0  0  0  0  0  0  0  0  0  0
    0.5730    7.8390   22.3340 H   0  0  0  0  0  0  0  0  0  0  0  0
    0.7860   11.7820   18.7320 C   0  0  0  0  0  0  0  0  0  0  0  0
    1.9940   12.6830   18.5730 C   0  0  0  0  0  0  0  0  0  0  0  0
    0.6970   13.2490   19.0930 C   0  0  0  0  0  0  0  0  0  0  0  0
    0.2940   11.5000   17.8040 H   0  0  0  0  0  0  0  0  0  0  0  0
    2.3040   12.9380   17.5660 H   0  0  0  0  0  0  0  0  0  0  0  0
    2.8210   12.5930   19.2750 H   0  0  0  0  0  0  0  0  0  0  0  0
    0.0950   13.8870   18.4490 H   0  0  0  0  0  0  0  0  0  0  0  0
    0.6470   13.5200   20.1460 H   0  0  0  0  0  0  0  0  0  0  0  0
   -0.6220   10.1690   23.1760 C   0  0  0  0  0  0  0  0  0  0  0  0
   -0.8470    9.2360   23.7040 H   0  0  0  0  0  0  0  0  0  0  0  0
   -1.5680   10.7060   23.0180 H   0  0  0  0  0  0  0  0  0  0  0  0
    0.0340   10.7860   23.8010 H   0  0  0  0  0  0  0  0  0  0  0  0
    2.8450    2.5370   17.7830 C   0  0  2  0  0  0  0  0  0  0  0  0
    1.9310    2.1150   17.3420 H   0  0  0  0  0  0  0  0  0  0  0  0
    3.8840    1.4090   17.7990 C   0  0  0  0  0  0  0  0  0  0  0  0
    3.9040    0.9100   18.7720 H   0  0  0  0  0  0  0  0  0  0  0  0
    4.8860    1.8000   17.6030 H   0  0  0  0  0  0  0  0  0  0  0  0
    3.6750    0.6470   17.0380 H   0  0  0  0  0  0  0  0  0  0  0  0
    3.3040    3.7440   16.9310 C   0  0  0  0  0  0  0  0  0  0  0  0
    2.6790    4.6180   17.1600 H   0  0  0  0  0  0  0  0  0  0  0  0
    3.1510    3.5270   15.8640 H   0  0  0  0  0  0  0  0  0  0  0  0
    4.7540    4.0680   17.1070 C   0  0  0  0  0  0  0  0  0  0  0  0
    5.3110    4.4360   18.2490 N   0  0  0  0  0  0  0  0  0  0  0  0
    6.6810    4.6460   18.1300 N   0  0  0  0  0  0  0  0  0  0  0  0
    7.1020    4.4260   16.9000 C   0  0  0  0  0  0  0  0  0  0  0  0
    5.8650    3.9220   15.8640 S   0  0  2  0  0  0  0  0  0  0  0  0
    5.7350    5.5670   14.7800 Cl  0  0  0  0  0  0  0  0  0  0  0  0
    8.1440    4.5180   16.6100 H   0  0  0  0  0  0  0  0  0  0  0  0
    6.3560    2.7320   15.4360 H   0  0  0  0  0  0  0  0  0  0  0  0
  1 13  1  0  0  0  0
  1  2  1  0  0  0  0
  2  7  1  0  0  0  0
  3  2  2  0  0  0  0
  3  8  1  0  0  0  0
  4  3  1  0  0  0  0
  5  6  1  0  0  0  0
  5  4  2  0  0  0  0
  6  1  2  0  0  0  0
  9  4  1  0  0  0  0
 10  6  1  0  0  0  0
 11 17  1  0  0  0  0
 11 13  1  0  0  0  0
 12 11  2  0  0  0  0
 13 14  1  0  0  0  0
 15 30  1  0  0  0  0
 16 15  1  0  0  0  0
 16 21  1  0  0  0  0
 17 16  2  0  0  0  0
 18 19  2  0  0  0  0
 18 17  1  0  0  0  0
 19 20  1  0  0  0  0
 20 15  2  0  0  0  0
 22 24  1  0  0  0  0
 22 19  1  0  0  0  0
 23 22  1  0  0  0  0
 23 24  1  0  0  0  0
 23 27  1  0  0  0  0
 24 29  1  0  0  0  0
 25 22  1  0  0  0  0
 26 23  1  0  0  0  0
 28 24  1  0  0  0  0
 30 31  1  0  0  0  0
 30 33  1  0  0  0  0
 32 30  1  0  0  0  0
 34 35  1  6  0  0  0
 34 36  1  0  0  0  0
 34  5  1  0  0  0  0
 36 37  1  0  0  0  0
 38 36  1  0  0  0  0
 39 36  1  0  0  0  0
 40 43  1  0  0  0  0
 40 41  1  0  0  0  0
 40 34  1  0  0  0  0
 42 40  1  0  0  0  0
 43 44  2  0  0  0  0
 45 44  1  0  0  0  0
 46 45  2  0  0  0  0
 47 50  1  6  0  0  0
 47 46  1  0  0  0  0
 47 43  1  0  0  0  0
 48 47  1  0  0  0  0
 49 46  1  0  0  0  0
M  END
>  <MODEL>
7

>  <REMARK>
 VINA RESULT:    -7.184      3.588      8.536
 INTER + INTRA:         -10.903
 INTER:                 -10.644
 INTRA:                  -0.259
 UNBOUND:                -0.779
  Name = 
  8 active torsions:
  status: ('A' for Active; 'I' for Inactive)
    1  A    between atoms: C_1  and  C_2
    2  A    between atoms: C_4  and  C_11
    3  A    between atoms: C_6  and  C_8
    4  A    between atoms: N_13  and  C_14
    5  A    between atoms: C_18  and  C_20
    6  A    between atoms: C_20  and  C_21
    7  A    between atoms: C_20  and  C_22
    8  A    between atoms: C_22  and  C_23
                            x       y       z     vdW  Elec       q    Type
                         _______ _______ _______ _____ _____    ______ ____

>  <TORSDO>
F 8

$$$$
=
 OpenBabel07192307433D

 50 53  0  0  1  0  0  0  0  0999 V2000
    1.4900    8.6060   19.3940 C   0  0  0  0  0  0  0  0  0  0  0  0
    1.0500    9.3270   18.2820 C   0  0  0  0  0  0  0  0  0  0  0  0
    0.2440   10.4540   18.4580 C   0  0  0  0  0  0  0  0  0  0  0  0
   -0.1200   10.8750   19.7400 C   0  0  0  0  0  0  0  0  0  0  0  0
    0.3140   10.1670   20.8690 C   0  0  0  0  0  0  0  0  0  0  0  0
    1.1080    9.0220   20.6810 C   0  0  0  0  0  0  0  0  0  0  0  0
    1.2980    9.0140   17.2680 H   0  0  0  0  0  0  0  0  0  0  0  0
   -0.0910   11.0090   17.5850 H   0  0  0  0  0  0  0  0  0  0  0  0
   -0.7380   11.7630   19.8420 H   0  0  0  0  0  0  0  0  0  0  0  0
    1.4630    8.4720   21.5540 H   0  0  0  0  0  0  0  0  0  0  0  0
    2.1530    6.2680   19.9980 C   0  0  0  0  0  0  0  0  0  0  0  0
    1.2640    5.9490   20.7830 O   0  0  0  0  0  0  0  0  0  0  0  0
    2.3010    7.4610   19.3050 N   0  0  0  0  0  0  0  0  0  0  0  0
    3.0140    7.4600   18.5780 H   0  0  0  0  0  0  0  0  0  0  0  0
    3.8100    3.1160   18.9810 C   0  0  0  0  0  0  0  0  0  0  0  0
    2.8000    3.9500   19.3960 C   0  0  0  0  0  0  0  0  0  0  0  0
    3.1820    5.2590   19.6170 C   0  0  0  0  0  0  0  0  0  0  0  0
    4.4350    5.7450   19.4380 N   0  0  0  0  0  0  0  0  0  0  0  0
    5.3670    4.8590   19.0560 C   0  0  0  0  0  0  0  0  0  0  0  0
    5.0740    3.5600   18.7860 N   0  0  0  0  0  0  0  0  0  0  0  0
    1.7760    3.6170   19.5320 H   0  0  0  0  0  0  0  0  0  0  0  0
    6.7920    5.3690   18.9480 C   0  0  0  0  0  0  0  0  0  0  0  0
    7.2120    6.2700   17.8050 C   0  0  0  0  0  0  0  0  0  0  0  0
    7.7410    4.8610   17.8840 C   0  0  0  0  0  0  0  0  0  0  0  0
    7.2490    5.5970   19.9080 H   0  0  0  0  0  0  0  0  0  0  0  0
    7.8850    7.0900   18.0290 H   0  0  0  0  0  0  0  0  0  0  0  0
    6.4980    6.4960   17.0150 H   0  0  0  0  0  0  0  0  0  0  0  0
    8.7760    4.6930   18.1750 H   0  0  0  0  0  0  0  0  0  0  0  0
    7.3680    4.1370   17.1620 H   0  0  0  0  0  0  0  0  0  0  0  0
    3.5330    1.6760   18.6900 C   0  0  0  0  0  0  0  0  0  0  0  0
    4.2930    1.0310   19.1440 H   0  0  0  0  0  0  0  0  0  0  0  0
    3.5290    1.4840   17.6070 H   0  0  0  0  0  0  0  0  0  0  0  0
    2.5500    1.4130   19.0970 H   0  0  0  0  0  0  0  0  0  0  0  0
    0.0060   10.6320   22.2860 C   0  0  2  0  0  0  0  0  0  0  0  0
    0.8400   11.2630   22.6240 H   0  0  0  0  0  0  0  0  0  0  0  0
   -0.0710    9.4520   23.2630 C   0  0  0  0  0  0  0  0  0  0  0  0
   -0.6950    9.6990   24.1270 H   0  0  0  0  0  0  0  0  0  0  0  0
    0.9230    9.1870   23.6330 H   0  0  0  0  0  0  0  0  0  0  0  0
   -0.4950    8.5570   22.7920 H   0  0  0  0  0  0  0  0  0  0  0  0
   -1.2910   11.4730   22.2820 C   0  0  0  0  0  0  0  0  0  0  0  0
   -2.0440   10.9990   22.9260 H   0  0  0  0  0  0  0  0  0  0  0  0
   -1.7210   11.4920   21.2700 H   0  0  0  0  0  0  0  0  0  0  0  0
   -1.0700   12.8970   22.6880 C   0  0  0  0  0  0  0  0  0  0  0  0
   -1.6440   13.4830   23.7250 N   0  0  0  0  0  0  0  0  0  0  0  0
   -1.2330   14.8020   23.8860 N   0  0  0  0  0  0  0  0  0  0  0  0
   -0.3630   15.1570   22.9620 C   0  0  0  0  0  0  0  0  0  0  0  0
    0.0130   13.8990   21.8980 S   0  0  2  0  0  0  0  0  0  0  0  0
   -0.9140   14.6070   20.3050 Cl  0  0  0  0  0  0  0  0  0  0  0  0
    0.0900   16.1430   22.9290 H   0  0  0  0  0  0  0  0  0  0  0  0
    1.3590   13.8190   22.0580 H   0  0  0  0  0  0  0  0  0  0  0  0
  1  6  1  0  0  0  0
  2  3  1  0  0  0  0
  2  1  2  0  0  0  0
  3  4  2  0  0  0  0
  4  9  1  0  0  0  0
  4  5  1  0  0  0  0
  5 34  1  0  0  0  0
  6  5  2  0  0  0  0
  6 10  1  0  0  0  0
  7  2  1  0  0  0  0
  8  3  1  0  0  0  0
 11 12  2  0  0  0  0
 13  1  1  0  0  0  0
 13 11  1  0  0  0  0
 14 13  1  0  0  0  0
 15 16  1  0  0  0  0
 16 21  1  0  0  0  0
 16 17  2  0  0  0  0
 17 11  1  0  0  0  0
 18 17  1  0  0  0  0
 19 18  2  0  0  0  0
 20 15  2  0  0  0  0
 20 19  1  0  0  0  0
 22 19  1  0  0  0  0
 22 25  1  0  0  0  0
 23 24  1  0  0  0  0
 23 26  1  0  0  0  0
 23 22  1  0  0  0  0
 24 28  1  0  0  0  0
 24 22  1  0  0  0  0
 27 23  1  0  0  0  0
 29 24  1  0  0  0  0
 30 15  1  0  0  0  0
 30 33  1  0  0  0  0
 30 31  1  0  0  0  0
 32 30  1  0  0  0  0
 34 35  1  1  0  0  0
 34 36  1  0  0  0  0
 36 38  1  0  0  0  0
 36 37  1  0  0  0  0
 39 36  1  0  0  0  0
 40 34  1  0  0  0  0
 40 43  1  0  0  0  0
 40 41  1  0  0  0  0
 42 40  1  0  0  0  0
 43 44  2  0  0  0  0
 44 45  1  0  0  0  0
 46 45  2  0  0  0  0
 47 50  1  6  0  0  0
 47 43  1  0  0  0  0
 47 46  1  0  0  0  0
 48 47  1  0  0  0  0
 49 46  1  0  0  0  0
M  END
>  <MODEL>
8

>  <REMARK>
 VINA RESULT:    -7.175      2.837      3.660
 INTER + INTRA:         -10.890
 INTER:                 -10.353
 INTRA:                  -0.537
 UNBOUND:                -0.779
  Name = 
  8 active torsions:
  status: ('A' for Active; 'I' for Inactive)
    1  A    between atoms: C_1  and  C_2
    2  A    between atoms: C_4  and  C_11
    3  A    between atoms: C_6  and  C_8
    4  A    between atoms: N_13  and  C_14
    5  A    between atoms: C_18  and  C_20
    6  A    between atoms: C_20  and  C_21
    7  A    between atoms: C_20  and  C_22
    8  A    between atoms: C_22  and  C_23
                            x       y       z     vdW  Elec       q    Type
                         _______ _______ _______ _____ _____    ______ ____

>  <TORSDO>
F 8

$$$$
=
 OpenBabel07192307433D

 50 53  0  0  1  0  0  0  0  0999 V2000
    1.2450   10.3400   18.5590 C   0  0  0  0  0  0  0  0  0  0  0  0
    1.9710   11.5300   18.4730 C   0  0  0  0  0  0  0  0  0  0  0  0
    1.3200   12.7550   18.6330 C   0  0  0  0  0  0  0  0  0  0  0  0
   -0.0530   12.8020   18.8880 C   0  0  0  0  0  0  0  0  0  0  0  0
   -0.7990   11.6200   18.9800 C   0  0  0  0  0  0  0  0  0  0  0  0
   -0.1380   10.3920   18.7980 C   0  0  0  0  0  0  0  0  0  0  0  0
    3.0390   11.5290   18.2550 H   0  0  0  0  0  0  0  0  0  0  0  0
    1.8950   13.6750   18.5670 H   0  0  0  0  0  0  0  0  0  0  0  0
   -0.5260   13.7720   19.0190 H   0  0  0  0  0  0  0  0  0  0  0  0
   -0.7080    9.4650   18.8830 H   0  0  0  0  0  0  0  0  0  0  0  0
    1.9880    8.0950   19.3850 C   0  0  0  0  0  0  0  0  0  0  0  0
    1.6220    8.1240   20.5570 O   0  0  0  0  0  0  0  0  0  0  0  0
    1.8220    9.0670   18.4090 N   0  0  0  0  0  0  0  0  0  0  0  0
    2.0510    8.7770   17.4590 H   0  0  0  0  0  0  0  0  0  0  0  0
    4.0670    5.7390   17.4260 C   0  0  0  0  0  0  0  0  0  0  0  0
    3.4990    6.9340   17.7980 C   0  0  0  0  0  0  0  0  0  0  0  0
    2.6070    6.8500   18.8490 C   0  0  0  0  0  0  0  0  0  0  0  0
    2.2920    5.7120   19.5140 N   0  0  0  0  0  0  0  0  0  0  0  0
    2.8720    4.5850   19.0720 C   0  0  0  0  0  0  0  0  0  0  0  0
    3.7840    4.5800   18.0640 N   0  0  0  0  0  0  0  0  0  0  0  0
    3.7350    7.8760   17.3140 H   0  0  0  0  0  0  0  0  0  0  0  0
    2.4520    3.2900   19.7420 C   0  0  0  0  0  0  0  0  0  0  0  0
    1.2280    2.5310   19.2700 C   0  0  0  0  0  0  0  0  0  0  0  0
    1.2180    3.2100   20.6150 C   0  0  0  0  0  0  0  0  0  0  0  0
    3.2870    2.6700   20.0580 H   0  0  0  0  0  0  0  0  0  0  0  0
    1.2880    1.4490   19.2350 H   0  0  0  0  0  0  0  0  0  0  0  0
    0.6070    2.9590   18.4860 H   0  0  0  0  0  0  0  0  0  0  0  0
    1.2840    2.6080   21.5190 H   0  0  0  0  0  0  0  0  0  0  0  0
    0.6070    4.1030   20.7290 H   0  0  0  0  0  0  0  0  0  0  0  0
    5.0630    5.6870   16.3110 C   0  0  0  0  0  0  0  0  0  0  0  0
    6.0820    5.8150   16.6910 H   0  0  0  0  0  0  0  0  0  0  0  0
    4.8750    6.4810   15.5740 H   0  0  0  0  0  0  0  0  0  0  0  0
    4.9870    4.7150   15.8110 H   0  0  0  0  0  0  0  0  0  0  0  0
   -2.2810   11.6200   19.3320 C   0  0  2  0  0  0  0  0  0  0  0  0
   -2.4650   10.7850   20.0220 H   0  0  0  0  0  0  0  0  0  0  0  0
   -3.1540   11.3650   18.0960 C   0  0  0  0  0  0  0  0  0  0  0  0
   -2.5570   10.9590   17.2730 H   0  0  0  0  0  0  0  0  0  0  0  0
   -3.6160   12.2930   17.7480 H   0  0  0  0  0  0  0  0  0  0  0  0
   -3.9620   10.6540   18.3030 H   0  0  0  0  0  0  0  0  0  0  0  0
   -2.6420   12.9470   20.0390 C   0  0  0  0  0  0  0  0  0  0  0  0
   -3.4060   13.4810   19.4590 H   0  0  0  0  0  0  0  0  0  0  0  0
   -1.7630   13.6060   20.0700 H   0  0  0  0  0  0  0  0  0  0  0  0
   -3.0920   12.7540   21.4540 C   0  0  0  0  0  0  0  0  0  0  0  0
   -4.3290   12.9400   21.8840 N   0  0  0  0  0  0  0  0  0  0  0  0
   -4.4690   12.6580   23.2390 N   0  0  0  0  0  0  0  0  0  0  0  0
   -3.3300   12.2720   23.7760 C   0  0  0  0  0  0  0  0  0  0  0  0
   -2.0680   12.1970   22.6550 S   0  0  2  0  0  0  0  0  0  0  0  0
   -1.0390   13.7530   23.3020 Cl  0  0  0  0  0  0  0  0  0  0  0  0
   -3.2380   11.9880   24.8210 H   0  0  0  0  0  0  0  0  0  0  0  0
   -1.6920   10.8980   22.7740 H   0  0  0  0  0  0  0  0  0  0  0  0
  1  6  1  0  0  0  0
  2  1  2  0  0  0  0
  2  3  1  0  0  0  0
  3  4  2  0  0  0  0
  4  5  1  0  0  0  0
  4  9  1  0  0  0  0
  5 34  1  0  0  0  0
  6 10  1  0  0  0  0
  6  5  2  0  0  0  0
  7  2  1  0  0  0  0
  8  3  1  0  0  0  0
 11 12  2  0  0  0  0
 13  1  1  0  0  0  0
 13 11  1  0  0  0  0
 14 13  1  0  0  0  0
 15 16  1  0  0  0  0
 15 20  2  0  0  0  0
 16 17  2  0  0  0  0
 17 11  1  0  0  0  0
 17 18  1  0  0  0  0
 19 18  2  0  0  0  0
 19 22  1  0  0  0  0
 20 19  1  0  0  0  0
 21 16  1  0  0  0  0
 22 25  1  0  0  0  0
 22 24  1  0  0  0  0
 23 22  1  0  0  0  0
 23 24  1  0  0  0  0
 24 29  1  0  0  0  0
 24 28  1  0  0  0  0
 26 23  1  0  0  0  0
 27 23  1  0  0  0  0
 30 31  1  0  0  0  0
 30 15  1  0  0  0  0
 32 30  1  0  0  0  0
 33 30  1  0  0  0  0
 34 35  1  1  0  0  0
 34 40  1  0  0  0  0
 36 39  1  0  0  0  0
 36 34  1  0  0  0  0
 37 36  1  0  0  0  0
 38 36  1  0  0  0  0
 40 42  1  0  0  0  0
 40 43  1  0  0  0  0
 41 40  1  0  0  0  0
 43 44  2  0  0  0  0
 43 47  1  0  0  0  0
 44 45  1  0  0  0  0
 45 46  2  0  0  0  0
 46 49  1  0  0  0  0
 47 50  1  6  0  0  0
 47 48  1  0  0  0  0
 47 46  1  0  0  0  0
M  END
>  <MODEL>
9

>  <REMARK>
 VINA RESULT:    -7.167      2.911      4.290
 INTER + INTRA:         -10.879
 INTER:                 -10.082
 INTRA:                  -0.796
 UNBOUND:                -0.779
  Name = 
  8 active torsions:
  status: ('A' for Active; 'I' for Inactive)
    1  A    between atoms: C_1  and  C_2
    2  A    between atoms: C_4  and  C_11
    3  A    between atoms: C_6  and  C_8
    4  A    between atoms: N_13  and  C_14
    5  A    between atoms: C_18  and  C_20
    6  A    between atoms: C_20  and  C_21
    7  A    between atoms: C_20  and  C_22
    8  A    between atoms: C_22  and  C_23
                            x       y       z     vdW  Elec       q    Type
                         _______ _______ _______ _____ _____    ______ ____

>  <TORSDO>
F 8

$$$$
=
 OpenBabel07192307433D

 50 53  0  0  1  0  0  0  0  0999 V2000
    1.2410    8.9390   19.4660 C   0  0  0  0  0  0  0  0  0  0  0  0
    0.8790    9.7720   18.4050 C   0  0  0  0  0  0  0  0  0  0  0  0
    0.0950   10.9030   18.6440 C   0  0  0  0  0  0  0  0  0  0  0  0
   -0.3250   11.2160   19.9410 C   0  0  0  0  0  0  0  0  0  0  0  0
    0.0290   10.3950   21.0180 C   0  0  0  0  0  0  0  0  0  0  0  0
    0.8020    9.2470   20.7650 C   0  0  0  0  0  0  0  0  0  0  0  0
    1.1730    9.5470   17.3800 H   0  0  0  0  0  0  0  0  0  0  0  0
   -0.1780   11.5470   17.8120 H   0  0  0  0  0  0  0  0  0  0  0  0
   -0.9240   12.1100   20.0930 H   0  0  0  0  0  0  0  0  0  0  0  0
    1.0950    8.6080   21.6000 H   0  0  0  0  0  0  0  0  0  0  0  0
    2.8570    7.4630   18.2490 C   0  0  0  0  0  0  0  0  0  0  0  0
    3.1210    8.1410   17.2590 O   0  0  0  0  0  0  0  0  0  0  0  0
    2.0240    7.7820   19.3120 N   0  0  0  0  0  0  0  0  0  0  0  0
    2.0730    7.1520   20.1110 H   0  0  0  0  0  0  0  0  0  0  0  0
    5.4220    4.7930   18.2360 C   0  0  0  0  0  0  0  0  0  0  0  0
    4.8330    5.9980   17.9380 C   0  0  0  0  0  0  0  0  0  0  0  0
    3.5610    6.1650   18.4480 C   0  0  0  0  0  0  0  0  0  0  0  0
    2.9010    5.2560   19.2070 N   0  0  0  0  0  0  0  0  0  0  0  0
    3.5360    4.0960   19.4310 C   0  0  0  0  0  0  0  0  0  0  0  0
    4.8010    3.8580   18.9940 N   0  0  0  0  0  0  0  0  0  0  0  0
    5.3270    6.7680   17.3540 H   0  0  0  0  0  0  0  0  0  0  0  0
    2.7690    3.0320   20.1950 C   0  0  0  0  0  0  0  0  0  0  0  0
    1.7660    2.1400   19.4910 C   0  0  0  0  0  0  0  0  0  0  0  0
    1.2900    3.1700   20.4840 C   0  0  0  0  0  0  0  0  0  0  0  0
    3.3530    2.5470   20.9740 H   0  0  0  0  0  0  0  0  0  0  0  0
    1.7350    1.0940   19.7740 H   0  0  0  0  0  0  0  0  0  0  0  0
    1.5450    2.3150   18.4400 H   0  0  0  0  0  0  0  0  0  0  0  0
    0.9390    2.8490   21.4620 H   0  0  0  0  0  0  0  0  0  0  0  0
    0.7680    4.0440   20.0980 H   0  0  0  0  0  0  0  0  0  0  0  0
    6.8060    4.4860   17.7600 C   0  0  0  0  0  0  0  0  0  0  0  0
    7.5320    4.5960   18.5720 H   0  0  0  0  0  0  0  0  0  0  0  0
    7.1030    5.1610   16.9450 H   0  0  0  0  0  0  0  0  0  0  0  0
    6.8340    3.4540   17.3910 H   0  0  0  0  0  0  0  0  0  0  0  0
   -0.3420   10.7370   22.4560 C   0  0  2  0  0  0  0  0  0  0  0  0
    0.2730   11.5930   22.7690 H   0  0  0  0  0  0  0  0  0  0  0  0
   -0.0070    9.5860   23.4140 C   0  0  0  0  0  0  0  0  0  0  0  0
   -0.6320    9.6300   24.3110 H   0  0  0  0  0  0  0  0  0  0  0  0
    1.0380    9.6350   23.7310 H   0  0  0  0  0  0  0  0  0  0  0  0
   -0.1620    8.6050   22.9480 H   0  0  0  0  0  0  0  0  0  0  0  0
   -1.8340   11.1370   22.5210 C   0  0  0  0  0  0  0  0  0  0  0  0
   -2.3930   10.3910   23.1010 H   0  0  0  0  0  0  0  0  0  0  0  0
   -2.2670   11.1300   21.5110 H   0  0  0  0  0  0  0  0  0  0  0  0
   -2.0490   12.5100   23.0770 C   0  0  0  0  0  0  0  0  0  0  0  0
   -1.0820   13.3410   23.4300 N   0  0  0  0  0  0  0  0  0  0  0  0
   -1.5690   14.5620   23.8860 N   0  0  0  0  0  0  0  0  0  0  0  0
   -2.8860   14.6010   23.8590 C   0  0  0  0  0  0  0  0  0  0  0  0
   -3.5720   13.1840   23.2440 S   0  0  2  0  0  0  0  0  0  0  0  0
   -4.3250   12.4940   24.9330 Cl  0  0  0  0  0  0  0  0  0  0  0  0
   -3.4540   15.4770   24.1580 H   0  0  0  0  0  0  0  0  0  0  0  0
   -4.2900   13.6750   22.2020 H   0  0  0  0  0  0  0  0  0  0  0  0
  1  6  1  0  0  0  0
  2  3  1  0  0  0  0
  2  1  2  0  0  0  0
  3  4  2  0  0  0  0
  4  9  1  0  0  0  0
  4  5  1  0  0  0  0
  5 34  1  0  0  0  0
  6  5  2  0  0  0  0
  6 10  1  0  0  0  0
  7  2  1  0  0  0  0
  8  3  1  0  0  0  0
 11 17  1  0  0  0  0
 11 13  1  0  0  0  0
 12 11  2  0  0  0  0
 13  1  1  0  0  0  0
 13 14  1  0  0  0  0
 15 20  2  0  0  0  0
 16 15  1  0  0  0  0
 16 17  2  0  0  0  0
 17 18  1  0  0  0  0
 18 19  2  0  0  0  0
 19 22  1  0  0  0  0
 20 19  1  0  0  0  0
 21 16  1  0  0  0  0
 22 24  1  0  0  0  0
 22 25  1  0  0  0  0
 23 26  1  0  0  0  0
 23 22  1  0  0  0  0
 23 24  1  0  0  0  0
 24 28  1  0  0  0  0
 27 23  1  0  0  0  0
 29 24  1  0  0  0  0
 30 15  1  0  0  0  0
 30 31  1  0  0  0  0
 32 30  1  0  0  0  0
 33 30  1  0  0  0  0
 34 40  1  0  0  0  0
 34 35  1  1  0  0  0
 34 36  1  0  0  0  0
 36 38  1  0  0  0  0
 36 37  1  0  0  0  0
 39 36  1  0  0  0  0
 40 43  1  0  0  0  0
 40 41  1  0  0  0  0
 42 40  1  0  0  0  0
 43 47  1  0  0  0  0
 43 44  2  0  0  0  0
 44 45  1  0  0  0  0
 46 45  2  0  0  0  0
 46 49  1  0  0  0  0
 47 50  1  6  0  0  0
 47 46  1  0  0  0  0
 47 48  1  0  0  0  0
M  END
>  <MODEL>
10

>  <REMARK>
 VINA RESULT:    -7.035      3.373      4.685
 INTER + INTRA:         -10.693
 INTER:                 -10.266
 INTRA:                  -0.427
 UNBOUND:                -0.779
  Name = 
  8 active torsions:
  status: ('A' for Active; 'I' for Inactive)
    1  A    between atoms: C_1  and  C_2
    2  A    between atoms: C_4  and  C_11
    3  A    between atoms: C_6  and  C_8
    4  A    between atoms: N_13  and  C_14
    5  A    between atoms: C_18  and  C_20
    6  A    between atoms: C_20  and  C_21
    7  A    between atoms: C_20  and  C_22
    8  A    between atoms: C_22  and  C_23
                            x       y       z     vdW  Elec       q    Type
                         _______ _______ _______ _____ _____    ______ ____

>  <TORSDO>
F 8

$$$$
=
 OpenBabel07192307433D

 50 53  0  0  1  0  0  0  0  0999 V2000
    1.2340    8.6570   20.6110 C   0  0  0  0  0  0  0  0  0  0  0  0
    0.9510    8.5410   21.9740 C   0  0  0  0  0  0  0  0  0  0  0  0
    0.2350    9.5480   22.6250 C   0  0  0  0  0  0  0  0  0  0  0  0
   -0.2110   10.6710   21.9220 C   0  0  0  0  0  0  0  0  0  0  0  0
    0.0600   10.8050   20.5540 C   0  0  0  0  0  0  0  0  0  0  0  0
    0.7980    9.7950   19.9120 C   0  0  0  0  0  0  0  0  0  0  0  0
    1.3020    7.6890   22.5560 H   0  0  0  0  0  0  0  0  0  0  0  0
    0.0180    9.4460   23.6850 H   0  0  0  0  0  0  0  0  0  0  0  0
   -0.7750   11.4300   22.4560 H   0  0  0  0  0  0  0  0  0  0  0  0
    1.0020    9.8840   18.8430 H   0  0  0  0  0  0  0  0  0  0  0  0
    2.3600    7.7670   18.5590 C   0  0  0  0  0  0  0  0  0  0  0  0
    2.2310    8.7040   17.7750 O   0  0  0  0  0  0  0  0  0  0  0  0
    1.9490    7.6920   19.8820 N   0  0  0  0  0  0  0  0  0  0  0  0
    2.3010    6.8910   20.4050 H   0  0  0  0  0  0  0  0  0  0  0  0
    3.2690    4.3240   17.5450 C   0  0  0  0  0  0  0  0  0  0  0  0
    2.4860    5.3520   18.0110 C   0  0  0  0  0  0  0  0  0  0  0  0
    3.1320    6.5660   18.1340 C   0  0  0  0  0  0  0  0  0  0  0  0
    4.4310    6.7920   17.8170 N   0  0  0  0  0  0  0  0  0  0  0  0
    5.1320    5.7300   17.3920 C   0  0  0  0  0  0  0  0  0  0  0  0
    4.5690    4.5060   17.2120 N   0  0  0  0  0  0  0  0  0  0  0  0
    1.4360    5.2290   18.2570 H   0  0  0  0  0  0  0  0  0  0  0  0
    6.6110    5.9470   17.1290 C   0  0  0  0  0  0  0  0  0  0  0  0
    7.6110    5.9560   18.2670 C   0  0  0  0  0  0  0  0  0  0  0  0
    7.3090    7.2310   17.5230 C   0  0  0  0  0  0  0  0  0  0  0  0
    6.9630    5.4900   16.2070 H   0  0  0  0  0  0  0  0  0  0  0  0
    8.5670    5.4730   18.1020 H   0  0  0  0  0  0  0  0  0  0  0  0
    7.2510    5.8740   19.2920 H   0  0  0  0  0  0  0  0  0  0  0  0
    8.0450    7.6330   16.8290 H   0  0  0  0  0  0  0  0  0  0  0  0
    6.7320    7.9960   18.0390 H   0  0  0  0  0  0  0  0  0  0  0  0
    2.6930    2.9580   17.3480 C   0  0  0  0  0  0  0  0  0  0  0  0
    2.9670    2.2950   18.1750 H   0  0  0  0  0  0  0  0  0  0  0  0
    3.0570    2.5050   16.4150 H   0  0  0  0  0  0  0  0  0  0  0  0
    1.6010    3.0370   17.2990 H   0  0  0  0  0  0  0  0  0  0  0  0
   -0.4710   11.9730   19.7320 C   0  0  2  0  0  0  0  0  0  0  0  0
   -0.4310   12.8740   20.3600 H   0  0  0  0  0  0  0  0  0  0  0  0
   -1.9440   11.7710   19.3520 C   0  0  0  0  0  0  0  0  0  0  0  0
   -2.1080   10.7700   18.9430 H   0  0  0  0  0  0  0  0  0  0  0  0
   -2.2530   12.4960   18.5940 H   0  0  0  0  0  0  0  0  0  0  0  0
   -2.6110   11.8930   20.2130 H   0  0  0  0  0  0  0  0  0  0  0  0
    0.4300   12.1820   18.4940 C   0  0  0  0  0  0  0  0  0  0  0  0
   -0.1890   12.4450   17.6250 H   0  0  0  0  0  0  0  0  0  0  0  0
    0.9360   11.2410   18.2370 H   0  0  0  0  0  0  0  0  0  0  0  0
    1.4990   13.2070   18.7120 C   0  0  0  0  0  0  0  0  0  0  0  0
    2.7240   13.1350   18.2160 N   0  0  0  0  0  0  0  0  0  0  0  0
    3.4990   14.2410   18.5530 N   0  0  0  0  0  0  0  0  0  0  0  0
    2.8250   15.1010   19.2900 C   0  0  0  0  0  0  0  0  0  0  0  0
    1.2280   14.6220   19.5620 S   0  0  2  0  0  0  0  0  0  0  0  0
    1.4020   14.1830   21.4800 Cl  0  0  0  0  0  0  0  0  0  0  0  0
    3.2520   16.0380   19.6370 H   0  0  0  0  0  0  0  0  0  0  0  0
    0.5490   15.6810   19.0540 H   0  0  0  0  0  0  0  0  0  0  0  0
  1  2  1  0  0  0  0
  2  7  1  0  0  0  0
  2  3  2  0  0  0  0
  3  8  1  0  0  0  0
  4  9  1  0  0  0  0
  4  3  1  0  0  0  0
  5  4  2  0  0  0  0
  6  5  1  0  0  0  0
  6  1  2  0  0  0  0
 10  6  1  0  0  0  0
 11 13  1  0  0  0  0
 12 11  2  0  0  0  0
 13 14  1  0  0  0  0
 13  1  1  0  0  0  0
 15 16  1  0  0  0  0
 16 17  2  0  0  0  0
 16 21  1  0  0  0  0
 17 11  1  0  0  0  0
 18 17  1  0  0  0  0
 19 18  2  0  0  0  0
 20 19  1  0  0  0  0
 20 15  2  0  0  0  0
 22 19  1  0  0  0  0
 22 24  1  0  0  0  0
 22 23  1  0  0  0  0
 23 27  1  0  0  0  0
 24 29  1  0  0  0  0
 24 23  1  0  0  0  0
 25 22  1  0  0  0  0
 26 23  1  0  0  0  0
 28 24  1  0  0  0  0
 30 15  1  0  0  0  0
 30 31  1  0  0  0  0
 32 30  1  0  0  0  0
 33 30  1  0  0  0  0
 34 35  1  1  0  0  0
 34  5  1  0  0  0  0
 36 34  1  0  0  0  0
 36 39  1  0  0  0  0
 37 36  1  0  0  0  0
 38 36  1  0  0  0  0
 40 43  1  0  0  0  0
 40 34  1  0  0  0  0
 41 40  1  0  0  0  0
 42 40  1  0  0  0  0
 43 47  1  0  0  0  0
 44 45  1  0  0  0  0
 44 43  2  0  0  0  0
 45 46  2  0  0  0  0
 46 47  1  0  0  0  0
 46 49  1  0  0  0  0
 47 50  1  6  0  0  0
 47 48  1  0  0  0  0
M  END
>  <MODEL>
11

>  <REMARK>
 VINA RESULT:    -7.018      3.132      3.745
 INTER + INTRA:         -10.669
 INTER:                 -10.251
 INTRA:                  -0.418
 UNBOUND:                -0.779
  Name = 
  8 active torsions:
  status: ('A' for Active; 'I' for Inactive)
    1  A    between atoms: C_1  and  C_2
    2  A    between atoms: C_4  and  C_11
    3  A    between atoms: C_6  and  C_8
    4  A    between atoms: N_13  and  C_14
    5  A    between atoms: C_18  and  C_20
    6  A    between atoms: C_20  and  C_21
    7  A    between atoms: C_20  and  C_22
    8  A    between atoms: C_22  and  C_23
                            x       y       z     vdW  Elec       q    Type
                         _______ _______ _______ _____ _____    ______ ____

>  <TORSDO>
F 8

$$$$
=
 OpenBabel07192307433D

 50 53  0  0  1  0  0  0  0  0999 V2000
    1.1180    9.6590   19.5890 C   0  0  0  0  0  0  0  0  0  0  0  0
    1.2180   10.6000   18.5620 C   0  0  0  0  0  0  0  0  0  0  0  0
    0.6750   11.8750   18.7310 C   0  0  0  0  0  0  0  0  0  0  0  0
    0.0370   12.2240   19.9250 C   0  0  0  0  0  0  0  0  0  0  0  0
   -0.0720   11.2950   20.9680 C   0  0  0  0  0  0  0  0  0  0  0  0
    0.4610   10.0070   20.7810 C   0  0  0  0  0  0  0  0  0  0  0  0
    1.6910   10.3550   17.6110 H   0  0  0  0  0  0  0  0  0  0  0  0
    0.7610   12.6010   17.9270 H   0  0  0  0  0  0  0  0  0  0  0  0
   -0.3640   13.2280   20.0280 H   0  0  0  0  0  0  0  0  0  0  0  0
    0.3940    9.2810   21.5930 H   0  0  0  0  0  0  0  0  0  0  0  0
    2.3190    7.7900   18.4320 C   0  0  0  0  0  0  0  0  0  0  0  0
    2.6580    8.3230   17.3790 O   0  0  0  0  0  0  0  0  0  0  0  0
    1.6350    8.3550   19.4990 N   0  0  0  0  0  0  0  0  0  0  0  0
    1.6000    7.7890   20.3460 H   0  0  0  0  0  0  0  0  0  0  0  0
    2.7090    4.4520   19.9850 C   0  0  0  0  0  0  0  0  0  0  0  0
    2.3140    5.7610   19.8580 C   0  0  0  0  0  0  0  0  0  0  0  0
    2.7500    6.3910   18.7100 C   0  0  0  0  0  0  0  0  0  0  0  0
    3.4950    5.8090   17.7380 N   0  0  0  0  0  0  0  0  0  0  0  0
    3.8590    4.5360   17.9500 C   0  0  0  0  0  0  0  0  0  0  0  0
    3.4500    3.8300   19.0380 N   0  0  0  0  0  0  0  0  0  0  0  0
    1.6990    6.2670   20.5960 H   0  0  0  0  0  0  0  0  0  0  0  0
    4.7750    3.9040   16.9180 C   0  0  0  0  0  0  0  0  0  0  0  0
    6.2210    4.3380   16.7930 C   0  0  0  0  0  0  0  0  0  0  0  0
    5.2410    4.6650   15.6960 C   0  0  0  0  0  0  0  0  0  0  0  0
    4.5960    2.8420   16.7660 H   0  0  0  0  0  0  0  0  0  0  0  0
    6.9650    3.5700   16.6120 H   0  0  0  0  0  0  0  0  0  0  0  0
    6.5850    5.1620   17.4040 H   0  0  0  0  0  0  0  0  0  0  0  0
    5.2880    4.1190   14.7550 H   0  0  0  0  0  0  0  0  0  0  0  0
    4.9310    5.7020   15.5830 H   0  0  0  0  0  0  0  0  0  0  0  0
    2.2940    3.6450   21.1740 C   0  0  0  0  0  0  0  0  0  0  0  0
    1.5600    2.8830   20.8930 H   0  0  0  0  0  0  0  0  0  0  0  0
    1.8400    4.2830   21.9460 H   0  0  0  0  0  0  0  0  0  0  0  0
    3.1780    3.1540   21.5970 H   0  0  0  0  0  0  0  0  0  0  0  0
   -0.6900   11.6540   22.3140 C   0  0  2  0  0  0  0  0  0  0  0  0
    0.0460   12.2450   22.8770 H   0  0  0  0  0  0  0  0  0  0  0  0
   -0.9800   10.4030   23.1530 C   0  0  0  0  0  0  0  0  0  0  0  0
   -2.0210   10.3900   23.4880 H   0  0  0  0  0  0  0  0  0  0  0  0
   -0.3420   10.3730   24.0400 H   0  0  0  0  0  0  0  0  0  0  0  0
   -0.8010    9.4800   22.5890 H   0  0  0  0  0  0  0  0  0  0  0  0
   -1.9560   12.5120   22.0860 C   0  0  0  0  0  0  0  0  0  0  0  0
   -2.8160   11.8590   21.8900 H   0  0  0  0  0  0  0  0  0  0  0  0
   -1.8290   13.1330   21.1880 H   0  0  0  0  0  0  0  0  0  0  0  0
   -2.2460   13.4430   23.2220 C   0  0  0  0  0  0  0  0  0  0  0  0
   -1.3300   14.1220   23.8930 N   0  0  0  0  0  0  0  0  0  0  0  0
   -1.8850   14.9340   24.8770 N   0  0  0  0  0  0  0  0  0  0  0  0
   -3.1990   14.8330   24.9070 C   0  0  0  0  0  0  0  0  0  0  0  0
   -3.8050   13.7900   23.7230 S   0  0  2  0  0  0  0  0  0  0  0  0
   -4.3640   12.3220   24.9190 Cl  0  0  0  0  0  0  0  0  0  0  0  0
   -3.8170   15.4040   25.5940 H   0  0  0  0  0  0  0  0  0  0  0  0
   -4.6400   14.6200   23.0490 H   0  0  0  0  0  0  0  0  0  0  0  0
  1  6  1  0  0  0  0
  2  3  1  0  0  0  0
  2  1  2  0  0  0  0
  3  4  2  0  0  0  0
  4  9  1  0  0  0  0
  4  5  1  0  0  0  0
  5 34  1  0  0  0  0
  6  5  2  0  0  0  0
  6 10  1  0  0  0  0
  7  2  1  0  0  0  0
  8  3  1  0  0  0  0
 11 17  1  0  0  0  0
 11 13  1  0  0  0  0
 12 11  2  0  0  0  0
 13  1  1  0  0  0  0
 13 14  1  0  0  0  0
 15 30  1  0  0  0  0
 16 15  1  0  0  0  0
 16 21  1  0  0  0  0
 17 16  2  0  0  0  0
 18 19  2  0  0  0  0
 18 17  1  0  0  0  0
 19 20  1  0  0  0  0
 20 15  2  0  0  0  0
 22 19  1  0  0  0  0
 23 22  1  0  0  0  0
 23 27  1  0  0  0  0
 24 23  1  0  0  0  0
 24 22  1  0  0  0  0
 25 22  1  0  0  0  0
 26 23  1  0  0  0  0
 28 24  1  0  0  0  0
 29 24  1  0  0  0  0
 30 33  1  0  0  0  0
 30 32  1  0  0  0  0
 31 30  1  0  0  0  0
 34 35  1  1  0  0  0
 34 36  1  0  0  0  0
 36 37  1  0  0  0  0
 36 38  1  0  0  0  0
 39 36  1  0  0  0  0
 40 34  1  0  0  0  0
 40 43  1  0  0  0  0
 41 40  1  0  0  0  0
 42 40  1  0  0  0  0
 43 47  1  0  0  0  0
 43 44  2  0  0  0  0
 44 45  1  0  0  0  0
 45 46  2  0  0  0  0
 46 49  1  0  0  0  0
 47 50  1  6  0  0  0
 47 46  1  0  0  0  0
 47 48  1  0  0  0  0
M  END
>  <MODEL>
12

>  <REMARK>
 VINA RESULT:    -7.011      3.695      4.490
 INTER + INTRA:         -10.659
 INTER:                 -10.317
 INTRA:                  -0.342
 UNBOUND:                -0.779
  Name = 
  8 active torsions:
  status: ('A' for Active; 'I' for Inactive)
    1  A    between atoms: C_1  and  C_2
    2  A    between atoms: C_4  and  C_11
    3  A    between atoms: C_6  and  C_8
    4  A    between atoms: N_13  and  C_14
    5  A    between atoms: C_18  and  C_20
    6  A    between atoms: C_20  and  C_21
    7  A    between atoms: C_20  and  C_22
    8  A    between atoms: C_22  and  C_23
                            x       y       z     vdW  Elec       q    Type
                         _______ _______ _______ _____ _____    ______ ____

>  <TORSDO>
F 8

$$$$
=
 OpenBabel07192307433D

 50 53  0  0  1  0  0  0  0  0999 V2000
    1.2320    8.5910   20.4980 C   0  0  0  0  0  0  0  0  0  0  0  0
    1.1470    8.6780   21.8900 C   0  0  0  0  0  0  0  0  0  0  0  0
    0.4040    9.7030   22.4780 C   0  0  0  0  0  0  0  0  0  0  0  0
   -0.2650   10.6410   21.6860 C   0  0  0  0  0  0  0  0  0  0  0  0
   -0.1950   10.5700   20.2900 C   0  0  0  0  0  0  0  0  0  0  0  0
    0.5720    9.5460   19.7060 C   0  0  0  0  0  0  0  0  0  0  0  0
    1.6730    7.9760   22.5360 H   0  0  0  0  0  0  0  0  0  0  0  0
    0.3420    9.7600   23.5620 H   0  0  0  0  0  0  0  0  0  0  0  0
   -0.8440   11.4190   22.1770 H   0  0  0  0  0  0  0  0  0  0  0  0
    0.6220    9.4720   18.6180 H   0  0  0  0  0  0  0  0  0  0  0  0
    2.4230    7.6220   18.5190 C   0  0  0  0  0  0  0  0  0  0  0  0
    2.3400    8.5370   17.7030 O   0  0  0  0  0  0  0  0  0  0  0  0
    1.9600    7.5930   19.8270 N   0  0  0  0  0  0  0  0  0  0  0  0
    2.2770    6.8030   20.3860 H   0  0  0  0  0  0  0  0  0  0  0  0
    3.3170    4.1320   17.6660 C   0  0  0  0  0  0  0  0  0  0  0  0
    2.5340    5.1850   18.0720 C   0  0  0  0  0  0  0  0  0  0  0  0
    3.1910    6.3970   18.1600 C   0  0  0  0  0  0  0  0  0  0  0  0
    4.4980    6.5970   17.8630 N   0  0  0  0  0  0  0  0  0  0  0  0
    5.1980    5.5120   17.4970 C   0  0  0  0  0  0  0  0  0  0  0  0
    4.6250    4.2870   17.3550 N   0  0  0  0  0  0  0  0  0  0  0  0
    1.4780    5.0830   18.3000 H   0  0  0  0  0  0  0  0  0  0  0  0
    6.6840    5.7040   17.2580 C   0  0  0  0  0  0  0  0  0  0  0  0
    7.6460    5.8520   18.4190 C   0  0  0  0  0  0  0  0  0  0  0  0
    7.3680    7.0280   17.5200 C   0  0  0  0  0  0  0  0  0  0  0  0
    7.0660    5.1420   16.4090 H   0  0  0  0  0  0  0  0  0  0  0  0
    8.6080    5.3570   18.3440 H   0  0  0  0  0  0  0  0  0  0  0  0
    7.2540    5.8900   19.4340 H   0  0  0  0  0  0  0  0  0  0  0  0
    8.1260    7.3490   16.8080 H   0  0  0  0  0  0  0  0  0  0  0  0
    6.7730    7.8460   17.9220 H   0  0  0  0  0  0  0  0  0  0  0  0
    2.7300    2.7650   17.5130 C   0  0  0  0  0  0  0  0  0  0  0  0
    3.4710    1.9930   17.7440 H   0  0  0  0  0  0  0  0  0  0  0  0
    2.3780    2.5980   16.4840 H   0  0  0  0  0  0  0  0  0  0  0  0
    1.8800    2.6640   18.1970 H   0  0  0  0  0  0  0  0  0  0  0  0
   -0.9680   11.5230   19.3870 C   0  0  2  0  0  0  0  0  0  0  0  0
   -1.5810   12.1720   20.0280 H   0  0  0  0  0  0  0  0  0  0  0  0
   -1.9410   10.7690   18.4720 C   0  0  0  0  0  0  0  0  0  0  0  0
   -2.9690   11.1080   18.6290 H   0  0  0  0  0  0  0  0  0  0  0  0
   -1.9090    9.6940   18.6720 H   0  0  0  0  0  0  0  0  0  0  0  0
   -1.7020   10.9120   17.4120 H   0  0  0  0  0  0  0  0  0  0  0  0
    0.0270   12.3980   18.5900 C   0  0  0  0  0  0  0  0  0  0  0  0
   -0.4880   12.8610   17.7380 H   0  0  0  0  0  0  0  0  0  0  0  0
    0.8200   11.7670   18.1640 H   0  0  0  0  0  0  0  0  0  0  0  0
    0.6990   13.4370   19.4310 C   0  0  0  0  0  0  0  0  0  0  0  0
    0.0740   14.4170   20.0620 N   0  0  0  0  0  0  0  0  0  0  0  0
    0.9430   15.2190   20.7950 N   0  0  0  0  0  0  0  0  0  0  0  0
    2.1910   14.8090   20.6850 C   0  0  0  0  0  0  0  0  0  0  0  0
    2.3460   13.4240   19.7310 S   0  0  2  0  0  0  0  0  0  0  0  0
    3.2210   14.2660   18.1740 Cl  0  0  0  0  0  0  0  0  0  0  0  0
    3.0160   15.2940   21.1990 H   0  0  0  0  0  0  0  0  0  0  0  0
    2.9400   12.5720   20.6050 H   0  0  0  0  0  0  0  0  0  0  0  0
  1  2  1  0  0  0  0
  2  3  2  0  0  0  0
  2  7  1  0  0  0  0
  3  8  1  0  0  0  0
  4  9  1  0  0  0  0
  4  3  1  0  0  0  0
  5  4  2  0  0  0  0
  6  5  1  0  0  0  0
  6  1  2  0  0  0  0
 10  6  1  0  0  0  0
 11 13  1  0  0  0  0
 12 11  2  0  0  0  0
 13 14  1  0  0  0  0
 13  1  1  0  0  0  0
 15 16  1  0  0  0  0
 16 17  2  0  0  0  0
 16 21  1  0  0  0  0
 17 11  1  0  0  0  0
 18 17  1  0  0  0  0
 19 18  2  0  0  0  0
 20 19  1  0  0  0  0
 20 15  2  0  0  0  0
 22 19  1  0  0  0  0
 22 24  1  0  0  0  0
 22 23  1  0  0  0  0
 23 27  1  0  0  0  0
 24 29  1  0  0  0  0
 24 23  1  0  0  0  0
 25 22  1  0  0  0  0
 26 23  1  0  0  0  0
 28 24  1  0  0  0  0
 30 15  1  0  0  0  0
 30 31  1  0  0  0  0
 30 33  1  0  0  0  0
 32 30  1  0  0  0  0
 34 35  1  1  0  0  0
 34  5  1  0  0  0  0
 36 37  1  0  0  0  0
 36 38  1  0  0  0  0
 36 34  1  0  0  0  0
 39 36  1  0  0  0  0
 40 34  1  0  0  0  0
 40 43  1  0  0  0  0
 41 40  1  0  0  0  0
 42 40  1  0  0  0  0
 43 47  1  0  0  0  0
 43 44  2  0  0  0  0
 44 45  1  0  0  0  0
 46 45  2  0  0  0  0
 46 49  1  0  0  0  0
 47 50  1  1  0  0  0
 47 46  1  0  0  0  0
 48 47  1  0  0  0  0
M  END
>  <MODEL>
13

>  <REMARK>
 VINA RESULT:    -6.971      2.863      3.476
 INTER + INTRA:         -10.603
 INTER:                 -10.239
 INTRA:                  -0.363
 UNBOUND:                -0.779
  Name = 
  8 active torsions:
  status: ('A' for Active; 'I' for Inactive)
    1  A    between atoms: C_1  and  C_2
    2  A    between atoms: C_4  and  C_11
    3  A    between atoms: C_6  and  C_8
    4  A    between atoms: N_13  and  C_14
    5  A    between atoms: C_18  and  C_20
    6  A    between atoms: C_20  and  C_21
    7  A    between atoms: C_20  and  C_22
    8  A    between atoms: C_22  and  C_23
                            x       y       z     vdW  Elec       q    Type
                         _______ _______ _______ _____ _____    ______ ____

>  <TORSDO>
F 8

$$$$
=
 OpenBabel07192307433D

 50 53  0  0  1  0  0  0  0  0999 V2000
    0.7140    8.9920   21.0860 C   0  0  0  0  0  0  0  0  0  0  0  0
    0.3840    8.9530   22.4430 C   0  0  0  0  0  0  0  0  0  0  0  0
   -0.3090   10.0190   23.0210 C   0  0  0  0  0  0  0  0  0  0  0  0
   -0.6850   11.1240   22.2510 C   0  0  0  0  0  0  0  0  0  0  0  0
   -0.3660   11.1800   20.8890 C   0  0  0  0  0  0  0  0  0  0  0  0
    0.3490   10.1120   20.3200 C   0  0  0  0  0  0  0  0  0  0  0  0
    0.6800    8.1170   23.0760 H   0  0  0  0  0  0  0  0  0  0  0  0
   -0.5630    9.9780   24.0770 H   0  0  0  0  0  0  0  0  0  0  0  0
   -1.2340   11.9310   22.7300 H   0  0  0  0  0  0  0  0  0  0  0  0
    0.5900   10.1400   19.2560 H   0  0  0  0  0  0  0  0  0  0  0  0
    1.9710    8.0020   19.1600 C   0  0  0  0  0  0  0  0  0  0  0  0
    2.0200    8.9490   18.3790 O   0  0  0  0  0  0  0  0  0  0  0  0
    1.4110    7.9640   20.4280 N   0  0  0  0  0  0  0  0  0  0  0  0
    1.6240    7.1320   20.9760 H   0  0  0  0  0  0  0  0  0  0  0  0
    4.2470    5.5330   17.5990 C   0  0  0  0  0  0  0  0  0  0  0  0
    3.6120    6.7350   17.7990 C   0  0  0  0  0  0  0  0  0  0  0  0
    2.6680    6.7340   18.8070 C   0  0  0  0  0  0  0  0  0  0  0  0
    2.3620    5.6660   19.5850 N   0  0  0  0  0  0  0  0  0  0  0  0
    3.0100    4.5240   19.3090 C   0  0  0  0  0  0  0  0  0  0  0  0
    3.9750    4.4440   18.3550 N   0  0  0  0  0  0  0  0  0  0  0  0
    3.8360    7.6250   17.2190 H   0  0  0  0  0  0  0  0  0  0  0  0
    2.6060    3.2980   20.1060 C   0  0  0  0  0  0  0  0  0  0  0  0
    1.5880    2.3170   19.5610 C   0  0  0  0  0  0  0  0  0  0  0  0
    1.2400    3.1800   20.7470 C   0  0  0  0  0  0  0  0  0  0  0  0
    3.4230    2.8520   20.6670 H   0  0  0  0  0  0  0  0  0  0  0  0
    1.7680    1.2600   19.7240 H   0  0  0  0  0  0  0  0  0  0  0  0
    1.0910    2.5340   18.6180 H   0  0  0  0  0  0  0  0  0  0  0  0
    1.1890    2.7340   21.7380 H   0  0  0  0  0  0  0  0  0  0  0  0
    0.5260    3.9880   20.5950 H   0  0  0  0  0  0  0  0  0  0  0  0
    5.3030    5.3980   16.5500 C   0  0  0  0  0  0  0  0  0  0  0  0
    6.2530    5.8220   16.8930 H   0  0  0  0  0  0  0  0  0  0  0  0
    5.0140    5.9210   15.6260 H   0  0  0  0  0  0  0  0  0  0  0  0
    5.4460    4.3350   16.3230 H   0  0  0  0  0  0  0  0  0  0  0  0
   -0.8210   12.3270   19.9950 C   0  0  2  0  0  0  0  0  0  0  0  0
   -0.6250   13.2690   20.5280 H   0  0  0  0  0  0  0  0  0  0  0  0
   -2.3330   12.2770   19.7390 C   0  0  0  0  0  0  0  0  0  0  0  0
   -2.7410   11.2960   19.9990 H   0  0  0  0  0  0  0  0  0  0  0  0
   -2.5550   12.4630   18.6840 H   0  0  0  0  0  0  0  0  0  0  0  0
   -2.8740   13.0280   20.3250 H   0  0  0  0  0  0  0  0  0  0  0  0
   -0.0040   12.3120   18.6830 C   0  0  0  0  0  0  0  0  0  0  0  0
   -0.6530   12.5820   17.8390 H   0  0  0  0  0  0  0  0  0  0  0  0
    0.3580   11.2940   18.4800 H   0  0  0  0  0  0  0  0  0  0  0  0
    1.2000   13.2010   18.7300 C   0  0  0  0  0  0  0  0  0  0  0  0
    2.3450   12.9530   18.1160 N   0  0  0  0  0  0  0  0  0  0  0  0
    3.2810   13.9640   18.3070 N   0  0  0  0  0  0  0  0  0  0  0  0
    2.8020   14.9350   19.0580 C   0  0  0  0  0  0  0  0  0  0  0  0
    1.1970   14.6760   19.5210 S   0  0  2  0  0  0  0  0  0  0  0  0
    1.5250   14.3040   21.4330 Cl  0  0  0  0  0  0  0  0  0  0  0  0
    3.3750   15.8240   19.3060 H   0  0  0  0  0  0  0  0  0  0  0  0
    0.6020   15.7900   19.0250 H   0  0  0  0  0  0  0  0  0  0  0  0
  1  2  1  0  0  0  0
  2  3  2  0  0  0  0
  2  7  1  0  0  0  0
  3  8  1  0  0  0  0
  4  9  1  0  0  0  0
  4  3  1  0  0  0  0
  5  4  2  0  0  0  0
  6  5  1  0  0  0  0
  6  1  2  0  0  0  0
 10  6  1  0  0  0  0
 11 13  1  0  0  0  0
 12 11  2  0  0  0  0
 13 14  1  0  0  0  0
 13  1  1  0  0  0  0
 15 16  1  0  0  0  0
 15 20  2  0  0  0  0
 16 17  2  0  0  0  0
 17 11  1  0  0  0  0
 17 18  1  0  0  0  0
 19 18  2  0  0  0  0
 19 22  1  0  0  0  0
 20 19  1  0  0  0  0
 21 16  1  0  0  0  0
 22 25  1  0  0  0  0
 22 24  1  0  0  0  0
 23 26  1  0  0  0  0
 23 22  1  0  0  0  0
 23 24  1  0  0  0  0
 24 28  1  0  0  0  0
 27 23  1  0  0  0  0
 29 24  1  0  0  0  0
 30 31  1  0  0  0  0
 30 15  1  0  0  0  0
 32 30  1  0  0  0  0
 33 30  1  0  0  0  0
 34 35  1  1  0  0  0
 34  5  1  0  0  0  0
 36 34  1  0  0  0  0
 36 37  1  0  0  0  0
 36 39  1  0  0  0  0
 38 36  1  0  0  0  0
 40 43  1  0  0  0  0
 40 34  1  0  0  0  0
 41 40  1  0  0  0  0
 42 40  1  0  0  0  0
 43 47  1  0  0  0  0
 44 45  1  0  0  0  0
 44 43  2  0  0  0  0
 45 46  2  0  0  0  0
 46 49  1  0  0  0  0
 46 47  1  0  0  0  0
 47 50  1  6  0  0  0
 47 48  1  0  0  0  0
M  END
>  <MODEL>
14

>  <REMARK>
 VINA RESULT:    -6.970      3.170      4.326
 INTER + INTRA:         -10.602
 INTER:                 -10.114
 INTRA:                  -0.488
 UNBOUND:                -0.779
  Name = 
  8 active torsions:
  status: ('A' for Active; 'I' for Inactive)
    1  A    between atoms: C_1  and  C_2
    2  A    between atoms: C_4  and  C_11
    3  A    between atoms: C_6  and  C_8
    4  A    between atoms: N_13  and  C_14
    5  A    between atoms: C_18  and  C_20
    6  A    between atoms: C_20  and  C_21
    7  A    between atoms: C_20  and  C_22
    8  A    between atoms: C_22  and  C_23
                            x       y       z     vdW  Elec       q    Type
                         _______ _______ _______ _____ _____    ______ ____

>  <TORSDO>
F 8

$$$$
=
 OpenBabel07192307433D

 50 53  0  0  1  0  0  0  0  0999 V2000
    3.3930    6.0020   19.4470 C   0  0  0  0  0  0  0  0  0  0  0  0
    3.0680    4.6970   19.8280 C   0  0  0  0  0  0  0  0  0  0  0  0
    4.0170    3.6800   19.7030 C   0  0  0  0  0  0  0  0  0  0  0  0
    5.2950    3.9560   19.2090 C   0  0  0  0  0  0  0  0  0  0  0  0
    5.6410    5.2570   18.8240 C   0  0  0  0  0  0  0  0  0  0  0  0
    4.6730    6.2710   18.9340 C   0  0  0  0  0  0  0  0  0  0  0  0
    2.0750    4.4440   20.1980 H   0  0  0  0  0  0  0  0  0  0  0  0
    3.7550    2.6690   20.0060 H   0  0  0  0  0  0  0  0  0  0  0  0
    6.0130    3.1430   19.1360 H   0  0  0  0  0  0  0  0  0  0  0  0
    4.9370    7.2920   18.6500 H   0  0  0  0  0  0  0  0  0  0  0  0
    2.2470    8.0520   18.5780 C   0  0  0  0  0  0  0  0  0  0  0  0
    2.7100    8.1370   17.4440 O   0  0  0  0  0  0  0  0  0  0  0  0
    2.4970    7.0820   19.5370 N   0  0  0  0  0  0  0  0  0  0  0  0
    1.8850    7.1010   20.3510 H   0  0  0  0  0  0  0  0  0  0  0  0
   -0.6430   10.3670   18.5860 C   0  0  0  0  0  0  0  0  0  0  0  0
    0.3250    9.5370   18.0760 C   0  0  0  0  0  0  0  0  0  0  0  0
    1.2020    9.0230   19.0100 C   0  0  0  0  0  0  0  0  0  0  0  0
    1.1500    9.2650   20.3430 N   0  0  0  0  0  0  0  0  0  0  0  0
    0.1890   10.1050   20.7570 C   0  0  0  0  0  0  0  0  0  0  0  0
   -0.7340   10.6330   19.9110 N   0  0  0  0  0  0  0  0  0  0  0  0
    0.3970    9.2920   17.0200 H   0  0  0  0  0  0  0  0  0  0  0  0
    0.1820   10.4640   22.2310 C   0  0  0  0  0  0  0  0  0  0  0  0
   -0.3550    9.4940   23.2650 C   0  0  0  0  0  0  0  0  0  0  0  0
   -1.1040   10.7690   22.9700 C   0  0  0  0  0  0  0  0  0  0  0  0
    1.0480   11.0420   22.5450 H   0  0  0  0  0  0  0  0  0  0  0  0
    0.1790    9.4120   24.2050 H   0  0  0  0  0  0  0  0  0  0  0  0
   -0.8040    8.5590   22.9350 H   0  0  0  0  0  0  0  0  0  0  0  0
   -1.0840   11.5810   23.6930 H   0  0  0  0  0  0  0  0  0  0  0  0
   -2.0430   10.6920   22.4250 H   0  0  0  0  0  0  0  0  0  0  0  0
   -1.6680   10.9810   17.6880 C   0  0  0  0  0  0  0  0  0  0  0  0
   -1.4800   12.0510   17.5540 H   0  0  0  0  0  0  0  0  0  0  0  0
   -2.6800   10.8640   18.1020 H   0  0  0  0  0  0  0  0  0  0  0  0
   -1.6280   10.4850   16.7110 H   0  0  0  0  0  0  0  0  0  0  0  0
    7.0440    5.6190   18.3520 C   0  0  2  0  0  0  0  0  0  0  0  0
    7.6750    5.7520   19.2410 H   0  0  0  0  0  0  0  0  0  0  0  0
    7.0590    6.9560   17.6010 C   0  0  0  0  0  0  0  0  0  0  0  0
    7.9630    7.5260   17.8350 H   0  0  0  0  0  0  0  0  0  0  0  0
    6.1960    7.5690   17.8780 H   0  0  0  0  0  0  0  0  0  0  0  0
    7.0260    6.8180   16.5140 H   0  0  0  0  0  0  0  0  0  0  0  0
    7.6130    4.4620   17.4990 C   0  0  0  0  0  0  0  0  0  0  0  0
    7.3980    3.5020   17.9860 H   0  0  0  0  0  0  0  0  0  0  0  0
    8.7080    4.5420   17.4450 H   0  0  0  0  0  0  0  0  0  0  0  0
    7.1070    4.4670   16.0900 C   0  0  0  0  0  0  0  0  0  0  0  0
    7.6260    5.1810   15.1050 N   0  0  0  0  0  0  0  0  0  0  0  0
    6.9750    4.9680   13.8940 N   0  0  0  0  0  0  0  0  0  0  0  0
    5.9900    4.1010   14.0160 C   0  0  0  0  0  0  0  0  0  0  0  0
    5.8480    3.4870   15.5850 S   0  0  2  0  0  0  0  0  0  0  0  0
    4.1700    4.4040   16.0810 Cl  0  0  0  0  0  0  0  0  0  0  0  0
    5.3740    3.7880   13.1780 H   0  0  0  0  0  0  0  0  0  0  0  0
    5.9820    2.1570   15.3550 H   0  0  0  0  0  0  0  0  0  0  0  0
  1 13  1  0  0  0  0
  1  2  1  0  0  0  0
  2  7  1  0  0  0  0
  3  2  2  0  0  0  0
  3  8  1  0  0  0  0
  4  3  1  0  0  0  0
  5  6  1  0  0  0  0
  5  4  2  0  0  0  0
  6  1  2  0  0  0  0
  9  4  1  0  0  0  0
 10  6  1  0  0  0  0
 11 17  1  0  0  0  0
 11 13  1  0  0  0  0
 12 11  2  0  0  0  0
 13 14  1  0  0  0  0
 15 20  2  0  0  0  0
 16 15  1  0  0  0  0
 16 17  2  0  0  0  0
 17 18  1  0  0  0  0
 18 19  2  0  0  0  0
 19 22  1  0  0  0  0
 20 19  1  0  0  0  0
 21 16  1  0  0  0  0
 22 25  1  0  0  0  0
 22 24  1  0  0  0  0
 22 23  1  0  0  0  0
 23 26  1  0  0  0  0
 24 23  1  0  0  0  0
 24 28  1  0  0  0  0
 27 23  1  0  0  0  0
 29 24  1  0  0  0  0
 30 32  1  0  0  0  0
 30 15  1  0  0  0  0
 31 30  1  0  0  0  0
 33 30  1  0  0  0  0
 34  5  1  0  0  0  0
 34 35  1  1  0  0  0
 36 37  1  0  0  0  0
 36 38  1  0  0  0  0
 36 34  1  0  0  0  0
 39 36  1  0  0  0  0
 40 41  1  0  0  0  0
 40 34  1  0  0  0  0
 42 40  1  0  0  0  0
 43 40  1  0  0  0  0
 44 43  2  0  0  0  0
 45 46  2  0  0  0  0
 45 44  1  0  0  0  0
 46 47  1  0  0  0  0
 47 50  1  1  0  0  0
 47 48  1  0  0  0  0
 47 43  1  0  0  0  0
 49 46  1  0  0  0  0
M  END
>  <MODEL>
15

>  <REMARK>
 VINA RESULT:    -6.947      3.441      8.833
 INTER + INTRA:         -10.569
 INTER:                 -10.235
 INTRA:                  -0.334
 UNBOUND:                -0.779
  Name = 
  8 active torsions:
  status: ('A' for Active; 'I' for Inactive)
    1  A    between atoms: C_1  and  C_2
    2  A    between atoms: C_4  and  C_11
    3  A    between atoms: C_6  and  C_8
    4  A    between atoms: N_13  and  C_14
    5  A    between atoms: C_18  and  C_20
    6  A    between atoms: C_20  and  C_21
    7  A    between atoms: C_20  and  C_22
    8  A    between atoms: C_22  and  C_23
                            x       y       z     vdW  Elec       q    Type
                         _______ _______ _______ _____ _____    ______ ____

>  <TORSDO>
F 8

$$$$
=
 OpenBabel07192307433D

 50 53  0  0  1  0  0  0  0  0999 V2000
    1.9780    6.4950   19.9880 C   0  0  0  0  0  0  0  0  0  0  0  0
    1.3750    5.6540   20.9270 C   0  0  0  0  0  0  0  0  0  0  0  0
    1.6640    4.2880   20.9240 C   0  0  0  0  0  0  0  0  0  0  0  0
    2.5600    3.7520   19.9940 C   0  0  0  0  0  0  0  0  0  0  0  0
    3.1760    4.5780   19.0460 C   0  0  0  0  0  0  0  0  0  0  0  0
    2.8640    5.9490   19.0440 C   0  0  0  0  0  0  0  0  0  0  0  0
    0.6570    6.0360   21.6520 H   0  0  0  0  0  0  0  0  0  0  0  0
    1.1920    3.6430   21.6610 H   0  0  0  0  0  0  0  0  0  0  0  0
    2.7710    2.6870   20.0280 H   0  0  0  0  0  0  0  0  0  0  0  0
    3.3510    6.6040   18.3180 H   0  0  0  0  0  0  0  0  0  0  0  0
    1.6720    8.6680   18.7820 C   0  0  0  0  0  0  0  0  0  0  0  0
    1.7500    8.3170   17.6070 O   0  0  0  0  0  0  0  0  0  0  0  0
    1.7400    7.8780   19.9200 N   0  0  0  0  0  0  0  0  0  0  0  0
    1.4850    8.3420   20.7910 H   0  0  0  0  0  0  0  0  0  0  0  0
    1.6500   12.3700   18.7480 C   0  0  0  0  0  0  0  0  0  0  0  0
    2.0560   11.0940   18.4420 C   0  0  0  0  0  0  0  0  0  0  0  0
    1.3650   10.0920   19.0940 C   0  0  0  0  0  0  0  0  0  0  0  0
    0.3440   10.2890   19.9640 N   0  0  0  0  0  0  0  0  0  0  0  0
    0.0260   11.5660   20.2270 C   0  0  0  0  0  0  0  0  0  0  0  0
    0.6320   12.6130   19.6080 N   0  0  0  0  0  0  0  0  0  0  0  0
    2.8520   10.8810   17.7360 H   0  0  0  0  0  0  0  0  0  0  0  0
   -1.0480   11.8020   21.2730 C   0  0  0  0  0  0  0  0  0  0  0  0
   -0.7560   12.6160   22.5170 C   0  0  0  0  0  0  0  0  0  0  0  0
   -0.9980   11.1330   22.6300 C   0  0  0  0  0  0  0  0  0  0  0  0
   -2.0430   11.9360   20.8560 H   0  0  0  0  0  0  0  0  0  0  0  0
   -1.5250   13.2950   22.8680 H   0  0  0  0  0  0  0  0  0  0  0  0
    0.2570   12.9750   22.6930 H   0  0  0  0  0  0  0  0  0  0  0  0
   -1.9380   10.7740   23.0450 H   0  0  0  0  0  0  0  0  0  0  0  0
   -0.1470   10.4950   22.8600 H   0  0  0  0  0  0  0  0  0  0  0  0
    2.3020   13.5500   18.1020 C   0  0  0  0  0  0  0  0  0  0  0  0
    1.5530   14.2230   17.6690 H   0  0  0  0  0  0  0  0  0  0  0  0
    2.9800   13.2360   17.2950 H   0  0  0  0  0  0  0  0  0  0  0  0
    2.8800   14.0950   18.8560 H   0  0  0  0  0  0  0  0  0  0  0  0
    4.2160    4.0530   18.0640 C   0  0  2  0  0  0  0  0  0  0  0  0
    4.2330    4.7270   17.1970 H   0  0  0  0  0  0  0  0  0  0  0  0
    3.8370    2.6650   17.5310 C   0  0  0  0  0  0  0  0  0  0  0  0
    3.5770    1.9890   18.3510 H   0  0  0  0  0  0  0  0  0  0  0  0
    4.6690    2.2180   16.9810 H   0  0  0  0  0  0  0  0  0  0  0  0
    2.9790    2.7070   16.8500 H   0  0  0  0  0  0  0  0  0  0  0  0
    5.6090    4.0610   18.7350 C   0  0  0  0  0  0  0  0  0  0  0  0
    6.1290    3.1180   18.5220 H   0  0  0  0  0  0  0  0  0  0  0  0
    5.4970    4.1110   19.8280 H   0  0  0  0  0  0  0  0  0  0  0  0
    6.4490    5.2320   18.3300 C   0  0  0  0  0  0  0  0  0  0  0  0
    7.2460    5.9050   19.1430 N   0  0  0  0  0  0  0  0  0  0  0  0
    7.9310    6.9260   18.4910 N   0  0  0  0  0  0  0  0  0  0  0  0
    7.6210    6.9800   17.2110 C   0  0  0  0  0  0  0  0  0  0  0  0
    6.5280    5.7770   16.7490 S   0  0  2  0  0  0  0  0  0  0  0  0
    4.9560    6.9370   16.4620 Cl  0  0  0  0  0  0  0  0  0  0  0  0
    8.0660    7.6980   16.5280 H   0  0  0  0  0  0  0  0  0  0  0  0
    7.2320    5.1470   15.7760 H   0  0  0  0  0  0  0  0  0  0  0  0
  1  2  1  0  0  0  0
  2  7  1  0  0  0  0
  3  2  2  0  0  0  0
  3  8  1  0  0  0  0
  4  9  1  0  0  0  0
  4  3  1  0  0  0  0
  5  4  2  0  0  0  0
  6  5  1  0  0  0  0
  6  1  2  0  0  0  0
 10  6  1  0  0  0  0
 11 17  1  0  0  0  0
 11 13  1  0  0  0  0
 12 11  2  0  0  0  0
 13  1  1  0  0  0  0
 13 14  1  0  0  0  0
 15 20  2  0  0  0  0
 16 15  1  0  0  0  0
 16 17  2  0  0  0  0
 17 18  1  0  0  0  0
 18 19  2  0  0  0  0
 19 22  1  0  0  0  0
 20 19  1  0  0  0  0
 21 16  1  0  0  0  0
 22 23  1  0  0  0  0
 22 24  1  0  0  0  0
 23 24  1  0  0  0  0
 23 27  1  0  0  0  0
 23 26  1  0  0  0  0
 24 29  1  0  0  0  0
 24 28  1  0  0  0  0
 25 22  1  0  0  0  0
 30 15  1  0  0  0  0
 30 33  1  0  0  0  0
 31 30  1  0  0  0  0
 32 30  1  0  0  0  0
 34 35  1  6  0  0  0
 34 40  1  0  0  0  0
 34  5  1  0  0  0  0
 36 34  1  0  0  0  0
 36 37  1  0  0  0  0
 38 36  1  0  0  0  0
 39 36  1  0  0  0  0
 40 42  1  0  0  0  0
 41 40  1  0  0  0  0
 43 40  1  0  0  0  0
 43 44  2  0  0  0  0
 45 44  1  0  0  0  0
 46 45  2  0  0  0  0
 47 50  1  6  0  0  0
 47 46  1  0  0  0  0
 47 43  1  0  0  0  0
 48 47  1  0  0  0  0
 49 46  1  0  0  0  0
M  END
>  <MODEL>
16

>  <REMARK>
 VINA RESULT:    -6.888      3.522      8.785
 INTER + INTRA:         -10.487
 INTER:                  -9.891
 INTRA:                  -0.595
 UNBOUND:                -0.779
  Name = 
  8 active torsions:
  status: ('A' for Active; 'I' for Inactive)
    1  A    between atoms: C_1  and  C_2
    2  A    between atoms: C_4  and  C_11
    3  A    between atoms: C_6  and  C_8
    4  A    between atoms: N_13  and  C_14
    5  A    between atoms: C_18  and  C_20
    6  A    between atoms: C_20  and  C_21
    7  A    between atoms: C_20  and  C_22
    8  A    between atoms: C_22  and  C_23
                            x       y       z     vdW  Elec       q    Type
                         _______ _______ _______ _____ _____    ______ ____

>  <TORSDO>
F 8

$$$$
=
 OpenBabel07192307433D

 50 53  0  0  1  0  0  0  0  0999 V2000
    1.9400    6.7380   19.7470 C   0  0  0  0  0  0  0  0  0  0  0  0
    1.7580    6.0880   20.9700 C   0  0  0  0  0  0  0  0  0  0  0  0
    2.1380    4.7520   21.1110 C   0  0  0  0  0  0  0  0  0  0  0  0
    2.7080    4.0580   20.0400 C   0  0  0  0  0  0  0  0  0  0  0  0
    2.9020    4.6920   18.8070 C   0  0  0  0  0  0  0  0  0  0  0  0
    2.4980    6.0320   18.6680 C   0  0  0  0  0  0  0  0  0  0  0  0
    1.2970    6.5940   21.8190 H   0  0  0  0  0  0  0  0  0  0  0  0
    1.9940    4.2570   22.0680 H   0  0  0  0  0  0  0  0  0  0  0  0
    3.0030    3.0230   20.1880 H   0  0  0  0  0  0  0  0  0  0  0  0
    2.6570    6.5400   17.7150 H   0  0  0  0  0  0  0  0  0  0  0  0
    1.8790    8.8540   18.4090 C   0  0  0  0  0  0  0  0  0  0  0  0
    2.4610    8.5180   17.3800 O   0  0  0  0  0  0  0  0  0  0  0  0
    1.5830    8.0790   19.5200 N   0  0  0  0  0  0  0  0  0  0  0  0
    0.9480    8.5040   20.1940 H   0  0  0  0  0  0  0  0  0  0  0  0
   -0.4520   11.6830   18.9340 C   0  0  0  0  0  0  0  0  0  0  0  0
   -0.0360   10.3800   18.8010 C   0  0  0  0  0  0  0  0  0  0  0  0
    1.3030   10.2250   18.5010 C   0  0  0  0  0  0  0  0  0  0  0  0
    2.1910   11.2390   18.3560 N   0  0  0  0  0  0  0  0  0  0  0  0
    1.6990   12.4820   18.4770 C   0  0  0  0  0  0  0  0  0  0  0  0
    0.4010   12.7260   18.8010 N   0  0  0  0  0  0  0  0  0  0  0  0
   -0.7010    9.5320   18.9300 H   0  0  0  0  0  0  0  0  0  0  0  0
    2.6600   13.6270   18.2190 C   0  0  0  0  0  0  0  0  0  0  0  0
    3.3320   14.3530   19.3660 C   0  0  0  0  0  0  0  0  0  0  0  0
    2.2930   15.0610   18.5350 C   0  0  0  0  0  0  0  0  0  0  0  0
    3.2770   13.4890   17.3340 H   0  0  0  0  0  0  0  0  0  0  0  0
    4.3730   14.6330   19.2450 H   0  0  0  0  0  0  0  0  0  0  0  0
    3.0670   14.0920   20.3890 H   0  0  0  0  0  0  0  0  0  0  0  0
    2.6050   15.8250   17.8260 H   0  0  0  0  0  0  0  0  0  0  0  0
    1.3250   15.2580   18.9920 H   0  0  0  0  0  0  0  0  0  0  0  0
   -1.8740   11.9950   19.2730 C   0  0  0  0  0  0  0  0  0  0  0  0
   -2.1830   11.4700   20.1840 H   0  0  0  0  0  0  0  0  0  0  0  0
   -2.5510   11.6910   18.4620 H   0  0  0  0  0  0  0  0  0  0  0  0
   -1.9740   13.0750   19.4300 H   0  0  0  0  0  0  0  0  0  0  0  0
    3.5890    4.0000   17.6360 C   0  0  2  0  0  0  0  0  0  0  0  0
    3.6190    4.7070   16.7960 H   0  0  0  0  0  0  0  0  0  0  0  0
    2.7900    2.7820   17.1540 C   0  0  0  0  0  0  0  0  0  0  0  0
    2.6930    2.7840   16.0640 H   0  0  0  0  0  0  0  0  0  0  0  0
    1.7830    2.7830   17.5790 H   0  0  0  0  0  0  0  0  0  0  0  0
    3.2660    1.8380   17.4430 H   0  0  0  0  0  0  0  0  0  0  0  0
    5.0360    3.6300   18.0350 C   0  0  0  0  0  0  0  0  0  0  0  0
    5.3870    2.7910   17.4190 H   0  0  0  0  0  0  0  0  0  0  0  0
    5.0590    3.2790   19.0760 H   0  0  0  0  0  0  0  0  0  0  0  0
    5.9830    4.7860   17.9440 C   0  0  0  0  0  0  0  0  0  0  0  0
    6.5800    5.3540   18.9790 N   0  0  0  0  0  0  0  0  0  0  0  0
    7.4320    6.3870   18.6010 N   0  0  0  0  0  0  0  0  0  0  0  0
    7.4420    6.5550   17.2940 C   0  0  0  0  0  0  0  0  0  0  0  0
    6.4570    5.4470   16.4820 S   0  0  2  0  0  0  0  0  0  0  0  0
    5.0360    6.7030   15.9310 Cl  0  0  0  0  0  0  0  0  0  0  0  0
    8.0590    7.3010   16.8020 H   0  0  0  0  0  0  0  0  0  0  0  0
    7.3570    4.8610   15.6530 H   0  0  0  0  0  0  0  0  0  0  0  0
  1  2  1  0  0  0  0
  2  3  2  0  0  0  0
  2  7  1  0  0  0  0
  3  8  1  0  0  0  0
  4  9  1  0  0  0  0
  4  3  1  0  0  0  0
  5  4  2  0  0  0  0
  6  5  1  0  0  0  0
  6  1  2  0  0  0  0
 10  6  1  0  0  0  0
 11 17  1  0  0  0  0
 11 13  1  0  0  0  0
 12 11  2  0  0  0  0
 13  1  1  0  0  0  0
 13 14  1  0  0  0  0
 15 30  1  0  0  0  0
 16 21  1  0  0  0  0
 16 15  1  0  0  0  0
 17 16  2  0  0  0  0
 18 19  2  0  0  0  0
 18 17  1  0  0  0  0
 19 20  1  0  0  0  0
 20 15  2  0  0  0  0
 22 19  1  0  0  0  0
 22 24  1  0  0  0  0
 22 23  1  0  0  0  0
 23 27  1  0  0  0  0
 24 29  1  0  0  0  0
 24 23  1  0  0  0  0
 25 22  1  0  0  0  0
 26 23  1  0  0  0  0
 28 24  1  0  0  0  0
 30 33  1  0  0  0  0
 30 31  1  0  0  0  0
 32 30  1  0  0  0  0
 34 35  1  6  0  0  0
 34 40  1  0  0  0  0
 34  5  1  0  0  0  0
 36 39  1  0  0  0  0
 36 38  1  0  0  0  0
 36 34  1  0  0  0  0
 37 36  1  0  0  0  0
 40 42  1  0  0  0  0
 41 40  1  0  0  0  0
 43 40  1  0  0  0  0
 43 44  2  0  0  0  0
 45 44  1  0  0  0  0
 46 45  2  0  0  0  0
 47 50  1  6  0  0  0
 47 46  1  0  0  0  0
 47 43  1  0  0  0  0
 48 47  1  0  0  0  0
 49 46  1  0  0  0  0
M  END
>  <MODEL>
17

>  <REMARK>
 VINA RESULT:    -6.870      3.424      8.575
 INTER + INTRA:         -10.461
 INTER:                  -9.920
 INTRA:                  -0.541
 UNBOUND:                -0.779
  Name = 
  8 active torsions:
  status: ('A' for Active; 'I' for Inactive)
    1  A    between atoms: C_1  and  C_2
    2  A    between atoms: C_4  and  C_11
    3  A    between atoms: C_6  and  C_8
    4  A    between atoms: N_13  and  C_14
    5  A    between atoms: C_18  and  C_20
    6  A    between atoms: C_20  and  C_21
    7  A    between atoms: C_20  and  C_22
    8  A    between atoms: C_22  and  C_23
                            x       y       z     vdW  Elec       q    Type
                         _______ _______ _______ _____ _____    ______ ____

>  <TORSDO>
F 8

$$$$
=
 OpenBabel07192307433D

 50 53  0  0  1  0  0  0  0  0999 V2000
    0.6430    9.6620   18.0620 C   0  0  0  0  0  0  0  0  0  0  0  0
   -0.7180    9.6530   17.7450 C   0  0  0  0  0  0  0  0  0  0  0  0
   -1.4910   10.7950   17.9660 C   0  0  0  0  0  0  0  0  0  0  0  0
   -0.9140   11.9530   18.4940 C   0  0  0  0  0  0  0  0  0  0  0  0
    0.4480   11.9840   18.8160 C   0  0  0  0  0  0  0  0  0  0  0  0
    1.2150   10.8230   18.6080 C   0  0  0  0  0  0  0  0  0  0  0  0
   -1.2030    8.7600   17.3510 H   0  0  0  0  0  0  0  0  0  0  0  0
   -2.5480   10.7780   17.7130 H   0  0  0  0  0  0  0  0  0  0  0  0
   -1.5430   12.8270   18.6420 H   0  0  0  0  0  0  0  0  0  0  0  0
    2.2810   10.8410   18.8430 H   0  0  0  0  0  0  0  0  0  0  0  0
    2.0930    7.7790   18.8510 C   0  0  0  0  0  0  0  0  0  0  0  0
    1.9690    7.8610   20.0710 O   0  0  0  0  0  0  0  0  0  0  0  0
    1.4910    8.5570   17.8730 N   0  0  0  0  0  0  0  0  0  0  0  0
    1.5960    8.2190   16.9180 H   0  0  0  0  0  0  0  0  0  0  0  0
    3.1430    4.4610   17.5870 C   0  0  0  0  0  0  0  0  0  0  0  0
    2.3470    5.4010   18.1970 C   0  0  0  0  0  0  0  0  0  0  0  0
    2.8970    6.6650   18.2770 C   0  0  0  0  0  0  0  0  0  0  0  0
    4.1140    7.0160   17.7910 N   0  0  0  0  0  0  0  0  0  0  0  0
    4.8370    6.0340   17.2330 C   0  0  0  0  0  0  0  0  0  0  0  0
    4.3610    4.7690   17.0850 N   0  0  0  0  0  0  0  0  0  0  0  0
    1.3570    5.1770   18.5810 H   0  0  0  0  0  0  0  0  0  0  0  0
    6.2390    6.3910   16.7760 C   0  0  0  0  0  0  0  0  0  0  0  0
    7.4480    6.0180   17.6100 C   0  0  0  0  0  0  0  0  0  0  0  0
    7.0520    7.4650   17.4670 C   0  0  0  0  0  0  0  0  0  0  0  0
    6.3800    6.3210   15.7000 H   0  0  0  0  0  0  0  0  0  0  0  0
    8.3320    5.6680   17.0890 H   0  0  0  0  0  0  0  0  0  0  0  0
    7.3000    5.5500   18.5810 H   0  0  0  0  0  0  0  0  0  0  0  0
    7.6480    8.1240   16.8380 H   0  0  0  0  0  0  0  0  0  0  0  0
    6.6210    7.9620   18.3340 H   0  0  0  0  0  0  0  0  0  0  0  0
    2.6640    3.0540   17.4200 C   0  0  0  0  0  0  0  0  0  0  0  0
    1.7930    2.8590   18.0550 H   0  0  0  0  0  0  0  0  0  0  0  0
    3.4490    2.3340   17.6910 H   0  0  0  0  0  0  0  0  0  0  0  0
    2.3860    2.8960   16.3720 H   0  0  0  0  0  0  0  0  0  0  0  0
    1.1350   13.2460   19.3220 C   0  0  2  0  0  0  0  0  0  0  0  0
    0.4390   14.0860   19.1890 H   0  0  0  0  0  0  0  0  0  0  0  0
    2.3840   13.5790   18.4950 C   0  0  0  0  0  0  0  0  0  0  0  0
    3.2000   12.8870   18.7240 H   0  0  0  0  0  0  0  0  0  0  0  0
    2.7350   14.5920   18.7090 H   0  0  0  0  0  0  0  0  0  0  0  0
    2.1910   13.5200   17.4170 H   0  0  0  0  0  0  0  0  0  0  0  0
    1.4540   13.0900   20.8270 C   0  0  0  0  0  0  0  0  0  0  0  0
    2.0670   13.9360   21.1650 H   0  0  0  0  0  0  0  0  0  0  0  0
    2.0590   12.1870   20.9890 H   0  0  0  0  0  0  0  0  0  0  0  0
    0.2290   12.9520   21.6750 C   0  0  0  0  0  0  0  0  0  0  0  0
   -0.2400   11.8060   22.1410 N   0  0  0  0  0  0  0  0  0  0  0  0
   -1.3760   11.9760   22.9270 N   0  0  0  0  0  0  0  0  0  0  0  0
   -1.7160   13.2450   23.0210 C   0  0  0  0  0  0  0  0  0  0  0  0
   -0.6550   14.2720   22.2000 S   0  0  2  0  0  0  0  0  0  0  0  0
   -1.8620   14.7820   20.7230 Cl  0  0  0  0  0  0  0  0  0  0  0  0
   -2.5650   13.5840   23.6080 H   0  0  0  0  0  0  0  0  0  0  0  0
   -0.2530   15.0880   23.2080 H   0  0  0  0  0  0  0  0  0  0  0  0
  1  6  1  0  0  0  0
  2  3  1  0  0  0  0
  2  1  2  0  0  0  0
  3  4  2  0  0  0  0
  4  9  1  0  0  0  0
  4  5  1  0  0  0  0
  5 34  1  0  0  0  0
  6  5  2  0  0  0  0
  6 10  1  0  0  0  0
  7  2  1  0  0  0  0
  8  3  1  0  0  0  0
 11 12  2  0  0  0  0
 13  1  1  0  0  0  0
 13 11  1  0  0  0  0
 14 13  1  0  0  0  0
 15 16  1  0  0  0  0
 16 17  2  0  0  0  0
 16 21  1  0  0  0  0
 17 11  1  0  0  0  0
 18 17  1  0  0  0  0
 19 18  2  0  0  0  0
 20 19  1  0  0  0  0
 20 15  2  0  0  0  0
 22 19  1  0  0  0  0
 22 24  1  0  0  0  0
 22 23  1  0  0  0  0
 23 27  1  0  0  0  0
 24 23  1  0  0  0  0
 24 29  1  0  0  0  0
 25 22  1  0  0  0  0
 26 23  1  0  0  0  0
 28 24  1  0  0  0  0
 30 15  1  0  0  0  0
 30 32  1  0  0  0  0
 30 31  1  0  0  0  0
 33 30  1  0  0  0  0
 34 35  1  6  0  0  0
 34 40  1  0  0  0  0
 36 38  1  0  0  0  0
 36 37  1  0  0  0  0
 36 34  1  0  0  0  0
 39 36  1  0  0  0  0
 40 42  1  0  0  0  0
 40 41  1  0  0  0  0
 40 43  1  0  0  0  0
 43 44  2  0  0  0  0
 43 47  1  0  0  0  0
 44 45  1  0  0  0  0
 45 46  2  0  0  0  0
 46 49  1  0  0  0  0
 47 46  1  0  0  0  0
 47 50  1  1  0  0  0
 48 47  1  0  0  0  0
M  END
>  <MODEL>
18

>  <REMARK>
 VINA RESULT:    -6.856      3.058      3.771
 INTER + INTRA:         -10.441
 INTER:                  -9.563
 INTRA:                  -0.878
 UNBOUND:                -0.779
  Name = 
  8 active torsions:
  status: ('A' for Active; 'I' for Inactive)
    1  A    between atoms: C_1  and  C_2
    2  A    between atoms: C_4  and  C_11
    3  A    between atoms: C_6  and  C_8
    4  A    between atoms: N_13  and  C_14
    5  A    between atoms: C_18  and  C_20
    6  A    between atoms: C_20  and  C_21
    7  A    between atoms: C_20  and  C_22
    8  A    between atoms: C_22  and  C_23
                            x       y       z     vdW  Elec       q    Type
                         _______ _______ _______ _____ _____    ______ ____

>  <TORSDO>
F 8

$$$$
=
 OpenBabel07192307433D

 50 53  0  0  1  0  0  0  0  0999 V2000
    1.1770    8.5380   20.6540 C   0  0  0  0  0  0  0  0  0  0  0  0
    1.2860    8.6070   22.0450 C   0  0  0  0  0  0  0  0  0  0  0  0
    0.6320    9.6220   22.7450 C   0  0  0  0  0  0  0  0  0  0  0  0
   -0.1410   10.5690   22.0670 C   0  0  0  0  0  0  0  0  0  0  0  0
   -0.2660   10.5170   20.6730 C   0  0  0  0  0  0  0  0  0  0  0  0
    0.4130    9.5020   19.9750 C   0  0  0  0  0  0  0  0  0  0  0  0
    1.8970    7.8970   22.6020 H   0  0  0  0  0  0  0  0  0  0  0  0
    0.7210    9.6640   23.8280 H   0  0  0  0  0  0  0  0  0  0  0  0
   -0.6470   11.3390   22.6440 H   0  0  0  0  0  0  0  0  0  0  0  0
    0.3110    9.4440   18.8900 H   0  0  0  0  0  0  0  0  0  0  0  0
    2.3880    7.7080   18.6260 C   0  0  0  0  0  0  0  0  0  0  0  0
    2.5230    8.7400   17.9730 O   0  0  0  0  0  0  0  0  0  0  0  0
    1.8050    7.5510   19.8740 N   0  0  0  0  0  0  0  0  0  0  0  0
    1.9440    6.6420   20.3120 H   0  0  0  0  0  0  0  0  0  0  0  0
    2.9310    4.1530   17.7430 C   0  0  0  0  0  0  0  0  0  0  0  0
    2.3270    5.2490   18.3110 C   0  0  0  0  0  0  0  0  0  0  0  0
    2.9910    6.4440   18.1170 C   0  0  0  0  0  0  0  0  0  0  0  0
    4.1410    6.5900   17.4140 N   0  0  0  0  0  0  0  0  0  0  0  0
    4.6790    5.4680   16.9130 C   0  0  0  0  0  0  0  0  0  0  0  0
    4.0770    4.2540   17.0300 N   0  0  0  0  0  0  0  0  0  0  0  0
    1.3950    5.1890   18.8630 H   0  0  0  0  0  0  0  0  0  0  0  0
    6.0170    5.6040   16.2110 C   0  0  0  0  0  0  0  0  0  0  0  0
    6.2000    5.1220   14.7860 C   0  0  0  0  0  0  0  0  0  0  0  0
    6.8880    4.4010   15.9170 C   0  0  0  0  0  0  0  0  0  0  0  0
    6.5530    6.5160   16.4630 H   0  0  0  0  0  0  0  0  0  0  0  0
    6.7990    5.7330   14.1200 H   0  0  0  0  0  0  0  0  0  0  0  0
    5.3790    4.6100   14.2880 H   0  0  0  0  0  0  0  0  0  0  0  0
    7.9610    4.5160   16.0510 H   0  0  0  0  0  0  0  0  0  0  0  0
    6.5160    3.4160   16.1910 H   0  0  0  0  0  0  0  0  0  0  0  0
    2.3110    2.7980   17.8610 C   0  0  0  0  0  0  0  0  0  0  0  0
    1.3120    2.7840   17.4130 H   0  0  0  0  0  0  0  0  0  0  0  0
    2.2130    2.4970   18.9150 H   0  0  0  0  0  0  0  0  0  0  0  0
    2.9460    2.0690   17.3440 H   0  0  0  0  0  0  0  0  0  0  0  0
   -1.1570   11.4800   19.9010 C   0  0  2  0  0  0  0  0  0  0  0  0
   -2.0980   10.9600   19.6720 H   0  0  0  0  0  0  0  0  0  0  0  0
   -0.5340   11.8690   18.5540 C   0  0  0  0  0  0  0  0  0  0  0  0
   -1.2590   11.7570   17.7410 H   0  0  0  0  0  0  0  0  0  0  0  0
    0.3260   11.2340   18.3250 H   0  0  0  0  0  0  0  0  0  0  0  0
   -0.1850   12.9080   18.5470 H   0  0  0  0  0  0  0  0  0  0  0  0
   -1.4660   12.7140   20.7810 C   0  0  0  0  0  0  0  0  0  0  0  0
   -1.1660   13.6290   20.2530 H   0  0  0  0  0  0  0  0  0  0  0  0
   -0.8640   12.6770   21.7000 H   0  0  0  0  0  0  0  0  0  0  0  0
   -2.9000   12.7910   21.2020 C   0  0  0  0  0  0  0  0  0  0  0  0
   -3.9230   12.9200   20.3730 N   0  0  0  0  0  0  0  0  0  0  0  0
   -5.1460   12.9340   21.0360 N   0  0  0  0  0  0  0  0  0  0  0  0
   -4.9940   12.8150   22.3400 C   0  0  0  0  0  0  0  0  0  0  0  0
   -3.3770   12.6410   22.7990 S   0  0  2  0  0  0  0  0  0  0  0  0
   -3.1430   14.4140   23.6370 Cl  0  0  0  0  0  0  0  0  0  0  0  0
   -5.8330   12.7860   23.0290 H   0  0  0  0  0  0  0  0  0  0  0  0
   -3.4210   11.4560   23.4580 H   0  0  0  0  0  0  0  0  0  0  0  0
  1  2  1  0  0  0  0
  2  7  1  0  0  0  0
  2  3  2  0  0  0  0
  3  8  1  0  0  0  0
  4  9  1  0  0  0  0
  4  3  1  0  0  0  0
  5  4  2  0  0  0  0
  6  1  2  0  0  0  0
  6  5  1  0  0  0  0
 10  6  1  0  0  0  0
 11 13  1  0  0  0  0
 12 11  2  0  0  0  0
 13 14  1  0  0  0  0
 13  1  1  0  0  0  0
 15 30  1  0  0  0  0
 15 16  1  0  0  0  0
 16 21  1  0  0  0  0
 17 16  2  0  0  0  0
 17 11  1  0  0  0  0
 18 17  1  0  0  0  0
 19 20  1  0  0  0  0
 19 18  2  0  0  0  0
 20 15  2  0  0  0  0
 22 25  1  0  0  0  0
 22 19  1  0  0  0  0
 23 24  1  0  0  0  0
 23 22  1  0  0  0  0
 24 28  1  0  0  0  0
 24 29  1  0  0  0  0
 24 22  1  0  0  0  0
 26 23  1  0  0  0  0
 27 23  1  0  0  0  0
 30 32  1  0  0  0  0
 31 30  1  0  0  0  0
 33 30  1  0  0  0  0
 34 35  1  6  0  0  0
 34  5  1  0  0  0  0
 34 40  1  0  0  0  0
 36 34  1  0  0  0  0
 37 36  1  0  0  0  0
 38 36  1  0  0  0  0
 39 36  1  0  0  0  0
 40 43  1  0  0  0  0
 40 42  1  0  0  0  0
 41 40  1  0  0  0  0
 43 47  1  0  0  0  0
 44 45  1  0  0  0  0
 44 43  2  0  0  0  0
 45 46  2  0  0  0  0
 46 47  1  0  0  0  0
 46 49  1  0  0  0  0
 47 50  1  1  0  0  0
 47 48  1  0  0  0  0
M  END
>  <MODEL>
19

>  <REMARK>
 VINA RESULT:    -6.833      2.889      3.110
 INTER + INTRA:         -10.409
 INTER:                 -10.060
 INTRA:                  -0.349
 UNBOUND:                -0.779
  Name = 
  8 active torsions:
  status: ('A' for Active; 'I' for Inactive)
    1  A    between atoms: C_1  and  C_2
    2  A    between atoms: C_4  and  C_11
    3  A    between atoms: C_6  and  C_8
    4  A    between atoms: N_13  and  C_14
    5  A    between atoms: C_18  and  C_20
    6  A    between atoms: C_20  and  C_21
    7  A    between atoms: C_20  and  C_22
    8  A    between atoms: C_22  and  C_23
                            x       y       z     vdW  Elec       q    Type
                         _______ _______ _______ _____ _____    ______ ____

>  <TORSDO>
F 8

$$$$
=
 OpenBabel07192307433D

 50 53  0  0  1  0  0  0  0  0999 V2000
   -0.2410    9.9660   18.9450 C   0  0  0  0  0  0  0  0  0  0  0  0
   -1.1390   10.4050   17.9700 C   0  0  0  0  0  0  0  0  0  0  0  0
   -2.0570   11.4130   18.2720 C   0  0  0  0  0  0  0  0  0  0  0  0
   -2.0790   11.9970   19.5430 C   0  0  0  0  0  0  0  0  0  0  0  0
   -1.1850   11.5730   20.5330 C   0  0  0  0  0  0  0  0  0  0  0  0
   -0.2780   10.5430   20.2260 C   0  0  0  0  0  0  0  0  0  0  0  0
   -1.1620    9.9570   16.9770 H   0  0  0  0  0  0  0  0  0  0  0  0
   -2.7500   11.7490   17.5050 H   0  0  0  0  0  0  0  0  0  0  0  0
   -2.7980   12.7880   19.7410 H   0  0  0  0  0  0  0  0  0  0  0  0
    0.4330   10.2160   20.9870 H   0  0  0  0  0  0  0  0  0  0  0  0
    1.9640    9.0900   18.1430 C   0  0  0  0  0  0  0  0  0  0  0  0
    2.5160   10.1160   17.7540 O   0  0  0  0  0  0  0  0  0  0  0  0
    0.7110    8.9560   18.7250 N   0  0  0  0  0  0  0  0  0  0  0  0
    0.5110    8.0420   19.1270 H   0  0  0  0  0  0  0  0  0  0  0  0
    4.4400    6.4620   17.3230 C   0  0  0  0  0  0  0  0  0  0  0  0
    3.7680    7.6560   17.2270 C   0  0  0  0  0  0  0  0  0  0  0  0
    2.7160    7.8040   18.1090 C   0  0  0  0  0  0  0  0  0  0  0  0
    2.3400    6.8860   19.0330 N   0  0  0  0  0  0  0  0  0  0  0  0
    3.0320    5.7370   19.0440 C   0  0  0  0  0  0  0  0  0  0  0  0
    4.1010    5.5190   18.2340 N   0  0  0  0  0  0  0  0  0  0  0  0
    4.0430    8.4340   16.5210 H   0  0  0  0  0  0  0  0  0  0  0  0
    2.5580    4.6620   20.0050 C   0  0  0  0  0  0  0  0  0  0  0  0
    1.5310    3.6340   19.5780 C   0  0  0  0  0  0  0  0  0  0  0  0
    1.1660    4.6820   20.5980 C   0  0  0  0  0  0  0  0  0  0  0  0
    3.3390    4.2890   20.6640 H   0  0  0  0  0  0  0  0  0  0  0  0
    1.6700    2.6120   19.9110 H   0  0  0  0  0  0  0  0  0  0  0  0
    1.0780    3.7130   18.5910 H   0  0  0  0  0  0  0  0  0  0  0  0
    1.0630    4.3980   21.6440 H   0  0  0  0  0  0  0  0  0  0  0  0
    0.4850    5.4740   20.2920 H   0  0  0  0  0  0  0  0  0  0  0  0
    5.6110    6.1760   16.4390 C   0  0  0  0  0  0  0  0  0  0  0  0
    5.3940    6.4510   15.4010 H   0  0  0  0  0  0  0  0  0  0  0  0
    5.8710    5.1080   16.4580 H   0  0  0  0  0  0  0  0  0  0  0  0
    6.4730    6.7550   16.7910 H   0  0  0  0  0  0  0  0  0  0  0  0
   -1.1220   12.2320   21.9060 C   0  0  2  0  0  0  0  0  0  0  0  0
   -0.0980   12.6020   22.0560 H   0  0  0  0  0  0  0  0  0  0  0  0
   -1.3900   11.2220   23.0290 C   0  0  0  0  0  0  0  0  0  0  0  0
   -1.0800   10.2150   22.7320 H   0  0  0  0  0  0  0  0  0  0  0  0
   -2.4560   11.1850   23.2730 H   0  0  0  0  0  0  0  0  0  0  0  0
   -0.8520   11.4780   23.9490 H   0  0  0  0  0  0  0  0  0  0  0  0
   -2.1000   13.4280   21.9480 C   0  0  0  0  0  0  0  0  0  0  0  0
   -3.0850   13.1140   21.5760 H   0  0  0  0  0  0  0  0  0  0  0  0
   -1.7530   14.2190   21.2690 H   0  0  0  0  0  0  0  0  0  0  0  0
   -2.2200   14.0410   23.3080 C   0  0  0  0  0  0  0  0  0  0  0  0
   -1.2030   14.5030   24.0190 N   0  0  0  0  0  0  0  0  0  0  0  0
   -1.6070   15.0470   25.2340 N   0  0  0  0  0  0  0  0  0  0  0  0
   -2.9140   14.9730   25.3900 C   0  0  0  0  0  0  0  0  0  0  0  0
   -3.6950   14.2840   24.0590 S   0  0  2  0  0  0  0  0  0  0  0  0
   -4.2010   12.5700   24.9010 Cl  0  0  0  0  0  0  0  0  0  0  0  0
   -3.4240   15.3610   26.2660 H   0  0  0  0  0  0  0  0  0  0  0  0
   -4.5530   15.2790   23.7190 H   0  0  0  0  0  0  0  0  0  0  0  0
  1  6  1  0  0  0  0
  2  3  1  0  0  0  0
  2  1  2  0  0  0  0
  3  4  2  0  0  0  0
  4  9  1  0  0  0  0
  4  5  1  0  0  0  0
  5 34  1  0  0  0  0
  6  5  2  0  0  0  0
  6 10  1  0  0  0  0
  7  2  1  0  0  0  0
  8  3  1  0  0  0  0
 11 13  1  0  0  0  0
 12 11  2  0  0  0  0
 13  1  1  0  0  0  0
 13 14  1  0  0  0  0
 15 20  2  0  0  0  0
 16 15  1  0  0  0  0
 16 17  2  0  0  0  0
 17 11  1  0  0  0  0
 17 18  1  0  0  0  0
 18 19  2  0  0  0  0
 19 22  1  0  0  0  0
 20 19  1  0  0  0  0
 21 16  1  0  0  0  0
 22 24  1  0  0  0  0
 22 25  1  0  0  0  0
 23 26  1  0  0  0  0
 23 22  1  0  0  0  0
 23 24  1  0  0  0  0
 24 28  1  0  0  0  0
 27 23  1  0  0  0  0
 29 24  1  0  0  0  0
 30 32  1  0  0  0  0
 30 33  1  0  0  0  0
 30 15  1  0  0  0  0
 31 30  1  0  0  0  0
 34 40  1  0  0  0  0
 34 35  1  1  0  0  0
 34 36  1  0  0  0  0
 36 38  1  0  0  0  0
 36 39  1  0  0  0  0
 37 36  1  0  0  0  0
 40 43  1  0  0  0  0
 41 40  1  0  0  0  0
 42 40  1  0  0  0  0
 43 44  2  0  0  0  0
 43 47  1  0  0  0  0
 44 45  1  0  0  0  0
 45 46  2  0  0  0  0
 46 49  1  0  0  0  0
 47 50  1  6  0  0  0
 47 48  1  0  0  0  0
 47 46  1  0  0  0  0
M  END
>  <MODEL>
20

>  <REMARK>
 VINA RESULT:    -6.818      3.917      5.269
 INTER + INTRA:         -10.387
 INTER:                  -9.596
 INTRA:                  -0.791
 UNBOUND:                -0.779
  Name = 
  8 active torsions:
  status: ('A' for Active; 'I' for Inactive)
    1  A    between atoms: C_1  and  C_2
    2  A    between atoms: C_4  and  C_11
    3  A    between atoms: C_6  and  C_8
    4  A    between atoms: N_13  and  C_14
    5  A    between atoms: C_18  and  C_20
    6  A    between atoms: C_20  and  C_21
    7  A    between atoms: C_20  and  C_22
    8  A    between atoms: C_22  and  C_23
                            x       y       z     vdW  Elec       q    Type
                         _______ _______ _______ _____ _____    ______ ____

>  <TORSDO>
F 8

$$$$
=
 OpenBabel07192307433D

 50 53  0  0  1  0  0  0  0  0999 V2000
    1.1860    8.5790   20.6280 C   0  0  0  0  0  0  0  0  0  0  0  0
    1.2250    8.6480   22.0230 C   0  0  0  0  0  0  0  0  0  0  0  0
    0.4730    9.6150   22.6930 C   0  0  0  0  0  0  0  0  0  0  0  0
   -0.3280   10.5130   21.9800 C   0  0  0  0  0  0  0  0  0  0  0  0
   -0.3830   10.4590   20.5820 C   0  0  0  0  0  0  0  0  0  0  0  0
    0.3930    9.4940   19.9150 C   0  0  0  0  0  0  0  0  0  0  0  0
    1.8540    7.9770   22.6070 H   0  0  0  0  0  0  0  0  0  0  0  0
    0.5080    9.6580   23.7780 H   0  0  0  0  0  0  0  0  0  0  0  0
   -0.9090   11.2460   22.5340 H   0  0  0  0  0  0  0  0  0  0  0  0
    0.3460    9.4340   18.8260 H   0  0  0  0  0  0  0  0  0  0  0  0
    2.3660    7.7700   18.5730 C   0  0  0  0  0  0  0  0  0  0  0  0
    2.2730    8.7440   17.8300 O   0  0  0  0  0  0  0  0  0  0  0  0
    1.9130    7.6390   19.8770 N   0  0  0  0  0  0  0  0  0  0  0  0
    2.2370    6.8100   20.3730 H   0  0  0  0  0  0  0  0  0  0  0  0
    3.2810    4.3400   17.5190 C   0  0  0  0  0  0  0  0  0  0  0  0
    2.5020    5.3570   18.0170 C   0  0  0  0  0  0  0  0  0  0  0  0
    3.1370    6.5800   18.1160 C   0  0  0  0  0  0  0  0  0  0  0  0
    4.4180    6.8230   17.7480 N   0  0  0  0  0  0  0  0  0  0  0  0
    5.1170    5.7710   17.2940 C   0  0  0  0  0  0  0  0  0  0  0  0
    4.5630    4.5400   17.1360 N   0  0  0  0  0  0  0  0  0  0  0  0
    1.4640    5.2200   18.3050 H   0  0  0  0  0  0  0  0  0  0  0  0
    6.5810    6.0090   16.9730 C   0  0  0  0  0  0  0  0  0  0  0  0
    7.6320    5.9770   18.0640 C   0  0  0  0  0  0  0  0  0  0  0  0
    7.2910    7.2800   17.3880 C   0  0  0  0  0  0  0  0  0  0  0  0
    6.8920    5.5910   16.0190 H   0  0  0  0  0  0  0  0  0  0  0  0
    8.5820    5.5070   17.8360 H   0  0  0  0  0  0  0  0  0  0  0  0
    7.3200    5.8510   19.0990 H   0  0  0  0  0  0  0  0  0  0  0  0
    7.9920    7.7140   16.6780 H   0  0  0  0  0  0  0  0  0  0  0  0
    6.7340    8.0190   17.9600 H   0  0  0  0  0  0  0  0  0  0  0  0
    2.7150    2.9670   17.3450 C   0  0  0  0  0  0  0  0  0  0  0  0
    1.7800    2.8550   17.9040 H   0  0  0  0  0  0  0  0  0  0  0  0
    3.4180    2.2010   17.7030 H   0  0  0  0  0  0  0  0  0  0  0  0
    2.5190    2.7960   16.2800 H   0  0  0  0  0  0  0  0  0  0  0  0
   -1.2990   11.3650   19.7690 C   0  0  2  0  0  0  0  0  0  0  0  0
   -2.2540   11.4480   20.3060 H   0  0  0  0  0  0  0  0  0  0  0  0
   -1.6190   10.7590   18.3970 C   0  0  0  0  0  0  0  0  0  0  0  0
   -2.4420   10.0420   18.4690 H   0  0  0  0  0  0  0  0  0  0  0  0
   -0.7510   10.2330   17.9910 H   0  0  0  0  0  0  0  0  0  0  0  0
   -1.9090   11.5250   17.6670 H   0  0  0  0  0  0  0  0  0  0  0  0
   -0.6620   12.7700   19.6550 C   0  0  0  0  0  0  0  0  0  0  0  0
   -0.9810   13.2460   18.7180 H   0  0  0  0  0  0  0  0  0  0  0  0
    0.4320   12.6810   19.5980 H   0  0  0  0  0  0  0  0  0  0  0  0
   -0.9680   13.6500   20.8260 C   0  0  0  0  0  0  0  0  0  0  0  0
   -0.0580   14.1880   21.6220 N   0  0  0  0  0  0  0  0  0  0  0  0
   -0.6230   14.9870   22.6120 N   0  0  0  0  0  0  0  0  0  0  0  0
   -1.9370   15.0190   22.5200 C   0  0  0  0  0  0  0  0  0  0  0  0
   -2.5260   14.1200   21.2160 S   0  0  2  0  0  0  0  0  0  0  0  0
   -3.3320   12.6430   22.2480 Cl  0  0  0  0  0  0  0  0  0  0  0  0
   -2.5590   15.6040   23.1920 H   0  0  0  0  0  0  0  0  0  0  0  0
   -3.2120   15.0730   20.5340 H   0  0  0  0  0  0  0  0  0  0  0  0
  1  2  1  0  0  0  0
  2  7  1  0  0  0  0
  2  3  2  0  0  0  0
  3  8  1  0  0  0  0
  4  9  1  0  0  0  0
  4  3  1  0  0  0  0
  5  4  2  0  0  0  0
  6  5  1  0  0  0  0
  6  1  2  0  0  0  0
 10  6  1  0  0  0  0
 11 13  1  0  0  0  0
 12 11  2  0  0  0  0
 13 14  1  0  0  0  0
 13  1  1  0  0  0  0
 15 16  1  0  0  0  0
 16 17  2  0  0  0  0
 16 21  1  0  0  0  0
 17 11  1  0  0  0  0
 18 17  1  0  0  0  0
 19 18  2  0  0  0  0
 20 19  1  0  0  0  0
 20 15  2  0  0  0  0
 22 19  1  0  0  0  0
 22 24  1  0  0  0  0
 22 23  1  0  0  0  0
 23 27  1  0  0  0  0
 24 29  1  0  0  0  0
 24 23  1  0  0  0  0
 25 22  1  0  0  0  0
 26 23  1  0  0  0  0
 28 24  1  0  0  0  0
 30 15  1  0  0  0  0
 30 32  1  0  0  0  0
 30 31  1  0  0  0  0
 33 30  1  0  0  0  0
 34 35  1  1  0  0  0
 34  5  1  0  0  0  0
 36 37  1  0  0  0  0
 36 34  1  0  0  0  0
 38 36  1  0  0  0  0
 39 36  1  0  0  0  0
 40 34  1  0  0  0  0
 40 43  1  0  0  0  0
 41 40  1  0  0  0  0
 42 40  1  0  0  0  0
 43 47  1  0  0  0  0
 43 44  2  0  0  0  0
 44 45  1  0  0  0  0
 46 45  2  0  0  0  0
 46 49  1  0  0  0  0
 47 50  1  6  0  0  0
 47 48  1  0  0  0  0
 47 46  1  0  0  0  0
M  END
>  <MODEL>
21

>  <REMARK>
 VINA RESULT:    -6.806      2.887      3.340
 INTER + INTRA:         -10.370
 INTER:                  -9.992
 INTRA:                  -0.379
 UNBOUND:                -0.779
  Name = 
  8 active torsions:
  status: ('A' for Active; 'I' for Inactive)
    1  A    between atoms: C_1  and  C_2
    2  A    between atoms: C_4  and  C_11
    3  A    between atoms: C_6  and  C_8
    4  A    between atoms: N_13  and  C_14
    5  A    between atoms: C_18  and  C_20
    6  A    between atoms: C_20  and  C_21
    7  A    between atoms: C_20  and  C_22
    8  A    between atoms: C_22  and  C_23
                            x       y       z     vdW  Elec       q    Type
                         _______ _______ _______ _____ _____    ______ ____

>  <TORSDO>
F 8

$$$$
=
 OpenBabel07192307433D

 50 53  0  0  1  0  0  0  0  0999 V2000
    0.3160    9.9980   18.2380 C   0  0  0  0  0  0  0  0  0  0  0  0
   -0.9760    9.9930   17.7060 C   0  0  0  0  0  0  0  0  0  0  0  0
   -1.7710   11.1370   17.7990 C   0  0  0  0  0  0  0  0  0  0  0  0
   -1.2830   12.2940   18.4140 C   0  0  0  0  0  0  0  0  0  0  0  0
    0.0100   12.3200   18.9520 C   0  0  0  0  0  0  0  0  0  0  0  0
    0.7960   11.1570   18.8710 C   0  0  0  0  0  0  0  0  0  0  0  0
   -1.3940    9.1020   17.2380 H   0  0  0  0  0  0  0  0  0  0  0  0
   -2.7740   11.1230   17.3790 H   0  0  0  0  0  0  0  0  0  0  0  0
   -1.9240   13.1700   18.4590 H   0  0  0  0  0  0  0  0  0  0  0  0
    1.8100   11.1720   19.2740 H   0  0  0  0  0  0  0  0  0  0  0  0
    1.7300    8.2010   19.2600 C   0  0  0  0  0  0  0  0  0  0  0  0
    1.5370    8.3810   20.4590 O   0  0  0  0  0  0  0  0  0  0  0  0
    1.1790    8.8900   18.1890 N   0  0  0  0  0  0  0  0  0  0  0  0
    1.3400    8.4750   17.2720 H   0  0  0  0  0  0  0  0  0  0  0  0
    4.2110    6.1100   17.4750 C   0  0  0  0  0  0  0  0  0  0  0  0
    3.4270    7.2050   17.7510 C   0  0  0  0  0  0  0  0  0  0  0  0
    2.5720    7.0520   18.8240 C   0  0  0  0  0  0  0  0  0  0  0  0
    2.4820    5.9400   19.5950 N   0  0  0  0  0  0  0  0  0  0  0  0
    3.2640    4.9080   19.2440 C   0  0  0  0  0  0  0  0  0  0  0  0
    4.1560    4.9820   18.2210 N   0  0  0  0  0  0  0  0  0  0  0  0
    3.4780    8.1260   17.1800 H   0  0  0  0  0  0  0  0  0  0  0  0
    3.1000    3.6240   20.0360 C   0  0  0  0  0  0  0  0  0  0  0  0
    2.0640    2.5930   19.6410 C   0  0  0  0  0  0  0  0  0  0  0  0
    1.8920    3.3800   20.9150 C   0  0  0  0  0  0  0  0  0  0  0  0
    4.0380    3.2190   20.4100 H   0  0  0  0  0  0  0  0  0  0  0  0
    2.3400    1.5470   19.7110 H   0  0  0  0  0  0  0  0  0  0  0  0
    1.3830    2.8100   18.8210 H   0  0  0  0  0  0  0  0  0  0  0  0
    2.0620    2.8920   21.8730 H   0  0  0  0  0  0  0  0  0  0  0  0
    1.1120    4.1380   20.9430 H   0  0  0  0  0  0  0  0  0  0  0  0
    5.1940    6.1450   16.3490 C   0  0  0  0  0  0  0  0  0  0  0  0
    5.1200    7.0860   15.7940 H   0  0  0  0  0  0  0  0  0  0  0  0
    5.0160    5.3210   15.6420 H   0  0  0  0  0  0  0  0  0  0  0  0
    6.2060    6.0470   16.7570 H   0  0  0  0  0  0  0  0  0  0  0  0
    0.6100   13.5800   19.5620 C   0  0  2  0  0  0  0  0  0  0  0  0
   -0.1530   14.3710   19.5240 H   0  0  0  0  0  0  0  0  0  0  0  0
    1.8060   14.0870   18.7470 C   0  0  0  0  0  0  0  0  0  0  0  0
    1.4990   14.3700   17.7360 H   0  0  0  0  0  0  0  0  0  0  0  0
    2.5740   13.3130   18.6590 H   0  0  0  0  0  0  0  0  0  0  0  0
    2.2760   14.9640   19.2090 H   0  0  0  0  0  0  0  0  0  0  0  0
    0.9800   13.3100   21.0390 C   0  0  0  0  0  0  0  0  0  0  0  0
    1.4790   14.1920   21.4630 H   0  0  0  0  0  0  0  0  0  0  0  0
    1.7070   12.4880   21.0970 H   0  0  0  0  0  0  0  0  0  0  0  0
   -0.1950   12.9130   21.8760 C   0  0  0  0  0  0  0  0  0  0  0  0
   -0.4580   11.6770   22.2680 N   0  0  0  0  0  0  0  0  0  0  0  0
   -1.5980   11.6020   23.0620 N   0  0  0  0  0  0  0  0  0  0  0  0
   -2.1490   12.7870   23.2360 C   0  0  0  0  0  0  0  0  0  0  0  0
   -1.2850   14.0290   22.4820 S   0  0  2  0  0  0  0  0  0  0  0  0
   -2.5760   14.4160   21.0380 Cl  0  0  0  0  0  0  0  0  0  0  0  0
   -3.0370   12.9390   23.8420 H   0  0  0  0  0  0  0  0  0  0  0  0
   -1.0180   14.8370   23.5390 H   0  0  0  0  0  0  0  0  0  0  0  0
  1  6  1  0  0  0  0
  2  3  1  0  0  0  0
  2  1  2  0  0  0  0
  3  4  2  0  0  0  0
  4  9  1  0  0  0  0
  4  5  1  0  0  0  0
  5 34  1  0  0  0  0
  6  5  2  0  0  0  0
  6 10  1  0  0  0  0
  7  2  1  0  0  0  0
  8  3  1  0  0  0  0
 11 12  2  0  0  0  0
 13  1  1  0  0  0  0
 13 11  1  0  0  0  0
 14 13  1  0  0  0  0
 15 16  1  0  0  0  0
 15 20  2  0  0  0  0
 16 17  2  0  0  0  0
 17 11  1  0  0  0  0
 17 18  1  0  0  0  0
 19 18  2  0  0  0  0
 19 22  1  0  0  0  0
 20 19  1  0  0  0  0
 21 16  1  0  0  0  0
 22 25  1  0  0  0  0
 22 24  1  0  0  0  0
 23 26  1  0  0  0  0
 23 22  1  0  0  0  0
 23 24  1  0  0  0  0
 24 29  1  0  0  0  0
 24 28  1  0  0  0  0
 27 23  1  0  0  0  0
 30 33  1  0  0  0  0
 30 15  1  0  0  0  0
 31 30  1  0  0  0  0
 32 30  1  0  0  0  0
 34 35  1  6  0  0  0
 34 40  1  0  0  0  0
 36 39  1  0  0  0  0
 36 34  1  0  0  0  0
 37 36  1  0  0  0  0
 38 36  1  0  0  0  0
 40 42  1  0  0  0  0
 40 41  1  0  0  0  0
 40 43  1  0  0  0  0
 43 44  2  0  0  0  0
 43 47  1  0  0  0  0
 44 45  1  0  0  0  0
 45 46  2  0  0  0  0
 46 49  1  0  0  0  0
 47 46  1  0  0  0  0
 47 50  1  1  0  0  0
 48 47  1  0  0  0  0
M  END
>  <MODEL>
22

>  <REMARK>
 VINA RESULT:    -6.779      3.039      4.364
 INTER + INTRA:         -10.332
 INTER:                  -9.424
 INTRA:                  -0.908
 UNBOUND:                -0.779
  Name = 
  8 active torsions:
  status: ('A' for Active; 'I' for Inactive)
    1  A    between atoms: C_1  and  C_2
    2  A    between atoms: C_4  and  C_11
    3  A    between atoms: C_6  and  C_8
    4  A    between atoms: N_13  and  C_14
    5  A    between atoms: C_18  and  C_20
    6  A    between atoms: C_20  and  C_21
    7  A    between atoms: C_20  and  C_22
    8  A    between atoms: C_22  and  C_23
                            x       y       z     vdW  Elec       q    Type
                         _______ _______ _______ _____ _____    ______ ____

>  <TORSDO>
F 8

$$$$
=
 OpenBabel07192307433D

 50 53  0  0  1  0  0  0  0  0999 V2000
    3.3170    5.4690   19.8680 C   0  0  0  0  0  0  0  0  0  0  0  0
    2.9110    4.1450   20.0530 C   0  0  0  0  0  0  0  0  0  0  0  0
    3.7740    3.1000   19.7180 C   0  0  0  0  0  0  0  0  0  0  0  0
    5.0480    3.3650   19.2070 C   0  0  0  0  0  0  0  0  0  0  0  0
    5.4750    4.6850   19.0170 C   0  0  0  0  0  0  0  0  0  0  0  0
    4.5920    5.7310   19.3380 C   0  0  0  0  0  0  0  0  0  0  0  0
    1.9180    3.9030   20.4300 H   0  0  0  0  0  0  0  0  0  0  0  0
    3.4490    2.0730   19.8690 H   0  0  0  0  0  0  0  0  0  0  0  0
    5.6990    2.5280   18.9680 H   0  0  0  0  0  0  0  0  0  0  0  0
    4.9200    6.7640   19.2070 H   0  0  0  0  0  0  0  0  0  0  0  0
    2.1740    7.6340   19.3430 C   0  0  0  0  0  0  0  0  0  0  0  0
    2.4630    7.7910   18.1590 O   0  0  0  0  0  0  0  0  0  0  0  0
    2.5100    6.5780   20.1770 N   0  0  0  0  0  0  0  0  0  0  0  0
    2.0310    6.5590   21.0760 H   0  0  0  0  0  0  0  0  0  0  0  0
    0.2590    9.5230   21.8880 C   0  0  0  0  0  0  0  0  0  0  0  0
    1.0550    8.5320   21.3660 C   0  0  0  0  0  0  0  0  0  0  0  0
    1.2650    8.6130   20.0030 C   0  0  0  0  0  0  0  0  0  0  0  0
    0.7690    9.5820   19.1950 N   0  0  0  0  0  0  0  0  0  0  0  0
   -0.0190   10.4980   19.7800 C   0  0  0  0  0  0  0  0  0  0  0  0
   -0.2540   10.5110   21.1190 N   0  0  0  0  0  0  0  0  0  0  0  0
    1.4960    7.7480   21.9720 H   0  0  0  0  0  0  0  0  0  0  0  0
   -0.6610   11.5290   18.8710 C   0  0  0  0  0  0  0  0  0  0  0  0
   -2.1240   11.8940   19.0200 C   0  0  0  0  0  0  0  0  0  0  0  0
   -1.6590   11.1370   17.8020 C   0  0  0  0  0  0  0  0  0  0  0  0
   -0.0020   12.3550   18.6120 H   0  0  0  0  0  0  0  0  0  0  0  0
   -2.3970   12.9370   18.9080 H   0  0  0  0  0  0  0  0  0  0  0  0
   -2.7350   11.3580   19.7430 H   0  0  0  0  0  0  0  0  0  0  0  0
   -1.5940   11.6500   16.8450 H   0  0  0  0  0  0  0  0  0  0  0  0
   -1.9400   10.0890   17.7180 H   0  0  0  0  0  0  0  0  0  0  0  0
   -0.0380    9.5650   23.3530 C   0  0  0  0  0  0  0  0  0  0  0  0
    0.8840    9.5070   23.9410 H   0  0  0  0  0  0  0  0  0  0  0  0
   -0.6830    8.7250   23.6510 H   0  0  0  0  0  0  0  0  0  0  0  0
   -0.5540   10.5040   23.5840 H   0  0  0  0  0  0  0  0  0  0  0  0
    6.8800    5.0230   18.5350 C   0  0  2  0  0  0  0  0  0  0  0  0
    7.3620    4.0880   18.2170 H   0  0  0  0  0  0  0  0  0  0  0  0
    7.7420    5.5960   19.6670 C   0  0  0  0  0  0  0  0  0  0  0  0
    7.4700    5.1510   20.6290 H   0  0  0  0  0  0  0  0  0  0  0  0
    7.6090    6.6780   19.7490 H   0  0  0  0  0  0  0  0  0  0  0  0
    8.8110    5.4090   19.5050 H   0  0  0  0  0  0  0  0  0  0  0  0
    6.7930    5.9800   17.3240 C   0  0  0  0  0  0  0  0  0  0  0  0
    7.6630    6.6500   17.3170 H   0  0  0  0  0  0  0  0  0  0  0  0
    5.9080    6.6260   17.4210 H   0  0  0  0  0  0  0  0  0  0  0  0
    6.6670    5.2630   16.0160 C   0  0  0  0  0  0  0  0  0  0  0  0
    7.1380    5.7100   14.8630 N   0  0  0  0  0  0  0  0  0  0  0  0
    6.9060    4.8240   13.8150 N   0  0  0  0  0  0  0  0  0  0  0  0
    6.2690    3.7450   14.2220 C   0  0  0  0  0  0  0  0  0  0  0  0
    5.9680    3.7480   15.8850 S   0  0  2  0  0  0  0  0  0  0  0  0
    4.0140    4.0210   15.8050 Cl  0  0  0  0  0  0  0  0  0  0  0  0
    6.0130    2.9270   13.5550 H   0  0  0  0  0  0  0  0  0  0  0  0
    6.5900    2.6030   16.2630 H   0  0  0  0  0  0  0  0  0  0  0  0
  1  2  1  0  0  0  0
  1 13  1  0  0  0  0
  2  7  1  0  0  0  0
  3  8  1  0  0  0  0
  3  2  2  0  0  0  0
  4  3  1  0  0  0  0
  5  4  2  0  0  0  0
  5  6  1  0  0  0  0
  6  1  2  0  0  0  0
  9  4  1  0  0  0  0
 10  6  1  0  0  0  0
 11 17  1  0  0  0  0
 11 13  1  0  0  0  0
 12 11  2  0  0  0  0
 13 14  1  0  0  0  0
 15 30  1  0  0  0  0
 16 15  1  0  0  0  0
 16 21  1  0  0  0  0
 17 16  2  0  0  0  0
 18 19  2  0  0  0  0
 18 17  1  0  0  0  0
 19 20  1  0  0  0  0
 20 15  2  0  0  0  0
 22 23  1  0  0  0  0
 22 19  1  0  0  0  0
 23 27  1  0  0  0  0
 24 22  1  0  0  0  0
 24 23  1  0  0  0  0
 25 22  1  0  0  0  0
 26 23  1  0  0  0  0
 28 24  1  0  0  0  0
 29 24  1  0  0  0  0
 30 33  1  0  0  0  0
 30 32  1  0  0  0  0
 30 31  1  0  0  0  0
 34 35  1  6  0  0  0
 34  5  1  0  0  0  0
 34 36  1  0  0  0  0
 36 38  1  0  0  0  0
 36 37  1  0  0  0  0
 39 36  1  0  0  0  0
 40 42  1  0  0  0  0
 40 34  1  0  0  0  0
 41 40  1  0  0  0  0
 43 40  1  0  0  0  0
 44 43  2  0  0  0  0
 45 46  2  0  0  0  0
 45 44  1  0  0  0  0
 46 47  1  0  0  0  0
 47 43  1  0  0  0  0
 47 50  1  1  0  0  0
 48 47  1  0  0  0  0
 49 46  1  0  0  0  0
M  END
>  <MODEL>
23

>  <REMARK>
 VINA RESULT:    -6.762      3.390      8.798
 INTER + INTRA:         -10.308
 INTER:                  -9.907
 INTRA:                  -0.401
 UNBOUND:                -0.779
  Name = 
  8 active torsions:
  status: ('A' for Active; 'I' for Inactive)
    1  A    between atoms: C_1  and  C_2
    2  A    between atoms: C_4  and  C_11
    3  A    between atoms: C_6  and  C_8
    4  A    between atoms: N_13  and  C_14
    5  A    between atoms: C_18  and  C_20
    6  A    between atoms: C_20  and  C_21
    7  A    between atoms: C_20  and  C_22
    8  A    between atoms: C_22  and  C_23
                            x       y       z     vdW  Elec       q    Type
                         _______ _______ _______ _____ _____    ______ ____

>  <TORSDO>
F 8

$$$$
=
 OpenBabel07192307433D

 50 53  0  0  1  0  0  0  0  0999 V2000
    1.7960    6.5940   19.8700 C   0  0  0  0  0  0  0  0  0  0  0  0
    1.7160    5.8770   21.0660 C   0  0  0  0  0  0  0  0  0  0  0  0
    2.2080    4.5720   21.1290 C   0  0  0  0  0  0  0  0  0  0  0  0
    2.7890    3.9750   20.0060 C   0  0  0  0  0  0  0  0  0  0  0  0
    2.8810    4.6780   18.7980 C   0  0  0  0  0  0  0  0  0  0  0  0
    2.3650    5.9850   18.7390 C   0  0  0  0  0  0  0  0  0  0  0  0
    1.2510    6.3050   21.9540 H   0  0  0  0  0  0  0  0  0  0  0  0
    2.1430    4.0240   22.0660 H   0  0  0  0  0  0  0  0  0  0  0  0
    3.1720    2.9620   20.0930 H   0  0  0  0  0  0  0  0  0  0  0  0
    2.4450    6.5460   17.8050 H   0  0  0  0  0  0  0  0  0  0  0  0
    1.1350    8.8550   20.7180 C   0  0  0  0  0  0  0  0  0  0  0  0
    1.3880    8.7590   21.9160 O   0  0  0  0  0  0  0  0  0  0  0  0
    1.3240    7.9100   19.7210 N   0  0  0  0  0  0  0  0  0  0  0  0
    1.2050    8.2480   18.7670 H   0  0  0  0  0  0  0  0  0  0  0  0
    0.7640   12.4740   20.0250 C   0  0  0  0  0  0  0  0  0  0  0  0
    1.2260   11.3320   20.6330 C   0  0  0  0  0  0  0  0  0  0  0  0
    0.6550   10.1600   20.1800 C   0  0  0  0  0  0  0  0  0  0  0  0
   -0.2790   10.0770   19.2010 N   0  0  0  0  0  0  0  0  0  0  0  0
   -0.6940   11.2390   18.6750 C   0  0  0  0  0  0  0  0  0  0  0  0
   -0.1640   12.4370   19.0400 N   0  0  0  0  0  0  0  0  0  0  0  0
    1.9890   11.3420   21.4060 H   0  0  0  0  0  0  0  0  0  0  0  0
   -1.8090   11.1670   17.6490 C   0  0  0  0  0  0  0  0  0  0  0  0
   -3.2580   11.3280   18.0620 C   0  0  0  0  0  0  0  0  0  0  0  0
   -2.7570    9.9890   17.5850 C   0  0  0  0  0  0  0  0  0  0  0  0
   -1.5500   11.6080   16.6890 H   0  0  0  0  0  0  0  0  0  0  0  0
   -3.9080   11.9010   17.4100 H   0  0  0  0  0  0  0  0  0  0  0  0
   -3.5020   11.4270   19.1180 H   0  0  0  0  0  0  0  0  0  0  0  0
   -3.0440    9.6300   16.5990 H   0  0  0  0  0  0  0  0  0  0  0  0
   -2.6460    9.1960   18.3230 H   0  0  0  0  0  0  0  0  0  0  0  0
    1.3090   13.8130   20.4080 C   0  0  0  0  0  0  0  0  0  0  0  0
    2.0960   14.1270   19.7160 H   0  0  0  0  0  0  0  0  0  0  0  0
    1.7360   13.7910   21.4210 H   0  0  0  0  0  0  0  0  0  0  0  0
    0.4960   14.5480   20.3840 H   0  0  0  0  0  0  0  0  0  0  0  0
    3.5730    4.0970   17.5710 C   0  0  2  0  0  0  0  0  0  0  0  0
    3.5980    4.8760   16.7970 H   0  0  0  0  0  0  0  0  0  0  0  0
    2.7840    2.9210   16.9820 C   0  0  0  0  0  0  0  0  0  0  0  0
    2.9780    2.0010   17.5420 H   0  0  0  0  0  0  0  0  0  0  0  0
    3.0660    2.7450   15.9410 H   0  0  0  0  0  0  0  0  0  0  0  0
    1.7020    3.1010   17.0020 H   0  0  0  0  0  0  0  0  0  0  0  0
    5.0230    3.7040   17.9370 C   0  0  0  0  0  0  0  0  0  0  0  0
    5.3590    2.8830   17.2900 H   0  0  0  0  0  0  0  0  0  0  0  0
    5.0580    3.3190   18.9660 H   0  0  0  0  0  0  0  0  0  0  0  0
    5.9780    4.8550   17.8700 C   0  0  0  0  0  0  0  0  0  0  0  0
    6.6020    5.3790   18.9130 N   0  0  0  0  0  0  0  0  0  0  0  0
    7.4540    6.4190   18.5550 N   0  0  0  0  0  0  0  0  0  0  0  0
    7.4370    6.6370   17.2550 C   0  0  0  0  0  0  0  0  0  0  0  0
    6.4260    5.5680   16.4240 S   0  0  2  0  0  0  0  0  0  0  0  0
    5.0050    6.8540   15.9510 Cl  0  0  0  0  0  0  0  0  0  0  0  0
    8.0500    7.3960   16.7790 H   0  0  0  0  0  0  0  0  0  0  0  0
    7.3030    5.0060   15.5540 H   0  0  0  0  0  0  0  0  0  0  0  0
  1  2  1  0  0  0  0
  2  3  2  0  0  0  0
  2  7  1  0  0  0  0
  3  8  1  0  0  0  0
  4  9  1  0  0  0  0
  4  3  1  0  0  0  0
  5  4  2  0  0  0  0
  6  5  1  0  0  0  0
  6  1  2  0  0  0  0
 10  6  1  0  0  0  0
 11 12  2  0  0  0  0
 13  1  1  0  0  0  0
 13 11  1  0  0  0  0
 14 13  1  0  0  0  0
 15 30  1  0  0  0  0
 15 16  1  0  0  0  0
 16 21  1  0  0  0  0
 17 16  2  0  0  0  0
 17 11  1  0  0  0  0
 18 17  1  0  0  0  0
 19 20  1  0  0  0  0
 19 18  2  0  0  0  0
 20 15  2  0  0  0  0
 22 23  1  0  0  0  0
 22 19  1  0  0  0  0
 23 27  1  0  0  0  0
 24 22  1  0  0  0  0
 24 23  1  0  0  0  0
 24 29  1  0  0  0  0
 25 22  1  0  0  0  0
 26 23  1  0  0  0  0
 28 24  1  0  0  0  0
 30 32  1  0  0  0  0
 31 30  1  0  0  0  0
 33 30  1  0  0  0  0
 34 35  1  6  0  0  0
 34 40  1  0  0  0  0
 34  5  1  0  0  0  0
 36 39  1  0  0  0  0
 36 37  1  0  0  0  0
 36 34  1  0  0  0  0
 38 36  1  0  0  0  0
 40 42  1  0  0  0  0
 41 40  1  0  0  0  0
 43 40  1  0  0  0  0
 43 44  2  0  0  0  0
 45 44  1  0  0  0  0
 46 45  2  0  0  0  0
 47 50  1  6  0  0  0
 47 46  1  0  0  0  0
 47 43  1  0  0  0  0
 48 47  1  0  0  0  0
 49 46  1  0  0  0  0
M  END
>  <MODEL>
24

>  <REMARK>
 VINA RESULT:    -6.736      3.104      8.790
 INTER + INTRA:         -10.271
 INTER:                  -9.555
 INTRA:                  -0.716
 UNBOUND:                -0.779
  Name = 
  8 active torsions:
  status: ('A' for Active; 'I' for Inactive)
    1  A    between atoms: C_1  and  C_2
    2  A    between atoms: C_4  and  C_11
    3  A    between atoms: C_6  and  C_8
    4  A    between atoms: N_13  and  C_14
    5  A    between atoms: C_18  and  C_20
    6  A    between atoms: C_20  and  C_21
    7  A    between atoms: C_20  and  C_22
    8  A    between atoms: C_22  and  C_23
                            x       y       z     vdW  Elec       q    Type
                         _______ _______ _______ _____ _____    ______ ____

>  <TORSDO>
F 8

$$$$
=
 OpenBabel07192307433D

 50 53  0  0  1  0  0  0  0  0999 V2000
    1.6840   10.9730   18.5320 C   0  0  0  0  0  0  0  0  0  0  0  0
    2.6020   11.9320   18.0970 C   0  0  0  0  0  0  0  0  0  0  0  0
    2.2360   13.2790   18.0630 C   0  0  0  0  0  0  0  0  0  0  0  0
    0.9600   13.6800   18.4690 C   0  0  0  0  0  0  0  0  0  0  0  0
    0.0260   12.7340   18.9110 C   0  0  0  0  0  0  0  0  0  0  0  0
    0.3970   11.3780   18.9230 C   0  0  0  0  0  0  0  0  0  0  0  0
    3.5980   11.6520   17.7550 H   0  0  0  0  0  0  0  0  0  0  0  0
    2.9590   14.0180   17.7260 H   0  0  0  0  0  0  0  0  0  0  0  0
    0.7120   14.7380   18.4410 H   0  0  0  0  0  0  0  0  0  0  0  0
   -0.3180   10.6340   19.2790 H   0  0  0  0  0  0  0  0  0  0  0  0
    1.7480    8.7380   19.6600 C   0  0  0  0  0  0  0  0  0  0  0  0
    1.2100    8.9850   20.7370 O   0  0  0  0  0  0  0  0  0  0  0  0
    1.9710    9.5980   18.5950 N   0  0  0  0  0  0  0  0  0  0  0  0
    2.2800    9.1550   17.7310 H   0  0  0  0  0  0  0  0  0  0  0  0
    3.3870    5.7740   18.1650 C   0  0  0  0  0  0  0  0  0  0  0  0
    3.0310    7.0920   18.3220 C   0  0  0  0  0  0  0  0  0  0  0  0
    2.1440    7.3350   19.3520 C   0  0  0  0  0  0  0  0  0  0  0  0
    1.6450    6.3930   20.1880 N   0  0  0  0  0  0  0  0  0  0  0  0
    2.0230    5.1270   19.9520 C   0  0  0  0  0  0  0  0  0  0  0  0
    2.9160    4.8010   18.9800 N   0  0  0  0  0  0  0  0  0  0  0  0
    3.4200    7.8870   17.6950 H   0  0  0  0  0  0  0  0  0  0  0  0
    1.3940    4.0510   20.8170 C   0  0  0  0  0  0  0  0  0  0  0  0
    2.2540    3.0550   21.5680 C   0  0  0  0  0  0  0  0  0  0  0  0
    1.4070    2.5940   20.4100 C   0  0  0  0  0  0  0  0  0  0  0  0
    0.5010    4.3800   21.3440 H   0  0  0  0  0  0  0  0  0  0  0  0
    1.9510    2.7830   22.5730 H   0  0  0  0  0  0  0  0  0  0  0  0
    3.3330    3.0700   21.4260 H   0  0  0  0  0  0  0  0  0  0  0  0
    0.5060    2.0130   20.6030 H   0  0  0  0  0  0  0  0  0  0  0  0
    1.9130    2.3200   19.4870 H   0  0  0  0  0  0  0  0  0  0  0  0
    4.3540    5.3710   17.0980 C   0  0  0  0  0  0  0  0  0  0  0  0
    5.3130    5.0690   17.5320 H   0  0  0  0  0  0  0  0  0  0  0  0
    4.5430    6.2000   16.4010 H   0  0  0  0  0  0  0  0  0  0  0  0
    3.9330    4.5280   16.5370 H   0  0  0  0  0  0  0  0  0  0  0  0
   -1.3480   13.1320   19.4340 C   0  0  2  0  0  0  0  0  0  0  0  0
   -1.8230   13.7750   18.6800 H   0  0  0  0  0  0  0  0  0  0  0  0
   -1.2430   13.9680   20.7160 C   0  0  0  0  0  0  0  0  0  0  0  0
   -0.5730   13.4920   21.4390 H   0  0  0  0  0  0  0  0  0  0  0  0
   -2.2220   14.0780   21.1910 H   0  0  0  0  0  0  0  0  0  0  0  0
   -0.8590   14.9760   20.5200 H   0  0  0  0  0  0  0  0  0  0  0  0
   -2.2110   11.8640   19.6300 C   0  0  0  0  0  0  0  0  0  0  0  0
   -2.7390   11.9210   20.5910 H   0  0  0  0  0  0  0  0  0  0  0  0
   -1.5640   10.9770   19.6860 H   0  0  0  0  0  0  0  0  0  0  0  0
   -3.1750   11.6310   18.5090 C   0  0  0  0  0  0  0  0  0  0  0  0
   -4.4920   11.6470   18.6320 N   0  0  0  0  0  0  0  0  0  0  0  0
   -5.1420   11.4300   17.4220 N   0  0  0  0  0  0  0  0  0  0  0  0
   -4.2870   11.2580   16.4340 C   0  0  0  0  0  0  0  0  0  0  0  0
   -2.6770   11.3950   16.9290 S   0  0  2  0  0  0  0  0  0  0  0  0
   -2.1800    9.4910   16.7610 Cl  0  0  0  0  0  0  0  0  0  0  0  0
   -4.6000   11.0940   15.4070 H   0  0  0  0  0  0  0  0  0  0  0  0
   -2.2430   12.3980   16.1250 H   0  0  0  0  0  0  0  0  0  0  0  0
  1 13  1  0  0  0  0
  1  6  1  0  0  0  0
  2  1  2  0  0  0  0
  3  2  1  0  0  0  0
  3  4  2  0  0  0  0
  4  5  1  0  0  0  0
  5  6  2  0  0  0  0
  5 34  1  0  0  0  0
  6 10  1  0  0  0  0
  7  2  1  0  0  0  0
  8  3  1  0  0  0  0
  9  4  1  0  0  0  0
 11 12  2  0  0  0  0
 13 11  1  0  0  0  0
 14 13  1  0  0  0  0
 15 16  1  0  0  0  0
 15 20  2  0  0  0  0
 16 17  2  0  0  0  0
 17 11  1  0  0  0  0
 17 18  1  0  0  0  0
 19 18  2  0  0  0  0
 19 22  1  0  0  0  0
 20 19  1  0  0  0  0
 21 16  1  0  0  0  0
 22 25  1  0  0  0  0
 22 23  1  0  0  0  0
 23 26  1  0  0  0  0
 24 28  1  0  0  0  0
 24 22  1  0  0  0  0
 24 23  1  0  0  0  0
 27 23  1  0  0  0  0
 29 24  1  0  0  0  0
 30 31  1  0  0  0  0
 30 15  1  0  0  0  0
 32 30  1  0  0  0  0
 33 30  1  0  0  0  0
 34 35  1  6  0  0  0
 34 40  1  0  0  0  0
 34 36  1  0  0  0  0
 36 38  1  0  0  0  0
 36 37  1  0  0  0  0
 39 36  1  0  0  0  0
 40 42  1  0  0  0  0
 40 41  1  0  0  0  0
 43 44  2  0  0  0  0
 43 40  1  0  0  0  0
 45 44  1  0  0  0  0
 46 47  1  0  0  0  0
 46 45  2  0  0  0  0
 47 50  1  6  0  0  0
 47 43  1  0  0  0  0
 48 47  1  0  0  0  0
 49 46  1  0  0  0  0
M  END
>  <MODEL>
25

>  <REMARK>
 VINA RESULT:    -6.676      1.956      3.523
 INTER + INTRA:         -10.186
 INTER:                  -9.666
 INTRA:                  -0.521
 UNBOUND:                -0.779
  Name = 
  8 active torsions:
  status: ('A' for Active; 'I' for Inactive)
    1  A    between atoms: C_1  and  C_2
    2  A    between atoms: C_4  and  C_11
    3  A    between atoms: C_6  and  C_8
    4  A    between atoms: N_13  and  C_14
    5  A    between atoms: C_18  and  C_20
    6  A    between atoms: C_20  and  C_21
    7  A    between atoms: C_20  and  C_22
    8  A    between atoms: C_22  and  C_23
                            x       y       z     vdW  Elec       q    Type
                         _______ _______ _______ _____ _____    ______ ____

>  <TORSDO>
F 8

$$$$
=
 OpenBabel07192307433D

 50 53  0  0  1  0  0  0  0  0999 V2000
    2.0740    9.7130   18.0570 C   0  0  0  0  0  0  0  0  0  0  0  0
    2.8500   10.8400   17.7750 C   0  0  0  0  0  0  0  0  0  0  0  0
    2.3300   12.1170   17.9990 C   0  0  0  0  0  0  0  0  0  0  0  0
    1.0400   12.2790   18.5130 C   0  0  0  0  0  0  0  0  0  0  0  0
    0.2480   11.1620   18.8050 C   0  0  0  0  0  0  0  0  0  0  0  0
    0.7720    9.8810   18.5570 C   0  0  0  0  0  0  0  0  0  0  0  0
    3.8520   10.7490   17.3550 H   0  0  0  0  0  0  0  0  0  0  0  0
    2.9440   12.9870   17.7790 H   0  0  0  0  0  0  0  0  0  0  0  0
    0.6710   13.2860   18.6870 H   0  0  0  0  0  0  0  0  0  0  0  0
    0.1670    9.0040   18.7950 H   0  0  0  0  0  0  0  0  0  0  0  0
    2.4800    7.3460   18.7650 C   0  0  0  0  0  0  0  0  0  0  0  0
    2.0040    7.3370   19.8970 O   0  0  0  0  0  0  0  0  0  0  0  0
    2.5200    8.3950   17.8590 N   0  0  0  0  0  0  0  0  0  0  0  0
    2.8090    8.1470   16.9140 H   0  0  0  0  0  0  0  0  0  0  0  0
    2.8950    3.7840   17.8410 C   0  0  0  0  0  0  0  0  0  0  0  0
    2.3730    4.8850   18.4750 C   0  0  0  0  0  0  0  0  0  0  0  0
    3.0090    6.0770   18.1900 C   0  0  0  0  0  0  0  0  0  0  0  0
    4.0590    6.2160   17.3430 N   0  0  0  0  0  0  0  0  0  0  0  0
    4.5240    5.0890   16.7830 C   0  0  0  0  0  0  0  0  0  0  0  0
    3.9400    3.8780   16.9840 N   0  0  0  0  0  0  0  0  0  0  0  0
    1.5200    4.8320   19.1440 H   0  0  0  0  0  0  0  0  0  0  0  0
    5.7600    5.2160   15.9120 C   0  0  0  0  0  0  0  0  0  0  0  0
    5.7440    4.7590   14.4680 C   0  0  0  0  0  0  0  0  0  0  0  0
    6.5620    4.0060   15.4860 C   0  0  0  0  0  0  0  0  0  0  0  0
    6.3410    6.1150   16.1060 H   0  0  0  0  0  0  0  0  0  0  0  0
    6.2620    5.3720   13.7390 H   0  0  0  0  0  0  0  0  0  0  0  0
    4.8560    4.2690   14.0750 H   0  0  0  0  0  0  0  0  0  0  0  0
    7.6460    4.1010   15.4790 H   0  0  0  0  0  0  0  0  0  0  0  0
    6.2120    3.0210   15.7910 H   0  0  0  0  0  0  0  0  0  0  0  0
    2.2920    2.4320   18.0470 C   0  0  0  0  0  0  0  0  0  0  0  0
    2.9240    1.6510   17.6110 H   0  0  0  0  0  0  0  0  0  0  0  0
    1.3000    2.3650   17.5780 H   0  0  0  0  0  0  0  0  0  0  0  0
    2.1870    2.2490   19.1230 H   0  0  0  0  0  0  0  0  0  0  0  0
   -1.1330   11.2890   19.4370 C   0  0  2  0  0  0  0  0  0  0  0  0
   -1.5440   12.2690   19.1560 H   0  0  0  0  0  0  0  0  0  0  0  0
   -1.0560   11.2710   20.9690 C   0  0  0  0  0  0  0  0  0  0  0  0
   -2.0160   10.9790   21.4050 H   0  0  0  0  0  0  0  0  0  0  0  0
   -0.7990   12.2600   21.3580 H   0  0  0  0  0  0  0  0  0  0  0  0
   -0.2970   10.5690   21.3340 H   0  0  0  0  0  0  0  0  0  0  0  0
   -2.0560   10.1780   18.8840 C   0  0  0  0  0  0  0  0  0  0  0  0
   -2.4950    9.6130   19.7170 H   0  0  0  0  0  0  0  0  0  0  0  0
   -1.4650    9.4580   18.3000 H   0  0  0  0  0  0  0  0  0  0  0  0
   -3.1250   10.7010   17.9770 C   0  0  0  0  0  0  0  0  0  0  0  0
   -4.3770   10.9310   18.3400 N   0  0  0  0  0  0  0  0  0  0  0  0
   -5.1470   11.4440   17.3020 N   0  0  0  0  0  0  0  0  0  0  0  0
   -4.4430   11.5810   16.1960 C   0  0  0  0  0  0  0  0  0  0  0  0
   -2.8250   11.1330   16.3880 S   0  0  2  0  0  0  0  0  0  0  0  0
   -2.8760    9.4730   15.3210 Cl  0  0  0  0  0  0  0  0  0  0  0  0
   -4.8620   11.9840   15.2790 H   0  0  0  0  0  0  0  0  0  0  0  0
   -2.1950   12.2810   16.0320 H   0  0  0  0  0  0  0  0  0  0  0  0
  1  6  1  0  0  0  0
  2  3  1  0  0  0  0
  2  1  2  0  0  0  0
  3  4  2  0  0  0  0
  4  9  1  0  0  0  0
  4  5  1  0  0  0  0
  5 34  1  0  0  0  0
  6 10  1  0  0  0  0
  6  5  2  0  0  0  0
  7  2  1  0  0  0  0
  8  3  1  0  0  0  0
 11 12  2  0  0  0  0
 13  1  1  0  0  0  0
 13 11  1  0  0  0  0
 14 13  1  0  0  0  0
 15 30  1  0  0  0  0
 15 16  1  0  0  0  0
 16 21  1  0  0  0  0
 17 16  2  0  0  0  0
 17 11  1  0  0  0  0
 18 17  1  0  0  0  0
 19 20  1  0  0  0  0
 19 18  2  0  0  0  0
 20 15  2  0  0  0  0
 22 25  1  0  0  0  0
 22 19  1  0  0  0  0
 23 24  1  0  0  0  0
 23 22  1  0  0  0  0
 24 29  1  0  0  0  0
 24 22  1  0  0  0  0
 26 23  1  0  0  0  0
 27 23  1  0  0  0  0
 28 24  1  0  0  0  0
 30 33  1  0  0  0  0
 31 30  1  0  0  0  0
 32 30  1  0  0  0  0
 34 35  1  6  0  0  0
 34 36  1  0  0  0  0
 36 39  1  0  0  0  0
 36 38  1  0  0  0  0
 36 37  1  0  0  0  0
 40 34  1  0  0  0  0
 40 41  1  0  0  0  0
 42 40  1  0  0  0  0
 43 44  2  0  0  0  0
 43 40  1  0  0  0  0
 45 44  1  0  0  0  0
 46 47  1  0  0  0  0
 46 45  2  0  0  0  0
 47 50  1  6  0  0  0
 47 43  1  0  0  0  0
 48 47  1  0  0  0  0
 49 46  1  0  0  0  0
M  END
>  <MODEL>
26

>  <REMARK>
 VINA RESULT:    -6.650      1.857      2.461
 INTER + INTRA:         -10.150
 INTER:                  -9.600
 INTRA:                  -0.550
 UNBOUND:                -0.779
  Name = 
  8 active torsions:
  status: ('A' for Active; 'I' for Inactive)
    1  A    between atoms: C_1  and  C_2
    2  A    between atoms: C_4  and  C_11
    3  A    between atoms: C_6  and  C_8
    4  A    between atoms: N_13  and  C_14
    5  A    between atoms: C_18  and  C_20
    6  A    between atoms: C_20  and  C_21
    7  A    between atoms: C_20  and  C_22
    8  A    between atoms: C_22  and  C_23
                            x       y       z     vdW  Elec       q    Type
                         _______ _______ _______ _____ _____    ______ ____

>  <TORSDO>
F 8

$$$$
=
 OpenBabel07192307433D

 50 53  0  0  1  0  0  0  0  0999 V2000
    1.9440    7.7160   20.0130 C   0  0  0  0  0  0  0  0  0  0  0  0
    1.2710    7.2850   21.1590 C   0  0  0  0  0  0  0  0  0  0  0  0
    0.1680    8.0000   21.6280 C   0  0  0  0  0  0  0  0  0  0  0  0
   -0.2770    9.1430   20.9560 C   0  0  0  0  0  0  0  0  0  0  0  0
    0.3820    9.5900   19.8050 C   0  0  0  0  0  0  0  0  0  0  0  0
    1.5040    8.8750   19.3510 C   0  0  0  0  0  0  0  0  0  0  0  0
    1.6040    6.4100   21.7180 H   0  0  0  0  0  0  0  0  0  0  0  0
   -0.3510    7.6540   22.5190 H   0  0  0  0  0  0  0  0  0  0  0  0
   -1.1460    9.6690   21.3420 H   0  0  0  0  0  0  0  0  0  0  0  0
    2.0170    9.2070   18.4460 H   0  0  0  0  0  0  0  0  0  0  0  0
    3.0690    6.0200   18.5540 C   0  0  0  0  0  0  0  0  0  0  0  0
    2.1120    5.5070   17.9810 O   0  0  0  0  0  0  0  0  0  0  0  0
    3.0630    7.0560   19.4770 N   0  0  0  0  0  0  0  0  0  0  0  0
    3.9770    7.4450   19.7050 H   0  0  0  0  0  0  0  0  0  0  0  0
    6.7100    5.3520   18.6560 C   0  0  0  0  0  0  0  0  0  0  0  0
    5.4920    5.8470   19.0550 C   0  0  0  0  0  0  0  0  0  0  0  0
    4.4490    5.5940   18.1860 C   0  0  0  0  0  0  0  0  0  0  0  0
    4.5530    4.9000   17.0260 N   0  0  0  0  0  0  0  0  0  0  0  0
    5.7810    4.4720   16.6980 C   0  0  0  0  0  0  0  0  0  0  0  0
    6.8580    4.6500   17.5080 N   0  0  0  0  0  0  0  0  0  0  0  0
    5.3510    6.3890   19.9850 H   0  0  0  0  0  0  0  0  0  0  0  0
    5.9290    3.7810   15.3550 C   0  0  0  0  0  0  0  0  0  0  0  0
    6.8130    4.3660   14.2720 C   0  0  0  0  0  0  0  0  0  0  0  0
    5.3170    4.3520   14.0940 C   0  0  0  0  0  0  0  0  0  0  0  0
    5.9330    2.6950   15.4190 H   0  0  0  0  0  0  0  0  0  0  0  0
    7.4120    3.6790   13.6840 H   0  0  0  0  0  0  0  0  0  0  0  0
    7.2920    5.3290   14.4380 H   0  0  0  0  0  0  0  0  0  0  0  0
    4.8670    3.6510   13.3940 H   0  0  0  0  0  0  0  0  0  0  0  0
    4.7890    5.3020   14.1600 H   0  0  0  0  0  0  0  0  0  0  0  0
    7.9230    5.5400   19.5100 C   0  0  0  0  0  0  0  0  0  0  0  0
    8.8370    5.4770   18.9100 H   0  0  0  0  0  0  0  0  0  0  0  0
    7.9780    4.7710   20.2940 H   0  0  0  0  0  0  0  0  0  0  0  0
    7.8730    6.5260   19.9860 H   0  0  0  0  0  0  0  0  0  0  0  0
   -0.1120   10.7840   18.9980 C   0  0  2  0  0  0  0  0  0  0  0  0
   -0.7450   11.3970   19.6550 H   0  0  0  0  0  0  0  0  0  0  0  0
   -0.9970   10.3440   17.8250 C   0  0  0  0  0  0  0  0  0  0  0  0
   -1.5010    9.3990   18.0480 H   0  0  0  0  0  0  0  0  0  0  0  0
   -0.4010   10.2000   16.9200 H   0  0  0  0  0  0  0  0  0  0  0  0
   -1.7710   11.0860   17.5930 H   0  0  0  0  0  0  0  0  0  0  0  0
    1.0970   11.6280   18.5340 C   0  0  0  0  0  0  0  0  0  0  0  0
    0.9410   11.9630   17.5000 H   0  0  0  0  0  0  0  0  0  0  0  0
    2.0040   11.0070   18.5230 H   0  0  0  0  0  0  0  0  0  0  0  0
    1.3780   12.7930   19.4310 C   0  0  0  0  0  0  0  0  0  0  0  0
    2.5790   13.3050   19.6470 N   0  0  0  0  0  0  0  0  0  0  0  0
    2.5430   14.4040   20.5010 N   0  0  0  0  0  0  0  0  0  0  0  0
    1.3140   14.6740   20.8930 C   0  0  0  0  0  0  0  0  0  0  0  0
    0.1650   13.6400   20.2120 S   0  0  2  0  0  0  0  0  0  0  0  0
   -0.2850   12.6240   21.8450 Cl  0  0  0  0  0  0  0  0  0  0  0  0
    1.0770   15.5080   21.5480 H   0  0  0  0  0  0  0  0  0  0  0  0
   -0.6470   14.5300   19.5880 H   0  0  0  0  0  0  0  0  0  0  0  0
  1  2  1  0  0  0  0
  2  3  2  0  0  0  0
  2  7  1  0  0  0  0
  3  8  1  0  0  0  0
  4  9  1  0  0  0  0
  4  3  1  0  0  0  0
  5  4  2  0  0  0  0
  6  5  1  0  0  0  0
  6  1  2  0  0  0  0
 10  6  1  0  0  0  0
 11 13  1  0  0  0  0
 12 11  2  0  0  0  0
 13 14  1  0  0  0  0
 13  1  1  0  0  0  0
 15 16  1  0  0  0  0
 15 30  1  0  0  0  0
 16 21  1  0  0  0  0
 17 11  1  0  0  0  0
 17 16  2  0  0  0  0
 18 17  1  0  0  0  0
 19 18  2  0  0  0  0
 19 20  1  0  0  0  0
 20 15  2  0  0  0  0
 22 25  1  0  0  0  0
 22 19  1  0  0  0  0
 23 27  1  0  0  0  0
 23 22  1  0  0  0  0
 24 29  1  0  0  0  0
 24 23  1  0  0  0  0
 24 22  1  0  0  0  0
 26 23  1  0  0  0  0
 28 24  1  0  0  0  0
 30 33  1  0  0  0  0
 30 32  1  0  0  0  0
 31 30  1  0  0  0  0
 34 35  1  1  0  0  0
 34  5  1  0  0  0  0
 36 37  1  0  0  0  0
 36 34  1  0  0  0  0
 38 36  1  0  0  0  0
 39 36  1  0  0  0  0
 40 34  1  0  0  0  0
 40 43  1  0  0  0  0
 41 40  1  0  0  0  0
 42 40  1  0  0  0  0
 43 44  2  0  0  0  0
 43 47  1  0  0  0  0
 44 45  1  0  0  0  0
 45 46  2  0  0  0  0
 46 49  1  0  0  0  0
 47 50  1  6  0  0  0
 47 46  1  0  0  0  0
 47 48  1  0  0  0  0
M  END
>  <MODEL>
27

>  <REMARK>
 VINA RESULT:    -6.645      3.076      4.017
 INTER + INTRA:         -10.143
 INTER:                  -9.231
 INTRA:                  -0.912
 UNBOUND:                -0.779
  Name = 
  8 active torsions:
  status: ('A' for Active; 'I' for Inactive)
    1  A    between atoms: C_1  and  C_2
    2  A    between atoms: C_4  and  C_11
    3  A    between atoms: C_6  and  C_8
    4  A    between atoms: N_13  and  C_14
    5  A    between atoms: C_18  and  C_20
    6  A    between atoms: C_20  and  C_21
    7  A    between atoms: C_20  and  C_22
    8  A    between atoms: C_22  and  C_23
                            x       y       z     vdW  Elec       q    Type
                         _______ _______ _______ _____ _____    ______ ____

>  <TORSDO>
F 8

$$$$
=
 OpenBabel07192307433D

 50 53  0  0  1  0  0  0  0  0999 V2000
   -0.6060    9.9430   18.2030 C   0  0  0  0  0  0  0  0  0  0  0  0
   -1.5530    9.9710   17.1770 C   0  0  0  0  0  0  0  0  0  0  0  0
   -2.5550   10.9440   17.1800 C   0  0  0  0  0  0  0  0  0  0  0  0
   -2.6150   11.8990   18.1990 C   0  0  0  0  0  0  0  0  0  0  0  0
   -1.6740   11.8900   19.2360 C   0  0  0  0  0  0  0  0  0  0  0  0
   -0.6810   10.8940   19.2350 C   0  0  0  0  0  0  0  0  0  0  0  0
   -1.5470    9.2290   16.3780 H   0  0  0  0  0  0  0  0  0  0  0  0
   -3.2850   10.9580   16.3750 H   0  0  0  0  0  0  0  0  0  0  0  0
   -3.4010   12.6490   18.1650 H   0  0  0  0  0  0  0  0  0  0  0  0
    0.0660   10.8870   20.0310 H   0  0  0  0  0  0  0  0  0  0  0  0
    1.7820    9.2080   18.0370 C   0  0  0  0  0  0  0  0  0  0  0  0
    2.3510   10.2620   17.7670 O   0  0  0  0  0  0  0  0  0  0  0  0
    0.4320    8.9980   18.2760 N   0  0  0  0  0  0  0  0  0  0  0  0
    0.1900    8.0800   18.6460 H   0  0  0  0  0  0  0  0  0  0  0  0
    3.0220    5.9660   19.3260 C   0  0  0  0  0  0  0  0  0  0  0  0
    2.2550    7.1040   19.2620 C   0  0  0  0  0  0  0  0  0  0  0  0
    2.5950    7.9770   18.2470 C   0  0  0  0  0  0  0  0  0  0  0  0
    3.5840    7.7720   17.3430 N   0  0  0  0  0  0  0  0  0  0  0  0
    4.3010    6.6480   17.4910 C   0  0  0  0  0  0  0  0  0  0  0  0
    4.0170    5.7200   18.4420 N   0  0  0  0  0  0  0  0  0  0  0  0
    1.4370    7.3040   19.9460 H   0  0  0  0  0  0  0  0  0  0  0  0
    5.4750    6.4560   16.5480 C   0  0  0  0  0  0  0  0  0  0  0  0
    5.3790    5.5080   15.3700 C   0  0  0  0  0  0  0  0  0  0  0  0
    6.2800    5.1740   16.5310 C   0  0  0  0  0  0  0  0  0  0  0  0
    6.0430    7.3650   16.3650 H   0  0  0  0  0  0  0  0  0  0  0  0
    5.8310    5.8180   14.4350 H   0  0  0  0  0  0  0  0  0  0  0  0
    4.4800    4.9080   15.2420 H   0  0  0  0  0  0  0  0  0  0  0  0
    7.3580    5.2630   16.4140 H   0  0  0  0  0  0  0  0  0  0  0  0
    5.9770    4.3650   17.1930 H   0  0  0  0  0  0  0  0  0  0  0  0
    2.7530    4.9270   20.3680 C   0  0  0  0  0  0  0  0  0  0  0  0
    2.7140    5.3750   21.3660 H   0  0  0  0  0  0  0  0  0  0  0  0
    3.5380    4.1570   20.3720 H   0  0  0  0  0  0  0  0  0  0  0  0
    1.7910    4.4480   20.1520 H   0  0  0  0  0  0  0  0  0  0  0  0
   -1.6550   12.9550   20.3250 C   0  0  2  0  0  0  0  0  0  0  0  0
   -2.6110   13.4950   20.2860 H   0  0  0  0  0  0  0  0  0  0  0  0
   -0.5550   13.9950   20.0770 C   0  0  0  0  0  0  0  0  0  0  0  0
   -0.9870   14.9730   19.8440 H   0  0  0  0  0  0  0  0  0  0  0  0
    0.0770   13.7010   19.2350 H   0  0  0  0  0  0  0  0  0  0  0  0
    0.0980   14.1190   20.9490 H   0  0  0  0  0  0  0  0  0  0  0  0
   -1.5160   12.2760   21.7070 C   0  0  0  0  0  0  0  0  0  0  0  0
   -0.6050   12.6330   22.2060 H   0  0  0  0  0  0  0  0  0  0  0  0
   -1.3920   11.1910   21.5800 H   0  0  0  0  0  0  0  0  0  0  0  0
   -2.7130   12.4770   22.5830 C   0  0  0  0  0  0  0  0  0  0  0  0
   -2.8990   11.8880   23.7530 N   0  0  0  0  0  0  0  0  0  0  0  0
   -4.0850   12.2820   24.3650 N   0  0  0  0  0  0  0  0  0  0  0  0
   -4.7450   13.1540   23.6290 C   0  0  0  0  0  0  0  0  0  0  0  0
   -3.9360   13.5540   22.2010 S   0  0  2  0  0  0  0  0  0  0  0  0
   -5.1430   12.6290   20.9400 Cl  0  0  0  0  0  0  0  0  0  0  0  0
   -5.6860   13.5960   23.9440 H   0  0  0  0  0  0  0  0  0  0  0  0
   -3.8180   14.8990   22.3370 H   0  0  0  0  0  0  0  0  0  0  0  0
  1 13  1  0  0  0  0
  1  6  1  0  0  0  0
  2  3  1  0  0  0  0
  2  1  2  0  0  0  0
  3  4  2  0  0  0  0
  4  5  1  0  0  0  0
  5 34  1  0  0  0  0
  6  5  2  0  0  0  0
  6 10  1  0  0  0  0
  7  2  1  0  0  0  0
  8  3  1  0  0  0  0
  9  4  1  0  0  0  0
 11 17  1  0  0  0  0
 11 13  1  0  0  0  0
 12 11  2  0  0  0  0
 13 14  1  0  0  0  0
 15 30  1  0  0  0  0
 16 15  1  0  0  0  0
 16 21  1  0  0  0  0
 17 16  2  0  0  0  0
 18 19  2  0  0  0  0
 18 17  1  0  0  0  0
 19 20  1  0  0  0  0
 20 15  2  0  0  0  0
 22 19  1  0  0  0  0
 23 24  1  0  0  0  0
 23 22  1  0  0  0  0
 24 22  1  0  0  0  0
 24 29  1  0  0  0  0
 25 22  1  0  0  0  0
 26 23  1  0  0  0  0
 27 23  1  0  0  0  0
 28 24  1  0  0  0  0
 30 32  1  0  0  0  0
 30 31  1  0  0  0  0
 33 30  1  0  0  0  0
 34 35  1  6  0  0  0
 34 40  1  0  0  0  0
 36 34  1  0  0  0  0
 36 39  1  0  0  0  0
 37 36  1  0  0  0  0
 38 36  1  0  0  0  0
 40 41  1  0  0  0  0
 40 43  1  0  0  0  0
 42 40  1  0  0  0  0
 43 44  2  0  0  0  0
 44 45  1  0  0  0  0
 46 49  1  0  0  0  0
 46 45  2  0  0  0  0
 47 50  1  6  0  0  0
 47 43  1  0  0  0  0
 47 46  1  0  0  0  0
 48 47  1  0  0  0  0
M  END
>  <MODEL>
28

>  <REMARK>
 VINA RESULT:    -6.644      3.245      4.270
 INTER + INTRA:         -10.143
 INTER:                  -9.215
 INTRA:                  -0.927
 UNBOUND:                -0.779
  Name = 
  8 active torsions:
  status: ('A' for Active; 'I' for Inactive)
    1  A    between atoms: C_1  and  C_2
    2  A    between atoms: C_4  and  C_11
    3  A    between atoms: C_6  and  C_8
    4  A    between atoms: N_13  and  C_14
    5  A    between atoms: C_18  and  C_20
    6  A    between atoms: C_20  and  C_21
    7  A    between atoms: C_20  and  C_22
    8  A    between atoms: C_22  and  C_23
                            x       y       z     vdW  Elec       q    Type
                         _______ _______ _______ _____ _____    ______ ____

>  <TORSDO>
F 8

$$$$
=
 OpenBabel07192307433D

 50 53  0  0  1  0  0  0  0  0999 V2000
    1.8170    7.1650   19.8380 C   0  0  0  0  0  0  0  0  0  0  0  0
    1.3970    6.3380   20.8810 C   0  0  0  0  0  0  0  0  0  0  0  0
    1.6340    4.9630   20.8180 C   0  0  0  0  0  0  0  0  0  0  0  0
    2.2980    4.4060   19.7210 C   0  0  0  0  0  0  0  0  0  0  0  0
    2.7300    5.2180   18.6660 C   0  0  0  0  0  0  0  0  0  0  0  0
    2.4690    6.5990   18.7290 C   0  0  0  0  0  0  0  0  0  0  0  0
    0.8580    6.7370   21.7410 H   0  0  0  0  0  0  0  0  0  0  0  0
    1.3040    4.3290   21.6370 H   0  0  0  0  0  0  0  0  0  0  0  0
    2.4760    3.3340   19.7100 H   0  0  0  0  0  0  0  0  0  0  0  0
    2.8150    7.2430   17.9180 H   0  0  0  0  0  0  0  0  0  0  0  0
    1.3910    9.3630   18.7160 C   0  0  0  0  0  0  0  0  0  0  0  0
    1.2670    9.0260   17.5410 O   0  0  0  0  0  0  0  0  0  0  0  0
    1.6170    8.5570   19.8210 N   0  0  0  0  0  0  0  0  0  0  0  0
    1.5210    9.0160   20.7260 H   0  0  0  0  0  0  0  0  0  0  0  0
    1.6630   13.0530   18.8650 C   0  0  0  0  0  0  0  0  0  0  0  0
    1.9790   11.7640   18.5120 C   0  0  0  0  0  0  0  0  0  0  0  0
    1.1850   10.7920   19.0870 C   0  0  0  0  0  0  0  0  0  0  0  0
    0.1460   11.0310   19.9250 N   0  0  0  0  0  0  0  0  0  0  0  0
   -0.0810   12.3150   20.2380 C   0  0  0  0  0  0  0  0  0  0  0  0
    0.6320   13.3370   19.6950 N   0  0  0  0  0  0  0  0  0  0  0  0
    2.7860   11.5200   17.8270 H   0  0  0  0  0  0  0  0  0  0  0  0
   -1.1760   12.5890   21.2520 C   0  0  0  0  0  0  0  0  0  0  0  0
   -0.8420   13.0920   22.6420 C   0  0  0  0  0  0  0  0  0  0  0  0
   -1.3850   11.6980   22.4580 C   0  0  0  0  0  0  0  0  0  0  0  0
   -2.0830   13.0020   20.8170 H   0  0  0  0  0  0  0  0  0  0  0  0
   -1.4880   13.8480   23.0740 H   0  0  0  0  0  0  0  0  0  0  0  0
    0.2020   13.1910   22.9350 H   0  0  0  0  0  0  0  0  0  0  0  0
   -2.4110   11.4810   22.7480 H   0  0  0  0  0  0  0  0  0  0  0  0
   -0.7030   10.8640   22.6080 H   0  0  0  0  0  0  0  0  0  0  0  0
    2.4330   14.2050   18.3030 C   0  0  0  0  0  0  0  0  0  0  0  0
    3.5100   14.0480   18.4180 H   0  0  0  0  0  0  0  0  0  0  0  0
    2.1710   15.1430   18.8140 H   0  0  0  0  0  0  0  0  0  0  0  0
    2.1960   14.3060   17.2380 H   0  0  0  0  0  0  0  0  0  0  0  0
    3.5240    4.6670   17.4880 C   0  0  2  0  0  0  0  0  0  0  0  0
    2.8070    4.3090   16.7360 H   0  0  0  0  0  0  0  0  0  0  0  0
    4.3700    3.4540   17.8970 C   0  0  0  0  0  0  0  0  0  0  0  0
    5.1910    3.2940   17.1910 H   0  0  0  0  0  0  0  0  0  0  0  0
    3.7630    2.5450   17.9170 H   0  0  0  0  0  0  0  0  0  0  0  0
    4.8080    3.5770   18.8950 H   0  0  0  0  0  0  0  0  0  0  0  0
    4.3800    5.7960   16.8710 C   0  0  0  0  0  0  0  0  0  0  0  0
    4.8280    6.4020   17.6700 H   0  0  0  0  0  0  0  0  0  0  0  0
    3.7400    6.4760   16.2910 H   0  0  0  0  0  0  0  0  0  0  0  0
    5.4350    5.2900   15.9370 C   0  0  0  0  0  0  0  0  0  0  0  0
    5.2000    4.5580   14.8600 N   0  0  0  0  0  0  0  0  0  0  0  0
    6.3630    4.2540   14.1590 N   0  0  0  0  0  0  0  0  0  0  0  0
    7.4290    4.7690   14.7390 C   0  0  0  0  0  0  0  0  0  0  0  0
    7.0540    5.6680   16.1200 S   0  0  2  0  0  0  0  0  0  0  0  0
    7.7890    4.4200   17.4620 Cl  0  0  0  0  0  0  0  0  0  0  0  0
    8.4300    4.6580   14.3330 H   0  0  0  0  0  0  0  0  0  0  0  0
    7.5810    6.8750   15.7930 H   0  0  0  0  0  0  0  0  0  0  0  0
  1  2  1  0  0  0  0
  2  7  1  0  0  0  0
  3  2  2  0  0  0  0
  3  8  1  0  0  0  0
  4  3  1  0  0  0  0
  5  6  1  0  0  0  0
  5  4  2  0  0  0  0
  6  1  2  0  0  0  0
  9  4  1  0  0  0  0
 10  6  1  0  0  0  0
 11 17  1  0  0  0  0
 11 13  1  0  0  0  0
 12 11  2  0  0  0  0
 13  1  1  0  0  0  0
 13 14  1  0  0  0  0
 15 20  2  0  0  0  0
 16 15  1  0  0  0  0
 16 17  2  0  0  0  0
 17 18  1  0  0  0  0
 18 19  2  0  0  0  0
 19 22  1  0  0  0  0
 20 19  1  0  0  0  0
 21 16  1  0  0  0  0
 22 24  1  0  0  0  0
 22 23  1  0  0  0  0
 23 27  1  0  0  0  0
 23 26  1  0  0  0  0
 24 29  1  0  0  0  0
 24 23  1  0  0  0  0
 24 28  1  0  0  0  0
 25 22  1  0  0  0  0
 30 31  1  0  0  0  0
 30 32  1  0  0  0  0
 30 15  1  0  0  0  0
 33 30  1  0  0  0  0
 34 35  1  6  0  0  0
 34 36  1  0  0  0  0
 34  5  1  0  0  0  0
 36 38  1  0  0  0  0
 36 39  1  0  0  0  0
 37 36  1  0  0  0  0
 40 34  1  0  0  0  0
 40 41  1  0  0  0  0
 42 40  1  0  0  0  0
 43 47  1  0  0  0  0
 43 40  1  0  0  0  0
 44 43  2  0  0  0  0
 45 46  2  0  0  0  0
 45 44  1  0  0  0  0
 46 47  1  0  0  0  0
 47 50  1  1  0  0  0
 47 48  1  0  0  0  0
 49 46  1  0  0  0  0
M  END
>  <MODEL>
29

>  <REMARK>
 VINA RESULT:    -6.579      4.071      9.005
 INTER + INTRA:         -10.051
 INTER:                  -9.680
 INTRA:                  -0.371
 UNBOUND:                -0.779
  Name = 
  8 active torsions:
  status: ('A' for Active; 'I' for Inactive)
    1  A    between atoms: C_1  and  C_2
    2  A    between atoms: C_4  and  C_11
    3  A    between atoms: C_6  and  C_8
    4  A    between atoms: N_13  and  C_14
    5  A    between atoms: C_18  and  C_20
    6  A    between atoms: C_20  and  C_21
    7  A    between atoms: C_20  and  C_22
    8  A    between atoms: C_22  and  C_23
                            x       y       z     vdW  Elec       q    Type
                         _______ _______ _______ _____ _____    ______ ____

>  <TORSDO>
F 8

$$$$
=
 OpenBabel07192307433D

 50 53  0  0  1  0  0  0  0  0999 V2000
    2.9760    7.7190   17.5490 C   0  0  0  0  0  0  0  0  0  0  0  0
    4.3240    8.0620   17.4130 C   0  0  0  0  0  0  0  0  0  0  0  0
    5.2930    7.0590   17.3400 C   0  0  0  0  0  0  0  0  0  0  0  0
    4.9260    5.7110   17.3940 C   0  0  0  0  0  0  0  0  0  0  0  0
    3.5800    5.3460   17.5270 C   0  0  0  0  0  0  0  0  0  0  0  0
    2.6140    6.3640   17.6190 C   0  0  0  0  0  0  0  0  0  0  0  0
    4.6450    9.1030   17.3890 H   0  0  0  0  0  0  0  0  0  0  0  0
    6.3380    7.3360   17.2320 H   0  0  0  0  0  0  0  0  0  0  0  0
    5.7040    4.9550   17.3230 H   0  0  0  0  0  0  0  0  0  0  0  0
    1.5610    6.0900   17.7090 H   0  0  0  0  0  0  0  0  0  0  0  0
    1.3170    9.1360   18.7770 C   0  0  0  0  0  0  0  0  0  0  0  0
    1.5740    8.8670   19.9480 O   0  0  0  0  0  0  0  0  0  0  0  0
    1.9400    8.6650   17.6310 N   0  0  0  0  0  0  0  0  0  0  0  0
    1.6840    9.1400   16.7670 H   0  0  0  0  0  0  0  0  0  0  0  0
   -0.4820   12.3590   18.4840 C   0  0  0  0  0  0  0  0  0  0  0  0
    0.4970   11.4740   18.8670 C   0  0  0  0  0  0  0  0  0  0  0  0
    0.2820   10.1660   18.4800 C   0  0  0  0  0  0  0  0  0  0  0  0
   -0.7810    9.7320   17.7610 N   0  0  0  0  0  0  0  0  0  0  0  0
   -1.7040   10.6540   17.4480 C   0  0  0  0  0  0  0  0  0  0  0  0
   -1.5590   11.9690   17.7620 N   0  0  0  0  0  0  0  0  0  0  0  0
    1.3790   11.7750   19.4230 H   0  0  0  0  0  0  0  0  0  0  0  0
   -2.9470   10.1630   16.7300 C   0  0  0  0  0  0  0  0  0  0  0  0
   -3.0460   10.2180   15.2190 C   0  0  0  0  0  0  0  0  0  0  0  0
   -3.9120   11.1200   16.0620 C   0  0  0  0  0  0  0  0  0  0  0  0
   -3.4030    9.2900   17.1920 H   0  0  0  0  0  0  0  0  0  0  0  0
   -3.5100    9.3800   14.7130 H   0  0  0  0  0  0  0  0  0  0  0  0
   -2.2430   10.6810   14.6500 H   0  0  0  0  0  0  0  0  0  0  0  0
   -4.9740   10.9060   16.1580 H   0  0  0  0  0  0  0  0  0  0  0  0
   -3.6770   12.1820   16.0750 H   0  0  0  0  0  0  0  0  0  0  0  0
   -0.3690   13.8110   18.8230 C   0  0  0  0  0  0  0  0  0  0  0  0
    0.5440   14.2410   18.3990 H   0  0  0  0  0  0  0  0  0  0  0  0
   -0.3400   13.9620   19.9120 H   0  0  0  0  0  0  0  0  0  0  0  0
   -1.2380   14.3400   18.4170 H   0  0  0  0  0  0  0  0  0  0  0  0
    3.1270    3.8920   17.5130 C   0  0  2  0  0  0  0  0  0  0  0  0
    3.4840    3.4360   16.5790 H   0  0  0  0  0  0  0  0  0  0  0  0
    1.5980    3.7770   17.4980 C   0  0  0  0  0  0  0  0  0  0  0  0
    1.1630    4.2340   18.3920 H   0  0  0  0  0  0  0  0  0  0  0  0
    1.2860    2.7300   17.4720 H   0  0  0  0  0  0  0  0  0  0  0  0
    1.1570    4.2720   16.6240 H   0  0  0  0  0  0  0  0  0  0  0  0
    3.7590    3.1450   18.7100 C   0  0  0  0  0  0  0  0  0  0  0  0
    4.6720    3.6630   19.0310 H   0  0  0  0  0  0  0  0  0  0  0  0
    4.0700    2.1370   18.4000 H   0  0  0  0  0  0  0  0  0  0  0  0
    2.8150    2.9750   19.8600 C   0  0  0  0  0  0  0  0  0  0  0  0
    1.9690    1.9670   19.9980 N   0  0  0  0  0  0  0  0  0  0  0  0
    1.2350    2.0470   21.1770 N   0  0  0  0  0  0  0  0  0  0  0  0
    1.5570    3.1140   21.8800 C   0  0  0  0  0  0  0  0  0  0  0  0
    2.7830    4.0280   21.1600 S   0  0  2  0  0  0  0  0  0  0  0  0
    1.6830    5.5760   20.6200 Cl  0  0  0  0  0  0  0  0  0  0  0  0
    1.1070    3.3430   22.8420 H   0  0  0  0  0  0  0  0  0  0  0  0
    3.7180    4.0290   22.1440 H   0  0  0  0  0  0  0  0  0  0  0  0
  1  6  1  0  0  0  0
  1 13  1  0  0  0  0
  2  1  2  0  0  0  0
  3  4  2  0  0  0  0
  3  2  1  0  0  0  0
  4  5  1  0  0  0  0
  5  6  2  0  0  0  0
  6 10  1  0  0  0  0
  7  2  1  0  0  0  0
  8  3  1  0  0  0  0
  9  4  1  0  0  0  0
 11 12  2  0  0  0  0
 13 11  1  0  0  0  0
 14 13  1  0  0  0  0
 15 30  1  0  0  0  0
 15 16  1  0  0  0  0
 16 21  1  0  0  0  0
 17 11  1  0  0  0  0
 17 16  2  0  0  0  0
 18 17  1  0  0  0  0
 19 18  2  0  0  0  0
 19 20  1  0  0  0  0
 20 15  2  0  0  0  0
 22 25  1  0  0  0  0
 22 19  1  0  0  0  0
 23 24  1  0  0  0  0
 23 22  1  0  0  0  0
 24 29  1  0  0  0  0
 24 28  1  0  0  0  0
 24 22  1  0  0  0  0
 26 23  1  0  0  0  0
 27 23  1  0  0  0  0
 30 32  1  0  0  0  0
 31 30  1  0  0  0  0
 33 30  1  0  0  0  0
 34 35  1  6  0  0  0
 34  5  1  0  0  0  0
 34 40  1  0  0  0  0
 36 34  1  0  0  0  0
 36 37  1  0  0  0  0
 38 36  1  0  0  0  0
 39 36  1  0  0  0  0
 40 41  1  0  0  0  0
 40 43  1  0  0  0  0
 42 40  1  0  0  0  0
 43 44  2  0  0  0  0
 43 47  1  0  0  0  0
 44 45  1  0  0  0  0
 45 46  2  0  0  0  0
 46 49  1  0  0  0  0
 47 46  1  0  0  0  0
 47 50  1  1  0  0  0
 48 47  1  0  0  0  0
M  END
>  <MODEL>
30

>  <REMARK>
 VINA RESULT:    -6.536      3.284      8.813
 INTER + INTRA:          -9.989
 INTER:                  -9.210
 INTRA:                  -0.779
 UNBOUND:                -0.779
  Name = 
  8 active torsions:
  status: ('A' for Active; 'I' for Inactive)
    1  A    between atoms: C_1  and  C_2
    2  A    between atoms: C_4  and  C_11
    3  A    between atoms: C_6  and  C_8
    4  A    between atoms: N_13  and  C_14
    5  A    between atoms: C_18  and  C_20
    6  A    between atoms: C_20  and  C_21
    7  A    between atoms: C_20  and  C_22
    8  A    between atoms: C_22  and  C_23
                            x       y       z     vdW  Elec       q    Type
                         _______ _______ _______ _____ _____    ______ ____

>  <TORSDO>
F 8

$$$$
