=
 OpenBabel07192307433D

 29 30  0  0  0  0  0  0  0  0999 V2000
    4.5500    4.0360   18.2520 C   0  0  0  0  0  0  0  0  0  0  0  0
    5.5750    4.7720   18.8690 C   0  0  0  0  0  0  0  0  0  0  0  0
    6.7280    5.1300   18.1740 C   0  0  0  0  0  0  0  0  0  0  0  0
    6.8880    4.7710   16.8420 C   0  0  0  0  0  0  0  0  0  0  0  0
    5.8840    4.0530   16.1950 C   0  0  0  0  0  0  0  0  0  0  0  0
    4.7260    3.6950   16.8990 C   0  0  0  0  0  0  0  0  0  0  0  0
    7.9610    6.0300   18.9700 Cl  0  0  0  0  0  0  0  0  0  0  0  0
    5.4600    5.0940   19.9010 H   0  0  0  0  0  0  0  0  0  0  0  0
    7.7860    5.0500   16.3000 H   0  0  0  0  0  0  0  0  0  0  0  0
    3.9530    3.1290   16.3930 H   0  0  0  0  0  0  0  0  0  0  0  0
    2.9370    4.6500   20.0330 C   0  0  0  0  0  0  0  0  0  0  0  0
    1.8220    4.0020   20.8670 C   0  0  0  0  0  0  0  0  0  0  0  0
    0.7220    3.5920   20.0380 O   0  0  0  0  0  0  0  0  0  0  0  0
    1.1710    2.6300   19.0700 C   0  0  0  0  0  0  0  0  0  0  0  0
    2.2730    3.2050   18.1640 C   0  0  0  0  0  0  0  0  0  0  0  0
    3.4000    3.7070   18.9920 N   0  0  0  0  0  0  0  0  0  0  0  0
    3.7610    4.9240   20.7020 H   0  0  0  0  0  0  0  0  0  0  0  0
    2.5420    5.5580   19.5580 H   0  0  0  0  0  0  0  0  0  0  0  0
    2.1970    3.1320   21.4200 H   0  0  0  0  0  0  0  0  0  0  0  0
    1.4370    4.7210   21.5960 H   0  0  0  0  0  0  0  0  0  0  0  0
    0.3060    2.3430   18.4640 H   0  0  0  0  0  0  0  0  0  0  0  0
    1.5230    1.7340   19.5950 H   0  0  0  0  0  0  0  0  0  0  0  0
    2.5890    2.4190   17.4700 H   0  0  0  0  0  0  0  0  0  0  0  0
    1.8660    4.0370   17.5770 H   0  0  0  0  0  0  0  0  0  0  0  0
    6.1520    3.7610   14.8850 O   0  0  0  0  0  0  0  0  0  0  0  0
    6.8960    4.7190   14.1440 C   0  0  0  0  0  0  0  0  0  0  0  0
    6.6380    5.7390   14.4460 H   0  0  0  0  0  0  0  0  0  0  0  0
    6.7580    4.5770   13.0660 H   0  0  0  0  0  0  0  0  0  0  0  0
    7.9570    4.5630   14.3660 H   0  0  0  0  0  0  0  0  0  0  0  0
  1  2  1  0  0  0  0
  1 16  1  0  0  0  0
  2  8  1  0  0  0  0
  3  2  2  0  0  0  0
  3  7  1  0  0  0  0
  4  3  1  0  0  0  0
  5  4  2  0  0  0  0
  5  6  1  0  0  0  0
  6  1  2  0  0  0  0
  9  4  1  0  0  0  0
 10  6  1  0  0  0  0
 11 17  1  0  0  0  0
 11 12  1  0  0  0  0
 12 19  1  0  0  0  0
 12 20  1  0  0  0  0
 13 12  1  0  0  0  0
 14 22  1  0  0  0  0
 14 13  1  0  0  0  0
 15 16  1  0  0  0  0
 15 14  1  0  0  0  0
 16 11  1  0  0  0  0
 18 11  1  0  0  0  0
 21 14  1  0  0  0  0
 23 15  1  0  0  0  0
 24 15  1  0  0  0  0
 25  5  1  0  0  0  0
 26 29  1  0  0  0  0
 26 27  1  0  0  0  0
 26 25  1  0  0  0  0
 28 26  1  0  0  0  0
M  END
>  <MODEL>
1

>  <REMARK>
 VINA RESULT:    -6.178      0.000      0.000
 INTER + INTRA:          -7.280
 INTER:                  -7.057
 INTRA:                  -0.224
 UNBOUND:                -0.199
  Name = 
  3 active torsions:
  status: ('A' for Active; 'I' for Inactive)
    1  A    between atoms: N_6  and  C_7
    2  A    between atoms: C_11  and  O_13
    3  A    between atoms: O_13  and  C_14
                            x       y       z     vdW  Elec       q    Type
                         _______ _______ _______ _____ _____    ______ ____

>  <TORSDO>
F 3

$$$$
=
 OpenBabel07192307433D

 29 30  0  0  0  0  0  0  0  0999 V2000
    4.2430    4.2490   18.0540 C   0  0  0  0  0  0  0  0  0  0  0  0
    4.5000    3.9740   16.7000 C   0  0  0  0  0  0  0  0  0  0  0  0
    5.7410    4.2500   16.1290 C   0  0  0  0  0  0  0  0  0  0  0  0
    6.7620    4.7980   16.8930 C   0  0  0  0  0  0  0  0  0  0  0  0
    6.5460    5.0690   18.2430 C   0  0  0  0  0  0  0  0  0  0  0  0
    5.2960    4.7910   18.8130 C   0  0  0  0  0  0  0  0  0  0  0  0
    6.0120    3.8990   14.4650 Cl  0  0  0  0  0  0  0  0  0  0  0  0
    3.7280    3.5130   16.0890 H   0  0  0  0  0  0  0  0  0  0  0  0
    7.7290    5.0120   16.4480 H   0  0  0  0  0  0  0  0  0  0  0  0
    5.1310    5.0120   19.8600 H   0  0  0  0  0  0  0  0  0  0  0  0
    2.4390    2.5810   18.3900 C   0  0  0  0  0  0  0  0  0  0  0  0
    0.9700    2.5300   18.8410 C   0  0  0  0  0  0  0  0  0  0  0  0
    0.8330    2.9280   20.2150 O   0  0  0  0  0  0  0  0  0  0  0  0
    1.3050    4.2750   20.3840 C   0  0  0  0  0  0  0  0  0  0  0  0
    2.7830    4.4150   19.9830 C   0  0  0  0  0  0  0  0  0  0  0  0
    2.9790    3.9440   18.5880 N   0  0  0  0  0  0  0  0  0  0  0  0
    2.4910    2.2940   17.3340 H   0  0  0  0  0  0  0  0  0  0  0  0
    3.0180    1.8640   18.9870 H   0  0  0  0  0  0  0  0  0  0  0  0
    0.3420    3.1770   18.2160 H   0  0  0  0  0  0  0  0  0  0  0  0
    0.5900    1.5080   18.7520 H   0  0  0  0  0  0  0  0  0  0  0  0
    1.1800    4.5380   21.4390 H   0  0  0  0  0  0  0  0  0  0  0  0
    0.6730    4.9490   19.7940 H   0  0  0  0  0  0  0  0  0  0  0  0
    3.0720    5.4640   20.1090 H   0  0  0  0  0  0  0  0  0  0  0  0
    3.4020    3.8060   20.6530 H   0  0  0  0  0  0  0  0  0  0  0  0
    7.6250    5.6040   18.8930 O   0  0  0  0  0  0  0  0  0  0  0  0
    8.0230    6.9180   18.5220 C   0  0  0  0  0  0  0  0  0  0  0  0
    7.8030    7.1140   17.4670 H   0  0  0  0  0  0  0  0  0  0  0  0
    9.0820    7.0870   18.7440 H   0  0  0  0  0  0  0  0  0  0  0  0
    7.4400    7.6250   19.1210 H   0  0  0  0  0  0  0  0  0  0  0  0
  1 16  1  0  0  0  0
  1  6  1  0  0  0  0
  2  1  2  0  0  0  0
  3  2  1  0  0  0  0
  3  4  2  0  0  0  0
  4  5  1  0  0  0  0
  5  6  2  0  0  0  0
  5 25  1  0  0  0  0
  6 10  1  0  0  0  0
  7  3  1  0  0  0  0
  8  2  1  0  0  0  0
  9  4  1  0  0  0  0
 11 16  1  0  0  0  0
 11 12  1  0  0  0  0
 11 18  1  0  0  0  0
 12 13  1  0  0  0  0
 13 14  1  0  0  0  0
 14 21  1  0  0  0  0
 15 23  1  0  0  0  0
 15 14  1  0  0  0  0
 15 24  1  0  0  0  0
 16 15  1  0  0  0  0
 17 11  1  0  0  0  0
 19 12  1  0  0  0  0
 20 12  1  0  0  0  0
 22 14  1  0  0  0  0
 26 28  1  0  0  0  0
 26 25  1  0  0  0  0
 26 29  1  0  0  0  0
 27 26  1  0  0  0  0
M  END
>  <MODEL>
2

>  <REMARK>
 VINA RESULT:    -6.029      1.974      2.871
 INTER + INTRA:          -7.109
 INTER:                  -6.903
 INTRA:                  -0.207
 UNBOUND:                -0.199
  Name = 
  3 active torsions:
  status: ('A' for Active; 'I' for Inactive)
    1  A    between atoms: N_6  and  C_7
    2  A    between atoms: C_11  and  O_13
    3  A    between atoms: O_13  and  C_14
                            x       y       z     vdW  Elec       q    Type
                         _______ _______ _______ _____ _____    ______ ____

>  <TORSDO>
F 3

$$$$
=
 OpenBabel07192307433D

 29 30  0  0  0  0  0  0  0  0999 V2000
    3.9920    4.9190   18.8110 C   0  0  0  0  0  0  0  0  0  0  0  0
    3.3920    3.9500   19.6320 C   0  0  0  0  0  0  0  0  0  0  0  0
    2.3350    4.2750   20.4810 C   0  0  0  0  0  0  0  0  0  0  0  0
    1.8440    5.5730   20.5300 C   0  0  0  0  0  0  0  0  0  0  0  0
    2.4060    6.5550   19.7180 C   0  0  0  0  0  0  0  0  0  0  0  0
    3.4680    6.2240   18.8650 C   0  0  0  0  0  0  0  0  0  0  0  0
    1.6310    3.0560   21.4730 Cl  0  0  0  0  0  0  0  0  0  0  0  0
    3.7350    2.9200   19.5890 H   0  0  0  0  0  0  0  0  0  0  0  0
    1.0210    5.8260   21.1910 H   0  0  0  0  0  0  0  0  0  0  0  0
    3.9080    6.9930   18.2430 H   0  0  0  0  0  0  0  0  0  0  0  0
    4.7980    4.4880   16.5060 C   0  0  0  0  0  0  0  0  0  0  0  0
    5.9950    3.8370   15.7950 C   0  0  0  0  0  0  0  0  0  0  0  0
    7.2130    4.5470   16.0680 O   0  0  0  0  0  0  0  0  0  0  0  0
    7.4770    4.5410   17.4810 C   0  0  0  0  0  0  0  0  0  0  0  0
    6.3400    5.2030   18.2760 C   0  0  0  0  0  0  0  0  0  0  0  0
    5.0470    4.5410   17.9630 N   0  0  0  0  0  0  0  0  0  0  0  0
    3.9000    3.9000   16.2880 H   0  0  0  0  0  0  0  0  0  0  0  0
    4.6670    5.5060   16.1170 H   0  0  0  0  0  0  0  0  0  0  0  0
    6.1150    2.7900   16.1000 H   0  0  0  0  0  0  0  0  0  0  0  0
    5.8380    3.8540   14.7120 H   0  0  0  0  0  0  0  0  0  0  0  0
    8.4110    5.0870   17.6450 H   0  0  0  0  0  0  0  0  0  0  0  0
    7.6330    3.5060   17.8080 H   0  0  0  0  0  0  0  0  0  0  0  0
    6.5880    5.1430   19.3410 H   0  0  0  0  0  0  0  0  0  0  0  0
    6.2710    6.2630   18.0000 H   0  0  0  0  0  0  0  0  0  0  0  0
    1.8370    7.7930   19.8490 O   0  0  0  0  0  0  0  0  0  0  0  0
    1.2730    8.1190   21.1130 C   0  0  0  0  0  0  0  0  0  0  0  0
    1.8860    8.8570   21.6400 H   0  0  0  0  0  0  0  0  0  0  0  0
    1.1240    7.2200   21.7220 H   0  0  0  0  0  0  0  0  0  0  0  0
    0.2900    8.5670   20.9350 H   0  0  0  0  0  0  0  0  0  0  0  0
  1  6  2  0  0  0  0
  1  2  1  0  0  0  0
  2  3  2  0  0  0  0
  3  4  1  0  0  0  0
  3  7  1  0  0  0  0
  4  9  1  0  0  0  0
  5 25  1  0  0  0  0
  5  4  2  0  0  0  0
  6  5  1  0  0  0  0
  8  2  1  0  0  0  0
 10  6  1  0  0  0  0
 11 16  1  0  0  0  0
 12 13  1  0  0  0  0
 12 19  1  0  0  0  0
 12 11  1  0  0  0  0
 13 14  1  0  0  0  0
 14 21  1  0  0  0  0
 14 22  1  0  0  0  0
 14 15  1  0  0  0  0
 15 23  1  0  0  0  0
 16 15  1  0  0  0  0
 16  1  1  0  0  0  0
 17 11  1  0  0  0  0
 18 11  1  0  0  0  0
 20 12  1  0  0  0  0
 24 15  1  0  0  0  0
 25 26  1  0  0  0  0
 26 27  1  0  0  0  0
 26 28  1  0  0  0  0
 29 26  1  0  0  0  0
M  END
>  <MODEL>
3

>  <REMARK>
 VINA RESULT:    -5.893      2.743      5.833
 INTER + INTRA:          -6.954
 INTER:                  -6.767
 INTRA:                  -0.187
 UNBOUND:                -0.199
  Name = 
  3 active torsions:
  status: ('A' for Active; 'I' for Inactive)
    1  A    between atoms: N_6  and  C_7
    2  A    between atoms: C_11  and  O_13
    3  A    between atoms: O_13  and  C_14
                            x       y       z     vdW  Elec       q    Type
                         _______ _______ _______ _____ _____    ______ ____

>  <TORSDO>
F 3

$$$$
=
 OpenBabel07192307433D

 29 30  0  0  0  0  0  0  0  0999 V2000
    3.9030    4.5750   18.5370 C   0  0  0  0  0  0  0  0  0  0  0  0
    3.5370    5.8970   18.8380 C   0  0  0  0  0  0  0  0  0  0  0  0
    2.4420    6.1760   19.6540 C   0  0  0  0  0  0  0  0  0  0  0  0
    1.6870    5.1450   20.1980 C   0  0  0  0  0  0  0  0  0  0  0  0
    2.0320    3.8220   19.9310 C   0  0  0  0  0  0  0  0  0  0  0  0
    3.1340    3.5460   19.1100 C   0  0  0  0  0  0  0  0  0  0  0  0
    2.0260    7.8120   19.9960 Cl  0  0  0  0  0  0  0  0  0  0  0  0
    4.1310    6.7220   18.4530 H   0  0  0  0  0  0  0  0  0  0  0  0
    0.8340    5.3620   20.8340 H   0  0  0  0  0  0  0  0  0  0  0  0
    3.3920    2.5150   18.8980 H   0  0  0  0  0  0  0  0  0  0  0  0
    4.8360    4.3490   16.2500 C   0  0  0  0  0  0  0  0  0  0  0  0
    6.1160    3.8520   15.5590 C   0  0  0  0  0  0  0  0  0  0  0  0
    7.2500    4.6550   15.9230 O   0  0  0  0  0  0  0  0  0  0  0  0
    7.4580    4.5940   17.3430 C   0  0  0  0  0  0  0  0  0  0  0  0
    6.2330    5.1040   18.1210 C   0  0  0  0  0  0  0  0  0  0  0  0
    5.0220    4.3430   17.7180 N   0  0  0  0  0  0  0  0  0  0  0  0
    4.0060    3.6940   15.9630 H   0  0  0  0  0  0  0  0  0  0  0  0
    4.6240    5.3710   15.9090 H   0  0  0  0  0  0  0  0  0  0  0  0
    6.3220    2.8050   15.8140 H   0  0  0  0  0  0  0  0  0  0  0  0
    5.9990    3.9140   14.4730 H   0  0  0  0  0  0  0  0  0  0  0  0
    8.3290    5.2150   17.5760 H   0  0  0  0  0  0  0  0  0  0  0  0
    7.6980    3.5620   17.6230 H   0  0  0  0  0  0  0  0  0  0  0  0
    6.4440    5.0070   19.1920 H   0  0  0  0  0  0  0  0  0  0  0  0
    6.0750    6.1660   17.8980 H   0  0  0  0  0  0  0  0  0  0  0  0
    1.2180    2.8940   20.5240 O   0  0  0  0  0  0  0  0  0  0  0  0
    1.5270    2.5170   21.8590 C   0  0  0  0  0  0  0  0  0  0  0  0
    0.6310    2.1860   22.3940 H   0  0  0  0  0  0  0  0  0  0  0  0
    2.0290    3.3320   22.3930 H   0  0  0  0  0  0  0  0  0  0  0  0
    2.2210    1.6720   21.8160 H   0  0  0  0  0  0  0  0  0  0  0  0
  1  2  2  0  0  0  0
  1  6  1  0  0  0  0
  2  3  1  0  0  0  0
  3  7  1  0  0  0  0
  3  4  2  0  0  0  0
  4  9  1  0  0  0  0
  5  4  1  0  0  0  0
  5 25  1  0  0  0  0
  6  5  2  0  0  0  0
  8  2  1  0  0  0  0
 10  6  1  0  0  0  0
 11 16  1  0  0  0  0
 12 19  1  0  0  0  0
 12 13  1  0  0  0  0
 12 11  1  0  0  0  0
 13 14  1  0  0  0  0
 14 21  1  0  0  0  0
 14 22  1  0  0  0  0
 14 15  1  0  0  0  0
 15 23  1  0  0  0  0
 16 15  1  0  0  0  0
 16  1  1  0  0  0  0
 17 11  1  0  0  0  0
 18 11  1  0  0  0  0
 20 12  1  0  0  0  0
 24 15  1  0  0  0  0
 25 26  1  0  0  0  0
 26 28  1  0  0  0  0
 26 27  1  0  0  0  0
 29 26  1  0  0  0  0
M  END
>  <MODEL>
4

>  <REMARK>
 VINA RESULT:    -5.752      2.081      5.703
 INTER + INTRA:          -6.792
 INTER:                  -6.601
 INTRA:                  -0.191
 UNBOUND:                -0.199
  Name = 
  3 active torsions:
  status: ('A' for Active; 'I' for Inactive)
    1  A    between atoms: N_6  and  C_7
    2  A    between atoms: C_11  and  O_13
    3  A    between atoms: O_13  and  C_14
                            x       y       z     vdW  Elec       q    Type
                         _______ _______ _______ _____ _____    ______ ____

>  <TORSDO>
F 3

$$$$
=
 OpenBabel07192307433D

 29 30  0  0  0  0  0  0  0  0999 V2000
    3.7320    4.8510   18.7300 C   0  0  0  0  0  0  0  0  0  0  0  0
    2.9360    3.7140   18.5180 C   0  0  0  0  0  0  0  0  0  0  0  0
    1.6970    3.5720   19.1410 C   0  0  0  0  0  0  0  0  0  0  0  0
    1.2150    4.5630   19.9860 C   0  0  0  0  0  0  0  0  0  0  0  0
    1.9730    5.7110   20.2060 C   0  0  0  0  0  0  0  0  0  0  0  0
    3.2190    5.8500   19.5770 C   0  0  0  0  0  0  0  0  0  0  0  0
    0.7540    2.1600   18.8550 Cl  0  0  0  0  0  0  0  0  0  0  0  0
    3.2740    2.9390   17.8350 H   0  0  0  0  0  0  0  0  0  0  0  0
    0.2500    4.4530   20.4700 H   0  0  0  0  0  0  0  0  0  0  0  0
    3.8080    6.7400   19.7600 H   0  0  0  0  0  0  0  0  0  0  0  0
    6.1950    5.0920   18.8870 C   0  0  0  0  0  0  0  0  0  0  0  0
    7.3930    5.4190   17.9820 C   0  0  0  0  0  0  0  0  0  0  0  0
    7.5750    4.4110   16.9740 O   0  0  0  0  0  0  0  0  0  0  0  0
    6.4010    4.3270   16.1480 C   0  0  0  0  0  0  0  0  0  0  0  0
    5.1500    3.9720   16.9700 C   0  0  0  0  0  0  0  0  0  0  0  0
    4.9700    4.9540   18.0710 N   0  0  0  0  0  0  0  0  0  0  0  0
    6.0820    5.8970   19.6220 H   0  0  0  0  0  0  0  0  0  0  0  0
    6.3960    4.1490   19.4130 H   0  0  0  0  0  0  0  0  0  0  0  0
    7.2670    6.3930   17.4940 H   0  0  0  0  0  0  0  0  0  0  0  0
    8.3090    5.4600   18.5780 H   0  0  0  0  0  0  0  0  0  0  0  0
    6.5820    3.5530   15.3950 H   0  0  0  0  0  0  0  0  0  0  0  0
    6.2680    5.2800   15.6230 H   0  0  0  0  0  0  0  0  0  0  0  0
    4.2910    3.9500   16.2910 H   0  0  0  0  0  0  0  0  0  0  0  0
    5.2710    2.9710   17.4040 H   0  0  0  0  0  0  0  0  0  0  0  0
    1.3950    6.6180   21.0520 O   0  0  0  0  0  0  0  0  0  0  0  0
    1.5150    7.9930   20.7130 C   0  0  0  0  0  0  0  0  0  0  0  0
    0.5380    8.4290   20.4770 H   0  0  0  0  0  0  0  0  0  0  0  0
    2.2220    8.1360   19.8880 H   0  0  0  0  0  0  0  0  0  0  0  0
    1.9130    8.5200   21.5860 H   0  0  0  0  0  0  0  0  0  0  0  0
  1  6  1  0  0  0  0
  2  1  2  0  0  0  0
  2  3  1  0  0  0  0
  3  4  2  0  0  0  0
  4  5  1  0  0  0  0
  4  9  1  0  0  0  0
  5 25  1  0  0  0  0
  6 10  1  0  0  0  0
  6  5  2  0  0  0  0
  7  3  1  0  0  0  0
  8  2  1  0  0  0  0
 11 18  1  0  0  0  0
 11 17  1  0  0  0  0
 12 20  1  0  0  0  0
 12 11  1  0  0  0  0
 13 12  1  0  0  0  0
 14 15  1  0  0  0  0
 14 13  1  0  0  0  0
 15 24  1  0  0  0  0
 15 16  1  0  0  0  0
 16  1  1  0  0  0  0
 16 11  1  0  0  0  0
 19 12  1  0  0  0  0
 21 14  1  0  0  0  0
 22 14  1  0  0  0  0
 23 15  1  0  0  0  0
 26 25  1  0  0  0  0
 26 29  1  0  0  0  0
 27 26  1  0  0  0  0
 28 26  1  0  0  0  0
M  END
>  <MODEL>
5

>  <REMARK>
 VINA RESULT:    -5.666      2.749      5.841
 INTER + INTRA:          -6.693
 INTER:                  -6.482
 INTRA:                  -0.211
 UNBOUND:                -0.199
  Name = 
  3 active torsions:
  status: ('A' for Active; 'I' for Inactive)
    1  A    between atoms: N_6  and  C_7
    2  A    between atoms: C_11  and  O_13
    3  A    between atoms: O_13  and  C_14
                            x       y       z     vdW  Elec       q    Type
                         _______ _______ _______ _____ _____    ______ ____

>  <TORSDO>
F 3

$$$$
=
 OpenBabel07192307433D

 29 30  0  0  0  0  0  0  0  0999 V2000
    3.7420    5.0530   18.5890 C   0  0  0  0  0  0  0  0  0  0  0  0
    3.2560    6.2670   19.1030 C   0  0  0  0  0  0  0  0  0  0  0  0
    2.1780    6.2990   19.9860 C   0  0  0  0  0  0  0  0  0  0  0  0
    1.5600    5.1220   20.3860 C   0  0  0  0  0  0  0  0  0  0  0  0
    2.0270    3.8990   19.9070 C   0  0  0  0  0  0  0  0  0  0  0  0
    3.1110    3.8720   19.0190 C   0  0  0  0  0  0  0  0  0  0  0  0
    1.6130    7.8090   20.5890 Cl  0  0  0  0  0  0  0  0  0  0  0  0
    3.7430    7.2000   18.8320 H   0  0  0  0  0  0  0  0  0  0  0  0
    0.7210    5.1470   21.0740 H   0  0  0  0  0  0  0  0  0  0  0  0
    3.4630    2.9200   18.6420 H   0  0  0  0  0  0  0  0  0  0  0  0
    6.1890    5.2960   18.2690 C   0  0  0  0  0  0  0  0  0  0  0  0
    7.1990    5.5080   17.1300 C   0  0  0  0  0  0  0  0  0  0  0  0
    7.2110    4.3890   16.2290 O   0  0  0  0  0  0  0  0  0  0  0  0
    5.9090    4.2170   15.6450 C   0  0  0  0  0  0  0  0  0  0  0  0
    4.8330    3.9670   16.7150 C   0  0  0  0  0  0  0  0  0  0  0  0
    4.8390    5.0710   17.7090 N   0  0  0  0  0  0  0  0  0  0  0  0
    6.1990    6.1810   18.9150 H   0  0  0  0  0  0  0  0  0  0  0  0
    6.4960    4.4190   18.8550 H   0  0  0  0  0  0  0  0  0  0  0  0
    6.9710    6.4200   16.5650 H   0  0  0  0  0  0  0  0  0  0  0  0
    8.2070    5.6120   17.5420 H   0  0  0  0  0  0  0  0  0  0  0  0
    5.9620    3.3600   14.9660 H   0  0  0  0  0  0  0  0  0  0  0  0
    5.6690    5.1030   15.0460 H   0  0  0  0  0  0  0  0  0  0  0  0
    3.8650    3.8720   16.2100 H   0  0  0  0  0  0  0  0  0  0  0  0
    5.0440    3.0230   17.2320 H   0  0  0  0  0  0  0  0  0  0  0  0
    1.3420    2.8100   20.3740 O   0  0  0  0  0  0  0  0  0  0  0  0
    1.4830    2.4960   21.7540 C   0  0  0  0  0  0  0  0  0  0  0  0
    0.5110    2.4850   22.2570 H   0  0  0  0  0  0  0  0  0  0  0  0
    2.1770    3.1860   22.2470 H   0  0  0  0  0  0  0  0  0  0  0  0
    1.9070    1.4900   21.8270 H   0  0  0  0  0  0  0  0  0  0  0  0
  1  6  2  0  0  0  0
  1  2  1  0  0  0  0
  2  3  2  0  0  0  0
  3  4  1  0  0  0  0
  3  7  1  0  0  0  0
  4  9  1  0  0  0  0
  5 25  1  0  0  0  0
  5  4  2  0  0  0  0
  6  5  1  0  0  0  0
  8  2  1  0  0  0  0
 10  6  1  0  0  0  0
 11 18  1  0  0  0  0
 11 17  1  0  0  0  0
 12 20  1  0  0  0  0
 12 11  1  0  0  0  0
 13 12  1  0  0  0  0
 14 13  1  0  0  0  0
 14 15  1  0  0  0  0
 15 24  1  0  0  0  0
 15 16  1  0  0  0  0
 16 11  1  0  0  0  0
 16  1  1  0  0  0  0
 19 12  1  0  0  0  0
 21 14  1  0  0  0  0
 22 14  1  0  0  0  0
 23 15  1  0  0  0  0
 25 26  1  0  0  0  0
 26 29  1  0  0  0  0
 26 28  1  0  0  0  0
 26 27  1  0  0  0  0
M  END
>  <MODEL>
6

>  <REMARK>
 VINA RESULT:    -5.581      2.215      5.610
 INTER + INTRA:          -6.596
 INTER:                  -6.400
 INTRA:                  -0.196
 UNBOUND:                -0.199
  Name = 
  3 active torsions:
  status: ('A' for Active; 'I' for Inactive)
    1  A    between atoms: N_6  and  C_7
    2  A    between atoms: C_11  and  O_13
    3  A    between atoms: O_13  and  C_14
                            x       y       z     vdW  Elec       q    Type
                         _______ _______ _______ _____ _____    ______ ____

>  <TORSDO>
F 3

$$$$
=
 OpenBabel07192307433D

 29 30  0  0  0  0  0  0  0  0999 V2000
    3.2470    5.2120   18.6020 C   0  0  0  0  0  0  0  0  0  0  0  0
    2.6010    6.4600   18.5680 C   0  0  0  0  0  0  0  0  0  0  0  0
    3.0710    7.4950   17.7620 C   0  0  0  0  0  0  0  0  0  0  0  0
    4.1910    7.3140   16.9620 C   0  0  0  0  0  0  0  0  0  0  0  0
    4.8470    6.0840   16.9610 C   0  0  0  0  0  0  0  0  0  0  0  0
    4.3710    5.0450   17.7730 C   0  0  0  0  0  0  0  0  0  0  0  0
    2.2500    9.0090   17.7530 Cl  0  0  0  0  0  0  0  0  0  0  0  0
    1.7030    6.6170   19.1590 H   0  0  0  0  0  0  0  0  0  0  0  0
    4.5560    8.1200   16.3340 H   0  0  0  0  0  0  0  0  0  0  0  0
    4.8900    4.0950   17.7750 H   0  0  0  0  0  0  0  0  0  0  0  0
    2.4260    4.5140   20.8350 C   0  0  0  0  0  0  0  0  0  0  0  0
    2.0970    3.2240   21.6030 C   0  0  0  0  0  0  0  0  0  0  0  0
    0.9970    2.5240   21.0000 O   0  0  0  0  0  0  0  0  0  0  0  0
    1.3270    2.1660   19.6480 C   0  0  0  0  0  0  0  0  0  0  0  0
    1.6430    3.4040   18.7910 C   0  0  0  0  0  0  0  0  0  0  0  0
    2.7300    4.1950   19.4230 N   0  0  0  0  0  0  0  0  0  0  0  0
    3.2820    4.9990   21.3160 H   0  0  0  0  0  0  0  0  0  0  0  0
    1.5580    5.1850   20.8830 H   0  0  0  0  0  0  0  0  0  0  0  0
    2.9670    2.5560   21.6450 H   0  0  0  0  0  0  0  0  0  0  0  0
    1.8120    3.4660   22.6310 H   0  0  0  0  0  0  0  0  0  0  0  0
    0.4670    1.6340   19.2280 H   0  0  0  0  0  0  0  0  0  0  0  0
    2.1760    1.4710   19.6610 H   0  0  0  0  0  0  0  0  0  0  0  0
    1.9110    3.0630   17.7850 H   0  0  0  0  0  0  0  0  0  0  0  0
    0.7460    4.0320   18.7130 H   0  0  0  0  0  0  0  0  0  0  0  0
    5.9330    6.0230   16.1310 O   0  0  0  0  0  0  0  0  0  0  0  0
    6.7480    4.8610   16.2110 C   0  0  0  0  0  0  0  0  0  0  0  0
    7.2570    4.8000   17.1780 H   0  0  0  0  0  0  0  0  0  0  0  0
    7.4640    4.8240   15.3830 H   0  0  0  0  0  0  0  0  0  0  0  0
    6.0930    3.9870   16.1230 H   0  0  0  0  0  0  0  0  0  0  0  0
  1 16  1  0  0  0  0
  2  1  1  0  0  0  0
  2  8  1  0  0  0  0
  3  2  2  0  0  0  0
  4  3  1  0  0  0  0
  5  4  2  0  0  0  0
  5  6  1  0  0  0  0
  6 10  1  0  0  0  0
  6  1  2  0  0  0  0
  7  3  1  0  0  0  0
  9  4  1  0  0  0  0
 11 18  1  0  0  0  0
 11 17  1  0  0  0  0
 11 12  1  0  0  0  0
 12 19  1  0  0  0  0
 12 20  1  0  0  0  0
 13 12  1  0  0  0  0
 14 22  1  0  0  0  0
 14 13  1  0  0  0  0
 15 16  1  0  0  0  0
 15 14  1  0  0  0  0
 16 11  1  0  0  0  0
 21 14  1  0  0  0  0
 23 15  1  0  0  0  0
 24 15  1  0  0  0  0
 25 26  1  0  0  0  0
 25  5  1  0  0  0  0
 26 27  1  0  0  0  0
 28 26  1  0  0  0  0
 29 26  1  0  0  0  0
M  END
>  <MODEL>
7

>  <REMARK>
 VINA RESULT:    -5.499      2.539      2.792
 INTER + INTRA:          -6.502
 INTER:                  -6.306
 INTRA:                  -0.195
 UNBOUND:                -0.199
  Name = 
  3 active torsions:
  status: ('A' for Active; 'I' for Inactive)
    1  A    between atoms: N_6  and  C_7
    2  A    between atoms: C_11  and  O_13
    3  A    between atoms: O_13  and  C_14
                            x       y       z     vdW  Elec       q    Type
                         _______ _______ _______ _____ _____    ______ ____

>  <TORSDO>
F 3

$$$$
=
 OpenBabel07192307433D

 29 30  0  0  0  0  0  0  0  0999 V2000
    3.3370    6.1870   18.1580 C   0  0  0  0  0  0  0  0  0  0  0  0
    2.6370    4.9700   18.1200 C   0  0  0  0  0  0  0  0  0  0  0  0
    3.2110    3.8220   17.5760 C   0  0  0  0  0  0  0  0  0  0  0  0
    4.5000    3.8540   17.0620 C   0  0  0  0  0  0  0  0  0  0  0  0
    5.2280    5.0420   17.0970 C   0  0  0  0  0  0  0  0  0  0  0  0
    4.6470    6.1940   17.6450 C   0  0  0  0  0  0  0  0  0  0  0  0
    2.3160    2.3510   17.5470 Cl  0  0  0  0  0  0  0  0  0  0  0  0
    1.6390    4.9090   18.5460 H   0  0  0  0  0  0  0  0  0  0  0  0
    4.9470    2.9600   16.6390 H   0  0  0  0  0  0  0  0  0  0  0  0
    5.2140    7.1170   17.6610 H   0  0  0  0  0  0  0  0  0  0  0  0
    1.9790    8.2370   17.8380 C   0  0  0  0  0  0  0  0  0  0  0  0
    1.5870    9.5060   18.6110 C   0  0  0  0  0  0  0  0  0  0  0  0
    0.8000    9.1880   19.7700 O   0  0  0  0  0  0  0  0  0  0  0  0
    1.5520    8.3410   20.6550 C   0  0  0  0  0  0  0  0  0  0  0  0
    1.9640    7.0260   19.9720 C   0  0  0  0  0  0  0  0  0  0  0  0
    2.7200    7.3160   18.7260 N   0  0  0  0  0  0  0  0  0  0  0  0
    2.5950    8.5260   16.9790 H   0  0  0  0  0  0  0  0  0  0  0  0
    1.0650    7.7460   17.4770 H   0  0  0  0  0  0  0  0  0  0  0  0
    2.4760   10.0680   18.9240 H   0  0  0  0  0  0  0  0  0  0  0  0
    0.9860   10.1600   17.9710 H   0  0  0  0  0  0  0  0  0  0  0  0
    0.9210    8.1270   21.5230 H   0  0  0  0  0  0  0  0  0  0  0  0
    2.4320    8.8910   21.0100 H   0  0  0  0  0  0  0  0  0  0  0  0
    2.5530    6.4410   20.6860 H   0  0  0  0  0  0  0  0  0  0  0  0
    1.0650    6.4510   19.7160 H   0  0  0  0  0  0  0  0  0  0  0  0
    6.4870    4.9500   16.5670 O   0  0  0  0  0  0  0  0  0  0  0  0
    7.5550    4.6910   17.4680 C   0  0  0  0  0  0  0  0  0  0  0  0
    7.4760    3.6850   17.8940 H   0  0  0  0  0  0  0  0  0  0  0  0
    7.6020    5.4520   18.2540 H   0  0  0  0  0  0  0  0  0  0  0  0
    8.4900    4.7400   16.9010 H   0  0  0  0  0  0  0  0  0  0  0  0
  1 16  1  0  0  0  0
  2  1  1  0  0  0  0
  2  8  1  0  0  0  0
  3  2  2  0  0  0  0
  4  5  2  0  0  0  0
  4  3  1  0  0  0  0
  5  6  1  0  0  0  0
  6 10  1  0  0  0  0
  6  1  2  0  0  0  0
  7  3  1  0  0  0  0
  9  4  1  0  0  0  0
 11 12  1  0  0  0  0
 11 16  1  0  0  0  0
 12 19  1  0  0  0  0
 12 13  1  0  0  0  0
 13 14  1  0  0  0  0
 14 22  1  0  0  0  0
 14 21  1  0  0  0  0
 15 14  1  0  0  0  0
 15 23  1  0  0  0  0
 16 15  1  0  0  0  0
 17 11  1  0  0  0  0
 18 11  1  0  0  0  0
 20 12  1  0  0  0  0
 24 15  1  0  0  0  0
 25  5  1  0  0  0  0
 25 26  1  0  0  0  0
 26 27  1  0  0  0  0
 26 28  1  0  0  0  0
 29 26  1  0  0  0  0
M  END
>  <MODEL>
8

>  <REMARK>
 VINA RESULT:    -5.379      3.499      4.171
 INTER + INTRA:          -6.364
 INTER:                  -6.172
 INTRA:                  -0.192
 UNBOUND:                -0.199
  Name = 
  3 active torsions:
  status: ('A' for Active; 'I' for Inactive)
    1  A    between atoms: N_6  and  C_7
    2  A    between atoms: C_11  and  O_13
    3  A    between atoms: O_13  and  C_14
                            x       y       z     vdW  Elec       q    Type
                         _______ _______ _______ _____ _____    ______ ____

>  <TORSDO>
F 3

$$$$
=
 OpenBabel07192307433D

 29 30  0  0  0  0  0  0  0  0999 V2000
    3.1380    5.3540   18.6210 C   0  0  0  0  0  0  0  0  0  0  0  0
    4.1840    5.0760   17.7260 C   0  0  0  0  0  0  0  0  0  0  0  0
    4.6780    6.0550   16.8650 C   0  0  0  0  0  0  0  0  0  0  0  0
    4.1490    7.3380   16.8800 C   0  0  0  0  0  0  0  0  0  0  0  0
    3.1210    7.6510   17.7660 C   0  0  0  0  0  0  0  0  0  0  0  0
    2.6270    6.6640   18.6290 C   0  0  0  0  0  0  0  0  0  0  0  0
    5.9600    5.6700   15.7820 Cl  0  0  0  0  0  0  0  0  0  0  0  0
    4.6380    4.0890   17.7180 H   0  0  0  0  0  0  0  0  0  0  0  0
    4.5350    8.1010   16.2100 H   0  0  0  0  0  0  0  0  0  0  0  0
    1.8200    6.9100   19.3100 H   0  0  0  0  0  0  0  0  0  0  0  0
    2.3590    4.6840   20.8780 C   0  0  0  0  0  0  0  0  0  0  0  0
    2.1050    3.4030   21.6890 C   0  0  0  0  0  0  0  0  0  0  0  0
    1.0450    2.6230   21.1120 O   0  0  0  0  0  0  0  0  0  0  0  0
    1.3920    2.2400   19.7720 C   0  0  0  0  0  0  0  0  0  0  0  0
    1.6370    3.4650   18.8740 C   0  0  0  0  0  0  0  0  0  0  0  0
    2.6800    4.3360   19.4770 N   0  0  0  0  0  0  0  0  0  0  0  0
    3.1880    5.2310   21.3410 H   0  0  0  0  0  0  0  0  0  0  0  0
    1.4550    5.3060   20.9070 H   0  0  0  0  0  0  0  0  0  0  0  0
    3.0100    2.7870   21.7500 H   0  0  0  0  0  0  0  0  0  0  0  0
    1.8080    3.6630   22.7100 H   0  0  0  0  0  0  0  0  0  0  0  0
    0.5630    1.6480   19.3720 H   0  0  0  0  0  0  0  0  0  0  0  0
    2.2780    1.5950   19.8050 H   0  0  0  0  0  0  0  0  0  0  0  0
    1.9220    3.1080   17.8790 H   0  0  0  0  0  0  0  0  0  0  0  0
    0.7070    4.0390   18.7790 H   0  0  0  0  0  0  0  0  0  0  0  0
    2.6840    8.9460   17.6910 O   0  0  0  0  0  0  0  0  0  0  0  0
    1.4320    9.2460   18.2950 C   0  0  0  0  0  0  0  0  0  0  0  0
    1.4100   10.2760   18.6670 H   0  0  0  0  0  0  0  0  0  0  0  0
    1.1970    8.5320   19.0910 H   0  0  0  0  0  0  0  0  0  0  0  0
    0.6590    9.1530   17.5250 H   0  0  0  0  0  0  0  0  0  0  0  0
  1  6  1  0  0  0  0
  1 16  1  0  0  0  0
  2  1  2  0  0  0  0
  3  4  2  0  0  0  0
  3  2  1  0  0  0  0
  4  5  1  0  0  0  0
  5  6  2  0  0  0  0
  6 10  1  0  0  0  0
  7  3  1  0  0  0  0
  8  2  1  0  0  0  0
  9  4  1  0  0  0  0
 11 18  1  0  0  0  0
 11 17  1  0  0  0  0
 11 12  1  0  0  0  0
 12 19  1  0  0  0  0
 12 20  1  0  0  0  0
 13 12  1  0  0  0  0
 14 22  1  0  0  0  0
 14 13  1  0  0  0  0
 15 16  1  0  0  0  0
 15 14  1  0  0  0  0
 16 11  1  0  0  0  0
 21 14  1  0  0  0  0
 23 15  1  0  0  0  0
 24 15  1  0  0  0  0
 25  5  1  0  0  0  0
 25 26  1  0  0  0  0
 26 27  1  0  0  0  0
 26 28  1  0  0  0  0
 29 26  1  0  0  0  0
M  END
>  <MODEL>
9

>  <REMARK>
 VINA RESULT:    -5.337      2.922      3.680
 INTER + INTRA:          -6.316
 INTER:                  -6.124
 INTRA:                  -0.192
 UNBOUND:                -0.199
  Name = 
  3 active torsions:
  status: ('A' for Active; 'I' for Inactive)
    1  A    between atoms: N_6  and  C_7
    2  A    between atoms: C_11  and  O_13
    3  A    between atoms: O_13  and  C_14
                            x       y       z     vdW  Elec       q    Type
                         _______ _______ _______ _____ _____    ______ ____

>  <TORSDO>
F 3

$$$$
=
 OpenBabel07192307433D

 29 30  0  0  0  0  0  0  0  0999 V2000
    2.4230    6.0530   19.6230 C   0  0  0  0  0  0  0  0  0  0  0  0
    1.7590    5.1200   20.4370 C   0  0  0  0  0  0  0  0  0  0  0  0
    2.2970    3.8560   20.6750 C   0  0  0  0  0  0  0  0  0  0  0  0
    3.5140    3.4910   20.1150 C   0  0  0  0  0  0  0  0  0  0  0  0
    4.2050    4.3970   19.3140 C   0  0  0  0  0  0  0  0  0  0  0  0
    3.6600    5.6670   19.0770 C   0  0  0  0  0  0  0  0  0  0  0  0
    1.4490    2.7420   21.6780 Cl  0  0  0  0  0  0  0  0  0  0  0  0
    0.8220    5.3920   20.9160 H   0  0  0  0  0  0  0  0  0  0  0  0
    3.9330    2.5060   20.3010 H   0  0  0  0  0  0  0  0  0  0  0  0
    4.1980    6.3650   18.4460 H   0  0  0  0  0  0  0  0  0  0  0  0
    1.5990    8.1780   20.5990 C   0  0  0  0  0  0  0  0  0  0  0  0
    0.7630    9.4010   20.1880 C   0  0  0  0  0  0  0  0  0  0  0  0
    1.4110   10.1500   19.1480 O   0  0  0  0  0  0  0  0  0  0  0  0
    1.5910    9.3230   17.9870 C   0  0  0  0  0  0  0  0  0  0  0  0
    2.4470    8.0830   18.2980 C   0  0  0  0  0  0  0  0  0  0  0  0
    1.8450    7.3190   19.4210 N   0  0  0  0  0  0  0  0  0  0  0  0
    1.0560    7.6270   21.3740 H   0  0  0  0  0  0  0  0  0  0  0  0
    2.5570    8.5260   21.0080 H   0  0  0  0  0  0  0  0  0  0  0  0
   -0.2350    9.0990   19.8440 H   0  0  0  0  0  0  0  0  0  0  0  0
    0.6330   10.0670   21.0460 H   0  0  0  0  0  0  0  0  0  0  0  0
    2.0830    9.9310   17.2210 H   0  0  0  0  0  0  0  0  0  0  0  0
    0.6070    9.0330   17.6020 H   0  0  0  0  0  0  0  0  0  0  0  0
    2.5240    7.4840   17.3840 H   0  0  0  0  0  0  0  0  0  0  0  0
    3.4570    8.4010   18.5860 H   0  0  0  0  0  0  0  0  0  0  0  0
    5.3920    3.9270   18.8220 O   0  0  0  0  0  0  0  0  0  0  0  0
    6.1640    4.8170   18.0260 C   0  0  0  0  0  0  0  0  0  0  0  0
    5.5430    5.3130   17.2730 H   0  0  0  0  0  0  0  0  0  0  0  0
    7.0110    4.2980   17.5620 H   0  0  0  0  0  0  0  0  0  0  0  0
    6.5690    5.5900   18.6860 H   0  0  0  0  0  0  0  0  0  0  0  0
  1  2  1  0  0  0  0
  2  3  2  0  0  0  0
  2  8  1  0  0  0  0
  3  7  1  0  0  0  0
  4  9  1  0  0  0  0
  4  3  1  0  0  0  0
  5  4  2  0  0  0  0
  6  5  1  0  0  0  0
  6  1  2  0  0  0  0
 10  6  1  0  0  0  0
 11 18  1  0  0  0  0
 11 17  1  0  0  0  0
 12 11  1  0  0  0  0
 12 20  1  0  0  0  0
 13 12  1  0  0  0  0
 14 15  1  0  0  0  0
 14 13  1  0  0  0  0
 15 24  1  0  0  0  0
 15 16  1  0  0  0  0
 16  1  1  0  0  0  0
 16 11  1  0  0  0  0
 19 12  1  0  0  0  0
 21 14  1  0  0  0  0
 22 14  1  0  0  0  0
 23 15  1  0  0  0  0
 25  5  1  0  0  0  0
 26 29  1  0  0  0  0
 26 25  1  0  0  0  0
 27 26  1  0  0  0  0
 28 26  1  0  0  0  0
M  END
>  <MODEL>
10

>  <REMARK>
 VINA RESULT:    -5.314      3.928      4.958
 INTER + INTRA:          -6.290
 INTER:                  -6.081
 INTRA:                  -0.209
 UNBOUND:                -0.199
  Name = 
  3 active torsions:
  status: ('A' for Active; 'I' for Inactive)
    1  A    between atoms: N_6  and  C_7
    2  A    between atoms: C_11  and  O_13
    3  A    between atoms: O_13  and  C_14
                            x       y       z     vdW  Elec       q    Type
                         _______ _______ _______ _____ _____    ______ ____

>  <TORSDO>
F 3

$$$$
=
 OpenBabel07192307433D

 29 30  0  0  0  0  0  0  0  0999 V2000
    3.2890    6.2600   18.0350 C   0  0  0  0  0  0  0  0  0  0  0  0
    4.5140    6.3970   17.3620 C   0  0  0  0  0  0  0  0  0  0  0  0
    5.1290    5.3070   16.7500 C   0  0  0  0  0  0  0  0  0  0  0  0
    4.5360    4.0520   16.7840 C   0  0  0  0  0  0  0  0  0  0  0  0
    3.3130    3.8840   17.4300 C   0  0  0  0  0  0  0  0  0  0  0  0
    2.6980    4.9830   18.0450 C   0  0  0  0  0  0  0  0  0  0  0  0
    6.6330    5.5200   15.9370 Cl  0  0  0  0  0  0  0  0  0  0  0  0
    4.9830    7.3760   17.2910 H   0  0  0  0  0  0  0  0  0  0  0  0
    5.0150    3.2030   16.3060 H   0  0  0  0  0  0  0  0  0  0  0  0
    1.7520    4.8450   18.5550 H   0  0  0  0  0  0  0  0  0  0  0  0
    1.9560    8.3340   17.7670 C   0  0  0  0  0  0  0  0  0  0  0  0
    1.6010    9.6000   18.5620 C   0  0  0  0  0  0  0  0  0  0  0  0
    0.8350    9.2810   19.7350 O   0  0  0  0  0  0  0  0  0  0  0  0
    1.5930    8.4140   20.5940 C   0  0  0  0  0  0  0  0  0  0  0  0
    1.9690    7.1000   19.8880 C   0  0  0  0  0  0  0  0  0  0  0  0
    2.7020    7.3910   18.6290 N   0  0  0  0  0  0  0  0  0  0  0  0
    2.5570    8.6230   16.8980 H   0  0  0  0  0  0  0  0  0  0  0  0
    1.0270    7.8610   17.4210 H   0  0  0  0  0  0  0  0  0  0  0  0
    2.5050   10.1450   18.8620 H   0  0  0  0  0  0  0  0  0  0  0  0
    0.9960   10.2700   17.9440 H   0  0  0  0  0  0  0  0  0  0  0  0
    0.9780    8.1990   21.4730 H   0  0  0  0  0  0  0  0  0  0  0  0
    2.4890    8.9460   20.9350 H   0  0  0  0  0  0  0  0  0  0  0  0
    2.5650    6.4980   20.5830 H   0  0  0  0  0  0  0  0  0  0  0  0
    1.0560    6.5410   19.6460 H   0  0  0  0  0  0  0  0  0  0  0  0
    2.8260    2.6050   17.3950 O   0  0  0  0  0  0  0  0  0  0  0  0
    3.1330    1.7620   18.4980 C   0  0  0  0  0  0  0  0  0  0  0  0
    3.6780    2.3080   19.2740 H   0  0  0  0  0  0  0  0  0  0  0  0
    3.6880    0.8750   18.1730 H   0  0  0  0  0  0  0  0  0  0  0  0
    2.1870    1.4210   18.9320 H   0  0  0  0  0  0  0  0  0  0  0  0
  1  6  1  0  0  0  0
  1 16  1  0  0  0  0
  2  1  2  0  0  0  0
  3  4  2  0  0  0  0
  3  2  1  0  0  0  0
  4  5  1  0  0  0  0
  5  6  2  0  0  0  0
  6 10  1  0  0  0  0
  7  3  1  0  0  0  0
  8  2  1  0  0  0  0
  9  4  1  0  0  0  0
 11 12  1  0  0  0  0
 11 16  1  0  0  0  0
 12 19  1  0  0  0  0
 12 13  1  0  0  0  0
 13 14  1  0  0  0  0
 14 22  1  0  0  0  0
 14 21  1  0  0  0  0
 15 23  1  0  0  0  0
 15 14  1  0  0  0  0
 16 15  1  0  0  0  0
 17 11  1  0  0  0  0
 18 11  1  0  0  0  0
 20 12  1  0  0  0  0
 24 15  1  0  0  0  0
 25  5  1  0  0  0  0
 25 26  1  0  0  0  0
 26 29  1  0  0  0  0
 26 27  1  0  0  0  0
 28 26  1  0  0  0  0
M  END
>  <MODEL>
11

>  <REMARK>
 VINA RESULT:    -5.313      3.319      4.223
 INTER + INTRA:          -6.288
 INTER:                  -6.097
 INTRA:                  -0.191
 UNBOUND:                -0.199
  Name = 
  3 active torsions:
  status: ('A' for Active; 'I' for Inactive)
    1  A    between atoms: N_6  and  C_7
    2  A    between atoms: C_11  and  O_13
    3  A    between atoms: O_13  and  C_14
                            x       y       z     vdW  Elec       q    Type
                         _______ _______ _______ _____ _____    ______ ____

>  <TORSDO>
F 3

$$$$
=
 OpenBabel07192307433D

 29 30  0  0  0  0  0  0  0  0999 V2000
    4.1220    5.9410   17.8500 C   0  0  0  0  0  0  0  0  0  0  0  0
    3.4070    5.3250   18.8900 C   0  0  0  0  0  0  0  0  0  0  0  0
    2.3600    5.9810   19.5360 C   0  0  0  0  0  0  0  0  0  0  0  0
    1.9930    7.2650   19.1570 C   0  0  0  0  0  0  0  0  0  0  0  0
    2.6720    7.8990   18.1190 C   0  0  0  0  0  0  0  0  0  0  0  0
    3.7240    7.2360   17.4720 C   0  0  0  0  0  0  0  0  0  0  0  0
    1.5120    5.1890   20.8090 Cl  0  0  0  0  0  0  0  0  0  0  0  0
    3.6530    4.3070   19.1840 H   0  0  0  0  0  0  0  0  0  0  0  0
    1.1770    7.7750   19.6600 H   0  0  0  0  0  0  0  0  0  0  0  0
    4.2540    7.7380   16.6720 H   0  0  0  0  0  0  0  0  0  0  0  0
    5.2050    5.2050   15.7440 C   0  0  0  0  0  0  0  0  0  0  0  0
    6.2690    4.2020   15.2710 C   0  0  0  0  0  0  0  0  0  0  0  0
    7.5640    4.5280   15.8010 O   0  0  0  0  0  0  0  0  0  0  0  0
    7.5280    4.4960   17.2370 C   0  0  0  0  0  0  0  0  0  0  0  0
    6.5050    5.4950   17.8040 C   0  0  0  0  0  0  0  0  0  0  0  0
    5.1630    5.2350   17.2220 N   0  0  0  0  0  0  0  0  0  0  0  0
    4.2340    4.9030   15.3350 H   0  0  0  0  0  0  0  0  0  0  0  0
    5.4630    6.2010   15.3620 H   0  0  0  0  0  0  0  0  0  0  0  0
    6.0080    3.1790   15.5680 H   0  0  0  0  0  0  0  0  0  0  0  0
    6.3420    4.2250   14.1790 H   0  0  0  0  0  0  0  0  0  0  0  0
    8.5300    4.7460   17.5990 H   0  0  0  0  0  0  0  0  0  0  0  0
    7.3000    3.4740   17.5630 H   0  0  0  0  0  0  0  0  0  0  0  0
    6.5070    5.4030   18.8960 H   0  0  0  0  0  0  0  0  0  0  0  0
    6.8120    6.5160   17.5460 H   0  0  0  0  0  0  0  0  0  0  0  0
    2.2180    9.1590   17.8330 O   0  0  0  0  0  0  0  0  0  0  0  0
    1.1570    9.6650   18.6310 C   0  0  0  0  0  0  0  0  0  0  0  0
    0.7960    8.9080   19.3350 H   0  0  0  0  0  0  0  0  0  0  0  0
    0.3410   10.0470   18.0070 H   0  0  0  0  0  0  0  0  0  0  0  0
    1.5480   10.5040   19.2160 H   0  0  0  0  0  0  0  0  0  0  0  0
  1  2  1  0  0  0  0
  2  8  1  0  0  0  0
  2  3  2  0  0  0  0
  3  7  1  0  0  0  0
  4  3  1  0  0  0  0
  4  9  1  0  0  0  0
  5  4  2  0  0  0  0
  6  1  2  0  0  0  0
  6  5  1  0  0  0  0
 10  6  1  0  0  0  0
 11 16  1  0  0  0  0
 12 19  1  0  0  0  0
 12 11  1  0  0  0  0
 12 13  1  0  0  0  0
 13 14  1  0  0  0  0
 14 22  1  0  0  0  0
 14 21  1  0  0  0  0
 14 15  1  0  0  0  0
 15 23  1  0  0  0  0
 16 15  1  0  0  0  0
 16  1  1  0  0  0  0
 17 11  1  0  0  0  0
 18 11  1  0  0  0  0
 20 12  1  0  0  0  0
 24 15  1  0  0  0  0
 25  5  1  0  0  0  0
 25 26  1  0  0  0  0
 26 29  1  0  0  0  0
 26 27  1  0  0  0  0
 28 26  1  0  0  0  0
M  END
>  <MODEL>
12

>  <REMARK>
 VINA RESULT:    -5.254      3.392      5.803
 INTER + INTRA:          -6.221
 INTER:                  -6.028
 INTRA:                  -0.193
 UNBOUND:                -0.199
  Name = 
  3 active torsions:
  status: ('A' for Active; 'I' for Inactive)
    1  A    between atoms: N_6  and  C_7
    2  A    between atoms: C_11  and  O_13
    3  A    between atoms: O_13  and  C_14
                            x       y       z     vdW  Elec       q    Type
                         _______ _______ _______ _____ _____    ______ ____

>  <TORSDO>
F 3

$$$$
=
 OpenBabel07192307433D

 29 30  0  0  0  0  0  0  0  0999 V2000
    2.7140    6.2700   19.6020 C   0  0  0  0  0  0  0  0  0  0  0  0
    1.9620    5.3870   20.3950 C   0  0  0  0  0  0  0  0  0  0  0  0
    2.3520    4.0600   20.5680 C   0  0  0  0  0  0  0  0  0  0  0  0
    3.5050    3.5800   19.9620 C   0  0  0  0  0  0  0  0  0  0  0  0
    4.2810    4.4330   19.1800 C   0  0  0  0  0  0  0  0  0  0  0  0
    3.8860    5.7670   19.0090 C   0  0  0  0  0  0  0  0  0  0  0  0
    1.4010    3.0110   21.5480 Cl  0  0  0  0  0  0  0  0  0  0  0  0
    1.0740    5.7470   20.9090 H   0  0  0  0  0  0  0  0  0  0  0  0
    3.8090    2.5460   20.0970 H   0  0  0  0  0  0  0  0  0  0  0  0
    4.4870    6.4230   18.3920 H   0  0  0  0  0  0  0  0  0  0  0  0
    1.9660    8.1070   18.1130 C   0  0  0  0  0  0  0  0  0  0  0  0
    1.7470    9.6270   18.1590 C   0  0  0  0  0  0  0  0  0  0  0  0
    0.7030    9.9750   19.0820 O   0  0  0  0  0  0  0  0  0  0  0  0
    1.0520    9.5350   20.4050 C   0  0  0  0  0  0  0  0  0  0  0  0
    1.2610    8.0120   20.4610 C   0  0  0  0  0  0  0  0  0  0  0  0
    2.2860    7.6030   19.4660 N   0  0  0  0  0  0  0  0  0  0  0  0
    2.7840    7.8920   17.4160 H   0  0  0  0  0  0  0  0  0  0  0  0
    1.0470    7.6280   17.7480 H   0  0  0  0  0  0  0  0  0  0  0  0
    2.6680   10.1510   18.4460 H   0  0  0  0  0  0  0  0  0  0  0  0
    1.4510    9.9900   17.1710 H   0  0  0  0  0  0  0  0  0  0  0  0
    0.2340    9.8210   21.0750 H   0  0  0  0  0  0  0  0  0  0  0  0
    1.9530   10.0670   20.7310 H   0  0  0  0  0  0  0  0  0  0  0  0
    1.5490    7.7450   21.4840 H   0  0  0  0  0  0  0  0  0  0  0  0
    0.3170    7.5050   20.2270 H   0  0  0  0  0  0  0  0  0  0  0  0
    5.3940    3.8480   18.6380 O   0  0  0  0  0  0  0  0  0  0  0  0
    6.3840    4.7130   18.0970 C   0  0  0  0  0  0  0  0  0  0  0  0
    6.1070    5.7640   18.2300 H   0  0  0  0  0  0  0  0  0  0  0  0
    6.5740    4.4840   17.0420 H   0  0  0  0  0  0  0  0  0  0  0  0
    7.3150    4.5410   18.6470 H   0  0  0  0  0  0  0  0  0  0  0  0
  1  2  1  0  0  0  0
  2  3  2  0  0  0  0
  2  8  1  0  0  0  0
  3  7  1  0  0  0  0
  4  9  1  0  0  0  0
  4  3  1  0  0  0  0
  5  4  2  0  0  0  0
  6  5  1  0  0  0  0
  6  1  2  0  0  0  0
 10  6  1  0  0  0  0
 11 12  1  0  0  0  0
 11 16  1  0  0  0  0
 12 19  1  0  0  0  0
 12 13  1  0  0  0  0
 13 14  1  0  0  0  0
 14 15  1  0  0  0  0
 14 22  1  0  0  0  0
 14 21  1  0  0  0  0
 15 23  1  0  0  0  0
 16  1  1  0  0  0  0
 16 15  1  0  0  0  0
 17 11  1  0  0  0  0
 18 11  1  0  0  0  0
 20 12  1  0  0  0  0
 24 15  1  0  0  0  0
 25  5  1  0  0  0  0
 26 27  1  0  0  0  0
 26 25  1  0  0  0  0
 26 29  1  0  0  0  0
 28 26  1  0  0  0  0
M  END
>  <MODEL>
13

>  <REMARK>
 VINA RESULT:    -5.243      3.923      5.018
 INTER + INTRA:          -6.208
 INTER:                  -5.994
 INTRA:                  -0.214
 UNBOUND:                -0.199
  Name = 
  3 active torsions:
  status: ('A' for Active; 'I' for Inactive)
    1  A    between atoms: N_6  and  C_7
    2  A    between atoms: C_11  and  O_13
    3  A    between atoms: O_13  and  C_14
                            x       y       z     vdW  Elec       q    Type
                         _______ _______ _______ _____ _____    ______ ____

>  <TORSDO>
F 3

$$$$
=
 OpenBabel07192307433D

 29 30  0  0  0  0  0  0  0  0999 V2000
    2.5570    6.2560   18.9870 C   0  0  0  0  0  0  0  0  0  0  0  0
    3.3540    5.9550   17.8710 C   0  0  0  0  0  0  0  0  0  0  0  0
    4.0120    4.7310   17.7610 C   0  0  0  0  0  0  0  0  0  0  0  0
    3.8870    3.7720   18.7570 C   0  0  0  0  0  0  0  0  0  0  0  0
    3.0920    4.0330   19.8710 C   0  0  0  0  0  0  0  0  0  0  0  0
    2.4320    5.2650   19.9770 C   0  0  0  0  0  0  0  0  0  0  0  0
    4.9820    4.4040   16.3760 Cl  0  0  0  0  0  0  0  0  0  0  0  0
    3.4420    6.6750   17.0610 H   0  0  0  0  0  0  0  0  0  0  0  0
    4.3990    2.8180   18.6720 H   0  0  0  0  0  0  0  0  0  0  0  0
    1.8230    5.4660   20.8500 H   0  0  0  0  0  0  0  0  0  0  0  0
    1.6890    8.1210   20.3720 C   0  0  0  0  0  0  0  0  0  0  0  0
    0.7670    9.3430   20.2340 C   0  0  0  0  0  0  0  0  0  0  0  0
    1.3100   10.3030   19.3140 O   0  0  0  0  0  0  0  0  0  0  0  0
    1.4590    9.7070   18.0150 C   0  0  0  0  0  0  0  0  0  0  0  0
    2.3940    8.4870   18.0510 C   0  0  0  0  0  0  0  0  0  0  0  0
    1.9040    7.5000   19.0470 N   0  0  0  0  0  0  0  0  0  0  0  0
    1.2240    7.4080   21.0630 H   0  0  0  0  0  0  0  0  0  0  0  0
    2.6510    8.4490   20.7870 H   0  0  0  0  0  0  0  0  0  0  0  0
   -0.2330    9.0470   19.8940 H   0  0  0  0  0  0  0  0  0  0  0  0
    0.6580    9.8370   21.2040 H   0  0  0  0  0  0  0  0  0  0  0  0
    1.8700   10.4710   17.3460 H   0  0  0  0  0  0  0  0  0  0  0  0
    0.4680    9.4300   17.6360 H   0  0  0  0  0  0  0  0  0  0  0  0
    2.4440    8.0660   17.0410 H   0  0  0  0  0  0  0  0  0  0  0  0
    3.4030    8.8100   18.3380 H   0  0  0  0  0  0  0  0  0  0  0  0
    3.0420    3.0130   20.7830 O   0  0  0  0  0  0  0  0  0  0  0  0
    1.8690    2.9090   21.5780 C   0  0  0  0  0  0  0  0  0  0  0  0
    1.8380    3.6940   22.3410 H   0  0  0  0  0  0  0  0  0  0  0  0
    1.7850    1.9140   22.0300 H   0  0  0  0  0  0  0  0  0  0  0  0
    1.0050    3.0490   20.9210 H   0  0  0  0  0  0  0  0  0  0  0  0
  1 16  1  0  0  0  0
  1  6  1  0  0  0  0
  2  1  2  0  0  0  0
  3  2  1  0  0  0  0
  3  4  2  0  0  0  0
  4  5  1  0  0  0  0
  5  6  2  0  0  0  0
  5 25  1  0  0  0  0
  6 10  1  0  0  0  0
  7  3  1  0  0  0  0
  8  2  1  0  0  0  0
  9  4  1  0  0  0  0
 11 18  1  0  0  0  0
 11 17  1  0  0  0  0
 12 11  1  0  0  0  0
 12 20  1  0  0  0  0
 13 12  1  0  0  0  0
 14 15  1  0  0  0  0
 14 13  1  0  0  0  0
 15 24  1  0  0  0  0
 15 16  1  0  0  0  0
 16 11  1  0  0  0  0
 19 12  1  0  0  0  0
 21 14  1  0  0  0  0
 22 14  1  0  0  0  0
 23 15  1  0  0  0  0
 25 26  1  0  0  0  0
 26 28  1  0  0  0  0
 26 27  1  0  0  0  0
 29 26  1  0  0  0  0
M  END
>  <MODEL>
14

>  <REMARK>
 VINA RESULT:    -5.240      3.577      5.224
 INTER + INTRA:          -6.205
 INTER:                  -5.985
 INTRA:                  -0.220
 UNBOUND:                -0.199
  Name = 
  3 active torsions:
  status: ('A' for Active; 'I' for Inactive)
    1  A    between atoms: N_6  and  C_7
    2  A    between atoms: C_11  and  O_13
    3  A    between atoms: O_13  and  C_14
                            x       y       z     vdW  Elec       q    Type
                         _______ _______ _______ _____ _____    ______ ____

>  <TORSDO>
F 3

$$$$
=
 OpenBabel07192307433D

 29 30  0  0  0  0  0  0  0  0999 V2000
    2.9070    6.1820   19.0810 C   0  0  0  0  0  0  0  0  0  0  0  0
    3.6290    5.8180   17.9320 C   0  0  0  0  0  0  0  0  0  0  0  0
    4.1300    4.5270   17.7720 C   0  0  0  0  0  0  0  0  0  0  0  0
    3.9180    3.5630   18.7490 C   0  0  0  0  0  0  0  0  0  0  0  0
    3.1930    3.8870   19.8940 C   0  0  0  0  0  0  0  0  0  0  0  0
    2.6910    5.1860   20.0500 C   0  0  0  0  0  0  0  0  0  0  0  0
    5.0110    4.1230   16.3490 Cl  0  0  0  0  0  0  0  0  0  0  0  0
    3.7800    6.5440   17.1370 H   0  0  0  0  0  0  0  0  0  0  0  0
    4.3080    2.5570   18.6240 H   0  0  0  0  0  0  0  0  0  0  0  0
    2.1370    5.4350   20.9470 H   0  0  0  0  0  0  0  0  0  0  0  0
    1.9270    8.1710   17.9700 C   0  0  0  0  0  0  0  0  0  0  0  0
    1.6530    9.6540   18.2680 C   0  0  0  0  0  0  0  0  0  0  0  0
    0.7020    9.8040   19.3350 O   0  0  0  0  0  0  0  0  0  0  0  0
    1.2100    9.1950   20.5330 C   0  0  0  0  0  0  0  0  0  0  0  0
    1.4870    7.6940   20.3370 C   0  0  0  0  0  0  0  0  0  0  0  0
    2.4120    7.4940   19.1920 N   0  0  0  0  0  0  0  0  0  0  0  0
    2.6720    8.1070   17.1700 H   0  0  0  0  0  0  0  0  0  0  0  0
    0.9940    7.7000   17.6330 H   0  0  0  0  0  0  0  0  0  0  0  0
    2.5770   10.1810   18.5360 H   0  0  0  0  0  0  0  0  0  0  0  0
    1.2350   10.1400   17.3820 H   0  0  0  0  0  0  0  0  0  0  0  0
    0.4600    9.3330   21.3180 H   0  0  0  0  0  0  0  0  0  0  0  0
    2.1200    9.7240   20.8420 H   0  0  0  0  0  0  0  0  0  0  0  0
    1.8950    7.2970   21.2730 H   0  0  0  0  0  0  0  0  0  0  0  0
    0.5440    7.1740   20.1260 H   0  0  0  0  0  0  0  0  0  0  0  0
    3.0460    2.8560   20.7810 O   0  0  0  0  0  0  0  0  0  0  0  0
    1.8850    2.8640   21.6010 C   0  0  0  0  0  0  0  0  0  0  0  0
    1.9170    2.0560   22.3400 H   0  0  0  0  0  0  0  0  0  0  0  0
    0.9740    2.8100   20.9950 H   0  0  0  0  0  0  0  0  0  0  0  0
    1.8660    3.8130   22.1450 H   0  0  0  0  0  0  0  0  0  0  0  0
  1 16  1  0  0  0  0
  1  6  1  0  0  0  0
  2  1  2  0  0  0  0
  3  2  1  0  0  0  0
  3  4  2  0  0  0  0
  4  5  1  0  0  0  0
  5  6  2  0  0  0  0
  5 25  1  0  0  0  0
  6 10  1  0  0  0  0
  7  3  1  0  0  0  0
  8  2  1  0  0  0  0
  9  4  1  0  0  0  0
 11 12  1  0  0  0  0
 11 16  1  0  0  0  0
 12 19  1  0  0  0  0
 12 13  1  0  0  0  0
 13 14  1  0  0  0  0
 14 22  1  0  0  0  0
 14 21  1  0  0  0  0
 15 14  1  0  0  0  0
 15 23  1  0  0  0  0
 16 15  1  0  0  0  0
 17 11  1  0  0  0  0
 18 11  1  0  0  0  0
 20 12  1  0  0  0  0
 24 15  1  0  0  0  0
 25 26  1  0  0  0  0
 26 29  1  0  0  0  0
 26 27  1  0  0  0  0
 28 26  1  0  0  0  0
M  END
>  <MODEL>
15

>  <REMARK>
 VINA RESULT:    -5.226      3.413      5.179
 INTER + INTRA:          -6.189
 INTER:                  -5.972
 INTRA:                  -0.217
 UNBOUND:                -0.199
  Name = 
  3 active torsions:
  status: ('A' for Active; 'I' for Inactive)
    1  A    between atoms: N_6  and  C_7
    2  A    between atoms: C_11  and  O_13
    3  A    between atoms: O_13  and  C_14
                            x       y       z     vdW  Elec       q    Type
                         _______ _______ _______ _____ _____    ______ ____

>  <TORSDO>
F 3

$$$$
=
 OpenBabel07192307433D

 29 30  0  0  0  0  0  0  0  0999 V2000
    2.3410    6.8910   19.4690 C   0  0  0  0  0  0  0  0  0  0  0  0
    2.9840    6.2450   18.4000 C   0  0  0  0  0  0  0  0  0  0  0  0
    3.2970    4.8870   18.4590 C   0  0  0  0  0  0  0  0  0  0  0  0
    2.9690    4.1360   19.5800 C   0  0  0  0  0  0  0  0  0  0  0  0
    2.3170    4.7430   20.6510 C   0  0  0  0  0  0  0  0  0  0  0  0
    2.0050    6.1080   20.5880 C   0  0  0  0  0  0  0  0  0  0  0  0
    4.0880    4.1350   17.1270 Cl  0  0  0  0  0  0  0  0  0  0  0  0
    3.2210    6.8020   17.4970 H   0  0  0  0  0  0  0  0  0  0  0  0
    3.2120    3.0790   19.6250 H   0  0  0  0  0  0  0  0  0  0  0  0
    1.5070    6.5770   21.4280 H   0  0  0  0  0  0  0  0  0  0  0  0
    1.7930    8.8230   18.0130 C   0  0  0  0  0  0  0  0  0  0  0  0
    1.7110   10.3550   18.0950 C   0  0  0  0  0  0  0  0  0  0  0  0
    0.6820   10.7740   19.0060 O   0  0  0  0  0  0  0  0  0  0  0  0
    0.9600   10.2710   20.3240 C   0  0  0  0  0  0  0  0  0  0  0  0
    1.0320    8.7350   20.3440 C   0  0  0  0  0  0  0  0  0  0  0  0
    2.0370    8.2590   19.3590 N   0  0  0  0  0  0  0  0  0  0  0  0
    2.6040    8.5520   17.3280 H   0  0  0  0  0  0  0  0  0  0  0  0
    0.8440    8.4380   17.6190 H   0  0  0  0  0  0  0  0  0  0  0  0
    2.6680   10.7860   18.4140 H   0  0  0  0  0  0  0  0  0  0  0  0
    1.4700   10.7670   17.1110 H   0  0  0  0  0  0  0  0  0  0  0  0
    0.1580   10.6140   20.9850 H   0  0  0  0  0  0  0  0  0  0  0  0
    1.8990   10.7120   20.6810 H   0  0  0  0  0  0  0  0  0  0  0  0
    1.2710    8.4180   21.3650 H   0  0  0  0  0  0  0  0  0  0  0  0
    0.0510    8.3210   20.0780 H   0  0  0  0  0  0  0  0  0  0  0  0
    2.0430    3.9030   21.6960 O   0  0  0  0  0  0  0  0  0  0  0  0
    1.5250    2.6180   21.3790 C   0  0  0  0  0  0  0  0  0  0  0  0
    2.2790    2.0000   20.8800 H   0  0  0  0  0  0  0  0  0  0  0  0
    0.6150    2.6970   20.7740 H   0  0  0  0  0  0  0  0  0  0  0  0
    1.2580    2.1230   22.3180 H   0  0  0  0  0  0  0  0  0  0  0  0
  1  6  1  0  0  0  0
  2  3  1  0  0  0  0
  2  1  2  0  0  0  0
  3  4  2  0  0  0  0
  4  9  1  0  0  0  0
  4  5  1  0  0  0  0
  5 25  1  0  0  0  0
  6  5  2  0  0  0  0
  6 10  1  0  0  0  0
  7  3  1  0  0  0  0
  8  2  1  0  0  0  0
 11 12  1  0  0  0  0
 11 16  1  0  0  0  0
 12 19  1  0  0  0  0
 12 13  1  0  0  0  0
 13 14  1  0  0  0  0
 14 15  1  0  0  0  0
 14 22  1  0  0  0  0
 14 21  1  0  0  0  0
 15 23  1  0  0  0  0
 16  1  1  0  0  0  0
 16 15  1  0  0  0  0
 17 11  1  0  0  0  0
 18 11  1  0  0  0  0
 20 12  1  0  0  0  0
 24 15  1  0  0  0  0
 26 25  1  0  0  0  0
 26 29  1  0  0  0  0
 27 26  1  0  0  0  0
 28 26  1  0  0  0  0
M  END
>  <MODEL>
16

>  <REMARK>
 VINA RESULT:    -5.164      3.988      5.959
 INTER + INTRA:          -6.118
 INTER:                  -5.896
 INTRA:                  -0.222
 UNBOUND:                -0.199
  Name = 
  3 active torsions:
  status: ('A' for Active; 'I' for Inactive)
    1  A    between atoms: N_6  and  C_7
    2  A    between atoms: C_11  and  O_13
    3  A    between atoms: O_13  and  C_14
                            x       y       z     vdW  Elec       q    Type
                         _______ _______ _______ _____ _____    ______ ____

>  <TORSDO>
F 3

$$$$
=
 OpenBabel07192307433D

 29 30  0  0  0  0  0  0  0  0999 V2000
    4.2850    5.1210   18.5740 C   0  0  0  0  0  0  0  0  0  0  0  0
    3.5070    5.9060   19.4410 C   0  0  0  0  0  0  0  0  0  0  0  0
    2.2070    5.5360   19.7810 C   0  0  0  0  0  0  0  0  0  0  0  0
    1.6500    4.3700   19.2730 C   0  0  0  0  0  0  0  0  0  0  0  0
    2.3990    3.5610   18.4210 C   0  0  0  0  0  0  0  0  0  0  0  0
    3.7060    3.9370   18.0820 C   0  0  0  0  0  0  0  0  0  0  0  0
    1.2880    6.5290   20.8460 Cl  0  0  0  0  0  0  0  0  0  0  0  0
    3.9310    6.8060   19.8800 H   0  0  0  0  0  0  0  0  0  0  0  0
    0.6380    4.0820   19.5380 H   0  0  0  0  0  0  0  0  0  0  0  0
    4.2810    3.3090   17.4120 H   0  0  0  0  0  0  0  0  0  0  0  0
    5.7820    6.7500   17.4530 C   0  0  0  0  0  0  0  0  0  0  0  0
    7.2570    6.8850   17.0450 C   0  0  0  0  0  0  0  0  0  0  0  0
    8.1150    6.9180   18.1970 O   0  0  0  0  0  0  0  0  0  0  0  0
    7.9710    5.7020   18.9490 C   0  0  0  0  0  0  0  0  0  0  0  0
    6.5230    5.4960   19.4280 C   0  0  0  0  0  0  0  0  0  0  0  0
    5.5950    5.5300   18.2680 N   0  0  0  0  0  0  0  0  0  0  0  0
    5.1700    6.7060   16.5440 H   0  0  0  0  0  0  0  0  0  0  0  0
    5.4940    7.6330   18.0380 H   0  0  0  0  0  0  0  0  0  0  0  0
    7.5650    6.0590   16.3920 H   0  0  0  0  0  0  0  0  0  0  0  0
    7.4060    7.8190   16.4940 H   0  0  0  0  0  0  0  0  0  0  0  0
    8.6410    5.7660   19.8130 H   0  0  0  0  0  0  0  0  0  0  0  0
    8.3020    4.8600   18.3300 H   0  0  0  0  0  0  0  0  0  0  0  0
    6.4750    4.5460   19.9690 H   0  0  0  0  0  0  0  0  0  0  0  0
    6.2520    6.3010   20.1230 H   0  0  0  0  0  0  0  0  0  0  0  0
    1.7470    2.4390   17.9880 O   0  0  0  0  0  0  0  0  0  0  0  0
    0.7390    1.9040   18.8350 C   0  0  0  0  0  0  0  0  0  0  0  0
    0.4660    2.6160   19.6220 H   0  0  0  0  0  0  0  0  0  0  0  0
    1.0490    0.9430   19.2600 H   0  0  0  0  0  0  0  0  0  0  0  0
   -0.1520    1.7250   18.2240 H   0  0  0  0  0  0  0  0  0  0  0  0
  1  2  1  0  0  0  0
  2  3  2  0  0  0  0
  2  8  1  0  0  0  0
  3  7  1  0  0  0  0
  4  9  1  0  0  0  0
  4  3  1  0  0  0  0
  5  4  2  0  0  0  0
  6  5  1  0  0  0  0
  6  1  2  0  0  0  0
 10  6  1  0  0  0  0
 11 18  1  0  0  0  0
 11 16  1  0  0  0  0
 12 11  1  0  0  0  0
 12 13  1  0  0  0  0
 13 14  1  0  0  0  0
 14 15  1  0  0  0  0
 14 21  1  0  0  0  0
 15 23  1  0  0  0  0
 15 24  1  0  0  0  0
 16  1  1  0  0  0  0
 16 15  1  0  0  0  0
 17 11  1  0  0  0  0
 19 12  1  0  0  0  0
 20 12  1  0  0  0  0
 22 14  1  0  0  0  0
 25  5  1  0  0  0  0
 25 26  1  0  0  0  0
 26 28  1  0  0  0  0
 26 27  1  0  0  0  0
 29 26  1  0  0  0  0
M  END
>  <MODEL>
17

>  <REMARK>
 VINA RESULT:    -5.163      2.902      5.542
 INTER + INTRA:          -6.117
 INTER:                  -5.923
 INTRA:                  -0.194
 UNBOUND:                -0.199
  Name = 
  3 active torsions:
  status: ('A' for Active; 'I' for Inactive)
    1  A    between atoms: N_6  and  C_7
    2  A    between atoms: C_11  and  O_13
    3  A    between atoms: O_13  and  C_14
                            x       y       z     vdW  Elec       q    Type
                         _______ _______ _______ _____ _____    ______ ____

>  <TORSDO>
F 3

$$$$
=
 OpenBabel07192307433D

 29 30  0  0  0  0  0  0  0  0999 V2000
    3.9030    6.0390   17.7920 C   0  0  0  0  0  0  0  0  0  0  0  0
    3.4780    7.3440   17.4950 C   0  0  0  0  0  0  0  0  0  0  0  0
    2.5580    8.0080   18.3050 C   0  0  0  0  0  0  0  0  0  0  0  0
    2.0430    7.3920   19.4370 C   0  0  0  0  0  0  0  0  0  0  0  0
    2.4540    6.1030   19.7690 C   0  0  0  0  0  0  0  0  0  0  0  0
    3.3790    5.4390   18.9520 C   0  0  0  0  0  0  0  0  0  0  0  0
    2.0630    9.6070   17.9010 Cl  0  0  0  0  0  0  0  0  0  0  0  0
    3.8920    7.8620   16.6330 H   0  0  0  0  0  0  0  0  0  0  0  0
    1.3260    7.9090   20.0680 H   0  0  0  0  0  0  0  0  0  0  0  0
    3.6880    4.4330   19.2100 H   0  0  0  0  0  0  0  0  0  0  0  0
    4.6040    4.0110   16.5480 C   0  0  0  0  0  0  0  0  0  0  0  0
    5.8450    3.4560   15.8320 C   0  0  0  0  0  0  0  0  0  0  0  0
    6.1860    4.2540   14.6870 O   0  0  0  0  0  0  0  0  0  0  0  0
    6.4740    5.6010   15.0970 C   0  0  0  0  0  0  0  0  0  0  0  0
    5.2700    6.2510   15.8010 C   0  0  0  0  0  0  0  0  0  0  0  0
    4.8410    5.4150   16.9510 N   0  0  0  0  0  0  0  0  0  0  0  0
    4.3970    3.3870   17.4250 H   0  0  0  0  0  0  0  0  0  0  0  0
    3.7480    3.9640   15.8620 H   0  0  0  0  0  0  0  0  0  0  0  0
    6.7070    3.4150   16.5100 H   0  0  0  0  0  0  0  0  0  0  0  0
    5.6470    2.4390   15.4810 H   0  0  0  0  0  0  0  0  0  0  0  0
    6.7310    6.1720   14.1990 H   0  0  0  0  0  0  0  0  0  0  0  0
    7.3530    5.5930   15.7520 H   0  0  0  0  0  0  0  0  0  0  0  0
    5.5610    7.2610   16.1100 H   0  0  0  0  0  0  0  0  0  0  0  0
    4.4360    6.3360   15.0930 H   0  0  0  0  0  0  0  0  0  0  0  0
    1.8820    5.6020   20.9070 O   0  0  0  0  0  0  0  0  0  0  0  0
    2.0990    4.2260   21.1930 C   0  0  0  0  0  0  0  0  0  0  0  0
    3.0320    4.0800   21.7470 H   0  0  0  0  0  0  0  0  0  0  0  0
    2.0840    3.6260   20.2770 H   0  0  0  0  0  0  0  0  0  0  0  0
    1.2770    3.8820   21.8290 H   0  0  0  0  0  0  0  0  0  0  0  0
  1  6  1  0  0  0  0
  2  1  2  0  0  0  0
  2  3  1  0  0  0  0
  3  4  2  0  0  0  0
  4  5  1  0  0  0  0
  4  9  1  0  0  0  0
  5 25  1  0  0  0  0
  6 10  1  0  0  0  0
  6  5  2  0  0  0  0
  7  3  1  0  0  0  0
  8  2  1  0  0  0  0
 11 16  1  0  0  0  0
 11 17  1  0  0  0  0
 12 19  1  0  0  0  0
 12 11  1  0  0  0  0
 13 14  1  0  0  0  0
 13 12  1  0  0  0  0
 14 22  1  0  0  0  0
 14 15  1  0  0  0  0
 15 23  1  0  0  0  0
 15 16  1  0  0  0  0
 16  1  1  0  0  0  0
 18 11  1  0  0  0  0
 20 12  1  0  0  0  0
 21 14  1  0  0  0  0
 24 15  1  0  0  0  0
 25 26  1  0  0  0  0
 26 27  1  0  0  0  0
 26 29  1  0  0  0  0
 28 26  1  0  0  0  0
M  END
>  <MODEL>
18

>  <REMARK>
 VINA RESULT:    -5.131      2.796      5.771
 INTER + INTRA:          -6.080
 INTER:                  -5.860
 INTRA:                  -0.219
 UNBOUND:                -0.199
  Name = 
  3 active torsions:
  status: ('A' for Active; 'I' for Inactive)
    1  A    between atoms: N_6  and  C_7
    2  A    between atoms: C_11  and  O_13
    3  A    between atoms: O_13  and  C_14
                            x       y       z     vdW  Elec       q    Type
                         _______ _______ _______ _____ _____    ______ ____

>  <TORSDO>
F 3

$$$$
=
 OpenBabel07192307433D

 29 30  0  0  0  0  0  0  0  0999 V2000
    2.2690    6.7800   19.6050 C   0  0  0  0  0  0  0  0  0  0  0  0
    1.5760    7.1850   20.7570 C   0  0  0  0  0  0  0  0  0  0  0  0
    1.0280    8.4620   20.8600 C   0  0  0  0  0  0  0  0  0  0  0  0
    1.1490    9.3680   19.8150 C   0  0  0  0  0  0  0  0  0  0  0  0
    1.8180    8.9940   18.6510 C   0  0  0  0  0  0  0  0  0  0  0  0
    2.3680    7.7080   18.5520 C   0  0  0  0  0  0  0  0  0  0  0  0
    0.1880    8.9180   22.2930 Cl  0  0  0  0  0  0  0  0  0  0  0  0
    1.4370    6.4840   21.5770 H   0  0  0  0  0  0  0  0  0  0  0  0
    0.7220   10.3630   19.8950 H   0  0  0  0  0  0  0  0  0  0  0  0
    2.8950    7.4250   17.6490 H   0  0  0  0  0  0  0  0  0  0  0  0
    4.2520    5.3130   19.3490 C   0  0  0  0  0  0  0  0  0  0  0  0
    4.5810    3.8360   19.0800 C   0  0  0  0  0  0  0  0  0  0  0  0
    4.1210    2.9970   20.1520 O   0  0  0  0  0  0  0  0  0  0  0  0
    2.6960    3.1180   20.2920 C   0  0  0  0  0  0  0  0  0  0  0  0
    2.2740    4.5660   20.5950 C   0  0  0  0  0  0  0  0  0  0  0  0
    2.7950    5.4780   19.5430 N   0  0  0  0  0  0  0  0  0  0  0  0
    4.5990    5.9090   18.4980 H   0  0  0  0  0  0  0  0  0  0  0  0
    4.7840    5.6350   20.2550 H   0  0  0  0  0  0  0  0  0  0  0  0
    4.1300    3.4950   18.1400 H   0  0  0  0  0  0  0  0  0  0  0  0
    5.6640    3.7050   18.9980 H   0  0  0  0  0  0  0  0  0  0  0  0
    2.3870    2.4630   21.1130 H   0  0  0  0  0  0  0  0  0  0  0  0
    2.2170    2.7540   19.3760 H   0  0  0  0  0  0  0  0  0  0  0  0
    1.1820    4.5960   20.6630 H   0  0  0  0  0  0  0  0  0  0  0  0
    2.6870    4.8710   21.5650 H   0  0  0  0  0  0  0  0  0  0  0  0
    1.8700    9.9670   17.6910 O   0  0  0  0  0  0  0  0  0  0  0  0
    2.1100   11.2990   18.1260 C   0  0  0  0  0  0  0  0  0  0  0  0
    1.3060   11.6510   18.7800 H   0  0  0  0  0  0  0  0  0  0  0  0
    2.2530   11.9730   17.2740 H   0  0  0  0  0  0  0  0  0  0  0  0
    3.0370   11.2980   18.7080 H   0  0  0  0  0  0  0  0  0  0  0  0
  1  2  1  0  0  0  0
  2  3  2  0  0  0  0
  2  8  1  0  0  0  0
  3  7  1  0  0  0  0
  4  9  1  0  0  0  0
  4  3  1  0  0  0  0
  5  4  2  0  0  0  0
  6  5  1  0  0  0  0
  6  1  2  0  0  0  0
 10  6  1  0  0  0  0
 11 16  1  0  0  0  0
 11 18  1  0  0  0  0
 12 11  1  0  0  0  0
 12 13  1  0  0  0  0
 13 14  1  0  0  0  0
 14 15  1  0  0  0  0
 14 21  1  0  0  0  0
 15 23  1  0  0  0  0
 15 24  1  0  0  0  0
 16  1  1  0  0  0  0
 16 15  1  0  0  0  0
 17 11  1  0  0  0  0
 19 12  1  0  0  0  0
 20 12  1  0  0  0  0
 22 14  1  0  0  0  0
 25 26  1  0  0  0  0
 25  5  1  0  0  0  0
 26 29  1  0  0  0  0
 26 27  1  0  0  0  0
 28 26  1  0  0  0  0
M  END
>  <MODEL>
19

>  <REMARK>
 VINA RESULT:    -5.002      4.391      5.731
 INTER + INTRA:          -5.932
 INTER:                  -5.716
 INTRA:                  -0.216
 UNBOUND:                -0.199
  Name = 
  3 active torsions:
  status: ('A' for Active; 'I' for Inactive)
    1  A    between atoms: N_6  and  C_7
    2  A    between atoms: C_11  and  O_13
    3  A    between atoms: O_13  and  C_14
                            x       y       z     vdW  Elec       q    Type
                         _______ _______ _______ _____ _____    ______ ____

>  <TORSDO>
F 3

$$$$
=
 OpenBabel07192307433D

 29 30  0  0  0  0  0  0  0  0999 V2000
    1.6070    8.2330   20.0260 C   0  0  0  0  0  0  0  0  0  0  0  0
    1.1290    8.3720   21.3390 C   0  0  0  0  0  0  0  0  0  0  0  0
    0.3400    9.4590   21.7110 C   0  0  0  0  0  0  0  0  0  0  0  0
   -0.0010   10.4330   20.7820 C   0  0  0  0  0  0  0  0  0  0  0  0
    0.4450   10.3190   19.4670 C   0  0  0  0  0  0  0  0  0  0  0  0
    1.2380    9.2240   19.0970 C   0  0  0  0  0  0  0  0  0  0  0  0
   -0.2230    9.5910   23.3330 Cl  0  0  0  0  0  0  0  0  0  0  0  0
    1.3520    7.6060   22.0770 H   0  0  0  0  0  0  0  0  0  0  0  0
   -0.6160   11.2800   21.0710 H   0  0  0  0  0  0  0  0  0  0  0  0
    1.5900    9.1450   18.0760 H   0  0  0  0  0  0  0  0  0  0  0  0
    2.0240    5.8010   20.2690 C   0  0  0  0  0  0  0  0  0  0  0  0
    3.1280    4.7740   19.9750 C   0  0  0  0  0  0  0  0  0  0  0  0
    3.3660    4.6550   18.5630 O   0  0  0  0  0  0  0  0  0  0  0  0
    3.7810    5.9220   18.0270 C   0  0  0  0  0  0  0  0  0  0  0  0
    2.7180    7.0110   18.2500 C   0  0  0  0  0  0  0  0  0  0  0  0
    2.3910    7.1140   19.6960 N   0  0  0  0  0  0  0  0  0  0  0  0
    1.8950    5.8750   21.3550 H   0  0  0  0  0  0  0  0  0  0  0  0
    1.0860    5.4510   19.8180 H   0  0  0  0  0  0  0  0  0  0  0  0
    4.0660    5.0480   20.4740 H   0  0  0  0  0  0  0  0  0  0  0  0
    2.8280    3.7890   20.3450 H   0  0  0  0  0  0  0  0  0  0  0  0
    3.9540    5.7870   16.9550 H   0  0  0  0  0  0  0  0  0  0  0  0
    4.7350    6.2060   18.4860 H   0  0  0  0  0  0  0  0  0  0  0  0
    3.1030    7.9520   17.8450 H   0  0  0  0  0  0  0  0  0  0  0  0
    1.8060    6.7480   17.6990 H   0  0  0  0  0  0  0  0  0  0  0  0
    0.0430   11.3350   18.6430 O   0  0  0  0  0  0  0  0  0  0  0  0
   -1.3170   11.7400   18.7250 C   0  0  0  0  0  0  0  0  0  0  0  0
   -1.3980   12.8110   18.9400 H   0  0  0  0  0  0  0  0  0  0  0  0
   -1.8620   11.1440   19.4650 H   0  0  0  0  0  0  0  0  0  0  0  0
   -1.7790   11.5610   17.7480 H   0  0  0  0  0  0  0  0  0  0  0  0
  1  2  1  0  0  0  0
  2  3  2  0  0  0  0
  2  8  1  0  0  0  0
  3  7  1  0  0  0  0
  4  9  1  0  0  0  0
  4  3  1  0  0  0  0
  5  4  2  0  0  0  0
  6  5  1  0  0  0  0
  6  1  2  0  0  0  0
 10  6  1  0  0  0  0
 11 17  1  0  0  0  0
 12 11  1  0  0  0  0
 12 20  1  0  0  0  0
 12 19  1  0  0  0  0
 13 12  1  0  0  0  0
 14 15  1  0  0  0  0
 14 22  1  0  0  0  0
 14 13  1  0  0  0  0
 15 16  1  0  0  0  0
 16  1  1  0  0  0  0
 16 11  1  0  0  0  0
 18 11  1  0  0  0  0
 21 14  1  0  0  0  0
 23 15  1  0  0  0  0
 24 15  1  0  0  0  0
 25 26  1  0  0  0  0
 25  5  1  0  0  0  0
 26 27  1  0  0  0  0
 26 28  1  0  0  0  0
 29 26  1  0  0  0  0
M  END
>  <MODEL>
20

>  <REMARK>
 VINA RESULT:    -4.929      5.428      7.164
 INTER + INTRA:          -5.848
 INTER:                  -5.629
 INTRA:                  -0.219
 UNBOUND:                -0.199
  Name = 
  3 active torsions:
  status: ('A' for Active; 'I' for Inactive)
    1  A    between atoms: N_6  and  C_7
    2  A    between atoms: C_11  and  O_13
    3  A    between atoms: O_13  and  C_14
                            x       y       z     vdW  Elec       q    Type
                         _______ _______ _______ _____ _____    ______ ____

>  <TORSDO>
F 3

$$$$
=
 OpenBabel07192307433D

 29 30  0  0  0  0  0  0  0  0999 V2000
    2.2870    6.5820   19.7800 C   0  0  0  0  0  0  0  0  0  0  0  0
    2.3840    7.5580   18.7750 C   0  0  0  0  0  0  0  0  0  0  0  0
    1.8040    8.8170   18.9310 C   0  0  0  0  0  0  0  0  0  0  0  0
    1.1200    9.1380   20.0950 C   0  0  0  0  0  0  0  0  0  0  0  0
    1.0180    8.1980   21.1180 C   0  0  0  0  0  0  0  0  0  0  0  0
    1.6020    6.9330   20.9570 C   0  0  0  0  0  0  0  0  0  0  0  0
    1.9450    9.9830   17.6720 Cl  0  0  0  0  0  0  0  0  0  0  0  0
    2.9430    7.3440   17.8680 H   0  0  0  0  0  0  0  0  0  0  0  0
    0.6690   10.1180   20.2160 H   0  0  0  0  0  0  0  0  0  0  0  0
    1.5110    6.2030   21.7520 H   0  0  0  0  0  0  0  0  0  0  0  0
    4.3610    5.2840   19.3760 C   0  0  0  0  0  0  0  0  0  0  0  0
    4.7840    3.8680   18.9510 C   0  0  0  0  0  0  0  0  0  0  0  0
    4.3840    2.8910   19.9250 O   0  0  0  0  0  0  0  0  0  0  0  0
    2.9550    2.9030   20.0730 C   0  0  0  0  0  0  0  0  0  0  0  0
    2.4410    4.2800   20.5280 C   0  0  0  0  0  0  0  0  0  0  0  0
    2.8970    5.3310   19.5810 N   0  0  0  0  0  0  0  0  0  0  0  0
    4.6650    5.9890   18.5940 H   0  0  0  0  0  0  0  0  0  0  0  0
    4.8730    5.5400   20.3120 H   0  0  0  0  0  0  0  0  0  0  0  0
    4.3530    3.6020   17.9780 H   0  0  0  0  0  0  0  0  0  0  0  0
    5.8730    3.8180   18.8590 H   0  0  0  0  0  0  0  0  0  0  0  0
    2.6930    2.1460   20.8190 H   0  0  0  0  0  0  0  0  0  0  0  0
    2.4970    2.6090   19.1220 H   0  0  0  0  0  0  0  0  0  0  0  0
    1.3490    4.2310   20.5960 H   0  0  0  0  0  0  0  0  0  0  0  0
    2.8360    4.5060   21.5260 H   0  0  0  0  0  0  0  0  0  0  0  0
    0.3240    8.6290   22.2160 O   0  0  0  0  0  0  0  0  0  0  0  0
   -0.0090   10.0100   22.2740 C   0  0  0  0  0  0  0  0  0  0  0  0
   -0.1050   10.4350   21.2700 H   0  0  0  0  0  0  0  0  0  0  0  0
    0.7200   10.5670   22.8730 H   0  0  0  0  0  0  0  0  0  0  0  0
   -0.9820   10.0990   22.7680 H   0  0  0  0  0  0  0  0  0  0  0  0
  1  6  1  0  0  0  0
  2  3  1  0  0  0  0
  2  1  2  0  0  0  0
  3  4  2  0  0  0  0
  4  9  1  0  0  0  0
  4  5  1  0  0  0  0
  5 25  1  0  0  0  0
  6  5  2  0  0  0  0
  6 10  1  0  0  0  0
  7  3  1  0  0  0  0
  8  2  1  0  0  0  0
 11 16  1  0  0  0  0
 11 18  1  0  0  0  0
 12 11  1  0  0  0  0
 12 13  1  0  0  0  0
 13 14  1  0  0  0  0
 14 15  1  0  0  0  0
 14 21  1  0  0  0  0
 15 23  1  0  0  0  0
 15 24  1  0  0  0  0
 16  1  1  0  0  0  0
 16 15  1  0  0  0  0
 17 11  1  0  0  0  0
 19 12  1  0  0  0  0
 20 12  1  0  0  0  0
 22 14  1  0  0  0  0
 25 26  1  0  0  0  0
 26 29  1  0  0  0  0
 26 28  1  0  0  0  0
 27 26  1  0  0  0  0
M  END
>  <MODEL>
21

>  <REMARK>
 VINA RESULT:    -4.915      3.930      6.246
 INTER + INTRA:          -5.832
 INTER:                  -5.621
 INTRA:                  -0.211
 UNBOUND:                -0.199
  Name = 
  3 active torsions:
  status: ('A' for Active; 'I' for Inactive)
    1  A    between atoms: N_6  and  C_7
    2  A    between atoms: C_11  and  O_13
    3  A    between atoms: O_13  and  C_14
                            x       y       z     vdW  Elec       q    Type
                         _______ _______ _______ _____ _____    ______ ____

>  <TORSDO>
F 3

$$$$
=
 OpenBabel07192307433D

 29 30  0  0  0  0  0  0  0  0999 V2000
    2.3180    6.7560   19.6380 C   0  0  0  0  0  0  0  0  0  0  0  0
    1.5950    7.1590   20.7730 C   0  0  0  0  0  0  0  0  0  0  0  0
    1.0170    8.4250   20.8510 C   0  0  0  0  0  0  0  0  0  0  0  0
    1.1380    9.3210   19.7970 C   0  0  0  0  0  0  0  0  0  0  0  0
    1.8370    8.9480   18.6510 C   0  0  0  0  0  0  0  0  0  0  0  0
    2.4160    7.6740   18.5770 C   0  0  0  0  0  0  0  0  0  0  0  0
    0.1400    8.8780   22.2620 Cl  0  0  0  0  0  0  0  0  0  0  0  0
    1.4560    6.4640   21.5980 H   0  0  0  0  0  0  0  0  0  0  0  0
    0.6880   10.3070   19.8580 H   0  0  0  0  0  0  0  0  0  0  0  0
    2.9670    7.3930   17.6870 H   0  0  0  0  0  0  0  0  0  0  0  0
    2.0120    4.3370   19.1890 C   0  0  0  0  0  0  0  0  0  0  0  0
    2.7380    3.0050   19.4390 C   0  0  0  0  0  0  0  0  0  0  0  0
    3.9920    2.9570   18.7410 O   0  0  0  0  0  0  0  0  0  0  0  0
    4.8460    4.0220   19.1930 C   0  0  0  0  0  0  0  0  0  0  0  0
    4.2100    5.4020   18.9540 C   0  0  0  0  0  0  0  0  0  0  0  0
    2.8740    5.4650   19.6020 N   0  0  0  0  0  0  0  0  0  0  0  0
    1.0750    4.3370   19.7580 H   0  0  0  0  0  0  0  0  0  0  0  0
    1.7830    4.4200   18.1180 H   0  0  0  0  0  0  0  0  0  0  0  0
    2.9170    2.8480   20.5100 H   0  0  0  0  0  0  0  0  0  0  0  0
    2.1250    2.1750   19.0770 H   0  0  0  0  0  0  0  0  0  0  0  0
    5.7880    3.9470   18.6410 H   0  0  0  0  0  0  0  0  0  0  0  0
    5.0680    3.8710   20.2560 H   0  0  0  0  0  0  0  0  0  0  0  0
    4.8940    6.1640   19.3420 H   0  0  0  0  0  0  0  0  0  0  0  0
    4.0900    5.5660   17.8760 H   0  0  0  0  0  0  0  0  0  0  0  0
    1.8860    9.9120   17.6800 O   0  0  0  0  0  0  0  0  0  0  0  0
    2.0760   11.2550   18.1050 C   0  0  0  0  0  0  0  0  0  0  0  0
    2.9510   11.7020   17.6220 H   0  0  0  0  0  0  0  0  0  0  0  0
    2.1510   11.3160   19.1960 H   0  0  0  0  0  0  0  0  0  0  0  0
    1.1970   11.8300   17.8000 H   0  0  0  0  0  0  0  0  0  0  0  0
  1  2  1  0  0  0  0
  2  3  2  0  0  0  0
  2  8  1  0  0  0  0
  3  7  1  0  0  0  0
  4  9  1  0  0  0  0
  4  3  1  0  0  0  0
  5  4  2  0  0  0  0
  6  5  1  0  0  0  0
  6  1  2  0  0  0  0
 10  6  1  0  0  0  0
 11 12  1  0  0  0  0
 11 16  1  0  0  0  0
 11 17  1  0  0  0  0
 12 19  1  0  0  0  0
 13 14  1  0  0  0  0
 13 12  1  0  0  0  0
 14 22  1  0  0  0  0
 15 14  1  0  0  0  0
 15 23  1  0  0  0  0
 15 16  1  0  0  0  0
 16  1  1  0  0  0  0
 18 11  1  0  0  0  0
 20 12  1  0  0  0  0
 21 14  1  0  0  0  0
 24 15  1  0  0  0  0
 25 26  1  0  0  0  0
 25  5  1  0  0  0  0
 26 28  1  0  0  0  0
 27 26  1  0  0  0  0
 29 26  1  0  0  0  0
M  END
>  <MODEL>
22

>  <REMARK>
 VINA RESULT:    -4.907      4.388      5.746
 INTER + INTRA:          -5.823
 INTER:                  -5.625
 INTRA:                  -0.197
 UNBOUND:                -0.199
  Name = 
  3 active torsions:
  status: ('A' for Active; 'I' for Inactive)
    1  A    between atoms: N_6  and  C_7
    2  A    between atoms: C_11  and  O_13
    3  A    between atoms: O_13  and  C_14
                            x       y       z     vdW  Elec       q    Type
                         _______ _______ _______ _____ _____    ______ ____

>  <TORSDO>
F 3

$$$$
=
 OpenBabel07192307433D

 29 30  0  0  0  0  0  0  0  0999 V2000
    2.2840    6.5780   19.5200 C   0  0  0  0  0  0  0  0  0  0  0  0
    2.3190    7.6200   18.5790 C   0  0  0  0  0  0  0  0  0  0  0  0
    1.7970    8.8780   18.8730 C   0  0  0  0  0  0  0  0  0  0  0  0
    1.2330    9.1340   20.1160 C   0  0  0  0  0  0  0  0  0  0  0  0
    1.1950    8.1270   21.0780 C   0  0  0  0  0  0  0  0  0  0  0  0
    1.7210    6.8630   20.7770 C   0  0  0  0  0  0  0  0  0  0  0  0
    1.8590   10.1270   17.6890 Cl  0  0  0  0  0  0  0  0  0  0  0  0
    2.7860    7.4560   17.6110 H   0  0  0  0  0  0  0  0  0  0  0  0
    0.8260   10.1140   20.3450 H   0  0  0  0  0  0  0  0  0  0  0  0
    1.6800    6.0810   21.5260 H   0  0  0  0  0  0  0  0  0  0  0  0
    2.3100    4.6280   17.9870 C   0  0  0  0  0  0  0  0  0  0  0  0
    2.8730    3.1990   17.9310 C   0  0  0  0  0  0  0  0  0  0  0  0
    4.3090    3.2060   17.9180 O   0  0  0  0  0  0  0  0  0  0  0  0
    4.8070    3.8340   19.1100 C   0  0  0  0  0  0  0  0  0  0  0  0
    4.3170    5.2870   19.2360 C   0  0  0  0  0  0  0  0  0  0  0  0
    2.8330    5.3280   19.1810 N   0  0  0  0  0  0  0  0  0  0  0  0
    1.2160    4.5730   18.0200 H   0  0  0  0  0  0  0  0  0  0  0  0
    2.6170    5.1660   17.0800 H   0  0  0  0  0  0  0  0  0  0  0  0
    2.5250    2.6040   18.7840 H   0  0  0  0  0  0  0  0  0  0  0  0
    2.5350    2.7030   17.0170 H   0  0  0  0  0  0  0  0  0  0  0  0
    5.9010    3.8150   19.0620 H   0  0  0  0  0  0  0  0  0  0  0  0
    4.5010    3.2400   19.9790 H   0  0  0  0  0  0  0  0  0  0  0  0
    4.7070    5.6980   20.1730 H   0  0  0  0  0  0  0  0  0  0  0  0
    4.7200    5.8810   18.4070 H   0  0  0  0  0  0  0  0  0  0  0  0
    0.6190    8.4970   22.2630 O   0  0  0  0  0  0  0  0  0  0  0  0
   -0.2300    9.6380   22.2450 C   0  0  0  0  0  0  0  0  0  0  0  0
   -1.2720    9.3570   22.4270 H   0  0  0  0  0  0  0  0  0  0  0  0
   -0.1260   10.1920   21.3060 H   0  0  0  0  0  0  0  0  0  0  0  0
    0.0840   10.3010   23.0580 H   0  0  0  0  0  0  0  0  0  0  0  0
  1  6  1  0  0  0  0
  2  3  1  0  0  0  0
  2  1  2  0  0  0  0
  3  4  2  0  0  0  0
  4  9  1  0  0  0  0
  4  5  1  0  0  0  0
  5 25  1  0  0  0  0
  6  5  2  0  0  0  0
  6 10  1  0  0  0  0
  7  3  1  0  0  0  0
  8  2  1  0  0  0  0
 11 17  1  0  0  0  0
 11 16  1  0  0  0  0
 12 11  1  0  0  0  0
 12 19  1  0  0  0  0
 13 12  1  0  0  0  0
 13 14  1  0  0  0  0
 14 15  1  0  0  0  0
 14 22  1  0  0  0  0
 15 23  1  0  0  0  0
 16 15  1  0  0  0  0
 16  1  1  0  0  0  0
 18 11  1  0  0  0  0
 20 12  1  0  0  0  0
 21 14  1  0  0  0  0
 24 15  1  0  0  0  0
 26 25  1  0  0  0  0
 26 27  1  0  0  0  0
 26 29  1  0  0  0  0
 28 26  1  0  0  0  0
M  END
>  <MODEL>
23

>  <REMARK>
 VINA RESULT:    -4.838      3.883      6.286
 INTER + INTRA:          -5.744
 INTER:                  -5.549
 INTRA:                  -0.195
 UNBOUND:                -0.199
  Name = 
  3 active torsions:
  status: ('A' for Active; 'I' for Inactive)
    1  A    between atoms: N_6  and  C_7
    2  A    between atoms: C_11  and  O_13
    3  A    between atoms: O_13  and  C_14
                            x       y       z     vdW  Elec       q    Type
                         _______ _______ _______ _____ _____    ______ ____

>  <TORSDO>
F 3

$$$$
=
 OpenBabel07192307433D

 29 30  0  0  0  0  0  0  0  0999 V2000
    1.6670    8.2640   19.8130 C   0  0  0  0  0  0  0  0  0  0  0  0
    1.1700    9.2700   18.9670 C   0  0  0  0  0  0  0  0  0  0  0  0
    0.2310   10.1960   19.4190 C   0  0  0  0  0  0  0  0  0  0  0  0
   -0.2310   10.1500   20.7270 C   0  0  0  0  0  0  0  0  0  0  0  0
    0.2520    9.1740   21.5960 C   0  0  0  0  0  0  0  0  0  0  0  0
    1.1960    8.2450   21.1380 C   0  0  0  0  0  0  0  0  0  0  0  0
   -0.3530   11.4110   18.3470 Cl  0  0  0  0  0  0  0  0  0  0  0  0
    1.5410    9.3490   17.9480 H   0  0  0  0  0  0  0  0  0  0  0  0
   -0.9620   10.8720   21.0780 H   0  0  0  0  0  0  0  0  0  0  0  0
    1.5610    7.4830   21.8150 H   0  0  0  0  0  0  0  0  0  0  0  0
    2.4670    5.9240   19.6350 C   0  0  0  0  0  0  0  0  0  0  0  0
    3.7230    5.1530   19.1980 C   0  0  0  0  0  0  0  0  0  0  0  0
    3.9790    5.3270   17.7950 O   0  0  0  0  0  0  0  0  0  0  0  0
    4.1870    6.7190   17.5050 C   0  0  0  0  0  0  0  0  0  0  0  0
    2.9630    7.5700   17.8840 C   0  0  0  0  0  0  0  0  0  0  0  0
    2.6210    7.3590   19.3150 N   0  0  0  0  0  0  0  0  0  0  0  0
    2.3260    5.7810   20.7130 H   0  0  0  0  0  0  0  0  0  0  0  0
    1.5980    5.5180   19.1010 H   0  0  0  0  0  0  0  0  0  0  0  0
    4.6040    5.4770   19.7660 H   0  0  0  0  0  0  0  0  0  0  0  0
    3.5830    4.0830   19.3790 H   0  0  0  0  0  0  0  0  0  0  0  0
    4.3810    6.8070   16.4310 H   0  0  0  0  0  0  0  0  0  0  0  0
    5.0820    7.0630   18.0360 H   0  0  0  0  0  0  0  0  0  0  0  0
    3.1930    8.6170   17.6640 H   0  0  0  0  0  0  0  0  0  0  0  0
    2.1060    7.2710   17.2670 H   0  0  0  0  0  0  0  0  0  0  0  0
   -0.2730    9.2310   22.8590 O   0  0  0  0  0  0  0  0  0  0  0  0
   -0.9840   10.4090   23.2150 C   0  0  0  0  0  0  0  0  0  0  0  0
   -1.6580   10.2240   24.0590 H   0  0  0  0  0  0  0  0  0  0  0  0
   -1.5270   10.8180   22.3560 H   0  0  0  0  0  0  0  0  0  0  0  0
   -0.2520   11.1590   23.5320 H   0  0  0  0  0  0  0  0  0  0  0  0
  1  6  1  0  0  0  0
  2  3  1  0  0  0  0
  2  1  2  0  0  0  0
  3  4  2  0  0  0  0
  4  9  1  0  0  0  0
  4  5  1  0  0  0  0
  5 25  1  0  0  0  0
  6  5  2  0  0  0  0
  6 10  1  0  0  0  0
  7  3  1  0  0  0  0
  8  2  1  0  0  0  0
 11 17  1  0  0  0  0
 12 20  1  0  0  0  0
 12 11  1  0  0  0  0
 12 19  1  0  0  0  0
 13 12  1  0  0  0  0
 14 13  1  0  0  0  0
 14 15  1  0  0  0  0
 14 22  1  0  0  0  0
 15 16  1  0  0  0  0
 16 11  1  0  0  0  0
 16  1  1  0  0  0  0
 18 11  1  0  0  0  0
 21 14  1  0  0  0  0
 23 15  1  0  0  0  0
 24 15  1  0  0  0  0
 25 26  1  0  0  0  0
 26 29  1  0  0  0  0
 26 27  1  0  0  0  0
 28 26  1  0  0  0  0
M  END
>  <MODEL>
24

>  <REMARK>
 VINA RESULT:    -4.825      5.254      7.620
 INTER + INTRA:          -5.729
 INTER:                  -5.507
 INTRA:                  -0.222
 UNBOUND:                -0.199
  Name = 
  3 active torsions:
  status: ('A' for Active; 'I' for Inactive)
    1  A    between atoms: N_6  and  C_7
    2  A    between atoms: C_11  and  O_13
    3  A    between atoms: O_13  and  C_14
                            x       y       z     vdW  Elec       q    Type
                         _______ _______ _______ _____ _____    ______ ____

>  <TORSDO>
F 3

$$$$
=
 OpenBabel07192307433D

 29 30  0  0  0  0  0  0  0  0999 V2000
    4.7010    5.6930   17.8150 C   0  0  0  0  0  0  0  0  0  0  0  0
    5.8710    5.7800   18.5890 C   0  0  0  0  0  0  0  0  0  0  0  0
    7.0480    5.1470   18.1940 C   0  0  0  0  0  0  0  0  0  0  0  0
    7.0940    4.4170   17.0140 C   0  0  0  0  0  0  0  0  0  0  0  0
    5.9560    4.3220   16.2160 C   0  0  0  0  0  0  0  0  0  0  0  0
    4.7740    4.9600   16.6170 C   0  0  0  0  0  0  0  0  0  0  0  0
    8.4580    5.2790   19.1740 Cl  0  0  0  0  0  0  0  0  0  0  0  0
    5.8710    6.3740   19.5000 H   0  0  0  0  0  0  0  0  0  0  0  0
    8.0110    3.9240   16.7070 H   0  0  0  0  0  0  0  0  0  0  0  0
    3.8900    4.8750   15.9970 H   0  0  0  0  0  0  0  0  0  0  0  0
    3.1820    6.2870   19.6830 C   0  0  0  0  0  0  0  0  0  0  0  0
    1.7780    6.8740   19.8990 C   0  0  0  0  0  0  0  0  0  0  0  0
    1.7020    8.2300   19.4300 O   0  0  0  0  0  0  0  0  0  0  0  0
    1.9940    8.2790   18.0240 C   0  0  0  0  0  0  0  0  0  0  0  0
    3.3990    7.7360   17.7140 C   0  0  0  0  0  0  0  0  0  0  0  0
    3.5410    6.3570   18.2500 N   0  0  0  0  0  0  0  0  0  0  0  0
    3.1840    5.2480   20.0320 H   0  0  0  0  0  0  0  0  0  0  0  0
    3.9030    6.8680   20.2730 H   0  0  0  0  0  0  0  0  0  0  0  0
    1.0150    6.2750   19.3860 H   0  0  0  0  0  0  0  0  0  0  0  0
    1.5380    6.8780   20.9660 H   0  0  0  0  0  0  0  0  0  0  0  0
    1.9230    9.3250   17.7080 H   0  0  0  0  0  0  0  0  0  0  0  0
    1.2270    7.7130   17.4820 H   0  0  0  0  0  0  0  0  0  0  0  0
    3.5490    7.7760   16.6300 H   0  0  0  0  0  0  0  0  0  0  0  0
    4.1510    8.3800   18.1880 H   0  0  0  0  0  0  0  0  0  0  0  0
    6.1230    3.5800   15.0780 O   0  0  0  0  0  0  0  0  0  0  0  0
    6.5010    4.2770   13.8980 C   0  0  0  0  0  0  0  0  0  0  0  0
    6.6680    3.5840   13.0660 H   0  0  0  0  0  0  0  0  0  0  0  0
    7.3830    4.9030   14.0740 H   0  0  0  0  0  0  0  0  0  0  0  0
    5.6740    4.9380   13.6200 H   0  0  0  0  0  0  0  0  0  0  0  0
  1 16  1  0  0  0  0
  1  2  1  0  0  0  0
  2  8  1  0  0  0  0
  3  2  2  0  0  0  0
  3  7  1  0  0  0  0
  4  3  1  0  0  0  0
  5  6  1  0  0  0  0
  5  4  2  0  0  0  0
  6  1  2  0  0  0  0
  9  4  1  0  0  0  0
 10  6  1  0  0  0  0
 11 12  1  0  0  0  0
 11 17  1  0  0  0  0
 11 18  1  0  0  0  0
 12 20  1  0  0  0  0
 13 12  1  0  0  0  0
 14 13  1  0  0  0  0
 15 14  1  0  0  0  0
 15 24  1  0  0  0  0
 15 16  1  0  0  0  0
 16 11  1  0  0  0  0
 19 12  1  0  0  0  0
 21 14  1  0  0  0  0
 22 14  1  0  0  0  0
 23 15  1  0  0  0  0
 25  5  1  0  0  0  0
 26 28  1  0  0  0  0
 26 25  1  0  0  0  0
 27 26  1  0  0  0  0
 29 26  1  0  0  0  0
M  END
>  <MODEL>
25

>  <REMARK>
 VINA RESULT:    -4.669      2.307      2.655
 INTER + INTRA:          -5.550
 INTER:                  -5.365
 INTRA:                  -0.185
 UNBOUND:                -0.199
  Name = 
  3 active torsions:
  status: ('A' for Active; 'I' for Inactive)
    1  A    between atoms: N_6  and  C_7
    2  A    between atoms: C_11  and  O_13
    3  A    between atoms: O_13  and  C_14
                            x       y       z     vdW  Elec       q    Type
                         _______ _______ _______ _____ _____    ______ ____

>  <TORSDO>
F 3

$$$$
=
 OpenBabel07192307433D

 29 30  0  0  0  0  0  0  0  0999 V2000
   -1.1600   10.5660   18.4490 C   0  0  0  0  0  0  0  0  0  0  0  0
   -0.0480    9.8390   17.9940 C   0  0  0  0  0  0  0  0  0  0  0  0
    0.9800    9.4710   18.8600 C   0  0  0  0  0  0  0  0  0  0  0  0
    0.9230    9.8120   20.2050 C   0  0  0  0  0  0  0  0  0  0  0  0
   -0.1730   10.5200   20.6930 C   0  0  0  0  0  0  0  0  0  0  0  0
   -1.2040   10.8870   19.8180 C   0  0  0  0  0  0  0  0  0  0  0  0
    2.3270    8.5820   18.2590 Cl  0  0  0  0  0  0  0  0  0  0  0  0
    0.0050    9.5310   16.9520 H   0  0  0  0  0  0  0  0  0  0  0  0
    1.7240    9.5250   20.8800 H   0  0  0  0  0  0  0  0  0  0  0  0
   -2.0500   11.4460   20.2000 H   0  0  0  0  0  0  0  0  0  0  0  0
   -2.3000   10.1180   16.2930 C   0  0  0  0  0  0  0  0  0  0  0  0
   -3.3080   10.7900   15.3470 C   0  0  0  0  0  0  0  0  0  0  0  0
   -4.5920   10.9380   15.9740 O   0  0  0  0  0  0  0  0  0  0  0  0
   -4.4710   11.7550   17.1500 C   0  0  0  0  0  0  0  0  0  0  0  0
   -3.5000   11.1420   18.1730 C   0  0  0  0  0  0  0  0  0  0  0  0
   -2.1770   10.9050   17.5390 N   0  0  0  0  0  0  0  0  0  0  0  0
   -1.3330   10.0480   15.7820 H   0  0  0  0  0  0  0  0  0  0  0  0
   -2.6570    9.1060   16.5290 H   0  0  0  0  0  0  0  0  0  0  0  0
   -2.9510   11.7760   15.0250 H   0  0  0  0  0  0  0  0  0  0  0  0
   -3.4450   10.1750   14.4520 H   0  0  0  0  0  0  0  0  0  0  0  0
   -5.4680   11.8450   17.5940 H   0  0  0  0  0  0  0  0  0  0  0  0
   -4.1450   12.7590   16.8530 H   0  0  0  0  0  0  0  0  0  0  0  0
   -3.4320   11.8210   19.0290 H   0  0  0  0  0  0  0  0  0  0  0  0
   -3.9000   10.1830   18.5260 H   0  0  0  0  0  0  0  0  0  0  0  0
   -0.1190   10.7940   22.0330 O   0  0  0  0  0  0  0  0  0  0  0  0
   -0.3330    9.7100   22.9270 C   0  0  0  0  0  0  0  0  0  0  0  0
    0.5710    9.1030   23.0360 H   0  0  0  0  0  0  0  0  0  0  0  0
   -1.1850    9.0990   22.6100 H   0  0  0  0  0  0  0  0  0  0  0  0
   -0.5740   10.1300   23.9100 H   0  0  0  0  0  0  0  0  0  0  0  0
  1  6  1  0  0  0  0
  2  1  2  0  0  0  0
  2  3  1  0  0  0  0
  3  4  2  0  0  0  0
  4  5  1  0  0  0  0
  4  9  1  0  0  0  0
  5 25  1  0  0  0  0
  6 10  1  0  0  0  0
  6  5  2  0  0  0  0
  7  3  1  0  0  0  0
  8  2  1  0  0  0  0
 11 18  1  0  0  0  0
 11 16  1  0  0  0  0
 12 13  1  0  0  0  0
 12 11  1  0  0  0  0
 13 14  1  0  0  0  0
 14 21  1  0  0  0  0
 14 15  1  0  0  0  0
 15 24  1  0  0  0  0
 15 23  1  0  0  0  0
 16 15  1  0  0  0  0
 16  1  1  0  0  0  0
 17 11  1  0  0  0  0
 19 12  1  0  0  0  0
 20 12  1  0  0  0  0
 22 14  1  0  0  0  0
 25 26  1  0  0  0  0
 26 27  1  0  0  0  0
 26 29  1  0  0  0  0
 28 26  1  0  0  0  0
M  END
>  <MODEL>
26

>  <REMARK>
 VINA RESULT:    -4.646      7.928      9.516
 INTER + INTRA:          -5.525
 INTER:                  -5.311
 INTRA:                  -0.213
 UNBOUND:                -0.199
  Name = 
  3 active torsions:
  status: ('A' for Active; 'I' for Inactive)
    1  A    between atoms: N_6  and  C_7
    2  A    between atoms: C_11  and  O_13
    3  A    between atoms: O_13  and  C_14
                            x       y       z     vdW  Elec       q    Type
                         _______ _______ _______ _____ _____    ______ ____

>  <TORSDO>
F 3

$$$$
=
 OpenBabel07192307433D

 29 30  0  0  0  0  0  0  0  0999 V2000
    4.7250    4.8560   18.8080 C   0  0  0  0  0  0  0  0  0  0  0  0
    4.6060    3.4790   18.5580 C   0  0  0  0  0  0  0  0  0  0  0  0
    3.4590    2.7740   18.9190 C   0  0  0  0  0  0  0  0  0  0  0  0
    2.3970    3.4240   19.5320 C   0  0  0  0  0  0  0  0  0  0  0  0
    2.4750    4.7920   19.7820 C   0  0  0  0  0  0  0  0  0  0  0  0
    3.6310    5.4970   19.4170 C   0  0  0  0  0  0  0  0  0  0  0  0
    3.3570    1.0860   18.5950 Cl  0  0  0  0  0  0  0  0  0  0  0  0
    5.4100    2.9530   18.0480 H   0  0  0  0  0  0  0  0  0  0  0  0
    1.5030    2.8750   19.8130 H   0  0  0  0  0  0  0  0  0  0  0  0
    3.6900    6.5590   19.6220 H   0  0  0  0  0  0  0  0  0  0  0  0
    5.7710    6.7430   17.5850 C   0  0  0  0  0  0  0  0  0  0  0  0
    7.1560    7.1780   17.0810 C   0  0  0  0  0  0  0  0  0  0  0  0
    8.0580    7.4110   18.1750 O   0  0  0  0  0  0  0  0  0  0  0  0
    8.2210    6.2050   18.9400 C   0  0  0  0  0  0  0  0  0  0  0  0
    6.8830    5.7090   19.5130 C   0  0  0  0  0  0  0  0  0  0  0  0
    5.8970    5.5260   18.4160 N   0  0  0  0  0  0  0  0  0  0  0  0
    5.1260    6.5550   16.7190 H   0  0  0  0  0  0  0  0  0  0  0  0
    5.3400    7.5560   18.1850 H   0  0  0  0  0  0  0  0  0  0  0  0
    7.5890    6.4230   16.4140 H   0  0  0  0  0  0  0  0  0  0  0  0
    7.0690    8.1120   16.5180 H   0  0  0  0  0  0  0  0  0  0  0  0
    8.9160    6.4240   19.7580 H   0  0  0  0  0  0  0  0  0  0  0  0
    8.6830    5.4410   18.3040 H   0  0  0  0  0  0  0  0  0  0  0  0
    7.0700    4.7790   20.0600 H   0  0  0  0  0  0  0  0  0  0  0  0
    6.4920    6.4500   20.2210 H   0  0  0  0  0  0  0  0  0  0  0  0
    1.3670    5.3220   20.3860 O   0  0  0  0  0  0  0  0  0  0  0  0
    1.4760    6.6430   20.9000 C   0  0  0  0  0  0  0  0  0  0  0  0
    2.2130    6.6930   21.7080 H   0  0  0  0  0  0  0  0  0  0  0  0
    0.5010    7.0200   21.2280 H   0  0  0  0  0  0  0  0  0  0  0  0
    1.8260    7.2900   20.0890 H   0  0  0  0  0  0  0  0  0  0  0  0
  1  6  1  0  0  0  0
  2  1  2  0  0  0  0
  2  3  1  0  0  0  0
  3  4  2  0  0  0  0
  4  5  1  0  0  0  0
  4  9  1  0  0  0  0
  5 25  1  0  0  0  0
  6 10  1  0  0  0  0
  6  5  2  0  0  0  0
  7  3  1  0  0  0  0
  8  2  1  0  0  0  0
 11 18  1  0  0  0  0
 11 16  1  0  0  0  0
 12 11  1  0  0  0  0
 12 13  1  0  0  0  0
 13 14  1  0  0  0  0
 14 15  1  0  0  0  0
 14 21  1  0  0  0  0
 15 23  1  0  0  0  0
 15 24  1  0  0  0  0
 16  1  1  0  0  0  0
 16 15  1  0  0  0  0
 17 11  1  0  0  0  0
 19 12  1  0  0  0  0
 20 12  1  0  0  0  0
 22 14  1  0  0  0  0
 25 26  1  0  0  0  0
 26 28  1  0  0  0  0
 26 27  1  0  0  0  0
 29 26  1  0  0  0  0
M  END
>  <MODEL>
27

>  <REMARK>
 VINA RESULT:    -4.541      2.920      5.834
 INTER + INTRA:          -5.404
 INTER:                  -5.215
 INTRA:                  -0.189
 UNBOUND:                -0.199
  Name = 
  3 active torsions:
  status: ('A' for Active; 'I' for Inactive)
    1  A    between atoms: N_6  and  C_7
    2  A    between atoms: C_11  and  O_13
    3  A    between atoms: O_13  and  C_14
                            x       y       z     vdW  Elec       q    Type
                         _______ _______ _______ _____ _____    ______ ____

>  <TORSDO>
F 3

$$$$
=
 OpenBabel07192307433D

 29 30  0  0  0  0  0  0  0  0999 V2000
   -1.2360   10.7000   18.5110 C   0  0  0  0  0  0  0  0  0  0  0  0
   -1.3380   11.2830   19.7850 C   0  0  0  0  0  0  0  0  0  0  0  0
   -0.3820   11.0420   20.7700 C   0  0  0  0  0  0  0  0  0  0  0  0
    0.7050   10.2180   20.5100 C   0  0  0  0  0  0  0  0  0  0  0  0
    0.8450    9.6350   19.2530 C   0  0  0  0  0  0  0  0  0  0  0  0
   -0.1190    9.8810   18.2650 C   0  0  0  0  0  0  0  0  0  0  0  0
   -0.5480   11.7760   22.3190 Cl  0  0  0  0  0  0  0  0  0  0  0  0
   -2.1620   11.9590   20.0040 H   0  0  0  0  0  0  0  0  0  0  0  0
    1.4500   10.0310   21.2780 H   0  0  0  0  0  0  0  0  0  0  0  0
   -0.0110    9.4180   17.2920 H   0  0  0  0  0  0  0  0  0  0  0  0
   -2.2600   10.1600   16.3180 C   0  0  0  0  0  0  0  0  0  0  0  0
   -3.2440   10.7740   15.3100 C   0  0  0  0  0  0  0  0  0  0  0  0
   -4.5600   10.8960   15.8740 O   0  0  0  0  0  0  0  0  0  0  0  0
   -4.5190   11.7460   17.0320 C   0  0  0  0  0  0  0  0  0  0  0  0
   -3.5770   11.1910   18.1140 C   0  0  0  0  0  0  0  0  0  0  0  0
   -2.2200   10.9820   17.5470 N   0  0  0  0  0  0  0  0  0  0  0  0
   -1.2690   10.1090   15.8540 H   0  0  0  0  0  0  0  0  0  0  0  0
   -2.5950    9.1440   16.5650 H   0  0  0  0  0  0  0  0  0  0  0  0
   -2.9030   11.7630   14.9780 H   0  0  0  0  0  0  0  0  0  0  0  0
   -3.3190   10.1330   14.4270 H   0  0  0  0  0  0  0  0  0  0  0  0
   -5.5380   11.8140   17.4270 H   0  0  0  0  0  0  0  0  0  0  0  0
   -4.2120   12.7520   16.7240 H   0  0  0  0  0  0  0  0  0  0  0  0
   -3.5710   11.8930   18.9540 H   0  0  0  0  0  0  0  0  0  0  0  0
   -3.9630   10.2290   18.4740 H   0  0  0  0  0  0  0  0  0  0  0  0
    1.9560    8.8490   19.1140 O   0  0  0  0  0  0  0  0  0  0  0  0
    2.3370    8.4900   17.7920 C   0  0  0  0  0  0  0  0  0  0  0  0
    3.3810    8.7550   17.5960 H   0  0  0  0  0  0  0  0  0  0  0  0
    1.6680    8.9410   17.0520 H   0  0  0  0  0  0  0  0  0  0  0  0
    2.2480    7.4020   17.7020 H   0  0  0  0  0  0  0  0  0  0  0  0
  1  2  1  0  0  0  0
  2  8  1  0  0  0  0
  2  3  2  0  0  0  0
  3  7  1  0  0  0  0
  4  3  1  0  0  0  0
  4  9  1  0  0  0  0
  5  4  2  0  0  0  0
  6  1  2  0  0  0  0
  6  5  1  0  0  0  0
 10  6  1  0  0  0  0
 11 18  1  0  0  0  0
 11 16  1  0  0  0  0
 12 13  1  0  0  0  0
 12 11  1  0  0  0  0
 13 14  1  0  0  0  0
 14 21  1  0  0  0  0
 14 15  1  0  0  0  0
 15 24  1  0  0  0  0
 15 23  1  0  0  0  0
 16 15  1  0  0  0  0
 16  1  1  0  0  0  0
 17 11  1  0  0  0  0
 19 12  1  0  0  0  0
 20 12  1  0  0  0  0
 22 14  1  0  0  0  0
 25  5  1  0  0  0  0
 26 25  1  0  0  0  0
 27 26  1  0  0  0  0
 28 26  1  0  0  0  0
 29 26  1  0  0  0  0
M  END
>  <MODEL>
28

>  <REMARK>
 VINA RESULT:    -4.514      8.162      9.219
 INTER + INTRA:          -5.373
 INTER:                  -5.153
 INTRA:                  -0.219
 UNBOUND:                -0.199
  Name = 
  3 active torsions:
  status: ('A' for Active; 'I' for Inactive)
    1  A    between atoms: N_6  and  C_7
    2  A    between atoms: C_11  and  O_13
    3  A    between atoms: O_13  and  C_14
                            x       y       z     vdW  Elec       q    Type
                         _______ _______ _______ _____ _____    ______ ____

>  <TORSDO>
F 3

$$$$
=
 OpenBabel07192307433D

 29 30  0  0  0  0  0  0  0  0999 V2000
    1.1940    7.9620   20.5450 C   0  0  0  0  0  0  0  0  0  0  0  0
    1.9660    8.1130   19.3810 C   0  0  0  0  0  0  0  0  0  0  0  0
    2.7130    7.0550   18.8650 C   0  0  0  0  0  0  0  0  0  0  0  0
    2.7050    5.8160   19.4910 C   0  0  0  0  0  0  0  0  0  0  0  0
    1.9390    5.6270   20.6390 C   0  0  0  0  0  0  0  0  0  0  0  0
    1.1890    6.6940   21.1550 C   0  0  0  0  0  0  0  0  0  0  0  0
    3.6470    7.2860   17.4370 Cl  0  0  0  0  0  0  0  0  0  0  0  0
    1.9630    9.0630   18.8530 H   0  0  0  0  0  0  0  0  0  0  0  0
    3.2860    4.9920   19.0890 H   0  0  0  0  0  0  0  0  0  0  0  0
    0.6030    6.5440   22.0530 H   0  0  0  0  0  0  0  0  0  0  0  0
    0.3640    9.2690   22.4820 C   0  0  0  0  0  0  0  0  0  0  0  0
   -0.6720   10.3610   22.7910 C   0  0  0  0  0  0  0  0  0  0  0  0
   -0.3470   11.5910   22.1240 O   0  0  0  0  0  0  0  0  0  0  0  0
   -0.3260   11.3860   20.7010 C   0  0  0  0  0  0  0  0  0  0  0  0
    0.7090   10.3240   20.2940 C   0  0  0  0  0  0  0  0  0  0  0  0
    0.4490    9.0550   21.0210 N   0  0  0  0  0  0  0  0  0  0  0  0
    0.0630    8.3460   22.9910 H   0  0  0  0  0  0  0  0  0  0  0  0
    1.3420    9.5890   22.8660 H   0  0  0  0  0  0  0  0  0  0  0  0
   -1.6800   10.0460   22.4910 H   0  0  0  0  0  0  0  0  0  0  0  0
   -0.6900   10.5620   23.8660 H   0  0  0  0  0  0  0  0  0  0  0  0
   -0.0790   12.3440   20.2330 H   0  0  0  0  0  0  0  0  0  0  0  0
   -1.3310   11.1010   20.3690 H   0  0  0  0  0  0  0  0  0  0  0  0
    0.6570   10.1960   19.2070 H   0  0  0  0  0  0  0  0  0  0  0  0
    1.7160   10.6800   20.5490 H   0  0  0  0  0  0  0  0  0  0  0  0
    2.0070    4.3650   21.1640 O   0  0  0  0  0  0  0  0  0  0  0  0
    1.3140    3.3350   20.4730 C   0  0  0  0  0  0  0  0  0  0  0  0
    1.3550    2.3910   21.0260 H   0  0  0  0  0  0  0  0  0  0  0  0
    1.6990    3.2150   19.4540 H   0  0  0  0  0  0  0  0  0  0  0  0
    0.2630    3.6310   20.3970 H   0  0  0  0  0  0  0  0  0  0  0  0
  1 16  1  0  0  0  0
  1  6  1  0  0  0  0
  2  1  2  0  0  0  0
  3  2  1  0  0  0  0
  3  4  2  0  0  0  0
  4  5  1  0  0  0  0
  5  6  2  0  0  0  0
  5 25  1  0  0  0  0
  6 10  1  0  0  0  0
  7  3  1  0  0  0  0
  8  2  1  0  0  0  0
  9  4  1  0  0  0  0
 11 12  1  0  0  0  0
 11 18  1  0  0  0  0
 11 17  1  0  0  0  0
 12 20  1  0  0  0  0
 13 12  1  0  0  0  0
 14 13  1  0  0  0  0
 15 24  1  0  0  0  0
 15 14  1  0  0  0  0
 15 16  1  0  0  0  0
 16 11  1  0  0  0  0
 19 12  1  0  0  0  0
 21 14  1  0  0  0  0
 22 14  1  0  0  0  0
 23 15  1  0  0  0  0
 26 27  1  0  0  0  0
 26 25  1  0  0  0  0
 28 26  1  0  0  0  0
 29 26  1  0  0  0  0
M  END
>  <MODEL>
29

>  <REMARK>
 VINA RESULT:    -4.437      4.905      6.667
 INTER + INTRA:          -5.284
 INTER:                  -5.071
 INTRA:                  -0.213
 UNBOUND:                -0.199
  Name = 
  3 active torsions:
  status: ('A' for Active; 'I' for Inactive)
    1  A    between atoms: N_6  and  C_7
    2  A    between atoms: C_11  and  O_13
    3  A    between atoms: O_13  and  C_14
                            x       y       z     vdW  Elec       q    Type
                         _______ _______ _______ _____ _____    ______ ____

>  <TORSDO>
F 3

$$$$
=
 OpenBabel07192307433D

 29 30  0  0  0  0  0  0  0  0999 V2000
    4.3300    3.8600   18.1410 C   0  0  0  0  0  0  0  0  0  0  0  0
    2.9440    3.7790   17.9240 C   0  0  0  0  0  0  0  0  0  0  0  0
    2.1150    3.0760   18.7960 C   0  0  0  0  0  0  0  0  0  0  0  0
    2.6430    2.4410   19.9130 C   0  0  0  0  0  0  0  0  0  0  0  0
    4.0110    2.5140   20.1660 C   0  0  0  0  0  0  0  0  0  0  0  0
    4.8410    3.2220   19.2860 C   0  0  0  0  0  0  0  0  0  0  0  0
    0.4220    3.0000   18.4900 Cl  0  0  0  0  0  0  0  0  0  0  0  0
    2.5010    4.2950   17.0760 H   0  0  0  0  0  0  0  0  0  0  0  0
    1.9970    1.8940   20.5920 H   0  0  0  0  0  0  0  0  0  0  0  0
    5.9060    3.2670   19.4820 H   0  0  0  0  0  0  0  0  0  0  0  0
    6.4480    5.0690   17.6920 C   0  0  0  0  0  0  0  0  0  0  0  0
    7.0410    6.0280   16.6480 C   0  0  0  0  0  0  0  0  0  0  0  0
    7.1520    5.3950   15.3630 O   0  0  0  0  0  0  0  0  0  0  0  0
    5.8520    4.9870   14.9050 C   0  0  0  0  0  0  0  0  0  0  0  0
    5.1900    3.9970   15.8780 C   0  0  0  0  0  0  0  0  0  0  0  0
    5.1240    4.5890   17.2390 N   0  0  0  0  0  0  0  0  0  0  0  0
    6.3610    5.6020   18.6460 H   0  0  0  0  0  0  0  0  0  0  0  0
    7.1270    4.2160   17.8160 H   0  0  0  0  0  0  0  0  0  0  0  0
    6.4300    6.9340   16.5490 H   0  0  0  0  0  0  0  0  0  0  0  0
    8.0460    6.3340   16.9540 H   0  0  0  0  0  0  0  0  0  0  0  0
    5.9800    4.5140   13.9260 H   0  0  0  0  0  0  0  0  0  0  0  0
    5.2280    5.8770   14.7670 H   0  0  0  0  0  0  0  0  0  0  0  0
    4.1980    3.7460   15.4880 H   0  0  0  0  0  0  0  0  0  0  0  0
    5.7840    3.0750   15.9210 H   0  0  0  0  0  0  0  0  0  0  0  0
    4.4140    1.8540   21.2950 O   0  0  0  0  0  0  0  0  0  0  0  0
    5.4310    0.8720   21.1470 C   0  0  0  0  0  0  0  0  0  0  0  0
    5.0370   -0.1340   21.3240 H   0  0  0  0  0  0  0  0  0  0  0  0
    6.2830    1.0850   21.8020 H   0  0  0  0  0  0  0  0  0  0  0  0
    5.7870    0.9130   20.1130 H   0  0  0  0  0  0  0  0  0  0  0  0
  1  6  1  0  0  0  0
  2  1  2  0  0  0  0
  2  3  1  0  0  0  0
  3  4  2  0  0  0  0
  4  5  1  0  0  0  0
  4  9  1  0  0  0  0
  5 25  1  0  0  0  0
  6 10  1  0  0  0  0
  6  5  2  0  0  0  0
  7  3  1  0  0  0  0
  8  2  1  0  0  0  0
 11 18  1  0  0  0  0
 11 17  1  0  0  0  0
 12 20  1  0  0  0  0
 12 11  1  0  0  0  0
 13 12  1  0  0  0  0
 14 13  1  0  0  0  0
 14 15  1  0  0  0  0
 15 24  1  0  0  0  0
 15 16  1  0  0  0  0
 16 11  1  0  0  0  0
 16  1  1  0  0  0  0
 19 12  1  0  0  0  0
 21 14  1  0  0  0  0
 22 14  1  0  0  0  0
 23 15  1  0  0  0  0
 26 25  1  0  0  0  0
 26 27  1  0  0  0  0
 26 28  1  0  0  0  0
 29 26  1  0  0  0  0
M  END
>  <MODEL>
30

>  <REMARK>
 VINA RESULT:    -4.382      2.949      5.626
 INTER + INTRA:          -5.222
 INTER:                  -5.022
 INTRA:                  -0.199
 UNBOUND:                -0.199
  Name = 
  3 active torsions:
  status: ('A' for Active; 'I' for Inactive)
    1  A    between atoms: N_6  and  C_7
    2  A    between atoms: C_11  and  O_13
    3  A    between atoms: O_13  and  C_14
                            x       y       z     vdW  Elec       q    Type
                         _______ _______ _______ _____ _____    ______ ____

>  <TORSDO>
F 3

$$$$
=
 OpenBabel07192307433D

 29 30  0  0  0  0  0  0  0  0999 V2000
   -1.1100   11.1950   18.6610 C   0  0  0  0  0  0  0  0  0  0  0  0
   -1.0320   10.0710   19.5000 C   0  0  0  0  0  0  0  0  0  0  0  0
   -0.0770    9.9890   20.5120 C   0  0  0  0  0  0  0  0  0  0  0  0
    0.8200   11.0280   20.7210 C   0  0  0  0  0  0  0  0  0  0  0  0
    0.7600   12.1640   19.9160 C   0  0  0  0  0  0  0  0  0  0  0  0
   -0.2020   12.2420   18.9000 C   0  0  0  0  0  0  0  0  0  0  0  0
   -0.0140    8.5910   21.5160 Cl  0  0  0  0  0  0  0  0  0  0  0  0
   -1.7430    9.2580   19.3800 H   0  0  0  0  0  0  0  0  0  0  0  0
    1.5640   10.9640   21.5100 H   0  0  0  0  0  0  0  0  0  0  0  0
   -0.2380   13.1230   18.2710 H   0  0  0  0  0  0  0  0  0  0  0  0
   -2.0600   10.2160   16.5900 C   0  0  0  0  0  0  0  0  0  0  0  0
   -3.0700   10.5770   15.4900 C   0  0  0  0  0  0  0  0  0  0  0  0
   -4.4000   10.6950   16.0210 O   0  0  0  0  0  0  0  0  0  0  0  0
   -4.4380   11.7300   17.0180 C   0  0  0  0  0  0  0  0  0  0  0  0
   -3.4750   11.4370   18.1810 C   0  0  0  0  0  0  0  0  0  0  0  0
   -2.0970   11.2360   17.6610 N   0  0  0  0  0  0  0  0  0  0  0  0
   -1.0610   10.1600   16.1440 H   0  0  0  0  0  0  0  0  0  0  0  0
   -2.3240    9.2350   17.0060 H   0  0  0  0  0  0  0  0  0  0  0  0
   -2.7970   11.5170   14.9950 H   0  0  0  0  0  0  0  0  0  0  0  0
   -3.0860    9.7910   14.7280 H   0  0  0  0  0  0  0  0  0  0  0  0
   -5.4650   11.7890   17.3930 H   0  0  0  0  0  0  0  0  0  0  0  0
   -4.1990   12.6890   16.5430 H   0  0  0  0  0  0  0  0  0  0  0  0
   -3.5310   12.2710   18.8890 H   0  0  0  0  0  0  0  0  0  0  0  0
   -3.7950   10.5250   18.6990 H   0  0  0  0  0  0  0  0  0  0  0  0
    1.6910   13.1210   20.2180 O   0  0  0  0  0  0  0  0  0  0  0  0
    2.5450   13.5520   19.1670 C   0  0  0  0  0  0  0  0  0  0  0  0
    3.5350   13.8240   19.5490 H   0  0  0  0  0  0  0  0  0  0  0  0
    2.0950   14.3790   18.6060 H   0  0  0  0  0  0  0  0  0  0  0  0
    2.6740   12.7130   18.4760 H   0  0  0  0  0  0  0  0  0  0  0  0
  1  6  2  0  0  0  0
  1  2  1  0  0  0  0
  2  3  2  0  0  0  0
  3  4  1  0  0  0  0
  3  7  1  0  0  0  0
  4  9  1  0  0  0  0
  5 25  1  0  0  0  0
  5  4  2  0  0  0  0
  6  5  1  0  0  0  0
  8  2  1  0  0  0  0
 10  6  1  0  0  0  0
 11 18  1  0  0  0  0
 11 16  1  0  0  0  0
 12 13  1  0  0  0  0
 12 11  1  0  0  0  0
 13 14  1  0  0  0  0
 14 21  1  0  0  0  0
 14 15  1  0  0  0  0
 15 24  1  0  0  0  0
 15 23  1  0  0  0  0
 16 15  1  0  0  0  0
 16  1  1  0  0  0  0
 17 11  1  0  0  0  0
 19 12  1  0  0  0  0
 20 12  1  0  0  0  0
 22 14  1  0  0  0  0
 26 27  1  0  0  0  0
 26 25  1  0  0  0  0
 28 26  1  0  0  0  0
 29 26  1  0  0  0  0
M  END
>  <MODEL>
31

>  <REMARK>
 VINA RESULT:    -4.255      8.776      9.759
 INTER + INTRA:          -5.076
 INTER:                  -4.890
 INTRA:                  -0.186
 UNBOUND:                -0.199
  Name = 
  3 active torsions:
  status: ('A' for Active; 'I' for Inactive)
    1  A    between atoms: N_6  and  C_7
    2  A    between atoms: C_11  and  O_13
    3  A    between atoms: O_13  and  C_14
                            x       y       z     vdW  Elec       q    Type
                         _______ _______ _______ _____ _____    ______ ____

>  <TORSDO>
F 3

$$$$
=
 OpenBabel07192307433D

 29 30  0  0  0  0  0  0  0  0999 V2000
   -2.5620   11.8360   19.2780 C   0  0  0  0  0  0  0  0  0  0  0  0
   -1.3060   11.2070   19.2820 C   0  0  0  0  0  0  0  0  0  0  0  0
   -0.9210   10.3550   18.2480 C   0  0  0  0  0  0  0  0  0  0  0  0
   -1.7740   10.1130   17.1790 C   0  0  0  0  0  0  0  0  0  0  0  0
   -3.0210   10.7330   17.1370 C   0  0  0  0  0  0  0  0  0  0  0  0
   -3.4040   11.5890   18.1790 C   0  0  0  0  0  0  0  0  0  0  0  0
    0.6270    9.6020   18.2940 Cl  0  0  0  0  0  0  0  0  0  0  0  0
   -0.6070   11.4050   20.0900 H   0  0  0  0  0  0  0  0  0  0  0  0
   -1.4740    9.4500   16.3740 H   0  0  0  0  0  0  0  0  0  0  0  0
   -4.3790   12.0610   18.1460 H   0  0  0  0  0  0  0  0  0  0  0  0
   -4.3320   12.9680   20.5960 C   0  0  0  0  0  0  0  0  0  0  0  0
   -4.4710   14.0960   21.6310 C   0  0  0  0  0  0  0  0  0  0  0  0
   -3.7970   13.7650   22.8560 O   0  0  0  0  0  0  0  0  0  0  0  0
   -2.3970   13.5610   22.6040 C   0  0  0  0  0  0  0  0  0  0  0  0
   -2.1580   12.4240   21.5960 C   0  0  0  0  0  0  0  0  0  0  0  0
   -2.9010   12.6950   20.3380 N   0  0  0  0  0  0  0  0  0  0  0  0
   -4.8400   13.2740   19.6740 H   0  0  0  0  0  0  0  0  0  0  0  0
   -4.8150   12.0640   20.9900 H   0  0  0  0  0  0  0  0  0  0  0  0
   -4.0680   15.0400   21.2440 H   0  0  0  0  0  0  0  0  0  0  0  0
   -5.5280   14.2550   21.8670 H   0  0  0  0  0  0  0  0  0  0  0  0
   -1.9220   13.3150   23.5590 H   0  0  0  0  0  0  0  0  0  0  0  0
   -1.9600   14.5000   22.2450 H   0  0  0  0  0  0  0  0  0  0  0  0
   -1.0800   12.3370   21.4280 H   0  0  0  0  0  0  0  0  0  0  0  0
   -2.5160   11.4780   22.0220 H   0  0  0  0  0  0  0  0  0  0  0  0
   -3.7700   10.4220   16.0350 O   0  0  0  0  0  0  0  0  0  0  0  0
   -3.0720   10.1790   14.8210 C   0  0  0  0  0  0  0  0  0  0  0  0
   -2.2820   10.9210   14.6640 H   0  0  0  0  0  0  0  0  0  0  0  0
   -3.7610   10.1460   13.9690 H   0  0  0  0  0  0  0  0  0  0  0  0
   -2.5950    9.1970   14.9000 H   0  0  0  0  0  0  0  0  0  0  0  0
  1  2  1  0  0  0  0
  1 16  1  0  0  0  0
  2  8  1  0  0  0  0
  3  7  1  0  0  0  0
  3  2  2  0  0  0  0
  4  3  1  0  0  0  0
  5  4  2  0  0  0  0
  5  6  1  0  0  0  0
  6  1  2  0  0  0  0
  9  4  1  0  0  0  0
 10  6  1  0  0  0  0
 11 18  1  0  0  0  0
 11 12  1  0  0  0  0
 12 20  1  0  0  0  0
 12 13  1  0  0  0  0
 14 13  1  0  0  0  0
 14 21  1  0  0  0  0
 15 24  1  0  0  0  0
 15 14  1  0  0  0  0
 16 11  1  0  0  0  0
 16 15  1  0  0  0  0
 17 11  1  0  0  0  0
 19 12  1  0  0  0  0
 22 14  1  0  0  0  0
 23 15  1  0  0  0  0
 25  5  1  0  0  0  0
 26 29  1  0  0  0  0
 26 25  1  0  0  0  0
 27 26  1  0  0  0  0
 28 26  1  0  0  0  0
M  END
>  <MODEL>
32

>  <REMARK>
 VINA RESULT:    -4.249      9.591     10.851
 INTER + INTRA:          -5.069
 INTER:                  -4.843
 INTRA:                  -0.226
 UNBOUND:                -0.199
  Name = 
  3 active torsions:
  status: ('A' for Active; 'I' for Inactive)
    1  A    between atoms: N_6  and  C_7
    2  A    between atoms: C_11  and  O_13
    3  A    between atoms: O_13  and  C_14
                            x       y       z     vdW  Elec       q    Type
                         _______ _______ _______ _____ _____    ______ ____

>  <TORSDO>
F 3

$$$$
