=
 OpenBabel07192307433D

 43 46  0  0  1  0  0  0  0  0999 V2000
    2.9790    6.4610   18.1120 C   0  0  0  0  0  0  0  0  0  0  0  0
    4.2980    6.3230   17.7340 C   0  0  0  0  0  0  0  0  0  0  0  0
    4.5740    4.7400   17.1380 S   0  0  0  0  0  0  0  0  0  0  0  0
    2.9290    4.3520   17.4490 C   0  0  0  0  0  0  0  0  0  0  0  0
    2.2040    5.3230   17.9630 N   0  0  0  0  0  0  0  0  0  0  0  0
    5.0990    7.0450   17.7860 H   0  0  0  0  0  0  0  0  0  0  0  0
    1.5890    9.7820   18.7790 C   0  0  0  0  0  0  0  0  0  0  0  0
    2.2590    8.8700   17.9850 C   0  0  0  0  0  0  0  0  0  0  0  0
    2.3460    7.6550   18.6850 C   0  0  0  0  0  0  0  0  0  0  0  0
    1.7750    7.8500   19.9310 C   0  0  0  0  0  0  0  0  0  0  0  0
    1.2240    9.1440   19.9710 N   0  0  0  0  0  0  0  0  0  0  0  0
    0.4490    9.6590   21.0280 C   0  0  2  0  0  3  0  0  0  0  0  0
    0.1060    8.9970   22.1150 N   0  0  0  0  0  0  0  0  0  0  0  0
   -0.6390    9.8990   22.8170 C   0  0  0  0  0  0  0  0  0  0  0  0
   -0.7870   11.0870   22.2300 N   0  0  0  0  0  2  0  0  0  0  0  0
   -0.0920   10.9080   21.0930 N   0  0  0  0  0  0  0  0  0  0  0  0
    2.6460    9.0640   16.9920 H   0  0  0  0  0  0  0  0  0  0  0  0
   -1.0830    9.6830   23.7810 H   0  0  0  0  0  0  0  0  0  0  0  0
   -0.0460   11.6760   20.4380 H   0  0  0  0  0  0  0  0  0  0  0  0
    1.3000   11.1960   18.4150 C   0  0  0  0  0  0  0  0  0  0  0  0
    0.5790   11.6360   19.1130 H   0  0  0  0  0  0  0  0  0  0  0  0
    0.8580   11.2640   17.4160 H   0  0  0  0  0  0  0  0  0  0  0  0
    2.2070   11.8060   18.4650 H   0  0  0  0  0  0  0  0  0  0  0  0
    1.7170    6.9180   21.0990 C   0  0  0  0  0  0  0  0  0  0  0  0
    2.4990    6.1560   21.0360 H   0  0  0  0  0  0  0  0  0  0  0  0
    1.8150    7.4700   22.0390 H   0  0  0  0  0  0  0  0  0  0  0  0
    0.7720    6.3690   21.1290 H   0  0  0  0  0  0  0  0  0  0  0  0
    2.3930    2.9900   17.1370 C   0  0  0  0  0  0  0  0  0  0  0  0
    2.6860    2.7270   16.1140 H   0  0  0  0  0  0  0  0  0  0  0  0
    1.2970    2.9850   17.1520 H   0  0  0  0  0  0  0  0  0  0  0  0
    2.9450    1.9560   18.1210 C   0  0  0  0  0  0  0  0  0  0  0  0
    2.6460    0.9380   17.8430 H   0  0  0  0  0  0  0  0  0  0  0  0
    4.0420    1.9910   18.1060 H   0  0  0  0  0  0  0  0  0  0  0  0
    2.5200    2.1870   19.4920 N   0  0  0  0  0  0  0  0  0  0  0  0
    1.1930    2.5970   19.8290 C   0  0  0  0  0  0  0  0  0  0  0  0
    1.2860    2.7200   21.3300 C   0  0  0  0  0  0  0  0  0  0  0  0
    2.6710    2.9870   21.5830 O   0  0  0  0  0  0  0  0  0  0  0  0
    3.3850    2.5790   20.4880 C   0  0  0  0  0  0  0  0  0  0  0  0
    4.6030    2.6060   20.4180 O   0  0  0  0  0  0  0  0  0  0  0  0
    0.4470    1.8680   19.5010 H   0  0  0  0  0  0  0  0  0  0  0  0
    0.9970    3.5690   19.3680 H   0  0  0  0  0  0  0  0  0  0  0  0
    1.0180    1.7880   21.8400 H   0  0  0  0  0  0  0  0  0  0  0  0
    0.6670    3.5320   21.7200 H   0  0  0  0  0  0  0  0  0  0  0  0
  1  9  1  0  0  0  0
  2  6  1  0  0  0  0
  2  1  2  0  0  0  0
  3  4  1  0  0  0  0
  3  2  1  0  0  0  0
  4  5  2  0  0  0  0
  5  1  1  0  0  0  0
  7 11  1  0  0  0  0
  8  9  1  0  0  0  0
  8  7  2  0  0  0  0
  9 10  2  0  0  0  0
 10 11  1  0  0  0  0
 10 24  1  0  0  0  0
 12 11  1  6  0  0  0
 12 16  1  0  0  0  0
 12 13  1  0  0  0  0
 13 14  2  0  0  0  0
 14 18  1  0  0  0  0
 15 14  1  0  0  0  0
 16 15  1  0  0  0  0
 17  8  1  0  0  0  0
 19 16  1  0  0  0  0
 20 23  1  0  0  0  0
 20  7  1  0  0  0  0
 20 21  1  0  0  0  0
 22 20  1  0  0  0  0
 24 27  1  0  0  0  0
 24 26  1  0  0  0  0
 25 24  1  0  0  0  0
 28 30  1  0  0  0  0
 28  4  1  0  0  0  0
 28 31  1  0  0  0  0
 29 28  1  0  0  0  0
 31 34  1  0  0  0  0
 32 31  1  0  0  0  0
 33 31  1  0  0  0  0
 34 35  1  0  0  0  0
 34 38  1  0  0  0  0
 35 36  1  0  0  0  0
 36 37  1  0  0  0  0
 36 43  1  0  0  0  0
 36 42  1  0  0  0  0
 38 37  1  0  0  0  0
 39 38  2  0  0  0  0
 40 35  1  0  0  0  0
 41 35  1  0  0  0  0
M  END
>  <MODEL>
1

>  <REMARK>
 VINA RESULT:    -7.568      0.000      0.000
 INTER + INTRA:          -9.994
 INTER:                  -9.391
 INTRA:                  -0.603
 UNBOUND:                -0.213
  Name = 
  6 active torsions:
  status: ('A' for Active; 'I' for Inactive)
    1  A    between atoms: C_1  and  C_2
    2  A    between atoms: C_4  and  C_5
    3  A    between atoms: C_8  and  C_9
    4  A    between atoms: C_9  and  C_10
    5  A    between atoms: C_10  and  N_11
    6  A    between atoms: C_18  and  C_19
                            x       y       z     vdW  Elec       q    Type
                         _______ _______ _______ _____ _____    ______ ____

>  <TORSDO>
F 6

$$$$
=
 OpenBabel07192307433D

 43 46  0  0  1  0  0  0  0  0999 V2000
    2.7330    6.5440   18.7210 C   0  0  0  0  0  0  0  0  0  0  0  0
    4.0760    6.4880   18.4180 C   0  0  0  0  0  0  0  0  0  0  0  0
    4.4350    5.0190   17.6120 S   0  0  0  0  0  0  0  0  0  0  0  0
    2.7860    4.5590   17.7490 C   0  0  0  0  0  0  0  0  0  0  0  0
    2.0020    5.4270   18.3520 N   0  0  0  0  0  0  0  0  0  0  0  0
    4.8520    7.2090   18.6310 H   0  0  0  0  0  0  0  0  0  0  0  0
    0.9470    8.6690   21.1090 C   0  0  0  0  0  0  0  0  0  0  0  0
    1.5210    7.4730   20.7230 C   0  0  0  0  0  0  0  0  0  0  0  0
    2.0310    7.6260   19.4220 C   0  0  0  0  0  0  0  0  0  0  0  0
    1.7130    8.9050   18.9990 C   0  0  0  0  0  0  0  0  0  0  0  0
    1.1150    9.5930   20.0690 N   0  0  0  0  0  0  0  0  0  0  0  0
    0.7700   10.9580   20.0600 C   0  0  2  0  0  3  0  0  0  0  0  0
    0.9850   11.7920   19.0600 N   0  0  0  0  0  0  0  0  0  0  0  0
    0.4990   12.9790   19.5240 C   0  0  0  0  0  0  0  0  0  0  0  0
   -0.0030   12.9390   20.7590 N   0  0  0  0  0  2  0  0  0  0  0  0
    0.1860   11.6470   21.0790 N   0  0  0  0  0  0  0  0  0  0  0  0
    1.5690    6.5740   21.3260 H   0  0  0  0  0  0  0  0  0  0  0  0
    0.5120   13.8950   18.9460 H   0  0  0  0  0  0  0  0  0  0  0  0
   -0.1080   11.3370   21.9950 H   0  0  0  0  0  0  0  0  0  0  0  0
    0.2770    8.9260   22.4120 C   0  0  0  0  0  0  0  0  0  0  0  0
    1.0090    8.9420   23.2280 H   0  0  0  0  0  0  0  0  0  0  0  0
   -0.4430    8.1360   22.6480 H   0  0  0  0  0  0  0  0  0  0  0  0
   -0.2220    9.8990   22.4110 H   0  0  0  0  0  0  0  0  0  0  0  0
    1.9170    9.5320   17.6570 C   0  0  0  0  0  0  0  0  0  0  0  0
    1.9990    8.7720   16.8740 H   0  0  0  0  0  0  0  0  0  0  0  0
    1.0960   10.2170   17.4210 H   0  0  0  0  0  0  0  0  0  0  0  0
    2.8510   10.1000   17.6150 H   0  0  0  0  0  0  0  0  0  0  0  0
    2.3100    3.2500   17.2020 C   0  0  0  0  0  0  0  0  0  0  0  0
    2.6580    3.1590   16.1660 H   0  0  0  0  0  0  0  0  0  0  0  0
    1.2150    3.2140   17.1590 H   0  0  0  0  0  0  0  0  0  0  0  0
    2.8490    2.0880   18.0390 C   0  0  0  0  0  0  0  0  0  0  0  0
    2.4760    1.1230   17.6750 H   0  0  0  0  0  0  0  0  0  0  0  0
    3.9430    2.0650   17.9650 H   0  0  0  0  0  0  0  0  0  0  0  0
    2.5090    2.1930   19.4490 N   0  0  0  0  0  0  0  0  0  0  0  0
    1.2180    2.6070   19.9030 C   0  0  0  0  0  0  0  0  0  0  0  0
    1.3990    2.5760   21.4000 C   0  0  0  0  0  0  0  0  0  0  0  0
    2.8050    2.7740   21.5960 O   0  0  0  0  0  0  0  0  0  0  0  0
    3.4420    2.4570   20.4260 C   0  0  0  0  0  0  0  0  0  0  0  0
    4.6540    2.4540   20.2870 O   0  0  0  0  0  0  0  0  0  0  0  0
    0.4300    1.9370   19.5490 H   0  0  0  0  0  0  0  0  0  0  0  0
    1.0310    3.6260   19.5510 H   0  0  0  0  0  0  0  0  0  0  0  0
    1.1270    1.6060   21.8310 H   0  0  0  0  0  0  0  0  0  0  0  0
    0.8320    3.3630   21.9040 H   0  0  0  0  0  0  0  0  0  0  0  0
  1  9  1  0  0  0  0
  2  6  1  0  0  0  0
  2  1  2  0  0  0  0
  3  4  1  0  0  0  0
  3  2  1  0  0  0  0
  4  5  2  0  0  0  0
  5  1  1  0  0  0  0
  7 20  1  0  0  0  0
  8  7  2  0  0  0  0
  8 17  1  0  0  0  0
  9  8  1  0  0  0  0
 10  9  2  0  0  0  0
 10 11  1  0  0  0  0
 11  7  1  0  0  0  0
 12 11  1  1  0  0  0
 12 16  1  0  0  0  0
 13 14  2  0  0  0  0
 13 12  1  0  0  0  0
 14 15  1  0  0  0  0
 15 16  1  0  0  0  0
 16 19  1  0  0  0  0
 18 14  1  0  0  0  0
 20 22  1  0  0  0  0
 20 21  1  0  0  0  0
 23 20  1  0  0  0  0
 24 10  1  0  0  0  0
 25 24  1  0  0  0  0
 26 24  1  0  0  0  0
 27 24  1  0  0  0  0
 28  4  1  0  0  0  0
 28 31  1  0  0  0  0
 29 28  1  0  0  0  0
 30 28  1  0  0  0  0
 31 34  1  0  0  0  0
 32 31  1  0  0  0  0
 33 31  1  0  0  0  0
 34 35  1  0  0  0  0
 34 38  1  0  0  0  0
 35 36  1  0  0  0  0
 36 37  1  0  0  0  0
 36 42  1  0  0  0  0
 36 43  1  0  0  0  0
 38 37  1  0  0  0  0
 39 38  2  0  0  0  0
 40 35  1  0  0  0  0
 41 35  1  0  0  0  0
M  END
>  <MODEL>
2

>  <REMARK>
 VINA RESULT:    -7.268      1.028      2.115
 INTER + INTRA:          -9.605
 INTER:                  -9.230
 INTRA:                  -0.375
 UNBOUND:                -0.213
  Name = 
  6 active torsions:
  status: ('A' for Active; 'I' for Inactive)
    1  A    between atoms: C_1  and  C_2
    2  A    between atoms: C_4  and  C_5
    3  A    between atoms: C_8  and  C_9
    4  A    between atoms: C_9  and  C_10
    5  A    between atoms: C_10  and  N_11
    6  A    between atoms: C_18  and  C_19
                            x       y       z     vdW  Elec       q    Type
                         _______ _______ _______ _____ _____    ______ ____

>  <TORSDO>
F 6

$$$$
=
 OpenBabel07192307433D

 43 46  0  0  1  0  0  0  0  0999 V2000
    2.5790    5.9470   19.5960 C   0  0  0  0  0  0  0  0  0  0  0  0
    1.9790    4.7450   19.2890 C   0  0  0  0  0  0  0  0  0  0  0  0
    3.1710    3.5710   18.9180 S   0  0  0  0  0  0  0  0  0  0  0  0
    4.3920    4.7540   19.1690 C   0  0  0  0  0  0  0  0  0  0  0  0
    3.9610    5.9510   19.5080 N   0  0  0  0  0  0  0  0  0  0  0  0
    0.9280    4.4990   19.2520 H   0  0  0  0  0  0  0  0  0  0  0  0
    0.7410    8.6660   21.2190 C   0  0  0  0  0  0  0  0  0  0  0  0
    1.2380    7.3770   21.1750 C   0  0  0  0  0  0  0  0  0  0  0  0
    1.9080    7.2020   19.9520 C   0  0  0  0  0  0  0  0  0  0  0  0
    1.7660    8.3750   19.2300 C   0  0  0  0  0  0  0  0  0  0  0  0
    1.1160    9.3230   20.0400 N   0  0  0  0  0  0  0  0  0  0  0  0
    0.9070   10.6720   19.6960 C   0  0  2  0  0  3  0  0  0  0  0  0
    1.3150   11.2460   18.5810 N   0  0  0  0  0  0  0  0  0  0  0  0
    0.8950   12.5370   18.7150 C   0  0  0  0  0  0  0  0  0  0  0  0
    0.2520   12.8070   19.8510 N   0  0  0  0  0  2  0  0  0  0  0  0
    0.2780   11.6080   20.4600 N   0  0  0  0  0  0  0  0  0  0  0  0
    1.1300    6.6340   21.9560 H   0  0  0  0  0  0  0  0  0  0  0  0
    1.0630   13.2990   17.9630 H   0  0  0  0  0  0  0  0  0  0  0  0
   -0.1490   11.5290   21.3730 H   0  0  0  0  0  0  0  0  0  0  0  0
   -0.0480    9.2500   22.3370 C   0  0  0  0  0  0  0  0  0  0  0  0
   -0.1690    8.5230   23.1490 H   0  0  0  0  0  0  0  0  0  0  0  0
   -1.0530    9.5290   22.0070 H   0  0  0  0  0  0  0  0  0  0  0  0
    0.4610   10.1210   22.7620 H   0  0  0  0  0  0  0  0  0  0  0  0
    2.1830    8.6730   17.8250 C   0  0  0  0  0  0  0  0  0  0  0  0
    1.7750    7.9360   17.1270 H   0  0  0  0  0  0  0  0  0  0  0  0
    1.8600    9.6770   17.5310 H   0  0  0  0  0  0  0  0  0  0  0  0
    3.2680    8.6220   17.7070 H   0  0  0  0  0  0  0  0  0  0  0  0
    5.8380    4.4070   19.0080 C   0  0  0  0  0  0  0  0  0  0  0  0
    5.9080    3.3890   18.6050 H   0  0  0  0  0  0  0  0  0  0  0  0
    6.3500    4.3860   19.9770 H   0  0  0  0  0  0  0  0  0  0  0  0
    6.5260    5.3910   18.0610 C   0  0  0  0  0  0  0  0  0  0  0  0
    6.2170    6.4240   18.2610 H   0  0  0  0  0  0  0  0  0  0  0  0
    7.6120    5.3400   18.2110 H   0  0  0  0  0  0  0  0  0  0  0  0
    6.2660    5.1130   16.6580 N   0  0  0  0  0  0  0  0  0  0  0  0
    7.1980    4.4240   15.8220 C   0  0  0  0  0  0  0  0  0  0  0  0
    6.4760    4.4250   14.4970 C   0  0  0  0  0  0  0  0  0  0  0  0
    5.6130    5.5680   14.5600 O   0  0  0  0  0  0  0  0  0  0  0  0
    5.4480    5.8990   15.8780 C   0  0  0  0  0  0  0  0  0  0  0  0
    4.7110    6.7880   16.2720 O   0  0  0  0  0  0  0  0  0  0  0  0
    7.4140    3.4200   16.1960 H   0  0  0  0  0  0  0  0  0  0  0  0
    8.1210    5.0110   15.7660 H   0  0  0  0  0  0  0  0  0  0  0  0
    5.8540    3.5330   14.3630 H   0  0  0  0  0  0  0  0  0  0  0  0
    7.1610    4.5140   13.6500 H   0  0  0  0  0  0  0  0  0  0  0  0
  1  9  1  0  0  0  0
  2  1  2  0  0  0  0
  3  4  1  0  0  0  0
  3  2  1  0  0  0  0
  4  5  2  0  0  0  0
  5  1  1  0  0  0  0
  6  2  1  0  0  0  0
  7 20  1  0  0  0  0
  8  7  2  0  0  0  0
  8 17  1  0  0  0  0
  9  8  1  0  0  0  0
 10  9  2  0  0  0  0
 10 11  1  0  0  0  0
 11  7  1  0  0  0  0
 12 11  1  1  0  0  0
 12 16  1  0  0  0  0
 13 14  2  0  0  0  0
 13 12  1  0  0  0  0
 14 15  1  0  0  0  0
 15 16  1  0  0  0  0
 16 19  1  0  0  0  0
 18 14  1  0  0  0  0
 20 23  1  0  0  0  0
 20 21  1  0  0  0  0
 22 20  1  0  0  0  0
 24 10  1  0  0  0  0
 25 24  1  0  0  0  0
 26 24  1  0  0  0  0
 27 24  1  0  0  0  0
 28  4  1  0  0  0  0
 28 30  1  0  0  0  0
 29 28  1  0  0  0  0
 31 33  1  0  0  0  0
 31 32  1  0  0  0  0
 31 28  1  0  0  0  0
 34 31  1  0  0  0  0
 35 40  1  0  0  0  0
 35 34  1  0  0  0  0
 36 37  1  0  0  0  0
 36 35  1  0  0  0  0
 37 38  1  0  0  0  0
 38 39  2  0  0  0  0
 38 34  1  0  0  0  0
 41 35  1  0  0  0  0
 42 36  1  0  0  0  0
 43 36  1  0  0  0  0
M  END
>  <MODEL>
3

>  <REMARK>
 VINA RESULT:    -7.209      2.791      4.423
 INTER + INTRA:          -9.530
 INTER:                  -8.787
 INTRA:                  -0.743
 UNBOUND:                -0.213
  Name = 
  6 active torsions:
  status: ('A' for Active; 'I' for Inactive)
    1  A    between atoms: C_1  and  C_2
    2  A    between atoms: C_4  and  C_5
    3  A    between atoms: C_8  and  C_9
    4  A    between atoms: C_9  and  C_10
    5  A    between atoms: C_10  and  N_11
    6  A    between atoms: C_18  and  C_19
                            x       y       z     vdW  Elec       q    Type
                         _______ _______ _______ _____ _____    ______ ____

>  <TORSDO>
F 6

$$$$
=
 OpenBabel07192307433D

 43 46  0  0  1  0  0  0  0  0999 V2000
    2.8780    6.7400   18.5460 C   0  0  0  0  0  0  0  0  0  0  0  0
    4.1790    6.8810   18.1140 C   0  0  0  0  0  0  0  0  0  0  0  0
    4.6740    5.4700   17.2750 S   0  0  0  0  0  0  0  0  0  0  0  0
    3.1330    4.7710   17.5710 C   0  0  0  0  0  0  0  0  0  0  0  0
    2.2900    5.5210   18.2490 N   0  0  0  0  0  0  0  0  0  0  0  0
    4.8550    7.7110   18.2510 H   0  0  0  0  0  0  0  0  0  0  0  0
    0.9390    8.5600   21.0630 C   0  0  0  0  0  0  0  0  0  0  0  0
    1.6100    7.4420   20.6040 C   0  0  0  0  0  0  0  0  0  0  0  0
    2.0930    7.7140   19.3130 C   0  0  0  0  0  0  0  0  0  0  0  0
    1.6640    8.9840   18.9680 C   0  0  0  0  0  0  0  0  0  0  0  0
    1.0180    9.5540   20.0800 N   0  0  0  0  0  0  0  0  0  0  0  0
    0.5590   10.8840   20.1530 C   0  0  2  0  0  3  0  0  0  0  0  0
    0.6930   11.7900   19.2040 N   0  0  0  0  0  0  0  0  0  0  0  0
    0.1120   12.9020   19.7400 C   0  0  0  0  0  0  0  0  0  0  0  0
   -0.3730   12.7460   20.9720 N   0  0  0  0  0  2  0  0  0  0  0  0
   -0.0720   11.4590   21.2140 N   0  0  0  0  0  0  0  0  0  0  0  0
    1.7400    6.5160   21.1530 H   0  0  0  0  0  0  0  0  0  0  0  0
    0.0420   13.8480   19.2170 H   0  0  0  0  0  0  0  0  0  0  0  0
   -0.3310   11.0710   22.1110 H   0  0  0  0  0  0  0  0  0  0  0  0
    0.2620    8.6810   22.3820 C   0  0  0  0  0  0  0  0  0  0  0  0
   -0.7110    9.1760   22.2750 H   0  0  0  0  0  0  0  0  0  0  0  0
    0.8530    9.2880   23.0750 H   0  0  0  0  0  0  0  0  0  0  0  0
    0.0720    7.6950   22.8170 H   0  0  0  0  0  0  0  0  0  0  0  0
    1.8010    9.7050   17.6650 C   0  0  0  0  0  0  0  0  0  0  0  0
    2.8330   10.0320   17.5010 H   0  0  0  0  0  0  0  0  0  0  0  0
    1.4820    9.0670   16.8350 H   0  0  0  0  0  0  0  0  0  0  0  0
    1.1960   10.6150   17.6410 H   0  0  0  0  0  0  0  0  0  0  0  0
    2.8080    3.3990   17.0720 C   0  0  0  0  0  0  0  0  0  0  0  0
    3.3900    3.2130   16.1620 H   0  0  0  0  0  0  0  0  0  0  0  0
    1.7540    3.3240   16.7810 H   0  0  0  0  0  0  0  0  0  0  0  0
    3.1440    2.3470   18.1310 C   0  0  0  0  0  0  0  0  0  0  0  0
    2.7840    1.3530   17.8380 H   0  0  0  0  0  0  0  0  0  0  0  0
    4.2340    2.2800   18.2430 H   0  0  0  0  0  0  0  0  0  0  0  0
    2.5890    2.6540   19.4390 N   0  0  0  0  0  0  0  0  0  0  0  0
    3.3630    2.5950   20.6390 C   0  0  0  0  0  0  0  0  0  0  0  0
    2.3360    2.9630   21.6810 C   0  0  0  0  0  0  0  0  0  0  0  0
    1.0830    2.5790   21.1010 O   0  0  0  0  0  0  0  0  0  0  0  0
    1.2580    2.4830   19.7460 C   0  0  0  0  0  0  0  0  0  0  0  0
    0.3600    2.2410   18.9570 O   0  0  0  0  0  0  0  0  0  0  0  0
    4.2130    3.2830   20.6080 H   0  0  0  0  0  0  0  0  0  0  0  0
    3.7150    1.5690   20.7810 H   0  0  0  0  0  0  0  0  0  0  0  0
    2.3070    4.0420   21.8730 H   0  0  0  0  0  0  0  0  0  0  0  0
    2.4930    2.4350   22.6250 H   0  0  0  0  0  0  0  0  0  0  0  0
  1  9  1  0  0  0  0
  2  6  1  0  0  0  0
  2  1  2  0  0  0  0
  3  4  1  0  0  0  0
  3  2  1  0  0  0  0
  4  5  2  0  0  0  0
  5  1  1  0  0  0  0
  7 20  1  0  0  0  0
  8  7  2  0  0  0  0
  8 17  1  0  0  0  0
  9  8  1  0  0  0  0
 10  9  2  0  0  0  0
 10 11  1  0  0  0  0
 11  7  1  0  0  0  0
 12 11  1  1  0  0  0
 12 16  1  0  0  0  0
 13 14  2  0  0  0  0
 13 12  1  0  0  0  0
 14 15  1  0  0  0  0
 15 16  1  0  0  0  0
 16 19  1  0  0  0  0
 18 14  1  0  0  0  0
 20 23  1  0  0  0  0
 20 22  1  0  0  0  0
 21 20  1  0  0  0  0
 24 10  1  0  0  0  0
 25 24  1  0  0  0  0
 26 24  1  0  0  0  0
 27 24  1  0  0  0  0
 28  4  1  0  0  0  0
 28 31  1  0  0  0  0
 29 28  1  0  0  0  0
 30 28  1  0  0  0  0
 31 33  1  0  0  0  0
 31 34  1  0  0  0  0
 32 31  1  0  0  0  0
 34 38  1  0  0  0  0
 34 35  1  0  0  0  0
 35 41  1  0  0  0  0
 35 36  1  0  0  0  0
 36 42  1  0  0  0  0
 36 43  1  0  0  0  0
 37 36  1  0  0  0  0
 38 37  1  0  0  0  0
 39 38  2  0  0  0  0
 40 35  1  0  0  0  0
M  END
>  <MODEL>
4

>  <REMARK>
 VINA RESULT:    -7.207      1.318      2.385
 INTER + INTRA:          -9.527
 INTER:                  -9.071
 INTRA:                  -0.456
 UNBOUND:                -0.213
  Name = 
  6 active torsions:
  status: ('A' for Active; 'I' for Inactive)
    1  A    between atoms: C_1  and  C_2
    2  A    between atoms: C_4  and  C_5
    3  A    between atoms: C_8  and  C_9
    4  A    between atoms: C_9  and  C_10
    5  A    between atoms: C_10  and  N_11
    6  A    between atoms: C_18  and  C_19
                            x       y       z     vdW  Elec       q    Type
                         _______ _______ _______ _____ _____    ______ ____

>  <TORSDO>
F 6

$$$$
=
 OpenBabel07192307433D

 43 46  0  0  1  0  0  0  0  0999 V2000
    2.3660    5.8470   19.6680 C   0  0  0  0  0  0  0  0  0  0  0  0
    1.6610    4.6860   19.4360 C   0  0  0  0  0  0  0  0  0  0  0  0
    2.7390    3.4110   19.0510 S   0  0  0  0  0  0  0  0  0  0  0  0
    4.0580    4.5020   19.1980 C   0  0  0  0  0  0  0  0  0  0  0  0
    3.7380    5.7400   19.5120 N   0  0  0  0  0  0  0  0  0  0  0  0
    0.5940    4.5230   19.4590 H   0  0  0  0  0  0  0  0  0  0  0  0
    0.8080    8.7480   21.2690 C   0  0  0  0  0  0  0  0  0  0  0  0
    1.1950    7.4210   21.2450 C   0  0  0  0  0  0  0  0  0  0  0  0
    1.8120    7.1620   20.0100 C   0  0  0  0  0  0  0  0  0  0  0  0
    1.7490    8.3250   19.2610 C   0  0  0  0  0  0  0  0  0  0  0  0
    1.2030    9.3430   20.0640 N   0  0  0  0  0  0  0  0  0  0  0  0
    1.0990   10.6970   19.6910 C   0  0  2  0  0  3  0  0  0  0  0  0
    1.5210   11.2090   18.5510 N   0  0  0  0  0  0  0  0  0  0  0  0
    1.2150   12.5330   18.6630 C   0  0  0  0  0  0  0  0  0  0  0  0
    0.6290   12.8820   19.8090 N   0  0  0  0  0  2  0  0  0  0  0  0
    0.5710   11.7000   20.4470 N   0  0  0  0  0  0  0  0  0  0  0  0
    1.0470    6.7080   22.0470 H   0  0  0  0  0  0  0  0  0  0  0  0
    1.4240   13.2610   17.8880 H   0  0  0  0  0  0  0  0  0  0  0  0
    0.1650   11.6790   21.3720 H   0  0  0  0  0  0  0  0  0  0  0  0
    0.1030    9.4220   22.3920 C   0  0  0  0  0  0  0  0  0  0  0  0
    0.3860   10.4800   22.4490 H   0  0  0  0  0  0  0  0  0  0  0  0
    0.3680    8.9700   23.3520 H   0  0  0  0  0  0  0  0  0  0  0  0
   -0.9820    9.3900   22.2490 H   0  0  0  0  0  0  0  0  0  0  0  0
    2.1500    8.5550   17.8390 C   0  0  0  0  0  0  0  0  0  0  0  0
    3.0290    7.9600   17.5750 H   0  0  0  0  0  0  0  0  0  0  0  0
    1.3250    8.3140   17.1610 H   0  0  0  0  0  0  0  0  0  0  0  0
    2.4350    9.5960   17.6640 H   0  0  0  0  0  0  0  0  0  0  0  0
    5.4630    4.0370   18.9790 C   0  0  0  0  0  0  0  0  0  0  0  0
    5.4930    2.9490   19.1080 H   0  0  0  0  0  0  0  0  0  0  0  0
    6.1390    4.4520   19.7360 H   0  0  0  0  0  0  0  0  0  0  0  0
    5.9420    4.4100   17.5750 C   0  0  0  0  0  0  0  0  0  0  0  0
    6.6110    3.6460   17.1620 H   0  0  0  0  0  0  0  0  0  0  0  0
    5.0760    4.4840   16.9040 H   0  0  0  0  0  0  0  0  0  0  0  0
    6.6400    5.6850   17.5280 N   0  0  0  0  0  0  0  0  0  0  0  0
    7.6030    6.0730   18.5110 C   0  0  0  0  0  0  0  0  0  0  0  0
    7.9910    7.4490   18.0290 C   0  0  0  0  0  0  0  0  0  0  0  0
    6.8480    7.9060   17.2940 O   0  0  0  0  0  0  0  0  0  0  0  0
    6.1060    6.8100   16.9440 C   0  0  0  0  0  0  0  0  0  0  0  0
    5.1050    6.8570   16.2490 O   0  0  0  0  0  0  0  0  0  0  0  0
    8.4450    5.3760   18.5520 H   0  0  0  0  0  0  0  0  0  0  0  0
    7.1090    6.1240   19.4860 H   0  0  0  0  0  0  0  0  0  0  0  0
    8.8480    7.4230   17.3470 H   0  0  0  0  0  0  0  0  0  0  0  0
    8.2090    8.1330   18.8530 H   0  0  0  0  0  0  0  0  0  0  0  0
  1  9  1  0  0  0  0
  2  6  1  0  0  0  0
  2  1  2  0  0  0  0
  3  4  1  0  0  0  0
  3  2  1  0  0  0  0
  4  5  2  0  0  0  0
  5  1  1  0  0  0  0
  7 20  1  0  0  0  0
  8  7  2  0  0  0  0
  8 17  1  0  0  0  0
  9  8  1  0  0  0  0
 10  9  2  0  0  0  0
 10 11  1  0  0  0  0
 11  7  1  0  0  0  0
 12 11  1  1  0  0  0
 12 16  1  0  0  0  0
 13 14  2  0  0  0  0
 13 12  1  0  0  0  0
 14 15  1  0  0  0  0
 15 16  1  0  0  0  0
 16 19  1  0  0  0  0
 18 14  1  0  0  0  0
 20 21  1  0  0  0  0
 20 22  1  0  0  0  0
 23 20  1  0  0  0  0
 24 10  1  0  0  0  0
 25 24  1  0  0  0  0
 26 24  1  0  0  0  0
 27 24  1  0  0  0  0
 28 29  1  0  0  0  0
 28  4  1  0  0  0  0
 28 30  1  0  0  0  0
 31 28  1  0  0  0  0
 32 31  1  0  0  0  0
 33 31  1  0  0  0  0
 34 31  1  0  0  0  0
 34 35  1  0  0  0  0
 35 40  1  0  0  0  0
 35 41  1  0  0  0  0
 36 35  1  0  0  0  0
 36 43  1  0  0  0  0
 37 36  1  0  0  0  0
 38 37  1  0  0  0  0
 38 34  1  0  0  0  0
 39 38  2  0  0  0  0
 42 36  1  0  0  0  0
M  END
>  <MODEL>
5

>  <REMARK>
 VINA RESULT:    -7.197      2.767      4.402
 INTER + INTRA:          -9.513
 INTER:                  -8.678
 INTRA:                  -0.835
 UNBOUND:                -0.213
  Name = 
  6 active torsions:
  status: ('A' for Active; 'I' for Inactive)
    1  A    between atoms: C_1  and  C_2
    2  A    between atoms: C_4  and  C_5
    3  A    between atoms: C_8  and  C_9
    4  A    between atoms: C_9  and  C_10
    5  A    between atoms: C_10  and  N_11
    6  A    between atoms: C_18  and  C_19
                            x       y       z     vdW  Elec       q    Type
                         _______ _______ _______ _____ _____    ______ ____

>  <TORSDO>
F 6

$$$$
=
 OpenBabel07192307433D

 43 46  0  0  1  0  0  0  0  0999 V2000
    3.3730    5.7030   17.8760 C   0  0  0  0  0  0  0  0  0  0  0  0
    2.7720    4.4690   17.7500 C   0  0  0  0  0  0  0  0  0  0  0  0
    3.8790    3.3430   17.0840 S   0  0  0  0  0  0  0  0  0  0  0  0
    5.0630    4.5850   16.9910 C   0  0  0  0  0  0  0  0  0  0  0  0
    4.6800    5.7680   17.4220 N   0  0  0  0  0  0  0  0  0  0  0  0
    1.7630    4.1760   17.9960 H   0  0  0  0  0  0  0  0  0  0  0  0
    2.0940    9.0940   18.3980 C   0  0  0  0  0  0  0  0  0  0  0  0
    2.7700    8.1380   17.6630 C   0  0  0  0  0  0  0  0  0  0  0  0
    2.7600    6.9340   18.3880 C   0  0  0  0  0  0  0  0  0  0  0  0
    2.1220    7.1800   19.5920 C   0  0  0  0  0  0  0  0  0  0  0  0
    1.6280    8.4960   19.5750 N   0  0  0  0  0  0  0  0  0  0  0  0
    0.8140    9.0660   20.5730 C   0  0  2  0  0  3  0  0  0  0  0  0
    0.3750    8.4410   21.6490 N   0  0  0  0  0  0  0  0  0  0  0  0
   -0.3700    9.3880   22.2870 C   0  0  0  0  0  0  0  0  0  0  0  0
   -0.4290   10.5690   21.6710 N   0  0  0  0  0  2  0  0  0  0  0  0
    0.3260   10.3380   20.5830 N   0  0  0  0  0  0  0  0  0  0  0  0
    3.2260    8.2950   16.6930 H   0  0  0  0  0  0  0  0  0  0  0  0
   -0.8820    9.2110   23.2240 H   0  0  0  0  0  0  0  0  0  0  0  0
    0.4470   11.0900   19.9190 H   0  0  0  0  0  0  0  0  0  0  0  0
    1.8920   10.5110   17.9930 C   0  0  0  0  0  0  0  0  0  0  0  0
    2.7740   10.8940   17.4660 H   0  0  0  0  0  0  0  0  0  0  0  0
    1.7400   11.1530   18.8660 H   0  0  0  0  0  0  0  0  0  0  0  0
    1.0440   10.6050   17.3070 H   0  0  0  0  0  0  0  0  0  0  0  0
    1.9510    6.2750   20.7700 C   0  0  0  0  0  0  0  0  0  0  0  0
    1.9990    5.2230   20.4710 H   0  0  0  0  0  0  0  0  0  0  0  0
    2.7140    6.4770   21.5280 H   0  0  0  0  0  0  0  0  0  0  0  0
    0.9710    6.4030   21.2380 H   0  0  0  0  0  0  0  0  0  0  0  0
    6.4290    4.2990   16.4530 C   0  0  0  0  0  0  0  0  0  0  0  0
    6.4400    3.2770   16.0560 H   0  0  0  0  0  0  0  0  0  0  0  0
    7.1810    4.3240   17.2500 H   0  0  0  0  0  0  0  0  0  0  0  0
    6.7910    5.2930   15.3470 C   0  0  0  0  0  0  0  0  0  0  0  0
    6.1980    6.2120   15.4230 H   0  0  0  0  0  0  0  0  0  0  0  0
    7.8470    5.5750   15.4450 H   0  0  0  0  0  0  0  0  0  0  0  0
    6.6060    4.7530   14.0100 N   0  0  0  0  0  0  0  0  0  0  0  0
    5.8600    3.5600   13.7560 C   0  0  0  0  0  0  0  0  0  0  0  0
    5.9980    3.4290   12.2590 C   0  0  0  0  0  0  0  0  0  0  0  0
    7.2220    4.1080   11.9510 O   0  0  0  0  0  0  0  0  0  0  0  0
    7.5090    4.9520   12.9900 C   0  0  0  0  0  0  0  0  0  0  0  0
    8.4530    5.7250   13.0020 O   0  0  0  0  0  0  0  0  0  0  0  0
    4.8230    3.6520   14.0880 H   0  0  0  0  0  0  0  0  0  0  0  0
    6.3470    2.7250   14.2690 H   0  0  0  0  0  0  0  0  0  0  0  0
    5.1840    3.9300   11.7220 H   0  0  0  0  0  0  0  0  0  0  0  0
    6.0520    2.3860   11.9360 H   0  0  0  0  0  0  0  0  0  0  0  0
  1  9  1  0  0  0  0
  2  1  2  0  0  0  0
  2  6  1  0  0  0  0
  3  2  1  0  0  0  0
  4  3  1  0  0  0  0
  4  5  2  0  0  0  0
  5  1  1  0  0  0  0
  7 11  1  0  0  0  0
  8  9  1  0  0  0  0
  8  7  2  0  0  0  0
  9 10  2  0  0  0  0
 10 24  1  0  0  0  0
 11 10  1  0  0  0  0
 12 11  1  6  0  0  0
 12 16  1  0  0  0  0
 12 13  1  0  0  0  0
 13 14  2  0  0  0  0
 14 18  1  0  0  0  0
 15 14  1  0  0  0  0
 16 15  1  0  0  0  0
 17  8  1  0  0  0  0
 19 16  1  0  0  0  0
 20  7  1  0  0  0  0
 20 22  1  0  0  0  0
 21 20  1  0  0  0  0
 23 20  1  0  0  0  0
 24 27  1  0  0  0  0
 24 26  1  0  0  0  0
 25 24  1  0  0  0  0
 28  4  1  0  0  0  0
 28 30  1  0  0  0  0
 29 28  1  0  0  0  0
 31 32  1  0  0  0  0
 31 33  1  0  0  0  0
 31 28  1  0  0  0  0
 34 31  1  0  0  0  0
 35 34  1  0  0  0  0
 35 40  1  0  0  0  0
 35 41  1  0  0  0  0
 36 35  1  0  0  0  0
 37 36  1  0  0  0  0
 37 38  1  0  0  0  0
 38 39  2  0  0  0  0
 38 34  1  0  0  0  0
 42 36  1  0  0  0  0
 43 36  1  0  0  0  0
M  END
>  <MODEL>
6

>  <REMARK>
 VINA RESULT:    -7.121      3.662      4.785
 INTER + INTRA:          -9.415
 INTER:                  -9.003
 INTRA:                  -0.412
 UNBOUND:                -0.213
  Name = 
  6 active torsions:
  status: ('A' for Active; 'I' for Inactive)
    1  A    between atoms: C_1  and  C_2
    2  A    between atoms: C_4  and  C_5
    3  A    between atoms: C_8  and  C_9
    4  A    between atoms: C_9  and  C_10
    5  A    between atoms: C_10  and  N_11
    6  A    between atoms: C_18  and  C_19
                            x       y       z     vdW  Elec       q    Type
                         _______ _______ _______ _____ _____    ______ ____

>  <TORSDO>
F 6

$$$$
=
 OpenBabel07192307433D

 43 46  0  0  1  0  0  0  0  0999 V2000
    0.9260    9.2130   20.1700 C   0  0  0  0  0  0  0  0  0  0  0  0
    1.0380   10.0470   21.2620 C   0  0  0  0  0  0  0  0  0  0  0  0
    0.1850   11.5060   20.9760 S   0  0  0  0  0  0  0  0  0  0  0  0
   -0.2470   10.9300   19.4160 C   0  0  0  0  0  0  0  0  0  0  0  0
    0.2040    9.7320   19.1070 N   0  0  0  0  0  0  0  0  0  0  0  0
    1.5720    9.8880   22.1870 H   0  0  0  0  0  0  0  0  0  0  0  0
    1.9820    5.7220   20.4950 C   0  0  0  0  0  0  0  0  0  0  0  0
    1.3130    6.8480   20.9390 C   0  0  0  0  0  0  0  0  0  0  0  0
    1.5240    7.8820   20.0110 C   0  0  0  0  0  0  0  0  0  0  0  0
    2.3700    7.3950   19.0300 C   0  0  0  0  0  0  0  0  0  0  0  0
    2.5940    6.0280   19.2730 N   0  0  0  0  0  0  0  0  0  0  0  0
    3.3020    5.1610   18.4180 C   0  0  2  0  0  3  0  0  0  0  0  0
    3.8300    5.4990   17.2570 N   0  0  0  0  0  0  0  0  0  0  0  0
    4.3860    4.3360   16.8100 C   0  0  0  0  0  0  0  0  0  0  0  0
    4.2330    3.2890   17.6200 N   0  0  0  0  0  2  0  0  0  0  0  0
    3.5360    3.8360   18.6310 N   0  0  0  0  0  0  0  0  0  0  0  0
    0.7250    6.9140   21.8470 H   0  0  0  0  0  0  0  0  0  0  0  0
    4.9160    4.2530   15.8690 H   0  0  0  0  0  0  0  0  0  0  0  0
    3.2720    3.2410   19.4040 H   0  0  0  0  0  0  0  0  0  0  0  0
    2.0280    4.4120   21.1970 C   0  0  0  0  0  0  0  0  0  0  0  0
    2.7280    3.7290   20.7010 H   0  0  0  0  0  0  0  0  0  0  0  0
    1.0480    3.9240   21.1870 H   0  0  0  0  0  0  0  0  0  0  0  0
    2.3750    4.5310   22.2280 H   0  0  0  0  0  0  0  0  0  0  0  0
    3.0000    8.1190   17.8840 C   0  0  0  0  0  0  0  0  0  0  0  0
    3.6730    8.9060   18.2350 H   0  0  0  0  0  0  0  0  0  0  0  0
    3.5510    7.4230   17.2430 H   0  0  0  0  0  0  0  0  0  0  0  0
    2.2530    8.6240   17.2660 H   0  0  0  0  0  0  0  0  0  0  0  0
   -1.0850   11.7630   18.4980 C   0  0  0  0  0  0  0  0  0  0  0  0
   -0.6890   11.6650   17.4810 H   0  0  0  0  0  0  0  0  0  0  0  0
   -1.0100   12.8270   18.7520 H   0  0  0  0  0  0  0  0  0  0  0  0
   -2.5440   11.3060   18.5380 C   0  0  0  0  0  0  0  0  0  0  0  0
   -2.7080   10.5520   19.3170 H   0  0  0  0  0  0  0  0  0  0  0  0
   -3.1870   12.1630   18.7720 H   0  0  0  0  0  0  0  0  0  0  0  0
   -3.0030   10.7480   17.2750 N   0  0  0  0  0  0  0  0  0  0  0  0
   -2.1260   10.0870   16.3600 C   0  0  0  0  0  0  0  0  0  0  0  0
   -3.0690    9.7380   15.2350 C   0  0  0  0  0  0  0  0  0  0  0  0
   -4.1130   10.7160   15.3260 O   0  0  0  0  0  0  0  0  0  0  0  0
   -4.0900   11.2400   16.5910 C   0  0  0  0  0  0  0  0  0  0  0  0
   -4.9010   12.0500   17.0090 O   0  0  0  0  0  0  0  0  0  0  0  0
   -1.6500    9.2130   16.8130 H   0  0  0  0  0  0  0  0  0  0  0  0
   -1.3650   10.7990   16.0260 H   0  0  0  0  0  0  0  0  0  0  0  0
   -3.5170    8.7460   15.3630 H   0  0  0  0  0  0  0  0  0  0  0  0
   -2.5860    9.7900   14.2560 H   0  0  0  0  0  0  0  0  0  0  0  0
  1  2  2  0  0  0  0
  2  6  1  0  0  0  0
  3  2  1  0  0  0  0
  4  3  1  0  0  0  0
  5  4  2  0  0  0  0
  5  1  1  0  0  0  0
  7  8  2  0  0  0  0
  7 20  1  0  0  0  0
  8 17  1  0  0  0  0
  9  1  1  0  0  0  0
  9  8  1  0  0  0  0
 10 11  1  0  0  0  0
 10  9  2  0  0  0  0
 11  7  1  0  0  0  0
 12 16  1  0  0  0  0
 12 11  1  6  0  0  0
 13 12  1  0  0  0  0
 14 13  2  0  0  0  0
 14 15  1  0  0  0  0
 15 16  1  0  0  0  0
 16 19  1  0  0  0  0
 18 14  1  0  0  0  0
 20 23  1  0  0  0  0
 21 20  1  0  0  0  0
 22 20  1  0  0  0  0
 24 25  1  0  0  0  0
 24 10  1  0  0  0  0
 26 24  1  0  0  0  0
 27 24  1  0  0  0  0
 28 31  1  0  0  0  0
 28 30  1  0  0  0  0
 28  4  1  0  0  0  0
 29 28  1  0  0  0  0
 31 33  1  0  0  0  0
 31 32  1  0  0  0  0
 34 31  1  0  0  0  0
 35 40  1  0  0  0  0
 35 34  1  0  0  0  0
 36 37  1  0  0  0  0
 36 42  1  0  0  0  0
 36 35  1  0  0  0  0
 37 38  1  0  0  0  0
 38 39  2  0  0  0  0
 38 34  1  0  0  0  0
 41 35  1  0  0  0  0
 43 36  1  0  0  0  0
M  END
>  <MODEL>
7

>  <REMARK>
 VINA RESULT:    -7.043      4.673      8.171
 INTER + INTRA:          -9.314
 INTER:                  -8.802
 INTRA:                  -0.513
 UNBOUND:                -0.213
  Name = 
  6 active torsions:
  status: ('A' for Active; 'I' for Inactive)
    1  A    between atoms: C_1  and  C_2
    2  A    between atoms: C_4  and  C_5
    3  A    between atoms: C_8  and  C_9
    4  A    between atoms: C_9  and  C_10
    5  A    between atoms: C_10  and  N_11
    6  A    between atoms: C_18  and  C_19
                            x       y       z     vdW  Elec       q    Type
                         _______ _______ _______ _____ _____    ______ ____

>  <TORSDO>
F 6

$$$$
=
 OpenBabel07192307433D

 43 46  0  0  1  0  0  0  0  0999 V2000
    1.9540    7.6770   19.7860 C   0  0  0  0  0  0  0  0  0  0  0  0
    1.5970    7.8470   21.1060 C   0  0  0  0  0  0  0  0  0  0  0  0
    0.6550    9.2670   21.2820 S   0  0  0  0  0  0  0  0  0  0  0  0
    0.8140    9.5630   19.5970 C   0  0  0  0  0  0  0  0  0  0  0  0
    1.5180    8.6740   18.9280 N   0  0  0  0  0  0  0  0  0  0  0  0
    1.8420    7.2340   21.9610 H   0  0  0  0  0  0  0  0  0  0  0  0
    3.6710    4.5300   19.0440 C   0  0  0  0  0  0  0  0  0  0  0  0
    2.8500    5.3250   19.8210 C   0  0  0  0  0  0  0  0  0  0  0  0
    2.7710    6.5950   19.2250 C   0  0  0  0  0  0  0  0  0  0  0  0
    3.5930    6.5830   18.1110 C   0  0  0  0  0  0  0  0  0  0  0  0
    4.0920    5.2790   17.9380 N   0  0  0  0  0  0  0  0  0  0  0  0
    4.8610    4.8480   16.8400 C   0  0  2  0  0  3  0  0  0  0  0  0
    5.2000    5.5930   15.8060 N   0  0  0  0  0  0  0  0  0  0  0  0
    5.9160    4.7410   15.0190 C   0  0  0  0  0  0  0  0  0  0  0  0
    6.0420    3.5020   15.4970 N   0  0  0  0  0  2  0  0  0  0  0  0
    5.3590    3.5940   16.6510 N   0  0  0  0  0  0  0  0  0  0  0  0
    2.3530    5.0160   20.7320 H   0  0  0  0  0  0  0  0  0  0  0  0
    6.3570    5.0320   14.0730 H   0  0  0  0  0  0  0  0  0  0  0  0
    5.2880    2.7670   17.2290 H   0  0  0  0  0  0  0  0  0  0  0  0
    4.0300    3.1150   19.3340 C   0  0  0  0  0  0  0  0  0  0  0  0
    4.6060    2.6830   18.5060 H   0  0  0  0  0  0  0  0  0  0  0  0
    3.1340    2.4980   19.4540 H   0  0  0  0  0  0  0  0  0  0  0  0
    4.6550    3.0460   20.2290 H   0  0  0  0  0  0  0  0  0  0  0  0
    3.9610    7.7090   17.1980 C   0  0  0  0  0  0  0  0  0  0  0  0
    3.5830    8.6640   17.5760 H   0  0  0  0  0  0  0  0  0  0  0  0
    5.0470    7.7660   17.0720 H   0  0  0  0  0  0  0  0  0  0  0  0
    3.5140    7.5870   16.2070 H   0  0  0  0  0  0  0  0  0  0  0  0
    0.1750   10.7600   18.9670 C   0  0  0  0  0  0  0  0  0  0  0  0
    0.2440   10.6580   17.8780 H   0  0  0  0  0  0  0  0  0  0  0  0
    0.7180   11.6770   19.2220 H   0  0  0  0  0  0  0  0  0  0  0  0
   -1.2910   10.8730   19.3890 C   0  0  0  0  0  0  0  0  0  0  0  0
   -1.5210   10.2050   20.2280 H   0  0  0  0  0  0  0  0  0  0  0  0
   -1.4960   11.8980   19.7210 H   0  0  0  0  0  0  0  0  0  0  0  0
   -2.2210   10.5690   18.3130 N   0  0  0  0  0  0  0  0  0  0  0  0
   -1.8030   10.0000   17.0700 C   0  0  0  0  0  0  0  0  0  0  0  0
   -3.1090    9.9170   16.3190 C   0  0  0  0  0  0  0  0  0  0  0  0
   -3.9210   10.9470   16.8980 O   0  0  0  0  0  0  0  0  0  0  0  0
   -3.4010   11.2530   18.1270 C   0  0  0  0  0  0  0  0  0  0  0  0
   -3.9060   12.0450   18.9050 O   0  0  0  0  0  0  0  0  0  0  0  0
   -1.3220    9.0280   17.2090 H   0  0  0  0  0  0  0  0  0  0  0  0
   -1.1130   10.6940   16.5800 H   0  0  0  0  0  0  0  0  0  0  0  0
   -3.6150    8.9570   16.4710 H   0  0  0  0  0  0  0  0  0  0  0  0
   -2.9850   10.0910   15.2470 H   0  0  0  0  0  0  0  0  0  0  0  0
  1  2  2  0  0  0  0
  2  3  1  0  0  0  0
  2  6  1  0  0  0  0
  4  3  1  0  0  0  0
  5  4  2  0  0  0  0
  5  1  1  0  0  0  0
  7 20  1  0  0  0  0
  7  8  2  0  0  0  0
  8 17  1  0  0  0  0
  9  1  1  0  0  0  0
  9  8  1  0  0  0  0
 10  9  2  0  0  0  0
 11 10  1  0  0  0  0
 11  7  1  0  0  0  0
 12 11  1  6  0  0  0
 13 12  1  0  0  0  0
 14 15  1  0  0  0  0
 14 13  2  0  0  0  0
 15 16  1  0  0  0  0
 16 12  1  0  0  0  0
 16 19  1  0  0  0  0
 18 14  1  0  0  0  0
 20 22  1  0  0  0  0
 20 23  1  0  0  0  0
 21 20  1  0  0  0  0
 24 25  1  0  0  0  0
 24 10  1  0  0  0  0
 26 24  1  0  0  0  0
 27 24  1  0  0  0  0
 28 30  1  0  0  0  0
 28 31  1  0  0  0  0
 28  4  1  0  0  0  0
 29 28  1  0  0  0  0
 31 33  1  0  0  0  0
 31 32  1  0  0  0  0
 34 31  1  0  0  0  0
 35 40  1  0  0  0  0
 35 34  1  0  0  0  0
 36 42  1  0  0  0  0
 36 37  1  0  0  0  0
 36 35  1  0  0  0  0
 37 38  1  0  0  0  0
 38 34  1  0  0  0  0
 38 39  2  0  0  0  0
 41 35  1  0  0  0  0
 43 36  1  0  0  0  0
M  END
>  <MODEL>
8

>  <REMARK>
 VINA RESULT:    -6.881      4.405      8.191
 INTER + INTRA:          -9.105
 INTER:                  -8.890
 INTRA:                  -0.215
 UNBOUND:                -0.213
  Name = 
  6 active torsions:
  status: ('A' for Active; 'I' for Inactive)
    1  A    between atoms: C_1  and  C_2
    2  A    between atoms: C_4  and  C_5
    3  A    between atoms: C_8  and  C_9
    4  A    between atoms: C_9  and  C_10
    5  A    between atoms: C_10  and  N_11
    6  A    between atoms: C_18  and  C_19
                            x       y       z     vdW  Elec       q    Type
                         _______ _______ _______ _____ _____    ______ ____

>  <TORSDO>
F 6

$$$$
=
 OpenBabel07192307433D

 43 46  0  0  1  0  0  0  0  0999 V2000
    1.5250    8.5790   19.6140 C   0  0  0  0  0  0  0  0  0  0  0  0
    1.3220    8.9710   20.9210 C   0  0  0  0  0  0  0  0  0  0  0  0
    0.3620   10.3890   20.9660 S   0  0  0  0  0  0  0  0  0  0  0  0
    0.3080   10.3900   19.2490 C   0  0  0  0  0  0  0  0  0  0  0  0
    0.9570    9.4070   18.6600 N   0  0  0  0  0  0  0  0  0  0  0  0
    1.6870    8.5180   21.8300 H   0  0  0  0  0  0  0  0  0  0  0  0
    3.7710    6.2650   17.8810 C   0  0  0  0  0  0  0  0  0  0  0  0
    3.1690    7.4980   18.0440 C   0  0  0  0  0  0  0  0  0  0  0  0
    2.3040    7.4260   19.1500 C   0  0  0  0  0  0  0  0  0  0  0  0
    2.3430    6.1260   19.6230 C   0  0  0  0  0  0  0  0  0  0  0  0
    3.3150    5.4150   18.8970 N   0  0  0  0  0  0  0  0  0  0  0  0
    3.7290    4.0990   19.1760 C   0  0  2  0  0  3  0  0  0  0  0  0
    3.2870    3.3550   20.1720 N   0  0  0  0  0  0  0  0  0  0  0  0
    3.9840    2.1900   20.0350 C   0  0  0  0  0  0  0  0  0  0  0  0
    4.8400    2.1620   19.0130 N   0  0  0  0  0  2  0  0  0  0  0  0
    4.6640    3.3870   18.4870 N   0  0  0  0  0  0  0  0  0  0  0  0
    3.3400    8.3700   17.4230 H   0  0  0  0  0  0  0  0  0  0  0  0
    3.8620    1.3420   20.6970 H   0  0  0  0  0  0  0  0  0  0  0  0
    5.2150    3.6400   17.6780 H   0  0  0  0  0  0  0  0  0  0  0  0
    4.7450    5.9130   16.8130 C   0  0  0  0  0  0  0  0  0  0  0  0
    5.7220    6.3680   17.0130 H   0  0  0  0  0  0  0  0  0  0  0  0
    4.4140    6.2870   15.8390 H   0  0  0  0  0  0  0  0  0  0  0  0
    4.9000    4.8310   16.7650 H   0  0  0  0  0  0  0  0  0  0  0  0
    1.5250    5.4900   20.7010 C   0  0  0  0  0  0  0  0  0  0  0  0
    1.7970    5.8820   21.6860 H   0  0  0  0  0  0  0  0  0  0  0  0
    0.4570    5.6520   20.5230 H   0  0  0  0  0  0  0  0  0  0  0  0
    1.6960    4.4120   20.7550 H   0  0  0  0  0  0  0  0  0  0  0  0
   -0.4400   11.4520   18.5080 C   0  0  0  0  0  0  0  0  0  0  0  0
   -0.3710   11.2410   17.4340 H   0  0  0  0  0  0  0  0  0  0  0  0
    0.0210   12.4360   18.6550 H   0  0  0  0  0  0  0  0  0  0  0  0
   -1.9070   11.4800   18.9410 C   0  0  0  0  0  0  0  0  0  0  0  0
   -2.0990   10.7730   19.7570 H   0  0  0  0  0  0  0  0  0  0  0  0
   -2.1570   12.4820   19.3110 H   0  0  0  0  0  0  0  0  0  0  0  0
   -2.8290   11.1720   17.8600 N   0  0  0  0  0  0  0  0  0  0  0  0
   -2.4040   11.0190   16.5040 C   0  0  0  0  0  0  0  0  0  0  0  0
   -3.7120   10.7450   15.8050 C   0  0  0  0  0  0  0  0  0  0  0  0
   -4.7000   11.3650   16.6370 O   0  0  0  0  0  0  0  0  0  0  0  0
   -4.1580   11.5310   17.8840 C   0  0  0  0  0  0  0  0  0  0  0  0
   -4.7700   11.9690   18.8430 O   0  0  0  0  0  0  0  0  0  0  0  0
   -1.6780   10.2080   16.3950 H   0  0  0  0  0  0  0  0  0  0  0  0
   -1.9670   11.9630   16.1630 H   0  0  0  0  0  0  0  0  0  0  0  0
   -3.9370    9.6740   15.7480 H   0  0  0  0  0  0  0  0  0  0  0  0
   -3.7440   11.1710   14.7990 H   0  0  0  0  0  0  0  0  0  0  0  0
  1  2  2  0  0  0  0
  2  3  1  0  0  0  0
  2  6  1  0  0  0  0
  4  3  1  0  0  0  0
  5  4  2  0  0  0  0
  5  1  1  0  0  0  0
  7  8  2  0  0  0  0
  7 11  1  0  0  0  0
  8  9  1  0  0  0  0
  9  1  1  0  0  0  0
  9 10  2  0  0  0  0
 10 24  1  0  0  0  0
 11 10  1  0  0  0  0
 12 11  1  1  0  0  0
 12 13  1  0  0  0  0
 14 13  2  0  0  0  0
 14 18  1  0  0  0  0
 15 14  1  0  0  0  0
 16 15  1  0  0  0  0
 16 12  1  0  0  0  0
 17  8  1  0  0  0  0
 19 16  1  0  0  0  0
 20 21  1  0  0  0  0
 20  7  1  0  0  0  0
 22 20  1  0  0  0  0
 23 20  1  0  0  0  0
 24 27  1  0  0  0  0
 24 25  1  0  0  0  0
 26 24  1  0  0  0  0
 28 30  1  0  0  0  0
 28 31  1  0  0  0  0
 28  4  1  0  0  0  0
 29 28  1  0  0  0  0
 31 33  1  0  0  0  0
 31 32  1  0  0  0  0
 34 38  1  0  0  0  0
 34 31  1  0  0  0  0
 35 34  1  0  0  0  0
 36 35  1  0  0  0  0
 36 37  1  0  0  0  0
 37 38  1  0  0  0  0
 38 39  2  0  0  0  0
 40 35  1  0  0  0  0
 41 35  1  0  0  0  0
 42 36  1  0  0  0  0
 43 36  1  0  0  0  0
M  END
>  <MODEL>
9

>  <REMARK>
 VINA RESULT:    -6.857      4.490      8.084
 INTER + INTRA:          -9.074
 INTER:                  -8.683
 INTRA:                  -0.390
 UNBOUND:                -0.213
  Name = 
  6 active torsions:
  status: ('A' for Active; 'I' for Inactive)
    1  A    between atoms: C_1  and  C_2
    2  A    between atoms: C_4  and  C_5
    3  A    between atoms: C_8  and  C_9
    4  A    between atoms: C_9  and  C_10
    5  A    between atoms: C_10  and  N_11
    6  A    between atoms: C_18  and  C_19
                            x       y       z     vdW  Elec       q    Type
                         _______ _______ _______ _____ _____    ______ ____

>  <TORSDO>
F 6

$$$$
=
 OpenBabel07192307433D

 43 46  0  0  1  0  0  0  0  0999 V2000
    1.9570    8.2630   19.0870 C   0  0  0  0  0  0  0  0  0  0  0  0
    2.5020    8.7200   17.9060 C   0  0  0  0  0  0  0  0  0  0  0  0
    3.5250    7.5220   17.2310 S   0  0  0  0  0  0  0  0  0  0  0  0
    3.1860    6.4990   18.5680 C   0  0  0  0  0  0  0  0  0  0  0  0
    2.3670    6.9960   19.4700 N   0  0  0  0  0  0  0  0  0  0  0  0
    2.3690    9.6740   17.4200 H   0  0  0  0  0  0  0  0  0  0  0  0
    0.0780    9.6250   21.9180 C   0  0  0  0  0  0  0  0  0  0  0  0
    1.0160    8.7750   21.3650 C   0  0  0  0  0  0  0  0  0  0  0  0
    1.0440    8.9900   19.9770 C   0  0  0  0  0  0  0  0  0  0  0  0
    0.0770    9.9360   19.6830 C   0  0  0  0  0  0  0  0  0  0  0  0
   -0.4720   10.4020   20.8910 N   0  0  0  0  0  0  0  0  0  0  0  0
   -1.3950   11.4600   21.0030 C   0  0  2  0  0  3  0  0  0  0  0  0
   -1.8540   12.1810   19.9990 N   0  0  0  0  0  0  0  0  0  0  0  0
   -2.6920   13.0720   20.6030 C   0  0  0  0  0  0  0  0  0  0  0  0
   -2.7820   12.9530   21.9280 N   0  0  0  0  0  2  0  0  0  0  0  0
   -1.9450   11.9270   22.1590 N   0  0  0  0  0  0  0  0  0  0  0  0
    1.6260    8.0670   21.9140 H   0  0  0  0  0  0  0  0  0  0  0  0
   -3.2510   13.8250   20.0610 H   0  0  0  0  0  0  0  0  0  0  0  0
   -1.8160   11.6240   23.1140 H   0  0  0  0  0  0  0  0  0  0  0  0
   -0.2730    9.7030   23.3620 C   0  0  0  0  0  0  0  0  0  0  0  0
   -0.4440   10.7430   23.6650 H   0  0  0  0  0  0  0  0  0  0  0  0
    0.5400    9.3200   23.9870 H   0  0  0  0  0  0  0  0  0  0  0  0
   -1.1960    9.1530   23.5710 H   0  0  0  0  0  0  0  0  0  0  0  0
   -0.3840   10.4310   18.3490 C   0  0  0  0  0  0  0  0  0  0  0  0
    0.4320   10.4230   17.6210 H   0  0  0  0  0  0  0  0  0  0  0  0
   -1.2150    9.8220   17.9770 H   0  0  0  0  0  0  0  0  0  0  0  0
   -0.7240   11.4690   18.4000 H   0  0  0  0  0  0  0  0  0  0  0  0
    3.7970    5.1360   18.6620 C   0  0  0  0  0  0  0  0  0  0  0  0
    4.2460    5.0250   19.6560 H   0  0  0  0  0  0  0  0  0  0  0  0
    4.6160    5.0200   17.9430 H   0  0  0  0  0  0  0  0  0  0  0  0
    2.7380    4.0540   18.4430 C   0  0  0  0  0  0  0  0  0  0  0  0
    1.8330    4.4650   17.9800 H   0  0  0  0  0  0  0  0  0  0  0  0
    3.1350    3.2900   17.7640 H   0  0  0  0  0  0  0  0  0  0  0  0
    2.3430    3.3840   19.6720 N   0  0  0  0  0  0  0  0  0  0  0  0
    1.2590    3.8390   20.4850 C   0  0  0  0  0  0  0  0  0  0  0  0
    1.2900    2.8430   21.6180 C   0  0  0  0  0  0  0  0  0  0  0  0
    2.6490    2.3920   21.6610 O   0  0  0  0  0  0  0  0  0  0  0  0
    3.2220    2.6630   20.4470 C   0  0  0  0  0  0  0  0  0  0  0  0
    4.3570    2.3370   20.1400 O   0  0  0  0  0  0  0  0  0  0  0  0
    0.3130    3.8410   19.9360 H   0  0  0  0  0  0  0  0  0  0  0  0
    1.4870    4.8480   20.8430 H   0  0  0  0  0  0  0  0  0  0  0  0
    0.6480    1.9760   21.4260 H   0  0  0  0  0  0  0  0  0  0  0  0
    1.0090    3.2920   22.5740 H   0  0  0  0  0  0  0  0  0  0  0  0
  1  5  1  0  0  0  0
  1  9  1  0  0  0  0
  2  1  2  0  0  0  0
  3  2  1  0  0  0  0
  3  4  1  0  0  0  0
  4 28  1  0  0  0  0
  4  5  2  0  0  0  0
  6  2  1  0  0  0  0
  7 20  1  0  0  0  0
  8 17  1  0  0  0  0
  8  7  2  0  0  0  0
  9  8  1  0  0  0  0
 10  9  2  0  0  0  0
 10 11  1  0  0  0  0
 11  7  1  0  0  0  0
 12 11  1  1  0  0  0
 12 16  1  0  0  0  0
 13 14  2  0  0  0  0
 13 12  1  0  0  0  0
 14 15  1  0  0  0  0
 15 16  1  0  0  0  0
 16 19  1  0  0  0  0
 18 14  1  0  0  0  0
 20 23  1  0  0  0  0
 20 21  1  0  0  0  0
 20 22  1  0  0  0  0
 24 27  1  0  0  0  0
 24 10  1  0  0  0  0
 25 24  1  0  0  0  0
 26 24  1  0  0  0  0
 28 29  1  0  0  0  0
 30 28  1  0  0  0  0
 31 28  1  0  0  0  0
 31 34  1  0  0  0  0
 32 31  1  0  0  0  0
 33 31  1  0  0  0  0
 34 38  1  0  0  0  0
 34 35  1  0  0  0  0
 35 41  1  0  0  0  0
 35 36  1  0  0  0  0
 36 37  1  0  0  0  0
 36 43  1  0  0  0  0
 38 37  1  0  0  0  0
 39 38  2  0  0  0  0
 40 35  1  0  0  0  0
 42 36  1  0  0  0  0
M  END
>  <MODEL>
10

>  <REMARK>
 VINA RESULT:    -6.843      1.722      2.868
 INTER + INTRA:          -9.056
 INTER:                  -8.745
 INTRA:                  -0.311
 UNBOUND:                -0.213
  Name = 
  6 active torsions:
  status: ('A' for Active; 'I' for Inactive)
    1  A    between atoms: C_1  and  C_2
    2  A    between atoms: C_4  and  C_5
    3  A    between atoms: C_8  and  C_9
    4  A    between atoms: C_9  and  C_10
    5  A    between atoms: C_10  and  N_11
    6  A    between atoms: C_18  and  C_19
                            x       y       z     vdW  Elec       q    Type
                         _______ _______ _______ _____ _____    ______ ____

>  <TORSDO>
F 6

$$$$
=
 OpenBabel07192307433D

 43 46  0  0  1  0  0  0  0  0999 V2000
    1.9820    8.0950   19.2020 C   0  0  0  0  0  0  0  0  0  0  0  0
    2.6110    8.5010   18.0440 C   0  0  0  0  0  0  0  0  0  0  0  0
    3.5880    7.2330   17.4320 S   0  0  0  0  0  0  0  0  0  0  0  0
    3.1210    6.2510   18.7620 C   0  0  0  0  0  0  0  0  0  0  0  0
    2.2920    6.8110   19.6180 N   0  0  0  0  0  0  0  0  0  0  0  0
    2.5610    9.4550   17.5420 H   0  0  0  0  0  0  0  0  0  0  0  0
    0.0720    9.6220   21.9260 C   0  0  0  0  0  0  0  0  0  0  0  0
    0.9850    8.7120   21.4300 C   0  0  0  0  0  0  0  0  0  0  0  0
    1.0760    8.8900   20.0390 C   0  0  0  0  0  0  0  0  0  0  0  0
    0.1700    9.8760   19.6860 C   0  0  0  0  0  0  0  0  0  0  0  0
   -0.3990   10.4000   20.8610 N   0  0  0  0  0  0  0  0  0  0  0  0
   -1.2690   11.5050   20.9120 C   0  0  2  0  0  3  0  0  0  0  0  0
   -1.6530   12.2240   19.8750 N   0  0  0  0  0  0  0  0  0  0  0  0
   -2.4660   13.1710   20.4250 C   0  0  0  0  0  0  0  0  0  0  0  0
   -2.6110   13.0910   21.7480 N   0  0  0  0  0  2  0  0  0  0  0  0
   -1.8370   12.0290   22.0340 N   0  0  0  0  0  0  0  0  0  0  0  0
    1.5370    7.9880   22.0180 H   0  0  0  0  0  0  0  0  0  0  0  0
   -2.9650   13.9370   19.8440 H   0  0  0  0  0  0  0  0  0  0  0  0
   -1.7600   11.7450   23.0020 H   0  0  0  0  0  0  0  0  0  0  0  0
   -0.3280    9.7550   23.3530 C   0  0  0  0  0  0  0  0  0  0  0  0
   -0.1060    8.8340   23.9060 H   0  0  0  0  0  0  0  0  0  0  0  0
   -1.4040    9.9290   23.4470 H   0  0  0  0  0  0  0  0  0  0  0  0
    0.2260   10.5620   23.8420 H   0  0  0  0  0  0  0  0  0  0  0  0
   -0.2150   10.3600   18.3240 C   0  0  0  0  0  0  0  0  0  0  0  0
   -1.2130   10.8080   18.3320 H   0  0  0  0  0  0  0  0  0  0  0  0
    0.5130   11.0870   17.9520 H   0  0  0  0  0  0  0  0  0  0  0  0
   -0.2670    9.5380   17.6040 H   0  0  0  0  0  0  0  0  0  0  0  0
    3.6390    4.8540   18.9000 C   0  0  0  0  0  0  0  0  0  0  0  0
    3.3770    4.2950   17.9940 H   0  0  0  0  0  0  0  0  0  0  0  0
    3.1520    4.3330   19.7320 H   0  0  0  0  0  0  0  0  0  0  0  0
    5.1580    4.8600   19.0890 C   0  0  0  0  0  0  0  0  0  0  0  0
    5.4970    5.7750   19.5900 H   0  0  0  0  0  0  0  0  0  0  0  0
    5.4470    4.0130   19.7230 H   0  0  0  0  0  0  0  0  0  0  0  0
    5.8900    4.7400   17.8390 N   0  0  0  0  0  0  0  0  0  0  0  0
    5.3980    3.9910   16.7250 C   0  0  0  0  0  0  0  0  0  0  0  0
    6.5170    4.1590   15.7280 C   0  0  0  0  0  0  0  0  0  0  0  0
    7.6810    4.3950   16.5310 O   0  0  0  0  0  0  0  0  0  0  0  0
    7.2620    4.8190   17.7640 C   0  0  0  0  0  0  0  0  0  0  0  0
    8.0150    5.1700   18.6580 O   0  0  0  0  0  0  0  0  0  0  0  0
    4.4390    4.3780   16.3680 H   0  0  0  0  0  0  0  0  0  0  0  0
    5.2920    2.9440   17.0240 H   0  0  0  0  0  0  0  0  0  0  0  0
    6.3680    5.0290   15.0790 H   0  0  0  0  0  0  0  0  0  0  0  0
    6.6590    3.2700   15.1080 H   0  0  0  0  0  0  0  0  0  0  0  0
  1  5  1  0  0  0  0
  1  9  1  0  0  0  0
  2  1  2  0  0  0  0
  3  2  1  0  0  0  0
  3  4  1  0  0  0  0
  4 28  1  0  0  0  0
  4  5  2  0  0  0  0
  6  2  1  0  0  0  0
  7 20  1  0  0  0  0
  8  7  2  0  0  0  0
  8 17  1  0  0  0  0
  9  8  1  0  0  0  0
 10  9  2  0  0  0  0
 10 11  1  0  0  0  0
 11  7  1  0  0  0  0
 12 11  1  1  0  0  0
 12 16  1  0  0  0  0
 13 14  2  0  0  0  0
 13 12  1  0  0  0  0
 14 15  1  0  0  0  0
 15 16  1  0  0  0  0
 16 19  1  0  0  0  0
 18 14  1  0  0  0  0
 20 22  1  0  0  0  0
 20 23  1  0  0  0  0
 20 21  1  0  0  0  0
 24 25  1  0  0  0  0
 24 10  1  0  0  0  0
 26 24  1  0  0  0  0
 27 24  1  0  0  0  0
 28 31  1  0  0  0  0
 28 30  1  0  0  0  0
 29 28  1  0  0  0  0
 31 32  1  0  0  0  0
 31 33  1  0  0  0  0
 34 31  1  0  0  0  0
 35 41  1  0  0  0  0
 35 34  1  0  0  0  0
 36 37  1  0  0  0  0
 36 35  1  0  0  0  0
 37 38  1  0  0  0  0
 38 34  1  0  0  0  0
 38 39  2  0  0  0  0
 40 35  1  0  0  0  0
 42 36  1  0  0  0  0
 43 36  1  0  0  0  0
M  END
>  <MODEL>
11

>  <REMARK>
 VINA RESULT:    -6.802      2.674      4.084
 INTER + INTRA:          -9.003
 INTER:                  -8.793
 INTRA:                  -0.210
 UNBOUND:                -0.213
  Name = 
  6 active torsions:
  status: ('A' for Active; 'I' for Inactive)
    1  A    between atoms: C_1  and  C_2
    2  A    between atoms: C_4  and  C_5
    3  A    between atoms: C_8  and  C_9
    4  A    between atoms: C_9  and  C_10
    5  A    between atoms: C_10  and  N_11
    6  A    between atoms: C_18  and  C_19
                            x       y       z     vdW  Elec       q    Type
                         _______ _______ _______ _____ _____    ______ ____

>  <TORSDO>
F 6

$$$$
=
 OpenBabel07192307433D

 43 46  0  0  1  0  0  0  0  0999 V2000
    1.7730    8.5390   19.0620 C   0  0  0  0  0  0  0  0  0  0  0  0
    1.4920    9.5340   18.1490 C   0  0  0  0  0  0  0  0  0  0  0  0
    0.6150   10.7960   18.9070 S   0  0  0  0  0  0  0  0  0  0  0  0
    0.6540    9.9160   20.3820 C   0  0  0  0  0  0  0  0  0  0  0  0
    1.2740    8.7560   20.3360 N   0  0  0  0  0  0  0  0  0  0  0  0
    1.7390    9.5820   17.0990 H   0  0  0  0  0  0  0  0  0  0  0  0
    3.9090    5.8570   17.7790 C   0  0  0  0  0  0  0  0  0  0  0  0
    3.3780    7.1320   17.7280 C   0  0  0  0  0  0  0  0  0  0  0  0
    2.4910    7.2850   18.8070 C   0  0  0  0  0  0  0  0  0  0  0  0
    2.4430    6.0770   19.4810 C   0  0  0  0  0  0  0  0  0  0  0  0
    3.3850    5.2060   18.9030 N   0  0  0  0  0  0  0  0  0  0  0  0
    3.7140    3.9300   19.3980 C   0  0  2  0  0  3  0  0  0  0  0  0
    3.2110    3.3810   20.4860 N   0  0  0  0  0  0  0  0  0  0  0  0
    3.8390    2.1720   20.5540 C   0  0  0  0  0  0  0  0  0  0  0  0
    4.7100    1.9330   19.5730 N   0  0  0  0  0  2  0  0  0  0  0  0
    4.6180    3.0660   18.8560 N   0  0  0  0  0  0  0  0  0  0  0  0
    3.6130    7.8820   16.9820 H   0  0  0  0  0  0  0  0  0  0  0  0
    3.6540    1.4480   21.3380 H   0  0  0  0  0  0  0  0  0  0  0  0
    5.1970    3.1570   18.0330 H   0  0  0  0  0  0  0  0  0  0  0  0
    4.8800    5.2850   16.8070 C   0  0  0  0  0  0  0  0  0  0  0  0
    4.3590    4.7220   16.0230 H   0  0  0  0  0  0  0  0  0  0  0  0
    5.5640    4.5870   17.2980 H   0  0  0  0  0  0  0  0  0  0  0  0
    5.4470    6.0770   16.3080 H   0  0  0  0  0  0  0  0  0  0  0  0
    1.5690    5.6680   20.6230 C   0  0  0  0  0  0  0  0  0  0  0  0
    1.8750    4.6980   21.0270 H   0  0  0  0  0  0  0  0  0  0  0  0
    1.5910    6.4220   21.4160 H   0  0  0  0  0  0  0  0  0  0  0  0
    0.5290    5.5410   20.3090 H   0  0  0  0  0  0  0  0  0  0  0  0
    0.0170   10.4670   21.6190 C   0  0  0  0  0  0  0  0  0  0  0  0
    0.6930   10.2960   22.4640 H   0  0  0  0  0  0  0  0  0  0  0  0
   -0.9100    9.9330   21.8570 H   0  0  0  0  0  0  0  0  0  0  0  0
   -0.2550   11.9650   21.4620 C   0  0  0  0  0  0  0  0  0  0  0  0
    0.4370   12.5640   22.0660 H   0  0  0  0  0  0  0  0  0  0  0  0
   -0.1090   12.2530   20.4140 H   0  0  0  0  0  0  0  0  0  0  0  0
   -1.6100   12.3410   21.8330 N   0  0  0  0  0  0  0  0  0  0  0  0
   -2.1970   11.9770   23.0850 C   0  0  0  0  0  0  0  0  0  0  0  0
   -3.5780   12.5700   22.9570 C   0  0  0  0  0  0  0  0  0  0  0  0
   -3.8180   12.6180   21.5440 O   0  0  0  0  0  0  0  0  0  0  0  0
   -2.6060   12.5590   20.9090 C   0  0  0  0  0  0  0  0  0  0  0  0
   -2.4630   12.6490   19.7010 O   0  0  0  0  0  0  0  0  0  0  0  0
   -1.6310   12.3780   23.9300 H   0  0  0  0  0  0  0  0  0  0  0  0
   -2.2430   10.8860   23.1470 H   0  0  0  0  0  0  0  0  0  0  0  0
   -3.6280   13.5930   23.3470 H   0  0  0  0  0  0  0  0  0  0  0  0
   -4.3400   11.9610   23.4490 H   0  0  0  0  0  0  0  0  0  0  0  0
  1  5  1  0  0  0  0
  2  3  1  0  0  0  0
  2  1  2  0  0  0  0
  3  4  1  0  0  0  0
  4 28  1  0  0  0  0
  5  4  2  0  0  0  0
  6  2  1  0  0  0  0
  7 11  1  0  0  0  0
  8  7  2  0  0  0  0
  8  9  1  0  0  0  0
  9  1  1  0  0  0  0
  9 10  2  0  0  0  0
 10 24  1  0  0  0  0
 11 10  1  0  0  0  0
 12 11  1  1  0  0  0
 12 13  1  0  0  0  0
 13 14  2  0  0  0  0
 14 18  1  0  0  0  0
 15 14  1  0  0  0  0
 16 12  1  0  0  0  0
 16 15  1  0  0  0  0
 17  8  1  0  0  0  0
 19 16  1  0  0  0  0
 20 22  1  0  0  0  0
 20  7  1  0  0  0  0
 21 20  1  0  0  0  0
 23 20  1  0  0  0  0
 24 25  1  0  0  0  0
 24 26  1  0  0  0  0
 27 24  1  0  0  0  0
 28 30  1  0  0  0  0
 28 29  1  0  0  0  0
 31 28  1  0  0  0  0
 31 34  1  0  0  0  0
 31 32  1  0  0  0  0
 33 31  1  0  0  0  0
 34 35  1  0  0  0  0
 35 41  1  0  0  0  0
 35 40  1  0  0  0  0
 36 35  1  0  0  0  0
 36 42  1  0  0  0  0
 36 43  1  0  0  0  0
 37 36  1  0  0  0  0
 38 37  1  0  0  0  0
 38 34  1  0  0  0  0
 39 38  2  0  0  0  0
M  END
>  <MODEL>
12

>  <REMARK>
 VINA RESULT:    -6.785      3.958      8.039
 INTER + INTRA:          -8.981
 INTER:                  -8.749
 INTRA:                  -0.232
 UNBOUND:                -0.213
  Name = 
  6 active torsions:
  status: ('A' for Active; 'I' for Inactive)
    1  A    between atoms: C_1  and  C_2
    2  A    between atoms: C_4  and  C_5
    3  A    between atoms: C_8  and  C_9
    4  A    between atoms: C_9  and  C_10
    5  A    between atoms: C_10  and  N_11
    6  A    between atoms: C_18  and  C_19
                            x       y       z     vdW  Elec       q    Type
                         _______ _______ _______ _____ _____    ______ ____

>  <TORSDO>
F 6

$$$$
=
 OpenBabel07192307433D

 43 46  0  0  1  0  0  0  0  0999 V2000
    1.9500    8.3240   18.8690 C   0  0  0  0  0  0  0  0  0  0  0  0
    1.5820    9.1900   17.8620 C   0  0  0  0  0  0  0  0  0  0  0  0
    0.7070   10.5110   18.5150 S   0  0  0  0  0  0  0  0  0  0  0  0
    0.8630    9.8210   20.0810 C   0  0  0  0  0  0  0  0  0  0  0  0
    1.5200    8.6810   20.1360 N   0  0  0  0  0  0  0  0  0  0  0  0
    1.7640    9.1150   16.8000 H   0  0  0  0  0  0  0  0  0  0  0  0
    4.2160    5.6220   17.8850 C   0  0  0  0  0  0  0  0  0  0  0  0
    3.6890    6.8910   17.7460 C   0  0  0  0  0  0  0  0  0  0  0  0
    2.6950    7.0680   18.7230 C   0  0  0  0  0  0  0  0  0  0  0  0
    2.5840    5.8780   19.4220 C   0  0  0  0  0  0  0  0  0  0  0  0
    3.5830    4.9990   18.9680 N   0  0  0  0  0  0  0  0  0  0  0  0
    3.8650    3.7380   19.5290 C   0  0  2  0  0  3  0  0  0  0  0  0
    3.2550    3.2150   20.5750 N   0  0  0  0  0  0  0  0  0  0  0  0
    3.8770    2.0130   20.7400 C   0  0  0  0  0  0  0  0  0  0  0  0
    4.8460    1.7540   19.8600 N   0  0  0  0  0  2  0  0  0  0  0  0
    4.8220    2.8660   19.1060 N   0  0  0  0  0  0  0  0  0  0  0  0
    3.9950    7.6230   17.0070 H   0  0  0  0  0  0  0  0  0  0  0  0
    3.6160    1.3090   21.5200 H   0  0  0  0  0  0  0  0  0  0  0  0
    5.4830    2.9380   18.3440 H   0  0  0  0  0  0  0  0  0  0  0  0
    5.2840    5.0310   17.0340 C   0  0  0  0  0  0  0  0  0  0  0  0
    5.5370    4.0190   17.3740 H   0  0  0  0  0  0  0  0  0  0  0  0
    6.2030    5.6220   17.0860 H   0  0  0  0  0  0  0  0  0  0  0  0
    4.9520    4.9440   15.9950 H   0  0  0  0  0  0  0  0  0  0  0  0
    1.5990    5.4940   20.4800 C   0  0  0  0  0  0  0  0  0  0  0  0
    1.7380    6.0930   21.3850 H   0  0  0  0  0  0  0  0  0  0  0  0
    0.5730    5.6120   20.1150 H   0  0  0  0  0  0  0  0  0  0  0  0
    1.7270    4.4540   20.7920 H   0  0  0  0  0  0  0  0  0  0  0  0
    0.2810   10.5030   21.2780 C   0  0  0  0  0  0  0  0  0  0  0  0
    1.0830   11.0450   21.7930 H   0  0  0  0  0  0  0  0  0  0  0  0
   -0.1050    9.7730   21.9990 H   0  0  0  0  0  0  0  0  0  0  0  0
   -0.8230   11.4760   20.8600 C   0  0  0  0  0  0  0  0  0  0  0  0
   -0.6550   11.8650   19.8490 H   0  0  0  0  0  0  0  0  0  0  0  0
   -1.7860   10.9500   20.8530 H   0  0  0  0  0  0  0  0  0  0  0  0
   -0.9530   12.6130   21.7580 N   0  0  0  0  0  0  0  0  0  0  0  0
    0.0030   13.6740   21.8020 C   0  0  0  0  0  0  0  0  0  0  0  0
   -0.5690   14.5530   22.8870 C   0  0  0  0  0  0  0  0  0  0  0  0
   -1.3340   13.6600   23.7050 O   0  0  0  0  0  0  0  0  0  0  0  0
   -1.6130   12.5420   22.9640 C   0  0  0  0  0  0  0  0  0  0  0  0
   -2.3110   11.6210   23.3530 O   0  0  0  0  0  0  0  0  0  0  0  0
    0.0920   14.1800   20.8370 H   0  0  0  0  0  0  0  0  0  0  0  0
    0.9720   13.2620   22.1020 H   0  0  0  0  0  0  0  0  0  0  0  0
   -1.2460   15.3170   22.4880 H   0  0  0  0  0  0  0  0  0  0  0  0
    0.2090   15.0390   23.4820 H   0  0  0  0  0  0  0  0  0  0  0  0
  1  5  1  0  0  0  0
  2  3  1  0  0  0  0
  2  1  2  0  0  0  0
  3  4  1  0  0  0  0
  4  5  2  0  0  0  0
  4 28  1  0  0  0  0
  6  2  1  0  0  0  0
  7 11  1  0  0  0  0
  8  7  2  0  0  0  0
  8  9  1  0  0  0  0
  9  1  1  0  0  0  0
  9 10  2  0  0  0  0
 10 24  1  0  0  0  0
 11 10  1  0  0  0  0
 12 11  1  1  0  0  0
 12 13  1  0  0  0  0
 13 14  2  0  0  0  0
 14 18  1  0  0  0  0
 15 14  1  0  0  0  0
 16 12  1  0  0  0  0
 16 15  1  0  0  0  0
 17  8  1  0  0  0  0
 19 16  1  0  0  0  0
 20 22  1  0  0  0  0
 20 21  1  0  0  0  0
 20  7  1  0  0  0  0
 23 20  1  0  0  0  0
 24 27  1  0  0  0  0
 24 25  1  0  0  0  0
 26 24  1  0  0  0  0
 28 29  1  0  0  0  0
 28 30  1  0  0  0  0
 31 28  1  0  0  0  0
 31 34  1  0  0  0  0
 32 31  1  0  0  0  0
 33 31  1  0  0  0  0
 34 35  1  0  0  0  0
 34 38  1  0  0  0  0
 35 41  1  0  0  0  0
 35 36  1  0  0  0  0
 36 43  1  0  0  0  0
 36 37  1  0  0  0  0
 38 39  2  0  0  0  0
 38 37  1  0  0  0  0
 40 35  1  0  0  0  0
 42 36  1  0  0  0  0
M  END
>  <MODEL>
13

>  <REMARK>
 VINA RESULT:    -6.726      3.865      8.095
 INTER + INTRA:          -8.905
 INTER:                  -8.681
 INTRA:                  -0.224
 UNBOUND:                -0.213
  Name = 
  6 active torsions:
  status: ('A' for Active; 'I' for Inactive)
    1  A    between atoms: C_1  and  C_2
    2  A    between atoms: C_4  and  C_5
    3  A    between atoms: C_8  and  C_9
    4  A    between atoms: C_9  and  C_10
    5  A    between atoms: C_10  and  N_11
    6  A    between atoms: C_18  and  C_19
                            x       y       z     vdW  Elec       q    Type
                         _______ _______ _______ _____ _____    ______ ____

>  <TORSDO>
F 6

$$$$
=
 OpenBabel07192307433D

 43 46  0  0  1  0  0  0  0  0999 V2000
    2.7050    6.2060   18.4970 C   0  0  0  0  0  0  0  0  0  0  0  0
    1.9860    5.2010   17.8860 C   0  0  0  0  0  0  0  0  0  0  0  0
    2.9530    3.7950   17.7360 S   0  0  0  0  0  0  0  0  0  0  0  0
    4.2600    4.6330   18.4710 C   0  0  0  0  0  0  0  0  0  0  0  0
    4.0140    5.8800   18.8130 N   0  0  0  0  0  0  0  0  0  0  0  0
    0.9710    5.2200   17.5170 H   0  0  0  0  0  0  0  0  0  0  0  0
    1.8770    9.7720   18.4610 C   0  0  0  0  0  0  0  0  0  0  0  0
    2.4480    8.6400   17.9110 C   0  0  0  0  0  0  0  0  0  0  0  0
    2.2430    7.5670   18.7940 C   0  0  0  0  0  0  0  0  0  0  0  0
    1.5930    8.0650   19.9100 C   0  0  0  0  0  0  0  0  0  0  0  0
    1.2830    9.4170   19.6790 N   0  0  0  0  0  0  0  0  0  0  0  0
    0.5110   10.2260   20.5350 C   0  0  2  0  0  3  0  0  0  0  0  0
   -0.0540    9.8260   21.6580 N   0  0  0  0  0  0  0  0  0  0  0  0
   -0.6920   10.9440   22.1100 C   0  0  0  0  0  0  0  0  0  0  0  0
   -0.5630   12.0200   21.3340 N   0  0  0  0  0  2  0  0  0  0  0  0
    0.2000   11.5370   20.3380 N   0  0  0  0  0  0  0  0  0  0  0  0
    2.9620    8.5950   16.9580 H   0  0  0  0  0  0  0  0  0  0  0  0
   -1.2630   10.9720   23.0300 H   0  0  0  0  0  0  0  0  0  0  0  0
    0.4500   12.1630   19.5840 H   0  0  0  0  0  0  0  0  0  0  0  0
    1.8860   11.1290   17.8510 C   0  0  0  0  0  0  0  0  0  0  0  0
    2.0750   11.0690   16.7730 H   0  0  0  0  0  0  0  0  0  0  0  0
    2.6810   11.7480   18.2790 H   0  0  0  0  0  0  0  0  0  0  0  0
    0.9180   11.6220   17.9790 H   0  0  0  0  0  0  0  0  0  0  0  0
    1.2490    7.3710   21.1890 C   0  0  0  0  0  0  0  0  0  0  0  0
    1.1680    6.2900   21.0430 H   0  0  0  0  0  0  0  0  0  0  0  0
    2.0000    7.5830   21.9580 H   0  0  0  0  0  0  0  0  0  0  0  0
    0.2770    7.6910   21.5730 H   0  0  0  0  0  0  0  0  0  0  0  0
    5.5750    3.9550   18.6930 C   0  0  0  0  0  0  0  0  0  0  0  0
    5.4260    2.8720   18.6070 H   0  0  0  0  0  0  0  0  0  0  0  0
    5.9430    4.1320   19.7110 H   0  0  0  0  0  0  0  0  0  0  0  0
    6.6040    4.4240   17.6640 C   0  0  0  0  0  0  0  0  0  0  0  0
    7.4960    3.7850   17.6670 H   0  0  0  0  0  0  0  0  0  0  0  0
    6.1650    4.3690   16.6600 H   0  0  0  0  0  0  0  0  0  0  0  0
    7.0400    5.7960   17.8750 N   0  0  0  0  0  0  0  0  0  0  0  0
    7.0920    6.7600   16.8210 C   0  0  0  0  0  0  0  0  0  0  0  0
    7.6230    7.9720   17.5450 C   0  0  0  0  0  0  0  0  0  0  0  0
    8.3600    7.4360   18.6510 O   0  0  0  0  0  0  0  0  0  0  0  0
    7.9240    6.1560   18.8670 C   0  0  0  0  0  0  0  0  0  0  0  0
    8.3060    5.4500   19.7850 O   0  0  0  0  0  0  0  0  0  0  0  0
    6.1090    6.9210   16.3700 H   0  0  0  0  0  0  0  0  0  0  0  0
    7.8020    6.4140   16.0630 H   0  0  0  0  0  0  0  0  0  0  0  0
    6.8200    8.6020   17.9430 H   0  0  0  0  0  0  0  0  0  0  0  0
    8.2760    8.5810   16.9140 H   0  0  0  0  0  0  0  0  0  0  0  0
  1  9  1  0  0  0  0
  1  5  1  0  0  0  0
  2  1  2  0  0  0  0
  3  2  1  0  0  0  0
  3  4  1  0  0  0  0
  4 28  1  0  0  0  0
  4  5  2  0  0  0  0
  6  2  1  0  0  0  0
  7 11  1  0  0  0  0
  8  7  2  0  0  0  0
  8  9  1  0  0  0  0
  9 10  2  0  0  0  0
 10 24  1  0  0  0  0
 11 10  1  0  0  0  0
 12 11  1  6  0  0  0
 12 13  1  0  0  0  0
 13 14  2  0  0  0  0
 14 18  1  0  0  0  0
 15 14  1  0  0  0  0
 16 12  1  0  0  0  0
 16 15  1  0  0  0  0
 17  8  1  0  0  0  0
 19 16  1  0  0  0  0
 20 23  1  0  0  0  0
 20 22  1  0  0  0  0
 20  7  1  0  0  0  0
 21 20  1  0  0  0  0
 24 27  1  0  0  0  0
 24 26  1  0  0  0  0
 25 24  1  0  0  0  0
 28 30  1  0  0  0  0
 29 28  1  0  0  0  0
 31 32  1  0  0  0  0
 31 34  1  0  0  0  0
 31 28  1  0  0  0  0
 33 31  1  0  0  0  0
 34 38  1  0  0  0  0
 35 36  1  0  0  0  0
 35 34  1  0  0  0  0
 36 42  1  0  0  0  0
 36 37  1  0  0  0  0
 37 38  1  0  0  0  0
 38 39  2  0  0  0  0
 40 35  1  0  0  0  0
 41 35  1  0  0  0  0
 43 36  1  0  0  0  0
M  END
>  <MODEL>
14

>  <REMARK>
 VINA RESULT:    -6.609      2.538      3.779
 INTER + INTRA:          -8.753
 INTER:                  -8.274
 INTRA:                  -0.479
 UNBOUND:                -0.213
  Name = 
  6 active torsions:
  status: ('A' for Active; 'I' for Inactive)
    1  A    between atoms: C_1  and  C_2
    2  A    between atoms: C_4  and  C_5
    3  A    between atoms: C_8  and  C_9
    4  A    between atoms: C_9  and  C_10
    5  A    between atoms: C_10  and  N_11
    6  A    between atoms: C_18  and  C_19
                            x       y       z     vdW  Elec       q    Type
                         _______ _______ _______ _____ _____    ______ ____

>  <TORSDO>
F 6

$$$$
=
 OpenBabel07192307433D

 43 46  0  0  1  0  0  0  0  0999 V2000
    1.5610    8.2850   19.7250 C   0  0  0  0  0  0  0  0  0  0  0  0
    1.6280    7.1660   20.5270 C   0  0  0  0  0  0  0  0  0  0  0  0
    2.6680    6.0000   19.8230 S   0  0  0  0  0  0  0  0  0  0  0  0
    2.9310    7.0590   18.4960 C   0  0  0  0  0  0  0  0  0  0  0  0
    2.2960    8.2100   18.5530 N   0  0  0  0  0  0  0  0  0  0  0  0
    1.1240    6.9690   21.4620 H   0  0  0  0  0  0  0  0  0  0  0  0
   -0.2560   11.4550   19.4930 C   0  0  0  0  0  0  0  0  0  0  0  0
    0.5400   10.4570   18.9650 C   0  0  0  0  0  0  0  0  0  0  0  0
    0.7690    9.4970   19.9650 C   0  0  0  0  0  0  0  0  0  0  0  0
    0.1530    9.9450   21.1210 C   0  0  0  0  0  0  0  0  0  0  0  0
   -0.5600   11.1190   20.8190 N   0  0  0  0  0  0  0  0  0  0  0  0
   -1.4150   11.7960   21.7100 C   0  0  2  0  0  3  0  0  0  0  0  0
   -1.6920   11.4130   22.9410 N   0  0  0  0  0  0  0  0  0  0  0  0
   -2.5600   12.3660   23.3850 C   0  0  0  0  0  0  0  0  0  0  0  0
   -2.8480   13.3230   22.5020 N   0  0  0  0  0  2  0  0  0  0  0  0
   -2.1130   12.9350   21.4450 N   0  0  0  0  0  0  0  0  0  0  0  0
    0.9190   10.4240   17.9500 H   0  0  0  0  0  0  0  0  0  0  0  0
   -2.9920   12.3620   24.3780 H   0  0  0  0  0  0  0  0  0  0  0  0
   -2.1530   13.4990   20.6060 H   0  0  0  0  0  0  0  0  0  0  0  0
   -0.7170   12.6690   18.7670 C   0  0  0  0  0  0  0  0  0  0  0  0
    0.1290   13.1850   18.2990 H   0  0  0  0  0  0  0  0  0  0  0  0
   -1.1860   13.3830   19.4510 H   0  0  0  0  0  0  0  0  0  0  0  0
   -1.4130   12.4050   17.9650 H   0  0  0  0  0  0  0  0  0  0  0  0
    0.1920    9.3630   22.4970 C   0  0  0  0  0  0  0  0  0  0  0  0
    0.3250    8.2770   22.4630 H   0  0  0  0  0  0  0  0  0  0  0  0
    0.9960    9.8150   23.0860 H   0  0  0  0  0  0  0  0  0  0  0  0
   -0.7480    9.5280   23.0310 H   0  0  0  0  0  0  0  0  0  0  0  0
    3.8340    6.6630   17.3700 C   0  0  0  0  0  0  0  0  0  0  0  0
    4.7850    7.1980   17.4830 H   0  0  0  0  0  0  0  0  0  0  0  0
    3.4220    6.9770   16.4040 H   0  0  0  0  0  0  0  0  0  0  0  0
    4.0790    5.1530   17.3810 C   0  0  0  0  0  0  0  0  0  0  0  0
    3.5610    4.6680   18.2160 H   0  0  0  0  0  0  0  0  0  0  0  0
    3.6870    4.7160   16.4540 H   0  0  0  0  0  0  0  0  0  0  0  0
    5.4880    4.8030   17.4670 N   0  0  0  0  0  0  0  0  0  0  0  0
    6.3810    5.4230   18.3950 C   0  0  0  0  0  0  0  0  0  0  0  0
    7.6860    4.7420   18.0610 C   0  0  0  0  0  0  0  0  0  0  0  0
    7.5430    4.3460   16.6910 O   0  0  0  0  0  0  0  0  0  0  0  0
    6.2050    4.3180   16.3980 C   0  0  0  0  0  0  0  0  0  0  0  0
    5.7480    3.9500   15.3280 O   0  0  0  0  0  0  0  0  0  0  0  0
    6.0650    5.2660   19.4300 H   0  0  0  0  0  0  0  0  0  0  0  0
    6.4300    6.4940   18.1750 H   0  0  0  0  0  0  0  0  0  0  0  0
    7.8490    3.8410   18.6620 H   0  0  0  0  0  0  0  0  0  0  0  0
    8.5440    5.4100   18.1740 H   0  0  0  0  0  0  0  0  0  0  0  0
  1  9  1  0  0  0  0
  1  2  2  0  0  0  0
  2  6  1  0  0  0  0
  3  2  1  0  0  0  0
  4  5  2  0  0  0  0
  4  3  1  0  0  0  0
  5  1  1  0  0  0  0
  7 11  1  0  0  0  0
  8  7  2  0  0  0  0
  8  9  1  0  0  0  0
  9 10  2  0  0  0  0
 10 24  1  0  0  0  0
 11 10  1  0  0  0  0
 12 11  1  6  0  0  0
 12 13  1  0  0  0  0
 13 14  2  0  0  0  0
 14 18  1  0  0  0  0
 15 14  1  0  0  0  0
 16 12  1  0  0  0  0
 16 15  1  0  0  0  0
 17  8  1  0  0  0  0
 19 16  1  0  0  0  0
 20 22  1  0  0  0  0
 20  7  1  0  0  0  0
 21 20  1  0  0  0  0
 23 20  1  0  0  0  0
 24 27  1  0  0  0  0
 24 26  1  0  0  0  0
 25 24  1  0  0  0  0
 28 31  1  0  0  0  0
 28 29  1  0  0  0  0
 28  4  1  0  0  0  0
 30 28  1  0  0  0  0
 31 34  1  0  0  0  0
 31 32  1  0  0  0  0
 33 31  1  0  0  0  0
 34 35  1  0  0  0  0
 35 40  1  0  0  0  0
 36 43  1  0  0  0  0
 36 35  1  0  0  0  0
 36 42  1  0  0  0  0
 37 36  1  0  0  0  0
 38 37  1  0  0  0  0
 38 34  1  0  0  0  0
 39 38  2  0  0  0  0
 41 35  1  0  0  0  0
M  END
>  <MODEL>
15

>  <REMARK>
 VINA RESULT:    -6.591      2.957      3.995
 INTER + INTRA:          -8.730
 INTER:                  -8.466
 INTRA:                  -0.264
 UNBOUND:                -0.213
  Name = 
  6 active torsions:
  status: ('A' for Active; 'I' for Inactive)
    1  A    between atoms: C_1  and  C_2
    2  A    between atoms: C_4  and  C_5
    3  A    between atoms: C_8  and  C_9
    4  A    between atoms: C_9  and  C_10
    5  A    between atoms: C_10  and  N_11
    6  A    between atoms: C_18  and  C_19
                            x       y       z     vdW  Elec       q    Type
                         _______ _______ _______ _____ _____    ______ ____

>  <TORSDO>
F 6

$$$$
=
 OpenBabel07192307433D

 43 46  0  0  1  0  0  0  0  0999 V2000
    1.6900    8.0440   20.0590 C   0  0  0  0  0  0  0  0  0  0  0  0
    1.5490    8.1650   21.4250 C   0  0  0  0  0  0  0  0  0  0  0  0
    0.7670    9.6410   21.8070 S   0  0  0  0  0  0  0  0  0  0  0  0
    0.6970   10.0190   20.1320 C   0  0  0  0  0  0  0  0  0  0  0  0
    1.2160    9.1190   19.3240 N   0  0  0  0  0  0  0  0  0  0  0  0
    1.8660    7.4870   22.2040 H   0  0  0  0  0  0  0  0  0  0  0  0
    3.6470    5.9160   17.8130 C   0  0  0  0  0  0  0  0  0  0  0  0
    3.2090    7.1470   18.2640 C   0  0  0  0  0  0  0  0  0  0  0  0
    2.3200    6.9370   19.3320 C   0  0  0  0  0  0  0  0  0  0  0  0
    2.1770    5.5690   19.4900 C   0  0  0  0  0  0  0  0  0  0  0  0
    3.0620    4.9230   18.6090 N   0  0  0  0  0  0  0  0  0  0  0  0
    3.2930    3.5340   18.5710 C   0  0  2  0  0  3  0  0  0  0  0  0
    2.7360    2.6460   19.3720 N   0  0  0  0  0  0  0  0  0  0  0  0
    3.2760    1.4630   18.9600 C   0  0  0  0  0  0  0  0  0  0  0  0
    4.1420    1.5580   17.9510 N   0  0  0  0  0  2  0  0  0  0  0  0
    4.1400    2.8830   17.7260 N   0  0  0  0  0  0  0  0  0  0  0  0
    3.5070    8.1080   17.8610 H   0  0  0  0  0  0  0  0  0  0  0  0
    3.0290    0.5080   19.4080 H   0  0  0  0  0  0  0  0  0  0  0  0
    4.7370    3.2420   16.9920 H   0  0  0  0  0  0  0  0  0  0  0  0
    4.5880    5.6950   16.6830 C   0  0  0  0  0  0  0  0  0  0  0  0
    5.4490    6.3690   16.7560 H   0  0  0  0  0  0  0  0  0  0  0  0
    4.1050    5.8990   15.7220 H   0  0  0  0  0  0  0  0  0  0  0  0
    4.9800    4.6730   16.6940 H   0  0  0  0  0  0  0  0  0  0  0  0
    1.2600    4.8160   20.4000 C   0  0  0  0  0  0  0  0  0  0  0  0
    1.8050    4.3940   21.2490 H   0  0  0  0  0  0  0  0  0  0  0  0
    0.4570    5.4650   20.7640 H   0  0  0  0  0  0  0  0  0  0  0  0
    0.7990    3.9640   19.8930 H   0  0  0  0  0  0  0  0  0  0  0  0
    0.0740   11.2960   19.6620 C   0  0  0  0  0  0  0  0  0  0  0  0
   -0.8210   11.0520   19.0780 H   0  0  0  0  0  0  0  0  0  0  0  0
    0.7440   11.8350   18.9820 H   0  0  0  0  0  0  0  0  0  0  0  0
   -0.3030   12.1810   20.8520 C   0  0  0  0  0  0  0  0  0  0  0  0
    0.1710   11.8340   21.7780 H   0  0  0  0  0  0  0  0  0  0  0  0
    0.0480   13.2040   20.6680 H   0  0  0  0  0  0  0  0  0  0  0  0
   -1.7370   12.2470   21.0830 N   0  0  0  0  0  0  0  0  0  0  0  0
   -2.6230   12.9770   20.2320 C   0  0  0  0  0  0  0  0  0  0  0  0
   -3.9510   12.7520   20.9120 C   0  0  0  0  0  0  0  0  0  0  0  0
   -3.6140   12.5080   22.2840 O   0  0  0  0  0  0  0  0  0  0  0  0
   -2.2990   12.1300   22.3340 C   0  0  0  0  0  0  0  0  0  0  0  0
   -1.7270   11.7840   23.3540 O   0  0  0  0  0  0  0  0  0  0  0  0
   -2.5960   12.6060   19.2040 H   0  0  0  0  0  0  0  0  0  0  0  0
   -2.3440   14.0350   20.2570 H   0  0  0  0  0  0  0  0  0  0  0  0
   -4.4710   11.8690   20.5260 H   0  0  0  0  0  0  0  0  0  0  0  0
   -4.6110   13.6200   20.8340 H   0  0  0  0  0  0  0  0  0  0  0  0
  1  2  2  0  0  0  0
  2  3  1  0  0  0  0
  2  6  1  0  0  0  0
  4  3  1  0  0  0  0
  5  1  1  0  0  0  0
  5  4  2  0  0  0  0
  7  8  2  0  0  0  0
  7 11  1  0  0  0  0
  8  9  1  0  0  0  0
  9 10  2  0  0  0  0
  9  1  1  0  0  0  0
 10 24  1  0  0  0  0
 11 10  1  0  0  0  0
 12 11  1  1  0  0  0
 12 13  1  0  0  0  0
 14 13  2  0  0  0  0
 14 18  1  0  0  0  0
 15 14  1  0  0  0  0
 16 15  1  0  0  0  0
 16 12  1  0  0  0  0
 17  8  1  0  0  0  0
 19 16  1  0  0  0  0
 20 23  1  0  0  0  0
 20 21  1  0  0  0  0
 20  7  1  0  0  0  0
 22 20  1  0  0  0  0
 24 26  1  0  0  0  0
 24 25  1  0  0  0  0
 27 24  1  0  0  0  0
 28  4  1  0  0  0  0
 28 31  1  0  0  0  0
 29 28  1  0  0  0  0
 30 28  1  0  0  0  0
 31 34  1  0  0  0  0
 31 32  1  0  0  0  0
 33 31  1  0  0  0  0
 34 38  1  0  0  0  0
 35 41  1  0  0  0  0
 35 36  1  0  0  0  0
 35 34  1  0  0  0  0
 36 37  1  0  0  0  0
 37 38  1  0  0  0  0
 38 39  2  0  0  0  0
 40 35  1  0  0  0  0
 42 36  1  0  0  0  0
 43 36  1  0  0  0  0
M  END
>  <MODEL>
16

>  <REMARK>
 VINA RESULT:    -6.567      3.934      8.145
 INTER + INTRA:          -8.700
 INTER:                  -8.279
 INTRA:                  -0.421
 UNBOUND:                -0.213
  Name = 
  6 active torsions:
  status: ('A' for Active; 'I' for Inactive)
    1  A    between atoms: C_1  and  C_2
    2  A    between atoms: C_4  and  C_5
    3  A    between atoms: C_8  and  C_9
    4  A    between atoms: C_9  and  C_10
    5  A    between atoms: C_10  and  N_11
    6  A    between atoms: C_18  and  C_19
                            x       y       z     vdW  Elec       q    Type
                         _______ _______ _______ _____ _____    ______ ____

>  <TORSDO>
F 6

$$$$
=
 OpenBabel07192307433D

 43 46  0  0  1  0  0  0  0  0999 V2000
    1.5890    8.4250   19.4930 C   0  0  0  0  0  0  0  0  0  0  0  0
    2.3670    8.2030   18.3760 C   0  0  0  0  0  0  0  0  0  0  0  0
    3.1010    6.6580   18.4700 S   0  0  0  0  0  0  0  0  0  0  0  0
    2.3520    6.4110   19.9970 C   0  0  0  0  0  0  0  0  0  0  0  0
    1.6000    7.4020   20.4270 N   0  0  0  0  0  0  0  0  0  0  0  0
    2.5480    8.8540   17.5340 H   0  0  0  0  0  0  0  0  0  0  0  0
   -0.1910   11.6240   19.4380 C   0  0  0  0  0  0  0  0  0  0  0  0
    0.5960   10.6490   18.8560 C   0  0  0  0  0  0  0  0  0  0  0  0
    0.8110    9.6310   19.8000 C   0  0  0  0  0  0  0  0  0  0  0  0
    0.1960   10.0200   20.9770 C   0  0  0  0  0  0  0  0  0  0  0  0
   -0.5030   11.2170   20.7410 N   0  0  0  0  0  0  0  0  0  0  0  0
   -1.3530   11.8520   21.6670 C   0  0  2  0  0  3  0  0  0  0  0  0
   -1.6380   11.4020   22.8740 N   0  0  0  0  0  0  0  0  0  0  0  0
   -2.4970   12.3380   23.3700 C   0  0  0  0  0  0  0  0  0  0  0  0
   -2.7700   13.3470   22.5420 N   0  0  0  0  0  2  0  0  0  0  0  0
   -2.0370   13.0120   21.4660 N   0  0  0  0  0  0  0  0  0  0  0  0
    0.9780   10.6700   17.8420 H   0  0  0  0  0  0  0  0  0  0  0  0
   -2.9320   12.2830   24.3600 H   0  0  0  0  0  0  0  0  0  0  0  0
   -2.0680   13.6230   20.6610 H   0  0  0  0  0  0  0  0  0  0  0  0
   -0.6350   12.8830   18.7810 C   0  0  0  0  0  0  0  0  0  0  0  0
   -0.5840   13.7250   19.4810 H   0  0  0  0  0  0  0  0  0  0  0  0
   -1.6750   12.8080   18.4480 H   0  0  0  0  0  0  0  0  0  0  0  0
    0.0120   13.1320   17.9350 H   0  0  0  0  0  0  0  0  0  0  0  0
    0.2230    9.3590   22.3190 C   0  0  0  0  0  0  0  0  0  0  0  0
   -0.7670    9.3670   22.7840 H   0  0  0  0  0  0  0  0  0  0  0  0
    0.5810    8.3280   22.2350 H   0  0  0  0  0  0  0  0  0  0  0  0
    0.8800    9.8870   23.0150 H   0  0  0  0  0  0  0  0  0  0  0  0
    2.5620    5.1390   20.7550 C   0  0  0  0  0  0  0  0  0  0  0  0
    2.4480    5.3490   21.8250 H   0  0  0  0  0  0  0  0  0  0  0  0
    3.5840    4.7660   20.6250 H   0  0  0  0  0  0  0  0  0  0  0  0
    1.5480    4.0790   20.3200 C   0  0  0  0  0  0  0  0  0  0  0  0
    1.1440    3.5320   21.1800 H   0  0  0  0  0  0  0  0  0  0  0  0
    0.7040    4.5690   19.8180 H   0  0  0  0  0  0  0  0  0  0  0  0
    2.1010    3.1040   19.3930 N   0  0  0  0  0  0  0  0  0  0  0  0
    3.2920    2.3640   19.6720 C   0  0  0  0  0  0  0  0  0  0  0  0
    3.4400    1.5430   18.4150 C   0  0  0  0  0  0  0  0  0  0  0  0
    2.7730    2.3100   17.4050 O   0  0  0  0  0  0  0  0  0  0  0  0
    1.9190    3.1800   18.0310 C   0  0  0  0  0  0  0  0  0  0  0  0
    1.1530    3.9250   17.4440 O   0  0  0  0  0  0  0  0  0  0  0  0
    3.1890    1.7570   20.5750 H   0  0  0  0  0  0  0  0  0  0  0  0
    4.1240    3.0650   19.7820 H   0  0  0  0  0  0  0  0  0  0  0  0
    2.9390    0.5710   18.4920 H   0  0  0  0  0  0  0  0  0  0  0  0
    4.4860    1.3860   18.1410 H   0  0  0  0  0  0  0  0  0  0  0  0
  1  9  1  0  0  0  0
  1  5  1  0  0  0  0
  2  3  1  0  0  0  0
  2  1  2  0  0  0  0
  3  4  1  0  0  0  0
  4  5  2  0  0  0  0
  4 28  1  0  0  0  0
  6  2  1  0  0  0  0
  7 11  1  0  0  0  0
  8  7  2  0  0  0  0
  8  9  1  0  0  0  0
  9 10  2  0  0  0  0
 10 24  1  0  0  0  0
 11 10  1  0  0  0  0
 12 11  1  6  0  0  0
 12 13  1  0  0  0  0
 13 14  2  0  0  0  0
 14 18  1  0  0  0  0
 15 14  1  0  0  0  0
 16 12  1  0  0  0  0
 16 15  1  0  0  0  0
 17  8  1  0  0  0  0
 19 16  1  0  0  0  0
 20  7  1  0  0  0  0
 20 21  1  0  0  0  0
 22 20  1  0  0  0  0
 23 20  1  0  0  0  0
 24 25  1  0  0  0  0
 24 27  1  0  0  0  0
 26 24  1  0  0  0  0
 28 29  1  0  0  0  0
 30 28  1  0  0  0  0
 31 28  1  0  0  0  0
 31 32  1  0  0  0  0
 33 31  1  0  0  0  0
 34 35  1  0  0  0  0
 34 31  1  0  0  0  0
 35 41  1  0  0  0  0
 35 40  1  0  0  0  0
 36 42  1  0  0  0  0
 36 35  1  0  0  0  0
 37 38  1  0  0  0  0
 37 36  1  0  0  0  0
 38 34  1  0  0  0  0
 39 38  2  0  0  0  0
 43 36  1  0  0  0  0
M  END
>  <MODEL>
17

>  <REMARK>
 VINA RESULT:    -6.550      2.028      3.109
 INTER + INTRA:          -8.678
 INTER:                  -8.478
 INTRA:                  -0.200
 UNBOUND:                -0.213
  Name = 
  6 active torsions:
  status: ('A' for Active; 'I' for Inactive)
    1  A    between atoms: C_1  and  C_2
    2  A    between atoms: C_4  and  C_5
    3  A    between atoms: C_8  and  C_9
    4  A    between atoms: C_9  and  C_10
    5  A    between atoms: C_10  and  N_11
    6  A    between atoms: C_18  and  C_19
                            x       y       z     vdW  Elec       q    Type
                         _______ _______ _______ _____ _____    ______ ____

>  <TORSDO>
F 6

$$$$
=
 OpenBabel07192307433D

 43 46  0  0  1  0  0  0  0  0999 V2000
    1.0710    9.3070   19.2260 C   0  0  0  0  0  0  0  0  0  0  0  0
    1.6870    9.4430   18.0000 C   0  0  0  0  0  0  0  0  0  0  0  0
    2.7740    8.1440   17.7410 S   0  0  0  0  0  0  0  0  0  0  0  0
    2.3630    7.5130   19.2850 C   0  0  0  0  0  0  0  0  0  0  0  0
    1.4770    8.2080   19.9660 N   0  0  0  0  0  0  0  0  0  0  0  0
    1.5690   10.2240   17.2630 H   0  0  0  0  0  0  0  0  0  0  0  0
   -0.7680   11.6860   21.3130 C   0  0  0  0  0  0  0  0  0  0  0  0
    0.3280   10.8930   21.0330 C   0  0  0  0  0  0  0  0  0  0  0  0
    0.0880   10.2160   19.8260 C   0  0  0  0  0  0  0  0  0  0  0  0
   -1.1840   10.5600   19.4020 C   0  0  0  0  0  0  0  0  0  0  0  0
   -1.6950   11.5400   20.2730 N   0  0  0  0  0  0  0  0  0  0  0  0
   -2.9110   12.2250   20.0920 C   0  0  2  0  0  3  0  0  0  0  0  0
   -3.7300   12.0700   19.0700 N   0  0  0  0  0  0  0  0  0  0  0  0
   -4.7420   12.9450   19.3360 C   0  0  0  0  0  0  0  0  0  0  0  0
   -4.6020   13.6440   20.4620 N   0  0  0  0  0  2  0  0  0  0  0  0
   -3.4300   13.1740   20.9220 N   0  0  0  0  0  0  0  0  0  0  0  0
    1.2200   10.8130   21.6440 H   0  0  0  0  0  0  0  0  0  0  0  0
   -5.6020   13.0740   18.6900 H   0  0  0  0  0  0  0  0  0  0  0  0
   -3.0720   13.5520   21.7880 H   0  0  0  0  0  0  0  0  0  0  0  0
   -0.9240   12.5540   22.5120 C   0  0  0  0  0  0  0  0  0  0  0  0
   -0.0440   12.4800   23.1620 H   0  0  0  0  0  0  0  0  0  0  0  0
   -1.7880   12.2480   23.1100 H   0  0  0  0  0  0  0  0  0  0  0  0
   -1.0210   13.6050   22.2250 H   0  0  0  0  0  0  0  0  0  0  0  0
   -1.9690   10.0290   18.2450 C   0  0  0  0  0  0  0  0  0  0  0  0
   -2.9060    9.5740   18.5790 H   0  0  0  0  0  0  0  0  0  0  0  0
   -2.1820   10.8260   17.5250 H   0  0  0  0  0  0  0  0  0  0  0  0
   -1.4270    9.2380   17.7200 H   0  0  0  0  0  0  0  0  0  0  0  0
    2.9910    6.2500   19.7860 C   0  0  0  0  0  0  0  0  0  0  0  0
    3.6700    6.5030   20.6090 H   0  0  0  0  0  0  0  0  0  0  0  0
    3.6110    5.7830   19.0120 H   0  0  0  0  0  0  0  0  0  0  0  0
    1.9200    5.2730   20.2740 C   0  0  0  0  0  0  0  0  0  0  0  0
    1.9630    5.1390   21.3620 H   0  0  0  0  0  0  0  0  0  0  0  0
    0.9270    5.6730   20.0330 H   0  0  0  0  0  0  0  0  0  0  0  0
    2.0230    3.9590   19.6600 N   0  0  0  0  0  0  0  0  0  0  0  0
    2.0320    3.7680   18.2440 C   0  0  0  0  0  0  0  0  0  0  0  0
    2.1220    2.2650   18.1410 C   0  0  0  0  0  0  0  0  0  0  0  0
    1.5440    1.7870   19.3620 O   0  0  0  0  0  0  0  0  0  0  0  0
    1.5770    2.8100   20.2730 C   0  0  0  0  0  0  0  0  0  0  0  0
    1.2220    2.7010   21.4340 O   0  0  0  0  0  0  0  0  0  0  0  0
    2.8710    4.2840   17.7700 H   0  0  0  0  0  0  0  0  0  0  0  0
    1.0850    4.1330   17.8330 H   0  0  0  0  0  0  0  0  0  0  0  0
    3.1580    1.9130   18.0920 H   0  0  0  0  0  0  0  0  0  0  0  0
    1.5700    1.8730   17.2830 H   0  0  0  0  0  0  0  0  0  0  0  0
  1  9  1  0  0  0  0
  1  5  1  0  0  0  0
  2  1  2  0  0  0  0
  3  2  1  0  0  0  0
  3  4  1  0  0  0  0
  4 28  1  0  0  0  0
  4  5  2  0  0  0  0
  6  2  1  0  0  0  0
  7 20  1  0  0  0  0
  8  7  2  0  0  0  0
  8 17  1  0  0  0  0
  9  8  1  0  0  0  0
 10  9  2  0  0  0  0
 10 11  1  0  0  0  0
 11  7  1  0  0  0  0
 12 11  1  6  0  0  0
 12 16  1  0  0  0  0
 13 14  2  0  0  0  0
 13 12  1  0  0  0  0
 14 15  1  0  0  0  0
 15 16  1  0  0  0  0
 16 19  1  0  0  0  0
 18 14  1  0  0  0  0
 20 22  1  0  0  0  0
 20 21  1  0  0  0  0
 23 20  1  0  0  0  0
 24 25  1  0  0  0  0
 24 10  1  0  0  0  0
 26 24  1  0  0  0  0
 27 24  1  0  0  0  0
 28 31  1  0  0  0  0
 28 29  1  0  0  0  0
 30 28  1  0  0  0  0
 31 32  1  0  0  0  0
 33 31  1  0  0  0  0
 34 38  1  0  0  0  0
 34 31  1  0  0  0  0
 35 34  1  0  0  0  0
 36 35  1  0  0  0  0
 36 37  1  0  0  0  0
 37 38  1  0  0  0  0
 38 39  2  0  0  0  0
 40 35  1  0  0  0  0
 41 35  1  0  0  0  0
 42 36  1  0  0  0  0
 43 36  1  0  0  0  0
M  END
>  <MODEL>
18

>  <REMARK>
 VINA RESULT:    -6.537      2.760      4.054
 INTER + INTRA:          -8.660
 INTER:                  -8.187
 INTRA:                  -0.473
 UNBOUND:                -0.213
  Name = 
  6 active torsions:
  status: ('A' for Active; 'I' for Inactive)
    1  A    between atoms: C_1  and  C_2
    2  A    between atoms: C_4  and  C_5
    3  A    between atoms: C_8  and  C_9
    4  A    between atoms: C_9  and  C_10
    5  A    between atoms: C_10  and  N_11
    6  A    between atoms: C_18  and  C_19
                            x       y       z     vdW  Elec       q    Type
                         _______ _______ _______ _____ _____    ______ ____

>  <TORSDO>
F 6

$$$$
=
 OpenBabel07192307433D

 43 46  0  0  1  0  0  0  0  0999 V2000
    1.7320    7.3710   20.3580 C   0  0  0  0  0  0  0  0  0  0  0  0
    2.7410    7.1920   19.4360 C   0  0  0  0  0  0  0  0  0  0  0  0
    3.3340    5.5870   19.5180 S   0  0  0  0  0  0  0  0  0  0  0  0
    2.2240    5.2570   20.7870 C   0  0  0  0  0  0  0  0  0  0  0  0
    1.4520    6.2630   21.1420 N   0  0  0  0  0  0  0  0  0  0  0  0
    3.1610    7.9050   18.7420 H   0  0  0  0  0  0  0  0  0  0  0  0
   -0.2030   10.1280   21.7920 C   0  0  0  0  0  0  0  0  0  0  0  0
    0.4110    8.8930   21.8670 C   0  0  0  0  0  0  0  0  0  0  0  0
    0.9780    8.6030   20.6140 C   0  0  0  0  0  0  0  0  0  0  0  0
    0.6560    9.6450   19.7610 C   0  0  0  0  0  0  0  0  0  0  0  0
   -0.0050   10.6400   20.5030 N   0  0  0  0  0  0  0  0  0  0  0  0
   -0.3750   11.9050   20.0070 C   0  0  2  0  0  3  0  0  0  0  0  0
   -0.1310   12.3480   18.7890 N   0  0  0  0  0  0  0  0  0  0  0  0
   -0.6600   13.6050   18.7940 C   0  0  0  0  0  0  0  0  0  0  0  0
   -1.2180   13.9780   19.9460 N   0  0  0  0  0  2  0  0  0  0  0  0
   -1.0190   12.8840   20.7020 N   0  0  0  0  0  0  0  0  0  0  0  0
    0.4490    8.2600   22.7460 H   0  0  0  0  0  0  0  0  0  0  0  0
   -0.6380   14.2640   17.9350 H   0  0  0  0  0  0  0  0  0  0  0  0
   -1.3490   12.9000   21.6580 H   0  0  0  0  0  0  0  0  0  0  0  0
   -0.9380   10.7970   22.8990 C   0  0  0  0  0  0  0  0  0  0  0  0
   -1.8670   10.2610   23.1290 H   0  0  0  0  0  0  0  0  0  0  0  0
   -1.2190   11.8190   22.6250 H   0  0  0  0  0  0  0  0  0  0  0  0
   -0.3400   10.8070   23.8160 H   0  0  0  0  0  0  0  0  0  0  0  0
    0.9090    9.7760   18.2930 C   0  0  0  0  0  0  0  0  0  0  0  0
    0.7050   10.7930   17.9460 H   0  0  0  0  0  0  0  0  0  0  0  0
    1.9430    9.5050   18.0540 H   0  0  0  0  0  0  0  0  0  0  0  0
    0.2490    9.1270   17.7110 H   0  0  0  0  0  0  0  0  0  0  0  0
    2.1650    3.9020   21.4180 C   0  0  0  0  0  0  0  0  0  0  0  0
    1.7360    4.0050   22.4220 H   0  0  0  0  0  0  0  0  0  0  0  0
    3.1700    3.4880   21.5580 H   0  0  0  0  0  0  0  0  0  0  0  0
    1.3080    2.9530   20.5790 C   0  0  0  0  0  0  0  0  0  0  0  0
    0.9270    2.1180   21.1790 H   0  0  0  0  0  0  0  0  0  0  0  0
    0.4400    3.4980   20.1880 H   0  0  0  0  0  0  0  0  0  0  0  0
    2.0210    2.3940   19.4410 N   0  0  0  0  0  0  0  0  0  0  0  0
    3.3330    1.8390   19.5500 C   0  0  0  0  0  0  0  0  0  0  0  0
    3.6140    1.4410   18.1220 C   0  0  0  0  0  0  0  0  0  0  0  0
    2.7990    2.3220   17.3380 O   0  0  0  0  0  0  0  0  0  0  0  0
    1.8080    2.8100   18.1460 C   0  0  0  0  0  0  0  0  0  0  0  0
    0.9050    3.5340   17.7600 O   0  0  0  0  0  0  0  0  0  0  0  0
    3.3610    0.9960   20.2470 H   0  0  0  0  0  0  0  0  0  0  0  0
    4.0210    2.6230   19.8810 H   0  0  0  0  0  0  0  0  0  0  0  0
    3.3070    0.4110   17.9100 H   0  0  0  0  0  0  0  0  0  0  0  0
    4.6670    1.5630   17.8560 H   0  0  0  0  0  0  0  0  0  0  0  0
  1  9  1  0  0  0  0
  1  5  1  0  0  0  0
  2  3  1  0  0  0  0
  2  1  2  0  0  0  0
  3  4  1  0  0  0  0
  4  5  2  0  0  0  0
  4 28  1  0  0  0  0
  6  2  1  0  0  0  0
  7  8  2  0  0  0  0
  7 20  1  0  0  0  0
  8 17  1  0  0  0  0
  9  8  1  0  0  0  0
 10 11  1  0  0  0  0
 10  9  2  0  0  0  0
 11  7  1  0  0  0  0
 12 11  1  1  0  0  0
 12 16  1  0  0  0  0
 13 14  2  0  0  0  0
 13 12  1  0  0  0  0
 14 15  1  0  0  0  0
 15 16  1  0  0  0  0
 16 19  1  0  0  0  0
 18 14  1  0  0  0  0
 20 21  1  0  0  0  0
 20 23  1  0  0  0  0
 22 20  1  0  0  0  0
 24 10  1  0  0  0  0
 25 24  1  0  0  0  0
 26 24  1  0  0  0  0
 27 24  1  0  0  0  0
 28 30  1  0  0  0  0
 28 29  1  0  0  0  0
 31 32  1  0  0  0  0
 31 28  1  0  0  0  0
 33 31  1  0  0  0  0
 34 35  1  0  0  0  0
 34 31  1  0  0  0  0
 35 41  1  0  0  0  0
 35 40  1  0  0  0  0
 36 35  1  0  0  0  0
 37 36  1  0  0  0  0
 37 38  1  0  0  0  0
 38 34  1  0  0  0  0
 39 38  2  0  0  0  0
 42 36  1  0  0  0  0
 43 36  1  0  0  0  0
M  END
>  <MODEL>
19

>  <REMARK>
 VINA RESULT:    -6.529      2.072      3.527
 INTER + INTRA:          -8.650
 INTER:                  -8.446
 INTRA:                  -0.205
 UNBOUND:                -0.213
  Name = 
  6 active torsions:
  status: ('A' for Active; 'I' for Inactive)
    1  A    between atoms: C_1  and  C_2
    2  A    between atoms: C_4  and  C_5
    3  A    between atoms: C_8  and  C_9
    4  A    between atoms: C_9  and  C_10
    5  A    between atoms: C_10  and  N_11
    6  A    between atoms: C_18  and  C_19
                            x       y       z     vdW  Elec       q    Type
                         _______ _______ _______ _____ _____    ______ ____

>  <TORSDO>
F 6

$$$$
=
 OpenBabel07192307433D

 43 46  0  0  1  0  0  0  0  0999 V2000
    2.0230    7.4510   19.8290 C   0  0  0  0  0  0  0  0  0  0  0  0
    1.5470    7.4720   21.1230 C   0  0  0  0  0  0  0  0  0  0  0  0
    0.6450    8.9030   21.3930 S   0  0  0  0  0  0  0  0  0  0  0  0
    0.9750    9.3980   19.7820 C   0  0  0  0  0  0  0  0  0  0  0  0
    1.7080    8.5670   19.0710 N   0  0  0  0  0  0  0  0  0  0  0  0
    1.6870    6.7460   21.9100 H   0  0  0  0  0  0  0  0  0  0  0  0
    3.7800    4.3690   18.9240 C   0  0  0  0  0  0  0  0  0  0  0  0
    2.9560    5.1140   19.7460 C   0  0  0  0  0  0  0  0  0  0  0  0
    2.8510    6.4090   19.2100 C   0  0  0  0  0  0  0  0  0  0  0  0
    3.6600    6.4620   18.0880 C   0  0  0  0  0  0  0  0  0  0  0  0
    4.1770    5.1760   17.8500 N   0  0  0  0  0  0  0  0  0  0  0  0
    4.9400    4.8080   16.7260 C   0  0  2  0  0  3  0  0  0  0  0  0
    5.2560    5.6060   15.7240 N   0  0  0  0  0  0  0  0  0  0  0  0
    5.9770    4.8020   14.8900 C   0  0  0  0  0  0  0  0  0  0  0  0
    6.1270    3.5450   15.3090 N   0  0  0  0  0  2  0  0  0  0  0  0
    5.4550    3.5720   16.4730 N   0  0  0  0  0  0  0  0  0  0  0  0
    2.4730    4.7550   20.6470 H   0  0  0  0  0  0  0  0  0  0  0  0
    6.4020    5.1430   13.9550 H   0  0  0  0  0  0  0  0  0  0  0  0
    5.4040    2.7180   17.0130 H   0  0  0  0  0  0  0  0  0  0  0  0
    4.1640    2.9490   19.1440 C   0  0  0  0  0  0  0  0  0  0  0  0
    4.7920    2.5840   18.3230 H   0  0  0  0  0  0  0  0  0  0  0  0
    3.2810    2.3020   19.1800 H   0  0  0  0  0  0  0  0  0  0  0  0
    4.7460    2.8380   20.0640 H   0  0  0  0  0  0  0  0  0  0  0  0
    4.0000    7.6340   17.2250 C   0  0  0  0  0  0  0  0  0  0  0  0
    4.1480    8.5370   17.8250 H   0  0  0  0  0  0  0  0  0  0  0  0
    4.9000    7.4320   16.6350 H   0  0  0  0  0  0  0  0  0  0  0  0
    3.1900    7.8720   16.5300 H   0  0  0  0  0  0  0  0  0  0  0  0
    0.4440   10.6940   19.2560 C   0  0  0  0  0  0  0  0  0  0  0  0
   -0.5140   10.5000   18.7570 H   0  0  0  0  0  0  0  0  0  0  0  0
    1.1070   11.1110   18.4890 H   0  0  0  0  0  0  0  0  0  0  0  0
    0.2460   11.6970   20.3940 C   0  0  0  0  0  0  0  0  0  0  0  0
    0.7140   11.3480   21.3230 H   0  0  0  0  0  0  0  0  0  0  0  0
    0.7210   12.6490   20.1260 H   0  0  0  0  0  0  0  0  0  0  0  0
   -1.1540   11.9720   20.6770 N   0  0  0  0  0  0  0  0  0  0  0  0
   -1.9860   12.7270   19.7940 C   0  0  0  0  0  0  0  0  0  0  0  0
   -3.2920   12.7440   20.5480 C   0  0  0  0  0  0  0  0  0  0  0  0
   -2.9150   12.5900   21.9220 O   0  0  0  0  0  0  0  0  0  0  0  0
   -1.6580   12.0490   21.9560 C   0  0  0  0  0  0  0  0  0  0  0  0
   -1.0790   11.7290   22.9810 O   0  0  0  0  0  0  0  0  0  0  0  0
   -2.0610   12.2590   18.8080 H   0  0  0  0  0  0  0  0  0  0  0  0
   -1.5740   13.7370   19.7000 H   0  0  0  0  0  0  0  0  0  0  0  0
   -3.9400   11.9040   20.2750 H   0  0  0  0  0  0  0  0  0  0  0  0
   -3.8410   13.6790   20.4090 H   0  0  0  0  0  0  0  0  0  0  0  0
  1  2  2  0  0  0  0
  2  3  1  0  0  0  0
  2  6  1  0  0  0  0
  4  3  1  0  0  0  0
  5  4  2  0  0  0  0
  5  1  1  0  0  0  0
  7 20  1  0  0  0  0
  7  8  2  0  0  0  0
  8 17  1  0  0  0  0
  9  8  1  0  0  0  0
  9  1  1  0  0  0  0
 10  9  2  0  0  0  0
 11 10  1  0  0  0  0
 11  7  1  0  0  0  0
 12 11  1  6  0  0  0
 13 12  1  0  0  0  0
 14 15  1  0  0  0  0
 14 13  2  0  0  0  0
 15 16  1  0  0  0  0
 16 12  1  0  0  0  0
 16 19  1  0  0  0  0
 18 14  1  0  0  0  0
 20 22  1  0  0  0  0
 20 23  1  0  0  0  0
 21 20  1  0  0  0  0
 24 25  1  0  0  0  0
 24 10  1  0  0  0  0
 26 24  1  0  0  0  0
 27 24  1  0  0  0  0
 28  4  1  0  0  0  0
 28 31  1  0  0  0  0
 29 28  1  0  0  0  0
 30 28  1  0  0  0  0
 31 34  1  0  0  0  0
 31 32  1  0  0  0  0
 33 31  1  0  0  0  0
 34 38  1  0  0  0  0
 35 36  1  0  0  0  0
 35 34  1  0  0  0  0
 36 37  1  0  0  0  0
 37 38  1  0  0  0  0
 38 39  2  0  0  0  0
 40 35  1  0  0  0  0
 41 35  1  0  0  0  0
 42 36  1  0  0  0  0
 43 36  1  0  0  0  0
M  END
>  <MODEL>
20

>  <REMARK>
 VINA RESULT:    -6.502      4.056      8.312
 INTER + INTRA:          -8.615
 INTER:                  -8.464
 INTRA:                  -0.151
 UNBOUND:                -0.213
  Name = 
  6 active torsions:
  status: ('A' for Active; 'I' for Inactive)
    1  A    between atoms: C_1  and  C_2
    2  A    between atoms: C_4  and  C_5
    3  A    between atoms: C_8  and  C_9
    4  A    between atoms: C_9  and  C_10
    5  A    between atoms: C_10  and  N_11
    6  A    between atoms: C_18  and  C_19
                            x       y       z     vdW  Elec       q    Type
                         _______ _______ _______ _____ _____    ______ ____

>  <TORSDO>
F 6

$$$$
=
 OpenBabel07192307433D

 43 46  0  0  1  0  0  0  0  0999 V2000
    1.5330    8.2200   20.2110 C   0  0  0  0  0  0  0  0  0  0  0  0
    1.5640    8.3970   21.5780 C   0  0  0  0  0  0  0  0  0  0  0  0
    0.6200    9.7570   22.0170 S   0  0  0  0  0  0  0  0  0  0  0  0
    0.2600   10.0240   20.3580 C   0  0  0  0  0  0  0  0  0  0  0  0
    0.7990    9.1670   19.5160 N   0  0  0  0  0  0  0  0  0  0  0  0
    2.0890    7.8200   22.3260 H   0  0  0  0  0  0  0  0  0  0  0  0
    3.6130    6.2990   17.8910 C   0  0  0  0  0  0  0  0  0  0  0  0
    3.1120    7.4840   18.3950 C   0  0  0  0  0  0  0  0  0  0  0  0
    2.2230    7.1810   19.4400 C   0  0  0  0  0  0  0  0  0  0  0  0
    2.1440    5.8010   19.5310 C   0  0  0  0  0  0  0  0  0  0  0  0
    3.0680    5.2410   18.6310 N   0  0  0  0  0  0  0  0  0  0  0  0
    3.3660    3.8690   18.5290 C   0  0  2  0  0  3  0  0  0  0  0  0
    2.8440    2.9180   19.2800 N   0  0  0  0  0  0  0  0  0  0  0  0
    3.4440    1.7830   18.8190 C   0  0  0  0  0  0  0  0  0  0  0  0
    4.3160    1.9680   17.8270 N   0  0  0  0  0  2  0  0  0  0  0  0
    4.2530    3.3010   17.6650 N   0  0  0  0  0  0  0  0  0  0  0  0
    3.3670    8.4760   18.0420 H   0  0  0  0  0  0  0  0  0  0  0  0
    3.2390    0.7970   19.2180 H   0  0  0  0  0  0  0  0  0  0  0  0
    4.8390    3.7220   16.9570 H   0  0  0  0  0  0  0  0  0  0  0  0
    4.5760    6.1770   16.7630 C   0  0  0  0  0  0  0  0  0  0  0  0
    5.1890    5.2750   16.8720 H   0  0  0  0  0  0  0  0  0  0  0  0
    5.2630    7.0280   16.7380 H   0  0  0  0  0  0  0  0  0  0  0  0
    4.0500    6.0920   15.8080 H   0  0  0  0  0  0  0  0  0  0  0  0
    1.2550    4.9620   20.3920 C   0  0  0  0  0  0  0  0  0  0  0  0
    0.2030    5.2290   20.2510 H   0  0  0  0  0  0  0  0  0  0  0  0
    1.3970    3.8990   20.1740 H   0  0  0  0  0  0  0  0  0  0  0  0
    1.4580    5.1180   21.4540 H   0  0  0  0  0  0  0  0  0  0  0  0
   -0.6140   11.1630   19.9380 C   0  0  0  0  0  0  0  0  0  0  0  0
   -0.6090   11.9160   20.7350 H   0  0  0  0  0  0  0  0  0  0  0  0
   -1.6570   10.8410   19.8310 H   0  0  0  0  0  0  0  0  0  0  0  0
   -0.1080   11.7790   18.6330 C   0  0  0  0  0  0  0  0  0  0  0  0
    0.2410   11.0090   17.9340 H   0  0  0  0  0  0  0  0  0  0  0  0
   -0.9280   12.3180   18.1440 H   0  0  0  0  0  0  0  0  0  0  0  0
    0.9790   12.7240   18.8310 N   0  0  0  0  0  0  0  0  0  0  0  0
    0.7600   14.1260   19.0060 C   0  0  0  0  0  0  0  0  0  0  0  0
    2.1730   14.6390   19.1360 C   0  0  0  0  0  0  0  0  0  0  0  0
    2.9700   13.6790   18.4310 O   0  0  0  0  0  0  0  0  0  0  0  0
    2.2490   12.5190   18.3390 C   0  0  0  0  0  0  0  0  0  0  0  0
    2.6770   11.4840   17.8550 O   0  0  0  0  0  0  0  0  0  0  0  0
    0.1430   14.3330   19.8840 H   0  0  0  0  0  0  0  0  0  0  0  0
    0.2800   14.5220   18.1060 H   0  0  0  0  0  0  0  0  0  0  0  0
    2.5110   14.6660   20.1770 H   0  0  0  0  0  0  0  0  0  0  0  0
    2.2970   15.6310   18.6930 H   0  0  0  0  0  0  0  0  0  0  0  0
  1  2  2  0  0  0  0
  2  3  1  0  0  0  0
  2  6  1  0  0  0  0
  4  3  1  0  0  0  0
  5  1  1  0  0  0  0
  5  4  2  0  0  0  0
  7  8  2  0  0  0  0
  7 11  1  0  0  0  0
  8  9  1  0  0  0  0
  9 10  2  0  0  0  0
  9  1  1  0  0  0  0
 10 24  1  0  0  0  0
 11 10  1  0  0  0  0
 12 11  1  1  0  0  0
 12 13  1  0  0  0  0
 14 18  1  0  0  0  0
 14 13  2  0  0  0  0
 15 14  1  0  0  0  0
 16 15  1  0  0  0  0
 16 12  1  0  0  0  0
 17  8  1  0  0  0  0
 19 16  1  0  0  0  0
 20 21  1  0  0  0  0
 20  7  1  0  0  0  0
 22 20  1  0  0  0  0
 23 20  1  0  0  0  0
 24 27  1  0  0  0  0
 25 24  1  0  0  0  0
 26 24  1  0  0  0  0
 28  4  1  0  0  0  0
 28 29  1  0  0  0  0
 30 28  1  0  0  0  0
 31 34  1  0  0  0  0
 31 28  1  0  0  0  0
 32 31  1  0  0  0  0
 33 31  1  0  0  0  0
 34 35  1  0  0  0  0
 35 36  1  0  0  0  0
 35 40  1  0  0  0  0
 36 42  1  0  0  0  0
 37 36  1  0  0  0  0
 38 37  1  0  0  0  0
 38 34  1  0  0  0  0
 39 38  2  0  0  0  0
 41 35  1  0  0  0  0
 43 36  1  0  0  0  0
M  END
>  <MODEL>
21

>  <REMARK>
 VINA RESULT:    -6.490      3.736      7.940
 INTER + INTRA:          -8.600
 INTER:                  -7.911
 INTRA:                  -0.689
 UNBOUND:                -0.213
  Name = 
  6 active torsions:
  status: ('A' for Active; 'I' for Inactive)
    1  A    between atoms: C_1  and  C_2
    2  A    between atoms: C_4  and  C_5
    3  A    between atoms: C_8  and  C_9
    4  A    between atoms: C_9  and  C_10
    5  A    between atoms: C_10  and  N_11
    6  A    between atoms: C_18  and  C_19
                            x       y       z     vdW  Elec       q    Type
                         _______ _______ _______ _____ _____    ______ ____

>  <TORSDO>
F 6

$$$$
=
 OpenBabel07192307433D

 43 46  0  0  1  0  0  0  0  0999 V2000
    1.5380    8.8970   19.2380 C   0  0  0  0  0  0  0  0  0  0  0  0
    2.2410    8.7860   18.0580 C   0  0  0  0  0  0  0  0  0  0  0  0
    3.0390    7.2700   17.9910 S   0  0  0  0  0  0  0  0  0  0  0  0
    2.4100    6.8880   19.5440 C   0  0  0  0  0  0  0  0  0  0  0  0
    1.6530    7.8140   20.0940 N   0  0  0  0  0  0  0  0  0  0  0  0
    2.3380    9.5000   17.2540 H   0  0  0  0  0  0  0  0  0  0  0  0
   -0.2790   12.0590   19.5640 C   0  0  0  0  0  0  0  0  0  0  0  0
    0.5330   11.1770   18.8770 C   0  0  0  0  0  0  0  0  0  0  0  0
    0.7380   10.0440   19.6830 C   0  0  0  0  0  0  0  0  0  0  0  0
    0.0920   10.2680   20.8870 C   0  0  0  0  0  0  0  0  0  0  0  0
   -0.6160   11.4800   20.7940 N   0  0  0  0  0  0  0  0  0  0  0  0
   -1.4950   11.9790   21.7750 C   0  0  2  0  0  3  0  0  0  0  0  0
   -1.8020   11.3700   22.9040 N   0  0  0  0  0  0  0  0  0  0  0  0
   -2.6830   12.2260   23.4980 C   0  0  0  0  0  0  0  0  0  0  0  0
   -2.9500   13.3330   22.8050 N   0  0  0  0  0  2  0  0  0  0  0  0
   -2.1880   13.1500   21.7120 N   0  0  0  0  0  0  0  0  0  0  0  0
    0.9370   11.3360   17.8840 H   0  0  0  0  0  0  0  0  0  0  0  0
   -3.1400   12.0350   24.4620 H   0  0  0  0  0  0  0  0  0  0  0  0
   -2.2080   13.8620   20.9950 H   0  0  0  0  0  0  0  0  0  0  0  0
   -0.7230   13.3900   19.0690 C   0  0  0  0  0  0  0  0  0  0  0  0
   -1.7740   13.3570   18.7570 H   0  0  0  0  0  0  0  0  0  0  0  0
   -0.1420   13.7000   18.1950 H   0  0  0  0  0  0  0  0  0  0  0  0
   -0.6470   14.1460   19.8560 H   0  0  0  0  0  0  0  0  0  0  0  0
    0.0960    9.4360   22.1290 C   0  0  0  0  0  0  0  0  0  0  0  0
   -0.8980    9.0290   22.3350 H   0  0  0  0  0  0  0  0  0  0  0  0
    0.8180    8.6180   22.0430 H   0  0  0  0  0  0  0  0  0  0  0  0
    0.3610   10.0270   23.0100 H   0  0  0  0  0  0  0  0  0  0  0  0
    2.7210    5.5760   20.1930 C   0  0  0  0  0  0  0  0  0  0  0  0
    1.8440    4.9250   20.0960 H   0  0  0  0  0  0  0  0  0  0  0  0
    2.8920    5.6990   21.2680 H   0  0  0  0  0  0  0  0  0  0  0  0
    3.9340    4.9210   19.5300 C   0  0  0  0  0  0  0  0  0  0  0  0
    4.4010    5.5900   18.7960 H   0  0  0  0  0  0  0  0  0  0  0  0
    4.6880    4.6970   20.2940 H   0  0  0  0  0  0  0  0  0  0  0  0
    3.6130    3.6750   18.8540 N   0  0  0  0  0  0  0  0  0  0  0  0
    2.4670    3.5260   18.0120 C   0  0  0  0  0  0  0  0  0  0  0  0
    2.5790    2.0800   17.5990 C   0  0  0  0  0  0  0  0  0  0  0  0
    3.3130    1.4590   18.6620 O   0  0  0  0  0  0  0  0  0  0  0  0
    3.9830    2.4420   19.3410 C   0  0  0  0  0  0  0  0  0  0  0  0
    4.7560    2.2310   20.2610 O   0  0  0  0  0  0  0  0  0  0  0  0
    2.4910    4.2200   17.1670 H   0  0  0  0  0  0  0  0  0  0  0  0
    1.5660    3.6940   18.6110 H   0  0  0  0  0  0  0  0  0  0  0  0
    3.1490    1.9560   16.6720 H   0  0  0  0  0  0  0  0  0  0  0  0
    1.6020    1.6030   17.4860 H   0  0  0  0  0  0  0  0  0  0  0  0
  1  9  1  0  0  0  0
  1  5  1  0  0  0  0
  2  1  2  0  0  0  0
  3  2  1  0  0  0  0
  3  4  1  0  0  0  0
  4  5  2  0  0  0  0
  4 28  1  0  0  0  0
  6  2  1  0  0  0  0
  7 11  1  0  0  0  0
  8  7  2  0  0  0  0
  8  9  1  0  0  0  0
  9 10  2  0  0  0  0
 10 24  1  0  0  0  0
 11 10  1  0  0  0  0
 12 11  1  6  0  0  0
 12 13  1  0  0  0  0
 13 14  2  0  0  0  0
 14 18  1  0  0  0  0
 15 14  1  0  0  0  0
 16 12  1  0  0  0  0
 16 15  1  0  0  0  0
 17  8  1  0  0  0  0
 19 16  1  0  0  0  0
 20  7  1  0  0  0  0
 20 23  1  0  0  0  0
 21 20  1  0  0  0  0
 22 20  1  0  0  0  0
 24 25  1  0  0  0  0
 24 27  1  0  0  0  0
 26 24  1  0  0  0  0
 28 30  1  0  0  0  0
 29 28  1  0  0  0  0
 31 28  1  0  0  0  0
 31 33  1  0  0  0  0
 32 31  1  0  0  0  0
 34 38  1  0  0  0  0
 34 31  1  0  0  0  0
 35 41  1  0  0  0  0
 35 34  1  0  0  0  0
 36 35  1  0  0  0  0
 36 37  1  0  0  0  0
 37 38  1  0  0  0  0
 38 39  2  0  0  0  0
 40 35  1  0  0  0  0
 42 36  1  0  0  0  0
 43 36  1  0  0  0  0
M  END
>  <MODEL>
22

>  <REMARK>
 VINA RESULT:    -6.490      1.887      3.057
 INTER + INTRA:          -8.600
 INTER:                  -8.496
 INTRA:                  -0.104
 UNBOUND:                -0.213
  Name = 
  6 active torsions:
  status: ('A' for Active; 'I' for Inactive)
    1  A    between atoms: C_1  and  C_2
    2  A    between atoms: C_4  and  C_5
    3  A    between atoms: C_8  and  C_9
    4  A    between atoms: C_9  and  C_10
    5  A    between atoms: C_10  and  N_11
    6  A    between atoms: C_18  and  C_19
                            x       y       z     vdW  Elec       q    Type
                         _______ _______ _______ _____ _____    ______ ____

>  <TORSDO>
F 6

$$$$
=
 OpenBabel07192307433D

 43 46  0  0  1  0  0  0  0  0999 V2000
    1.1400    9.1400   18.6490 C   0  0  0  0  0  0  0  0  0  0  0  0
    2.0550    9.0610   17.6200 C   0  0  0  0  0  0  0  0  0  0  0  0
    3.1290    7.7520   17.8890 S   0  0  0  0  0  0  0  0  0  0  0  0
    2.3140    7.4050   19.3610 C   0  0  0  0  0  0  0  0  0  0  0  0
    1.3050    8.2000   19.6530 N   0  0  0  0  0  0  0  0  0  0  0  0
    2.1570    9.6930   16.7510 H   0  0  0  0  0  0  0  0  0  0  0  0
   -1.8910   11.1740   18.3730 C   0  0  0  0  0  0  0  0  0  0  0  0
   -1.0580   10.1530   17.9580 C   0  0  0  0  0  0  0  0  0  0  0  0
    0.0670   10.1280   18.8000 C   0  0  0  0  0  0  0  0  0  0  0  0
   -0.0620   11.1760   19.6950 C   0  0  0  0  0  0  0  0  0  0  0  0
   -1.3150   11.7820   19.4960 N   0  0  0  0  0  0  0  0  0  0  0  0
   -1.8560   12.8020   20.3020 C   0  0  2  0  0  3  0  0  0  0  0  0
   -1.2800   13.3140   21.3730 N   0  0  0  0  0  0  0  0  0  0  0  0
   -2.1820   14.2410   21.8080 C   0  0  0  0  0  0  0  0  0  0  0  0
   -3.2920   14.3350   21.0750 N   0  0  0  0  0  2  0  0  0  0  0  0
   -3.0640   13.4080   20.1280 N   0  0  0  0  0  0  0  0  0  0  0  0
   -1.2460    9.4860   17.1250 H   0  0  0  0  0  0  0  0  0  0  0  0
   -2.0240   14.8610   22.6810 H   0  0  0  0  0  0  0  0  0  0  0  0
   -3.7740   13.2630   19.4240 H   0  0  0  0  0  0  0  0  0  0  0  0
   -3.1820   11.5490   17.7370 C   0  0  0  0  0  0  0  0  0  0  0  0
   -3.4290   10.8580   16.9220 H   0  0  0  0  0  0  0  0  0  0  0  0
   -3.1300   12.5510   17.2990 H   0  0  0  0  0  0  0  0  0  0  0  0
   -4.0030   11.4980   18.4580 H   0  0  0  0  0  0  0  0  0  0  0  0
    0.9110   11.6650   20.7210 C   0  0  0  0  0  0  0  0  0  0  0  0
    0.4430   12.3880   21.3960 H   0  0  0  0  0  0  0  0  0  0  0  0
    1.3160   10.8290   21.2990 H   0  0  0  0  0  0  0  0  0  0  0  0
    1.7500   12.1930   20.2610 H   0  0  0  0  0  0  0  0  0  0  0  0
    2.7490    6.2650   20.2260 C   0  0  0  0  0  0  0  0  0  0  0  0
    3.0860    6.6670   21.1890 H   0  0  0  0  0  0  0  0  0  0  0  0
    3.6140    5.7490   19.7920 H   0  0  0  0  0  0  0  0  0  0  0  0
    1.5960    5.2830   20.4430 C   0  0  0  0  0  0  0  0  0  0  0  0
    1.4420    5.0740   21.5090 H   0  0  0  0  0  0  0  0  0  0  0  0
    0.6680    5.7230   20.0580 H   0  0  0  0  0  0  0  0  0  0  0  0
    1.7920    4.0120   19.7650 N   0  0  0  0  0  0  0  0  0  0  0  0
    1.6960    3.8720   18.3450 C   0  0  0  0  0  0  0  0  0  0  0  0
    1.9450    2.3950   18.1680 C   0  0  0  0  0  0  0  0  0  0  0  0
    1.5370    1.8110   19.4120 O   0  0  0  0  0  0  0  0  0  0  0  0
    1.5350    2.7980   20.3610 C   0  0  0  0  0  0  0  0  0  0  0  0
    1.3000    2.6090   21.5430 O   0  0  0  0  0  0  0  0  0  0  0  0
    2.4250    4.4990   17.8260 H   0  0  0  0  0  0  0  0  0  0  0  0
    0.6810    4.1380   18.0340 H   0  0  0  0  0  0  0  0  0  0  0  0
    3.0060    2.1680   18.0160 H   0  0  0  0  0  0  0  0  0  0  0  0
    1.3670    1.9710   17.3430 H   0  0  0  0  0  0  0  0  0  0  0  0
  1  9  1  0  0  0  0
  1  5  1  0  0  0  0
  2  3  1  0  0  0  0
  2  1  2  0  0  0  0
  3  4  1  0  0  0  0
  4  5  2  0  0  0  0
  4 28  1  0  0  0  0
  6  2  1  0  0  0  0
  7 11  1  0  0  0  0
  8  7  2  0  0  0  0
  8  9  1  0  0  0  0
  9 10  2  0  0  0  0
 10 24  1  0  0  0  0
 11 10  1  0  0  0  0
 12 11  1  1  0  0  0
 12 13  1  0  0  0  0
 13 14  2  0  0  0  0
 14 18  1  0  0  0  0
 15 14  1  0  0  0  0
 16 12  1  0  0  0  0
 16 15  1  0  0  0  0
 17  8  1  0  0  0  0
 19 16  1  0  0  0  0
 20  7  1  0  0  0  0
 20 23  1  0  0  0  0
 21 20  1  0  0  0  0
 22 20  1  0  0  0  0
 24 26  1  0  0  0  0
 24 25  1  0  0  0  0
 27 24  1  0  0  0  0
 28 31  1  0  0  0  0
 28 29  1  0  0  0  0
 30 28  1  0  0  0  0
 31 32  1  0  0  0  0
 33 31  1  0  0  0  0
 34 38  1  0  0  0  0
 34 31  1  0  0  0  0
 35 34  1  0  0  0  0
 36 35  1  0  0  0  0
 36 37  1  0  0  0  0
 37 38  1  0  0  0  0
 38 39  2  0  0  0  0
 40 35  1  0  0  0  0
 41 35  1  0  0  0  0
 42 36  1  0  0  0  0
 43 36  1  0  0  0  0
M  END
>  <MODEL>
23

>  <REMARK>
 VINA RESULT:    -6.478      2.584      3.711
 INTER + INTRA:          -8.585
 INTER:                  -8.086
 INTRA:                  -0.499
 UNBOUND:                -0.213
  Name = 
  6 active torsions:
  status: ('A' for Active; 'I' for Inactive)
    1  A    between atoms: C_1  and  C_2
    2  A    between atoms: C_4  and  C_5
    3  A    between atoms: C_8  and  C_9
    4  A    between atoms: C_9  and  C_10
    5  A    between atoms: C_10  and  N_11
    6  A    between atoms: C_18  and  C_19
                            x       y       z     vdW  Elec       q    Type
                         _______ _______ _______ _____ _____    ______ ____

>  <TORSDO>
F 6

$$$$
=
 OpenBabel07192307433D

 43 46  0  0  1  0  0  0  0  0999 V2000
    2.3640    6.2860   19.7840 C   0  0  0  0  0  0  0  0  0  0  0  0
    1.6690    5.2670   20.4010 C   0  0  0  0  0  0  0  0  0  0  0  0
    2.5530    3.8030   20.2930 S   0  0  0  0  0  0  0  0  0  0  0  0
    3.7800    4.6260   19.4150 C   0  0  0  0  0  0  0  0  0  0  0  0
    3.5650    5.9080   19.2050 N   0  0  0  0  0  0  0  0  0  0  0  0
    0.7060    5.3000   20.8880 H   0  0  0  0  0  0  0  0  0  0  0  0
    1.7060    9.7130   18.6780 C   0  0  0  0  0  0  0  0  0  0  0  0
    2.2680    8.4600   18.5200 C   0  0  0  0  0  0  0  0  0  0  0  0
    1.9430    7.6840   19.6460 C   0  0  0  0  0  0  0  0  0  0  0  0
    1.2270    8.4910   20.5140 C   0  0  0  0  0  0  0  0  0  0  0  0
    1.0000    9.7290   19.8870 N   0  0  0  0  0  0  0  0  0  0  0  0
    0.1980   10.7620   20.4090 C   0  0  2  0  0  3  0  0  0  0  0  0
   -0.4740   10.7080   21.5430 N   0  0  0  0  0  0  0  0  0  0  0  0
   -1.0940   11.9210   21.6050 C   0  0  0  0  0  0  0  0  0  0  0  0
   -0.8530   12.7310   20.5740 N   0  0  0  0  0  2  0  0  0  0  0  0
   -0.0350   11.9710   19.8260 N   0  0  0  0  0  0  0  0  0  0  0  0
    2.8550    8.1360   17.6690 H   0  0  0  0  0  0  0  0  0  0  0  0
   -1.7370   12.2200   22.4240 H   0  0  0  0  0  0  0  0  0  0  0  0
    0.3040   12.3540   18.9540 H   0  0  0  0  0  0  0  0  0  0  0  0
    1.8270   10.8420   17.7170 C   0  0  0  0  0  0  0  0  0  0  0  0
    1.4950   10.5380   16.7170 H   0  0  0  0  0  0  0  0  0  0  0  0
    2.8680   11.1680   17.6210 H   0  0  0  0  0  0  0  0  0  0  0  0
    1.1980   11.6840   18.0200 H   0  0  0  0  0  0  0  0  0  0  0  0
    0.7490    8.1940   21.8990 C   0  0  0  0  0  0  0  0  0  0  0  0
    1.2980    7.3530   22.3350 H   0  0  0  0  0  0  0  0  0  0  0  0
    0.8530    9.0740   22.5410 H   0  0  0  0  0  0  0  0  0  0  0  0
   -0.3020    7.8940   21.9080 H   0  0  0  0  0  0  0  0  0  0  0  0
    4.9990    3.9000   18.9410 C   0  0  0  0  0  0  0  0  0  0  0  0
    4.6840    3.1060   18.2540 H   0  0  0  0  0  0  0  0  0  0  0  0
    5.5080    3.3990   19.7730 H   0  0  0  0  0  0  0  0  0  0  0  0
    5.9550    4.8590   18.2300 C   0  0  0  0  0  0  0  0  0  0  0  0
    5.7470    5.9030   18.4930 H   0  0  0  0  0  0  0  0  0  0  0  0
    6.9840    4.6420   18.5410 H   0  0  0  0  0  0  0  0  0  0  0  0
    5.9040    4.7470   16.7810 N   0  0  0  0  0  0  0  0  0  0  0  0
    6.8590    3.9920   16.0320 C   0  0  0  0  0  0  0  0  0  0  0  0
    6.3850    4.2210   14.6180 C   0  0  0  0  0  0  0  0  0  0  0  0
    5.6980    5.4780   14.6700 O   0  0  0  0  0  0  0  0  0  0  0  0
    5.3560    5.7180   15.9740 C   0  0  0  0  0  0  0  0  0  0  0  0
    4.6970    6.6760   16.3420 O   0  0  0  0  0  0  0  0  0  0  0  0
    6.8600    2.9370   16.3210 H   0  0  0  0  0  0  0  0  0  0  0  0
    7.8510    4.4250   16.1880 H   0  0  0  0  0  0  0  0  0  0  0  0
    5.6730    3.4560   14.2890 H   0  0  0  0  0  0  0  0  0  0  0  0
    7.2120    4.2720   13.9050 H   0  0  0  0  0  0  0  0  0  0  0  0
  1  2  2  0  0  0  0
  2  6  1  0  0  0  0
  3  2  1  0  0  0  0
  4  3  1  0  0  0  0
  5  4  2  0  0  0  0
  5  1  1  0  0  0  0
  7 11  1  0  0  0  0
  8  7  2  0  0  0  0
  8  9  1  0  0  0  0
  9  1  1  0  0  0  0
  9 10  2  0  0  0  0
 10 24  1  0  0  0  0
 11 10  1  0  0  0  0
 12 11  1  6  0  0  0
 12 13  1  0  0  0  0
 13 14  2  0  0  0  0
 14 18  1  0  0  0  0
 15 14  1  0  0  0  0
 16 12  1  0  0  0  0
 16 15  1  0  0  0  0
 17  8  1  0  0  0  0
 19 16  1  0  0  0  0
 20 23  1  0  0  0  0
 20  7  1  0  0  0  0
 21 20  1  0  0  0  0
 22 20  1  0  0  0  0
 24 27  1  0  0  0  0
 24 25  1  0  0  0  0
 24 26  1  0  0  0  0
 28  4  1  0  0  0  0
 28 30  1  0  0  0  0
 29 28  1  0  0  0  0
 31 32  1  0  0  0  0
 31 33  1  0  0  0  0
 31 28  1  0  0  0  0
 34 31  1  0  0  0  0
 35 41  1  0  0  0  0
 35 40  1  0  0  0  0
 35 34  1  0  0  0  0
 36 37  1  0  0  0  0
 36 35  1  0  0  0  0
 37 38  1  0  0  0  0
 38 39  2  0  0  0  0
 38 34  1  0  0  0  0
 42 36  1  0  0  0  0
 43 36  1  0  0  0  0
M  END
>  <MODEL>
24

>  <REMARK>
 VINA RESULT:    -6.469      2.762      3.867
 INTER + INTRA:          -8.572
 INTER:                  -8.079
 INTRA:                  -0.493
 UNBOUND:                -0.213
  Name = 
  6 active torsions:
  status: ('A' for Active; 'I' for Inactive)
    1  A    between atoms: C_1  and  C_2
    2  A    between atoms: C_4  and  C_5
    3  A    between atoms: C_8  and  C_9
    4  A    between atoms: C_9  and  C_10
    5  A    between atoms: C_10  and  N_11
    6  A    between atoms: C_18  and  C_19
                            x       y       z     vdW  Elec       q    Type
                         _______ _______ _______ _____ _____    ______ ____

>  <TORSDO>
F 6

$$$$
=
 OpenBabel07192307433D

 43 46  0  0  1  0  0  0  0  0999 V2000
    1.8560    7.4850   19.9210 C   0  0  0  0  0  0  0  0  0  0  0  0
    1.2670    7.4670   21.1670 C   0  0  0  0  0  0  0  0  0  0  0  0
    0.3860    8.9150   21.4200 S   0  0  0  0  0  0  0  0  0  0  0  0
    0.8730    9.4650   19.8670 C   0  0  0  0  0  0  0  0  0  0  0  0
    1.6420    8.6410   19.1880 N   0  0  0  0  0  0  0  0  0  0  0  0
    1.3140    6.7050   21.9300 H   0  0  0  0  0  0  0  0  0  0  0  0
    3.6690    4.4120   19.0980 C   0  0  0  0  0  0  0  0  0  0  0  0
    2.8260    5.1620   19.8960 C   0  0  0  0  0  0  0  0  0  0  0  0
    2.7050    6.4430   19.3310 C   0  0  0  0  0  0  0  0  0  0  0  0
    3.5240    6.4850   18.2160 C   0  0  0  0  0  0  0  0  0  0  0  0
    4.0630    5.2020   18.0100 N   0  0  0  0  0  0  0  0  0  0  0  0
    4.8420    4.8220   16.9000 C   0  0  2  0  0  3  0  0  0  0  0  0
    5.1540    5.6030   15.8840 N   0  0  0  0  0  0  0  0  0  0  0  0
    5.8940    4.7930   15.0740 C   0  0  0  0  0  0  0  0  0  0  0  0
    6.0610    3.5480   15.5220 N   0  0  0  0  0  2  0  0  0  0  0  0
    5.3790    3.5900   16.6790 N   0  0  0  0  0  0  0  0  0  0  0  0
    2.3410    4.8150   20.8010 H   0  0  0  0  0  0  0  0  0  0  0  0
    6.3230    5.1210   14.1350 H   0  0  0  0  0  0  0  0  0  0  0  0
    5.3360    2.7470   17.2360 H   0  0  0  0  0  0  0  0  0  0  0  0
    4.0730    3.0030   19.3520 C   0  0  0  0  0  0  0  0  0  0  0  0
    5.0500    2.9640   19.8480 H   0  0  0  0  0  0  0  0  0  0  0  0
    4.1700    2.4450   18.4150 H   0  0  0  0  0  0  0  0  0  0  0  0
    3.3590    2.5040   20.0130 H   0  0  0  0  0  0  0  0  0  0  0  0
    3.8530    7.6440   17.3300 C   0  0  0  0  0  0  0  0  0  0  0  0
    3.7970    7.3620   16.2740 H   0  0  0  0  0  0  0  0  0  0  0  0
    3.1770    8.4820   17.5230 H   0  0  0  0  0  0  0  0  0  0  0  0
    4.8760    7.9940   17.4880 H   0  0  0  0  0  0  0  0  0  0  0  0
    0.4280   10.7990   19.3550 C   0  0  0  0  0  0  0  0  0  0  0  0
   -0.6670   10.8030   19.3020 H   0  0  0  0  0  0  0  0  0  0  0  0
    0.7820   10.9660   18.3310 H   0  0  0  0  0  0  0  0  0  0  0  0
    0.9110   11.9190   20.2770 C   0  0  0  0  0  0  0  0  0  0  0  0
    0.0700   12.4740   20.7100 H   0  0  0  0  0  0  0  0  0  0  0  0
    1.4800   11.4840   21.1090 H   0  0  0  0  0  0  0  0  0  0  0  0
    1.7790   12.8760   19.6090 N   0  0  0  0  0  0  0  0  0  0  0  0
    2.4230   12.5950   18.3640 C   0  0  0  0  0  0  0  0  0  0  0  0
    3.2030   13.8650   18.1330 C   0  0  0  0  0  0  0  0  0  0  0  0
    3.4200   14.3970   19.4460 O   0  0  0  0  0  0  0  0  0  0  0  0
    2.4940   13.8380   20.2860 C   0  0  0  0  0  0  0  0  0  0  0  0
    2.3680   14.1380   21.4610 O   0  0  0  0  0  0  0  0  0  0  0  0
    1.6990   12.3820   17.5720 H   0  0  0  0  0  0  0  0  0  0  0  0
    3.0940   11.7420   18.5000 H   0  0  0  0  0  0  0  0  0  0  0  0
    2.6340   14.6030   17.5560 H   0  0  0  0  0  0  0  0  0  0  0  0
    4.1590   13.6820   17.6360 H   0  0  0  0  0  0  0  0  0  0  0  0
  1  2  2  0  0  0  0
  2  3  1  0  0  0  0
  2  6  1  0  0  0  0
  4  3  1  0  0  0  0
  5  4  2  0  0  0  0
  5  1  1  0  0  0  0
  7 20  1  0  0  0  0
  7  8  2  0  0  0  0
  8 17  1  0  0  0  0
  9  8  1  0  0  0  0
  9  1  1  0  0  0  0
 10  9  2  0  0  0  0
 11 10  1  0  0  0  0
 11  7  1  0  0  0  0
 12 11  1  6  0  0  0
 13 12  1  0  0  0  0
 14 15  1  0  0  0  0
 14 13  2  0  0  0  0
 15 16  1  0  0  0  0
 16 12  1  0  0  0  0
 16 19  1  0  0  0  0
 18 14  1  0  0  0  0
 20 21  1  0  0  0  0
 20 23  1  0  0  0  0
 22 20  1  0  0  0  0
 24 27  1  0  0  0  0
 24 26  1  0  0  0  0
 24 10  1  0  0  0  0
 25 24  1  0  0  0  0
 28  4  1  0  0  0  0
 28 31  1  0  0  0  0
 29 28  1  0  0  0  0
 30 28  1  0  0  0  0
 31 32  1  0  0  0  0
 31 33  1  0  0  0  0
 34 31  1  0  0  0  0
 34 38  1  0  0  0  0
 35 41  1  0  0  0  0
 35 34  1  0  0  0  0
 36 35  1  0  0  0  0
 36 37  1  0  0  0  0
 37 38  1  0  0  0  0
 38 39  2  0  0  0  0
 40 35  1  0  0  0  0
 42 36  1  0  0  0  0
 43 36  1  0  0  0  0
M  END
>  <MODEL>
25

>  <REMARK>
 VINA RESULT:    -6.432      4.206      8.404
 INTER + INTRA:          -8.525
 INTER:                  -8.374
 INTRA:                  -0.151
 UNBOUND:                -0.213
  Name = 
  6 active torsions:
  status: ('A' for Active; 'I' for Inactive)
    1  A    between atoms: C_1  and  C_2
    2  A    between atoms: C_4  and  C_5
    3  A    between atoms: C_8  and  C_9
    4  A    between atoms: C_9  and  C_10
    5  A    between atoms: C_10  and  N_11
    6  A    between atoms: C_18  and  C_19
                            x       y       z     vdW  Elec       q    Type
                         _______ _______ _______ _____ _____    ______ ____

>  <TORSDO>
F 6

$$$$
=
 OpenBabel07192307433D

 43 46  0  0  1  0  0  0  0  0999 V2000
    2.0320    8.0860   18.5880 C   0  0  0  0  0  0  0  0  0  0  0  0
    1.6620    9.1590   17.8050 C   0  0  0  0  0  0  0  0  0  0  0  0
    0.8220   10.3140   18.7500 S   0  0  0  0  0  0  0  0  0  0  0  0
    0.9910    9.2930   20.1220 C   0  0  0  0  0  0  0  0  0  0  0  0
    1.6280    8.1610   19.9110 N   0  0  0  0  0  0  0  0  0  0  0  0
    1.8260    9.3180   16.7490 H   0  0  0  0  0  0  0  0  0  0  0  0
    3.1720    4.6790   17.8820 C   0  0  0  0  0  0  0  0  0  0  0  0
    2.2960    5.5870   18.4480 C   0  0  0  0  0  0  0  0  0  0  0  0
    2.7520    6.8830   18.1540 C   0  0  0  0  0  0  0  0  0  0  0  0
    3.9400    6.7580   17.4540 C   0  0  0  0  0  0  0  0  0  0  0  0
    4.1680    5.3930   17.2040 N   0  0  0  0  0  0  0  0  0  0  0  0
    5.2110    4.8820   16.4080 C   0  0  2  0  0  3  0  0  0  0  0  0
    6.1040    5.6070   15.7630 N   0  0  0  0  0  0  0  0  0  0  0  0
    6.8790    4.6760   15.1370 C   0  0  0  0  0  0  0  0  0  0  0  0
    6.5220    3.4090   15.3480 N   0  0  0  0  0  2  0  0  0  0  0  0
    5.4570    3.5660   16.1540 N   0  0  0  0  0  0  0  0  0  0  0  0
    1.4100    5.3350   19.0180 H   0  0  0  0  0  0  0  0  0  0  0  0
    7.7270    4.9300   14.5110 H   0  0  0  0  0  0  0  0  0  0  0  0
    4.9740    2.7370   16.4700 H   0  0  0  0  0  0  0  0  0  0  0  0
    3.0600    3.1990   17.9740 C   0  0  0  0  0  0  0  0  0  0  0  0
    3.4880    2.7210   17.0840 H   0  0  0  0  0  0  0  0  0  0  0  0
    2.0130    2.8850   18.0300 H   0  0  0  0  0  0  0  0  0  0  0  0
    3.6130    2.8170   18.8370 H   0  0  0  0  0  0  0  0  0  0  0  0
    4.8900    7.8240   17.0100 C   0  0  0  0  0  0  0  0  0  0  0  0
    5.3600    8.3160   17.8670 H   0  0  0  0  0  0  0  0  0  0  0  0
    5.6610    7.4060   16.3560 H   0  0  0  0  0  0  0  0  0  0  0  0
    4.3770    8.6180   16.4600 H   0  0  0  0  0  0  0  0  0  0  0  0
    0.4410    9.7020   21.4510 C   0  0  0  0  0  0  0  0  0  0  0  0
    1.0710    9.2680   22.2370 H   0  0  0  0  0  0  0  0  0  0  0  0
   -0.5640    9.2910   21.6060 H   0  0  0  0  0  0  0  0  0  0  0  0
    0.4190   11.2260   21.5810 C   0  0  0  0  0  0  0  0  0  0  0  0
    1.1960   11.5820   22.2680 H   0  0  0  0  0  0  0  0  0  0  0  0
    0.6190   11.6760   20.6000 H   0  0  0  0  0  0  0  0  0  0  0  0
   -0.8580   11.7420   22.0470 N   0  0  0  0  0  0  0  0  0  0  0  0
   -1.5110   11.2440   23.2160 C   0  0  0  0  0  0  0  0  0  0  0  0
   -2.7720   12.0710   23.2350 C   0  0  0  0  0  0  0  0  0  0  0  0
   -2.9850   12.4320   21.8640 O   0  0  0  0  0  0  0  0  0  0  0  0
   -1.7930   12.2980   21.2030 C   0  0  0  0  0  0  0  0  0  0  0  0
   -1.6240   12.5960   20.0330 O   0  0  0  0  0  0  0  0  0  0  0  0
   -0.8960   11.3730   24.1110 H   0  0  0  0  0  0  0  0  0  0  0  0
   -1.7390   10.1840   23.0670 H   0  0  0  0  0  0  0  0  0  0  0  0
   -2.6560   12.9920   23.8170 H   0  0  0  0  0  0  0  0  0  0  0  0
   -3.6310   11.5120   23.6170 H   0  0  0  0  0  0  0  0  0  0  0  0
  1  5  1  0  0  0  0
  2  1  2  0  0  0  0
  2  3  1  0  0  0  0
  3  4  1  0  0  0  0
  4 28  1  0  0  0  0
  5  4  2  0  0  0  0
  6  2  1  0  0  0  0
  7 20  1  0  0  0  0
  7  8  2  0  0  0  0
  8 17  1  0  0  0  0
  9  8  1  0  0  0  0
  9  1  1  0  0  0  0
 10  9  2  0  0  0  0
 11 10  1  0  0  0  0
 11  7  1  0  0  0  0
 12 11  1  6  0  0  0
 13 12  1  0  0  0  0
 14 15  1  0  0  0  0
 14 13  2  0  0  0  0
 15 16  1  0  0  0  0
 16 12  1  0  0  0  0
 16 19  1  0  0  0  0
 18 14  1  0  0  0  0
 20 22  1  0  0  0  0
 20 23  1  0  0  0  0
 21 20  1  0  0  0  0
 24 10  1  0  0  0  0
 24 25  1  0  0  0  0
 26 24  1  0  0  0  0
 27 24  1  0  0  0  0
 28 31  1  0  0  0  0
 28 30  1  0  0  0  0
 28 29  1  0  0  0  0
 31 34  1  0  0  0  0
 31 32  1  0  0  0  0
 33 31  1  0  0  0  0
 34 35  1  0  0  0  0
 35 36  1  0  0  0  0
 35 40  1  0  0  0  0
 36 43  1  0  0  0  0
 36 42  1  0  0  0  0
 37 36  1  0  0  0  0
 38 37  1  0  0  0  0
 38 34  1  0  0  0  0
 39 38  2  0  0  0  0
 41 35  1  0  0  0  0
M  END
>  <MODEL>
26

>  <REMARK>
 VINA RESULT:    -6.419      4.043      8.301
 INTER + INTRA:          -8.508
 INTER:                  -8.034
 INTRA:                  -0.475
 UNBOUND:                -0.213
  Name = 
  6 active torsions:
  status: ('A' for Active; 'I' for Inactive)
    1  A    between atoms: C_1  and  C_2
    2  A    between atoms: C_4  and  C_5
    3  A    between atoms: C_8  and  C_9
    4  A    between atoms: C_9  and  C_10
    5  A    between atoms: C_10  and  N_11
    6  A    between atoms: C_18  and  C_19
                            x       y       z     vdW  Elec       q    Type
                         _______ _______ _______ _____ _____    ______ ____

>  <TORSDO>
F 6

$$$$
=
 OpenBabel07192307433D

 43 46  0  0  1  0  0  0  0  0999 V2000
    1.2320    9.3700   19.2490 C   0  0  0  0  0  0  0  0  0  0  0  0
    1.6880    9.2430   17.9540 C   0  0  0  0  0  0  0  0  0  0  0  0
    2.5660    7.7820   17.7820 S   0  0  0  0  0  0  0  0  0  0  0  0
    2.2960    7.4410   19.4440 C   0  0  0  0  0  0  0  0  0  0  0  0
    1.6000    8.3430   20.1030 N   0  0  0  0  0  0  0  0  0  0  0  0
    1.5660    9.9190   17.1210 H   0  0  0  0  0  0  0  0  0  0  0  0
   -0.4840   12.5360   19.9040 C   0  0  0  0  0  0  0  0  0  0  0  0
    0.3230   11.7150   19.1410 C   0  0  0  0  0  0  0  0  0  0  0  0
    0.4560   10.4840   19.8060 C   0  0  0  0  0  0  0  0  0  0  0  0
   -0.2300   10.5820   21.0040 C   0  0  0  0  0  0  0  0  0  0  0  0
   -0.8900   11.8230   21.0400 N   0  0  0  0  0  0  0  0  0  0  0  0
   -1.7900   12.2310   22.0440 C   0  0  2  0  0  3  0  0  0  0  0  0
   -2.1620   11.5000   23.0760 N   0  0  0  0  0  0  0  0  0  0  0  0
   -3.0360   12.3090   23.7420 C   0  0  0  0  0  0  0  0  0  0  0  0
   -3.2360   13.5030   23.1830 N   0  0  0  0  0  2  0  0  0  0  0  0
   -2.4380   13.4270   22.1040 N   0  0  0  0  0  0  0  0  0  0  0  0
    0.7720   11.9790   18.1910 H   0  0  0  0  0  0  0  0  0  0  0  0
   -3.5370   12.0190   24.6570 H   0  0  0  0  0  0  0  0  0  0  0  0
   -2.4050   14.2230   21.4810 H   0  0  0  0  0  0  0  0  0  0  0  0
   -0.8620   13.9350   19.5640 C   0  0  0  0  0  0  0  0  0  0  0  0
   -0.4790   14.2110   18.5750 H   0  0  0  0  0  0  0  0  0  0  0  0
   -0.4340   14.6440   20.2800 H   0  0  0  0  0  0  0  0  0  0  0  0
   -1.9500   14.0490   19.5300 H   0  0  0  0  0  0  0  0  0  0  0  0
   -0.3030    9.6030   22.1320 C   0  0  0  0  0  0  0  0  0  0  0  0
   -0.1560    8.5790   21.7760 H   0  0  0  0  0  0  0  0  0  0  0  0
    0.4430    9.8380   22.8980 H   0  0  0  0  0  0  0  0  0  0  0  0
   -1.2870    9.6100   22.6090 H   0  0  0  0  0  0  0  0  0  0  0  0
    2.8300    6.1880   20.0640 C   0  0  0  0  0  0  0  0  0  0  0  0
    3.3360    6.4520   21.0000 H   0  0  0  0  0  0  0  0  0  0  0  0
    3.5920    5.7250   19.4260 H   0  0  0  0  0  0  0  0  0  0  0  0
    1.6960    5.2000   20.3430 C   0  0  0  0  0  0  0  0  0  0  0  0
    1.5830    5.0110   21.4180 H   0  0  0  0  0  0  0  0  0  0  0  0
    0.7500    5.6220   19.9840 H   0  0  0  0  0  0  0  0  0  0  0  0
    1.8800    3.9170   19.6830 N   0  0  0  0  0  0  0  0  0  0  0  0
    1.8100    3.7630   18.2640 C   0  0  0  0  0  0  0  0  0  0  0  0
    2.0340    2.2790   18.1090 C   0  0  0  0  0  0  0  0  0  0  0  0
    1.5890    1.7170   19.3500 O   0  0  0  0  0  0  0  0  0  0  0  0
    1.5880    2.7150   20.2880 C   0  0  0  0  0  0  0  0  0  0  0  0
    1.3260    2.5450   21.4670 O   0  0  0  0  0  0  0  0  0  0  0  0
    2.5620    4.3690   17.7520 H   0  0  0  0  0  0  0  0  0  0  0  0
    0.8070    4.0450   17.9290 H   0  0  0  0  0  0  0  0  0  0  0  0
    3.0930    2.0300   17.9810 H   0  0  0  0  0  0  0  0  0  0  0  0
    1.4640    1.8570   17.2770 H   0  0  0  0  0  0  0  0  0  0  0  0
  1  9  1  0  0  0  0
  1  5  1  0  0  0  0
  2  1  2  0  0  0  0
  3  2  1  0  0  0  0
  3  4  1  0  0  0  0
  4 28  1  0  0  0  0
  4  5  2  0  0  0  0
  6  2  1  0  0  0  0
  7 11  1  0  0  0  0
  8  9  1  0  0  0  0
  8  7  2  0  0  0  0
  9 10  2  0  0  0  0
 10 11  1  0  0  0  0
 10 24  1  0  0  0  0
 12 11  1  6  0  0  0
 12 16  1  0  0  0  0
 12 13  1  0  0  0  0
 13 14  2  0  0  0  0
 14 18  1  0  0  0  0
 15 14  1  0  0  0  0
 16 15  1  0  0  0  0
 17  8  1  0  0  0  0
 19 16  1  0  0  0  0
 20  7  1  0  0  0  0
 20 22  1  0  0  0  0
 21 20  1  0  0  0  0
 23 20  1  0  0  0  0
 24 27  1  0  0  0  0
 24 26  1  0  0  0  0
 25 24  1  0  0  0  0
 28 31  1  0  0  0  0
 28 29  1  0  0  0  0
 30 28  1  0  0  0  0
 31 32  1  0  0  0  0
 33 31  1  0  0  0  0
 34 38  1  0  0  0  0
 34 31  1  0  0  0  0
 35 34  1  0  0  0  0
 36 35  1  0  0  0  0
 36 37  1  0  0  0  0
 37 38  1  0  0  0  0
 38 39  2  0  0  0  0
 40 35  1  0  0  0  0
 41 35  1  0  0  0  0
 42 36  1  0  0  0  0
 43 36  1  0  0  0  0
M  END
>  <MODEL>
27

>  <REMARK>
 VINA RESULT:    -6.417      2.106      3.470
 INTER + INTRA:          -8.506
 INTER:                  -8.372
 INTRA:                  -0.134
 UNBOUND:                -0.213
  Name = 
  6 active torsions:
  status: ('A' for Active; 'I' for Inactive)
    1  A    between atoms: C_1  and  C_2
    2  A    between atoms: C_4  and  C_5
    3  A    between atoms: C_8  and  C_9
    4  A    between atoms: C_9  and  C_10
    5  A    between atoms: C_10  and  N_11
    6  A    between atoms: C_18  and  C_19
                            x       y       z     vdW  Elec       q    Type
                         _______ _______ _______ _____ _____    ______ ____

>  <TORSDO>
F 6

$$$$
=
 OpenBabel07192307433D

 43 46  0  0  1  0  0  0  0  0999 V2000
    1.6260    8.2500   19.6460 C   0  0  0  0  0  0  0  0  0  0  0  0
    1.7870    9.0580   18.5410 C   0  0  0  0  0  0  0  0  0  0  0  0
    1.2240   10.6400   18.8830 S   0  0  0  0  0  0  0  0  0  0  0  0
    0.7870   10.1260   20.4630 C   0  0  0  0  0  0  0  0  0  0  0  0
    1.0350    8.8630   20.7390 N   0  0  0  0  0  0  0  0  0  0  0  0
    2.1850    8.8080   17.5690 H   0  0  0  0  0  0  0  0  0  0  0  0
    2.0310    4.7530   20.6520 C   0  0  0  0  0  0  0  0  0  0  0  0
    1.5840    6.0440   20.8590 C   0  0  0  0  0  0  0  0  0  0  0  0
    1.9680    6.8270   19.7570 C   0  0  0  0  0  0  0  0  0  0  0  0
    2.6990    6.0170   18.9050 C   0  0  0  0  0  0  0  0  0  0  0  0
    2.6730    4.7030   19.4080 N   0  0  0  0  0  0  0  0  0  0  0  0
    3.1990    3.5760   18.7480 C   0  0  2  0  0  3  0  0  0  0  0  0
    3.7640    3.5840   17.5560 N   0  0  0  0  0  0  0  0  0  0  0  0
    4.0930    2.2770   17.3500 C   0  0  0  0  0  0  0  0  0  0  0  0
    3.7620    1.4480   18.3410 N   0  0  0  0  0  2  0  0  0  0  0  0
    3.1910    2.2960   19.2140 N   0  0  0  0  0  0  0  0  0  0  0  0
    1.0310    6.3880   21.7240 H   0  0  0  0  0  0  0  0  0  0  0  0
    4.5870    1.9210   16.4540 H   0  0  0  0  0  0  0  0  0  0  0  0
    2.8320    1.9160   20.0800 H   0  0  0  0  0  0  0  0  0  0  0  0
    1.8470    3.6140   21.5900 C   0  0  0  0  0  0  0  0  0  0  0  0
    1.1560    3.8840   22.3980 H   0  0  0  0  0  0  0  0  0  0  0  0
    2.7940    3.3350   22.0630 H   0  0  0  0  0  0  0  0  0  0  0  0
    1.4160    2.7490   21.0770 H   0  0  0  0  0  0  0  0  0  0  0  0
    3.4350    6.3820   17.6560 C   0  0  0  0  0  0  0  0  0  0  0  0
    3.3160    7.4450   17.4230 H   0  0  0  0  0  0  0  0  0  0  0  0
    4.4990    6.1430   17.7500 H   0  0  0  0  0  0  0  0  0  0  0  0
    3.0460    5.8450   16.7870 H   0  0  0  0  0  0  0  0  0  0  0  0
    0.1710   11.0830   21.4350 C   0  0  0  0  0  0  0  0  0  0  0  0
    0.9470   11.7760   21.7790 H   0  0  0  0  0  0  0  0  0  0  0  0
   -0.1890   10.5600   22.3290 H   0  0  0  0  0  0  0  0  0  0  0  0
   -0.9700   11.8600   20.7750 C   0  0  0  0  0  0  0  0  0  0  0  0
   -0.6020   12.7560   20.2620 H   0  0  0  0  0  0  0  0  0  0  0  0
   -1.4530   11.2260   20.0210 H   0  0  0  0  0  0  0  0  0  0  0  0
   -1.9970   12.2770   21.7170 N   0  0  0  0  0  0  0  0  0  0  0  0
   -2.0120   11.8500   23.0810 C   0  0  0  0  0  0  0  0  0  0  0  0
   -3.2610   12.5220   23.5960 C   0  0  0  0  0  0  0  0  0  0  0  0
   -4.0830   12.6900   22.4330 O   0  0  0  0  0  0  0  0  0  0  0  0
   -3.2740   12.6160   21.3310 C   0  0  0  0  0  0  0  0  0  0  0  0
   -3.6600   12.7900   20.1870 O   0  0  0  0  0  0  0  0  0  0  0  0
   -1.1070   12.1560   23.6120 H   0  0  0  0  0  0  0  0  0  0  0  0
   -2.1140   10.7610   23.1070 H   0  0  0  0  0  0  0  0  0  0  0  0
   -3.0560   13.5140   24.0150 H   0  0  0  0  0  0  0  0  0  0  0  0
   -3.7810   11.9180   24.3430 H   0  0  0  0  0  0  0  0  0  0  0  0
  1  9  1  0  0  0  0
  1  5  1  0  0  0  0
  2  3  1  0  0  0  0
  2  1  2  0  0  0  0
  3  4  1  0  0  0  0
  4  5  2  0  0  0  0
  4 28  1  0  0  0  0
  6  2  1  0  0  0  0
  7  8  2  0  0  0  0
  7 20  1  0  0  0  0
  8 17  1  0  0  0  0
  9  8  1  0  0  0  0
 10 11  1  0  0  0  0
 10  9  2  0  0  0  0
 11  7  1  0  0  0  0
 12 16  1  0  0  0  0
 12 11  1  6  0  0  0
 13 12  1  0  0  0  0
 14 13  2  0  0  0  0
 14 15  1  0  0  0  0
 15 16  1  0  0  0  0
 16 19  1  0  0  0  0
 18 14  1  0  0  0  0
 20 22  1  0  0  0  0
 20 21  1  0  0  0  0
 23 20  1  0  0  0  0
 24 26  1  0  0  0  0
 24 10  1  0  0  0  0
 25 24  1  0  0  0  0
 27 24  1  0  0  0  0
 28 29  1  0  0  0  0
 28 30  1  0  0  0  0
 31 28  1  0  0  0  0
 31 34  1  0  0  0  0
 32 31  1  0  0  0  0
 33 31  1  0  0  0  0
 34 35  1  0  0  0  0
 35 41  1  0  0  0  0
 35 36  1  0  0  0  0
 35 40  1  0  0  0  0
 36 42  1  0  0  0  0
 36 43  1  0  0  0  0
 37 36  1  0  0  0  0
 38 34  1  0  0  0  0
 38 37  1  0  0  0  0
 39 38  2  0  0  0  0
M  END
>  <MODEL>
28

>  <REMARK>
 VINA RESULT:    -6.234      4.035      8.394
 INTER + INTRA:          -8.269
 INTER:                  -8.107
 INTRA:                  -0.162
 UNBOUND:                -0.213
  Name = 
  6 active torsions:
  status: ('A' for Active; 'I' for Inactive)
    1  A    between atoms: C_1  and  C_2
    2  A    between atoms: C_4  and  C_5
    3  A    between atoms: C_8  and  C_9
    4  A    between atoms: C_9  and  C_10
    5  A    between atoms: C_10  and  N_11
    6  A    between atoms: C_18  and  C_19
                            x       y       z     vdW  Elec       q    Type
                         _______ _______ _______ _____ _____    ______ ____

>  <TORSDO>
F 6

$$$$
=
 OpenBabel07192307433D

 43 46  0  0  1  0  0  0  0  0999 V2000
    1.2470    9.2180   19.0410 C   0  0  0  0  0  0  0  0  0  0  0  0
    1.9010    9.3840   17.8380 C   0  0  0  0  0  0  0  0  0  0  0  0
    2.9630    8.0680   17.5610 S   0  0  0  0  0  0  0  0  0  0  0  0
    2.4930    7.3910   19.0690 C   0  0  0  0  0  0  0  0  0  0  0  0
    1.6050    8.0830   19.7500 N   0  0  0  0  0  0  0  0  0  0  0  0
    1.8230   10.1940   17.1280 H   0  0  0  0  0  0  0  0  0  0  0  0
   -0.5630   11.6240   21.1230 C   0  0  0  0  0  0  0  0  0  0  0  0
    0.5350   10.8380   20.8310 C   0  0  0  0  0  0  0  0  0  0  0  0
    0.2700   10.1300   19.6460 C   0  0  0  0  0  0  0  0  0  0  0  0
   -1.0170   10.4490   19.2500 C   0  0  0  0  0  0  0  0  0  0  0  0
   -1.5160   11.4430   20.1120 N   0  0  0  0  0  0  0  0  0  0  0  0
   -2.7450   12.1100   19.9500 C   0  0  2  0  0  3  0  0  0  0  0  0
   -3.5890   11.9210   18.9540 N   0  0  0  0  0  0  0  0  0  0  0  0
   -4.6040   12.7910   19.2270 C   0  0  0  0  0  0  0  0  0  0  0  0
   -4.4430   13.5170   20.3330 N   0  0  0  0  0  2  0  0  0  0  0  0
   -3.2520   13.0710   20.7710 N   0  0  0  0  0  0  0  0  0  0  0  0
    1.4440   10.7820   21.4190 H   0  0  0  0  0  0  0  0  0  0  0  0
   -5.4830   12.8950   18.6030 H   0  0  0  0  0  0  0  0  0  0  0  0
   -2.8760   13.4740   21.6190 H   0  0  0  0  0  0  0  0  0  0  0  0
   -0.6970   12.5170   22.3060 C   0  0  0  0  0  0  0  0  0  0  0  0
   -0.6080   11.9450   23.2360 H   0  0  0  0  0  0  0  0  0  0  0  0
   -1.6780   13.0030   22.3240 H   0  0  0  0  0  0  0  0  0  0  0  0
    0.0950   13.2720   22.3180 H   0  0  0  0  0  0  0  0  0  0  0  0
   -1.8270    9.8830   18.1280 C   0  0  0  0  0  0  0  0  0  0  0  0
   -1.5240   10.3110   17.1670 H   0  0  0  0  0  0  0  0  0  0  0  0
   -1.7290    8.7930   18.0920 H   0  0  0  0  0  0  0  0  0  0  0  0
   -2.8880   10.1220   18.2350 H   0  0  0  0  0  0  0  0  0  0  0  0
    3.0750    6.0960   19.5400 C   0  0  0  0  0  0  0  0  0  0  0  0
    2.3560    5.6170   20.2150 H   0  0  0  0  0  0  0  0  0  0  0  0
    3.9830    6.2620   20.1300 H   0  0  0  0  0  0  0  0  0  0  0  0
    3.3710    5.1750   18.3540 C   0  0  0  0  0  0  0  0  0  0  0  0
    2.8360    4.2220   18.4420 H   0  0  0  0  0  0  0  0  0  0  0  0
    3.0320    5.6560   17.4280 H   0  0  0  0  0  0  0  0  0  0  0  0
    4.7860    4.8780   18.2000 N   0  0  0  0  0  0  0  0  0  0  0  0
    5.7970    5.5120   18.9860 C   0  0  0  0  0  0  0  0  0  0  0  0
    7.0520    4.8900   18.4250 C   0  0  0  0  0  0  0  0  0  0  0  0
    6.7000    4.5180   17.0860 O   0  0  0  0  0  0  0  0  0  0  0  0
    5.3350    4.4430   17.0150 C   0  0  0  0  0  0  0  0  0  0  0  0
    4.7210    4.0810   16.0250 O   0  0  0  0  0  0  0  0  0  0  0  0
    5.6610    5.3220   20.0540 H   0  0  0  0  0  0  0  0  0  0  0  0
    5.7720    6.5890   18.7890 H   0  0  0  0  0  0  0  0  0  0  0  0
    7.3440    3.9830   18.9670 H   0  0  0  0  0  0  0  0  0  0  0  0
    7.8940    5.5880   18.4150 H   0  0  0  0  0  0  0  0  0  0  0  0
  1  9  1  0  0  0  0
  1  5  1  0  0  0  0
  2  1  2  0  0  0  0
  3  2  1  0  0  0  0
  3  4  1  0  0  0  0
  4 28  1  0  0  0  0
  4  5  2  0  0  0  0
  6  2  1  0  0  0  0
  7 20  1  0  0  0  0
  8  7  2  0  0  0  0
  8 17  1  0  0  0  0
  9  8  1  0  0  0  0
 10  9  2  0  0  0  0
 10 11  1  0  0  0  0
 11  7  1  0  0  0  0
 12 11  1  6  0  0  0
 12 16  1  0  0  0  0
 13 14  2  0  0  0  0
 13 12  1  0  0  0  0
 14 15  1  0  0  0  0
 15 16  1  0  0  0  0
 16 19  1  0  0  0  0
 18 14  1  0  0  0  0
 20 23  1  0  0  0  0
 20 22  1  0  0  0  0
 20 21  1  0  0  0  0
 24 27  1  0  0  0  0
 24 10  1  0  0  0  0
 25 24  1  0  0  0  0
 26 24  1  0  0  0  0
 28 30  1  0  0  0  0
 28 29  1  0  0  0  0
 31 32  1  0  0  0  0
 31 28  1  0  0  0  0
 33 31  1  0  0  0  0
 34 31  1  0  0  0  0
 34 35  1  0  0  0  0
 35 40  1  0  0  0  0
 36 42  1  0  0  0  0
 36 35  1  0  0  0  0
 37 36  1  0  0  0  0
 38 37  1  0  0  0  0
 38 34  1  0  0  0  0
 39 38  2  0  0  0  0
 41 35  1  0  0  0  0
 43 36  1  0  0  0  0
M  END
>  <MODEL>
29

>  <REMARK>
 VINA RESULT:    -6.208      3.040      4.488
 INTER + INTRA:          -8.236
 INTER:                  -7.738
 INTRA:                  -0.498
 UNBOUND:                -0.213
  Name = 
  6 active torsions:
  status: ('A' for Active; 'I' for Inactive)
    1  A    between atoms: C_1  and  C_2
    2  A    between atoms: C_4  and  C_5
    3  A    between atoms: C_8  and  C_9
    4  A    between atoms: C_9  and  C_10
    5  A    between atoms: C_10  and  N_11
    6  A    between atoms: C_18  and  C_19
                            x       y       z     vdW  Elec       q    Type
                         _______ _______ _______ _____ _____    ______ ____

>  <TORSDO>
F 6

$$$$
=
 OpenBabel07192307433D

 43 46  0  0  1  0  0  0  0  0999 V2000
    1.7190    8.0090   19.9010 C   0  0  0  0  0  0  0  0  0  0  0  0
    1.4890    8.1570   21.2530 C   0  0  0  0  0  0  0  0  0  0  0  0
    0.7340    9.6650   21.5580 S   0  0  0  0  0  0  0  0  0  0  0  0
    0.7910   10.0170   19.8770 C   0  0  0  0  0  0  0  0  0  0  0  0
    1.3330    9.0870   19.1200 N   0  0  0  0  0  0  0  0  0  0  0  0
    1.7280    7.4820   22.0600 H   0  0  0  0  0  0  0  0  0  0  0  0
    3.7190    5.7800   17.7960 C   0  0  0  0  0  0  0  0  0  0  0  0
    3.2810    7.0310   18.1870 C   0  0  0  0  0  0  0  0  0  0  0  0
    2.3590    6.8700   19.2350 C   0  0  0  0  0  0  0  0  0  0  0  0
    2.1970    5.5100   19.4400 C   0  0  0  0  0  0  0  0  0  0  0  0
    3.1010    4.8230   18.6100 N   0  0  0  0  0  0  0  0  0  0  0  0
    3.3190    3.4320   18.6310 C   0  0  2  0  0  3  0  0  0  0  0  0
    2.7300    2.5800   19.4470 N   0  0  0  0  0  0  0  0  0  0  0  0
    3.2690    1.3770   19.0970 C   0  0  0  0  0  0  0  0  0  0  0  0
    4.1650    1.4260   18.1110 N   0  0  0  0  0  2  0  0  0  0  0  0
    4.1840    2.7420   17.8360 N   0  0  0  0  0  0  0  0  0  0  0  0
    3.6010    7.9730   17.7570 H   0  0  0  0  0  0  0  0  0  0  0  0
    2.9990    0.4420   19.5730 H   0  0  0  0  0  0  0  0  0  0  0  0
    4.8050    3.0670   17.1080 H   0  0  0  0  0  0  0  0  0  0  0  0
    4.6910    5.5080   16.7030 C   0  0  0  0  0  0  0  0  0  0  0  0
    5.7210    5.5920   17.0690 H   0  0  0  0  0  0  0  0  0  0  0  0
    4.5830    6.2320   15.8890 H   0  0  0  0  0  0  0  0  0  0  0  0
    4.5720    4.4910   16.3170 H   0  0  0  0  0  0  0  0  0  0  0  0
    1.2450    4.8000   20.3490 C   0  0  0  0  0  0  0  0  0  0  0  0
    1.7670    4.3710   21.2100 H   0  0  0  0  0  0  0  0  0  0  0  0
    0.4610    5.4810   20.6960 H   0  0  0  0  0  0  0  0  0  0  0  0
    0.7610    3.9570   19.8480 H   0  0  0  0  0  0  0  0  0  0  0  0
    0.2470   11.3060   19.3480 C   0  0  0  0  0  0  0  0  0  0  0  0
   -0.8320   11.3340   19.5430 H   0  0  0  0  0  0  0  0  0  0  0  0
    0.3610   11.3650   18.2590 H   0  0  0  0  0  0  0  0  0  0  0  0
    0.9310   12.4970   20.0210 C   0  0  0  0  0  0  0  0  0  0  0  0
    1.5570   12.1780   20.8630 H   0  0  0  0  0  0  0  0  0  0  0  0
    1.5860   12.9970   19.2970 H   0  0  0  0  0  0  0  0  0  0  0  0
   -0.0090   13.4910   20.5170 N   0  0  0  0  0  0  0  0  0  0  0  0
   -0.8750   13.2470   21.6270 C   0  0  0  0  0  0  0  0  0  0  0  0
   -1.6390   14.5450   21.7070 C   0  0  0  0  0  0  0  0  0  0  0  0
   -1.5990   15.0660   20.3720 O   0  0  0  0  0  0  0  0  0  0  0  0
   -0.5570   14.4670   19.7170 C   0  0  0  0  0  0  0  0  0  0  0  0
   -0.2120   14.7480   18.5810 O   0  0  0  0  0  0  0  0  0  0  0  0
   -0.3130   13.0190   22.5380 H   0  0  0  0  0  0  0  0  0  0  0  0
   -1.5400   12.4140   21.3790 H   0  0  0  0  0  0  0  0  0  0  0  0
   -1.1580   15.2700   22.3720 H   0  0  0  0  0  0  0  0  0  0  0  0
   -2.6750   14.3990   22.0250 H   0  0  0  0  0  0  0  0  0  0  0  0
  1  2  2  0  0  0  0
  2  3  1  0  0  0  0
  2  6  1  0  0  0  0
  4  3  1  0  0  0  0
  5  4  2  0  0  0  0
  5  1  1  0  0  0  0
  7  8  2  0  0  0  0
  7 11  1  0  0  0  0
  8  9  1  0  0  0  0
  9 10  2  0  0  0  0
  9  1  1  0  0  0  0
 10 24  1  0  0  0  0
 11 10  1  0  0  0  0
 12 11  1  1  0  0  0
 12 13  1  0  0  0  0
 14 13  2  0  0  0  0
 14 18  1  0  0  0  0
 15 14  1  0  0  0  0
 16 15  1  0  0  0  0
 16 12  1  0  0  0  0
 17  8  1  0  0  0  0
 19 16  1  0  0  0  0
 20 21  1  0  0  0  0
 20  7  1  0  0  0  0
 22 20  1  0  0  0  0
 23 20  1  0  0  0  0
 24 26  1  0  0  0  0
 24 25  1  0  0  0  0
 27 24  1  0  0  0  0
 28 29  1  0  0  0  0
 28  4  1  0  0  0  0
 28 31  1  0  0  0  0
 30 28  1  0  0  0  0
 31 34  1  0  0  0  0
 31 32  1  0  0  0  0
 33 31  1  0  0  0  0
 34 35  1  0  0  0  0
 35 36  1  0  0  0  0
 35 40  1  0  0  0  0
 36 43  1  0  0  0  0
 36 42  1  0  0  0  0
 37 36  1  0  0  0  0
 38 37  1  0  0  0  0
 38 34  1  0  0  0  0
 39 38  2  0  0  0  0
 41 35  1  0  0  0  0
M  END
>  <MODEL>
30

>  <REMARK>
 VINA RESULT:    -6.198      4.374      8.477
 INTER + INTRA:          -8.222
 INTER:                  -7.811
 INTRA:                  -0.411
 UNBOUND:                -0.213
  Name = 
  6 active torsions:
  status: ('A' for Active; 'I' for Inactive)
    1  A    between atoms: C_1  and  C_2
    2  A    between atoms: C_4  and  C_5
    3  A    between atoms: C_8  and  C_9
    4  A    between atoms: C_9  and  C_10
    5  A    between atoms: C_10  and  N_11
    6  A    between atoms: C_18  and  C_19
                            x       y       z     vdW  Elec       q    Type
                         _______ _______ _______ _____ _____    ______ ____

>  <TORSDO>
F 6

$$$$
=
 OpenBabel07192307433D

 43 46  0  0  1  0  0  0  0  0999 V2000
    1.9820    8.1540   19.1360 C   0  0  0  0  0  0  0  0  0  0  0  0
    2.2580    8.8420   17.9740 C   0  0  0  0  0  0  0  0  0  0  0  0
    1.7650   10.4760   18.1280 S   0  0  0  0  0  0  0  0  0  0  0  0
    1.2020   10.1410   19.7160 C   0  0  0  0  0  0  0  0  0  0  0  0
    1.3600    8.8990   20.1240 N   0  0  0  0  0  0  0  0  0  0  0  0
    2.7010    8.4800   17.0580 H   0  0  0  0  0  0  0  0  0  0  0  0
    2.1420    4.7600   20.5000 C   0  0  0  0  0  0  0  0  0  0  0  0
    1.7650    6.0890   20.5580 C   0  0  0  0  0  0  0  0  0  0  0  0
    2.2350    6.7330   19.4010 C   0  0  0  0  0  0  0  0  0  0  0  0
    2.9460    5.8010   18.6660 C   0  0  0  0  0  0  0  0  0  0  0  0
    2.8240    4.5490   19.2950 N   0  0  0  0  0  0  0  0  0  0  0  0
    3.3060    3.3330   18.7730 C   0  0  2  0  0  3  0  0  0  0  0  0
    3.9140    3.1890   17.6110 N   0  0  0  0  0  0  0  0  0  0  0  0
    4.1710    1.8510   17.5490 C   0  0  0  0  0  0  0  0  0  0  0  0
    3.7560    1.1470   18.6030 N   0  0  0  0  0  2  0  0  0  0  0  0
    3.2050    2.1090   19.3630 N   0  0  0  0  0  0  0  0  0  0  0  0
    1.2020    6.5490   21.3620 H   0  0  0  0  0  0  0  0  0  0  0  0
    4.6750    1.3800   16.7150 H   0  0  0  0  0  0  0  0  0  0  0  0
    2.7930    1.8400   20.2460 H   0  0  0  0  0  0  0  0  0  0  0  0
    1.8560    3.7340   21.5380 C   0  0  0  0  0  0  0  0  0  0  0  0
    0.9640    4.0040   22.1150 H   0  0  0  0  0  0  0  0  0  0  0  0
    2.6830    3.6530   22.2510 H   0  0  0  0  0  0  0  0  0  0  0  0
    1.6590    2.7590   21.0820 H   0  0  0  0  0  0  0  0  0  0  0  0
    3.7480    5.9960   17.4190 C   0  0  0  0  0  0  0  0  0  0  0  0
    3.6300    7.0120   17.0280 H   0  0  0  0  0  0  0  0  0  0  0  0
    4.8070    5.7940   17.6040 H   0  0  0  0  0  0  0  0  0  0  0  0
    3.4140    5.3320   16.6170 H   0  0  0  0  0  0  0  0  0  0  0  0
    0.5810   11.2170   20.5500 C   0  0  0  0  0  0  0  0  0  0  0  0
    0.8990   12.1890   20.1550 H   0  0  0  0  0  0  0  0  0  0  0  0
    0.9450   11.1740   21.5830 H   0  0  0  0  0  0  0  0  0  0  0  0
   -0.9450   11.1120   20.5170 C   0  0  0  0  0  0  0  0  0  0  0  0
   -1.3450   11.3820   19.5320 H   0  0  0  0  0  0  0  0  0  0  0  0
   -1.2420   10.0760   20.7180 H   0  0  0  0  0  0  0  0  0  0  0  0
   -1.5970   11.9540   21.5070 N   0  0  0  0  0  0  0  0  0  0  0  0
   -1.7750   13.3600   21.3280 C   0  0  0  0  0  0  0  0  0  0  0  0
   -2.4560   13.7470   22.6170 C   0  0  0  0  0  0  0  0  0  0  0  0
   -2.0330   12.7520   23.5580 O   0  0  0  0  0  0  0  0  0  0  0  0
   -1.6000   11.6610   22.8520 C   0  0  0  0  0  0  0  0  0  0  0  0
   -1.2390   10.6150   23.3650 O   0  0  0  0  0  0  0  0  0  0  0  0
   -2.3730   13.5840   20.4400 H   0  0  0  0  0  0  0  0  0  0  0  0
   -0.7910   13.8320   21.2470 H   0  0  0  0  0  0  0  0  0  0  0  0
   -3.5480   13.7020   22.5400 H   0  0  0  0  0  0  0  0  0  0  0  0
   -2.1610   14.7420   22.9610 H   0  0  0  0  0  0  0  0  0  0  0  0
  1  9  1  0  0  0  0
  1  5  1  0  0  0  0
  2  3  1  0  0  0  0
  2  1  2  0  0  0  0
  3  4  1  0  0  0  0
  4  5  2  0  0  0  0
  4 28  1  0  0  0  0
  6  2  1  0  0  0  0
  7  8  2  0  0  0  0
  7 20  1  0  0  0  0
  8 17  1  0  0  0  0
  9  8  1  0  0  0  0
 10 11  1  0  0  0  0
 10  9  2  0  0  0  0
 11  7  1  0  0  0  0
 12 11  1  6  0  0  0
 12 16  1  0  0  0  0
 13 12  1  0  0  0  0
 14 13  2  0  0  0  0
 14 15  1  0  0  0  0
 15 16  1  0  0  0  0
 16 19  1  0  0  0  0
 18 14  1  0  0  0  0
 20 21  1  0  0  0  0
 20 22  1  0  0  0  0
 23 20  1  0  0  0  0
 24 26  1  0  0  0  0
 24 10  1  0  0  0  0
 25 24  1  0  0  0  0
 27 24  1  0  0  0  0
 28 30  1  0  0  0  0
 29 28  1  0  0  0  0
 31 28  1  0  0  0  0
 31 33  1  0  0  0  0
 31 34  1  0  0  0  0
 32 31  1  0  0  0  0
 34 38  1  0  0  0  0
 35 34  1  0  0  0  0
 35 36  1  0  0  0  0
 36 43  1  0  0  0  0
 36 37  1  0  0  0  0
 38 39  2  0  0  0  0
 38 37  1  0  0  0  0
 40 35  1  0  0  0  0
 41 35  1  0  0  0  0
 42 36  1  0  0  0  0
M  END
>  <MODEL>
31

>  <REMARK>
 VINA RESULT:    -6.144      3.555      8.118
 INTER + INTRA:          -8.153
 INTER:                  -7.989
 INTRA:                  -0.164
 UNBOUND:                -0.213
  Name = 
  6 active torsions:
  status: ('A' for Active; 'I' for Inactive)
    1  A    between atoms: C_1  and  C_2
    2  A    between atoms: C_4  and  C_5
    3  A    between atoms: C_8  and  C_9
    4  A    between atoms: C_9  and  C_10
    5  A    between atoms: C_10  and  N_11
    6  A    between atoms: C_18  and  C_19
                            x       y       z     vdW  Elec       q    Type
                         _______ _______ _______ _____ _____    ______ ____

>  <TORSDO>
F 6

$$$$
=
 OpenBabel07192307433D

 43 46  0  0  1  0  0  0  0  0999 V2000
    1.9230    8.0190   19.1840 C   0  0  0  0  0  0  0  0  0  0  0  0
    2.2060    8.7270   18.0350 C   0  0  0  0  0  0  0  0  0  0  0  0
    1.6680   10.3460   18.1960 S   0  0  0  0  0  0  0  0  0  0  0  0
    1.0790    9.9780   19.7680 C   0  0  0  0  0  0  0  0  0  0  0  0
    1.2610    8.7370   20.1660 N   0  0  0  0  0  0  0  0  0  0  0  0
    2.6780    8.3860   17.1260 H   0  0  0  0  0  0  0  0  0  0  0  0
    2.1540    4.6190   20.5220 C   0  0  0  0  0  0  0  0  0  0  0  0
    1.7480    5.9380   20.5890 C   0  0  0  0  0  0  0  0  0  0  0  0
    2.2070    6.6020   19.4390 C   0  0  0  0  0  0  0  0  0  0  0  0
    2.9440    5.6930   18.7000 C   0  0  0  0  0  0  0  0  0  0  0  0
    2.8470    4.4330   19.3190 N   0  0  0  0  0  0  0  0  0  0  0  0
    3.3590    3.2330   18.7900 C   0  0  2  0  0  3  0  0  0  0  0  0
    3.9760    3.1120   17.6310 N   0  0  0  0  0  0  0  0  0  0  0  0
    4.2640    1.7800   17.5600 C   0  0  0  0  0  0  0  0  0  0  0  0
    3.8600    1.0590   18.6060 N   0  0  0  0  0  2  0  0  0  0  0  0
    3.2840    2.0020   19.3700 N   0  0  0  0  0  0  0  0  0  0  0  0
    1.1700    6.3790   21.3930 H   0  0  0  0  0  0  0  0  0  0  0  0
    4.7830    1.3270   16.7240 H   0  0  0  0  0  0  0  0  0  0  0  0
    2.8740    1.7170   20.2500 H   0  0  0  0  0  0  0  0  0  0  0  0
    1.8870    3.5790   21.5510 C   0  0  0  0  0  0  0  0  0  0  0  0
    1.7170    4.0380   22.5320 H   0  0  0  0  0  0  0  0  0  0  0  0
    2.7420    2.9030   21.6600 H   0  0  0  0  0  0  0  0  0  0  0  0
    0.9870    3.0070   21.3060 H   0  0  0  0  0  0  0  0  0  0  0  0
    3.7470    5.9160   17.4590 C   0  0  0  0  0  0  0  0  0  0  0  0
    3.7860    5.0110   16.8450 H   0  0  0  0  0  0  0  0  0  0  0  0
    3.3300    6.7400   16.8720 H   0  0  0  0  0  0  0  0  0  0  0  0
    4.7870    6.1600   17.6900 H   0  0  0  0  0  0  0  0  0  0  0  0
    0.4130   11.0280   20.6000 C   0  0  0  0  0  0  0  0  0  0  0  0
    1.0050   11.1760   21.5110 H   0  0  0  0  0  0  0  0  0  0  0  0
   -0.5790   10.7000   20.9300 H   0  0  0  0  0  0  0  0  0  0  0  0
    0.3090   12.3440   19.8250 C   0  0  0  0  0  0  0  0  0  0  0  0
    0.6110   12.2190   18.7780 H   0  0  0  0  0  0  0  0  0  0  0  0
   -0.7330   12.6840   19.8260 H   0  0  0  0  0  0  0  0  0  0  0  0
    1.1170   13.4090   20.3970 N   0  0  0  0  0  0  0  0  0  0  0  0
    2.5240   13.5190   20.1670 C   0  0  0  0  0  0  0  0  0  0  0  0
    2.8700   14.7380   20.9850 C   0  0  0  0  0  0  0  0  0  0  0  0
    1.8640   14.7840   22.0050 O   0  0  0  0  0  0  0  0  0  0  0  0
    0.7970   14.0390   21.5780 C   0  0  0  0  0  0  0  0  0  0  0  0
   -0.2520   13.9360   22.1910 O   0  0  0  0  0  0  0  0  0  0  0  0
    2.7540   13.6320   19.1040 H   0  0  0  0  0  0  0  0  0  0  0  0
    3.0160   12.6270   20.5660 H   0  0  0  0  0  0  0  0  0  0  0  0
    2.8060   15.6630   20.4000 H   0  0  0  0  0  0  0  0  0  0  0  0
    3.8640   14.6680   21.4360 H   0  0  0  0  0  0  0  0  0  0  0  0
  1  9  1  0  0  0  0
  1  5  1  0  0  0  0
  2  3  1  0  0  0  0
  2  1  2  0  0  0  0
  3  4  1  0  0  0  0
  4  5  2  0  0  0  0
  4 28  1  0  0  0  0
  6  2  1  0  0  0  0
  7  8  2  0  0  0  0
  7 20  1  0  0  0  0
  8 17  1  0  0  0  0
  9  8  1  0  0  0  0
 10 11  1  0  0  0  0
 10  9  2  0  0  0  0
 11  7  1  0  0  0  0
 12 11  1  6  0  0  0
 12 16  1  0  0  0  0
 13 12  1  0  0  0  0
 14 13  2  0  0  0  0
 14 15  1  0  0  0  0
 15 16  1  0  0  0  0
 16 19  1  0  0  0  0
 18 14  1  0  0  0  0
 20 22  1  0  0  0  0
 20 21  1  0  0  0  0
 23 20  1  0  0  0  0
 24 27  1  0  0  0  0
 24 10  1  0  0  0  0
 25 24  1  0  0  0  0
 26 24  1  0  0  0  0
 28 30  1  0  0  0  0
 28 29  1  0  0  0  0
 31 33  1  0  0  0  0
 31 34  1  0  0  0  0
 31 28  1  0  0  0  0
 32 31  1  0  0  0  0
 34 38  1  0  0  0  0
 35 34  1  0  0  0  0
 35 41  1  0  0  0  0
 35 36  1  0  0  0  0
 36 43  1  0  0  0  0
 36 37  1  0  0  0  0
 38 37  1  0  0  0  0
 38 39  2  0  0  0  0
 40 35  1  0  0  0  0
 42 36  1  0  0  0  0
M  END
>  <MODEL>
32

>  <REMARK>
 VINA RESULT:    -5.857      4.026      8.441
 INTER + INTRA:          -7.782
 INTER:                  -7.570
 INTRA:                  -0.213
 UNBOUND:                -0.213
  Name = 
  6 active torsions:
  status: ('A' for Active; 'I' for Inactive)
    1  A    between atoms: C_1  and  C_2
    2  A    between atoms: C_4  and  C_5
    3  A    between atoms: C_8  and  C_9
    4  A    between atoms: C_9  and  C_10
    5  A    between atoms: C_10  and  N_11
    6  A    between atoms: C_18  and  C_19
                            x       y       z     vdW  Elec       q    Type
                         _______ _______ _______ _____ _____    ______ ____

>  <TORSDO>
F 6

$$$$
