=
 OpenBabel07192307433D

 42 43  0  0  0  0  0  0  0  0999 V2000
    3.8400    4.8880   19.4150 N   0  0  0  0  0  0  0  0  0  0  0  0
    4.1670    5.7540   18.3600 C   0  0  0  0  0  0  0  0  0  0  0  0
    3.3050    6.4550   17.8260 O   0  0  0  0  0  0  0  0  0  0  0  0
    2.4210    4.8040   19.7990 C   0  0  0  0  0  0  0  0  0  0  0  0
    1.6030    3.9920   18.7810 C   0  0  0  0  0  0  0  0  0  0  0  0
    0.5240    3.3110   19.6070 C   0  0  0  0  0  0  0  0  0  0  0  0
    1.2510    2.9560   20.8920 C   0  0  0  0  0  0  0  0  0  0  0  0
    2.1140    4.1810   21.1750 C   0  0  0  0  0  0  0  0  0  0  0  0
    2.0200    5.8280   19.8200 H   0  0  0  0  0  0  0  0  0  0  0  0
    2.2250    3.2320   18.2890 H   0  0  0  0  0  0  0  0  0  0  0  0
    1.1800    4.6250   17.9950 H   0  0  0  0  0  0  0  0  0  0  0  0
   -0.2950    4.0110   19.8130 H   0  0  0  0  0  0  0  0  0  0  0  0
    0.1080    2.4320   19.1070 H   0  0  0  0  0  0  0  0  0  0  0  0
    1.8860    2.0760   20.7370 H   0  0  0  0  0  0  0  0  0  0  0  0
    0.5620    2.7360   21.7130 H   0  0  0  0  0  0  0  0  0  0  0  0
    2.9890    3.9260   21.7760 H   0  0  0  0  0  0  0  0  0  0  0  0
    1.5290    4.8970   21.7650 H   0  0  0  0  0  0  0  0  0  0  0  0
    4.7710    3.8550   19.9080 C   0  0  0  0  0  0  0  0  0  0  0  0
    5.8000    4.1560   19.6920 H   0  0  0  0  0  0  0  0  0  0  0  0
    4.6790    3.7640   20.9940 H   0  0  0  0  0  0  0  0  0  0  0  0
    4.9780    1.3990   20.0150 N   0  0  0  0  0  0  0  0  0  0  0  0
    4.5320    2.4690   19.2920 C   0  0  0  0  0  0  0  0  0  0  0  0
    4.0050    2.3110   18.1960 O   0  0  0  0  0  0  0  0  0  0  0  0
    5.1810    1.5100   21.0020 H   0  0  0  0  0  0  0  0  0  0  0  0
    4.7330    0.4770   19.6750 H   0  0  0  0  0  0  0  0  0  0  0  0
    5.6200    5.7840   17.8830 C   0  0  0  0  0  0  0  0  0  0  0  0
    6.2220    5.2110   18.5980 H   0  0  0  0  0  0  0  0  0  0  0  0
    6.0120    6.8050   17.8840 H   0  0  0  0  0  0  0  0  0  0  0  0
    5.8180    5.2210   16.4930 C   0  0  0  0  0  0  0  0  0  0  0  0
    7.0230    5.4290   15.8070 C   0  0  0  0  0  0  0  0  0  0  0  0
    7.2020    4.9150   14.5200 C   0  0  0  0  0  0  0  0  0  0  0  0
    6.1820    4.1840   13.8940 C   0  0  0  0  0  0  0  0  0  0  0  0
    4.9730    3.9910   14.5760 C   0  0  0  0  0  0  0  0  0  0  0  0
    4.7930    4.5030   15.8640 C   0  0  0  0  0  0  0  0  0  0  0  0
    7.8300    5.9930   16.2690 H   0  0  0  0  0  0  0  0  0  0  0  0
    8.1460    5.0900   14.0040 H   0  0  0  0  0  0  0  0  0  0  0  0
    4.1570    3.4440   14.1040 H   0  0  0  0  0  0  0  0  0  0  0  0
    3.8390    4.3530   16.3670 H   0  0  0  0  0  0  0  0  0  0  0  0
    6.3690    3.6530   12.4950 C   0  0  0  0  0  0  0  0  0  0  0  0
    6.8460    2.3770   12.4670 F   0  0  0  0  0  0  0  0  0  0  0  0
    7.2510    4.3950   11.7700 F   0  0  0  0  0  0  0  0  0  0  0  0
    5.2150    3.6310   11.7700 F   0  0  0  0  0  0  0  0  0  0  0  0
  1  4  1  0  0  0  0
  1 18  1  0  0  0  0
  2  1  1  0  0  0  0
  3  2  2  0  0  0  0
  4  9  1  0  0  0  0
  4  8  1  0  0  0  0
  5  6  1  0  0  0  0
  5  4  1  0  0  0  0
  6 12  1  0  0  0  0
  6  7  1  0  0  0  0
  7  8  1  0  0  0  0
  7 15  1  0  0  0  0
  8 17  1  0  0  0  0
  8 16  1  0  0  0  0
 10  5  1  0  0  0  0
 11  5  1  0  0  0  0
 13  6  1  0  0  0  0
 14  7  1  0  0  0  0
 18 20  1  0  0  0  0
 19 18  1  0  0  0  0
 21 24  1  0  0  0  0
 22 18  1  0  0  0  0
 22 21  1  0  0  0  0
 23 22  2  0  0  0  0
 25 21  1  0  0  0  0
 26 28  1  0  0  0  0
 26  2  1  0  0  0  0
 26 27  1  0  0  0  0
 29 26  1  0  0  0  0
 30 35  1  0  0  0  0
 30 29  2  0  0  0  0
 31 30  1  0  0  0  0
 32 31  2  0  0  0  0
 32 33  1  0  0  0  0
 33 34  2  0  0  0  0
 34 38  1  0  0  0  0
 34 29  1  0  0  0  0
 36 31  1  0  0  0  0
 37 33  1  0  0  0  0
 39 32  1  0  0  0  0
 40 39  1  0  0  0  0
 41 39  1  0  0  0  0
 42 39  1  0  0  0  0
M  END
>  <MODEL>
1

>  <REMARK>
 VINA RESULT:    -7.068      0.000      0.000
 INTER + INTRA:         -10.406
 INTER:                 -10.228
 INTRA:                  -0.177
 UNBOUND:                -0.858
  Name = 
  6 active torsions:
  status: ('A' for Active; 'I' for Inactive)
    1  A    between atoms: C_2  and  C_4
    2  A    between atoms: C_4  and  N_5
    3  A    between atoms: N_5  and  C_19
    4  A    between atoms: C_6  and  C_8
    5  A    between atoms: C_8  and  C_9
    6  A    between atoms: C_12  and  C_13
                            x       y       z     vdW  Elec       q    Type
                         _______ _______ _______ _____ _____    ______ ____

>  <TORSDO>
F 6

$$$$
=
 OpenBabel07192307433D

 42 43  0  0  0  0  0  0  0  0999 V2000
    4.6230    5.5430   17.5900 N   0  0  0  0  0  0  0  0  0  0  0  0
    3.3840    5.3720   18.2240 C   0  0  0  0  0  0  0  0  0  0  0  0
    2.5110    4.6560   17.7280 O   0  0  0  0  0  0  0  0  0  0  0  0
    4.8020    4.8930   16.2800 C   0  0  0  0  0  0  0  0  0  0  0  0
    5.3600    5.8700   15.2320 C   0  0  0  0  0  0  0  0  0  0  0  0
    6.2210    5.0090   14.3210 C   0  0  0  0  0  0  0  0  0  0  0  0
    6.8610    4.0260   15.2850 C   0  0  0  0  0  0  0  0  0  0  0  0
    5.7310    3.6630   16.2420 C   0  0  0  0  0  0  0  0  0  0  0  0
    3.8140    4.5520   15.9390 H   0  0  0  0  0  0  0  0  0  0  0  0
    5.9810    6.6440   15.7010 H   0  0  0  0  0  0  0  0  0  0  0  0
    4.5640    6.3800   14.6810 H   0  0  0  0  0  0  0  0  0  0  0  0
    5.5920    4.4780   13.5960 H   0  0  0  0  0  0  0  0  0  0  0  0
    6.9600    5.5960   13.7700 H   0  0  0  0  0  0  0  0  0  0  0  0
    7.6770    4.5120   15.8320 H   0  0  0  0  0  0  0  0  0  0  0  0
    7.2700    3.1500   14.7740 H   0  0  0  0  0  0  0  0  0  0  0  0
    6.1140    3.3390   17.2110 H   0  0  0  0  0  0  0  0  0  0  0  0
    5.1750    2.8130   15.8270 H   0  0  0  0  0  0  0  0  0  0  0  0
    5.5890    6.5780   18.0060 C   0  0  0  0  0  0  0  0  0  0  0  0
    5.8620    7.1910   17.1430 H   0  0  0  0  0  0  0  0  0  0  0  0
    5.1260    7.2400   18.7430 H   0  0  0  0  0  0  0  0  0  0  0  0
    6.7130    5.1290   19.6570 N   0  0  0  0  0  0  0  0  0  0  0  0
    6.8740    6.0070   18.6220 C   0  0  0  0  0  0  0  0  0  0  0  0
    7.9940    6.3350   18.2450 O   0  0  0  0  0  0  0  0  0  0  0  0
    5.8150    4.6810   19.7990 H   0  0  0  0  0  0  0  0  0  0  0  0
    7.5440    4.6640   20.0010 H   0  0  0  0  0  0  0  0  0  0  0  0
    3.1440    6.1180   19.5390 C   0  0  0  0  0  0  0  0  0  0  0  0
    4.1210    6.3600   19.9720 H   0  0  0  0  0  0  0  0  0  0  0  0
    2.6250    5.4810   20.2610 H   0  0  0  0  0  0  0  0  0  0  0  0
    2.3330    7.3850   19.3830 C   0  0  0  0  0  0  0  0  0  0  0  0
    1.6310    7.9180   20.4730 C   0  0  0  0  0  0  0  0  0  0  0  0
    0.8760    9.0840   20.3260 C   0  0  0  0  0  0  0  0  0  0  0  0
    0.8080    9.7410   19.0890 C   0  0  0  0  0  0  0  0  0  0  0  0
    1.4980    9.1960   17.9970 C   0  0  0  0  0  0  0  0  0  0  0  0
    2.2550    8.0310   18.1430 C   0  0  0  0  0  0  0  0  0  0  0  0
    1.6660    7.4280   21.4440 H   0  0  0  0  0  0  0  0  0  0  0  0
    0.3360    9.4800   21.1860 H   0  0  0  0  0  0  0  0  0  0  0  0
    1.4450    9.6760   17.0190 H   0  0  0  0  0  0  0  0  0  0  0  0
    2.7700    7.6200   17.2760 H   0  0  0  0  0  0  0  0  0  0  0  0
   -0.0290   10.9840   18.9270 C   0  0  0  0  0  0  0  0  0  0  0  0
    0.6920   12.0620   18.5070 F   0  0  0  0  0  0  0  0  0  0  0  0
   -0.6250   11.3660   20.0900 F   0  0  0  0  0  0  0  0  0  0  0  0
   -1.0370   10.8400   18.0210 F   0  0  0  0  0  0  0  0  0  0  0  0
  1 18  1  0  0  0  0
  1  2  1  0  0  0  0
  2 26  1  0  0  0  0
  3  2  2  0  0  0  0
  4  1  1  0  0  0  0
  5 10  1  0  0  0  0
  5  4  1  0  0  0  0
  6  5  1  0  0  0  0
  6  7  1  0  0  0  0
  7 14  1  0  0  0  0
  7  8  1  0  0  0  0
  8  4  1  0  0  0  0
  8 16  1  0  0  0  0
  9  4  1  0  0  0  0
 11  5  1  0  0  0  0
 12  6  1  0  0  0  0
 13  6  1  0  0  0  0
 15  7  1  0  0  0  0
 17  8  1  0  0  0  0
 18 22  1  0  0  0  0
 18 20  1  0  0  0  0
 19 18  1  0  0  0  0
 21 24  1  0  0  0  0
 21 25  1  0  0  0  0
 22 21  1  0  0  0  0
 23 22  2  0  0  0  0
 26 27  1  0  0  0  0
 26 28  1  0  0  0  0
 29 26  1  0  0  0  0
 29 30  1  0  0  0  0
 30 35  1  0  0  0  0
 31 30  2  0  0  0  0
 31 36  1  0  0  0  0
 32 31  1  0  0  0  0
 33 34  1  0  0  0  0
 33 32  2  0  0  0  0
 34 29  2  0  0  0  0
 37 33  1  0  0  0  0
 38 34  1  0  0  0  0
 39 32  1  0  0  0  0
 39 41  1  0  0  0  0
 40 39  1  0  0  0  0
 42 39  1  0  0  0  0
M  END
>  <MODEL>
2

>  <REMARK>
 VINA RESULT:    -6.901      5.194      7.401
 INTER + INTRA:         -10.180
 INTER:                  -9.245
 INTRA:                  -0.935
 UNBOUND:                -0.858
  Name = 
  6 active torsions:
  status: ('A' for Active; 'I' for Inactive)
    1  A    between atoms: C_2  and  C_4
    2  A    between atoms: C_4  and  N_5
    3  A    between atoms: N_5  and  C_19
    4  A    between atoms: C_6  and  C_8
    5  A    between atoms: C_8  and  C_9
    6  A    between atoms: C_12  and  C_13
                            x       y       z     vdW  Elec       q    Type
                         _______ _______ _______ _____ _____    ______ ____

>  <TORSDO>
F 6

$$$$
=
 OpenBabel07192307433D

 42 43  0  0  0  0  0  0  0  0999 V2000
    3.9950    4.1520   18.5280 N   0  0  0  0  0  0  0  0  0  0  0  0
    4.8280    4.1370   17.4000 C   0  0  0  0  0  0  0  0  0  0  0  0
    4.3530    4.0990   16.2630 O   0  0  0  0  0  0  0  0  0  0  0  0
    2.5440    4.0480   18.2930 C   0  0  0  0  0  0  0  0  0  0  0  0
    2.1010    2.5860   18.1180 C   0  0  0  0  0  0  0  0  0  0  0  0
    0.6960    2.5370   18.6970 C   0  0  0  0  0  0  0  0  0  0  0  0
    0.7850    3.4710   19.8910 C   0  0  0  0  0  0  0  0  0  0  0  0
    1.6240    4.6370   19.3810 C   0  0  0  0  0  0  0  0  0  0  0  0
    2.3180    4.5880   17.3630 H   0  0  0  0  0  0  0  0  0  0  0  0
    2.7530    1.9040   18.6780 H   0  0  0  0  0  0  0  0  0  0  0  0
    2.1230    2.2720   17.0700 H   0  0  0  0  0  0  0  0  0  0  0  0
   -0.0290    2.9190   17.9670 H   0  0  0  0  0  0  0  0  0  0  0  0
    0.3970    1.5240   18.9810 H   0  0  0  0  0  0  0  0  0  0  0  0
    1.2980    2.9730   20.7220 H   0  0  0  0  0  0  0  0  0  0  0  0
   -0.2000    3.7910   20.2430 H   0  0  0  0  0  0  0  0  0  0  0  0
    2.1380    5.1490   20.1970 H   0  0  0  0  0  0  0  0  0  0  0  0
    0.9590    5.3770   18.9190 H   0  0  0  0  0  0  0  0  0  0  0  0
    4.5090    3.9390   19.8950 C   0  0  0  0  0  0  0  0  0  0  0  0
    5.5770    4.1690   19.9240 H   0  0  0  0  0  0  0  0  0  0  0  0
    4.0090    4.6230   20.5870 H   0  0  0  0  0  0  0  0  0  0  0  0
    5.0440    1.5320   19.8000 N   0  0  0  0  0  0  0  0  0  0  0  0
    4.3070    2.5080   20.4110 C   0  0  0  0  0  0  0  0  0  0  0  0
    3.5060    2.2280   21.2970 O   0  0  0  0  0  0  0  0  0  0  0  0
    5.8610    1.7870   19.2580 H   0  0  0  0  0  0  0  0  0  0  0  0
    5.0010    0.6030   20.2000 H   0  0  0  0  0  0  0  0  0  0  0  0
    6.3410    4.1480   17.6270 C   0  0  0  0  0  0  0  0  0  0  0  0
    6.8140    3.6440   16.7770 H   0  0  0  0  0  0  0  0  0  0  0  0
    6.6070    3.5780   18.5220 H   0  0  0  0  0  0  0  0  0  0  0  0
    6.9250    5.5350   17.7810 C   0  0  0  0  0  0  0  0  0  0  0  0
    7.8180    5.8180   18.8240 C   0  0  0  0  0  0  0  0  0  0  0  0
    8.3510    7.1010   18.9700 C   0  0  0  0  0  0  0  0  0  0  0  0
    8.0040    8.1250   18.0760 C   0  0  0  0  0  0  0  0  0  0  0  0
    7.0980    7.8430   17.0440 C   0  0  0  0  0  0  0  0  0  0  0  0
    6.5660    6.5600   16.8960 C   0  0  0  0  0  0  0  0  0  0  0  0
    8.1040    5.0420   19.5310 H   0  0  0  0  0  0  0  0  0  0  0  0
    9.0420    7.3010   19.7880 H   0  0  0  0  0  0  0  0  0  0  0  0
    6.7960    8.6270   16.3490 H   0  0  0  0  0  0  0  0  0  0  0  0
    5.8530    6.3690   16.0960 H   0  0  0  0  0  0  0  0  0  0  0  0
    8.5610    9.5160   18.2520 C   0  0  0  0  0  0  0  0  0  0  0  0
    9.5710    9.8000   17.3820 F   0  0  0  0  0  0  0  0  0  0  0  0
    9.0740    9.7170   19.4970 F   0  0  0  0  0  0  0  0  0  0  0  0
    7.6300   10.4940   18.0690 F   0  0  0  0  0  0  0  0  0  0  0  0
  1 18  1  0  0  0  0
  2 26  1  0  0  0  0
  2  1  1  0  0  0  0
  3  2  2  0  0  0  0
  4  1  1  0  0  0  0
  4  8  1  0  0  0  0
  5  4  1  0  0  0  0
  5 10  1  0  0  0  0
  5  6  1  0  0  0  0
  6 13  1  0  0  0  0
  6  7  1  0  0  0  0
  7 15  1  0  0  0  0
  7 14  1  0  0  0  0
  8  7  1  0  0  0  0
  8 16  1  0  0  0  0
  9  4  1  0  0  0  0
 11  5  1  0  0  0  0
 12  6  1  0  0  0  0
 17  8  1  0  0  0  0
 18 19  1  0  0  0  0
 18 22  1  0  0  0  0
 18 20  1  0  0  0  0
 21 25  1  0  0  0  0
 21 22  1  0  0  0  0
 22 23  2  0  0  0  0
 24 21  1  0  0  0  0
 26 29  1  0  0  0  0
 26 28  1  0  0  0  0
 27 26  1  0  0  0  0
 29 30  1  0  0  0  0
 30 31  2  0  0  0  0
 30 35  1  0  0  0  0
 31 36  1  0  0  0  0
 32 39  1  0  0  0  0
 32 31  1  0  0  0  0
 33 32  2  0  0  0  0
 34 33  1  0  0  0  0
 34 29  2  0  0  0  0
 37 33  1  0  0  0  0
 38 34  1  0  0  0  0
 39 41  1  0  0  0  0
 40 39  1  0  0  0  0
 42 39  1  0  0  0  0
M  END
>  <MODEL>
3

>  <REMARK>
 VINA RESULT:    -6.692      3.833      4.630
 INTER + INTRA:          -9.897
 INTER:                  -9.396
 INTRA:                  -0.501
 UNBOUND:                -0.858
  Name = 
  6 active torsions:
  status: ('A' for Active; 'I' for Inactive)
    1  A    between atoms: C_2  and  C_4
    2  A    between atoms: C_4  and  N_5
    3  A    between atoms: N_5  and  C_19
    4  A    between atoms: C_6  and  C_8
    5  A    between atoms: C_8  and  C_9
    6  A    between atoms: C_12  and  C_13
                            x       y       z     vdW  Elec       q    Type
                         _______ _______ _______ _____ _____    ______ ____

>  <TORSDO>
F 6

$$$$
=
 OpenBabel07192307433D

 42 43  0  0  0  0  0  0  0  0999 V2000
    4.0850    4.9590   18.7670 N   0  0  0  0  0  0  0  0  0  0  0  0
    3.0530    5.6840   18.1520 C   0  0  0  0  0  0  0  0  0  0  0  0
    1.9850    5.1410   17.8590 O   0  0  0  0  0  0  0  0  0  0  0  0
    3.8610    3.5180   18.9770 C   0  0  0  0  0  0  0  0  0  0  0  0
    2.6040    3.2560   19.8250 C   0  0  0  0  0  0  0  0  0  0  0  0
    2.0510    1.9420   19.2970 C   0  0  0  0  0  0  0  0  0  0  0  0
    2.3090    2.0370   17.8040 C   0  0  0  0  0  0  0  0  0  0  0  0
    3.7000    2.6530   17.7110 C   0  0  0  0  0  0  0  0  0  0  0  0
    4.7290    3.1220   19.5210 H   0  0  0  0  0  0  0  0  0  0  0  0
    1.8600    4.0500   19.6870 H   0  0  0  0  0  0  0  0  0  0  0  0
    2.8340    3.2050   20.8930 H   0  0  0  0  0  0  0  0  0  0  0  0
    2.6040    1.0970   19.7270 H   0  0  0  0  0  0  0  0  0  0  0  0
    0.9910    1.8130   19.5310 H   0  0  0  0  0  0  0  0  0  0  0  0
    1.5710    2.6990   17.3350 H   0  0  0  0  0  0  0  0  0  0  0  0
    2.2530    1.0630   17.3090 H   0  0  0  0  0  0  0  0  0  0  0  0
    3.8430    3.1810   16.7660 H   0  0  0  0  0  0  0  0  0  0  0  0
    4.4460    1.8490   17.7350 H   0  0  0  0  0  0  0  0  0  0  0  0
    5.4540    5.4910   18.9000 C   0  0  0  0  0  0  0  0  0  0  0  0
    5.4230    6.5840   18.9110 H   0  0  0  0  0  0  0  0  0  0  0  0
    5.8840    5.1680   19.8530 H   0  0  0  0  0  0  0  0  0  0  0  0
    7.5120    4.3480   18.1590 N   0  0  0  0  0  0  0  0  0  0  0  0
    6.3990    5.0440   17.7770 C   0  0  0  0  0  0  0  0  0  0  0  0
    6.2040    5.3160   16.5970 O   0  0  0  0  0  0  0  0  0  0  0  0
    7.5450    3.9210   19.0770 H   0  0  0  0  0  0  0  0  0  0  0  0
    8.0860    3.9560   17.4240 H   0  0  0  0  0  0  0  0  0  0  0  0
    3.3030    7.1600   17.8390 C   0  0  0  0  0  0  0  0  0  0  0  0
    3.2460    7.2900   16.7530 H   0  0  0  0  0  0  0  0  0  0  0  0
    4.3100    7.4600   18.1420 H   0  0  0  0  0  0  0  0  0  0  0  0
    2.3270    8.1010   18.5110 C   0  0  0  0  0  0  0  0  0  0  0  0
    1.7910    9.1890   17.8090 C   0  0  0  0  0  0  0  0  0  0  0  0
    0.8960   10.0620   18.4320 C   0  0  0  0  0  0  0  0  0  0  0  0
    0.5190    9.8640   19.7690 C   0  0  0  0  0  0  0  0  0  0  0  0
    1.0700    8.7850   20.4730 C   0  0  0  0  0  0  0  0  0  0  0  0
    1.9630    7.9110   19.8500 C   0  0  0  0  0  0  0  0  0  0  0  0
    2.0670    9.3650   16.7710 H   0  0  0  0  0  0  0  0  0  0  0  0
    0.4920   10.9020   17.8690 H   0  0  0  0  0  0  0  0  0  0  0  0
    0.8090    8.6220   21.5200 H   0  0  0  0  0  0  0  0  0  0  0  0
    2.3890    7.0890   20.4230 H   0  0  0  0  0  0  0  0  0  0  0  0
   -0.4270   10.8240   20.4460 C   0  0  0  0  0  0  0  0  0  0  0  0
   -1.5620   11.0520   19.7260 F   0  0  0  0  0  0  0  0  0  0  0  0
    0.1320   12.0470   20.6560 F   0  0  0  0  0  0  0  0  0  0  0  0
   -0.8470   10.3910   21.6690 F   0  0  0  0  0  0  0  0  0  0  0  0
  1 18  1  0  0  0  0
  1  4  1  0  0  0  0
  2  1  1  0  0  0  0
  3  2  2  0  0  0  0
  4  9  1  0  0  0  0
  4  5  1  0  0  0  0
  5 11  1  0  0  0  0
  6 13  1  0  0  0  0
  6 12  1  0  0  0  0
  6  5  1  0  0  0  0
  7  6  1  0  0  0  0
  8 17  1  0  0  0  0
  8  7  1  0  0  0  0
  8  4  1  0  0  0  0
 10  5  1  0  0  0  0
 14  7  1  0  0  0  0
 15  7  1  0  0  0  0
 16  8  1  0  0  0  0
 18 19  1  0  0  0  0
 18 20  1  0  0  0  0
 21 24  1  0  0  0  0
 22 21  1  0  0  0  0
 22 18  1  0  0  0  0
 23 22  2  0  0  0  0
 25 21  1  0  0  0  0
 26 28  1  0  0  0  0
 26  2  1  0  0  0  0
 26 29  1  0  0  0  0
 27 26  1  0  0  0  0
 29 34  1  0  0  0  0
 30 31  1  0  0  0  0
 30 29  2  0  0  0  0
 31 32  2  0  0  0  0
 32 39  1  0  0  0  0
 32 33  1  0  0  0  0
 33 37  1  0  0  0  0
 34 38  1  0  0  0  0
 34 33  2  0  0  0  0
 35 30  1  0  0  0  0
 36 31  1  0  0  0  0
 39 41  1  0  0  0  0
 39 42  1  0  0  0  0
 40 39  1  0  0  0  0
M  END
>  <MODEL>
4

>  <REMARK>
 VINA RESULT:    -6.666      5.642      7.196
 INTER + INTRA:          -9.862
 INTER:                  -9.901
 INTRA:                   0.038
 UNBOUND:                -0.858
  Name = 
  6 active torsions:
  status: ('A' for Active; 'I' for Inactive)
    1  A    between atoms: C_2  and  C_4
    2  A    between atoms: C_4  and  N_5
    3  A    between atoms: N_5  and  C_19
    4  A    between atoms: C_6  and  C_8
    5  A    between atoms: C_8  and  C_9
    6  A    between atoms: C_12  and  C_13
                            x       y       z     vdW  Elec       q    Type
                         _______ _______ _______ _____ _____    ______ ____

>  <TORSDO>
F 6

$$$$
=
 OpenBabel07192307433D

 42 43  0  0  0  0  0  0  0  0999 V2000
    4.0720    4.8940   18.7260 N   0  0  0  0  0  0  0  0  0  0  0  0
    3.0390    5.6350   18.1340 C   0  0  0  0  0  0  0  0  0  0  0  0
    1.9520    5.1130   17.8760 O   0  0  0  0  0  0  0  0  0  0  0  0
    3.8240    3.4590   18.9530 C   0  0  0  0  0  0  0  0  0  0  0  0
    2.7570    3.2320   20.0370 C   0  0  0  0  0  0  0  0  0  0  0  0
    2.0430    1.9580   19.6140 C   0  0  0  0  0  0  0  0  0  0  0  0
    1.9930    2.0810   18.1010 C   0  0  0  0  0  0  0  0  0  0  0  0
    3.3650    2.6360   17.7330 C   0  0  0  0  0  0  0  0  0  0  0  0
    4.7660    3.0090   19.3000 H   0  0  0  0  0  0  0  0  0  0  0  0
    2.0410    4.0630   20.0690 H   0  0  0  0  0  0  0  0  0  0  0  0
    3.1980    3.1420   21.0350 H   0  0  0  0  0  0  0  0  0  0  0  0
    2.6300    1.0790   19.9060 H   0  0  0  0  0  0  0  0  0  0  0  0
    1.0480    1.8720   20.0590 H   0  0  0  0  0  0  0  0  0  0  0  0
    1.2090    2.7880   17.8050 H   0  0  0  0  0  0  0  0  0  0  0  0
    1.7880    1.1240   17.6120 H   0  0  0  0  0  0  0  0  0  0  0  0
    3.3370    3.1820   16.7880 H   0  0  0  0  0  0  0  0  0  0  0  0
    4.0590    1.7990   17.5900 H   0  0  0  0  0  0  0  0  0  0  0  0
    5.4560    5.3980   18.8160 C   0  0  0  0  0  0  0  0  0  0  0  0
    5.4530    6.4890   18.7470 H   0  0  0  0  0  0  0  0  0  0  0  0
    5.8810    5.1330   19.7890 H   0  0  0  0  0  0  0  0  0  0  0  0
    7.6070    4.3970   18.1390 N   0  0  0  0  0  0  0  0  0  0  0  0
    6.3830    4.8450   17.7260 C   0  0  0  0  0  0  0  0  0  0  0  0
    6.0770    4.8300   16.5380 O   0  0  0  0  0  0  0  0  0  0  0  0
    7.7590    4.1850   19.1180 H   0  0  0  0  0  0  0  0  0  0  0  0
    8.1850    3.9320   17.4500 H   0  0  0  0  0  0  0  0  0  0  0  0
    3.3110    7.1040   17.8030 C   0  0  0  0  0  0  0  0  0  0  0  0
    3.2320    7.2250   16.7170 H   0  0  0  0  0  0  0  0  0  0  0  0
    4.3300    7.3860   18.0810 H   0  0  0  0  0  0  0  0  0  0  0  0
    2.3680    8.0690   18.4870 C   0  0  0  0  0  0  0  0  0  0  0  0
    1.9720    7.8550   19.8150 C   0  0  0  0  0  0  0  0  0  0  0  0
    1.0950    8.7430   20.4430 C   0  0  0  0  0  0  0  0  0  0  0  0
    0.5970    9.8610   19.7580 C   0  0  0  0  0  0  0  0  0  0  0  0
    0.9820   10.0630   18.4260 C   0  0  0  0  0  0  0  0  0  0  0  0
    1.8600    9.1770   17.7970 C   0  0  0  0  0  0  0  0  0  0  0  0
    2.3430    6.9950   20.3690 H   0  0  0  0  0  0  0  0  0  0  0  0
    0.7990    8.5570   21.4750 H   0  0  0  0  0  0  0  0  0  0  0  0
    0.5920   10.9130   17.8650 H   0  0  0  0  0  0  0  0  0  0  0  0
    2.1320    9.3470   16.7570 H   0  0  0  0  0  0  0  0  0  0  0  0
   -0.3700   10.8020   20.4320 C   0  0  0  0  0  0  0  0  0  0  0  0
   -0.7790   10.3610   21.6550 F   0  0  0  0  0  0  0  0  0  0  0  0
   -1.5060   10.9890   19.7050 F   0  0  0  0  0  0  0  0  0  0  0  0
    0.1490   12.0450   20.6420 F   0  0  0  0  0  0  0  0  0  0  0  0
  1 18  1  0  0  0  0
  1  4  1  0  0  0  0
  2  1  1  0  0  0  0
  3  2  2  0  0  0  0
  4  9  1  0  0  0  0
  4  5  1  0  0  0  0
  5 10  1  0  0  0  0
  5 11  1  0  0  0  0
  6 12  1  0  0  0  0
  6  5  1  0  0  0  0
  6 13  1  0  0  0  0
  7  6  1  0  0  0  0
  8  7  1  0  0  0  0
  8  4  1  0  0  0  0
 14  7  1  0  0  0  0
 15  7  1  0  0  0  0
 16  8  1  0  0  0  0
 17  8  1  0  0  0  0
 18 20  1  0  0  0  0
 19 18  1  0  0  0  0
 21 24  1  0  0  0  0
 22 21  1  0  0  0  0
 22 18  1  0  0  0  0
 23 22  2  0  0  0  0
 25 21  1  0  0  0  0
 26 28  1  0  0  0  0
 26  2  1  0  0  0  0
 26 29  1  0  0  0  0
 27 26  1  0  0  0  0
 29 30  1  0  0  0  0
 30 35  1  0  0  0  0
 30 31  2  0  0  0  0
 31 36  1  0  0  0  0
 32 39  1  0  0  0  0
 32 31  1  0  0  0  0
 33 32  2  0  0  0  0
 34 33  1  0  0  0  0
 34 29  2  0  0  0  0
 37 33  1  0  0  0  0
 38 34  1  0  0  0  0
 39 42  1  0  0  0  0
 39 40  1  0  0  0  0
 41 39  1  0  0  0  0
M  END
>  <MODEL>
5

>  <REMARK>
 VINA RESULT:    -6.650      5.618      7.163
 INTER + INTRA:          -9.841
 INTER:                  -9.926
 INTRA:                   0.085
 UNBOUND:                -0.858
  Name = 
  6 active torsions:
  status: ('A' for Active; 'I' for Inactive)
    1  A    between atoms: C_2  and  C_4
    2  A    between atoms: C_4  and  N_5
    3  A    between atoms: N_5  and  C_19
    4  A    between atoms: C_6  and  C_8
    5  A    between atoms: C_8  and  C_9
    6  A    between atoms: C_12  and  C_13
                            x       y       z     vdW  Elec       q    Type
                         _______ _______ _______ _____ _____    ______ ____

>  <TORSDO>
F 6

$$$$
=
 OpenBabel07192307433D

 42 43  0  0  0  0  0  0  0  0999 V2000
    0.4080    9.5790   19.6690 N   0  0  0  0  0  0  0  0  0  0  0  0
    1.5720    8.8600   19.3600 C   0  0  0  0  0  0  0  0  0  0  0  0
    2.1680    9.0450   18.2970 O   0  0  0  0  0  0  0  0  0  0  0  0
   -0.1020   10.5040   18.6420 C   0  0  0  0  0  0  0  0  0  0  0  0
   -1.6330   10.4260   18.5170 C   0  0  0  0  0  0  0  0  0  0  0  0
   -2.0610   11.8360   18.1420 C   0  0  0  0  0  0  0  0  0  0  0  0
   -1.1170   12.7070   18.9520 C   0  0  0  0  0  0  0  0  0  0  0  0
    0.2280   11.9980   18.8330 C   0  0  0  0  0  0  0  0  0  0  0  0
    0.3360   10.2060   17.6780 H   0  0  0  0  0  0  0  0  0  0  0  0
   -2.0940   10.1420   19.4710 H   0  0  0  0  0  0  0  0  0  0  0  0
   -1.9470    9.6900   17.7700 H   0  0  0  0  0  0  0  0  0  0  0  0
   -1.9110   12.0060   17.0690 H   0  0  0  0  0  0  0  0  0  0  0  0
   -3.1120   12.0280   18.3770 H   0  0  0  0  0  0  0  0  0  0  0  0
   -1.4370   12.7360   20.0010 H   0  0  0  0  0  0  0  0  0  0  0  0
   -1.0780   13.7350   18.5810 H   0  0  0  0  0  0  0  0  0  0  0  0
    0.8780   12.2260   19.6800 H   0  0  0  0  0  0  0  0  0  0  0  0
    0.7430   12.3640   17.9360 H   0  0  0  0  0  0  0  0  0  0  0  0
   -0.4720    9.2140   20.7950 C   0  0  0  0  0  0  0  0  0  0  0  0
   -1.5170    9.3340   20.4960 H   0  0  0  0  0  0  0  0  0  0  0  0
   -0.3250    8.1610   21.0520 H   0  0  0  0  0  0  0  0  0  0  0  0
   -0.3490    9.3950   23.2530 N   0  0  0  0  0  0  0  0  0  0  0  0
   -0.2310   10.0500   22.0590 C   0  0  0  0  0  0  0  0  0  0  0  0
    0.0200   11.2500   22.0240 O   0  0  0  0  0  0  0  0  0  0  0  0
   -0.3110    8.3820   23.2740 H   0  0  0  0  0  0  0  0  0  0  0  0
   -0.0880    9.9040   24.0870 H   0  0  0  0  0  0  0  0  0  0  0  0
    2.0630    7.8240   20.3740 C   0  0  0  0  0  0  0  0  0  0  0  0
    1.4780    7.9470   21.2920 H   0  0  0  0  0  0  0  0  0  0  0  0
    3.1100    8.0010   20.6380 H   0  0  0  0  0  0  0  0  0  0  0  0
    1.9500    6.3950   19.8910 C   0  0  0  0  0  0  0  0  0  0  0  0
    1.4450    5.3980   20.7370 C   0  0  0  0  0  0  0  0  0  0  0  0
    1.3480    4.0770   20.2930 C   0  0  0  0  0  0  0  0  0  0  0  0
    1.7530    3.7270   18.9960 C   0  0  0  0  0  0  0  0  0  0  0  0
    2.2730    4.7230   18.1590 C   0  0  0  0  0  0  0  0  0  0  0  0
    2.3680    6.0450   18.6010 C   0  0  0  0  0  0  0  0  0  0  0  0
    1.1240    5.6420   21.7470 H   0  0  0  0  0  0  0  0  0  0  0  0
    0.9540    3.3160   20.9670 H   0  0  0  0  0  0  0  0  0  0  0  0
    2.6140    4.4730   17.1540 H   0  0  0  0  0  0  0  0  0  0  0  0
    2.7900    6.7980   17.9370 H   0  0  0  0  0  0  0  0  0  0  0  0
    1.6710    2.2950   18.5300 C   0  0  0  0  0  0  0  0  0  0  0  0
    2.3410    1.4300   19.3430 F   0  0  0  0  0  0  0  0  0  0  0  0
    2.1980    2.1210   17.2870 F   0  0  0  0  0  0  0  0  0  0  0  0
    0.3940    1.8230   18.4640 F   0  0  0  0  0  0  0  0  0  0  0  0
  1 18  1  0  0  0  0
  2  1  1  0  0  0  0
  2 26  1  0  0  0  0
  3  2  2  0  0  0  0
  4  8  1  0  0  0  0
  4  1  1  0  0  0  0
  5  4  1  0  0  0  0
  5 10  1  0  0  0  0
  6 13  1  0  0  0  0
  6  5  1  0  0  0  0
  6  7  1  0  0  0  0
  7 14  1  0  0  0  0
  8  7  1  0  0  0  0
  8 16  1  0  0  0  0
  9  4  1  0  0  0  0
 11  5  1  0  0  0  0
 12  6  1  0  0  0  0
 15  7  1  0  0  0  0
 17  8  1  0  0  0  0
 18 20  1  0  0  0  0
 18 22  1  0  0  0  0
 19 18  1  0  0  0  0
 21 24  1  0  0  0  0
 21 25  1  0  0  0  0
 22 21  1  0  0  0  0
 23 22  2  0  0  0  0
 26 28  1  0  0  0  0
 26 27  1  0  0  0  0
 29 26  1  0  0  0  0
 29 30  1  0  0  0  0
 30 35  1  0  0  0  0
 31 30  2  0  0  0  0
 31 36  1  0  0  0  0
 32 31  1  0  0  0  0
 33 34  1  0  0  0  0
 33 32  2  0  0  0  0
 34 29  2  0  0  0  0
 37 33  1  0  0  0  0
 38 34  1  0  0  0  0
 39 32  1  0  0  0  0
 39 40  1  0  0  0  0
 41 39  1  0  0  0  0
 42 39  1  0  0  0  0
M  END
>  <MODEL>
6

>  <REMARK>
 VINA RESULT:    -6.640      5.631      7.471
 INTER + INTRA:          -9.828
 INTER:                  -9.247
 INTRA:                  -0.581
 UNBOUND:                -0.858
  Name = 
  6 active torsions:
  status: ('A' for Active; 'I' for Inactive)
    1  A    between atoms: C_2  and  C_4
    2  A    between atoms: C_4  and  N_5
    3  A    between atoms: N_5  and  C_19
    4  A    between atoms: C_6  and  C_8
    5  A    between atoms: C_8  and  C_9
    6  A    between atoms: C_12  and  C_13
                            x       y       z     vdW  Elec       q    Type
                         _______ _______ _______ _____ _____    ______ ____

>  <TORSDO>
F 6

$$$$
=
 OpenBabel07192307433D

 42 43  0  0  0  0  0  0  0  0999 V2000
    4.2630    4.4610   17.6230 N   0  0  0  0  0  0  0  0  0  0  0  0
    4.3170    5.0480   18.8960 C   0  0  0  0  0  0  0  0  0  0  0  0
    5.3870    5.4400   19.3670 O   0  0  0  0  0  0  0  0  0  0  0  0
    5.5420    4.2710   16.9160 C   0  0  0  0  0  0  0  0  0  0  0  0
    5.3690    3.4190   15.6470 C   0  0  0  0  0  0  0  0  0  0  0  0
    6.4030    3.9620   14.6740 C   0  0  0  0  0  0  0  0  0  0  0  0
    6.3780    5.4550   14.9460 C   0  0  0  0  0  0  0  0  0  0  0  0
    6.2780    5.5490   16.4650 C   0  0  0  0  0  0  0  0  0  0  0  0
    6.2230    3.7390   17.5950 H   0  0  0  0  0  0  0  0  0  0  0  0
    4.3640    3.5390   15.2230 H   0  0  0  0  0  0  0  0  0  0  0  0
    5.5130    2.3530   15.8460 H   0  0  0  0  0  0  0  0  0  0  0  0
    7.3930    3.5490   14.9030 H   0  0  0  0  0  0  0  0  0  0  0  0
    6.1620    3.7230   13.6350 H   0  0  0  0  0  0  0  0  0  0  0  0
    5.4940    5.9090   14.4820 H   0  0  0  0  0  0  0  0  0  0  0  0
    7.2640    5.9640   14.5570 H   0  0  0  0  0  0  0  0  0  0  0  0
    5.8160    6.4860   16.7810 H   0  0  0  0  0  0  0  0  0  0  0  0
    7.2900    5.5420   16.8880 H   0  0  0  0  0  0  0  0  0  0  0  0
    3.0680    3.7510   17.1290 C   0  0  0  0  0  0  0  0  0  0  0  0
    2.1860    4.3840   17.2610 H   0  0  0  0  0  0  0  0  0  0  0  0
    3.1720    3.5560   16.0570 H   0  0  0  0  0  0  0  0  0  0  0  0
    1.5130    2.1220   18.1370 N   0  0  0  0  0  0  0  0  0  0  0  0
    2.8140    2.4120   17.8330 C   0  0  0  0  0  0  0  0  0  0  0  0
    3.7180    1.6450   18.1480 O   0  0  0  0  0  0  0  0  0  0  0  0
    0.7660    2.6230   17.6700 H   0  0  0  0  0  0  0  0  0  0  0  0
    1.3190    1.1990   18.5040 H   0  0  0  0  0  0  0  0  0  0  0  0
    3.0120    5.1660   19.6850 C   0  0  0  0  0  0  0  0  0  0  0  0
    3.2200    4.8860   20.7240 H   0  0  0  0  0  0  0  0  0  0  0  0
    2.2630    4.4630   19.3100 H   0  0  0  0  0  0  0  0  0  0  0  0
    2.3990    6.5480   19.6480 C   0  0  0  0  0  0  0  0  0  0  0  0
    1.7620    7.0730   20.7810 C   0  0  0  0  0  0  0  0  0  0  0  0
    1.1890    8.3470   20.7440 C   0  0  0  0  0  0  0  0  0  0  0  0
    1.2420    9.1200   19.5750 C   0  0  0  0  0  0  0  0  0  0  0  0
    1.8650    8.5860   18.4390 C   0  0  0  0  0  0  0  0  0  0  0  0
    2.4400    7.3130   18.4760 C   0  0  0  0  0  0  0  0  0  0  0  0
    1.7060    6.4940   21.7010 H   0  0  0  0  0  0  0  0  0  0  0  0
    0.6970    8.7350   21.6350 H   0  0  0  0  0  0  0  0  0  0  0  0
    1.9010    9.1590   17.5120 H   0  0  0  0  0  0  0  0  0  0  0  0
    2.9050    6.9140   17.5760 H   0  0  0  0  0  0  0  0  0  0  0  0
    0.5990   10.4840   19.5310 C   0  0  0  0  0  0  0  0  0  0  0  0
   -0.7630   10.4340   19.5780 F   0  0  0  0  0  0  0  0  0  0  0  0
    0.9070   11.1680   18.3960 F   0  0  0  0  0  0  0  0  0  0  0  0
    0.9740   11.2880   20.5660 F   0  0  0  0  0  0  0  0  0  0  0  0
  1  2  1  0  0  0  0
  2  3  2  0  0  0  0
  2 26  1  0  0  0  0
  4  9  1  0  0  0  0
  4  1  1  0  0  0  0
  5 11  1  0  0  0  0
  5  4  1  0  0  0  0
  6 12  1  0  0  0  0
  6  7  1  0  0  0  0
  6  5  1  0  0  0  0
  7  8  1  0  0  0  0
  8 16  1  0  0  0  0
  8 17  1  0  0  0  0
  8  4  1  0  0  0  0
 10  5  1  0  0  0  0
 13  6  1  0  0  0  0
 14  7  1  0  0  0  0
 15  7  1  0  0  0  0
 18 19  1  0  0  0  0
 18  1  1  0  0  0  0
 18 22  1  0  0  0  0
 20 18  1  0  0  0  0
 21 25  1  0  0  0  0
 22 21  1  0  0  0  0
 22 23  2  0  0  0  0
 24 21  1  0  0  0  0
 26 27  1  0  0  0  0
 28 26  1  0  0  0  0
 29 26  1  0  0  0  0
 29 30  1  0  0  0  0
 30 35  1  0  0  0  0
 31 30  2  0  0  0  0
 31 36  1  0  0  0  0
 32 31  1  0  0  0  0
 33 34  1  0  0  0  0
 33 32  2  0  0  0  0
 34 29  2  0  0  0  0
 37 33  1  0  0  0  0
 38 34  1  0  0  0  0
 39 32  1  0  0  0  0
 39 40  1  0  0  0  0
 39 42  1  0  0  0  0
 41 39  1  0  0  0  0
M  END
>  <MODEL>
7

>  <REMARK>
 VINA RESULT:    -6.636      4.925      7.118
 INTER + INTRA:          -9.822
 INTER:                  -9.444
 INTRA:                  -0.378
 UNBOUND:                -0.858
  Name = 
  6 active torsions:
  status: ('A' for Active; 'I' for Inactive)
    1  A    between atoms: C_2  and  C_4
    2  A    between atoms: C_4  and  N_5
    3  A    between atoms: N_5  and  C_19
    4  A    between atoms: C_6  and  C_8
    5  A    between atoms: C_8  and  C_9
    6  A    between atoms: C_12  and  C_13
                            x       y       z     vdW  Elec       q    Type
                         _______ _______ _______ _____ _____    ______ ____

>  <TORSDO>
F 6

$$$$
=
 OpenBabel07192307433D

 42 43  0  0  0  0  0  0  0  0999 V2000
    4.3260    4.4860   17.5880 N   0  0  0  0  0  0  0  0  0  0  0  0
    4.3700    5.0660   18.8640 C   0  0  0  0  0  0  0  0  0  0  0  0
    5.4310    5.4820   19.3340 O   0  0  0  0  0  0  0  0  0  0  0  0
    5.6060    4.3330   16.8750 C   0  0  0  0  0  0  0  0  0  0  0  0
    5.4710    3.4030   15.6570 C   0  0  0  0  0  0  0  0  0  0  0  0
    6.4600    3.9510   14.6420 C   0  0  0  0  0  0  0  0  0  0  0  0
    6.3500    5.4530   14.8330 C   0  0  0  0  0  0  0  0  0  0  0  0
    6.2600    5.6240   16.3450 C   0  0  0  0  0  0  0  0  0  0  0  0
    6.3240    3.8790   17.5730 H   0  0  0  0  0  0  0  0  0  0  0  0
    4.4560    3.4410   15.2400 H   0  0  0  0  0  0  0  0  0  0  0  0
    5.6800    2.3600   15.9120 H   0  0  0  0  0  0  0  0  0  0  0  0
    7.4760    3.6100   14.8790 H   0  0  0  0  0  0  0  0  0  0  0  0
    6.2230    3.6410   13.6200 H   0  0  0  0  0  0  0  0  0  0  0  0
    5.4370    5.8280   14.3560 H   0  0  0  0  0  0  0  0  0  0  0  0
    7.2010    5.9910   14.4050 H   0  0  0  0  0  0  0  0  0  0  0  0
    5.7480    6.5490   16.6150 H   0  0  0  0  0  0  0  0  0  0  0  0
    7.2760    5.7000   16.7540 H   0  0  0  0  0  0  0  0  0  0  0  0
    3.1460    3.7500   17.0930 C   0  0  0  0  0  0  0  0  0  0  0  0
    2.2570    4.3790   17.1870 H   0  0  0  0  0  0  0  0  0  0  0  0
    3.2740    3.5210   16.0320 H   0  0  0  0  0  0  0  0  0  0  0  0
    1.5860    2.1500   18.1400 N   0  0  0  0  0  0  0  0  0  0  0  0
    2.8890    2.4320   17.8370 C   0  0  0  0  0  0  0  0  0  0  0  0
    3.7920    1.6770   18.1810 O   0  0  0  0  0  0  0  0  0  0  0  0
    0.8420    2.6350   17.6530 H   0  0  0  0  0  0  0  0  0  0  0  0
    1.3910    1.2380   18.5340 H   0  0  0  0  0  0  0  0  0  0  0  0
    3.0650    5.1470   19.6590 C   0  0  0  0  0  0  0  0  0  0  0  0
    3.2810    4.8550   20.6930 H   0  0  0  0  0  0  0  0  0  0  0  0
    2.3280    4.4360   19.2750 H   0  0  0  0  0  0  0  0  0  0  0  0
    2.4250    6.5180   19.6450 C   0  0  0  0  0  0  0  0  0  0  0  0
    2.4940    7.3220   18.5000 C   0  0  0  0  0  0  0  0  0  0  0  0
    1.9090    8.5920   18.4910 C   0  0  0  0  0  0  0  0  0  0  0  0
    1.2460    9.0810   19.6250 C   0  0  0  0  0  0  0  0  0  0  0  0
    1.1940    8.2800   20.7750 C   0  0  0  0  0  0  0  0  0  0  0  0
    1.7760    7.0110   20.7840 C   0  0  0  0  0  0  0  0  0  0  0  0
    3.0030    6.9670   17.6060 H   0  0  0  0  0  0  0  0  0  0  0  0
    1.9750    9.2010   17.5900 H   0  0  0  0  0  0  0  0  0  0  0  0
    0.7020    8.6460   21.6770 H   0  0  0  0  0  0  0  0  0  0  0  0
    1.7350    6.4140   21.6940 H   0  0  0  0  0  0  0  0  0  0  0  0
    0.6390   10.4620   19.6210 C   0  0  0  0  0  0  0  0  0  0  0  0
    1.0220   11.2090   18.5460 F   0  0  0  0  0  0  0  0  0  0  0  0
    0.9850   11.1860   20.7200 F   0  0  0  0  0  0  0  0  0  0  0  0
   -0.7240   10.4500   19.5940 F   0  0  0  0  0  0  0  0  0  0  0  0
  1  2  1  0  0  0  0
  2  3  2  0  0  0  0
  2 26  1  0  0  0  0
  4  9  1  0  0  0  0
  4  1  1  0  0  0  0
  5 11  1  0  0  0  0
  5  4  1  0  0  0  0
  6  7  1  0  0  0  0
  6 12  1  0  0  0  0
  6  5  1  0  0  0  0
  7  8  1  0  0  0  0
  8 16  1  0  0  0  0
  8 17  1  0  0  0  0
  8  4  1  0  0  0  0
 10  5  1  0  0  0  0
 13  6  1  0  0  0  0
 14  7  1  0  0  0  0
 15  7  1  0  0  0  0
 18 19  1  0  0  0  0
 18  1  1  0  0  0  0
 18 22  1  0  0  0  0
 20 18  1  0  0  0  0
 21 25  1  0  0  0  0
 22 21  1  0  0  0  0
 22 23  2  0  0  0  0
 24 21  1  0  0  0  0
 26 27  1  0  0  0  0
 28 26  1  0  0  0  0
 29 26  1  0  0  0  0
 29 34  1  0  0  0  0
 30 29  2  0  0  0  0
 31 30  1  0  0  0  0
 31 32  2  0  0  0  0
 32 33  1  0  0  0  0
 33 34  2  0  0  0  0
 33 37  1  0  0  0  0
 34 38  1  0  0  0  0
 35 30  1  0  0  0  0
 36 31  1  0  0  0  0
 39 32  1  0  0  0  0
 39 41  1  0  0  0  0
 40 39  1  0  0  0  0
 42 39  1  0  0  0  0
M  END
>  <MODEL>
8

>  <REMARK>
 VINA RESULT:    -6.614      4.926      7.104
 INTER + INTRA:          -9.793
 INTER:                  -9.368
 INTRA:                  -0.425
 UNBOUND:                -0.858
  Name = 
  6 active torsions:
  status: ('A' for Active; 'I' for Inactive)
    1  A    between atoms: C_2  and  C_4
    2  A    between atoms: C_4  and  N_5
    3  A    between atoms: N_5  and  C_19
    4  A    between atoms: C_6  and  C_8
    5  A    between atoms: C_8  and  C_9
    6  A    between atoms: C_12  and  C_13
                            x       y       z     vdW  Elec       q    Type
                         _______ _______ _______ _____ _____    ______ ____

>  <TORSDO>
F 6

$$$$
=
 OpenBabel07192307433D

 42 43  0  0  0  0  0  0  0  0999 V2000
    3.3570    4.9810   18.9630 N   0  0  0  0  0  0  0  0  0  0  0  0
    2.5130    5.7810   18.1780 C   0  0  0  0  0  0  0  0  0  0  0  0
    1.4770    5.3220   17.6920 O   0  0  0  0  0  0  0  0  0  0  0  0
    2.9860    3.5640   19.1180 C   0  0  0  0  0  0  0  0  0  0  0  0
    3.4640    2.7180   17.9260 C   0  0  0  0  0  0  0  0  0  0  0  0
    3.7790    1.3550   18.5220 C   0  0  0  0  0  0  0  0  0  0  0  0
    4.3820    1.7030   19.8710 C   0  0  0  0  0  0  0  0  0  0  0  0
    3.5100    2.8470   20.3780 C   0  0  0  0  0  0  0  0  0  0  0  0
    1.8880    3.5090   19.1580 H   0  0  0  0  0  0  0  0  0  0  0  0
    4.3710    3.1420   17.4770 H   0  0  0  0  0  0  0  0  0  0  0  0
    2.7080    2.6560   17.1370 H   0  0  0  0  0  0  0  0  0  0  0  0
    2.8560    0.7770   18.6540 H   0  0  0  0  0  0  0  0  0  0  0  0
    4.4620    0.7750   17.8960 H   0  0  0  0  0  0  0  0  0  0  0  0
    5.4160    2.0440   19.7450 H   0  0  0  0  0  0  0  0  0  0  0  0
    4.3870    0.8510   20.5560 H   0  0  0  0  0  0  0  0  0  0  0  0
    4.0500    3.4810   21.0830 H   0  0  0  0  0  0  0  0  0  0  0  0
    2.6580    2.4260   20.9260 H   0  0  0  0  0  0  0  0  0  0  0  0
    4.7170    5.4040   19.3460 C   0  0  0  0  0  0  0  0  0  0  0  0
    4.7210    6.4770   19.5580 H   0  0  0  0  0  0  0  0  0  0  0  0
    5.0190    4.8900   20.2630 H   0  0  0  0  0  0  0  0  0  0  0  0
    6.6810    4.1360   18.5560 N   0  0  0  0  0  0  0  0  0  0  0  0
    5.7740    5.1190   18.2710 C   0  0  0  0  0  0  0  0  0  0  0  0
    5.8420    5.7500   17.2220 O   0  0  0  0  0  0  0  0  0  0  0  0
    6.4800    3.4670   19.2900 H   0  0  0  0  0  0  0  0  0  0  0  0
    7.3150    3.8640   17.8160 H   0  0  0  0  0  0  0  0  0  0  0  0
    2.9320    7.2310   17.9260 C   0  0  0  0  0  0  0  0  0  0  0  0
    2.9090    7.4060   16.8450 H   0  0  0  0  0  0  0  0  0  0  0  0
    3.9600    7.4040   18.2550 H   0  0  0  0  0  0  0  0  0  0  0  0
    2.0540    8.2490   18.6200 C   0  0  0  0  0  0  0  0  0  0  0  0
    1.5810    9.3700   17.9250 C   0  0  0  0  0  0  0  0  0  0  0  0
    0.7770   10.3140   18.5680 C   0  0  0  0  0  0  0  0  0  0  0  0
    0.4290   10.1560   19.9180 C   0  0  0  0  0  0  0  0  0  0  0  0
    0.9170    9.0410   20.6140 C   0  0  0  0  0  0  0  0  0  0  0  0
    1.7190    8.0960   19.9720 C   0  0  0  0  0  0  0  0  0  0  0  0
    1.8360    9.5180   16.8780 H   0  0  0  0  0  0  0  0  0  0  0  0
    0.4220   11.1800   18.0100 H   0  0  0  0  0  0  0  0  0  0  0  0
    0.6780    8.9060   21.6700 H   0  0  0  0  0  0  0  0  0  0  0  0
    2.0980    7.2470   20.5380 H   0  0  0  0  0  0  0  0  0  0  0  0
   -0.4170   11.1900   20.6160 C   0  0  0  0  0  0  0  0  0  0  0  0
    0.1380   12.4350   20.5980 F   0  0  0  0  0  0  0  0  0  0  0  0
   -0.6240   10.8950   21.9290 F   0  0  0  0  0  0  0  0  0  0  0  0
   -1.6560   11.3310   20.0650 F   0  0  0  0  0  0  0  0  0  0  0  0
  1  4  1  0  0  0  0
  1 18  1  0  0  0  0
  2  1  1  0  0  0  0
  3  2  2  0  0  0  0
  4  9  1  0  0  0  0
  4  8  1  0  0  0  0
  5  6  1  0  0  0  0
  5  4  1  0  0  0  0
  6 12  1  0  0  0  0
  6  7  1  0  0  0  0
  7  8  1  0  0  0  0
  7 15  1  0  0  0  0
  8 17  1  0  0  0  0
  8 16  1  0  0  0  0
 10  5  1  0  0  0  0
 11  5  1  0  0  0  0
 13  6  1  0  0  0  0
 14  7  1  0  0  0  0
 18 19  1  0  0  0  0
 18 20  1  0  0  0  0
 21 24  1  0  0  0  0
 22 21  1  0  0  0  0
 22 18  1  0  0  0  0
 23 22  2  0  0  0  0
 25 21  1  0  0  0  0
 26  2  1  0  0  0  0
 26 28  1  0  0  0  0
 26 29  1  0  0  0  0
 27 26  1  0  0  0  0
 29 34  1  0  0  0  0
 30 31  1  0  0  0  0
 30 29  2  0  0  0  0
 31 32  2  0  0  0  0
 32 33  1  0  0  0  0
 32 39  1  0  0  0  0
 33 37  1  0  0  0  0
 34 38  1  0  0  0  0
 34 33  2  0  0  0  0
 35 30  1  0  0  0  0
 36 31  1  0  0  0  0
 39 41  1  0  0  0  0
 40 39  1  0  0  0  0
 42 39  1  0  0  0  0
M  END
>  <MODEL>
9

>  <REMARK>
 VINA RESULT:    -6.588      5.769      7.371
 INTER + INTRA:          -9.757
 INTER:                  -9.063
 INTRA:                  -0.694
 UNBOUND:                -0.858
  Name = 
  6 active torsions:
  status: ('A' for Active; 'I' for Inactive)
    1  A    between atoms: C_2  and  C_4
    2  A    between atoms: C_4  and  N_5
    3  A    between atoms: N_5  and  C_19
    4  A    between atoms: C_6  and  C_8
    5  A    between atoms: C_8  and  C_9
    6  A    between atoms: C_12  and  C_13
                            x       y       z     vdW  Elec       q    Type
                         _______ _______ _______ _____ _____    ______ ____

>  <TORSDO>
F 6

$$$$
=
 OpenBabel07192307433D

 42 43  0  0  0  0  0  0  0  0999 V2000
    0.3270    9.7300   20.1120 N   0  0  0  0  0  0  0  0  0  0  0  0
    0.3830    8.5870   20.9230 C   0  0  0  0  0  0  0  0  0  0  0  0
   -0.6310    8.1480   21.4690 O   0  0  0  0  0  0  0  0  0  0  0  0
   -0.9740   10.4140   20.0030 C   0  0  0  0  0  0  0  0  0  0  0  0
   -0.8710   11.8960   20.4000 C   0  0  0  0  0  0  0  0  0  0  0  0
   -1.8930   12.6020   19.5230 C   0  0  0  0  0  0  0  0  0  0  0  0
   -1.7840   11.8580   18.2040 C   0  0  0  0  0  0  0  0  0  0  0  0
   -1.6490   10.3960   18.6180 C   0  0  0  0  0  0  0  0  0  0  0  0
   -1.6680    9.9210   20.6990 H   0  0  0  0  0  0  0  0  0  0  0  0
    0.1300   12.2940   20.1910 H   0  0  0  0  0  0  0  0  0  0  0  0
   -1.0680   12.0510   21.4650 H   0  0  0  0  0  0  0  0  0  0  0  0
   -2.8990   12.4850   19.9450 H   0  0  0  0  0  0  0  0  0  0  0  0
   -1.6860   13.6700   19.4190 H   0  0  0  0  0  0  0  0  0  0  0  0
   -0.8870   12.1810   17.6620 H   0  0  0  0  0  0  0  0  0  0  0  0
   -2.6500   12.0280   17.5580 H   0  0  0  0  0  0  0  0  0  0  0  0
   -1.1330    9.8090   17.8560 H   0  0  0  0  0  0  0  0  0  0  0  0
   -2.6520    9.9630   18.7190 H   0  0  0  0  0  0  0  0  0  0  0  0
    1.5390   10.4350   19.6530 C   0  0  0  0  0  0  0  0  0  0  0  0
    1.4550   11.4990   19.8880 H   0  0  0  0  0  0  0  0  0  0  0  0
    2.4130   10.0510   20.1870 H   0  0  0  0  0  0  0  0  0  0  0  0
    2.3640   11.3680   17.5230 N   0  0  0  0  0  0  0  0  0  0  0  0
    1.8010   10.2900   18.1480 C   0  0  0  0  0  0  0  0  0  0  0  0
    1.4960    9.2850   17.5140 O   0  0  0  0  0  0  0  0  0  0  0  0
    2.8300   12.0790   18.0730 H   0  0  0  0  0  0  0  0  0  0  0  0
    2.6400   11.2480   16.5560 H   0  0  0  0  0  0  0  0  0  0  0  0
    1.7440    7.9190   21.1250 C   0  0  0  0  0  0  0  0  0  0  0  0
    1.8430    7.6670   22.1870 H   0  0  0  0  0  0  0  0  0  0  0  0
    2.5590    8.6080   20.8860 H   0  0  0  0  0  0  0  0  0  0  0  0
    1.9430    6.6730   20.2910 C   0  0  0  0  0  0  0  0  0  0  0  0
    1.4480    5.4370   20.7310 C   0  0  0  0  0  0  0  0  0  0  0  0
    1.6380    4.2850   19.9630 C   0  0  0  0  0  0  0  0  0  0  0  0
    2.3250    4.3450   18.7420 C   0  0  0  0  0  0  0  0  0  0  0  0
    2.8330    5.5790   18.3130 C   0  0  0  0  0  0  0  0  0  0  0  0
    2.6420    6.7320   19.0790 C   0  0  0  0  0  0  0  0  0  0  0  0
    0.9110    5.3620   21.6740 H   0  0  0  0  0  0  0  0  0  0  0  0
    1.2470    3.3350   20.3250 H   0  0  0  0  0  0  0  0  0  0  0  0
    3.3890    5.6490   17.3780 H   0  0  0  0  0  0  0  0  0  0  0  0
    3.0590    7.6760   18.7310 H   0  0  0  0  0  0  0  0  0  0  0  0
    2.5520    3.0950   17.9300 C   0  0  0  0  0  0  0  0  0  0  0  0
    2.4520    3.3070   16.5860 F   0  0  0  0  0  0  0  0  0  0  0  0
    1.6530    2.1150   18.2200 F   0  0  0  0  0  0  0  0  0  0  0  0
    3.7830    2.5430   18.1250 F   0  0  0  0  0  0  0  0  0  0  0  0
  1  2  1  0  0  0  0
  2 26  1  0  0  0  0
  2  3  2  0  0  0  0
  4  1  1  0  0  0  0
  4  5  1  0  0  0  0
  4  9  1  0  0  0  0
  5 11  1  0  0  0  0
  6 12  1  0  0  0  0
  6  5  1  0  0  0  0
  7  8  1  0  0  0  0
  7  6  1  0  0  0  0
  8 17  1  0  0  0  0
  8  4  1  0  0  0  0
 10  5  1  0  0  0  0
 13  6  1  0  0  0  0
 14  7  1  0  0  0  0
 15  7  1  0  0  0  0
 16  8  1  0  0  0  0
 18 19  1  0  0  0  0
 18  1  1  0  0  0  0
 18 20  1  0  0  0  0
 21 24  1  0  0  0  0
 21 22  1  0  0  0  0
 22 18  1  0  0  0  0
 23 22  2  0  0  0  0
 25 21  1  0  0  0  0
 26 27  1  0  0  0  0
 28 26  1  0  0  0  0
 29 30  1  0  0  0  0
 29 26  1  0  0  0  0
 30 35  1  0  0  0  0
 31 36  1  0  0  0  0
 31 30  2  0  0  0  0
 32 31  1  0  0  0  0
 33 32  2  0  0  0  0
 33 34  1  0  0  0  0
 34 29  2  0  0  0  0
 37 33  1  0  0  0  0
 38 34  1  0  0  0  0
 39 42  1  0  0  0  0
 39 41  1  0  0  0  0
 39 32  1  0  0  0  0
 40 39  1  0  0  0  0
M  END
>  <MODEL>
10

>  <REMARK>
 VINA RESULT:    -6.464      5.370      7.255
 INTER + INTRA:          -9.589
 INTER:                  -8.626
 INTRA:                  -0.963
 UNBOUND:                -0.858
  Name = 
  6 active torsions:
  status: ('A' for Active; 'I' for Inactive)
    1  A    between atoms: C_2  and  C_4
    2  A    between atoms: C_4  and  N_5
    3  A    between atoms: N_5  and  C_19
    4  A    between atoms: C_6  and  C_8
    5  A    between atoms: C_8  and  C_9
    6  A    between atoms: C_12  and  C_13
                            x       y       z     vdW  Elec       q    Type
                         _______ _______ _______ _____ _____    ______ ____

>  <TORSDO>
F 6

$$$$
=
 OpenBabel07192307433D

 42 43  0  0  0  0  0  0  0  0999 V2000
    0.3180    9.7210   20.0860 N   0  0  0  0  0  0  0  0  0  0  0  0
    0.3820    8.5910   20.9140 C   0  0  0  0  0  0  0  0  0  0  0  0
   -0.6290    8.1550   21.4700 O   0  0  0  0  0  0  0  0  0  0  0  0
   -0.9860   10.3980   19.9730 C   0  0  0  0  0  0  0  0  0  0  0  0
   -0.8960   11.8770   20.3860 C   0  0  0  0  0  0  0  0  0  0  0  0
   -1.9160   12.5850   19.5080 C   0  0  0  0  0  0  0  0  0  0  0  0
   -1.7900   11.8560   18.1820 C   0  0  0  0  0  0  0  0  0  0  0  0
   -1.6500   10.3910   18.5820 C   0  0  0  0  0  0  0  0  0  0  0  0
   -1.6840    9.8940   20.6580 H   0  0  0  0  0  0  0  0  0  0  0  0
    0.1040   12.2830   20.1900 H   0  0  0  0  0  0  0  0  0  0  0  0
   -1.1030   12.0200   21.4510 H   0  0  0  0  0  0  0  0  0  0  0  0
   -2.9250   12.4570   19.9200 H   0  0  0  0  0  0  0  0  0  0  0  0
   -1.7140   13.6560   19.4160 H   0  0  0  0  0  0  0  0  0  0  0  0
   -0.8910   12.1900   17.6520 H   0  0  0  0  0  0  0  0  0  0  0  0
   -2.6520   12.0270   17.5300 H   0  0  0  0  0  0  0  0  0  0  0  0
   -1.1230    9.8150   17.8190 H   0  0  0  0  0  0  0  0  0  0  0  0
   -2.6510    9.9500   18.6700 H   0  0  0  0  0  0  0  0  0  0  0  0
    1.5250   10.4250   19.6120 C   0  0  0  0  0  0  0  0  0  0  0  0
    1.4280   11.4950   19.8150 H   0  0  0  0  0  0  0  0  0  0  0  0
    2.4000   10.0660   20.1620 H   0  0  0  0  0  0  0  0  0  0  0  0
    2.4020   11.2800   17.4710 N   0  0  0  0  0  0  0  0  0  0  0  0
    1.7960   10.2380   18.1130 C   0  0  0  0  0  0  0  0  0  0  0  0
    1.4620    9.2300   17.4990 O   0  0  0  0  0  0  0  0  0  0  0  0
    2.8880   11.9870   18.0100 H   0  0  0  0  0  0  0  0  0  0  0  0
    2.6830   11.1300   16.5100 H   0  0  0  0  0  0  0  0  0  0  0  0
    1.7470    7.9310   21.1190 C   0  0  0  0  0  0  0  0  0  0  0  0
    1.8520    7.6980   22.1850 H   0  0  0  0  0  0  0  0  0  0  0  0
    2.5570    8.6190   20.8630 H   0  0  0  0  0  0  0  0  0  0  0  0
    1.9450    6.6710   20.3060 C   0  0  0  0  0  0  0  0  0  0  0  0
    2.6370    6.7120   19.0890 C   0  0  0  0  0  0  0  0  0  0  0  0
    2.8130    5.5500   18.3340 C   0  0  0  0  0  0  0  0  0  0  0  0
    2.3000    4.3230   18.7820 C   0  0  0  0  0  0  0  0  0  0  0  0
    1.5940    4.2880   19.9920 C   0  0  0  0  0  0  0  0  0  0  0  0
    1.4200    5.4500   20.7480 C   0  0  0  0  0  0  0  0  0  0  0  0
    3.0450    7.6510   18.7180 H   0  0  0  0  0  0  0  0  0  0  0  0
    3.3530    5.6040   17.3900 H   0  0  0  0  0  0  0  0  0  0  0  0
    1.1680    3.3510   20.3520 H   0  0  0  0  0  0  0  0  0  0  0  0
    0.8540    5.3990   21.6770 H   0  0  0  0  0  0  0  0  0  0  0  0
    2.4690    3.0750   17.9520 C   0  0  0  0  0  0  0  0  0  0  0  0
    1.5410    2.1170   18.2350 F   0  0  0  0  0  0  0  0  0  0  0  0
    3.6810    2.4850   18.1390 F   0  0  0  0  0  0  0  0  0  0  0  0
    2.3670    3.3030   16.6120 F   0  0  0  0  0  0  0  0  0  0  0  0
  1  2  1  0  0  0  0
  2 26  1  0  0  0  0
  2  3  2  0  0  0  0
  4  1  1  0  0  0  0
  4  5  1  0  0  0  0
  4  9  1  0  0  0  0
  5 11  1  0  0  0  0
  6 12  1  0  0  0  0
  6  5  1  0  0  0  0
  7  8  1  0  0  0  0
  7  6  1  0  0  0  0
  8 17  1  0  0  0  0
  8  4  1  0  0  0  0
 10  5  1  0  0  0  0
 13  6  1  0  0  0  0
 14  7  1  0  0  0  0
 15  7  1  0  0  0  0
 16  8  1  0  0  0  0
 18 19  1  0  0  0  0
 18  1  1  0  0  0  0
 18 20  1  0  0  0  0
 21 24  1  0  0  0  0
 21 22  1  0  0  0  0
 22 18  1  0  0  0  0
 23 22  2  0  0  0  0
 25 21  1  0  0  0  0
 26 27  1  0  0  0  0
 28 26  1  0  0  0  0
 29 34  1  0  0  0  0
 29 26  1  0  0  0  0
 30 29  2  0  0  0  0
 31 32  2  0  0  0  0
 31 30  1  0  0  0  0
 32 33  1  0  0  0  0
 33 37  1  0  0  0  0
 33 34  2  0  0  0  0
 34 38  1  0  0  0  0
 35 30  1  0  0  0  0
 36 31  1  0  0  0  0
 39 41  1  0  0  0  0
 39 40  1  0  0  0  0
 39 32  1  0  0  0  0
 42 39  1  0  0  0  0
M  END
>  <MODEL>
11

>  <REMARK>
 VINA RESULT:    -6.456      5.373      7.179
 INTER + INTRA:          -9.579
 INTER:                  -8.634
 INTRA:                  -0.945
 UNBOUND:                -0.858
  Name = 
  6 active torsions:
  status: ('A' for Active; 'I' for Inactive)
    1  A    between atoms: C_2  and  C_4
    2  A    between atoms: C_4  and  N_5
    3  A    between atoms: N_5  and  C_19
    4  A    between atoms: C_6  and  C_8
    5  A    between atoms: C_8  and  C_9
    6  A    between atoms: C_12  and  C_13
                            x       y       z     vdW  Elec       q    Type
                         _______ _______ _______ _____ _____    ______ ____

>  <TORSDO>
F 6

$$$$
=
 OpenBabel07192307433D

 42 43  0  0  0  0  0  0  0  0999 V2000
    0.9170    9.3170   19.4200 N   0  0  0  0  0  0  0  0  0  0  0  0
    1.8370    8.6220   18.6220 C   0  0  0  0  0  0  0  0  0  0  0  0
    2.1560    9.0430   17.5080 O   0  0  0  0  0  0  0  0  0  0  0  0
    0.3010   10.5230   18.8380 C   0  0  0  0  0  0  0  0  0  0  0  0
   -1.2300   10.5050   18.9840 C   0  0  0  0  0  0  0  0  0  0  0  0
   -1.6190   11.9660   19.1450 C   0  0  0  0  0  0  0  0  0  0  0  0
   -0.4910   12.5290   19.9900 C   0  0  0  0  0  0  0  0  0  0  0  0
    0.7610   11.8780   19.4110 C   0  0  0  0  0  0  0  0  0  0  0  0
    0.5420   10.5360   17.7660 H   0  0  0  0  0  0  0  0  0  0  0  0
   -1.5370    9.9420   19.8750 H   0  0  0  0  0  0  0  0  0  0  0  0
   -1.7190   10.0430   18.1210 H   0  0  0  0  0  0  0  0  0  0  0  0
   -1.6470   12.4610   18.1660 H   0  0  0  0  0  0  0  0  0  0  0  0
   -2.5970   12.0870   19.6190 H   0  0  0  0  0  0  0  0  0  0  0  0
   -0.6200   12.2330   21.0380 H   0  0  0  0  0  0  0  0  0  0  0  0
   -0.4460   13.6210   19.9500 H   0  0  0  0  0  0  0  0  0  0  0  0
    1.5630   11.8220   20.1500 H   0  0  0  0  0  0  0  0  0  0  0  0
    1.1360   12.5000   18.5900 H   0  0  0  0  0  0  0  0  0  0  0  0
    0.3170    8.7290   20.6330 C   0  0  0  0  0  0  0  0  0  0  0  0
   -0.7710    8.8140   20.5800 H   0  0  0  0  0  0  0  0  0  0  0  0
    0.5590    7.6640   20.6840 H   0  0  0  0  0  0  0  0  0  0  0  0
    2.0050    8.9780   22.4150 N   0  0  0  0  0  0  0  0  0  0  0  0
    0.7930    9.3870   21.9340 C   0  0  0  0  0  0  0  0  0  0  0  0
    0.1210   10.2120   22.5460 O   0  0  0  0  0  0  0  0  0  0  0  0
    2.6510    8.4970   21.8000 H   0  0  0  0  0  0  0  0  0  0  0  0
    2.3800    9.4780   23.2110 H   0  0  0  0  0  0  0  0  0  0  0  0
    2.4160    7.3150   19.1700 C   0  0  0  0  0  0  0  0  0  0  0  0
    1.5780    6.6760   19.4720 H   0  0  0  0  0  0  0  0  0  0  0  0
    3.0150    7.4980   20.0670 H   0  0  0  0  0  0  0  0  0  0  0  0
    3.2880    6.5720   18.1830 C   0  0  0  0  0  0  0  0  0  0  0  0
    4.2790    7.2490   17.4600 C   0  0  0  0  0  0  0  0  0  0  0  0
    5.0790    6.5630   16.5430 C   0  0  0  0  0  0  0  0  0  0  0  0
    4.9040    5.1880   16.3300 C   0  0  0  0  0  0  0  0  0  0  0  0
    3.9010    4.5170   17.0430 C   0  0  0  0  0  0  0  0  0  0  0  0
    3.1020    5.2010   17.9620 C   0  0  0  0  0  0  0  0  0  0  0  0
    4.4360    8.3160   17.6050 H   0  0  0  0  0  0  0  0  0  0  0  0
    5.8430    7.1090   15.9900 H   0  0  0  0  0  0  0  0  0  0  0  0
    3.7310    3.4520   16.8800 H   0  0  0  0  0  0  0  0  0  0  0  0
    2.3190    4.6610   18.4910 H   0  0  0  0  0  0  0  0  0  0  0  0
    5.7520    4.4560   15.3200 C   0  0  0  0  0  0  0  0  0  0  0  0
    5.1970    4.4340   14.0740 F   0  0  0  0  0  0  0  0  0  0  0  0
    5.9580    3.1540   15.6580 F   0  0  0  0  0  0  0  0  0  0  0  0
    6.9910    5.0020   15.1620 F   0  0  0  0  0  0  0  0  0  0  0  0
  1 18  1  0  0  0  0
  2 26  1  0  0  0  0
  2  1  1  0  0  0  0
  3  2  2  0  0  0  0
  4  5  1  0  0  0  0
  4  8  1  0  0  0  0
  4  1  1  0  0  0  0
  5  6  1  0  0  0  0
  5 10  1  0  0  0  0
  6 13  1  0  0  0  0
  6  7  1  0  0  0  0
  7 14  1  0  0  0  0
  8  7  1  0  0  0  0
  8 16  1  0  0  0  0
  9  4  1  0  0  0  0
 11  5  1  0  0  0  0
 12  6  1  0  0  0  0
 15  7  1  0  0  0  0
 17  8  1  0  0  0  0
 18 20  1  0  0  0  0
 18 22  1  0  0  0  0
 19 18  1  0  0  0  0
 21 25  1  0  0  0  0
 22 21  1  0  0  0  0
 22 23  2  0  0  0  0
 24 21  1  0  0  0  0
 26 27  1  0  0  0  0
 26 28  1  0  0  0  0
 29 26  1  0  0  0  0
 30 35  1  0  0  0  0
 30 29  2  0  0  0  0
 31 30  1  0  0  0  0
 32 31  2  0  0  0  0
 32 33  1  0  0  0  0
 33 34  2  0  0  0  0
 34 29  1  0  0  0  0
 34 38  1  0  0  0  0
 36 31  1  0  0  0  0
 37 33  1  0  0  0  0
 39 41  1  0  0  0  0
 39 32  1  0  0  0  0
 40 39  1  0  0  0  0
 42 39  1  0  0  0  0
M  END
>  <MODEL>
12

>  <REMARK>
 VINA RESULT:    -6.310      4.632      5.849
 INTER + INTRA:          -9.382
 INTER:                  -9.008
 INTRA:                  -0.374
 UNBOUND:                -0.858
  Name = 
  6 active torsions:
  status: ('A' for Active; 'I' for Inactive)
    1  A    between atoms: C_2  and  C_4
    2  A    between atoms: C_4  and  N_5
    3  A    between atoms: N_5  and  C_19
    4  A    between atoms: C_6  and  C_8
    5  A    between atoms: C_8  and  C_9
    6  A    between atoms: C_12  and  C_13
                            x       y       z     vdW  Elec       q    Type
                         _______ _______ _______ _____ _____    ______ ____

>  <TORSDO>
F 6

$$$$
=
 OpenBabel07192307433D

 42 43  0  0  0  0  0  0  0  0999 V2000
    0.5980   10.4250   19.8010 N   0  0  0  0  0  0  0  0  0  0  0  0
    1.2970    9.2320   19.5690 C   0  0  0  0  0  0  0  0  0  0  0  0
    1.7540    8.5730   20.5060 O   0  0  0  0  0  0  0  0  0  0  0  0
    0.4990   10.8850   21.1970 C   0  0  0  0  0  0  0  0  0  0  0  0
    0.2610   12.4030   21.2800 C   0  0  0  0  0  0  0  0  0  0  0  0
   -0.5930   12.5920   22.5230 C   0  0  0  0  0  0  0  0  0  0  0  0
   -1.5140   11.3850   22.4920 C   0  0  0  0  0  0  0  0  0  0  0  0
   -0.6040   10.2410   22.0600 C   0  0  0  0  0  0  0  0  0  0  0  0
    1.4550   10.6620   21.6900 H   0  0  0  0  0  0  0  0  0  0  0  0
   -0.2840   12.7670   20.4000 H   0  0  0  0  0  0  0  0  0  0  0  0
    1.1990   12.9630   21.3380 H   0  0  0  0  0  0  0  0  0  0  0  0
    0.0350   12.5690   23.4220 H   0  0  0  0  0  0  0  0  0  0  0  0
   -1.1430   13.5370   22.5110 H   0  0  0  0  0  0  0  0  0  0  0  0
   -2.3080   11.5360   21.7510 H   0  0  0  0  0  0  0  0  0  0  0  0
   -1.9860   11.1970   23.4600 H   0  0  0  0  0  0  0  0  0  0  0  0
   -1.1670    9.4410   21.5740 H   0  0  0  0  0  0  0  0  0  0  0  0
   -0.1430    9.8000   22.9520 H   0  0  0  0  0  0  0  0  0  0  0  0
    0.2620   11.3690   18.7180 C   0  0  0  0  0  0  0  0  0  0  0  0
    0.4090   12.3940   19.0670 H   0  0  0  0  0  0  0  0  0  0  0  0
    0.9350   11.2130   17.8700 H   0  0  0  0  0  0  0  0  0  0  0  0
   -1.6280   12.2210   17.3790 N   0  0  0  0  0  0  0  0  0  0  0  0
   -1.1800   11.2320   18.2100 C   0  0  0  0  0  0  0  0  0  0  0  0
   -1.9190   10.3130   18.5470 O   0  0  0  0  0  0  0  0  0  0  0  0
   -0.9610   12.8270   16.9170 H   0  0  0  0  0  0  0  0  0  0  0  0
   -2.5360   12.0900   16.9530 H   0  0  0  0  0  0  0  0  0  0  0  0
    1.4930    8.7880   18.1180 C   0  0  0  0  0  0  0  0  0  0  0  0
    1.9430    9.6220   17.5670 H   0  0  0  0  0  0  0  0  0  0  0  0
    0.5330    8.5730   17.6410 H   0  0  0  0  0  0  0  0  0  0  0  0
    2.3620    7.5580   17.9680 C   0  0  0  0  0  0  0  0  0  0  0  0
    1.8480    6.2860   18.2540 C   0  0  0  0  0  0  0  0  0  0  0  0
    2.6530    5.1520   18.1230 C   0  0  0  0  0  0  0  0  0  0  0  0
    3.9860    5.2660   17.7020 C   0  0  0  0  0  0  0  0  0  0  0  0
    4.5020    6.5420   17.4330 C   0  0  0  0  0  0  0  0  0  0  0  0
    3.6970    7.6760   17.5620 C   0  0  0  0  0  0  0  0  0  0  0  0
    0.8170    6.1680   18.5820 H   0  0  0  0  0  0  0  0  0  0  0  0
    2.2340    4.1720   18.3520 H   0  0  0  0  0  0  0  0  0  0  0  0
    5.5410    6.6590   17.1240 H   0  0  0  0  0  0  0  0  0  0  0  0
    4.1250    8.6560   17.3610 H   0  0  0  0  0  0  0  0  0  0  0  0
    4.8600    4.0420   17.5870 C   0  0  0  0  0  0  0  0  0  0  0  0
    4.1460    2.8870   17.4680 F   0  0  0  0  0  0  0  0  0  0  0  0
    5.6640    3.8730   18.6710 F   0  0  0  0  0  0  0  0  0  0  0  0
    5.6900    4.0750   16.5070 F   0  0  0  0  0  0  0  0  0  0  0  0
  1  4  1  0  0  0  0
  2  1  1  0  0  0  0
  2  3  2  0  0  0  0
  4  5  1  0  0  0  0
  4  9  1  0  0  0  0
  4  8  1  0  0  0  0
  5 11  1  0  0  0  0
  5  6  1  0  0  0  0
  6 12  1  0  0  0  0
  7  6  1  0  0  0  0
  7 15  1  0  0  0  0
  8  7  1  0  0  0  0
  8 17  1  0  0  0  0
 10  5  1  0  0  0  0
 13  6  1  0  0  0  0
 14  7  1  0  0  0  0
 16  8  1  0  0  0  0
 18 19  1  0  0  0  0
 18  1  1  0  0  0  0
 20 18  1  0  0  0  0
 21 22  1  0  0  0  0
 22 23  2  0  0  0  0
 22 18  1  0  0  0  0
 24 21  1  0  0  0  0
 25 21  1  0  0  0  0
 26  2  1  0  0  0  0
 27 26  1  0  0  0  0
 28 26  1  0  0  0  0
 29 26  1  0  0  0  0
 29 30  1  0  0  0  0
 30 35  1  0  0  0  0
 31 30  2  0  0  0  0
 31 36  1  0  0  0  0
 32 31  1  0  0  0  0
 33 34  1  0  0  0  0
 33 32  2  0  0  0  0
 34 29  2  0  0  0  0
 37 33  1  0  0  0  0
 38 34  1  0  0  0  0
 39 32  1  0  0  0  0
 39 41  1  0  0  0  0
 40 39  1  0  0  0  0
 42 39  1  0  0  0  0
M  END
>  <MODEL>
13

>  <REMARK>
 VINA RESULT:    -6.261      5.675      7.142
 INTER + INTRA:          -9.316
 INTER:                  -8.697
 INTRA:                  -0.619
 UNBOUND:                -0.858
  Name = 
  6 active torsions:
  status: ('A' for Active; 'I' for Inactive)
    1  A    between atoms: C_2  and  C_4
    2  A    between atoms: C_4  and  N_5
    3  A    between atoms: N_5  and  C_19
    4  A    between atoms: C_6  and  C_8
    5  A    between atoms: C_8  and  C_9
    6  A    between atoms: C_12  and  C_13
                            x       y       z     vdW  Elec       q    Type
                         _______ _______ _______ _____ _____    ______ ____

>  <TORSDO>
F 6

$$$$
=
 OpenBabel07192307433D

 42 43  0  0  0  0  0  0  0  0999 V2000
    4.5950    5.5260   18.1700 N   0  0  0  0  0  0  0  0  0  0  0  0
    3.6150    6.5140   18.3410 C   0  0  0  0  0  0  0  0  0  0  0  0
    3.4570    7.4020   17.5000 O   0  0  0  0  0  0  0  0  0  0  0  0
    5.4650    5.6390   16.9860 C   0  0  0  0  0  0  0  0  0  0  0  0
    6.9110    5.2230   17.3020 C   0  0  0  0  0  0  0  0  0  0  0  0
    7.4260    4.6080   16.0090 C   0  0  0  0  0  0  0  0  0  0  0  0
    6.2120    3.8680   15.4760 C   0  0  0  0  0  0  0  0  0  0  0  0
    5.0530    4.8210   15.7460 C   0  0  0  0  0  0  0  0  0  0  0  0
    5.4720    6.6950   16.6790 H   0  0  0  0  0  0  0  0  0  0  0  0
    6.9420    4.4730   18.1030 H   0  0  0  0  0  0  0  0  0  0  0  0
    7.5220    6.0710   17.6240 H   0  0  0  0  0  0  0  0  0  0  0  0
    7.7300    5.3970   15.3090 H   0  0  0  0  0  0  0  0  0  0  0  0
    8.2800    3.9460   16.1740 H   0  0  0  0  0  0  0  0  0  0  0  0
    6.0680    2.9320   16.0290 H   0  0  0  0  0  0  0  0  0  0  0  0
    6.3080    3.6220   14.4140 H   0  0  0  0  0  0  0  0  0  0  0  0
    4.1060    4.2870   15.8360 H   0  0  0  0  0  0  0  0  0  0  0  0
    4.9480    5.5020   14.8930 H   0  0  0  0  0  0  0  0  0  0  0  0
    4.9920    4.6080   19.2560 C   0  0  0  0  0  0  0  0  0  0  0  0
    6.0820    4.5520   19.3070 H   0  0  0  0  0  0  0  0  0  0  0  0
    4.6390    4.9980   20.2150 H   0  0  0  0  0  0  0  0  0  0  0  0
    5.0940    2.1970   19.7690 N   0  0  0  0  0  0  0  0  0  0  0  0
    4.4400    3.1860   19.0890 C   0  0  0  0  0  0  0  0  0  0  0  0
    3.4880    2.9230   18.3620 O   0  0  0  0  0  0  0  0  0  0  0  0
    5.7050    2.4390   20.5400 H   0  0  0  0  0  0  0  0  0  0  0  0
    4.6790    1.2740   19.7550 H   0  0  0  0  0  0  0  0  0  0  0  0
    2.7660    6.4680   19.6130 C   0  0  0  0  0  0  0  0  0  0  0  0
    3.4430    6.3470   20.4670 H   0  0  0  0  0  0  0  0  0  0  0  0
    2.1020    5.5990   19.6090 H   0  0  0  0  0  0  0  0  0  0  0  0
    1.9080    7.6970   19.8200 C   0  0  0  0  0  0  0  0  0  0  0  0
    1.6720    8.5850   18.7620 C   0  0  0  0  0  0  0  0  0  0  0  0
    0.8860    9.7240   18.9560 C   0  0  0  0  0  0  0  0  0  0  0  0
    0.3210    9.9970   20.2100 C   0  0  0  0  0  0  0  0  0  0  0  0
    0.5720    9.1150   21.2700 C   0  0  0  0  0  0  0  0  0  0  0  0
    1.3560    7.9750   21.0770 C   0  0  0  0  0  0  0  0  0  0  0  0
    2.0990    8.3970   17.7790 H   0  0  0  0  0  0  0  0  0  0  0  0
    0.7170   10.4020   18.1200 H   0  0  0  0  0  0  0  0  0  0  0  0
    0.1610    9.3160   22.2600 H   0  0  0  0  0  0  0  0  0  0  0  0
    1.5490    7.3140   21.9200 H   0  0  0  0  0  0  0  0  0  0  0  0
   -0.5050   11.2400   20.4220 C   0  0  0  0  0  0  0  0  0  0  0  0
   -1.5490   11.3430   19.5520 F   0  0  0  0  0  0  0  0  0  0  0  0
    0.2220   12.3810   20.2670 F   0  0  0  0  0  0  0  0  0  0  0  0
   -1.0550   11.3140   21.6670 F   0  0  0  0  0  0  0  0  0  0  0  0
  1  2  1  0  0  0  0
  1 18  1  0  0  0  0
  2 26  1  0  0  0  0
  3  2  2  0  0  0  0
  4  5  1  0  0  0  0
  4  1  1  0  0  0  0
  5 11  1  0  0  0  0
  5 10  1  0  0  0  0
  6 13  1  0  0  0  0
  6  5  1  0  0  0  0
  7  8  1  0  0  0  0
  7  6  1  0  0  0  0
  7 14  1  0  0  0  0
  8 16  1  0  0  0  0
  8  4  1  0  0  0  0
  9  4  1  0  0  0  0
 12  6  1  0  0  0  0
 15  7  1  0  0  0  0
 17  8  1  0  0  0  0
 18 19  1  0  0  0  0
 18 20  1  0  0  0  0
 21 24  1  0  0  0  0
 22 18  1  0  0  0  0
 22 21  1  0  0  0  0
 23 22  2  0  0  0  0
 25 21  1  0  0  0  0
 26 29  1  0  0  0  0
 26 27  1  0  0  0  0
 28 26  1  0  0  0  0
 29 34  1  0  0  0  0
 30 31  1  0  0  0  0
 30 29  2  0  0  0  0
 31 32  2  0  0  0  0
 32 39  1  0  0  0  0
 32 33  1  0  0  0  0
 33 37  1  0  0  0  0
 34 33  2  0  0  0  0
 34 38  1  0  0  0  0
 35 30  1  0  0  0  0
 36 31  1  0  0  0  0
 39 42  1  0  0  0  0
 40 39  1  0  0  0  0
 41 39  1  0  0  0  0
M  END
>  <MODEL>
14

>  <REMARK>
 VINA RESULT:    -6.203      5.598      7.765
 INTER + INTRA:          -9.237
 INTER:                  -9.370
 INTRA:                   0.134
 UNBOUND:                -0.858
  Name = 
  6 active torsions:
  status: ('A' for Active; 'I' for Inactive)
    1  A    between atoms: C_2  and  C_4
    2  A    between atoms: C_4  and  N_5
    3  A    between atoms: N_5  and  C_19
    4  A    between atoms: C_6  and  C_8
    5  A    between atoms: C_8  and  C_9
    6  A    between atoms: C_12  and  C_13
                            x       y       z     vdW  Elec       q    Type
                         _______ _______ _______ _____ _____    ______ ____

>  <TORSDO>
F 6

$$$$
=
 OpenBabel07192307433D

 42 43  0  0  0  0  0  0  0  0999 V2000
    3.0480    5.0470   19.0600 N   0  0  0  0  0  0  0  0  0  0  0  0
    2.2150    5.9920   19.6760 C   0  0  0  0  0  0  0  0  0  0  0  0
    1.2810    5.6390   20.3980 O   0  0  0  0  0  0  0  0  0  0  0  0
    2.7120    3.6260   19.2580 C   0  0  0  0  0  0  0  0  0  0  0  0
    2.8560    2.8220   17.9540 C   0  0  0  0  0  0  0  0  0  0  0  0
    3.2970    1.4380   18.4020 C   0  0  0  0  0  0  0  0  0  0  0  0
    4.2320    1.7340   19.5610 C   0  0  0  0  0  0  0  0  0  0  0  0
    3.5350    2.8620   20.3140 C   0  0  0  0  0  0  0  0  0  0  0  0
    1.6620    3.5730   19.5780 H   0  0  0  0  0  0  0  0  0  0  0  0
    3.6220    3.2590   17.3010 H   0  0  0  0  0  0  0  0  0  0  0  0
    1.9220    2.7910   17.3860 H   0  0  0  0  0  0  0  0  0  0  0  0
    2.4320    0.8580   18.7490 H   0  0  0  0  0  0  0  0  0  0  0  0
    3.7880    0.8780   17.6020 H   0  0  0  0  0  0  0  0  0  0  0  0
    5.2030    2.0770   19.1840 H   0  0  0  0  0  0  0  0  0  0  0  0
    4.4030    0.8580   20.1920 H   0  0  0  0  0  0  0  0  0  0  0  0
    4.2460    3.4690   20.8770 H   0  0  0  0  0  0  0  0  0  0  0  0
    2.8480    2.4250   21.0490 H   0  0  0  0  0  0  0  0  0  0  0  0
    4.0050    5.4080   17.9970 C   0  0  0  0  0  0  0  0  0  0  0  0
    3.7450    4.8810   17.0750 H   0  0  0  0  0  0  0  0  0  0  0  0
    3.9380    6.4800   17.7890 H   0  0  0  0  0  0  0  0  0  0  0  0
    6.1290    4.2650   17.4760 N   0  0  0  0  0  0  0  0  0  0  0  0
    5.4640    5.0820   18.3460 C   0  0  0  0  0  0  0  0  0  0  0  0
    6.0100    5.4930   19.3650 O   0  0  0  0  0  0  0  0  0  0  0  0
    5.7690    4.1330   16.5380 H   0  0  0  0  0  0  0  0  0  0  0  0
    7.1190    4.1290   17.6360 H   0  0  0  0  0  0  0  0  0  0  0  0
    2.4900    7.4730   19.4050 C   0  0  0  0  0  0  0  0  0  0  0  0
    2.3900    7.6430   18.3270 H   0  0  0  0  0  0  0  0  0  0  0  0
    3.5170    7.7360   19.6730 H   0  0  0  0  0  0  0  0  0  0  0  0
    1.5690    8.4120   20.1520 C   0  0  0  0  0  0  0  0  0  0  0  0
    0.7870    9.3430   19.4550 C   0  0  0  0  0  0  0  0  0  0  0  0
   -0.0580   10.2160   20.1460 C   0  0  0  0  0  0  0  0  0  0  0  0
   -0.1370   10.1740   21.5460 C   0  0  0  0  0  0  0  0  0  0  0  0
    0.6590    9.2530   22.2400 C   0  0  0  0  0  0  0  0  0  0  0  0
    1.5020    8.3790   21.5500 C   0  0  0  0  0  0  0  0  0  0  0  0
    0.8300    9.3970   18.3690 H   0  0  0  0  0  0  0  0  0  0  0  0
   -0.6560   10.9330   19.5850 H   0  0  0  0  0  0  0  0  0  0  0  0
    0.6310    9.2150   23.3300 H   0  0  0  0  0  0  0  0  0  0  0  0
    2.1220    7.6830   22.1130 H   0  0  0  0  0  0  0  0  0  0  0  0
   -1.0300   11.1350   22.2900 C   0  0  0  0  0  0  0  0  0  0  0  0
   -1.6500   10.5660   23.3620 F   0  0  0  0  0  0  0  0  0  0  0  0
   -2.0240   11.6360   21.5070 F   0  0  0  0  0  0  0  0  0  0  0  0
   -0.3620   12.2170   22.7830 F   0  0  0  0  0  0  0  0  0  0  0  0
  1  4  1  0  0  0  0
  1  2  1  0  0  0  0
  2  3  2  0  0  0  0
  4  9  1  0  0  0  0
  4  8  1  0  0  0  0
  5  6  1  0  0  0  0
  5  4  1  0  0  0  0
  6 12  1  0  0  0  0
  6  7  1  0  0  0  0
  7 15  1  0  0  0  0
  7  8  1  0  0  0  0
  8 16  1  0  0  0  0
  8 17  1  0  0  0  0
 10  5  1  0  0  0  0
 11  5  1  0  0  0  0
 13  6  1  0  0  0  0
 14  7  1  0  0  0  0
 18 22  1  0  0  0  0
 18  1  1  0  0  0  0
 19 18  1  0  0  0  0
 20 18  1  0  0  0  0
 21 25  1  0  0  0  0
 21 22  1  0  0  0  0
 22 23  2  0  0  0  0
 24 21  1  0  0  0  0
 26 28  1  0  0  0  0
 26  2  1  0  0  0  0
 26 29  1  0  0  0  0
 27 26  1  0  0  0  0
 29 34  1  0  0  0  0
 30 31  1  0  0  0  0
 30 29  2  0  0  0  0
 31 32  2  0  0  0  0
 32 33  1  0  0  0  0
 32 39  1  0  0  0  0
 33 37  1  0  0  0  0
 34 38  1  0  0  0  0
 34 33  2  0  0  0  0
 35 30  1  0  0  0  0
 36 31  1  0  0  0  0
 39 42  1  0  0  0  0
 39 40  1  0  0  0  0
 41 39  1  0  0  0  0
M  END
>  <MODEL>
15

>  <REMARK>
 VINA RESULT:    -6.187      6.376      8.229
 INTER + INTRA:          -9.215
 INTER:                  -8.680
 INTRA:                  -0.535
 UNBOUND:                -0.858
  Name = 
  6 active torsions:
  status: ('A' for Active; 'I' for Inactive)
    1  A    between atoms: C_2  and  C_4
    2  A    between atoms: C_4  and  N_5
    3  A    between atoms: N_5  and  C_19
    4  A    between atoms: C_6  and  C_8
    5  A    between atoms: C_8  and  C_9
    6  A    between atoms: C_12  and  C_13
                            x       y       z     vdW  Elec       q    Type
                         _______ _______ _______ _____ _____    ______ ____

>  <TORSDO>
F 6

$$$$
=
 OpenBabel07192307433D

 42 43  0  0  0  0  0  0  0  0999 V2000
    2.8460    5.1380   19.1760 N   0  0  0  0  0  0  0  0  0  0  0  0
    2.2080    6.0460   20.0320 C   0  0  0  0  0  0  0  0  0  0  0  0
    1.2800    5.6860   20.7600 O   0  0  0  0  0  0  0  0  0  0  0  0
    2.3130    3.7650   19.1350 C   0  0  0  0  0  0  0  0  0  0  0  0
    2.1490    3.2620   17.6910 C   0  0  0  0  0  0  0  0  0  0  0  0
    2.4150    1.7670   17.7700 C   0  0  0  0  0  0  0  0  0  0  0  0
    3.5320    1.6720   18.7940 C   0  0  0  0  0  0  0  0  0  0  0  0
    3.1340    2.6830   19.8650 C   0  0  0  0  0  0  0  0  0  0  0  0
    1.3200    3.7790   19.6070 H   0  0  0  0  0  0  0  0  0  0  0  0
    2.8820    3.7310   17.0220 H   0  0  0  0  0  0  0  0  0  0  0  0
    1.1550    3.4810   17.2900 H   0  0  0  0  0  0  0  0  0  0  0  0
    1.5210    1.2420   18.1310 H   0  0  0  0  0  0  0  0  0  0  0  0
    2.6970    1.3420   16.8030 H   0  0  0  0  0  0  0  0  0  0  0  0
    4.4860    1.9610   18.3390 H   0  0  0  0  0  0  0  0  0  0  0  0
    3.6410    0.6620   19.1990 H   0  0  0  0  0  0  0  0  0  0  0  0
    4.0030    3.0510   20.4130 H   0  0  0  0  0  0  0  0  0  0  0  0
    2.4890    2.1860   20.5990 H   0  0  0  0  0  0  0  0  0  0  0  0
    3.7750    5.5700   18.1140 C   0  0  0  0  0  0  0  0  0  0  0  0
    3.4360    5.1810   17.1500 H   0  0  0  0  0  0  0  0  0  0  0  0
    3.7730    6.6610   18.0440 H   0  0  0  0  0  0  0  0  0  0  0  0
    5.7090    4.1830   17.4620 N   0  0  0  0  0  0  0  0  0  0  0  0
    5.2220    5.1110   18.3390 C   0  0  0  0  0  0  0  0  0  0  0  0
    5.9100    5.5150   19.2710 O   0  0  0  0  0  0  0  0  0  0  0  0
    5.2420    4.0390   16.5750 H   0  0  0  0  0  0  0  0  0  0  0  0
    6.6920    3.9510   17.5330 H   0  0  0  0  0  0  0  0  0  0  0  0
    2.6850    7.5000   20.0180 C   0  0  0  0  0  0  0  0  0  0  0  0
    3.4930    7.5830   19.2820 H   0  0  0  0  0  0  0  0  0  0  0  0
    3.1080    7.7830   20.9860 H   0  0  0  0  0  0  0  0  0  0  0  0
    1.5970    8.4970   19.6870 C   0  0  0  0  0  0  0  0  0  0  0  0
    0.7570    8.9920   20.6940 C   0  0  0  0  0  0  0  0  0  0  0  0
   -0.2530    9.9070   20.3860 C   0  0  0  0  0  0  0  0  0  0  0  0
   -0.4430   10.3450   19.0670 C   0  0  0  0  0  0  0  0  0  0  0  0
    0.3890    9.8360   18.0600 C   0  0  0  0  0  0  0  0  0  0  0  0
    1.4000    8.9230   18.3670 C   0  0  0  0  0  0  0  0  0  0  0  0
    0.8810    8.6680   21.7250 H   0  0  0  0  0  0  0  0  0  0  0  0
   -0.8970   10.2780   21.1830 H   0  0  0  0  0  0  0  0  0  0  0  0
    0.2490   10.1450   17.0240 H   0  0  0  0  0  0  0  0  0  0  0  0
    2.0230    8.5300   17.5650 H   0  0  0  0  0  0  0  0  0  0  0  0
   -1.5510   11.3130   18.7340 C   0  0  0  0  0  0  0  0  0  0  0  0
   -1.1750   12.2650   17.8340 F   0  0  0  0  0  0  0  0  0  0  0  0
   -1.9970   11.9900   19.8270 F   0  0  0  0  0  0  0  0  0  0  0  0
   -2.6470   10.7090   18.1950 F   0  0  0  0  0  0  0  0  0  0  0  0
  1  2  1  0  0  0  0
  2  3  2  0  0  0  0
  4  1  1  0  0  0  0
  4  9  1  0  0  0  0
  4  8  1  0  0  0  0
  5  6  1  0  0  0  0
  5  4  1  0  0  0  0
  6 12  1  0  0  0  0
  6  7  1  0  0  0  0
  7 15  1  0  0  0  0
  7  8  1  0  0  0  0
  8 16  1  0  0  0  0
  8 17  1  0  0  0  0
 10  5  1  0  0  0  0
 11  5  1  0  0  0  0
 13  6  1  0  0  0  0
 14  7  1  0  0  0  0
 18 22  1  0  0  0  0
 18  1  1  0  0  0  0
 19 18  1  0  0  0  0
 20 18  1  0  0  0  0
 21 25  1  0  0  0  0
 21 22  1  0  0  0  0
 22 23  2  0  0  0  0
 24 21  1  0  0  0  0
 26  2  1  0  0  0  0
 26 28  1  0  0  0  0
 27 26  1  0  0  0  0
 29 26  1  0  0  0  0
 29 30  1  0  0  0  0
 30 35  1  0  0  0  0
 31 30  2  0  0  0  0
 31 36  1  0  0  0  0
 32 31  1  0  0  0  0
 33 34  1  0  0  0  0
 33 32  2  0  0  0  0
 34 29  2  0  0  0  0
 37 33  1  0  0  0  0
 38 34  1  0  0  0  0
 39 32  1  0  0  0  0
 39 41  1  0  0  0  0
 40 39  1  0  0  0  0
 42 39  1  0  0  0  0
M  END
>  <MODEL>
16

>  <REMARK>
 VINA RESULT:    -6.187      5.764      7.422
 INTER + INTRA:          -9.215
 INTER:                  -8.251
 INTRA:                  -0.964
 UNBOUND:                -0.858
  Name = 
  6 active torsions:
  status: ('A' for Active; 'I' for Inactive)
    1  A    between atoms: C_2  and  C_4
    2  A    between atoms: C_4  and  N_5
    3  A    between atoms: N_5  and  C_19
    4  A    between atoms: C_6  and  C_8
    5  A    between atoms: C_8  and  C_9
    6  A    between atoms: C_12  and  C_13
                            x       y       z     vdW  Elec       q    Type
                         _______ _______ _______ _____ _____    ______ ____

>  <TORSDO>
F 6

$$$$
=
 OpenBabel07192307433D

 42 43  0  0  0  0  0  0  0  0999 V2000
    2.7550    5.2590   19.3960 N   0  0  0  0  0  0  0  0  0  0  0  0
    2.7020    6.6290   19.1040 C   0  0  0  0  0  0  0  0  0  0  0  0
    2.9820    7.0490   17.9790 O   0  0  0  0  0  0  0  0  0  0  0  0
    3.2250    4.3610   18.3260 C   0  0  0  0  0  0  0  0  0  0  0  0
    4.1110    3.2330   18.8800 C   0  0  0  0  0  0  0  0  0  0  0  0
    3.8350    2.0450   17.9720 C   0  0  0  0  0  0  0  0  0  0  0  0
    2.3480    2.1700   17.6880 C   0  0  0  0  0  0  0  0  0  0  0  0
    2.1390    3.6660   17.4820 C   0  0  0  0  0  0  0  0  0  0  0  0
    3.8290    4.9610   17.6300 H   0  0  0  0  0  0  0  0  0  0  0  0
    3.8330    2.9800   19.9110 H   0  0  0  0  0  0  0  0  0  0  0  0
    5.1700    3.5070   18.8850 H   0  0  0  0  0  0  0  0  0  0  0  0
    4.4090    2.1370   17.0410 H   0  0  0  0  0  0  0  0  0  0  0  0
    4.0920    1.0920   18.4420 H   0  0  0  0  0  0  0  0  0  0  0  0
    1.7690    1.8240   18.5530 H   0  0  0  0  0  0  0  0  0  0  0  0
    2.0400    1.5840   16.8180 H   0  0  0  0  0  0  0  0  0  0  0  0
    1.1130    3.9630   17.7070 H   0  0  0  0  0  0  0  0  0  0  0  0
    2.3070    3.9040   16.4240 H   0  0  0  0  0  0  0  0  0  0  0  0
    2.6820    4.7400   20.7760 C   0  0  0  0  0  0  0  0  0  0  0  0
    3.6180    4.2340   21.0260 H   0  0  0  0  0  0  0  0  0  0  0  0
    2.5630    5.5710   21.4760 H   0  0  0  0  0  0  0  0  0  0  0  0
    1.7420    2.7610   21.9110 N   0  0  0  0  0  0  0  0  0  0  0  0
    1.5240    3.7580   21.0020 C   0  0  0  0  0  0  0  0  0  0  0  0
    0.4660    3.8260   20.3850 O   0  0  0  0  0  0  0  0  0  0  0  0
    2.4970    2.8490   22.5800 H   0  0  0  0  0  0  0  0  0  0  0  0
    0.9530    2.1730   22.1480 H   0  0  0  0  0  0  0  0  0  0  0  0
    2.3090    7.5870   20.2310 C   0  0  0  0  0  0  0  0  0  0  0  0
    3.2170    8.0940   20.5760 H   0  0  0  0  0  0  0  0  0  0  0  0
    1.9060    7.0390   21.0870 H   0  0  0  0  0  0  0  0  0  0  0  0
    1.2790    8.6180   19.8250 C   0  0  0  0  0  0  0  0  0  0  0  0
    1.2490    9.1130   18.5140 C   0  0  0  0  0  0  0  0  0  0  0  0
    0.3020   10.0710   18.1410 C   0  0  0  0  0  0  0  0  0  0  0  0
   -0.6320   10.5520   19.0700 C   0  0  0  0  0  0  0  0  0  0  0  0
   -0.5890   10.0660   20.3850 C   0  0  0  0  0  0  0  0  0  0  0  0
    0.3560    9.1070   20.7580 C   0  0  0  0  0  0  0  0  0  0  0  0
    1.9620    8.7580   17.7730 H   0  0  0  0  0  0  0  0  0  0  0  0
    0.2970   10.4440   17.1180 H   0  0  0  0  0  0  0  0  0  0  0  0
   -1.2910   10.4390   21.1310 H   0  0  0  0  0  0  0  0  0  0  0  0
    0.3790    8.7570   21.7880 H   0  0  0  0  0  0  0  0  0  0  0  0
   -1.6350   11.6050   18.6720 C   0  0  0  0  0  0  0  0  0  0  0  0
   -2.1170   12.3120   19.7330 F   0  0  0  0  0  0  0  0  0  0  0  0
   -2.7250   11.0780   18.0500 F   0  0  0  0  0  0  0  0  0  0  0  0
   -1.1260   12.5330   17.8120 F   0  0  0  0  0  0  0  0  0  0  0  0
  1 18  1  0  0  0  0
  2  1  1  0  0  0  0
  2 26  1  0  0  0  0
  3  2  2  0  0  0  0
  4  5  1  0  0  0  0
  4  1  1  0  0  0  0
  5 11  1  0  0  0  0
  5 10  1  0  0  0  0
  6 13  1  0  0  0  0
  6  5  1  0  0  0  0
  7  6  1  0  0  0  0
  7 14  1  0  0  0  0
  8  7  1  0  0  0  0
  8 16  1  0  0  0  0
  8  4  1  0  0  0  0
  9  4  1  0  0  0  0
 12  6  1  0  0  0  0
 15  7  1  0  0  0  0
 17  8  1  0  0  0  0
 18 22  1  0  0  0  0
 18 19  1  0  0  0  0
 18 20  1  0  0  0  0
 21 25  1  0  0  0  0
 21 24  1  0  0  0  0
 22 21  1  0  0  0  0
 23 22  2  0  0  0  0
 26 27  1  0  0  0  0
 26 28  1  0  0  0  0
 29 26  1  0  0  0  0
 29 34  1  0  0  0  0
 30 29  2  0  0  0  0
 31 30  1  0  0  0  0
 31 32  2  0  0  0  0
 32 33  1  0  0  0  0
 33 34  2  0  0  0  0
 33 37  1  0  0  0  0
 34 38  1  0  0  0  0
 35 30  1  0  0  0  0
 36 31  1  0  0  0  0
 39 32  1  0  0  0  0
 39 40  1  0  0  0  0
 41 39  1  0  0  0  0
 42 39  1  0  0  0  0
M  END
>  <MODEL>
17

>  <REMARK>
 VINA RESULT:    -6.111      5.920      7.613
 INTER + INTRA:          -9.113
 INTER:                  -8.989
 INTRA:                  -0.124
 UNBOUND:                -0.858
  Name = 
  6 active torsions:
  status: ('A' for Active; 'I' for Inactive)
    1  A    between atoms: C_2  and  C_4
    2  A    between atoms: C_4  and  N_5
    3  A    between atoms: N_5  and  C_19
    4  A    between atoms: C_6  and  C_8
    5  A    between atoms: C_8  and  C_9
    6  A    between atoms: C_12  and  C_13
                            x       y       z     vdW  Elec       q    Type
                         _______ _______ _______ _____ _____    ______ ____

>  <TORSDO>
F 6

$$$$
=
 OpenBabel07192307433D

 42 43  0  0  0  0  0  0  0  0999 V2000
    6.1300    4.9750   16.6060 N   0  0  0  0  0  0  0  0  0  0  0  0
    5.2130    5.9910   16.2980 C   0  0  0  0  0  0  0  0  0  0  0  0
    5.0350    6.3510   15.1320 O   0  0  0  0  0  0  0  0  0  0  0  0
    6.9140    4.4160   15.4910 C   0  0  0  0  0  0  0  0  0  0  0  0
    6.0240    3.6430   14.5030 C   0  0  0  0  0  0  0  0  0  0  0  0
    6.6790    3.8550   13.1470 C   0  0  0  0  0  0  0  0  0  0  0  0
    7.1620    5.2920   13.2220 C   0  0  0  0  0  0  0  0  0  0  0  0
    7.7130    5.4210   14.6380 C   0  0  0  0  0  0  0  0  0  0  0  0
    7.6440    3.7130   15.9160 H   0  0  0  0  0  0  0  0  0  0  0  0
    5.0040    4.0490   14.4860 H   0  0  0  0  0  0  0  0  0  0  0  0
    5.9490    2.5830   14.7610 H   0  0  0  0  0  0  0  0  0  0  0  0
    7.5300    3.1720   13.0260 H   0  0  0  0  0  0  0  0  0  0  0  0
    5.9850    3.6900   12.3190 H   0  0  0  0  0  0  0  0  0  0  0  0
    6.3210    5.9810   13.0810 H   0  0  0  0  0  0  0  0  0  0  0  0
    7.9160    5.5180   12.4620 H   0  0  0  0  0  0  0  0  0  0  0  0
    7.6850    6.4540   14.9880 H   0  0  0  0  0  0  0  0  0  0  0  0
    8.7690    5.1210   14.6350 H   0  0  0  0  0  0  0  0  0  0  0  0
    6.5620    4.6910   17.9890 C   0  0  0  0  0  0  0  0  0  0  0  0
    5.6880    4.6550   18.6440 H   0  0  0  0  0  0  0  0  0  0  0  0
    7.0420    3.7100   18.0300 H   0  0  0  0  0  0  0  0  0  0  0  0
    7.9950    5.5110   19.8220 N   0  0  0  0  0  0  0  0  0  0  0  0
    7.5460    5.7270   18.5490 C   0  0  0  0  0  0  0  0  0  0  0  0
    7.8950    6.7200   17.9200 O   0  0  0  0  0  0  0  0  0  0  0  0
    7.9050    4.5910   20.2360 H   0  0  0  0  0  0  0  0  0  0  0  0
    8.7240    6.1250   20.1640 H   0  0  0  0  0  0  0  0  0  0  0  0
    4.4590    6.6500   17.4550 C   0  0  0  0  0  0  0  0  0  0  0  0
    3.8440    7.4570   17.0410 H   0  0  0  0  0  0  0  0  0  0  0  0
    5.1540    7.1110   18.1630 H   0  0  0  0  0  0  0  0  0  0  0  0
    3.5810    5.6960   18.2340 C   0  0  0  0  0  0  0  0  0  0  0  0
    3.5550    5.7370   19.6340 C   0  0  0  0  0  0  0  0  0  0  0  0
    2.7490    4.8500   20.3530 C   0  0  0  0  0  0  0  0  0  0  0  0
    1.9550    3.9060   19.6870 C   0  0  0  0  0  0  0  0  0  0  0  0
    1.9960    3.8560   18.2860 C   0  0  0  0  0  0  0  0  0  0  0  0
    2.7990    4.7440   17.5670 C   0  0  0  0  0  0  0  0  0  0  0  0
    4.1620    6.4590   20.1760 H   0  0  0  0  0  0  0  0  0  0  0  0
    2.7450    4.8970   21.4420 H   0  0  0  0  0  0  0  0  0  0  0  0
    1.4030    3.1180   17.7460 H   0  0  0  0  0  0  0  0  0  0  0  0
    2.8250    4.6750   16.4810 H   0  0  0  0  0  0  0  0  0  0  0  0
    1.1070    2.9320   20.4670 C   0  0  0  0  0  0  0  0  0  0  0  0
    1.0020    3.2550   21.7870 F   0  0  0  0  0  0  0  0  0  0  0  0
    1.6020    1.6650   20.4320 F   0  0  0  0  0  0  0  0  0  0  0  0
   -0.1730    2.8460   20.0060 F   0  0  0  0  0  0  0  0  0  0  0  0
  1 18  1  0  0  0  0
  2  1  1  0  0  0  0
  2 26  1  0  0  0  0
  3  2  2  0  0  0  0
  4  9  1  0  0  0  0
  4  1  1  0  0  0  0
  5 11  1  0  0  0  0
  5  4  1  0  0  0  0
  6  7  1  0  0  0  0
  6  5  1  0  0  0  0
  7  8  1  0  0  0  0
  8 16  1  0  0  0  0
  8  4  1  0  0  0  0
 10  5  1  0  0  0  0
 12  6  1  0  0  0  0
 13  6  1  0  0  0  0
 14  7  1  0  0  0  0
 15  7  1  0  0  0  0
 17  8  1  0  0  0  0
 18 20  1  0  0  0  0
 18 22  1  0  0  0  0
 18 19  1  0  0  0  0
 21 25  1  0  0  0  0
 21 24  1  0  0  0  0
 22 21  1  0  0  0  0
 23 22  2  0  0  0  0
 26 28  1  0  0  0  0
 26 29  1  0  0  0  0
 27 26  1  0  0  0  0
 29 30  1  0  0  0  0
 30 35  1  0  0  0  0
 30 31  2  0  0  0  0
 31 36  1  0  0  0  0
 32 31  1  0  0  0  0
 32 39  1  0  0  0  0
 33 32  2  0  0  0  0
 34 29  2  0  0  0  0
 34 33  1  0  0  0  0
 37 33  1  0  0  0  0
 38 34  1  0  0  0  0
 39 40  1  0  0  0  0
 41 39  1  0  0  0  0
 42 39  1  0  0  0  0
M  END
>  <MODEL>
18

>  <REMARK>
 VINA RESULT:    -6.110      4.179      6.746
 INTER + INTRA:          -9.111
 INTER:                  -9.708
 INTRA:                   0.596
 UNBOUND:                -0.858
  Name = 
  6 active torsions:
  status: ('A' for Active; 'I' for Inactive)
    1  A    between atoms: C_2  and  C_4
    2  A    between atoms: C_4  and  N_5
    3  A    between atoms: N_5  and  C_19
    4  A    between atoms: C_6  and  C_8
    5  A    between atoms: C_8  and  C_9
    6  A    between atoms: C_12  and  C_13
                            x       y       z     vdW  Elec       q    Type
                         _______ _______ _______ _____ _____    ______ ____

>  <TORSDO>
F 6

$$$$
=
 OpenBabel07192307433D

 42 43  0  0  0  0  0  0  0  0999 V2000
    2.4020    5.3260   19.1580 N   0  0  0  0  0  0  0  0  0  0  0  0
    1.9640    6.3070   20.0600 C   0  0  0  0  0  0  0  0  0  0  0  0
    1.4250    5.9940   21.1240 O   0  0  0  0  0  0  0  0  0  0  0  0
    2.1220    3.9220   19.5050 C   0  0  0  0  0  0  0  0  0  0  0  0
    1.3790    3.1940   18.3720 C   0  0  0  0  0  0  0  0  0  0  0  0
    1.8710    1.7570   18.4500 C   0  0  0  0  0  0  0  0  0  0  0  0
    3.3370    1.9160   18.8120 C   0  0  0  0  0  0  0  0  0  0  0  0
    3.3400    3.0390   19.8440 C   0  0  0  0  0  0  0  0  0  0  0  0
    1.4750    3.9210   20.3940 H   0  0  0  0  0  0  0  0  0  0  0  0
    1.6360    3.6180   17.3930 H   0  0  0  0  0  0  0  0  0  0  0  0
    0.2930    3.2620   18.4820 H   0  0  0  0  0  0  0  0  0  0  0  0
    1.3390    1.2170   19.2430 H   0  0  0  0  0  0  0  0  0  0  0  0
    1.7290    1.2170   17.5100 H   0  0  0  0  0  0  0  0  0  0  0  0
    3.9140    2.2150   17.9280 H   0  0  0  0  0  0  0  0  0  0  0  0
    3.7720    0.9920   19.2030 H   0  0  0  0  0  0  0  0  0  0  0  0
    4.2990    3.5600   19.8680 H   0  0  0  0  0  0  0  0  0  0  0  0
    3.1950    2.6040   20.8400 H   0  0  0  0  0  0  0  0  0  0  0  0
    2.8120    5.6470   17.7770 C   0  0  0  0  0  0  0  0  0  0  0  0
    2.1630    5.1230   17.0710 H   0  0  0  0  0  0  0  0  0  0  0  0
    2.6910    6.7200   17.5970 H   0  0  0  0  0  0  0  0  0  0  0  0
    5.2300    5.9500   18.1650 N   0  0  0  0  0  0  0  0  0  0  0  0
    4.2680    5.2750   17.4680 C   0  0  0  0  0  0  0  0  0  0  0  0
    4.5750    4.4450   16.6170 O   0  0  0  0  0  0  0  0  0  0  0  0
    4.9810    6.4390   19.0170 H   0  0  0  0  0  0  0  0  0  0  0  0
    6.1870    5.6400   18.0500 H   0  0  0  0  0  0  0  0  0  0  0  0
    2.1600    7.7740   19.6730 C   0  0  0  0  0  0  0  0  0  0  0  0
    1.9760    7.8660   18.5960 H   0  0  0  0  0  0  0  0  0  0  0  0
    3.1920    8.0910   19.8470 H   0  0  0  0  0  0  0  0  0  0  0  0
    1.2570    8.7290   20.4220 C   0  0  0  0  0  0  0  0  0  0  0  0
    1.2130    8.7140   21.8220 C   0  0  0  0  0  0  0  0  0  0  0  0
    0.3730    9.5910   22.5130 C   0  0  0  0  0  0  0  0  0  0  0  0
   -0.4390   10.5000   21.8180 C   0  0  0  0  0  0  0  0  0  0  0  0
   -0.4050   10.5010   20.4170 C   0  0  0  0  0  0  0  0  0  0  0  0
    0.4360    9.6260   19.7250 C   0  0  0  0  0  0  0  0  0  0  0  0
    1.8320    8.0200   22.3860 H   0  0  0  0  0  0  0  0  0  0  0  0
    0.3530    9.5620   23.6020 H   0  0  0  0  0  0  0  0  0  0  0  0
   -1.0420   11.1830   19.8530 H   0  0  0  0  0  0  0  0  0  0  0  0
    0.4330    9.6350   18.6370 H   0  0  0  0  0  0  0  0  0  0  0  0
   -1.3640   11.4270   22.5660 C   0  0  0  0  0  0  0  0  0  0  0  0
   -0.7160   12.4810   23.1380 F   0  0  0  0  0  0  0  0  0  0  0  0
   -2.0210   10.8000   23.5800 F   0  0  0  0  0  0  0  0  0  0  0  0
   -2.3310   11.9740   21.7760 F   0  0  0  0  0  0  0  0  0  0  0  0
  1  4  1  0  0  0  0
  1  2  1  0  0  0  0
  2  3  2  0  0  0  0
  4  8  1  0  0  0  0
  4  9  1  0  0  0  0
  5  6  1  0  0  0  0
  5 11  1  0  0  0  0
  5  4  1  0  0  0  0
  6  7  1  0  0  0  0
  6 12  1  0  0  0  0
  7 15  1  0  0  0  0
  7  8  1  0  0  0  0
  8 16  1  0  0  0  0
  8 17  1  0  0  0  0
 10  5  1  0  0  0  0
 13  6  1  0  0  0  0
 14  7  1  0  0  0  0
 18  1  1  0  0  0  0
 19 18  1  0  0  0  0
 20 18  1  0  0  0  0
 21 24  1  0  0  0  0
 22 18  1  0  0  0  0
 22 21  1  0  0  0  0
 23 22  2  0  0  0  0
 25 21  1  0  0  0  0
 26 28  1  0  0  0  0
 26  2  1  0  0  0  0
 26 29  1  0  0  0  0
 27 26  1  0  0  0  0
 29 30  1  0  0  0  0
 30 35  1  0  0  0  0
 30 31  2  0  0  0  0
 31 36  1  0  0  0  0
 32 31  1  0  0  0  0
 32 39  1  0  0  0  0
 33 32  2  0  0  0  0
 34 33  1  0  0  0  0
 34 29  2  0  0  0  0
 37 33  1  0  0  0  0
 38 34  1  0  0  0  0
 39 40  1  0  0  0  0
 39 41  1  0  0  0  0
 42 39  1  0  0  0  0
M  END
>  <MODEL>
19

>  <REMARK>
 VINA RESULT:    -6.100      6.651      8.552
 INTER + INTRA:          -9.097
 INTER:                  -8.748
 INTRA:                  -0.349
 UNBOUND:                -0.858
  Name = 
  6 active torsions:
  status: ('A' for Active; 'I' for Inactive)
    1  A    between atoms: C_2  and  C_4
    2  A    between atoms: C_4  and  N_5
    3  A    between atoms: N_5  and  C_19
    4  A    between atoms: C_6  and  C_8
    5  A    between atoms: C_8  and  C_9
    6  A    between atoms: C_12  and  C_13
                            x       y       z     vdW  Elec       q    Type
                         _______ _______ _______ _____ _____    ______ ____

>  <TORSDO>
F 6

$$$$
=
 OpenBabel07192307433D

 42 43  0  0  0  0  0  0  0  0999 V2000
    5.0120    5.5700   18.1190 N   0  0  0  0  0  0  0  0  0  0  0  0
    3.9660    6.2740   17.5050 C   0  0  0  0  0  0  0  0  0  0  0  0
    4.1860    7.0510   16.5730 O   0  0  0  0  0  0  0  0  0  0  0  0
    6.3790    5.8540   17.6500 C   0  0  0  0  0  0  0  0  0  0  0  0
    6.5880    7.3550   17.3850 C   0  0  0  0  0  0  0  0  0  0  0  0
    8.0470    7.6070   17.7280 C   0  0  0  0  0  0  0  0  0  0  0  0
    8.2760    6.7130   18.9330 C   0  0  0  0  0  0  0  0  0  0  0  0
    7.5310    5.4290   18.5820 C   0  0  0  0  0  0  0  0  0  0  0  0
    6.5250    5.3160   16.7030 H   0  0  0  0  0  0  0  0  0  0  0  0
    5.9470    7.9650   18.0340 H   0  0  0  0  0  0  0  0  0  0  0  0
    6.3570    7.6250   16.3500 H   0  0  0  0  0  0  0  0  0  0  0  0
    8.6910    7.2980   16.8950 H   0  0  0  0  0  0  0  0  0  0  0  0
    8.2480    8.6600   17.9450 H   0  0  0  0  0  0  0  0  0  0  0  0
    7.8400    7.1690   19.8290 H   0  0  0  0  0  0  0  0  0  0  0  0
    9.3380    6.5370   19.1250 H   0  0  0  0  0  0  0  0  0  0  0  0
    7.2270    4.8840   19.4770 H   0  0  0  0  0  0  0  0  0  0  0  0
    8.2080    4.7670   18.0280 H   0  0  0  0  0  0  0  0  0  0  0  0
    4.8350    4.8370   19.3870 C   0  0  0  0  0  0  0  0  0  0  0  0
    5.7350    4.9410   19.9990 H   0  0  0  0  0  0  0  0  0  0  0  0
    4.0050    5.2720   19.9520 H   0  0  0  0  0  0  0  0  0  0  0  0
    4.4350    2.9030   17.9070 N   0  0  0  0  0  0  0  0  0  0  0  0
    4.5480    3.3410   19.1970 C   0  0  0  0  0  0  0  0  0  0  0  0
    4.3880    2.5700   20.1380 O   0  0  0  0  0  0  0  0  0  0  0  0
    4.8010    3.4700   17.1520 H   0  0  0  0  0  0  0  0  0  0  0  0
    4.3520    1.9040   17.7650 H   0  0  0  0  0  0  0  0  0  0  0  0
    2.5490    6.0640   18.0430 C   0  0  0  0  0  0  0  0  0  0  0  0
    2.5570    5.1680   18.6740 H   0  0  0  0  0  0  0  0  0  0  0  0
    1.8450    5.8720   17.2280 H   0  0  0  0  0  0  0  0  0  0  0  0
    2.0160    7.2360   18.8380 C   0  0  0  0  0  0  0  0  0  0  0  0
    1.8260    7.1280   20.2220 C   0  0  0  0  0  0  0  0  0  0  0  0
    1.3270    8.2080   20.9540 C   0  0  0  0  0  0  0  0  0  0  0  0
    1.0090    9.4170   20.3170 C   0  0  0  0  0  0  0  0  0  0  0  0
    1.1860    9.5160   18.9300 C   0  0  0  0  0  0  0  0  0  0  0  0
    1.6870    8.4380   18.1980 C   0  0  0  0  0  0  0  0  0  0  0  0
    2.0630    6.2010   20.7410 H   0  0  0  0  0  0  0  0  0  0  0  0
    1.1840    8.1020   22.0290 H   0  0  0  0  0  0  0  0  0  0  0  0
    0.9270   10.4380   18.4090 H   0  0  0  0  0  0  0  0  0  0  0  0
    1.8000    8.5350   17.1200 H   0  0  0  0  0  0  0  0  0  0  0  0
    0.4460   10.5720   21.1070 C   0  0  0  0  0  0  0  0  0  0  0  0
    1.2270   11.6880   21.0500 F   0  0  0  0  0  0  0  0  0  0  0  0
    0.3080   10.2810   22.4290 F   0  0  0  0  0  0  0  0  0  0  0  0
   -0.7880   10.9640   20.6790 F   0  0  0  0  0  0  0  0  0  0  0  0
  1 18  1  0  0  0  0
  2 26  1  0  0  0  0
  2  1  1  0  0  0  0
  3  2  2  0  0  0  0
  4  1  1  0  0  0  0
  4  8  1  0  0  0  0
  5  4  1  0  0  0  0
  5  6  1  0  0  0  0
  5 10  1  0  0  0  0
  6 13  1  0  0  0  0
  6  7  1  0  0  0  0
  7 15  1  0  0  0  0
  7 14  1  0  0  0  0
  8  7  1  0  0  0  0
  8 16  1  0  0  0  0
  9  4  1  0  0  0  0
 11  5  1  0  0  0  0
 12  6  1  0  0  0  0
 17  8  1  0  0  0  0
 18 20  1  0  0  0  0
 18 19  1  0  0  0  0
 21 22  1  0  0  0  0
 22 18  1  0  0  0  0
 22 23  2  0  0  0  0
 24 21  1  0  0  0  0
 25 21  1  0  0  0  0
 26 27  1  0  0  0  0
 26 29  1  0  0  0  0
 28 26  1  0  0  0  0
 29 30  1  0  0  0  0
 30 35  1  0  0  0  0
 30 31  2  0  0  0  0
 31 36  1  0  0  0  0
 32 31  1  0  0  0  0
 32 39  1  0  0  0  0
 33 32  2  0  0  0  0
 34 29  2  0  0  0  0
 34 33  1  0  0  0  0
 37 33  1  0  0  0  0
 38 34  1  0  0  0  0
 39 41  1  0  0  0  0
 40 39  1  0  0  0  0
 42 39  1  0  0  0  0
M  END
>  <MODEL>
20

>  <REMARK>
 VINA RESULT:    -6.087      5.492      7.626
 INTER + INTRA:          -9.080
 INTER:                  -9.240
 INTRA:                   0.160
 UNBOUND:                -0.858
  Name = 
  6 active torsions:
  status: ('A' for Active; 'I' for Inactive)
    1  A    between atoms: C_2  and  C_4
    2  A    between atoms: C_4  and  N_5
    3  A    between atoms: N_5  and  C_19
    4  A    between atoms: C_6  and  C_8
    5  A    between atoms: C_8  and  C_9
    6  A    between atoms: C_12  and  C_13
                            x       y       z     vdW  Elec       q    Type
                         _______ _______ _______ _____ _____    ______ ____

>  <TORSDO>
F 6

$$$$
=
 OpenBabel07192307433D

 42 43  0  0  0  0  0  0  0  0999 V2000
    4.0360    5.1940   17.6380 N   0  0  0  0  0  0  0  0  0  0  0  0
    4.0610    6.5960   17.6160 C   0  0  0  0  0  0  0  0  0  0  0  0
    5.1130    7.2140   17.7990 O   0  0  0  0  0  0  0  0  0  0  0  0
    5.2970    4.5040   17.9590 C   0  0  0  0  0  0  0  0  0  0  0  0
    6.2680    4.5120   16.7660 C   0  0  0  0  0  0  0  0  0  0  0  0
    7.6510    4.5690   17.3950 C   0  0  0  0  0  0  0  0  0  0  0  0
    7.4470    5.4850   18.5880 C   0  0  0  0  0  0  0  0  0  0  0  0
    6.0990    5.0530   19.1560 C   0  0  0  0  0  0  0  0  0  0  0  0
    5.0540    3.4580   18.1950 H   0  0  0  0  0  0  0  0  0  0  0  0
    6.1140    5.3960   16.1350 H   0  0  0  0  0  0  0  0  0  0  0  0
    6.1440    3.6310   16.1290 H   0  0  0  0  0  0  0  0  0  0  0  0
    7.9570    3.5700   17.7300 H   0  0  0  0  0  0  0  0  0  0  0  0
    8.4080    4.9470   16.7030 H   0  0  0  0  0  0  0  0  0  0  0  0
    7.3990    6.5300   18.2580 H   0  0  0  0  0  0  0  0  0  0  0  0
    8.2530    5.3990   19.3220 H   0  0  0  0  0  0  0  0  0  0  0  0
    5.6170    5.8620   19.7060 H   0  0  0  0  0  0  0  0  0  0  0  0
    6.2620    4.2400   19.8740 H   0  0  0  0  0  0  0  0  0  0  0  0
    2.7760    4.4260   17.6810 C   0  0  0  0  0  0  0  0  0  0  0  0
    1.9510    5.0920   17.9480 H   0  0  0  0  0  0  0  0  0  0  0  0
    2.5590    4.0180   16.6900 H   0  0  0  0  0  0  0  0  0  0  0  0
    2.6690    3.5890   20.0000 N   0  0  0  0  0  0  0  0  0  0  0  0
    2.8020    3.2610   18.6790 C   0  0  0  0  0  0  0  0  0  0  0  0
    2.9680    2.0950   18.3350 O   0  0  0  0  0  0  0  0  0  0  0  0
    2.2940    4.4940   20.2560 H   0  0  0  0  0  0  0  0  0  0  0  0
    2.5770    2.8250   20.6580 H   0  0  0  0  0  0  0  0  0  0  0  0
    2.7410    7.3330   17.3790 C   0  0  0  0  0  0  0  0  0  0  0  0
    2.0450    6.6330   16.9020 H   0  0  0  0  0  0  0  0  0  0  0  0
    2.8770    8.1670   16.6860 H   0  0  0  0  0  0  0  0  0  0  0  0
    2.1150    7.8860   18.6400 C   0  0  0  0  0  0  0  0  0  0  0  0
    2.1830    7.1660   19.8410 C   0  0  0  0  0  0  0  0  0  0  0  0
    1.5980    7.6740   21.0040 C   0  0  0  0  0  0  0  0  0  0  0  0
    0.9350    8.9100   20.9900 C   0  0  0  0  0  0  0  0  0  0  0  0
    0.8550    9.6190   19.7830 C   0  0  0  0  0  0  0  0  0  0  0  0
    1.4410    9.1130   18.6210 C   0  0  0  0  0  0  0  0  0  0  0  0
    2.6910    6.2050   19.8800 H   0  0  0  0  0  0  0  0  0  0  0  0
    1.6600    7.0970   21.9270 H   0  0  0  0  0  0  0  0  0  0  0  0
    0.3270   10.5720   19.7410 H   0  0  0  0  0  0  0  0  0  0  0  0
    1.3520    9.6760   17.6930 H   0  0  0  0  0  0  0  0  0  0  0  0
    0.2820    9.4420   22.2400 C   0  0  0  0  0  0  0  0  0  0  0  0
   -0.0670   10.7560   22.1420 F   0  0  0  0  0  0  0  0  0  0  0  0
    1.0920    9.3530   23.3300 F   0  0  0  0  0  0  0  0  0  0  0  0
   -0.8630    8.7810   22.5710 F   0  0  0  0  0  0  0  0  0  0  0  0
  1 18  1  0  0  0  0
  1  4  1  0  0  0  0
  2  1  1  0  0  0  0
  2  3  2  0  0  0  0
  4  9  1  0  0  0  0
  4  8  1  0  0  0  0
  5  6  1  0  0  0  0
  5  4  1  0  0  0  0
  6 12  1  0  0  0  0
  6  7  1  0  0  0  0
  7  8  1  0  0  0  0
  7 15  1  0  0  0  0
  8 16  1  0  0  0  0
  8 17  1  0  0  0  0
 10  5  1  0  0  0  0
 11  5  1  0  0  0  0
 13  6  1  0  0  0  0
 14  7  1  0  0  0  0
 18 19  1  0  0  0  0
 18 22  1  0  0  0  0
 20 18  1  0  0  0  0
 21 24  1  0  0  0  0
 21 25  1  0  0  0  0
 22 21  1  0  0  0  0
 23 22  2  0  0  0  0
 26  2  1  0  0  0  0
 26 29  1  0  0  0  0
 27 26  1  0  0  0  0
 28 26  1  0  0  0  0
 29 30  1  0  0  0  0
 30 35  1  0  0  0  0
 30 31  2  0  0  0  0
 31 36  1  0  0  0  0
 32 31  1  0  0  0  0
 32 39  1  0  0  0  0
 33 32  2  0  0  0  0
 34 29  2  0  0  0  0
 34 33  1  0  0  0  0
 37 33  1  0  0  0  0
 38 34  1  0  0  0  0
 39 42  1  0  0  0  0
 39 41  1  0  0  0  0
 40 39  1  0  0  0  0
M  END
>  <MODEL>
21

>  <REMARK>
 VINA RESULT:    -6.081      5.545      7.600
 INTER + INTRA:          -9.072
 INTER:                  -9.278
 INTRA:                   0.207
 UNBOUND:                -0.858
  Name = 
  6 active torsions:
  status: ('A' for Active; 'I' for Inactive)
    1  A    between atoms: C_2  and  C_4
    2  A    between atoms: C_4  and  N_5
    3  A    between atoms: N_5  and  C_19
    4  A    between atoms: C_6  and  C_8
    5  A    between atoms: C_8  and  C_9
    6  A    between atoms: C_12  and  C_13
                            x       y       z     vdW  Elec       q    Type
                         _______ _______ _______ _____ _____    ______ ____

>  <TORSDO>
F 6

$$$$
=
 OpenBabel07192307433D

 42 43  0  0  0  0  0  0  0  0999 V2000
    0.5830   11.4500   18.9410 N   0  0  0  0  0  0  0  0  0  0  0  0
    0.6300   10.2120   18.2840 C   0  0  0  0  0  0  0  0  0  0  0  0
   -0.3920    9.7020   17.8190 O   0  0  0  0  0  0  0  0  0  0  0  0
   -0.7440   12.0700   19.1120 C   0  0  0  0  0  0  0  0  0  0  0  0
   -1.3030   11.8330   20.5260 C   0  0  0  0  0  0  0  0  0  0  0  0
   -2.1210   13.0790   20.8290 C   0  0  0  0  0  0  0  0  0  0  0  0
   -1.3010   14.1890   20.1970 C   0  0  0  0  0  0  0  0  0  0  0  0
   -0.8310   13.5900   18.8750 C   0  0  0  0  0  0  0  0  0  0  0  0
   -1.4270   11.5990   18.3910 H   0  0  0  0  0  0  0  0  0  0  0  0
   -0.4940   11.7360   21.2610 H   0  0  0  0  0  0  0  0  0  0  0  0
   -1.9070   10.9230   20.5810 H   0  0  0  0  0  0  0  0  0  0  0  0
   -3.1060   13.0120   20.3510 H   0  0  0  0  0  0  0  0  0  0  0  0
   -2.2690   13.2280   21.9020 H   0  0  0  0  0  0  0  0  0  0  0  0
   -0.4380   14.4290   20.8300 H   0  0  0  0  0  0  0  0  0  0  0  0
   -1.8810   15.1050   20.0540 H   0  0  0  0  0  0  0  0  0  0  0  0
    0.0900   14.0600   18.5260 H   0  0  0  0  0  0  0  0  0  0  0  0
   -1.5900   13.7850   18.1080 H   0  0  0  0  0  0  0  0  0  0  0  0
    1.7160   11.9720   19.7290 C   0  0  0  0  0  0  0  0  0  0  0  0
    1.3610   12.2910   20.7130 H   0  0  0  0  0  0  0  0  0  0  0  0
    2.4500   11.1770   19.8900 H   0  0  0  0  0  0  0  0  0  0  0  0
    2.9300   12.9370   17.8100 N   0  0  0  0  0  0  0  0  0  0  0  0
    2.4330   13.1550   19.0650 C   0  0  0  0  0  0  0  0  0  0  0  0
    2.5950   14.2340   19.6260 O   0  0  0  0  0  0  0  0  0  0  0  0
    2.5900   12.1520   17.2660 H   0  0  0  0  0  0  0  0  0  0  0  0
    3.3100   13.7360   17.3190 H   0  0  0  0  0  0  0  0  0  0  0  0
    1.9850    9.5080   18.1810 C   0  0  0  0  0  0  0  0  0  0  0  0
    2.7370   10.1540   18.6470 H   0  0  0  0  0  0  0  0  0  0  0  0
    2.2800    9.3790   17.1360 H   0  0  0  0  0  0  0  0  0  0  0  0
    2.0150    8.1450   18.8350 C   0  0  0  0  0  0  0  0  0  0  0  0
    2.4210    7.0170   18.1090 C   0  0  0  0  0  0  0  0  0  0  0  0
    2.4420    5.7570   18.7120 C   0  0  0  0  0  0  0  0  0  0  0  0
    2.0580    5.5990   20.0520 C   0  0  0  0  0  0  0  0  0  0  0  0
    1.6360    6.7260   20.7700 C   0  0  0  0  0  0  0  0  0  0  0  0
    1.6170    7.9870   20.1690 C   0  0  0  0  0  0  0  0  0  0  0  0
    2.7240    7.1110   17.0680 H   0  0  0  0  0  0  0  0  0  0  0  0
    2.7590    4.8930   18.1290 H   0  0  0  0  0  0  0  0  0  0  0  0
    1.3130    6.6270   21.8070 H   0  0  0  0  0  0  0  0  0  0  0  0
    1.2720    8.8440   20.7440 H   0  0  0  0  0  0  0  0  0  0  0  0
    2.0560    4.2330   20.6910 C   0  0  0  0  0  0  0  0  0  0  0  0
    2.9060    3.3580   20.0820 F   0  0  0  0  0  0  0  0  0  0  0  0
    0.8290    3.6440   20.6590 F   0  0  0  0  0  0  0  0  0  0  0  0
    2.4260    4.2540   22.0030 F   0  0  0  0  0  0  0  0  0  0  0  0
  1  4  1  0  0  0  0
  1 18  1  0  0  0  0
  2  1  1  0  0  0  0
  3  2  2  0  0  0  0
  4  5  1  0  0  0  0
  5 11  1  0  0  0  0
  5  6  1  0  0  0  0
  5 10  1  0  0  0  0
  6 13  1  0  0  0  0
  7  6  1  0  0  0  0
  7 14  1  0  0  0  0
  8  4  1  0  0  0  0
  8  7  1  0  0  0  0
  9  4  1  0  0  0  0
 12  6  1  0  0  0  0
 15  7  1  0  0  0  0
 16  8  1  0  0  0  0
 17  8  1  0  0  0  0
 18 20  1  0  0  0  0
 18 19  1  0  0  0  0
 21 22  1  0  0  0  0
 22 23  2  0  0  0  0
 22 18  1  0  0  0  0
 24 21  1  0  0  0  0
 25 21  1  0  0  0  0
 26  2  1  0  0  0  0
 26 27  1  0  0  0  0
 26 29  1  0  0  0  0
 28 26  1  0  0  0  0
 29 34  1  0  0  0  0
 30 31  1  0  0  0  0
 30 29  2  0  0  0  0
 31 32  2  0  0  0  0
 32 39  1  0  0  0  0
 32 33  1  0  0  0  0
 33 37  1  0  0  0  0
 34 38  1  0  0  0  0
 34 33  2  0  0  0  0
 35 30  1  0  0  0  0
 36 31  1  0  0  0  0
 39 42  1  0  0  0  0
 40 39  1  0  0  0  0
 41 39  1  0  0  0  0
M  END
>  <MODEL>
22

>  <REMARK>
 VINA RESULT:    -6.040      6.893      8.706
 INTER + INTRA:          -9.017
 INTER:                  -8.190
 INTRA:                  -0.827
 UNBOUND:                -0.858
  Name = 
  6 active torsions:
  status: ('A' for Active; 'I' for Inactive)
    1  A    between atoms: C_2  and  C_4
    2  A    between atoms: C_4  and  N_5
    3  A    between atoms: N_5  and  C_19
    4  A    between atoms: C_6  and  C_8
    5  A    between atoms: C_8  and  C_9
    6  A    between atoms: C_12  and  C_13
                            x       y       z     vdW  Elec       q    Type
                         _______ _______ _______ _____ _____    ______ ____

>  <TORSDO>
F 6

$$$$
=
 OpenBabel07192307433D

 42 43  0  0  0  0  0  0  0  0999 V2000
    3.1760    4.7150   17.7710 N   0  0  0  0  0  0  0  0  0  0  0  0
    3.5870    6.0440   17.9500 C   0  0  0  0  0  0  0  0  0  0  0  0
    4.7240    6.3070   18.3480 O   0  0  0  0  0  0  0  0  0  0  0  0
    4.1330    3.6590   18.1470 C   0  0  0  0  0  0  0  0  0  0  0  0
    4.2150    3.4840   19.6720 C   0  0  0  0  0  0  0  0  0  0  0  0
    4.4950    2.0030   19.8750 C   0  0  0  0  0  0  0  0  0  0  0  0
    3.6670    1.3460   18.7860 C   0  0  0  0  0  0  0  0  0  0  0  0
    3.8670    2.2520   17.5760 C   0  0  0  0  0  0  0  0  0  0  0  0
    5.1240    3.9640   17.7840 H   0  0  0  0  0  0  0  0  0  0  0  0
    3.2650    3.7470   20.1540 H   0  0  0  0  0  0  0  0  0  0  0  0
    4.9920    4.1130   20.1170 H   0  0  0  0  0  0  0  0  0  0  0  0
    5.5610    1.7940   19.7220 H   0  0  0  0  0  0  0  0  0  0  0  0
    4.2180    1.6600   20.8760 H   0  0  0  0  0  0  0  0  0  0  0  0
    2.6090    1.3300   19.0750 H   0  0  0  0  0  0  0  0  0  0  0  0
    3.9800    0.3160   18.5890 H   0  0  0  0  0  0  0  0  0  0  0  0
    3.0290    2.1830   16.8800 H   0  0  0  0  0  0  0  0  0  0  0  0
    4.7560    1.9190   17.0280 H   0  0  0  0  0  0  0  0  0  0  0  0
    1.7640    4.3460   17.5490 C   0  0  0  0  0  0  0  0  0  0  0  0
    1.1920    5.2370   17.2770 H   0  0  0  0  0  0  0  0  0  0  0  0
    1.6940    3.6450   16.7130 H   0  0  0  0  0  0  0  0  0  0  0  0
    0.4180    2.5340   18.5450 N   0  0  0  0  0  0  0  0  0  0  0  0
    1.0990    3.6970   18.7700 C   0  0  0  0  0  0  0  0  0  0  0  0
    1.1340    4.1980   19.8900 O   0  0  0  0  0  0  0  0  0  0  0  0
    0.5930    2.0070   17.6970 H   0  0  0  0  0  0  0  0  0  0  0  0
    0.0670    2.0400   19.3560 H   0  0  0  0  0  0  0  0  0  0  0  0
    2.5740    7.1520   17.6570 C   0  0  0  0  0  0  0  0  0  0  0  0
    1.7700    6.7220   17.0500 H   0  0  0  0  0  0  0  0  0  0  0  0
    3.0280    7.9500   17.0630 H   0  0  0  0  0  0  0  0  0  0  0  0
    1.9860    7.7860   18.8980 C   0  0  0  0  0  0  0  0  0  0  0  0
    2.0190    7.1100   20.1250 C   0  0  0  0  0  0  0  0  0  0  0  0
    1.4690    7.6920   21.2700 C   0  0  0  0  0  0  0  0  0  0  0  0
    0.8750    8.9620   21.2100 C   0  0  0  0  0  0  0  0  0  0  0  0
    0.8290    9.6280   19.9780 C   0  0  0  0  0  0  0  0  0  0  0  0
    1.3810    9.0480   18.8340 C   0  0  0  0  0  0  0  0  0  0  0  0
    2.4730    6.1230   20.1990 H   0  0  0  0  0  0  0  0  0  0  0  0
    1.5030    7.1480   22.2130 H   0  0  0  0  0  0  0  0  0  0  0  0
    0.3550   10.6070   19.9010 H   0  0  0  0  0  0  0  0  0  0  0  0
    1.3190    9.5790   17.8860 H   0  0  0  0  0  0  0  0  0  0  0  0
    0.2580    9.5760   22.4420 C   0  0  0  0  0  0  0  0  0  0  0  0
    1.0420    9.4500   23.5500 F   0  0  0  0  0  0  0  0  0  0  0  0
   -0.9360    9.0090   22.7640 F   0  0  0  0  0  0  0  0  0  0  0  0
    0.0160   10.9110   22.3120 F   0  0  0  0  0  0  0  0  0  0  0  0
  1  2  1  0  0  0  0
  1  4  1  0  0  0  0
  2  3  2  0  0  0  0
  4  5  1  0  0  0  0
  5  6  1  0  0  0  0
  5 11  1  0  0  0  0
  5 10  1  0  0  0  0
  6 13  1  0  0  0  0
  7 14  1  0  0  0  0
  7  6  1  0  0  0  0
  8  4  1  0  0  0  0
  8  7  1  0  0  0  0
  9  4  1  0  0  0  0
 12  6  1  0  0  0  0
 15  7  1  0  0  0  0
 16  8  1  0  0  0  0
 17  8  1  0  0  0  0
 18  1  1  0  0  0  0
 18 22  1  0  0  0  0
 19 18  1  0  0  0  0
 20 18  1  0  0  0  0
 21 22  1  0  0  0  0
 21 25  1  0  0  0  0
 22 23  2  0  0  0  0
 24 21  1  0  0  0  0
 26  2  1  0  0  0  0
 26 29  1  0  0  0  0
 27 26  1  0  0  0  0
 28 26  1  0  0  0  0
 29 30  1  0  0  0  0
 30 35  1  0  0  0  0
 30 31  2  0  0  0  0
 31 36  1  0  0  0  0
 32 31  1  0  0  0  0
 32 39  1  0  0  0  0
 33 32  2  0  0  0  0
 34 29  2  0  0  0  0
 34 33  1  0  0  0  0
 37 33  1  0  0  0  0
 38 34  1  0  0  0  0
 39 41  1  0  0  0  0
 39 40  1  0  0  0  0
 42 39  1  0  0  0  0
M  END
>  <MODEL>
23

>  <REMARK>
 VINA RESULT:    -6.005      5.842      7.551
 INTER + INTRA:          -8.970
 INTER:                  -8.866
 INTRA:                  -0.103
 UNBOUND:                -0.858
  Name = 
  6 active torsions:
  status: ('A' for Active; 'I' for Inactive)
    1  A    between atoms: C_2  and  C_4
    2  A    between atoms: C_4  and  N_5
    3  A    between atoms: N_5  and  C_19
    4  A    between atoms: C_6  and  C_8
    5  A    between atoms: C_8  and  C_9
    6  A    between atoms: C_12  and  C_13
                            x       y       z     vdW  Elec       q    Type
                         _______ _______ _______ _____ _____    ______ ____

>  <TORSDO>
F 6

$$$$
=
 OpenBabel07192307433D

 42 43  0  0  0  0  0  0  0  0999 V2000
    0.8140   10.1820   19.8880 N   0  0  0  0  0  0  0  0  0  0  0  0
    1.4340    8.9660   19.5670 C   0  0  0  0  0  0  0  0  0  0  0  0
    1.8270    8.2030   20.4520 O   0  0  0  0  0  0  0  0  0  0  0  0
    0.7230   10.5340   21.3150 C   0  0  0  0  0  0  0  0  0  0  0  0
   -0.5700   11.3070   21.6290 C   0  0  0  0  0  0  0  0  0  0  0  0
   -0.9350   10.8890   23.0440 C   0  0  0  0  0  0  0  0  0  0  0  0
   -0.5570    9.4190   23.0750 C   0  0  0  0  0  0  0  0  0  0  0  0
    0.7660    9.3650   22.3190 C   0  0  0  0  0  0  0  0  0  0  0  0
    1.5760   11.1850   21.5530 H   0  0  0  0  0  0  0  0  0  0  0  0
   -1.3770   11.0230   20.9410 H   0  0  0  0  0  0  0  0  0  0  0  0
   -0.4330   12.3890   21.5430 H   0  0  0  0  0  0  0  0  0  0  0  0
   -0.3380   11.4520   23.7720 H   0  0  0  0  0  0  0  0  0  0  0  0
   -1.9930   11.0520   23.2670 H   0  0  0  0  0  0  0  0  0  0  0  0
   -1.3150    8.8230   22.5520 H   0  0  0  0  0  0  0  0  0  0  0  0
   -0.4680    9.0330   24.0950 H   0  0  0  0  0  0  0  0  0  0  0  0
    0.9380    8.3810   21.8780 H   0  0  0  0  0  0  0  0  0  0  0  0
    1.5860    9.5370   23.0270 H   0  0  0  0  0  0  0  0  0  0  0  0
    0.5630   11.2320   18.8810 C   0  0  0  0  0  0  0  0  0  0  0  0
    0.3730   10.7690   17.9090 H   0  0  0  0  0  0  0  0  0  0  0  0
   -0.3330   11.7970   19.1540 H   0  0  0  0  0  0  0  0  0  0  0  0
    2.5060   12.0770   17.6160 N   0  0  0  0  0  0  0  0  0  0  0  0
    1.7230   12.2250   18.7270 C   0  0  0  0  0  0  0  0  0  0  0  0
    1.9740   13.0880   19.5610 O   0  0  0  0  0  0  0  0  0  0  0  0
    2.1610   11.5420   16.8280 H   0  0  0  0  0  0  0  0  0  0  0  0
    3.2060   12.7880   17.4470 H   0  0  0  0  0  0  0  0  0  0  0  0
    1.6240    8.6270   18.0870 C   0  0  0  0  0  0  0  0  0  0  0  0
    2.0670    9.5000   17.5950 H   0  0  0  0  0  0  0  0  0  0  0  0
    0.6620    8.4420   17.6010 H   0  0  0  0  0  0  0  0  0  0  0  0
    2.4970    7.4150   17.8450 C   0  0  0  0  0  0  0  0  0  0  0  0
    3.8120    7.5680   17.3870 C   0  0  0  0  0  0  0  0  0  0  0  0
    4.6150    6.4480   17.1560 C   0  0  0  0  0  0  0  0  0  0  0  0
    4.1190    5.1550   17.3790 C   0  0  0  0  0  0  0  0  0  0  0  0
    2.7980    5.0050   17.8210 C   0  0  0  0  0  0  0  0  0  0  0  0
    1.9950    6.1240   18.0540 C   0  0  0  0  0  0  0  0  0  0  0  0
    4.2220    8.5590   17.2050 H   0  0  0  0  0  0  0  0  0  0  0  0
    5.6350    6.5890   16.7980 H   0  0  0  0  0  0  0  0  0  0  0  0
    2.3820    4.0100   17.9820 H   0  0  0  0  0  0  0  0  0  0  0  0
    0.9670    5.9810   18.3830 H   0  0  0  0  0  0  0  0  0  0  0  0
    4.9800    3.9480   17.1030 C   0  0  0  0  0  0  0  0  0  0  0  0
    4.3640    2.7710   17.4100 F   0  0  0  0  0  0  0  0  0  0  0  0
    6.1380    3.9590   17.8190 F   0  0  0  0  0  0  0  0  0  0  0  0
    5.3510    3.8390   15.7960 F   0  0  0  0  0  0  0  0  0  0  0  0
  1  4  1  0  0  0  0
  2  1  1  0  0  0  0
  2  3  2  0  0  0  0
  4  9  1  0  0  0  0
  4  5  1  0  0  0  0
  4  8  1  0  0  0  0
  5  6  1  0  0  0  0
  6  7  1  0  0  0  0
  6 13  1  0  0  0  0
  6 12  1  0  0  0  0
  7 15  1  0  0  0  0
  8 17  1  0  0  0  0
  8  7  1  0  0  0  0
 10  5  1  0  0  0  0
 11  5  1  0  0  0  0
 14  7  1  0  0  0  0
 16  8  1  0  0  0  0
 18 20  1  0  0  0  0
 18  1  1  0  0  0  0
 19 18  1  0  0  0  0
 21 22  1  0  0  0  0
 22 18  1  0  0  0  0
 22 23  2  0  0  0  0
 24 21  1  0  0  0  0
 25 21  1  0  0  0  0
 26  2  1  0  0  0  0
 27 26  1  0  0  0  0
 28 26  1  0  0  0  0
 29 34  1  0  0  0  0
 29 26  1  0  0  0  0
 30 29  2  0  0  0  0
 31 32  2  0  0  0  0
 31 30  1  0  0  0  0
 32 33  1  0  0  0  0
 33 37  1  0  0  0  0
 33 34  2  0  0  0  0
 34 38  1  0  0  0  0
 35 30  1  0  0  0  0
 36 31  1  0  0  0  0
 39 32  1  0  0  0  0
 39 40  1  0  0  0  0
 39 41  1  0  0  0  0
 42 39  1  0  0  0  0
M  END
>  <MODEL>
24

>  <REMARK>
 VINA RESULT:    -5.980      5.102      6.532
 INTER + INTRA:          -8.936
 INTER:                  -9.413
 INTRA:                   0.477
 UNBOUND:                -0.858
  Name = 
  6 active torsions:
  status: ('A' for Active; 'I' for Inactive)
    1  A    between atoms: C_2  and  C_4
    2  A    between atoms: C_4  and  N_5
    3  A    between atoms: N_5  and  C_19
    4  A    between atoms: C_6  and  C_8
    5  A    between atoms: C_8  and  C_9
    6  A    between atoms: C_12  and  C_13
                            x       y       z     vdW  Elec       q    Type
                         _______ _______ _______ _____ _____    ______ ____

>  <TORSDO>
F 6

$$$$
=
 OpenBabel07192307433D

 42 43  0  0  0  0  0  0  0  0999 V2000
    2.4410    6.0330   19.4910 N   0  0  0  0  0  0  0  0  0  0  0  0
    2.0110    7.3240   19.8310 C   0  0  0  0  0  0  0  0  0  0  0  0
    1.8780    8.1950   18.9690 O   0  0  0  0  0  0  0  0  0  0  0  0
    2.7930    5.7930   18.0800 C   0  0  0  0  0  0  0  0  0  0  0  0
    4.2970    5.9930   17.8280 C   0  0  0  0  0  0  0  0  0  0  0  0
    4.6390    4.9980   16.7310 C   0  0  0  0  0  0  0  0  0  0  0  0
    3.7860    3.7930   17.0830 C   0  0  0  0  0  0  0  0  0  0  0  0
    2.4540    4.4000   17.5120 C   0  0  0  0  0  0  0  0  0  0  0  0
    2.2430    6.5240   17.4710 H   0  0  0  0  0  0  0  0  0  0  0  0
    4.8830    5.7660   18.7270 H   0  0  0  0  0  0  0  0  0  0  0  0
    4.5310    7.0220   17.5360 H   0  0  0  0  0  0  0  0  0  0  0  0
    4.3490    5.3980   15.7510 H   0  0  0  0  0  0  0  0  0  0  0  0
    5.7060    4.7610   16.7030 H   0  0  0  0  0  0  0  0  0  0  0  0
    4.2360    3.2430   17.9180 H   0  0  0  0  0  0  0  0  0  0  0  0
    3.6750    3.1020   16.2430 H   0  0  0  0  0  0  0  0  0  0  0  0
    1.9120    3.7400   18.1920 H   0  0  0  0  0  0  0  0  0  0  0  0
    1.8200    4.5240   16.6260 H   0  0  0  0  0  0  0  0  0  0  0  0
    2.8570    5.0450   20.5040 C   0  0  0  0  0  0  0  0  0  0  0  0
    3.6870    4.4490   20.1150 H   0  0  0  0  0  0  0  0  0  0  0  0
    3.2180    5.5620   21.3970 H   0  0  0  0  0  0  0  0  0  0  0  0
    2.0150    3.2410   21.9620 N   0  0  0  0  0  0  0  0  0  0  0  0
    1.7330    4.0910   20.9290 C   0  0  0  0  0  0  0  0  0  0  0  0
    0.6450    4.0510   20.3630 O   0  0  0  0  0  0  0  0  0  0  0  0
    2.7990    3.4370   22.5720 H   0  0  0  0  0  0  0  0  0  0  0  0
    1.2520    2.6820   22.3220 H   0  0  0  0  0  0  0  0  0  0  0  0
    1.7320    7.6200   21.3060 C   0  0  0  0  0  0  0  0  0  0  0  0
    2.6950    7.7680   21.8080 H   0  0  0  0  0  0  0  0  0  0  0  0
    1.2480    6.7680   21.7920 H   0  0  0  0  0  0  0  0  0  0  0  0
    0.8550    8.8310   21.5310 C   0  0  0  0  0  0  0  0  0  0  0  0
    0.7350    9.8150   20.5400 C   0  0  0  0  0  0  0  0  0  0  0  0
   -0.0700   10.9380   20.7520 C   0  0  0  0  0  0  0  0  0  0  0  0
   -0.7690   11.0990   21.9570 C   0  0  0  0  0  0  0  0  0  0  0  0
   -0.6340   10.1210   22.9520 C   0  0  0  0  0  0  0  0  0  0  0  0
    0.1680    8.9970   22.7410 C   0  0  0  0  0  0  0  0  0  0  0  0
    1.2670    9.7150   19.5970 H   0  0  0  0  0  0  0  0  0  0  0  0
   -0.1480   11.6910   19.9690 H   0  0  0  0  0  0  0  0  0  0  0  0
   -1.1510   10.2330   23.9060 H   0  0  0  0  0  0  0  0  0  0  0  0
    0.2700    8.2600   23.5350 H   0  0  0  0  0  0  0  0  0  0  0  0
   -1.6160   12.3250   22.1920 C   0  0  0  0  0  0  0  0  0  0  0  0
   -1.2390   13.0290   23.2970 F   0  0  0  0  0  0  0  0  0  0  0  0
   -2.9310   12.0230   22.3730 F   0  0  0  0  0  0  0  0  0  0  0  0
   -1.5740   13.2120   21.1580 F   0  0  0  0  0  0  0  0  0  0  0  0
  1  2  1  0  0  0  0
  1 18  1  0  0  0  0
  2 26  1  0  0  0  0
  3  2  2  0  0  0  0
  4  1  1  0  0  0  0
  5  4  1  0  0  0  0
  5 10  1  0  0  0  0
  6  7  1  0  0  0  0
  6  5  1  0  0  0  0
  7  8  1  0  0  0  0
  7 14  1  0  0  0  0
  8  4  1  0  0  0  0
  8 16  1  0  0  0  0
  9  4  1  0  0  0  0
 11  5  1  0  0  0  0
 12  6  1  0  0  0  0
 13  6  1  0  0  0  0
 15  7  1  0  0  0  0
 17  8  1  0  0  0  0
 18 22  1  0  0  0  0
 18 20  1  0  0  0  0
 19 18  1  0  0  0  0
 21 25  1  0  0  0  0
 21 24  1  0  0  0  0
 22 21  1  0  0  0  0
 23 22  2  0  0  0  0
 26 29  1  0  0  0  0
 26 28  1  0  0  0  0
 26 27  1  0  0  0  0
 29 34  1  0  0  0  0
 30 31  1  0  0  0  0
 30 29  2  0  0  0  0
 31 32  2  0  0  0  0
 32 39  1  0  0  0  0
 32 33  1  0  0  0  0
 33 37  1  0  0  0  0
 34 33  2  0  0  0  0
 34 38  1  0  0  0  0
 35 30  1  0  0  0  0
 36 31  1  0  0  0  0
 39 41  1  0  0  0  0
 39 40  1  0  0  0  0
 42 39  1  0  0  0  0
M  END
>  <MODEL>
25

>  <REMARK>
 VINA RESULT:    -5.929      6.946      9.024
 INTER + INTRA:          -8.867
 INTER:                  -9.153
 INTRA:                   0.286
 UNBOUND:                -0.858
  Name = 
  6 active torsions:
  status: ('A' for Active; 'I' for Inactive)
    1  A    between atoms: C_2  and  C_4
    2  A    between atoms: C_4  and  N_5
    3  A    between atoms: N_5  and  C_19
    4  A    between atoms: C_6  and  C_8
    5  A    between atoms: C_8  and  C_9
    6  A    between atoms: C_12  and  C_13
                            x       y       z     vdW  Elec       q    Type
                         _______ _______ _______ _____ _____    ______ ____

>  <TORSDO>
F 6

$$$$
=
 OpenBabel07192307433D

 42 43  0  0  0  0  0  0  0  0999 V2000
   -0.5940   11.3480   19.7760 N   0  0  0  0  0  0  0  0  0  0  0  0
    0.7680   11.3190   19.4450 C   0  0  0  0  0  0  0  0  0  0  0  0
    1.5860   12.0000   20.0680 O   0  0  0  0  0  0  0  0  0  0  0  0
   -1.0070   12.2760   20.8440 C   0  0  0  0  0  0  0  0  0  0  0  0
   -2.5170   12.5630   20.7940 C   0  0  0  0  0  0  0  0  0  0  0  0
   -2.9180   12.7700   22.2470 C   0  0  0  0  0  0  0  0  0  0  0  0
   -2.0660   11.7520   22.9840 C   0  0  0  0  0  0  0  0  0  0  0  0
   -0.7100   11.8380   22.2910 C   0  0  0  0  0  0  0  0  0  0  0  0
   -0.4730   13.2240   20.6860 H   0  0  0  0  0  0  0  0  0  0  0  0
   -3.0690   11.7110   20.3780 H   0  0  0  0  0  0  0  0  0  0  0  0
   -2.7490   13.4360   20.1770 H   0  0  0  0  0  0  0  0  0  0  0  0
   -2.6620   13.7870   22.5690 H   0  0  0  0  0  0  0  0  0  0  0  0
   -3.9880   12.6150   22.4090 H   0  0  0  0  0  0  0  0  0  0  0  0
   -2.4880   10.7480   22.8630 H   0  0  0  0  0  0  0  0  0  0  0  0
   -1.9980   11.9640   24.0550 H   0  0  0  0  0  0  0  0  0  0  0  0
   -0.1490   10.9070   22.3900 H   0  0  0  0  0  0  0  0  0  0  0  0
   -0.1110   12.6160   22.7810 H   0  0  0  0  0  0  0  0  0  0  0  0
   -1.6320   10.7600   18.9080 C   0  0  0  0  0  0  0  0  0  0  0  0
   -1.2750    9.8090   18.5040 H   0  0  0  0  0  0  0  0  0  0  0  0
   -2.5290   10.5470   19.4970 H   0  0  0  0  0  0  0  0  0  0  0  0
   -1.1900   12.6950   17.4430 N   0  0  0  0  0  0  0  0  0  0  0  0
   -2.0370   11.6630   17.7350 C   0  0  0  0  0  0  0  0  0  0  0  0
   -3.0780   11.5070   17.1050 O   0  0  0  0  0  0  0  0  0  0  0  0
   -0.2380   12.6760   17.7900 H   0  0  0  0  0  0  0  0  0  0  0  0
   -1.3880   13.2330   16.6090 H   0  0  0  0  0  0  0  0  0  0  0  0
    1.2020   10.4340   18.2750 C   0  0  0  0  0  0  0  0  0  0  0  0
    1.9950   10.9580   17.7310 H   0  0  0  0  0  0  0  0  0  0  0  0
    0.3790   10.2830   17.5720 H   0  0  0  0  0  0  0  0  0  0  0  0
    1.6980    9.0670   18.6950 C   0  0  0  0  0  0  0  0  0  0  0  0
    2.4150    8.2650   17.7970 C   0  0  0  0  0  0  0  0  0  0  0  0
    2.8660    7.0000   18.1830 C   0  0  0  0  0  0  0  0  0  0  0  0
    2.6090    6.5130   19.4730 C   0  0  0  0  0  0  0  0  0  0  0  0
    1.8780    7.3110   20.3630 C   0  0  0  0  0  0  0  0  0  0  0  0
    1.4280    8.5760   19.9790 C   0  0  0  0  0  0  0  0  0  0  0  0
    2.6280    8.6180   16.7900 H   0  0  0  0  0  0  0  0  0  0  0  0
    3.4200    6.3920   17.4680 H   0  0  0  0  0  0  0  0  0  0  0  0
    1.6470    6.9460   21.3640 H   0  0  0  0  0  0  0  0  0  0  0  0
    0.8490    9.1710   20.6830 H   0  0  0  0  0  0  0  0  0  0  0  0
    3.0740    5.1360   19.8770 C   0  0  0  0  0  0  0  0  0  0  0  0
    2.6350    4.1560   19.0370 F   0  0  0  0  0  0  0  0  0  0  0  0
    2.6420    4.7840   21.1180 F   0  0  0  0  0  0  0  0  0  0  0  0
    4.4320    5.0150   19.9050 F   0  0  0  0  0  0  0  0  0  0  0  0
  1  4  1  0  0  0  0
  2  1  1  0  0  0  0
  2  3  2  0  0  0  0
  4  8  1  0  0  0  0
  5  4  1  0  0  0  0
  5  6  1  0  0  0  0
  6 13  1  0  0  0  0
  6 12  1  0  0  0  0
  6  7  1  0  0  0  0
  7 15  1  0  0  0  0
  8 16  1  0  0  0  0
  8 17  1  0  0  0  0
  8  7  1  0  0  0  0
  9  4  1  0  0  0  0
 10  5  1  0  0  0  0
 11  5  1  0  0  0  0
 14  7  1  0  0  0  0
 18 20  1  0  0  0  0
 18  1  1  0  0  0  0
 19 18  1  0  0  0  0
 21 22  1  0  0  0  0
 21 24  1  0  0  0  0
 22 18  1  0  0  0  0
 23 22  2  0  0  0  0
 25 21  1  0  0  0  0
 26 29  1  0  0  0  0
 26  2  1  0  0  0  0
 27 26  1  0  0  0  0
 28 26  1  0  0  0  0
 29 34  1  0  0  0  0
 30 31  1  0  0  0  0
 30 29  2  0  0  0  0
 31 32  2  0  0  0  0
 32 39  1  0  0  0  0
 32 33  1  0  0  0  0
 33 37  1  0  0  0  0
 34 33  2  0  0  0  0
 34 38  1  0  0  0  0
 35 30  1  0  0  0  0
 36 31  1  0  0  0  0
 39 42  1  0  0  0  0
 39 41  1  0  0  0  0
 40 39  1  0  0  0  0
M  END
>  <MODEL>
26

>  <REMARK>
 VINA RESULT:    -5.923      7.010      8.620
 INTER + INTRA:          -8.859
 INTER:                  -8.898
 INTRA:                   0.039
 UNBOUND:                -0.858
  Name = 
  6 active torsions:
  status: ('A' for Active; 'I' for Inactive)
    1  A    between atoms: C_2  and  C_4
    2  A    between atoms: C_4  and  N_5
    3  A    between atoms: N_5  and  C_19
    4  A    between atoms: C_6  and  C_8
    5  A    between atoms: C_8  and  C_9
    6  A    between atoms: C_12  and  C_13
                            x       y       z     vdW  Elec       q    Type
                         _______ _______ _______ _____ _____    ______ ____

>  <TORSDO>
F 6

$$$$
=
 OpenBabel07192307433D

 42 43  0  0  0  0  0  0  0  0999 V2000
    2.2870    6.4140   19.4450 N   0  0  0  0  0  0  0  0  0  0  0  0
    1.9410    7.7020   19.8800 C   0  0  0  0  0  0  0  0  0  0  0  0
    1.6400    7.9130   21.0570 O   0  0  0  0  0  0  0  0  0  0  0  0
    2.2020    5.3250   20.4340 C   0  0  0  0  0  0  0  0  0  0  0  0
    0.8920    4.5310   20.2920 C   0  0  0  0  0  0  0  0  0  0  0  0
    1.2600    3.1090   20.6880 C   0  0  0  0  0  0  0  0  0  0  0  0
    2.6550    2.9440   20.1130 C   0  0  0  0  0  0  0  0  0  0  0  0
    3.3330    4.2780   20.4070 C   0  0  0  0  0  0  0  0  0  0  0  0
    2.2190    5.7810   21.4340 H   0  0  0  0  0  0  0  0  0  0  0  0
    0.5310    4.5430   19.2560 H   0  0  0  0  0  0  0  0  0  0  0  0
    0.0950    4.9380   20.9210 H   0  0  0  0  0  0  0  0  0  0  0  0
    1.2830    3.0130   21.7800 H   0  0  0  0  0  0  0  0  0  0  0  0
    0.5550    2.3720   20.2930 H   0  0  0  0  0  0  0  0  0  0  0  0
    2.6000    2.7790   19.0300 H   0  0  0  0  0  0  0  0  0  0  0  0
    3.1910    2.1000   20.5570 H   0  0  0  0  0  0  0  0  0  0  0  0
    4.1390    4.4830   19.7010 H   0  0  0  0  0  0  0  0  0  0  0  0
    3.7930    4.2300   21.4010 H   0  0  0  0  0  0  0  0  0  0  0  0
    2.4030    6.0660   18.0150 C   0  0  0  0  0  0  0  0  0  0  0  0
    1.9190    5.1030   17.8330 H   0  0  0  0  0  0  0  0  0  0  0  0
    1.8810    6.8130   17.4110 H   0  0  0  0  0  0  0  0  0  0  0  0
    4.2480    4.7830   16.9970 N   0  0  0  0  0  0  0  0  0  0  0  0
    3.8530    5.9820   17.5190 C   0  0  0  0  0  0  0  0  0  0  0  0
    4.6410    6.9180   17.6110 O   0  0  0  0  0  0  0  0  0  0  0  0
    3.5500    4.1110   16.7020 H   0  0  0  0  0  0  0  0  0  0  0  0
    5.1650    4.7450   16.5700 H   0  0  0  0  0  0  0  0  0  0  0  0
    1.9310    8.8280   18.8450 C   0  0  0  0  0  0  0  0  0  0  0  0
    2.2790    8.4140   17.8920 H   0  0  0  0  0  0  0  0  0  0  0  0
    2.6320    9.6210   19.1210 H   0  0  0  0  0  0  0  0  0  0  0  0
    0.5740    9.4680   18.6520 C   0  0  0  0  0  0  0  0  0  0  0  0
    0.0310   10.2950   19.6440 C   0  0  0  0  0  0  0  0  0  0  0  0
   -1.2260   10.8790   19.4690 C   0  0  0  0  0  0  0  0  0  0  0  0
   -1.9640   10.6490   18.2990 C   0  0  0  0  0  0  0  0  0  0  0  0
   -1.4250    9.8080   17.3150 C   0  0  0  0  0  0  0  0  0  0  0  0
   -0.1680    9.2250   17.4890 C   0  0  0  0  0  0  0  0  0  0  0  0
    0.5820   10.4900   20.5620 H   0  0  0  0  0  0  0  0  0  0  0  0
   -1.6310   11.5180   20.2540 H   0  0  0  0  0  0  0  0  0  0  0  0
   -1.9880    9.5970   16.4050 H   0  0  0  0  0  0  0  0  0  0  0  0
    0.2220    8.5640   16.7170 H   0  0  0  0  0  0  0  0  0  0  0  0
   -3.3320   11.2600   18.1240 C   0  0  0  0  0  0  0  0  0  0  0  0
   -3.6170   12.2070   19.0620 F   0  0  0  0  0  0  0  0  0  0  0  0
   -4.3290   10.3380   18.2110 F   0  0  0  0  0  0  0  0  0  0  0  0
   -3.4960   11.8750   16.9190 F   0  0  0  0  0  0  0  0  0  0  0  0
  1  2  1  0  0  0  0
  1  4  1  0  0  0  0
  2  3  2  0  0  0  0
  4  9  1  0  0  0  0
  5  4  1  0  0  0  0
  5  6  1  0  0  0  0
  5 11  1  0  0  0  0
  6 12  1  0  0  0  0
  7  8  1  0  0  0  0
  7 15  1  0  0  0  0
  7  6  1  0  0  0  0
  8  4  1  0  0  0  0
  8 17  1  0  0  0  0
 10  5  1  0  0  0  0
 13  6  1  0  0  0  0
 14  7  1  0  0  0  0
 16  8  1  0  0  0  0
 18  1  1  0  0  0  0
 19 18  1  0  0  0  0
 20 18  1  0  0  0  0
 21 22  1  0  0  0  0
 22 23  2  0  0  0  0
 22 18  1  0  0  0  0
 24 21  1  0  0  0  0
 25 21  1  0  0  0  0
 26 28  1  0  0  0  0
 26  2  1  0  0  0  0
 27 26  1  0  0  0  0
 29 26  1  0  0  0  0
 29 30  1  0  0  0  0
 30 35  1  0  0  0  0
 31 30  2  0  0  0  0
 31 36  1  0  0  0  0
 32 31  1  0  0  0  0
 33 34  1  0  0  0  0
 33 32  2  0  0  0  0
 34 29  2  0  0  0  0
 37 33  1  0  0  0  0
 38 34  1  0  0  0  0
 39 41  1  0  0  0  0
 39 32  1  0  0  0  0
 39 40  1  0  0  0  0
 42 39  1  0  0  0  0
M  END
>  <MODEL>
27

>  <REMARK>
 VINA RESULT:    -5.890      6.386      8.024
 INTER + INTRA:          -8.815
 INTER:                  -8.133
 INTRA:                  -0.682
 UNBOUND:                -0.858
  Name = 
  6 active torsions:
  status: ('A' for Active; 'I' for Inactive)
    1  A    between atoms: C_2  and  C_4
    2  A    between atoms: C_4  and  N_5
    3  A    between atoms: N_5  and  C_19
    4  A    between atoms: C_6  and  C_8
    5  A    between atoms: C_8  and  C_9
    6  A    between atoms: C_12  and  C_13
                            x       y       z     vdW  Elec       q    Type
                         _______ _______ _______ _____ _____    ______ ____

>  <TORSDO>
F 6

$$$$
=
 OpenBabel07192307433D

 42 43  0  0  0  0  0  0  0  0999 V2000
    0.5760   10.3550   20.6310 N   0  0  0  0  0  0  0  0  0  0  0  0
    1.3150    9.1690   20.7530 C   0  0  0  0  0  0  0  0  0  0  0  0
    1.6330    8.7320   21.8610 O   0  0  0  0  0  0  0  0  0  0  0  0
    0.2650   11.0840   21.8730 C   0  0  0  0  0  0  0  0  0  0  0  0
    0.0580   12.5860   21.6130 C   0  0  0  0  0  0  0  0  0  0  0  0
   -0.9810   13.0140   22.6380 C   0  0  0  0  0  0  0  0  0  0  0  0
   -1.9160   11.8200   22.6960 C   0  0  0  0  0  0  0  0  0  0  0  0
   -0.9790   10.6180   22.6540 C   0  0  0  0  0  0  0  0  0  0  0  0
    1.1240   10.9700   22.5500 H   0  0  0  0  0  0  0  0  0  0  0  0
   -0.3280   12.7640   20.6010 H   0  0  0  0  0  0  0  0  0  0  0  0
    0.9890   13.1520   21.7120 H   0  0  0  0  0  0  0  0  0  0  0  0
   -0.5070   13.1750   23.6140 H   0  0  0  0  0  0  0  0  0  0  0  0
   -1.4950   13.9350   22.3490 H   0  0  0  0  0  0  0  0  0  0  0  0
   -2.5760   11.8150   21.8200 H   0  0  0  0  0  0  0  0  0  0  0  0
   -2.5430   11.8260   23.5920 H   0  0  0  0  0  0  0  0  0  0  0  0
   -1.4770    9.7340   22.2510 H   0  0  0  0  0  0  0  0  0  0  0  0
   -0.6800   10.3670   23.6790 H   0  0  0  0  0  0  0  0  0  0  0  0
    0.3960   11.0460   19.3390 C   0  0  0  0  0  0  0  0  0  0  0  0
    0.5060   12.1240   19.4820 H   0  0  0  0  0  0  0  0  0  0  0  0
    1.1750   10.7280   18.6400 H   0  0  0  0  0  0  0  0  0  0  0  0
   -0.9510   10.0860   17.5080 N   0  0  0  0  0  0  0  0  0  0  0  0
   -0.9670   10.7800   18.6850 C   0  0  0  0  0  0  0  0  0  0  0  0
   -2.0220   11.1900   19.1580 O   0  0  0  0  0  0  0  0  0  0  0  0
   -0.1300    9.5480   17.2540 H   0  0  0  0  0  0  0  0  0  0  0  0
   -1.8450    9.8110   17.1220 H   0  0  0  0  0  0  0  0  0  0  0  0
    1.7290    8.4480   19.4690 C   0  0  0  0  0  0  0  0  0  0  0  0
    2.5740    8.9940   19.0330 H   0  0  0  0  0  0  0  0  0  0  0  0
    0.9230    8.4700   18.7300 H   0  0  0  0  0  0  0  0  0  0  0  0
    2.1170    7.0010   19.6780 C   0  0  0  0  0  0  0  0  0  0  0  0
    1.4040    6.1980   20.5790 C   0  0  0  0  0  0  0  0  0  0  0  0
    1.7680    4.8640   20.7780 C   0  0  0  0  0  0  0  0  0  0  0  0
    2.8510    4.3070   20.0810 C   0  0  0  0  0  0  0  0  0  0  0  0
    3.5720    5.1170   19.1940 C   0  0  0  0  0  0  0  0  0  0  0  0
    3.2080    6.4510   18.9920 C   0  0  0  0  0  0  0  0  0  0  0  0
    0.5610    6.6050   21.1330 H   0  0  0  0  0  0  0  0  0  0  0  0
    1.2020    4.2570   21.4840 H   0  0  0  0  0  0  0  0  0  0  0  0
    4.4300    4.7140   18.6550 H   0  0  0  0  0  0  0  0  0  0  0  0
    3.7930    7.0640   18.3090 H   0  0  0  0  0  0  0  0  0  0  0  0
    3.2570    2.8740   20.3180 C   0  0  0  0  0  0  0  0  0  0  0  0
    3.1140    2.4870   21.6170 F   0  0  0  0  0  0  0  0  0  0  0  0
    4.5610    2.6430   20.0030 F   0  0  0  0  0  0  0  0  0  0  0  0
    2.5320    1.9820   19.5860 F   0  0  0  0  0  0  0  0  0  0  0  0
  1  2  1  0  0  0  0
  1  4  1  0  0  0  0
  2  3  2  0  0  0  0
  4  9  1  0  0  0  0
  4  8  1  0  0  0  0
  5 11  1  0  0  0  0
  5  4  1  0  0  0  0
  5  6  1  0  0  0  0
  6  7  1  0  0  0  0
  6 12  1  0  0  0  0
  7 15  1  0  0  0  0
  8  7  1  0  0  0  0
  8 17  1  0  0  0  0
 10  5  1  0  0  0  0
 13  6  1  0  0  0  0
 14  7  1  0  0  0  0
 16  8  1  0  0  0  0
 18 19  1  0  0  0  0
 18  1  1  0  0  0  0
 20 18  1  0  0  0  0
 21 22  1  0  0  0  0
 22 23  2  0  0  0  0
 22 18  1  0  0  0  0
 24 21  1  0  0  0  0
 25 21  1  0  0  0  0
 26 29  1  0  0  0  0
 26  2  1  0  0  0  0
 27 26  1  0  0  0  0
 28 26  1  0  0  0  0
 29 30  1  0  0  0  0
 30 31  2  0  0  0  0
 30 35  1  0  0  0  0
 31 36  1  0  0  0  0
 32 39  1  0  0  0  0
 32 31  1  0  0  0  0
 33 32  2  0  0  0  0
 34 33  1  0  0  0  0
 34 29  2  0  0  0  0
 37 33  1  0  0  0  0
 38 34  1  0  0  0  0
 39 40  1  0  0  0  0
 41 39  1  0  0  0  0
 42 39  1  0  0  0  0
M  END
>  <MODEL>
28

>  <REMARK>
 VINA RESULT:    -5.883      6.181      7.974
 INTER + INTRA:          -8.805
 INTER:                  -8.446
 INTRA:                  -0.359
 UNBOUND:                -0.858
  Name = 
  6 active torsions:
  status: ('A' for Active; 'I' for Inactive)
    1  A    between atoms: C_2  and  C_4
    2  A    between atoms: C_4  and  N_5
    3  A    between atoms: N_5  and  C_19
    4  A    between atoms: C_6  and  C_8
    5  A    between atoms: C_8  and  C_9
    6  A    between atoms: C_12  and  C_13
                            x       y       z     vdW  Elec       q    Type
                         _______ _______ _______ _____ _____    ______ ____

>  <TORSDO>
F 6

$$$$
=
 OpenBabel07192307433D

 42 43  0  0  0  0  0  0  0  0999 V2000
   -0.1170   11.6070   20.2400 N   0  0  0  0  0  0  0  0  0  0  0  0
   -0.2030   10.6860   19.1860 C   0  0  0  0  0  0  0  0  0  0  0  0
   -1.2820   10.1780   18.8750 O   0  0  0  0  0  0  0  0  0  0  0  0
   -1.3530   11.8800   20.9960 C   0  0  0  0  0  0  0  0  0  0  0  0
   -1.1470   11.6910   22.5090 C   0  0  0  0  0  0  0  0  0  0  0  0
   -2.0710   12.7110   23.1540 C   0  0  0  0  0  0  0  0  0  0  0  0
   -1.9670   13.9050   22.2210 C   0  0  0  0  0  0  0  0  0  0  0  0
   -1.9690   13.2820   20.8290 C   0  0  0  0  0  0  0  0  0  0  0  0
   -2.1130   11.1590   20.6620 H   0  0  0  0  0  0  0  0  0  0  0  0
   -0.1090   11.9010   22.7970 H   0  0  0  0  0  0  0  0  0  0  0  0
   -1.3750   10.6700   22.8300 H   0  0  0  0  0  0  0  0  0  0  0  0
   -3.1000   12.3310   23.1740 H   0  0  0  0  0  0  0  0  0  0  0  0
   -1.7740   12.9540   24.1770 H   0  0  0  0  0  0  0  0  0  0  0  0
   -1.0250   14.4380   22.3940 H   0  0  0  0  0  0  0  0  0  0  0  0
   -2.7890   14.6130   22.3590 H   0  0  0  0  0  0  0  0  0  0  0  0
   -1.4700   13.9250   20.1010 H   0  0  0  0  0  0  0  0  0  0  0  0
   -3.0070   13.1750   20.4900 H   0  0  0  0  0  0  0  0  0  0  0  0
    1.1730   12.0400   20.8110 C   0  0  0  0  0  0  0  0  0  0  0  0
    1.0850   12.1170   21.8980 H   0  0  0  0  0  0  0  0  0  0  0  0
    1.9400   11.2900   20.5980 H   0  0  0  0  0  0  0  0  0  0  0  0
    2.7110   13.9660   20.9280 N   0  0  0  0  0  0  0  0  0  0  0  0
    1.6630   13.3890   20.2670 C   0  0  0  0  0  0  0  0  0  0  0  0
    1.1340   13.9530   19.3140 O   0  0  0  0  0  0  0  0  0  0  0  0
    3.2890   13.4020   21.5390 H   0  0  0  0  0  0  0  0  0  0  0  0
    3.1120   14.8000   20.5180 H   0  0  0  0  0  0  0  0  0  0  0  0
    1.0880   10.3180   18.4510 C   0  0  0  0  0  0  0  0  0  0  0  0
    1.8440   11.0710   18.6990 H   0  0  0  0  0  0  0  0  0  0  0  0
    0.9460   10.3540   17.3680 H   0  0  0  0  0  0  0  0  0  0  0  0
    1.6150    8.9420   18.7950 C   0  0  0  0  0  0  0  0  0  0  0  0
    2.2750    8.1720   17.8280 C   0  0  0  0  0  0  0  0  0  0  0  0
    2.7550    6.8980   18.1440 C   0  0  0  0  0  0  0  0  0  0  0  0
    2.5850    6.3700   19.4330 C   0  0  0  0  0  0  0  0  0  0  0  0
    1.9110    7.1370   20.3930 C   0  0  0  0  0  0  0  0  0  0  0  0
    1.4330    8.4110   20.0790 C   0  0  0  0  0  0  0  0  0  0  0  0
    2.4190    8.5570   16.8210 H   0  0  0  0  0  0  0  0  0  0  0  0
    3.2630    6.3150   17.3770 H   0  0  0  0  0  0  0  0  0  0  0  0
    1.7480    6.7410   21.3960 H   0  0  0  0  0  0  0  0  0  0  0  0
    0.8990    8.9800   20.8370 H   0  0  0  0  0  0  0  0  0  0  0  0
    3.0810    4.9850   19.7630 C   0  0  0  0  0  0  0  0  0  0  0  0
    2.6170    4.0330   18.9040 F   0  0  0  0  0  0  0  0  0  0  0  0
    2.7050    4.5790   21.0060 F   0  0  0  0  0  0  0  0  0  0  0  0
    4.4400    4.8790   19.7300 F   0  0  0  0  0  0  0  0  0  0  0  0
  1 18  1  0  0  0  0
  1  4  1  0  0  0  0
  2  1  1  0  0  0  0
  3  2  2  0  0  0  0
  4  5  1  0  0  0  0
  5 10  1  0  0  0  0
  5 11  1  0  0  0  0
  5  6  1  0  0  0  0
  6 12  1  0  0  0  0
  6 13  1  0  0  0  0
  7 15  1  0  0  0  0
  7 14  1  0  0  0  0
  7  6  1  0  0  0  0
  8  4  1  0  0  0  0
  8  7  1  0  0  0  0
  9  4  1  0  0  0  0
 16  8  1  0  0  0  0
 17  8  1  0  0  0  0
 18 19  1  0  0  0  0
 20 18  1  0  0  0  0
 21 24  1  0  0  0  0
 22 18  1  0  0  0  0
 22 21  1  0  0  0  0
 23 22  2  0  0  0  0
 25 21  1  0  0  0  0
 26 27  1  0  0  0  0
 26 29  1  0  0  0  0
 26  2  1  0  0  0  0
 28 26  1  0  0  0  0
 29 34  1  0  0  0  0
 30 31  1  0  0  0  0
 30 29  2  0  0  0  0
 31 32  2  0  0  0  0
 32 39  1  0  0  0  0
 32 33  1  0  0  0  0
 33 37  1  0  0  0  0
 34 33  2  0  0  0  0
 34 38  1  0  0  0  0
 35 30  1  0  0  0  0
 36 31  1  0  0  0  0
 39 41  1  0  0  0  0
 40 39  1  0  0  0  0
 42 39  1  0  0  0  0
M  END
>  <MODEL>
29

>  <REMARK>
 VINA RESULT:    -5.851      7.031      8.697
 INTER + INTRA:          -8.761
 INTER:                  -7.809
 INTRA:                  -0.953
 UNBOUND:                -0.858
  Name = 
  6 active torsions:
  status: ('A' for Active; 'I' for Inactive)
    1  A    between atoms: C_2  and  C_4
    2  A    between atoms: C_4  and  N_5
    3  A    between atoms: N_5  and  C_19
    4  A    between atoms: C_6  and  C_8
    5  A    between atoms: C_8  and  C_9
    6  A    between atoms: C_12  and  C_13
                            x       y       z     vdW  Elec       q    Type
                         _______ _______ _______ _____ _____    ______ ____

>  <TORSDO>
F 6

$$$$
=
 OpenBabel07192307433D

 42 43  0  0  0  0  0  0  0  0999 V2000
    0.7580   10.8160   19.1350 N   0  0  0  0  0  0  0  0  0  0  0  0
    1.6600   10.2010   18.2550 C   0  0  0  0  0  0  0  0  0  0  0  0
    2.6750   10.7890   17.8740 O   0  0  0  0  0  0  0  0  0  0  0  0
    1.0410   12.2100   19.5200 C   0  0  0  0  0  0  0  0  0  0  0  0
    0.5290   13.2050   18.4640 C   0  0  0  0  0  0  0  0  0  0  0  0
    0.1240   14.4360   19.2590 C   0  0  0  0  0  0  0  0  0  0  0  0
   -0.4760   13.8450   20.5230 C   0  0  0  0  0  0  0  0  0  0  0  0
    0.4560   12.6870   20.8640 C   0  0  0  0  0  0  0  0  0  0  0  0
    2.1320   12.3210   19.5930 H   0  0  0  0  0  0  0  0  0  0  0  0
   -0.3450   12.8060   17.9340 H   0  0  0  0  0  0  0  0  0  0  0  0
    1.2900   13.4350   17.7130 H   0  0  0  0  0  0  0  0  0  0  0  0
    1.0080   15.0390   19.5030 H   0  0  0  0  0  0  0  0  0  0  0  0
   -0.5850   15.0680   18.7170 H   0  0  0  0  0  0  0  0  0  0  0  0
   -1.4860   13.4690   20.3210 H   0  0  0  0  0  0  0  0  0  0  0  0
   -0.5420   14.5760   21.3330 H   0  0  0  0  0  0  0  0  0  0  0  0
   -0.0540   11.9190   21.4480 H   0  0  0  0  0  0  0  0  0  0  0  0
    1.2740   13.0640   21.4910 H   0  0  0  0  0  0  0  0  0  0  0  0
   -0.5800   10.2610   19.4130 C   0  0  0  0  0  0  0  0  0  0  0  0
   -0.5560    9.1740   19.3000 H   0  0  0  0  0  0  0  0  0  0  0  0
   -0.8610   10.4750   20.4480 H   0  0  0  0  0  0  0  0  0  0  0  0
   -1.5930   10.4880   17.1740 N   0  0  0  0  0  0  0  0  0  0  0  0
   -1.6780   10.8190   18.4970 C   0  0  0  0  0  0  0  0  0  0  0  0
   -2.5720   11.5550   18.9040 O   0  0  0  0  0  0  0  0  0  0  0  0
   -1.0180    9.7040   16.8900 H   0  0  0  0  0  0  0  0  0  0  0  0
   -2.3670   10.7590   16.5800 H   0  0  0  0  0  0  0  0  0  0  0  0
    1.3340    8.7870   17.7690 C   0  0  0  0  0  0  0  0  0  0  0  0
    1.1840    8.8290   16.6840 H   0  0  0  0  0  0  0  0  0  0  0  0
    0.3980    8.4290   18.2060 H   0  0  0  0  0  0  0  0  0  0  0  0
    2.4050    7.7680   18.0900 C   0  0  0  0  0  0  0  0  0  0  0  0
    3.4970    7.5910   17.2290 C   0  0  0  0  0  0  0  0  0  0  0  0
    4.4820    6.6440   17.5220 C   0  0  0  0  0  0  0  0  0  0  0  0
    4.3960    5.8570   18.6810 C   0  0  0  0  0  0  0  0  0  0  0  0
    3.2940    6.0260   19.5300 C   0  0  0  0  0  0  0  0  0  0  0  0
    2.3090    6.9740   19.2390 C   0  0  0  0  0  0  0  0  0  0  0  0
    3.5890    8.1870   16.3240 H   0  0  0  0  0  0  0  0  0  0  0  0
    5.3220    6.5210   16.8390 H   0  0  0  0  0  0  0  0  0  0  0  0
    3.1920    5.4130   20.4260 H   0  0  0  0  0  0  0  0  0  0  0  0
    1.4560    7.0750   19.9070 H   0  0  0  0  0  0  0  0  0  0  0  0
    5.4470    4.8180   18.9800 C   0  0  0  0  0  0  0  0  0  0  0  0
    6.4690    5.2980   19.7440 F   0  0  0  0  0  0  0  0  0  0  0  0
    6.0260    4.3230   17.8520 F   0  0  0  0  0  0  0  0  0  0  0  0
    4.9590    3.7390   19.6540 F   0  0  0  0  0  0  0  0  0  0  0  0
  1 18  1  0  0  0  0
  1  4  1  0  0  0  0
  2  1  1  0  0  0  0
  3  2  2  0  0  0  0
  4  9  1  0  0  0  0
  4  8  1  0  0  0  0
  5  6  1  0  0  0  0
  5  4  1  0  0  0  0
  6 12  1  0  0  0  0
  6  7  1  0  0  0  0
  7  8  1  0  0  0  0
  7 15  1  0  0  0  0
  8 16  1  0  0  0  0
  8 17  1  0  0  0  0
 10  5  1  0  0  0  0
 11  5  1  0  0  0  0
 13  6  1  0  0  0  0
 14  7  1  0  0  0  0
 18 20  1  0  0  0  0
 19 18  1  0  0  0  0
 21 22  1  0  0  0  0
 22 23  2  0  0  0  0
 22 18  1  0  0  0  0
 24 21  1  0  0  0  0
 25 21  1  0  0  0  0
 26 29  1  0  0  0  0
 26 28  1  0  0  0  0
 26  2  1  0  0  0  0
 27 26  1  0  0  0  0
 29 34  1  0  0  0  0
 30 31  1  0  0  0  0
 30 29  2  0  0  0  0
 31 32  2  0  0  0  0
 32 39  1  0  0  0  0
 32 33  1  0  0  0  0
 33 37  1  0  0  0  0
 34 33  2  0  0  0  0
 34 38  1  0  0  0  0
 35 30  1  0  0  0  0
 36 31  1  0  0  0  0
 39 42  1  0  0  0  0
 39 40  1  0  0  0  0
 41 39  1  0  0  0  0
M  END
>  <MODEL>
30

>  <REMARK>
 VINA RESULT:    -5.826      6.173      7.727
 INTER + INTRA:          -8.728
 INTER:                  -8.180
 INTRA:                  -0.548
 UNBOUND:                -0.858
  Name = 
  6 active torsions:
  status: ('A' for Active; 'I' for Inactive)
    1  A    between atoms: C_2  and  C_4
    2  A    between atoms: C_4  and  N_5
    3  A    between atoms: N_5  and  C_19
    4  A    between atoms: C_6  and  C_8
    5  A    between atoms: C_8  and  C_9
    6  A    between atoms: C_12  and  C_13
                            x       y       z     vdW  Elec       q    Type
                         _______ _______ _______ _____ _____    ______ ____

>  <TORSDO>
F 6

$$$$
=
 OpenBabel07192307433D

 42 43  0  0  0  0  0  0  0  0999 V2000
    0.8620   10.8500   19.1430 N   0  0  0  0  0  0  0  0  0  0  0  0
    1.6500   10.1110   18.2480 C   0  0  0  0  0  0  0  0  0  0  0  0
    2.6130   10.6270   17.6770 O   0  0  0  0  0  0  0  0  0  0  0  0
    1.1930   12.2760   19.3090 C   0  0  0  0  0  0  0  0  0  0  0  0
   -0.0410   13.1720   19.1070 C   0  0  0  0  0  0  0  0  0  0  0  0
    0.1800   14.3490   20.0440 C   0  0  0  0  0  0  0  0  0  0  0  0
    0.8200   13.7030   21.2600 C   0  0  0  0  0  0  0  0  0  0  0  0
    1.7950   12.6910   20.6660 C   0  0  0  0  0  0  0  0  0  0  0  0
    1.9350   12.5380   18.5420 H   0  0  0  0  0  0  0  0  0  0  0  0
   -0.9630   12.6470   19.3870 H   0  0  0  0  0  0  0  0  0  0  0  0
   -0.1500   13.4920   18.0660 H   0  0  0  0  0  0  0  0  0  0  0  0
    0.8690   15.0720   19.5890 H   0  0  0  0  0  0  0  0  0  0  0  0
   -0.7510   14.8670   20.2880 H   0  0  0  0  0  0  0  0  0  0  0  0
    0.0590   13.1870   21.8580 H   0  0  0  0  0  0  0  0  0  0  0  0
    1.3210   14.4320   21.9040 H   0  0  0  0  0  0  0  0  0  0  0  0
    1.9920   11.8700   21.3580 H   0  0  0  0  0  0  0  0  0  0  0  0
    2.7570   13.1880   20.4890 H   0  0  0  0  0  0  0  0  0  0  0  0
   -0.4350   10.3590   19.6460 C   0  0  0  0  0  0  0  0  0  0  0  0
   -1.1950   11.1330   19.5140 H   0  0  0  0  0  0  0  0  0  0  0  0
   -0.7520    9.4890   19.0630 H   0  0  0  0  0  0  0  0  0  0  0  0
    0.0290    8.6880   21.4010 N   0  0  0  0  0  0  0  0  0  0  0  0
   -0.4070    9.9540   21.1260 C   0  0  0  0  0  0  0  0  0  0  0  0
   -0.7850   10.6970   22.0250 O   0  0  0  0  0  0  0  0  0  0  0  0
    0.5590    8.1780   20.7040 H   0  0  0  0  0  0  0  0  0  0  0  0
    0.1550    8.4440   22.3750 H   0  0  0  0  0  0  0  0  0  0  0  0
    1.2640    8.6530   17.9890 C   0  0  0  0  0  0  0  0  0  0  0  0
    0.9320    8.5720   16.9480 H   0  0  0  0  0  0  0  0  0  0  0  0
    0.4190    8.3550   18.6160 H   0  0  0  0  0  0  0  0  0  0  0  0
    2.3860    7.6700   18.2400 C   0  0  0  0  0  0  0  0  0  0  0  0
    3.4590    7.5740   17.3430 C   0  0  0  0  0  0  0  0  0  0  0  0
    4.4910    6.6600   17.5710 C   0  0  0  0  0  0  0  0  0  0  0  0
    4.4710    5.8260   18.6990 C   0  0  0  0  0  0  0  0  0  0  0  0
    3.3880    5.9130   19.5840 C   0  0  0  0  0  0  0  0  0  0  0  0
    2.3570    6.8280   19.3590 C   0  0  0  0  0  0  0  0  0  0  0  0
    3.4990    8.2080   16.4610 H   0  0  0  0  0  0  0  0  0  0  0  0
    5.3150    6.6000   16.8610 H   0  0  0  0  0  0  0  0  0  0  0  0
    3.3390    5.2610   20.4570 H   0  0  0  0  0  0  0  0  0  0  0  0
    1.5190    6.8660   20.0530 H   0  0  0  0  0  0  0  0  0  0  0  0
    5.5740    4.8220   18.9270 C   0  0  0  0  0  0  0  0  0  0  0  0
    5.1300    3.6610   19.4870 F   0  0  0  0  0  0  0  0  0  0  0  0
    6.5410    5.2920   19.7620 F   0  0  0  0  0  0  0  0  0  0  0  0
    6.2140    4.4570   17.7810 F   0  0  0  0  0  0  0  0  0  0  0  0
  1  4  1  0  0  0  0
  1 18  1  0  0  0  0
  2  1  1  0  0  0  0
  3  2  2  0  0  0  0
  4  8  1  0  0  0  0
  5  4  1  0  0  0  0
  5 10  1  0  0  0  0
  5  6  1  0  0  0  0
  6 13  1  0  0  0  0
  6  7  1  0  0  0  0
  7 14  1  0  0  0  0
  7 15  1  0  0  0  0
  8  7  1  0  0  0  0
  8 16  1  0  0  0  0
  9  4  1  0  0  0  0
 11  5  1  0  0  0  0
 12  6  1  0  0  0  0
 17  8  1  0  0  0  0
 18 22  1  0  0  0  0
 19 18  1  0  0  0  0
 20 18  1  0  0  0  0
 21 25  1  0  0  0  0
 22 21  1  0  0  0  0
 22 23  2  0  0  0  0
 24 21  1  0  0  0  0
 26 29  1  0  0  0  0
 26  2  1  0  0  0  0
 26 28  1  0  0  0  0
 27 26  1  0  0  0  0
 29 34  1  0  0  0  0
 30 31  1  0  0  0  0
 30 29  2  0  0  0  0
 31 32  2  0  0  0  0
 32 39  1  0  0  0  0
 32 33  1  0  0  0  0
 33 37  1  0  0  0  0
 34 33  2  0  0  0  0
 34 38  1  0  0  0  0
 35 30  1  0  0  0  0
 36 31  1  0  0  0  0
 39 40  1  0  0  0  0
 39 41  1  0  0  0  0
 42 39  1  0  0  0  0
M  END
>  <MODEL>
31

>  <REMARK>
 VINA RESULT:    -5.768      5.882      7.387
 INTER + INTRA:          -8.650
 INTER:                  -7.791
 INTRA:                  -0.858
 UNBOUND:                -0.858
  Name = 
  6 active torsions:
  status: ('A' for Active; 'I' for Inactive)
    1  A    between atoms: C_2  and  C_4
    2  A    between atoms: C_4  and  N_5
    3  A    between atoms: N_5  and  C_19
    4  A    between atoms: C_6  and  C_8
    5  A    between atoms: C_8  and  C_9
    6  A    between atoms: C_12  and  C_13
                            x       y       z     vdW  Elec       q    Type
                         _______ _______ _______ _____ _____    ______ ____

>  <TORSDO>
F 6

$$$$
=
 OpenBabel07192307433D

 42 43  0  0  0  0  0  0  0  0999 V2000
    0.2580    9.7610   19.1900 N   0  0  0  0  0  0  0  0  0  0  0  0
    1.2870    9.0270   18.5820 C   0  0  0  0  0  0  0  0  0  0  0  0
    1.5980    9.2270   17.4060 O   0  0  0  0  0  0  0  0  0  0  0  0
   -0.4730   10.7210   18.3440 C   0  0  0  0  0  0  0  0  0  0  0  0
   -1.6970   10.0710   17.6770 C   0  0  0  0  0  0  0  0  0  0  0  0
   -2.7210   11.1920   17.5770 C   0  0  0  0  0  0  0  0  0  0  0  0
   -2.5140   11.9600   18.8700 C   0  0  0  0  0  0  0  0  0  0  0  0
   -0.9990   11.9920   19.0380 C   0  0  0  0  0  0  0  0  0  0  0  0
    0.2110   11.0540   17.5510 H   0  0  0  0  0  0  0  0  0  0  0  0
   -2.1010    9.2590   18.2940 H   0  0  0  0  0  0  0  0  0  0  0  0
   -1.4560    9.6480   16.6980 H   0  0  0  0  0  0  0  0  0  0  0  0
   -2.5000   11.8310   16.7130 H   0  0  0  0  0  0  0  0  0  0  0  0
   -3.7420   10.8150   17.4740 H   0  0  0  0  0  0  0  0  0  0  0  0
   -2.9750   11.4220   19.7070 H   0  0  0  0  0  0  0  0  0  0  0  0
   -2.9480   12.9630   18.8320 H   0  0  0  0  0  0  0  0  0  0  0  0
   -0.7130   12.1020   20.0860 H   0  0  0  0  0  0  0  0  0  0  0  0
   -0.6030   12.8710   18.5140 H   0  0  0  0  0  0  0  0  0  0  0  0
   -0.3170    9.3860   20.4970 C   0  0  0  0  0  0  0  0  0  0  0  0
   -1.4030    9.5000   20.4650 H   0  0  0  0  0  0  0  0  0  0  0  0
   -0.1050    8.3330   20.7030 H   0  0  0  0  0  0  0  0  0  0  0  0
   -0.4660   10.1310   22.8440 N   0  0  0  0  0  0  0  0  0  0  0  0
    0.2240   10.2180   21.6670 C   0  0  0  0  0  0  0  0  0  0  0  0
    1.1990   10.9550   21.5640 O   0  0  0  0  0  0  0  0  0  0  0  0
   -1.1010    9.3570   22.9960 H   0  0  0  0  0  0  0  0  0  0  0  0
   -0.0610   10.5890   23.6510 H   0  0  0  0  0  0  0  0  0  0  0  0
    1.9940    7.9580   19.4180 C   0  0  0  0  0  0  0  0  0  0  0  0
    1.2290    7.4040   19.9740 H   0  0  0  0  0  0  0  0  0  0  0  0
    2.6570    8.4150   20.1590 H   0  0  0  0  0  0  0  0  0  0  0  0
    2.8220    6.9920   18.6000 C   0  0  0  0  0  0  0  0  0  0  0  0
    3.9270    7.4470   17.8670 C   0  0  0  0  0  0  0  0  0  0  0  0
    4.6870    6.5550   17.1060 C   0  0  0  0  0  0  0  0  0  0  0  0
    4.3580    5.1930   17.0620 C   0  0  0  0  0  0  0  0  0  0  0  0
    3.2430    4.7440   17.7830 C   0  0  0  0  0  0  0  0  0  0  0  0
    2.4840    5.6340   18.5460 C   0  0  0  0  0  0  0  0  0  0  0  0
    4.2040    8.4990   17.8830 H   0  0  0  0  0  0  0  0  0  0  0  0
    5.5400    6.9300   16.5420 H   0  0  0  0  0  0  0  0  0  0  0  0
    2.9540    3.6930   17.7490 H   0  0  0  0  0  0  0  0  0  0  0  0
    1.6130    5.2630   19.0850 H   0  0  0  0  0  0  0  0  0  0  0  0
    5.1640    4.2380   16.2180 C   0  0  0  0  0  0  0  0  0  0  0  0
    6.5040    4.3160   16.4570 F   0  0  0  0  0  0  0  0  0  0  0  0
    5.0100    4.4630   14.8850 F   0  0  0  0  0  0  0  0  0  0  0  0
    4.8300    2.9310   16.4170 F   0  0  0  0  0  0  0  0  0  0  0  0
  1 18  1  0  0  0  0
  2  1  1  0  0  0  0
  2 26  1  0  0  0  0
  3  2  2  0  0  0  0
  4  8  1  0  0  0  0
  4  1  1  0  0  0  0
  5 10  1  0  0  0  0
  5  4  1  0  0  0  0
  6  5  1  0  0  0  0
  6  7  1  0  0  0  0
  7  8  1  0  0  0  0
  7 14  1  0  0  0  0
  8 16  1  0  0  0  0
  9  4  1  0  0  0  0
 11  5  1  0  0  0  0
 12  6  1  0  0  0  0
 13  6  1  0  0  0  0
 15  7  1  0  0  0  0
 17  8  1  0  0  0  0
 18 20  1  0  0  0  0
 18 22  1  0  0  0  0
 19 18  1  0  0  0  0
 21 24  1  0  0  0  0
 21 25  1  0  0  0  0
 22 21  1  0  0  0  0
 23 22  2  0  0  0  0
 26 27  1  0  0  0  0
 26 28  1  0  0  0  0
 29 26  1  0  0  0  0
 30 35  1  0  0  0  0
 30 29  2  0  0  0  0
 31 30  1  0  0  0  0
 32 31  2  0  0  0  0
 32 33  1  0  0  0  0
 33 34  2  0  0  0  0
 34 29  1  0  0  0  0
 34 38  1  0  0  0  0
 36 31  1  0  0  0  0
 37 33  1  0  0  0  0
 39 42  1  0  0  0  0
 39 40  1  0  0  0  0
 39 32  1  0  0  0  0
 41 39  1  0  0  0  0
M  END
>  <MODEL>
32

>  <REMARK>
 VINA RESULT:    -5.749      5.160      6.414
 INTER + INTRA:          -8.624
 INTER:                  -8.292
 INTRA:                  -0.332
 UNBOUND:                -0.858
  Name = 
  6 active torsions:
  status: ('A' for Active; 'I' for Inactive)
    1  A    between atoms: C_2  and  C_4
    2  A    between atoms: C_4  and  N_5
    3  A    between atoms: N_5  and  C_19
    4  A    between atoms: C_6  and  C_8
    5  A    between atoms: C_8  and  C_9
    6  A    between atoms: C_12  and  C_13
                            x       y       z     vdW  Elec       q    Type
                         _______ _______ _______ _____ _____    ______ ____

>  <TORSDO>
F 6

$$$$
=
 OpenBabel07192307433D

 42 43  0  0  0  0  0  0  0  0999 V2000
   -0.5930   12.1080   19.6720 N   0  0  0  0  0  0  0  0  0  0  0  0
    0.6500   11.4640   19.7730 C   0  0  0  0  0  0  0  0  0  0  0  0
    1.3220   11.5440   20.8040 O   0  0  0  0  0  0  0  0  0  0  0  0
   -1.0170   12.9330   20.8160 C   0  0  0  0  0  0  0  0  0  0  0  0
   -1.7420   14.2100   20.3570 C   0  0  0  0  0  0  0  0  0  0  0  0
   -2.7670   14.4830   21.4470 C   0  0  0  0  0  0  0  0  0  0  0  0
   -3.2340   13.0920   21.8340 C   0  0  0  0  0  0  0  0  0  0  0  0
   -1.9530   12.2640   21.8410 C   0  0  0  0  0  0  0  0  0  0  0  0
   -0.1120   13.2330   21.3640 H   0  0  0  0  0  0  0  0  0  0  0  0
   -2.2560   14.0520   19.4010 H   0  0  0  0  0  0  0  0  0  0  0  0
   -1.0530   15.0480   20.2230 H   0  0  0  0  0  0  0  0  0  0  0  0
   -2.2880   14.9770   22.3020 H   0  0  0  0  0  0  0  0  0  0  0  0
   -3.5860   15.1170   21.0980 H   0  0  0  0  0  0  0  0  0  0  0  0
   -3.9300   12.7040   21.0810 H   0  0  0  0  0  0  0  0  0  0  0  0
   -3.7420   13.0780   22.8030 H   0  0  0  0  0  0  0  0  0  0  0  0
   -2.1580   11.2070   21.6620 H   0  0  0  0  0  0  0  0  0  0  0  0
   -1.4950   12.3300   22.8350 H   0  0  0  0  0  0  0  0  0  0  0  0
   -1.3050   12.2550   18.3880 C   0  0  0  0  0  0  0  0  0  0  0  0
   -1.6570   13.2840   18.2810 H   0  0  0  0  0  0  0  0  0  0  0  0
   -0.6180   12.0570   17.5600 H   0  0  0  0  0  0  0  0  0  0  0  0
   -3.7380   11.9050   18.1760 N   0  0  0  0  0  0  0  0  0  0  0  0
   -2.5080   11.3130   18.2420 C   0  0  0  0  0  0  0  0  0  0  0  0
   -2.3970   10.0920   18.2210 O   0  0  0  0  0  0  0  0  0  0  0  0
   -3.8090   12.8890   17.9490 H   0  0  0  0  0  0  0  0  0  0  0  0
   -4.5280   11.3050   17.9720 H   0  0  0  0  0  0  0  0  0  0  0  0
    1.1510   10.6800   18.5590 C   0  0  0  0  0  0  0  0  0  0  0  0
    1.9990   11.2270   18.1310 H   0  0  0  0  0  0  0  0  0  0  0  0
    0.3820   10.6270   17.7830 H   0  0  0  0  0  0  0  0  0  0  0  0
    1.5740    9.2640   18.8780 C   0  0  0  0  0  0  0  0  0  0  0  0
    1.2940    8.7040   20.1330 C   0  0  0  0  0  0  0  0  0  0  0  0
    1.6920    7.3990   20.4300 C   0  0  0  0  0  0  0  0  0  0  0  0
    2.3770    6.6270   19.4800 C   0  0  0  0  0  0  0  0  0  0  0  0
    2.6700    7.1950   18.2330 C   0  0  0  0  0  0  0  0  0  0  0  0
    2.2710    8.4990   17.9340 C   0  0  0  0  0  0  0  0  0  0  0  0
    0.7640    9.2820   20.8880 H   0  0  0  0  0  0  0  0  0  0  0  0
    1.4660    6.9840   21.4120 H   0  0  0  0  0  0  0  0  0  0  0  0
    3.2200    6.6220   17.4850 H   0  0  0  0  0  0  0  0  0  0  0  0
    2.5240    8.9230   16.9640 H   0  0  0  0  0  0  0  0  0  0  0  0
    2.8280    5.2270   19.8140 C   0  0  0  0  0  0  0  0  0  0  0  0
    4.1840    5.1080   19.8910 F   0  0  0  0  0  0  0  0  0  0  0  0
    2.4270    4.3150   18.8880 F   0  0  0  0  0  0  0  0  0  0  0  0
    2.3510    4.7800   21.0100 F   0  0  0  0  0  0  0  0  0  0  0  0
  1  2  1  0  0  0  0
  1  4  1  0  0  0  0
  2  3  2  0  0  0  0
  4  9  1  0  0  0  0
  4  8  1  0  0  0  0
  5  4  1  0  0  0  0
  5  6  1  0  0  0  0
  6  7  1  0  0  0  0
  6 12  1  0  0  0  0
  7  8  1  0  0  0  0
  7 15  1  0  0  0  0
  8 17  1  0  0  0  0
 10  5  1  0  0  0  0
 11  5  1  0  0  0  0
 13  6  1  0  0  0  0
 14  7  1  0  0  0  0
 16  8  1  0  0  0  0
 18  1  1  0  0  0  0
 19 18  1  0  0  0  0
 20 18  1  0  0  0  0
 21 22  1  0  0  0  0
 22 18  1  0  0  0  0
 23 22  2  0  0  0  0
 24 21  1  0  0  0  0
 25 21  1  0  0  0  0
 26 29  1  0  0  0  0
 26  2  1  0  0  0  0
 27 26  1  0  0  0  0
 28 26  1  0  0  0  0
 29 30  1  0  0  0  0
 30 31  2  0  0  0  0
 30 35  1  0  0  0  0
 31 36  1  0  0  0  0
 32 39  1  0  0  0  0
 32 31  1  0  0  0  0
 33 32  2  0  0  0  0
 34 33  1  0  0  0  0
 34 29  2  0  0  0  0
 37 33  1  0  0  0  0
 38 34  1  0  0  0  0
 39 40  1  0  0  0  0
 39 42  1  0  0  0  0
 41 39  1  0  0  0  0
M  END
>  <MODEL>
33

>  <REMARK>
 VINA RESULT:    -5.680      7.412      8.998
 INTER + INTRA:          -8.531
 INTER:                  -7.905
 INTRA:                  -0.626
 UNBOUND:                -0.858
  Name = 
  6 active torsions:
  status: ('A' for Active; 'I' for Inactive)
    1  A    between atoms: C_2  and  C_4
    2  A    between atoms: C_4  and  N_5
    3  A    between atoms: N_5  and  C_19
    4  A    between atoms: C_6  and  C_8
    5  A    between atoms: C_8  and  C_9
    6  A    between atoms: C_12  and  C_13
                            x       y       z     vdW  Elec       q    Type
                         _______ _______ _______ _____ _____    ______ ____

>  <TORSDO>
F 6

$$$$
