=
 OpenBabel07192307433D

 43 46  0  0  0  0  0  0  0  0999 V2000
    2.5840    6.0270   18.7140 C   0  0  0  0  0  0  0  0  0  0  0  0
    2.5420    6.9400   17.6500 C   0  0  0  0  0  0  0  0  0  0  0  0
    2.1060    8.2490   17.8670 C   0  0  0  0  0  0  0  0  0  0  0  0
    1.7120    8.6410   19.1510 C   0  0  0  0  0  0  0  0  0  0  0  0
    1.2500   10.0130   19.4220 C   0  0  0  0  0  0  0  0  0  0  0  0
    1.1730   10.8120   18.4920 O   0  0  0  0  0  0  0  0  0  0  0  0
    0.9210   10.3070   20.7450 N   0  0  0  0  0  0  0  0  0  0  0  0
    0.9620    9.3310   21.7190 C   0  0  0  0  0  0  0  0  0  0  0  0
    1.3460    8.1120   21.5060 N   0  0  0  0  0  0  0  0  0  0  0  0
    1.7460    7.7480   20.2170 C   0  0  0  0  0  0  0  0  0  0  0  0
    2.1830    6.4380   19.9930 C   0  0  0  0  0  0  0  0  0  0  0  0
    0.5030    9.6830   23.1220 C   0  0  0  0  0  0  0  0  0  0  0  0
   -0.9970    9.9580   23.1640 C   0  0  0  0  0  0  0  0  0  0  0  0
   -1.3620   11.3880   22.7710 C   0  0  0  0  0  0  0  0  0  0  0  0
   -1.0000   11.7650   21.3350 C   0  0  0  0  0  0  0  0  0  0  0  0
    0.4960   11.6740   21.0430 C   0  0  0  0  0  0  0  0  0  0  0  0
    2.8510    6.6370   16.6510 H   0  0  0  0  0  0  0  0  0  0  0  0
    2.0760    8.9560   17.0410 H   0  0  0  0  0  0  0  0  0  0  0  0
    2.2060    5.7460   20.8320 H   0  0  0  0  0  0  0  0  0  0  0  0
    1.0860   10.5230   23.5140 H   0  0  0  0  0  0  0  0  0  0  0  0
    0.7190    8.8240   23.7710 H   0  0  0  0  0  0  0  0  0  0  0  0
   -1.3510    9.7940   24.1890 H   0  0  0  0  0  0  0  0  0  0  0  0
   -1.5370    9.2510   22.5240 H   0  0  0  0  0  0  0  0  0  0  0  0
   -2.4440   11.5190   22.9010 H   0  0  0  0  0  0  0  0  0  0  0  0
   -0.8820   12.0900   23.4640 H   0  0  0  0  0  0  0  0  0  0  0  0
   -1.5680   11.1450   20.6300 H   0  0  0  0  0  0  0  0  0  0  0  0
   -1.3210   12.8020   21.1760 H   0  0  0  0  0  0  0  0  0  0  0  0
    1.0830   12.0510   21.8880 H   0  0  0  0  0  0  0  0  0  0  0  0
    0.7250   12.3280   20.1960 H   0  0  0  0  0  0  0  0  0  0  0  0
    3.0510    4.6310   18.4580 C   0  0  0  0  0  0  0  0  0  0  0  0
    2.2820    3.8310   17.9350 O   0  0  0  0  0  0  0  0  0  0  0  0
    6.4060    4.5620   16.0710 C   0  0  0  0  0  0  0  0  0  0  0  0
    5.1250    4.5220   16.4420 C   0  0  0  0  0  0  0  0  0  0  0  0
    5.2620    4.3270   17.8900 C   0  0  0  0  0  0  0  0  0  0  0  0
    4.3510    4.3650   18.8060 N   0  0  0  0  0  0  0  0  0  0  0  0
    6.5800    4.0960   18.2090 N   0  0  0  0  0  0  0  0  0  0  0  0
    7.3520    4.4090   17.0840 O   0  0  0  0  0  0  0  0  0  0  0  0
    4.2320    4.6450   15.8630 H   0  0  0  0  0  0  0  0  0  0  0  0
    6.8880    4.5290   19.0730 H   0  0  0  0  0  0  0  0  0  0  0  0
    6.9280    4.7830   14.6980 C   0  0  0  0  0  0  0  0  0  0  0  0
    7.9210    5.2460   14.7130 H   0  0  0  0  0  0  0  0  0  0  0  0
    7.0060    3.8310   14.1630 H   0  0  0  0  0  0  0  0  0  0  0  0
    6.2570    5.4410   14.1370 H   0  0  0  0  0  0  0  0  0  0  0  0
  1 11  1  0  0  0  0
  2  3  1  0  0  0  0
  2  1  2  0  0  0  0
  3  4  2  0  0  0  0
  4  5  1  0  0  0  0
  4 10  1  0  0  0  0
  5  7  1  0  0  0  0
  6  5  2  0  0  0  0
  7 16  1  0  0  0  0
  7  8  1  0  0  0  0
  8 12  1  0  0  0  0
  9  8  2  0  0  0  0
 10  9  1  0  0  0  0
 11 10  2  0  0  0  0
 11 19  1  0  0  0  0
 12 13  1  0  0  0  0
 12 20  1  0  0  0  0
 12 21  1  0  0  0  0
 13 22  1  0  0  0  0
 14 24  1  0  0  0  0
 14 13  1  0  0  0  0
 14 25  1  0  0  0  0
 15 14  1  0  0  0  0
 16 15  1  0  0  0  0
 16 28  1  0  0  0  0
 17  2  1  0  0  0  0
 18  3  1  0  0  0  0
 23 13  1  0  0  0  0
 26 15  1  0  0  0  0
 27 15  1  0  0  0  0
 29 16  1  0  0  0  0
 30  1  1  0  0  0  0
 30 35  1  0  0  0  0
 31 30  2  0  0  0  0
 32 33  2  0  0  0  0
 32 37  1  0  0  0  0
 33 34  1  0  0  0  0
 34 36  1  0  0  0  0
 34 35  2  0  0  0  0
 36 39  1  0  0  0  0
 37 36  1  0  0  0  0
 38 33  1  0  0  0  0
 40 41  1  0  0  0  0
 40 32  1  0  0  0  0
 42 40  1  0  0  0  0
 43 40  1  0  0  0  0
M  END
>  <MODEL>
1

>  <REMARK>
 VINA RESULT:    -9.468      0.000      0.000
 INTER + INTRA:         -10.520
 INTER:                 -10.128
 INTRA:                  -0.392
 UNBOUND:                 0.332
  Name = 
  3 active torsions:
  status: ('A' for Active; 'I' for Inactive)
    1  A    between atoms: C_1  and  C_2
    2  A    between atoms: N_5  and  C_6
    3  A    between atoms: C_6  and  C_8
                            x       y       z     vdW  Elec       q    Type
                         _______ _______ _______ _____ _____    ______ ____

>  <TORSDO>
F 3

$$$$
=
 OpenBabel07192307433D

 43 46  0  0  0  0  0  0  0  0999 V2000
    2.5900    6.3010   18.5810 C   0  0  0  0  0  0  0  0  0  0  0  0
    2.4780    7.2490   17.5540 C   0  0  0  0  0  0  0  0  0  0  0  0
    1.9940    8.5290   17.8320 C   0  0  0  0  0  0  0  0  0  0  0  0
    1.6210    8.8570   19.1400 C   0  0  0  0  0  0  0  0  0  0  0  0
    1.1090   10.1960   19.4750 C   0  0  0  0  0  0  0  0  0  0  0  0
    0.9720   11.0250   18.5780 O   0  0  0  0  0  0  0  0  0  0  0  0
    0.8070   10.4280   20.8160 N   0  0  0  0  0  0  0  0  0  0  0  0
    0.9180    9.4200   21.7520 C   0  0  0  0  0  0  0  0  0  0  0  0
    1.3470    8.2280   21.4820 N   0  0  0  0  0  0  0  0  0  0  0  0
    1.7230    7.9280   20.1710 C   0  0  0  0  0  0  0  0  0  0  0  0
    2.2090    6.6480   19.8860 C   0  0  0  0  0  0  0  0  0  0  0  0
    0.4850    9.7010   23.1790 C   0  0  0  0  0  0  0  0  0  0  0  0
   -1.0230    9.9090   23.2730 C   0  0  0  0  0  0  0  0  0  0  0  0
   -1.4590   11.3350   22.9430 C   0  0  0  0  0  0  0  0  0  0  0  0
   -1.1560   11.7790   21.5140 C   0  0  0  0  0  0  0  0  0  0  0  0
    0.3340   11.7630   21.1770 C   0  0  0  0  0  0  0  0  0  0  0  0
    2.7700    6.9960   16.5360 H   0  0  0  0  0  0  0  0  0  0  0  0
    1.9090    9.2630   17.0330 H   0  0  0  0  0  0  0  0  0  0  0  0
    2.2860    5.9270   20.6980 H   0  0  0  0  0  0  0  0  0  0  0  0
    1.0430   10.5500   23.5860 H   0  0  0  0  0  0  0  0  0  0  0  0
    0.7560    8.8290   23.7890 H   0  0  0  0  0  0  0  0  0  0  0  0
   -1.3390    9.6930   24.3010 H   0  0  0  0  0  0  0  0  0  0  0  0
   -1.5510    9.2020   22.6220 H   0  0  0  0  0  0  0  0  0  0  0  0
   -2.5410   11.4140   23.1080 H   0  0  0  0  0  0  0  0  0  0  0  0
   -0.9890   12.0310   23.6490 H   0  0  0  0  0  0  0  0  0  0  0  0
   -1.7170   11.1610   20.8010 H   0  0  0  0  0  0  0  0  0  0  0  0
   -1.5240   12.8060   21.4020 H   0  0  0  0  0  0  0  0  0  0  0  0
    0.9280   12.1350   22.0190 H   0  0  0  0  0  0  0  0  0  0  0  0
    0.5100   12.4570   20.3490 H   0  0  0  0  0  0  0  0  0  0  0  0
    3.1070    4.9360   18.2610 C   0  0  0  0  0  0  0  0  0  0  0  0
    2.5440    4.2710   17.3970 O   0  0  0  0  0  0  0  0  0  0  0  0
    6.9330    6.4490   18.0700 C   0  0  0  0  0  0  0  0  0  0  0  0
    5.6780    6.1540   17.7250 C   0  0  0  0  0  0  0  0  0  0  0  0
    5.3610    5.1070   18.7030 C   0  0  0  0  0  0  0  0  0  0  0  0
    4.2250    4.5450   18.9540 N   0  0  0  0  0  0  0  0  0  0  0  0
    6.4940    4.7620   19.4030 N   0  0  0  0  0  0  0  0  0  0  0  0
    7.4730    5.7250   19.1320 O   0  0  0  0  0  0  0  0  0  0  0  0
    5.0450    6.5870   16.9760 H   0  0  0  0  0  0  0  0  0  0  0  0
    6.3410    4.5740   20.3880 H   0  0  0  0  0  0  0  0  0  0  0  0
    7.8030    7.4860   17.4590 C   0  0  0  0  0  0  0  0  0  0  0  0
    8.8030    7.0980   17.2400 H   0  0  0  0  0  0  0  0  0  0  0  0
    7.3660    7.8460   16.5220 H   0  0  0  0  0  0  0  0  0  0  0  0
    7.9120    8.3380   18.1380 H   0  0  0  0  0  0  0  0  0  0  0  0
  1 11  1  0  0  0  0
  2  3  1  0  0  0  0
  2  1  2  0  0  0  0
  3  4  2  0  0  0  0
  4  5  1  0  0  0  0
  4 10  1  0  0  0  0
  5  7  1  0  0  0  0
  6  5  2  0  0  0  0
  7 16  1  0  0  0  0
  7  8  1  0  0  0  0
  8 12  1  0  0  0  0
  9  8  2  0  0  0  0
 10  9  1  0  0  0  0
 11 10  2  0  0  0  0
 11 19  1  0  0  0  0
 12 13  1  0  0  0  0
 12 20  1  0  0  0  0
 12 21  1  0  0  0  0
 13 22  1  0  0  0  0
 14 24  1  0  0  0  0
 14 13  1  0  0  0  0
 14 25  1  0  0  0  0
 15 14  1  0  0  0  0
 16 15  1  0  0  0  0
 16 28  1  0  0  0  0
 17  2  1  0  0  0  0
 18  3  1  0  0  0  0
 23 13  1  0  0  0  0
 26 15  1  0  0  0  0
 27 15  1  0  0  0  0
 29 16  1  0  0  0  0
 30  1  1  0  0  0  0
 30 35  1  0  0  0  0
 31 30  2  0  0  0  0
 32 37  1  0  0  0  0
 33 32  2  0  0  0  0
 33 34  1  0  0  0  0
 34 35  2  0  0  0  0
 34 36  1  0  0  0  0
 36 39  1  0  0  0  0
 37 36  1  0  0  0  0
 38 33  1  0  0  0  0
 40 32  1  0  0  0  0
 40 43  1  0  0  0  0
 41 40  1  0  0  0  0
 42 40  1  0  0  0  0
M  END
>  <MODEL>
2

>  <REMARK>
 VINA RESULT:    -8.936      1.166      1.246
 INTER + INTRA:          -9.910
 INTER:                  -9.722
 INTRA:                  -0.188
 UNBOUND:                 0.332
  Name = 
  3 active torsions:
  status: ('A' for Active; 'I' for Inactive)
    1  A    between atoms: C_1  and  C_2
    2  A    between atoms: N_5  and  C_6
    3  A    between atoms: C_6  and  C_8
                            x       y       z     vdW  Elec       q    Type
                         _______ _______ _______ _____ _____    ______ ____

>  <TORSDO>
F 3

$$$$
=
 OpenBabel07192307433D

 43 46  0  0  0  0  0  0  0  0999 V2000
    2.6360    7.0730   18.3430 C   0  0  0  0  0  0  0  0  0  0  0  0
    2.5040    8.1030   17.4010 C   0  0  0  0  0  0  0  0  0  0  0  0
    1.9530    9.3300   17.7770 C   0  0  0  0  0  0  0  0  0  0  0  0
    1.5330    9.5220   19.0980 C   0  0  0  0  0  0  0  0  0  0  0  0
    0.9510   10.8010   19.5360 C   0  0  0  0  0  0  0  0  0  0  0  0
    0.7950   11.7000   18.7120 O   0  0  0  0  0  0  0  0  0  0  0  0
    0.6070   10.8970   20.8840 N   0  0  0  0  0  0  0  0  0  0  0  0
    0.7430    9.8160   21.7290 C   0  0  0  0  0  0  0  0  0  0  0  0
    1.2340    8.6730   21.3670 N   0  0  0  0  0  0  0  0  0  0  0  0
    1.6560    8.5100   20.0450 C   0  0  0  0  0  0  0  0  0  0  0  0
    2.2080    7.2830   19.6620 C   0  0  0  0  0  0  0  0  0  0  0  0
    0.2640    9.9470   23.1630 C   0  0  0  0  0  0  0  0  0  0  0  0
   -1.2540   10.0780   23.2330 C   0  0  0  0  0  0  0  0  0  0  0  0
   -1.7500   11.5070   23.0190 C   0  0  0  0  0  0  0  0  0  0  0  0
   -1.4350   12.0900   21.6440 C   0  0  0  0  0  0  0  0  0  0  0  0
    0.0620   12.1720   21.3480 C   0  0  0  0  0  0  0  0  0  0  0  0
    2.8310    7.9560   16.3720 H   0  0  0  0  0  0  0  0  0  0  0  0
    1.8520   10.1280   17.0450 H   0  0  0  0  0  0  0  0  0  0  0  0
    2.3000    6.4970   20.4080 H   0  0  0  0  0  0  0  0  0  0  0  0
    0.7710   10.7820   23.6590 H   0  0  0  0  0  0  0  0  0  0  0  0
    0.5610    9.0380   23.7010 H   0  0  0  0  0  0  0  0  0  0  0  0
   -1.5840    9.7560   24.2280 H   0  0  0  0  0  0  0  0  0  0  0  0
   -1.7320    9.4100   22.5080 H   0  0  0  0  0  0  0  0  0  0  0  0
   -2.8380   11.5220   23.1600 H   0  0  0  0  0  0  0  0  0  0  0  0
   -1.3300   12.1580   23.7960 H   0  0  0  0  0  0  0  0  0  0  0  0
   -1.9490   11.5140   20.8640 H   0  0  0  0  0  0  0  0  0  0  0  0
   -1.8490   13.1060   21.6130 H   0  0  0  0  0  0  0  0  0  0  0  0
    0.6180   12.4940   22.2360 H   0  0  0  0  0  0  0  0  0  0  0  0
    0.2250   12.9450   20.5900 H   0  0  0  0  0  0  0  0  0  0  0  0
    3.2250    5.7670   17.9170 C   0  0  0  0  0  0  0  0  0  0  0  0
    4.4450    5.6490   17.8720 O   0  0  0  0  0  0  0  0  0  0  0  0
    1.6780    2.9030   20.4400 C   0  0  0  0  0  0  0  0  0  0  0  0
    2.4970    3.8310   19.9420 C   0  0  0  0  0  0  0  0  0  0  0  0
    2.0100    3.9200   18.5620 C   0  0  0  0  0  0  0  0  0  0  0  0
    2.3250    4.7690   17.6400 N   0  0  0  0  0  0  0  0  0  0  0  0
    1.0850    2.9280   18.3270 N   0  0  0  0  0  0  0  0  0  0  0  0
    0.7340    2.3720   19.5620 O   0  0  0  0  0  0  0  0  0  0  0  0
    3.2700    4.4010   20.4190 H   0  0  0  0  0  0  0  0  0  0  0  0
    0.3030    3.2090   17.7460 H   0  0  0  0  0  0  0  0  0  0  0  0
    1.6490    2.3990   21.8370 C   0  0  0  0  0  0  0  0  0  0  0  0
    2.2670    3.0120   22.5010 H   0  0  0  0  0  0  0  0  0  0  0  0
    0.6240    2.4080   22.2230 H   0  0  0  0  0  0  0  0  0  0  0  0
    2.0240    1.3720   21.8780 H   0  0  0  0  0  0  0  0  0  0  0  0
  1 11  1  0  0  0  0
  2  3  1  0  0  0  0
  2  1  2  0  0  0  0
  3  4  2  0  0  0  0
  4  5  1  0  0  0  0
  4 10  1  0  0  0  0
  5  7  1  0  0  0  0
  6  5  2  0  0  0  0
  7 16  1  0  0  0  0
  7  8  1  0  0  0  0
  8 12  1  0  0  0  0
  9  8  2  0  0  0  0
 10  9  1  0  0  0  0
 11 10  2  0  0  0  0
 11 19  1  0  0  0  0
 12 13  1  0  0  0  0
 12 20  1  0  0  0  0
 12 21  1  0  0  0  0
 13 22  1  0  0  0  0
 14 24  1  0  0  0  0
 14 13  1  0  0  0  0
 14 25  1  0  0  0  0
 15 14  1  0  0  0  0
 16 15  1  0  0  0  0
 16 28  1  0  0  0  0
 17  2  1  0  0  0  0
 18  3  1  0  0  0  0
 23 13  1  0  0  0  0
 26 15  1  0  0  0  0
 27 15  1  0  0  0  0
 29 16  1  0  0  0  0
 30  1  1  0  0  0  0
 31 30  2  0  0  0  0
 32 40  1  0  0  0  0
 33 38  1  0  0  0  0
 33 32  2  0  0  0  0
 34 33  1  0  0  0  0
 35 30  1  0  0  0  0
 35 34  2  0  0  0  0
 36 34  1  0  0  0  0
 36 37  1  0  0  0  0
 37 32  1  0  0  0  0
 39 36  1  0  0  0  0
 40 43  1  0  0  0  0
 40 42  1  0  0  0  0
 40 41  1  0  0  0  0
M  END
>  <MODEL>
3

>  <REMARK>
 VINA RESULT:    -8.700      2.055      3.291
 INTER + INTRA:          -9.640
 INTER:                  -9.334
 INTRA:                  -0.306
 UNBOUND:                 0.332
  Name = 
  3 active torsions:
  status: ('A' for Active; 'I' for Inactive)
    1  A    between atoms: C_1  and  C_2
    2  A    between atoms: N_5  and  C_6
    3  A    between atoms: C_6  and  C_8
                            x       y       z     vdW  Elec       q    Type
                         _______ _______ _______ _____ _____    ______ ____

>  <TORSDO>
F 3

$$$$
=
 OpenBabel07192307433D

 43 46  0  0  0  0  0  0  0  0999 V2000
    4.0320    5.2900   18.2550 C   0  0  0  0  0  0  0  0  0  0  0  0
    3.5460    4.9370   19.5220 C   0  0  0  0  0  0  0  0  0  0  0  0
    2.7050    5.8080   20.2170 C   0  0  0  0  0  0  0  0  0  0  0  0
    2.3520    7.0340   19.6410 C   0  0  0  0  0  0  0  0  0  0  0  0
    1.4650    7.9780   20.3400 C   0  0  0  0  0  0  0  0  0  0  0  0
    1.0620    7.6980   21.4660 O   0  0  0  0  0  0  0  0  0  0  0  0
    1.1450    9.1510   19.6550 N   0  0  0  0  0  0  0  0  0  0  0  0
    1.7000    9.4260   18.4230 C   0  0  0  0  0  0  0  0  0  0  0  0
    2.4980    8.6230   17.7940 N   0  0  0  0  0  0  0  0  0  0  0  0
    2.8270    7.4000   18.3850 C   0  0  0  0  0  0  0  0  0  0  0  0
    3.6690    6.5230   17.6940 C   0  0  0  0  0  0  0  0  0  0  0  0
    1.3920   10.7590   17.7670 C   0  0  0  0  0  0  0  0  0  0  0  0
    2.0140   11.9170   18.5410 C   0  0  0  0  0  0  0  0  0  0  0  0
    1.1620   12.3880   19.7170 C   0  0  0  0  0  0  0  0  0  0  0  0
    0.9510   11.3410   20.8090 C   0  0  0  0  0  0  0  0  0  0  0  0
    0.2350   10.0860   20.3150 C   0  0  0  0  0  0  0  0  0  0  0  0
    3.8180    3.9830   19.9720 H   0  0  0  0  0  0  0  0  0  0  0  0
    2.3280    5.5320   21.2000 H   0  0  0  0  0  0  0  0  0  0  0  0
    4.0360    6.8170   16.7140 H   0  0  0  0  0  0  0  0  0  0  0  0
    0.3110   10.8820   17.6440 H   0  0  0  0  0  0  0  0  0  0  0  0
    1.8210   10.7430   16.7570 H   0  0  0  0  0  0  0  0  0  0  0  0
    2.1360   12.7660   17.8560 H   0  0  0  0  0  0  0  0  0  0  0  0
    3.0160   11.6490   18.8960 H   0  0  0  0  0  0  0  0  0  0  0  0
    1.6440   13.2650   20.1670 H   0  0  0  0  0  0  0  0  0  0  0  0
    0.1870   12.7300   19.3460 H   0  0  0  0  0  0  0  0  0  0  0  0
    1.9120   11.0790   21.2690 H   0  0  0  0  0  0  0  0  0  0  0  0
    0.3380   11.8020   21.5940 H   0  0  0  0  0  0  0  0  0  0  0  0
   -0.5730   10.3440   19.6210 H   0  0  0  0  0  0  0  0  0  0  0  0
   -0.2430    9.5990   21.1710 H   0  0  0  0  0  0  0  0  0  0  0  0
    4.9330    4.3430   17.5310 C   0  0  0  0  0  0  0  0  0  0  0  0
    4.5930    3.1710   17.4070 O   0  0  0  0  0  0  0  0  0  0  0  0
    6.4330    4.0930   13.7030 C   0  0  0  0  0  0  0  0  0  0  0  0
    5.7350    3.8020   14.8020 C   0  0  0  0  0  0  0  0  0  0  0  0
    6.4170    4.6400   15.7940 C   0  0  0  0  0  0  0  0  0  0  0  0
    6.0820    4.8900   17.0170 N   0  0  0  0  0  0  0  0  0  0  0  0
    7.5450    5.1990   15.2380 N   0  0  0  0  0  0  0  0  0  0  0  0
    7.4830    4.9980   13.8550 O   0  0  0  0  0  0  0  0  0  0  0  0
    4.8780    3.1710   14.9320 H   0  0  0  0  0  0  0  0  0  0  0  0
    7.7260    6.1550   15.5240 H   0  0  0  0  0  0  0  0  0  0  0  0
    6.1910    3.5760   12.3320 C   0  0  0  0  0  0  0  0  0  0  0  0
    7.1010    3.1550   11.8920 H   0  0  0  0  0  0  0  0  0  0  0  0
    5.4290    2.7900   12.3510 H   0  0  0  0  0  0  0  0  0  0  0  0
    5.8400    4.3810   11.6790 H   0  0  0  0  0  0  0  0  0  0  0  0
  1  2  1  0  0  0  0
  2 17  1  0  0  0  0
  2  3  2  0  0  0  0
  3 18  1  0  0  0  0
  4  3  1  0  0  0  0
  4  5  1  0  0  0  0
  5  6  2  0  0  0  0
  7 16  1  0  0  0  0
  7  5  1  0  0  0  0
  8  7  1  0  0  0  0
  9 10  1  0  0  0  0
  9  8  2  0  0  0  0
 10  4  2  0  0  0  0
 11  1  2  0  0  0  0
 11 10  1  0  0  0  0
 12  8  1  0  0  0  0
 12 13  1  0  0  0  0
 13 23  1  0  0  0  0
 13 14  1  0  0  0  0
 14 24  1  0  0  0  0
 14 15  1  0  0  0  0
 15 26  1  0  0  0  0
 15 27  1  0  0  0  0
 16 15  1  0  0  0  0
 16 29  1  0  0  0  0
 19 11  1  0  0  0  0
 20 12  1  0  0  0  0
 21 12  1  0  0  0  0
 22 13  1  0  0  0  0
 25 14  1  0  0  0  0
 28 16  1  0  0  0  0
 30  1  1  0  0  0  0
 31 30  2  0  0  0  0
 32 37  1  0  0  0  0
 32 33  2  0  0  0  0
 33 38  1  0  0  0  0
 33 34  1  0  0  0  0
 34 35  2  0  0  0  0
 35 30  1  0  0  0  0
 36 39  1  0  0  0  0
 36 34  1  0  0  0  0
 37 36  1  0  0  0  0
 40 42  1  0  0  0  0
 40 32  1  0  0  0  0
 41 40  1  0  0  0  0
 43 40  1  0  0  0  0
M  END
>  <MODEL>
4

>  <REMARK>
 VINA RESULT:    -8.647      1.982      3.112
 INTER + INTRA:          -9.579
 INTER:                  -9.574
 INTRA:                  -0.005
 UNBOUND:                 0.332
  Name = 
  3 active torsions:
  status: ('A' for Active; 'I' for Inactive)
    1  A    between atoms: C_1  and  C_2
    2  A    between atoms: N_5  and  C_6
    3  A    between atoms: C_6  and  C_8
                            x       y       z     vdW  Elec       q    Type
                         _______ _______ _______ _____ _____    ______ ____

>  <TORSDO>
F 3

$$$$
=
 OpenBabel07192307433D

 43 46  0  0  0  0  0  0  0  0999 V2000
    2.7620    5.3950   19.0930 C   0  0  0  0  0  0  0  0  0  0  0  0
    2.2220    5.3300   20.3860 C   0  0  0  0  0  0  0  0  0  0  0  0
    1.6150    6.4550   20.9490 C   0  0  0  0  0  0  0  0  0  0  0  0
    1.5500    7.6440   20.2140 C   0  0  0  0  0  0  0  0  0  0  0  0
    0.9160    8.8510   20.7700 C   0  0  0  0  0  0  0  0  0  0  0  0
    0.4720    8.8190   21.9150 O   0  0  0  0  0  0  0  0  0  0  0  0
    0.8690    9.9680   19.9360 N   0  0  0  0  0  0  0  0  0  0  0  0
    1.4590    9.9460   18.6890 C   0  0  0  0  0  0  0  0  0  0  0  0
    2.0390    8.9050   18.1820 N   0  0  0  0  0  0  0  0  0  0  0  0
    2.0820    7.7260   18.9310 C   0  0  0  0  0  0  0  0  0  0  0  0
    2.6880    6.5960   18.3730 C   0  0  0  0  0  0  0  0  0  0  0  0
    1.4610   11.2180   17.8630 C   0  0  0  0  0  0  0  0  0  0  0  0
    2.3440   12.2900   18.4930 C   0  0  0  0  0  0  0  0  0  0  0  0
    1.6390   13.0930   19.5840 C   0  0  0  0  0  0  0  0  0  0  0  0
    1.2040   12.2730   20.7970 C   0  0  0  0  0  0  0  0  0  0  0  0
    0.2100   11.1660   20.4540 C   0  0  0  0  0  0  0  0  0  0  0  0
    2.2700    4.4050   20.9580 H   0  0  0  0  0  0  0  0  0  0  0  0
    1.1960    6.4020   21.9520 H   0  0  0  0  0  0  0  0  0  0  0  0
    3.1020    6.6690   17.3690 H   0  0  0  0  0  0  0  0  0  0  0  0
    0.4370   11.5720   17.7050 H   0  0  0  0  0  0  0  0  0  0  0  0
    1.8620   10.9740   16.8700 H   0  0  0  0  0  0  0  0  0  0  0  0
    2.6520   12.9920   17.7080 H   0  0  0  0  0  0  0  0  0  0  0  0
    3.2610   11.8440   18.8980 H   0  0  0  0  0  0  0  0  0  0  0  0
    2.3180   13.8840   19.9270 H   0  0  0  0  0  0  0  0  0  0  0  0
    0.7670   13.6010   19.1550 H   0  0  0  0  0  0  0  0  0  0  0  0
    2.0830   11.8560   21.3040 H   0  0  0  0  0  0  0  0  0  0  0  0
    0.7250   12.9610   21.5050 H   0  0  0  0  0  0  0  0  0  0  0  0
   -0.5240   11.5130   19.7180 H   0  0  0  0  0  0  0  0  0  0  0  0
   -0.3580   10.9170   21.3560 H   0  0  0  0  0  0  0  0  0  0  0  0
    3.4090    4.1800   18.5120 C   0  0  0  0  0  0  0  0  0  0  0  0
    2.7300    3.3990   17.8530 O   0  0  0  0  0  0  0  0  0  0  0  0
    6.5320    4.5620   15.8540 C   0  0  0  0  0  0  0  0  0  0  0  0
    5.3000    4.3640   16.3280 C   0  0  0  0  0  0  0  0  0  0  0  0
    5.5830    4.1480   17.7520 C   0  0  0  0  0  0  0  0  0  0  0  0
    4.7560    4.0560   18.7410 N   0  0  0  0  0  0  0  0  0  0  0  0
    6.9410    4.0620   17.9510 N   0  0  0  0  0  0  0  0  0  0  0  0
    7.5730    4.4920   16.7780 O   0  0  0  0  0  0  0  0  0  0  0  0
    4.3520    4.3980   15.8300 H   0  0  0  0  0  0  0  0  0  0  0  0
    7.2720    4.5050   18.8020 H   0  0  0  0  0  0  0  0  0  0  0  0
    6.9040    4.8770   14.4510 C   0  0  0  0  0  0  0  0  0  0  0  0
    6.3270    5.7210   14.0590 H   0  0  0  0  0  0  0  0  0  0  0  0
    7.9660    5.1350   14.3880 H   0  0  0  0  0  0  0  0  0  0  0  0
    6.7200    4.0120   13.8050 H   0  0  0  0  0  0  0  0  0  0  0  0
  1  2  1  0  0  0  0
  2  3  2  0  0  0  0
  2 17  1  0  0  0  0
  3 18  1  0  0  0  0
  4  5  1  0  0  0  0
  4  3  1  0  0  0  0
  5  6  2  0  0  0  0
  7 16  1  0  0  0  0
  7  5  1  0  0  0  0
  8  7  1  0  0  0  0
  9  8  2  0  0  0  0
  9 10  1  0  0  0  0
 10  4  2  0  0  0  0
 11 10  1  0  0  0  0
 11  1  2  0  0  0  0
 12 13  1  0  0  0  0
 12  8  1  0  0  0  0
 13 23  1  0  0  0  0
 13 14  1  0  0  0  0
 14 24  1  0  0  0  0
 14 15  1  0  0  0  0
 15 26  1  0  0  0  0
 15 27  1  0  0  0  0
 16 15  1  0  0  0  0
 16 29  1  0  0  0  0
 19 11  1  0  0  0  0
 20 12  1  0  0  0  0
 21 12  1  0  0  0  0
 22 13  1  0  0  0  0
 25 14  1  0  0  0  0
 28 16  1  0  0  0  0
 30 35  1  0  0  0  0
 30  1  1  0  0  0  0
 31 30  2  0  0  0  0
 32 33  2  0  0  0  0
 32 37  1  0  0  0  0
 33 34  1  0  0  0  0
 34 36  1  0  0  0  0
 34 35  2  0  0  0  0
 36 39  1  0  0  0  0
 37 36  1  0  0  0  0
 38 33  1  0  0  0  0
 40 32  1  0  0  0  0
 41 40  1  0  0  0  0
 42 40  1  0  0  0  0
 43 40  1  0  0  0  0
M  END
>  <MODEL>
5

>  <REMARK>
 VINA RESULT:    -8.501      1.538      2.623
 INTER + INTRA:          -9.412
 INTER:                  -9.126
 INTRA:                  -0.286
 UNBOUND:                 0.332
  Name = 
  3 active torsions:
  status: ('A' for Active; 'I' for Inactive)
    1  A    between atoms: C_1  and  C_2
    2  A    between atoms: N_5  and  C_6
    3  A    between atoms: C_6  and  C_8
                            x       y       z     vdW  Elec       q    Type
                         _______ _______ _______ _____ _____    ______ ____

>  <TORSDO>
F 3

$$$$
=
 OpenBabel07192307433D

 43 46  0  0  0  0  0  0  0  0999 V2000
    1.3030    9.3130   19.4330 C   0  0  0  0  0  0  0  0  0  0  0  0
    0.9370    8.7980   20.6860 C   0  0  0  0  0  0  0  0  0  0  0  0
    1.2890    7.4940   21.0370 C   0  0  0  0  0  0  0  0  0  0  0  0
    2.0070    6.7050   20.1320 C   0  0  0  0  0  0  0  0  0  0  0  0
    2.4000    5.3260   20.4660 C   0  0  0  0  0  0  0  0  0  0  0  0
    2.0540    4.8500   21.5450 O   0  0  0  0  0  0  0  0  0  0  0  0
    3.1500    4.6450   19.5070 N   0  0  0  0  0  0  0  0  0  0  0  0
    3.4340    5.2230   18.2870 C   0  0  0  0  0  0  0  0  0  0  0  0
    3.0850    6.4260   17.9600 N   0  0  0  0  0  0  0  0  0  0  0  0
    2.3770    7.1980   18.8850 C   0  0  0  0  0  0  0  0  0  0  0  0
    2.0220    8.5060   18.5390 C   0  0  0  0  0  0  0  0  0  0  0  0
    4.1710    4.4020   17.2460 C   0  0  0  0  0  0  0  0  0  0  0  0
    3.3120    3.2480   16.7370 C   0  0  0  0  0  0  0  0  0  0  0  0
    3.3620    2.0130   17.6330 C   0  0  0  0  0  0  0  0  0  0  0  0
    2.8180    2.2280   19.0440 C   0  0  0  0  0  0  0  0  0  0  0  0
    3.5840    3.2870   19.8340 C   0  0  0  0  0  0  0  0  0  0  0  0
    0.3800    9.4120   21.3920 H   0  0  0  0  0  0  0  0  0  0  0  0
    1.0040    7.0970   22.0100 H   0  0  0  0  0  0  0  0  0  0  0  0
    2.3150    8.8840   17.5620 H   0  0  0  0  0  0  0  0  0  0  0  0
    5.1300    4.0540   17.6440 H   0  0  0  0  0  0  0  0  0  0  0  0
    4.4050    5.0620   16.4010 H   0  0  0  0  0  0  0  0  0  0  0  0
    3.6780    2.9560   15.7450 H   0  0  0  0  0  0  0  0  0  0  0  0
    2.2710    3.5700   16.6100 H   0  0  0  0  0  0  0  0  0  0  0  0
    2.7810    1.2140   17.1560 H   0  0  0  0  0  0  0  0  0  0  0  0
    4.3950    1.6490   17.6930 H   0  0  0  0  0  0  0  0  0  0  0  0
    1.7500    2.4780   19.0010 H   0  0  0  0  0  0  0  0  0  0  0  0
    2.8990    1.2730   19.5780 H   0  0  0  0  0  0  0  0  0  0  0  0
    4.6610    3.2060   19.6540 H   0  0  0  0  0  0  0  0  0  0  0  0
    3.4380    3.0960   20.9020 H   0  0  0  0  0  0  0  0  0  0  0  0
    0.9140   10.7100   19.0770 C   0  0  0  0  0  0  0  0  0  0  0  0
    1.7200   11.4230   18.4880 O   0  0  0  0  0  0  0  0  0  0  0  0
   -2.5660   10.2650   16.9190 C   0  0  0  0  0  0  0  0  0  0  0  0
   -1.2670   10.3700   17.2040 C   0  0  0  0  0  0  0  0  0  0  0  0
   -1.3230   10.9100   18.5660 C   0  0  0  0  0  0  0  0  0  0  0  0
   -0.3640   11.0770   19.4160 N   0  0  0  0  0  0  0  0  0  0  0  0
   -2.6210   11.2360   18.8870 N   0  0  0  0  0  0  0  0  0  0  0  0
   -3.4540   10.6760   17.9120 O   0  0  0  0  0  0  0  0  0  0  0  0
   -0.4070   10.0940   16.6260 H   0  0  0  0  0  0  0  0  0  0  0  0
   -2.8840   11.0300   19.8440 H   0  0  0  0  0  0  0  0  0  0  0  0
   -3.1630    9.7300   15.6690 C   0  0  0  0  0  0  0  0  0  0  0  0
   -2.3940    9.4600   14.9380 H   0  0  0  0  0  0  0  0  0  0  0  0
   -3.7560    8.8350   15.8840 H   0  0  0  0  0  0  0  0  0  0  0  0
   -3.8190   10.4770   15.2110 H   0  0  0  0  0  0  0  0  0  0  0  0
  1  2  1  0  0  0  0
  2  3  2  0  0  0  0
  2 17  1  0  0  0  0
  3 18  1  0  0  0  0
  4  5  1  0  0  0  0
  4  3  1  0  0  0  0
  5  6  2  0  0  0  0
  7 16  1  0  0  0  0
  7  5  1  0  0  0  0
  8  7  1  0  0  0  0
  9  8  2  0  0  0  0
  9 10  1  0  0  0  0
 10  4  2  0  0  0  0
 11 10  1  0  0  0  0
 11  1  2  0  0  0  0
 12 20  1  0  0  0  0
 12  8  1  0  0  0  0
 13 12  1  0  0  0  0
 13 14  1  0  0  0  0
 14 25  1  0  0  0  0
 14 15  1  0  0  0  0
 15 27  1  0  0  0  0
 15 16  1  0  0  0  0
 16 29  1  0  0  0  0
 19 11  1  0  0  0  0
 21 12  1  0  0  0  0
 22 13  1  0  0  0  0
 23 13  1  0  0  0  0
 24 14  1  0  0  0  0
 26 15  1  0  0  0  0
 28 16  1  0  0  0  0
 30 35  1  0  0  0  0
 30  1  1  0  0  0  0
 31 30  2  0  0  0  0
 32 33  2  0  0  0  0
 32 37  1  0  0  0  0
 33 34  1  0  0  0  0
 34 36  1  0  0  0  0
 34 35  2  0  0  0  0
 36 39  1  0  0  0  0
 37 36  1  0  0  0  0
 38 33  1  0  0  0  0
 40 42  1  0  0  0  0
 40 32  1  0  0  0  0
 41 40  1  0  0  0  0
 43 40  1  0  0  0  0
M  END
>  <MODEL>
6

>  <REMARK>
 VINA RESULT:    -8.475      2.669      7.972
 INTER + INTRA:          -9.382
 INTER:                  -8.908
 INTRA:                  -0.474
 UNBOUND:                 0.332
  Name = 
  3 active torsions:
  status: ('A' for Active; 'I' for Inactive)
    1  A    between atoms: C_1  and  C_2
    2  A    between atoms: N_5  and  C_6
    3  A    between atoms: C_6  and  C_8
                            x       y       z     vdW  Elec       q    Type
                         _______ _______ _______ _____ _____    ______ ____

>  <TORSDO>
F 3

$$$$
=
 OpenBabel07192307433D

 43 46  0  0  0  0  0  0  0  0999 V2000
    2.9800    5.6670   18.7930 C   0  0  0  0  0  0  0  0  0  0  0  0
    2.4810    5.4250   20.0810 C   0  0  0  0  0  0  0  0  0  0  0  0
    1.7830    6.4240   20.7620 C   0  0  0  0  0  0  0  0  0  0  0  0
    1.5840    7.6660   20.1500 C   0  0  0  0  0  0  0  0  0  0  0  0
    0.8490    8.7450   20.8330 C   0  0  0  0  0  0  0  0  0  0  0  0
    0.4400    8.5580   21.9760 O   0  0  0  0  0  0  0  0  0  0  0  0
    0.6740    9.9270   20.1140 N   0  0  0  0  0  0  0  0  0  0  0  0
    1.2310   10.0850   18.8620 C   0  0  0  0  0  0  0  0  0  0  0  0
    1.8970    9.1610   18.2460 N   0  0  0  0  0  0  0  0  0  0  0  0
    2.0730    7.9250   18.8730 C   0  0  0  0  0  0  0  0  0  0  0  0
    2.7720    6.9200   18.1970 C   0  0  0  0  0  0  0  0  0  0  0  0
    1.0880   11.4250   18.1660 C   0  0  0  0  0  0  0  0  0  0  0  0
    1.8790   12.5130   18.8860 C   0  0  0  0  0  0  0  0  0  0  0  0
    1.1270   13.1320   20.0620 C   0  0  0  0  0  0  0  0  0  0  0  0
    0.8040   12.1590   21.1940 C   0  0  0  0  0  0  0  0  0  0  0  0
   -0.0860   10.9970   20.7590 C   0  0  0  0  0  0  0  0  0  0  0  0
    2.6330    4.4570   20.5590 H   0  0  0  0  0  0  0  0  0  0  0  0
    1.3960    6.2330   21.7610 H   0  0  0  0  0  0  0  0  0  0  0  0
    3.1510    7.1300   17.1990 H   0  0  0  0  0  0  0  0  0  0  0  0
    0.0310   11.6890   18.0600 H   0  0  0  0  0  0  0  0  0  0  0  0
    1.4870   11.3190   17.1480 H   0  0  0  0  0  0  0  0  0  0  0  0
    2.0970   13.3150   18.1700 H   0  0  0  0  0  0  0  0  0  0  0  0
    2.8450   12.1230   19.2300 H   0  0  0  0  0  0  0  0  0  0  0  0
    1.7340   13.9500   20.4710 H   0  0  0  0  0  0  0  0  0  0  0  0
    0.1990   13.5910   19.6990 H   0  0  0  0  0  0  0  0  0  0  0  0
    1.7320   11.7840   21.6440 H   0  0  0  0  0  0  0  0  0  0  0  0
    0.2780   12.7240   21.9740 H   0  0  0  0  0  0  0  0  0  0  0  0
   -0.8680   11.3400   20.0720 H   0  0  0  0  0  0  0  0  0  0  0  0
   -0.6040   10.6070   21.6400 H   0  0  0  0  0  0  0  0  0  0  0  0
    3.7270    4.5850   18.0850 C   0  0  0  0  0  0  0  0  0  0  0  0
    3.2420    4.0860   17.0740 O   0  0  0  0  0  0  0  0  0  0  0  0
    7.2520    6.7140   17.9910 C   0  0  0  0  0  0  0  0  0  0  0  0
    6.0300    6.2890   17.6650 C   0  0  0  0  0  0  0  0  0  0  0  0
    5.9600    5.0350   18.4240 C   0  0  0  0  0  0  0  0  0  0  0  0
    4.9480    4.2560   18.6190 N   0  0  0  0  0  0  0  0  0  0  0  0
    7.1900    4.7530   18.9740 N   0  0  0  0  0  0  0  0  0  0  0  0
    7.9860    5.8970   18.8500 O   0  0  0  0  0  0  0  0  0  0  0  0
    5.2760    6.7480   17.0570 H   0  0  0  0  0  0  0  0  0  0  0  0
    7.1540    4.3550   19.9060 H   0  0  0  0  0  0  0  0  0  0  0  0
    7.8990    7.9780   17.5570 C   0  0  0  0  0  0  0  0  0  0  0  0
    7.4630    8.3570   16.6270 H   0  0  0  0  0  0  0  0  0  0  0  0
    7.7810    8.7490   18.3250 H   0  0  0  0  0  0  0  0  0  0  0  0
    8.9690    7.8190   17.3890 H   0  0  0  0  0  0  0  0  0  0  0  0
  1  2  1  0  0  0  0
  2 17  1  0  0  0  0
  2  3  2  0  0  0  0
  3 18  1  0  0  0  0
  4  3  1  0  0  0  0
  4  5  1  0  0  0  0
  5  6  2  0  0  0  0
  7 16  1  0  0  0  0
  7  5  1  0  0  0  0
  8  7  1  0  0  0  0
  9  8  2  0  0  0  0
  9 10  1  0  0  0  0
 10  4  2  0  0  0  0
 11  1  2  0  0  0  0
 11 10  1  0  0  0  0
 12  8  1  0  0  0  0
 12 13  1  0  0  0  0
 13 23  1  0  0  0  0
 13 14  1  0  0  0  0
 14 24  1  0  0  0  0
 14 15  1  0  0  0  0
 15 26  1  0  0  0  0
 15 27  1  0  0  0  0
 16 15  1  0  0  0  0
 16 29  1  0  0  0  0
 19 11  1  0  0  0  0
 20 12  1  0  0  0  0
 21 12  1  0  0  0  0
 22 13  1  0  0  0  0
 25 14  1  0  0  0  0
 28 16  1  0  0  0  0
 30 35  1  0  0  0  0
 30  1  1  0  0  0  0
 31 30  2  0  0  0  0
 32 37  1  0  0  0  0
 33 32  2  0  0  0  0
 33 34  1  0  0  0  0
 34 35  2  0  0  0  0
 34 36  1  0  0  0  0
 36 39  1  0  0  0  0
 37 36  1  0  0  0  0
 38 33  1  0  0  0  0
 40 32  1  0  0  0  0
 40 42  1  0  0  0  0
 41 40  1  0  0  0  0
 43 40  1  0  0  0  0
M  END
>  <MODEL>
7

>  <REMARK>
 VINA RESULT:    -8.350      1.872      2.813
 INTER + INTRA:          -9.239
 INTER:                  -9.008
 INTRA:                  -0.231
 UNBOUND:                 0.332
  Name = 
  3 active torsions:
  status: ('A' for Active; 'I' for Inactive)
    1  A    between atoms: C_1  and  C_2
    2  A    between atoms: N_5  and  C_6
    3  A    between atoms: C_6  and  C_8
                            x       y       z     vdW  Elec       q    Type
                         _______ _______ _______ _____ _____    ______ ____

>  <TORSDO>
F 3

$$$$
=
 OpenBabel07192307433D

 43 46  0  0  0  0  0  0  0  0999 V2000
    2.2050    7.5360   18.9750 C   0  0  0  0  0  0  0  0  0  0  0  0
    2.0000    7.3830   20.3540 C   0  0  0  0  0  0  0  0  0  0  0  0
    1.2770    8.3430   21.0660 C   0  0  0  0  0  0  0  0  0  0  0  0
    0.7620    9.4570   20.3940 C   0  0  0  0  0  0  0  0  0  0  0  0
   -0.0080   10.4890   21.1070 C   0  0  0  0  0  0  0  0  0  0  0  0
   -0.1640   10.3860   22.3220 O   0  0  0  0  0  0  0  0  0  0  0  0
   -0.5110   11.5340   20.3320 N   0  0  0  0  0  0  0  0  0  0  0  0
   -0.2270   11.6180   18.9850 C   0  0  0  0  0  0  0  0  0  0  0  0
    0.4630   10.7340   18.3360 N   0  0  0  0  0  0  0  0  0  0  0  0
    0.9580    9.6250   19.0270 C   0  0  0  0  0  0  0  0  0  0  0  0
    1.6820    8.6600   18.3200 C   0  0  0  0  0  0  0  0  0  0  0  0
   -0.7200   12.8260   18.2110 C   0  0  0  0  0  0  0  0  0  0  0  0
   -0.0080   14.1000   18.6540 C   0  0  0  0  0  0  0  0  0  0  0  0
   -0.6260   14.7400   19.8940 C   0  0  0  0  0  0  0  0  0  0  0  0
   -0.5670   13.8770   21.1530 C   0  0  0  0  0  0  0  0  0  0  0  0
   -1.3110   12.5510   21.0140 C   0  0  0  0  0  0  0  0  0  0  0  0
    2.3990    6.5150   20.8780 H   0  0  0  0  0  0  0  0  0  0  0  0
    1.1180    8.2210   22.1350 H   0  0  0  0  0  0  0  0  0  0  0  0
    1.8310    8.8000   17.2510 H   0  0  0  0  0  0  0  0  0  0  0  0
   -1.8080   12.9140   18.2950 H   0  0  0  0  0  0  0  0  0  0  0  0
   -0.5020   12.6550   17.1480 H   0  0  0  0  0  0  0  0  0  0  0  0
   -0.0640   14.8300   17.8380 H   0  0  0  0  0  0  0  0  0  0  0  0
    1.0560   13.9040   18.8320 H   0  0  0  0  0  0  0  0  0  0  0  0
   -0.1030   15.6840   20.0960 H   0  0  0  0  0  0  0  0  0  0  0  0
   -1.6700   15.0070   19.6840 H   0  0  0  0  0  0  0  0  0  0  0  0
    0.4780   13.7030   21.4410 H   0  0  0  0  0  0  0  0  0  0  0  0
   -1.0300   14.4490   21.9670 H   0  0  0  0  0  0  0  0  0  0  0  0
   -2.2520   12.6860   20.4690 H   0  0  0  0  0  0  0  0  0  0  0  0
   -1.5850   12.2000   22.0140 H   0  0  0  0  0  0  0  0  0  0  0  0
    2.9840    6.4980   18.2350 C   0  0  0  0  0  0  0  0  0  0  0  0
    4.2000    6.6260   18.1280 O   0  0  0  0  0  0  0  0  0  0  0  0
    1.6780    3.1380   20.2270 C   0  0  0  0  0  0  0  0  0  0  0  0
    2.3910    4.2250   19.9260 C   0  0  0  0  0  0  0  0  0  0  0  0
    1.9990    4.4370   18.5290 C   0  0  0  0  0  0  0  0  0  0  0  0
    2.2570    5.4390   17.7540 N   0  0  0  0  0  0  0  0  0  0  0  0
    1.2440    3.3750   18.0890 N   0  0  0  0  0  0  0  0  0  0  0  0
    0.8850    2.6140   19.2070 O   0  0  0  0  0  0  0  0  0  0  0  0
    3.0390    4.8200   20.5390 H   0  0  0  0  0  0  0  0  0  0  0  0
    0.4750    3.6280   17.4780 H   0  0  0  0  0  0  0  0  0  0  0  0
    1.6180    2.4480   21.5410 C   0  0  0  0  0  0  0  0  0  0  0  0
    1.5190    3.1600   22.3670 H   0  0  0  0  0  0  0  0  0  0  0  0
    0.7610    1.7680   21.5740 H   0  0  0  0  0  0  0  0  0  0  0  0
    2.5290    1.8650   21.7050 H   0  0  0  0  0  0  0  0  0  0  0  0
  1  2  1  0  0  0  0
  2 17  1  0  0  0  0
  2  3  2  0  0  0  0
  3 18  1  0  0  0  0
  4  3  1  0  0  0  0
  4  5  1  0  0  0  0
  5  6  2  0  0  0  0
  7 16  1  0  0  0  0
  7  5  1  0  0  0  0
  8  7  1  0  0  0  0
  9  8  2  0  0  0  0
  9 10  1  0  0  0  0
 10  4  2  0  0  0  0
 11  1  2  0  0  0  0
 11 10  1  0  0  0  0
 12 20  1  0  0  0  0
 12 13  1  0  0  0  0
 12  8  1  0  0  0  0
 13 23  1  0  0  0  0
 13 14  1  0  0  0  0
 14 24  1  0  0  0  0
 14 15  1  0  0  0  0
 15 26  1  0  0  0  0
 15 27  1  0  0  0  0
 16 15  1  0  0  0  0
 16 29  1  0  0  0  0
 19 11  1  0  0  0  0
 21 12  1  0  0  0  0
 22 13  1  0  0  0  0
 25 14  1  0  0  0  0
 28 16  1  0  0  0  0
 30  1  1  0  0  0  0
 31 30  2  0  0  0  0
 32 40  1  0  0  0  0
 33 32  2  0  0  0  0
 33 38  1  0  0  0  0
 34 33  1  0  0  0  0
 35 30  1  0  0  0  0
 35 34  2  0  0  0  0
 36 34  1  0  0  0  0
 36 37  1  0  0  0  0
 37 32  1  0  0  0  0
 39 36  1  0  0  0  0
 40 42  1  0  0  0  0
 40 43  1  0  0  0  0
 40 41  1  0  0  0  0
M  END
>  <MODEL>
8

>  <REMARK>
 VINA RESULT:    -8.157      2.701      4.246
 INTER + INTRA:          -9.018
 INTER:                  -8.987
 INTRA:                  -0.031
 UNBOUND:                 0.332
  Name = 
  3 active torsions:
  status: ('A' for Active; 'I' for Inactive)
    1  A    between atoms: C_1  and  C_2
    2  A    between atoms: N_5  and  C_6
    3  A    between atoms: C_6  and  C_8
                            x       y       z     vdW  Elec       q    Type
                         _______ _______ _______ _____ _____    ______ ____

>  <TORSDO>
F 3

$$$$
=
 OpenBabel07192307433D

 43 46  0  0  0  0  0  0  0  0999 V2000
    1.0710    8.5330   20.1790 C   0  0  0  0  0  0  0  0  0  0  0  0
    0.9490    7.3660   20.9480 C   0  0  0  0  0  0  0  0  0  0  0  0
    1.7530    6.2590   20.6730 C   0  0  0  0  0  0  0  0  0  0  0  0
    2.6800    6.3220   19.6270 C   0  0  0  0  0  0  0  0  0  0  0  0
    3.5500    5.1770   19.3080 C   0  0  0  0  0  0  0  0  0  0  0  0
    3.4280    4.1360   19.9500 O   0  0  0  0  0  0  0  0  0  0  0  0
    4.4660    5.3640   18.2730 N   0  0  0  0  0  0  0  0  0  0  0  0
    4.4890    6.5380   17.5490 C   0  0  0  0  0  0  0  0  0  0  0  0
    3.7240    7.5530   17.7960 N   0  0  0  0  0  0  0  0  0  0  0  0
    2.8130    7.4700   18.8530 C   0  0  0  0  0  0  0  0  0  0  0  0
    2.0040    8.5760   19.1330 C   0  0  0  0  0  0  0  0  0  0  0  0
    5.4410    6.6500   16.3740 C   0  0  0  0  0  0  0  0  0  0  0  0
    5.0380    5.7140   15.2390 C   0  0  0  0  0  0  0  0  0  0  0  0
    5.5520    4.2870   15.4190 C   0  0  0  0  0  0  0  0  0  0  0  0
    5.0070    3.5640   16.6490 C   0  0  0  0  0  0  0  0  0  0  0  0
    5.3660    4.2530   17.9640 C   0  0  0  0  0  0  0  0  0  0  0  0
    0.2290    7.3160   21.7640 H   0  0  0  0  0  0  0  0  0  0  0  0
    1.6580    5.3550   21.2720 H   0  0  0  0  0  0  0  0  0  0  0  0
    2.1140    9.4700   18.5230 H   0  0  0  0  0  0  0  0  0  0  0  0
    6.4720    6.4780   16.7010 H   0  0  0  0  0  0  0  0  0  0  0  0
    5.3990    7.6830   16.0050 H   0  0  0  0  0  0  0  0  0  0  0  0
    5.4550    6.1030   14.3030 H   0  0  0  0  0  0  0  0  0  0  0  0
    3.9470    5.7000   15.1200 H   0  0  0  0  0  0  0  0  0  0  0  0
    5.2820    3.7060   14.5280 H   0  0  0  0  0  0  0  0  0  0  0  0
    6.6480    4.2980   15.4580 H   0  0  0  0  0  0  0  0  0  0  0  0
    3.9200    3.4420   16.5630 H   0  0  0  0  0  0  0  0  0  0  0  0
    5.4400    2.5560   16.6580 H   0  0  0  0  0  0  0  0  0  0  0  0
    6.3950    4.6260   17.9420 H   0  0  0  0  0  0  0  0  0  0  0  0
    5.3280    3.5090   18.7670 H   0  0  0  0  0  0  0  0  0  0  0  0
    0.1970    9.7040   20.4880 C   0  0  0  0  0  0  0  0  0  0  0  0
   -0.5050    9.6770   21.4940 O   0  0  0  0  0  0  0  0  0  0  0  0
   -2.4100   10.8110   17.4980 C   0  0  0  0  0  0  0  0  0  0  0  0
   -1.7770   10.0600   18.4010 C   0  0  0  0  0  0  0  0  0  0  0  0
   -0.6130   10.9020   18.6950 C   0  0  0  0  0  0  0  0  0  0  0  0
    0.2840   10.7590   19.6150 N   0  0  0  0  0  0  0  0  0  0  0  0
   -0.5740   11.9670   17.8250 N   0  0  0  0  0  0  0  0  0  0  0  0
   -1.8040   12.0210   17.1610 O   0  0  0  0  0  0  0  0  0  0  0  0
   -2.0540    9.1210   18.8380 H   0  0  0  0  0  0  0  0  0  0  0  0
   -0.2730   12.8410   18.2410 H   0  0  0  0  0  0  0  0  0  0  0  0
   -3.7050   10.5060   16.8380 C   0  0  0  0  0  0  0  0  0  0  0  0
   -4.1310    9.5640   17.1980 H   0  0  0  0  0  0  0  0  0  0  0  0
   -4.4300   11.3030   17.0350 H   0  0  0  0  0  0  0  0  0  0  0  0
   -3.5700   10.4240   15.7540 H   0  0  0  0  0  0  0  0  0  0  0  0
  1 30  1  0  0  0  0
  1  2  1  0  0  0  0
  2 17  1  0  0  0  0
  3  2  2  0  0  0  0
  3 18  1  0  0  0  0
  4  3  1  0  0  0  0
  5  4  1  0  0  0  0
  5  6  2  0  0  0  0
  7  5  1  0  0  0  0
  8  9  2  0  0  0  0
  8  7  1  0  0  0  0
  9 10  1  0  0  0  0
 10 11  1  0  0  0  0
 10  4  2  0  0  0  0
 11  1  2  0  0  0  0
 12 20  1  0  0  0  0
 12  8  1  0  0  0  0
 13 14  1  0  0  0  0
 13 12  1  0  0  0  0
 14 25  1  0  0  0  0
 14 15  1  0  0  0  0
 15 27  1  0  0  0  0
 15 16  1  0  0  0  0
 16  7  1  0  0  0  0
 16 29  1  0  0  0  0
 19 11  1  0  0  0  0
 21 12  1  0  0  0  0
 22 13  1  0  0  0  0
 23 13  1  0  0  0  0
 24 14  1  0  0  0  0
 26 15  1  0  0  0  0
 28 16  1  0  0  0  0
 30 31  2  0  0  0  0
 32 33  2  0  0  0  0
 33 34  1  0  0  0  0
 33 38  1  0  0  0  0
 34 35  2  0  0  0  0
 35 30  1  0  0  0  0
 36 39  1  0  0  0  0
 36 34  1  0  0  0  0
 37 32  1  0  0  0  0
 37 36  1  0  0  0  0
 40 42  1  0  0  0  0
 40 41  1  0  0  0  0
 40 32  1  0  0  0  0
 43 40  1  0  0  0  0
M  END
>  <MODEL>
9

>  <REMARK>
 VINA RESULT:    -8.137      2.394      8.074
 INTER + INTRA:          -8.995
 INTER:                  -8.609
 INTRA:                  -0.386
 UNBOUND:                 0.332
  Name = 
  3 active torsions:
  status: ('A' for Active; 'I' for Inactive)
    1  A    between atoms: C_1  and  C_2
    2  A    between atoms: N_5  and  C_6
    3  A    between atoms: C_6  and  C_8
                            x       y       z     vdW  Elec       q    Type
                         _______ _______ _______ _____ _____    ______ ____

>  <TORSDO>
F 3

$$$$
=
 OpenBabel07192307433D

 43 46  0  0  0  0  0  0  0  0999 V2000
    1.6020    8.5080   18.9610 C   0  0  0  0  0  0  0  0  0  0  0  0
    1.0030    8.9720   17.7800 C   0  0  0  0  0  0  0  0  0  0  0  0
    0.0710   10.0110   17.8290 C   0  0  0  0  0  0  0  0  0  0  0  0
   -0.2590   10.5840   19.0620 C   0  0  0  0  0  0  0  0  0  0  0  0
   -1.2340   11.6840   19.1550 C   0  0  0  0  0  0  0  0  0  0  0  0
   -1.7940   12.0750   18.1340 O   0  0  0  0  0  0  0  0  0  0  0  0
   -1.4570   12.2090   20.4280 N   0  0  0  0  0  0  0  0  0  0  0  0
   -0.8450   11.6630   21.5370 C   0  0  0  0  0  0  0  0  0  0  0  0
    0.0020   10.6840   21.4870 N   0  0  0  0  0  0  0  0  0  0  0  0
    0.3240   10.1360   20.2430 C   0  0  0  0  0  0  0  0  0  0  0  0
    1.2560    9.0950   20.1870 C   0  0  0  0  0  0  0  0  0  0  0  0
   -1.1970   12.2120   22.9070 C   0  0  0  0  0  0  0  0  0  0  0  0
   -2.6390   11.8870   23.2830 C   0  0  0  0  0  0  0  0  0  0  0  0
   -3.6520   12.8770   22.7130 C   0  0  0  0  0  0  0  0  0  0  0  0
   -3.7130   12.9170   21.1870 C   0  0  0  0  0  0  0  0  0  0  0  0
   -2.3930   13.3270   20.5390 C   0  0  0  0  0  0  0  0  0  0  0  0
    1.2600    8.5280   16.8200 H   0  0  0  0  0  0  0  0  0  0  0  0
   -0.3910   10.3700   16.9120 H   0  0  0  0  0  0  0  0  0  0  0  0
    1.7070    8.7490   21.1150 H   0  0  0  0  0  0  0  0  0  0  0  0
   -0.9940   13.2870   22.9500 H   0  0  0  0  0  0  0  0  0  0  0  0
   -0.5300   11.7390   23.6400 H   0  0  0  0  0  0  0  0  0  0  0  0
   -2.7270   11.9130   24.3760 H   0  0  0  0  0  0  0  0  0  0  0  0
   -2.9000   10.8700   22.9670 H   0  0  0  0  0  0  0  0  0  0  0  0
   -4.6480   12.6120   23.0920 H   0  0  0  0  0  0  0  0  0  0  0  0
   -3.4340   13.8810   23.0950 H   0  0  0  0  0  0  0  0  0  0  0  0
   -4.0470   11.9470   20.7980 H   0  0  0  0  0  0  0  0  0  0  0  0
   -4.4790   13.6520   20.9070 H   0  0  0  0  0  0  0  0  0  0  0  0
   -1.9140   14.1350   21.1030 H   0  0  0  0  0  0  0  0  0  0  0  0
   -2.6050   13.7350   19.5450 H   0  0  0  0  0  0  0  0  0  0  0  0
    2.5930    7.3930   18.8850 C   0  0  0  0  0  0  0  0  0  0  0  0
    3.2480    7.2440   17.8590 O   0  0  0  0  0  0  0  0  0  0  0  0
    1.4430    3.4890   19.5150 C   0  0  0  0  0  0  0  0  0  0  0  0
    1.5060    4.7120   18.9860 C   0  0  0  0  0  0  0  0  0  0  0  0
    2.2310    5.4330   20.0390 C   0  0  0  0  0  0  0  0  0  0  0  0
    2.7180    6.6300   20.0190 N   0  0  0  0  0  0  0  0  0  0  0  0
    2.3680    4.6290   21.1470 N   0  0  0  0  0  0  0  0  0  0  0  0
    2.0210    3.3260   20.7740 O   0  0  0  0  0  0  0  0  0  0  0  0
    1.1690    5.0740   18.0350 H   0  0  0  0  0  0  0  0  0  0  0  0
    3.2590    4.7150   21.6230 H   0  0  0  0  0  0  0  0  0  0  0  0
    0.8490    2.2790   18.8920 C   0  0  0  0  0  0  0  0  0  0  0  0
   -0.1210    2.4960   18.4320 H   0  0  0  0  0  0  0  0  0  0  0  0
    1.5120    1.8880   18.1140 H   0  0  0  0  0  0  0  0  0  0  0  0
    0.7000    1.4980   19.6440 H   0  0  0  0  0  0  0  0  0  0  0  0
  1 11  1  0  0  0  0
  2  3  1  0  0  0  0
  2  1  2  0  0  0  0
  3  4  2  0  0  0  0
  4  5  1  0  0  0  0
  4 10  1  0  0  0  0
  5  7  1  0  0  0  0
  6  5  2  0  0  0  0
  7 16  1  0  0  0  0
  7  8  1  0  0  0  0
  8 12  1  0  0  0  0
  9  8  2  0  0  0  0
 10  9  1  0  0  0  0
 11 10  2  0  0  0  0
 11 19  1  0  0  0  0
 12 20  1  0  0  0  0
 12 13  1  0  0  0  0
 12 21  1  0  0  0  0
 13 22  1  0  0  0  0
 14 24  1  0  0  0  0
 14 25  1  0  0  0  0
 14 13  1  0  0  0  0
 15 14  1  0  0  0  0
 16 28  1  0  0  0  0
 16 15  1  0  0  0  0
 17  2  1  0  0  0  0
 18  3  1  0  0  0  0
 23 13  1  0  0  0  0
 26 15  1  0  0  0  0
 27 15  1  0  0  0  0
 29 16  1  0  0  0  0
 30  1  1  0  0  0  0
 30 35  1  0  0  0  0
 31 30  2  0  0  0  0
 32 37  1  0  0  0  0
 33 32  2  0  0  0  0
 33 34  1  0  0  0  0
 34 36  1  0  0  0  0
 35 34  2  0  0  0  0
 36 39  1  0  0  0  0
 37 36  1  0  0  0  0
 38 33  1  0  0  0  0
 40 32  1  0  0  0  0
 40 43  1  0  0  0  0
 41 40  1  0  0  0  0
 42 40  1  0  0  0  0
M  END
>  <MODEL>
10

>  <REMARK>
 VINA RESULT:    -8.062      3.003      3.829
 INTER + INTRA:          -8.908
 INTER:                  -8.516
 INTRA:                  -0.393
 UNBOUND:                 0.332
  Name = 
  3 active torsions:
  status: ('A' for Active; 'I' for Inactive)
    1  A    between atoms: C_1  and  C_2
    2  A    between atoms: N_5  and  C_6
    3  A    between atoms: C_6  and  C_8
                            x       y       z     vdW  Elec       q    Type
                         _______ _______ _______ _____ _____    ______ ____

>  <TORSDO>
F 3

$$$$
=
 OpenBabel07192307433D

 43 46  0  0  0  0  0  0  0  0999 V2000
    2.4320    7.0600   18.6370 C   0  0  0  0  0  0  0  0  0  0  0  0
    2.2360    6.7660   19.9940 C   0  0  0  0  0  0  0  0  0  0  0  0
    1.5900    7.6850   20.8240 C   0  0  0  0  0  0  0  0  0  0  0  0
    1.1410    8.8990   20.2910 C   0  0  0  0  0  0  0  0  0  0  0  0
    0.4520    9.8930   21.1310 C   0  0  0  0  0  0  0  0  0  0  0  0
    0.3070    9.6650   22.3300 O   0  0  0  0  0  0  0  0  0  0  0  0
    0.0110   11.0490   20.4880 N   0  0  0  0  0  0  0  0  0  0  0  0
    0.2800   11.2650   19.1530 C   0  0  0  0  0  0  0  0  0  0  0  0
    0.9000   10.4170   18.3950 N   0  0  0  0  0  0  0  0  0  0  0  0
    1.3290    9.2070   18.9470 C   0  0  0  0  0  0  0  0  0  0  0  0
    1.9770    8.2830   18.1220 C   0  0  0  0  0  0  0  0  0  0  0  0
   -0.1410   12.5820   18.5290 C   0  0  0  0  0  0  0  0  0  0  0  0
    0.6610   13.7480   19.0950 C   0  0  0  0  0  0  0  0  0  0  0  0
    0.1050   14.2850   20.4120 C   0  0  0  0  0  0  0  0  0  0  0  0
    0.1240   13.2840   21.5650 C   0  0  0  0  0  0  0  0  0  0  0  0
   -0.7100   12.0330   21.2960 C   0  0  0  0  0  0  0  0  0  0  0  0
    2.5830    5.8220   20.4100 H   0  0  0  0  0  0  0  0  0  0  0  0
    1.4380    7.4550   21.8760 H   0  0  0  0  0  0  0  0  0  0  0  0
    2.1200    8.5320   17.0720 H   0  0  0  0  0  0  0  0  0  0  0  0
   -1.2200   12.7310   18.6450 H   0  0  0  0  0  0  0  0  0  0  0  0
    0.0500   12.5180   17.4490 H   0  0  0  0  0  0  0  0  0  0  0  0
    0.6430   14.5680   18.3660 H   0  0  0  0  0  0  0  0  0  0  0  0
    1.7120   13.4650   19.2280 H   0  0  0  0  0  0  0  0  0  0  0  0
    0.6930   15.1630   20.7060 H   0  0  0  0  0  0  0  0  0  0  0  0
   -0.9210   14.6410   20.2550 H   0  0  0  0  0  0  0  0  0  0  0  0
    1.1580   13.0110   21.8100 H   0  0  0  0  0  0  0  0  0  0  0  0
   -0.2880   13.7890   22.4480 H   0  0  0  0  0  0  0  0  0  0  0  0
   -1.6470   12.2890   20.7900 H   0  0  0  0  0  0  0  0  0  0  0  0
   -0.9930   11.5900   22.2560 H   0  0  0  0  0  0  0  0  0  0  0  0
    3.1290    6.0630   17.7690 C   0  0  0  0  0  0  0  0  0  0  0  0
    2.7380    4.9000   17.7630 O   0  0  0  0  0  0  0  0  0  0  0  0
    7.1840    5.9530   18.4840 C   0  0  0  0  0  0  0  0  0  0  0  0
    5.8670    5.9310   18.7000 C   0  0  0  0  0  0  0  0  0  0  0  0
    5.3690    6.4800   17.4340 C   0  0  0  0  0  0  0  0  0  0  0  0
    4.1540    6.5560   17.0010 N   0  0  0  0  0  0  0  0  0  0  0  0
    6.4230    6.9340   16.6740 N   0  0  0  0  0  0  0  0  0  0  0  0
    7.6030    6.4540   17.2530 O   0  0  0  0  0  0  0  0  0  0  0  0
    5.3080    5.5690   19.5400 H   0  0  0  0  0  0  0  0  0  0  0  0
    6.3320    6.7590   15.6790 H   0  0  0  0  0  0  0  0  0  0  0  0
    8.2440    5.4740   19.4070 C   0  0  0  0  0  0  0  0  0  0  0  0
    7.8850    5.4150   20.4400 H   0  0  0  0  0  0  0  0  0  0  0  0
    8.5860    4.4780   19.1090 H   0  0  0  0  0  0  0  0  0  0  0  0
    9.1020    6.1540   19.3850 H   0  0  0  0  0  0  0  0  0  0  0  0
  1  2  1  0  0  0  0
  2 17  1  0  0  0  0
  2  3  2  0  0  0  0
  3 18  1  0  0  0  0
  4  3  1  0  0  0  0
  4  5  1  0  0  0  0
  5  6  2  0  0  0  0
  7  5  1  0  0  0  0
  7 16  1  0  0  0  0
  8  7  1  0  0  0  0
  9 10  1  0  0  0  0
  9  8  2  0  0  0  0
 10  4  2  0  0  0  0
 11  1  2  0  0  0  0
 11 10  1  0  0  0  0
 12 20  1  0  0  0  0
 12 13  1  0  0  0  0
 12  8  1  0  0  0  0
 13 23  1  0  0  0  0
 13 14  1  0  0  0  0
 14 24  1  0  0  0  0
 14 15  1  0  0  0  0
 15 26  1  0  0  0  0
 15 27  1  0  0  0  0
 16 15  1  0  0  0  0
 16 29  1  0  0  0  0
 19 11  1  0  0  0  0
 21 12  1  0  0  0  0
 22 13  1  0  0  0  0
 25 14  1  0  0  0  0
 28 16  1  0  0  0  0
 30  1  1  0  0  0  0
 31 30  2  0  0  0  0
 32 33  2  0  0  0  0
 32 40  1  0  0  0  0
 33 38  1  0  0  0  0
 34 33  1  0  0  0  0
 35 34  2  0  0  0  0
 35 30  1  0  0  0  0
 36 37  1  0  0  0  0
 36 34  1  0  0  0  0
 37 32  1  0  0  0  0
 39 36  1  0  0  0  0
 40 41  1  0  0  0  0
 42 40  1  0  0  0  0
 43 40  1  0  0  0  0
M  END
>  <MODEL>
11

>  <REMARK>
 VINA RESULT:    -8.043      2.100      3.055
 INTER + INTRA:          -8.887
 INTER:                  -8.401
 INTRA:                  -0.486
 UNBOUND:                 0.332
  Name = 
  3 active torsions:
  status: ('A' for Active; 'I' for Inactive)
    1  A    between atoms: C_1  and  C_2
    2  A    between atoms: N_5  and  C_6
    3  A    between atoms: C_6  and  C_8
                            x       y       z     vdW  Elec       q    Type
                         _______ _______ _______ _____ _____    ______ ____

>  <TORSDO>
F 3

$$$$
=
 OpenBabel07192307433D

 43 46  0  0  0  0  0  0  0  0999 V2000
    1.3800    9.5490   19.4720 C   0  0  0  0  0  0  0  0  0  0  0  0
    2.2030    9.4950   18.3380 C   0  0  0  0  0  0  0  0  0  0  0  0
    2.7330    8.2740   17.9150 C   0  0  0  0  0  0  0  0  0  0  0  0
    2.4380    7.1090   18.6310 C   0  0  0  0  0  0  0  0  0  0  0  0
    2.9740    5.8010   18.2170 C   0  0  0  0  0  0  0  0  0  0  0  0
    3.7270    5.7450   17.2470 O   0  0  0  0  0  0  0  0  0  0  0  0
    2.5820    4.7000   18.9770 N   0  0  0  0  0  0  0  0  0  0  0  0
    1.7940    4.8580   20.0980 C   0  0  0  0  0  0  0  0  0  0  0  0
    1.3240    5.9970   20.4970 N   0  0  0  0  0  0  0  0  0  0  0  0
    1.6240    7.1450   19.7590 C   0  0  0  0  0  0  0  0  0  0  0  0
    1.0960    8.3710   20.1770 C   0  0  0  0  0  0  0  0  0  0  0  0
    1.4760    3.6370   20.9420 C   0  0  0  0  0  0  0  0  0  0  0  0
    2.7240    3.1010   21.6360 C   0  0  0  0  0  0  0  0  0  0  0  0
    3.5590    2.1760   20.7540 C   0  0  0  0  0  0  0  0  0  0  0  0
    4.1390    2.8390   19.5060 C   0  0  0  0  0  0  0  0  0  0  0  0
    3.0720    3.3870   18.5600 C   0  0  0  0  0  0  0  0  0  0  0  0
    2.4330   10.4010   17.7780 H   0  0  0  0  0  0  0  0  0  0  0  0
    3.3710    8.2340   17.0350 H   0  0  0  0  0  0  0  0  0  0  0  0
    0.4610    8.3900   21.0600 H   0  0  0  0  0  0  0  0  0  0  0  0
    0.9840    2.8720   20.3340 H   0  0  0  0  0  0  0  0  0  0  0  0
    0.7520    3.9390   21.7100 H   0  0  0  0  0  0  0  0  0  0  0  0
    2.4100    2.5270   22.5180 H   0  0  0  0  0  0  0  0  0  0  0  0
    3.3480    3.9260   21.9990 H   0  0  0  0  0  0  0  0  0  0  0  0
    4.3880    1.7790   21.3520 H   0  0  0  0  0  0  0  0  0  0  0  0
    2.9520    1.3100   20.4580 H   0  0  0  0  0  0  0  0  0  0  0  0
    4.8410    3.6320   19.7940 H   0  0  0  0  0  0  0  0  0  0  0  0
    4.7200    2.0800   18.9690 H   0  0  0  0  0  0  0  0  0  0  0  0
    2.2240    2.6990   18.4870 H   0  0  0  0  0  0  0  0  0  0  0  0
    3.5000    3.4520   17.5540 H   0  0  0  0  0  0  0  0  0  0  0  0
    0.8260   10.8670   19.9070 C   0  0  0  0  0  0  0  0  0  0  0  0
    0.8500   11.1610   21.0980 O   0  0  0  0  0  0  0  0  0  0  0  0
   -2.7510   10.6610   17.8760 C   0  0  0  0  0  0  0  0  0  0  0  0
   -1.6970   10.2960   18.6080 C   0  0  0  0  0  0  0  0  0  0  0  0
   -0.7760   11.4060   18.3430 C   0  0  0  0  0  0  0  0  0  0  0  0
    0.3560   11.6770   18.9040 N   0  0  0  0  0  0  0  0  0  0  0  0
   -1.2920   12.2160   17.3580 N   0  0  0  0  0  0  0  0  0  0  0  0
   -2.6300   11.8530   17.1640 O   0  0  0  0  0  0  0  0  0  0  0  0
   -1.5630    9.4520   19.2560 H   0  0  0  0  0  0  0  0  0  0  0  0
   -1.1340   13.2080   17.5010 H   0  0  0  0  0  0  0  0  0  0  0  0
   -4.0480    9.9460   17.7640 C   0  0  0  0  0  0  0  0  0  0  0  0
   -3.9460    9.0090   17.2060 H   0  0  0  0  0  0  0  0  0  0  0  0
   -4.4380    9.7070   18.7580 H   0  0  0  0  0  0  0  0  0  0  0  0
   -4.7830   10.5700   17.2450 H   0  0  0  0  0  0  0  0  0  0  0  0
  1 30  1  0  0  0  0
  1 11  1  0  0  0  0
  2  1  2  0  0  0  0
  3  2  1  0  0  0  0
  3  4  2  0  0  0  0
  4 10  1  0  0  0  0
  5  4  1  0  0  0  0
  5  7  1  0  0  0  0
  6  5  2  0  0  0  0
  7  8  1  0  0  0  0
  8  9  2  0  0  0  0
  8 12  1  0  0  0  0
 10 11  2  0  0  0  0
 10  9  1  0  0  0  0
 11 19  1  0  0  0  0
 12 13  1  0  0  0  0
 12 21  1  0  0  0  0
 13 23  1  0  0  0  0
 13 22  1  0  0  0  0
 14 24  1  0  0  0  0
 14 13  1  0  0  0  0
 15 26  1  0  0  0  0
 15 14  1  0  0  0  0
 16  7  1  0  0  0  0
 16 15  1  0  0  0  0
 17  2  1  0  0  0  0
 18  3  1  0  0  0  0
 20 12  1  0  0  0  0
 25 14  1  0  0  0  0
 27 15  1  0  0  0  0
 28 16  1  0  0  0  0
 29 16  1  0  0  0  0
 30 31  2  0  0  0  0
 32 33  2  0  0  0  0
 33 38  1  0  0  0  0
 34 33  1  0  0  0  0
 34 35  2  0  0  0  0
 35 30  1  0  0  0  0
 36 39  1  0  0  0  0
 36 34  1  0  0  0  0
 37 36  1  0  0  0  0
 37 32  1  0  0  0  0
 40 32  1  0  0  0  0
 40 42  1  0  0  0  0
 41 40  1  0  0  0  0
 43 40  1  0  0  0  0
M  END
>  <MODEL>
12

>  <REMARK>
 VINA RESULT:    -8.024      2.670      7.692
 INTER + INTRA:          -8.864
 INTER:                  -8.559
 INTRA:                  -0.305
 UNBOUND:                 0.332
  Name = 
  3 active torsions:
  status: ('A' for Active; 'I' for Inactive)
    1  A    between atoms: C_1  and  C_2
    2  A    between atoms: N_5  and  C_6
    3  A    between atoms: C_6  and  C_8
                            x       y       z     vdW  Elec       q    Type
                         _______ _______ _______ _____ _____    ______ ____

>  <TORSDO>
F 3

$$$$
=
 OpenBabel07192307433D

 43 46  0  0  0  0  0  0  0  0999 V2000
    1.2690    9.3550   19.2040 C   0  0  0  0  0  0  0  0  0  0  0  0
    0.9670    8.8930   20.4930 C   0  0  0  0  0  0  0  0  0  0  0  0
    1.3850    7.6240   20.8990 C   0  0  0  0  0  0  0  0  0  0  0  0
    2.1060    6.8180   20.0100 C   0  0  0  0  0  0  0  0  0  0  0  0
    2.5690    5.4760   20.4000 C   0  0  0  0  0  0  0  0  0  0  0  0
    2.2790    5.0440   21.5130 O   0  0  0  0  0  0  0  0  0  0  0  0
    3.3150    4.7770   19.4510 N   0  0  0  0  0  0  0  0  0  0  0  0
    3.5330    5.3010   18.1940 C   0  0  0  0  0  0  0  0  0  0  0  0
    3.1220    6.4710   17.8180 N   0  0  0  0  0  0  0  0  0  0  0  0
    2.4130    7.2600   18.7270 C   0  0  0  0  0  0  0  0  0  0  0  0
    1.9910    8.5320   18.3270 C   0  0  0  0  0  0  0  0  0  0  0  0
    4.2690    4.4570   17.1710 C   0  0  0  0  0  0  0  0  0  0  0  0
    3.4440    3.2450   16.7520 C   0  0  0  0  0  0  0  0  0  0  0  0
    3.5770    2.0610   17.7080 C   0  0  0  0  0  0  0  0  0  0  0  0
    3.0710    2.3270   19.1240 C   0  0  0  0  0  0  0  0  0  0  0  0
    3.8170    3.4570   19.8320 C   0  0  0  0  0  0  0  0  0  0  0  0
    0.4070    9.5190   21.1870 H   0  0  0  0  0  0  0  0  0  0  0  0
    1.1510    7.2680   21.9000 H   0  0  0  0  0  0  0  0  0  0  0  0
    2.2340    8.8700   17.3220 H   0  0  0  0  0  0  0  0  0  0  0  0
    5.2550    4.1710   17.5520 H   0  0  0  0  0  0  0  0  0  0  0  0
    4.4470    5.0820   16.2860 H   0  0  0  0  0  0  0  0  0  0  0  0
    3.7890    2.9160   15.7640 H   0  0  0  0  0  0  0  0  0  0  0  0
    2.3870    3.5160   16.6460 H   0  0  0  0  0  0  0  0  0  0  0  0
    3.0150    1.2150   17.2930 H   0  0  0  0  0  0  0  0  0  0  0  0
    4.6260    1.7430   17.7490 H   0  0  0  0  0  0  0  0  0  0  0  0
    1.9930    2.5310   19.1070 H   0  0  0  0  0  0  0  0  0  0  0  0
    3.2110    1.4060   19.7030 H   0  0  0  0  0  0  0  0  0  0  0  0
    4.8900    3.4110   19.6180 H   0  0  0  0  0  0  0  0  0  0  0  0
    3.7150    3.3180   20.9130 H   0  0  0  0  0  0  0  0  0  0  0  0
    0.8080   10.7150   18.7910 C   0  0  0  0  0  0  0  0  0  0  0  0
    1.5900   11.6570   18.8610 O   0  0  0  0  0  0  0  0  0  0  0  0
   -2.5100   12.3880   20.5680 C   0  0  0  0  0  0  0  0  0  0  0  0
   -1.3020   11.8400   20.4230 C   0  0  0  0  0  0  0  0  0  0  0  0
   -1.4030   11.3020   19.0620 C   0  0  0  0  0  0  0  0  0  0  0  0
   -0.4780   10.7890   18.3180 N   0  0  0  0  0  0  0  0  0  0  0  0
   -2.6950   11.4230   18.6050 N   0  0  0  0  0  0  0  0  0  0  0  0
   -3.3810   12.2660   19.4860 O   0  0  0  0  0  0  0  0  0  0  0  0
   -0.4620   11.8290   21.0880 H   0  0  0  0  0  0  0  0  0  0  0  0
   -2.7750   11.6710   17.6250 H   0  0  0  0  0  0  0  0  0  0  0  0
   -3.0110   13.1380   21.7470 C   0  0  0  0  0  0  0  0  0  0  0  0
   -4.1030   13.2170   21.7420 H   0  0  0  0  0  0  0  0  0  0  0  0
   -2.7120   12.6350   22.6730 H   0  0  0  0  0  0  0  0  0  0  0  0
   -2.5990   14.1520   21.7560 H   0  0  0  0  0  0  0  0  0  0  0  0
  1  2  1  0  0  0  0
  2  3  2  0  0  0  0
  2 17  1  0  0  0  0
  3 18  1  0  0  0  0
  4  5  1  0  0  0  0
  4  3  1  0  0  0  0
  5  6  2  0  0  0  0
  7 16  1  0  0  0  0
  7  5  1  0  0  0  0
  8  7  1  0  0  0  0
  9  8  2  0  0  0  0
  9 10  1  0  0  0  0
 10  4  2  0  0  0  0
 11 10  1  0  0  0  0
 11  1  2  0  0  0  0
 12 20  1  0  0  0  0
 12  8  1  0  0  0  0
 13 12  1  0  0  0  0
 13 14  1  0  0  0  0
 14 25  1  0  0  0  0
 14 15  1  0  0  0  0
 15 27  1  0  0  0  0
 15 16  1  0  0  0  0
 16 29  1  0  0  0  0
 19 11  1  0  0  0  0
 21 12  1  0  0  0  0
 22 13  1  0  0  0  0
 23 13  1  0  0  0  0
 24 14  1  0  0  0  0
 26 15  1  0  0  0  0
 28 16  1  0  0  0  0
 30 31  2  0  0  0  0
 30  1  1  0  0  0  0
 32 40  1  0  0  0  0
 33 32  2  0  0  0  0
 33 38  1  0  0  0  0
 34 33  1  0  0  0  0
 35 30  1  0  0  0  0
 35 34  2  0  0  0  0
 36 34  1  0  0  0  0
 36 37  1  0  0  0  0
 37 32  1  0  0  0  0
 39 36  1  0  0  0  0
 40 43  1  0  0  0  0
 40 42  1  0  0  0  0
 41 40  1  0  0  0  0
M  END
>  <MODEL>
13

>  <REMARK>
 VINA RESULT:    -8.009      2.540      8.481
 INTER + INTRA:          -8.848
 INTER:                  -8.485
 INTRA:                  -0.363
 UNBOUND:                 0.332
  Name = 
  3 active torsions:
  status: ('A' for Active; 'I' for Inactive)
    1  A    between atoms: C_1  and  C_2
    2  A    between atoms: N_5  and  C_6
    3  A    between atoms: C_6  and  C_8
                            x       y       z     vdW  Elec       q    Type
                         _______ _______ _______ _____ _____    ______ ____

>  <TORSDO>
F 3

$$$$
=
 OpenBabel07192307433D

 43 46  0  0  0  0  0  0  0  0999 V2000
    2.0950    7.0040   19.5430 C   0  0  0  0  0  0  0  0  0  0  0  0
    2.2770    7.7670   18.3800 C   0  0  0  0  0  0  0  0  0  0  0  0
    1.8430    9.0930   18.3370 C   0  0  0  0  0  0  0  0  0  0  0  0
    1.2250    9.6540   19.4600 C   0  0  0  0  0  0  0  0  0  0  0  0
    0.7570   11.0500   19.4560 C   0  0  0  0  0  0  0  0  0  0  0  0
    0.8760   11.7170   18.4320 O   0  0  0  0  0  0  0  0  0  0  0  0
    0.1940   11.5190   20.6430 N   0  0  0  0  0  0  0  0  0  0  0  0
    0.0260   10.6820   21.7270 C   0  0  0  0  0  0  0  0  0  0  0  0
    0.4120    9.4460   21.7520 N   0  0  0  0  0  0  0  0  0  0  0  0
    1.0350    8.9110   20.6210 C   0  0  0  0  0  0  0  0  0  0  0  0
    1.4730    7.5830   20.6580 C   0  0  0  0  0  0  0  0  0  0  0  0
   -0.6780   11.2190   22.9590 C   0  0  0  0  0  0  0  0  0  0  0  0
   -2.1510   11.4990   22.6800 C   0  0  0  0  0  0  0  0  0  0  0  0
   -2.3990   12.8640   22.0400 C   0  0  0  0  0  0  0  0  0  0  0  0
   -1.7650   13.0440   20.6630 C   0  0  0  0  0  0  0  0  0  0  0  0
   -0.2430   12.9140   20.6730 C   0  0  0  0  0  0  0  0  0  0  0  0
    2.7590    7.3320   17.5050 H   0  0  0  0  0  0  0  0  0  0  0  0
    1.9860    9.6830   17.4340 H   0  0  0  0  0  0  0  0  0  0  0  0
    1.3200    7.0100   21.5700 H   0  0  0  0  0  0  0  0  0  0  0  0
   -0.1570   12.1030   23.3400 H   0  0  0  0  0  0  0  0  0  0  0  0
   -0.6100   10.4550   23.7440 H   0  0  0  0  0  0  0  0  0  0  0  0
   -2.6950   11.4740   23.6320 H   0  0  0  0  0  0  0  0  0  0  0  0
   -2.5800   10.7130   22.0480 H   0  0  0  0  0  0  0  0  0  0  0  0
   -3.4820   13.0120   21.9450 H   0  0  0  0  0  0  0  0  0  0  0  0
   -2.0380   13.6520   22.7140 H   0  0  0  0  0  0  0  0  0  0  0  0
   -2.2060   12.3360   19.9500 H   0  0  0  0  0  0  0  0  0  0  0  0
   -2.0220   14.0510   20.3110 H   0  0  0  0  0  0  0  0  0  0  0  0
    0.1850   13.4000   21.5560 H   0  0  0  0  0  0  0  0  0  0  0  0
    0.1580   13.4480   19.8060 H   0  0  0  0  0  0  0  0  0  0  0  0
    2.5650    5.5860   19.5660 C   0  0  0  0  0  0  0  0  0  0  0  0
    2.7010    5.0190   20.6450 O   0  0  0  0  0  0  0  0  0  0  0  0
    6.1260    4.6840   17.7030 C   0  0  0  0  0  0  0  0  0  0  0  0
    5.2470    5.2580   18.5260 C   0  0  0  0  0  0  0  0  0  0  0  0
    3.9810    4.8660   17.8980 C   0  0  0  0  0  0  0  0  0  0  0  0
    2.7740    5.0080   18.3390 N   0  0  0  0  0  0  0  0  0  0  0  0
    4.2270    4.2600   16.6870 N   0  0  0  0  0  0  0  0  0  0  0  0
    5.5970    3.9820   16.6210 O   0  0  0  0  0  0  0  0  0  0  0  0
    5.4040    5.8150   19.4290 H   0  0  0  0  0  0  0  0  0  0  0  0
    3.6210    3.4750   16.4770 H   0  0  0  0  0  0  0  0  0  0  0  0
    7.6050    4.6900   17.8370 C   0  0  0  0  0  0  0  0  0  0  0  0
    8.0070    3.6750   17.9210 H   0  0  0  0  0  0  0  0  0  0  0  0
    8.0640    5.1650   16.9640 H   0  0  0  0  0  0  0  0  0  0  0  0
    7.9040    5.2480   18.7300 H   0  0  0  0  0  0  0  0  0  0  0  0
  1 30  1  0  0  0  0
  1 11  1  0  0  0  0
  2  1  2  0  0  0  0
  3  2  1  0  0  0  0
  3  4  2  0  0  0  0
  4 10  1  0  0  0  0
  5  4  1  0  0  0  0
  5  7  1  0  0  0  0
  6  5  2  0  0  0  0
  7 16  1  0  0  0  0
  7  8  1  0  0  0  0
  8  9  2  0  0  0  0
  8 12  1  0  0  0  0
 10 11  2  0  0  0  0
 10  9  1  0  0  0  0
 11 19  1  0  0  0  0
 12 20  1  0  0  0  0
 12 21  1  0  0  0  0
 13 12  1  0  0  0  0
 13 22  1  0  0  0  0
 14 13  1  0  0  0  0
 14 25  1  0  0  0  0
 15 16  1  0  0  0  0
 15 14  1  0  0  0  0
 16 28  1  0  0  0  0
 17  2  1  0  0  0  0
 18  3  1  0  0  0  0
 23 13  1  0  0  0  0
 24 14  1  0  0  0  0
 26 15  1  0  0  0  0
 27 15  1  0  0  0  0
 29 16  1  0  0  0  0
 30 31  2  0  0  0  0
 32 40  1  0  0  0  0
 32 33  2  0  0  0  0
 33 38  1  0  0  0  0
 34 35  2  0  0  0  0
 34 33  1  0  0  0  0
 35 30  1  0  0  0  0
 36 34  1  0  0  0  0
 37 36  1  0  0  0  0
 37 32  1  0  0  0  0
 39 36  1  0  0  0  0
 40 41  1  0  0  0  0
 40 43  1  0  0  0  0
 42 40  1  0  0  0  0
M  END
>  <MODEL>
14

>  <REMARK>
 VINA RESULT:    -7.979      1.570      1.806
 INTER + INTRA:          -8.813
 INTER:                  -8.560
 INTRA:                  -0.253
 UNBOUND:                 0.332
  Name = 
  3 active torsions:
  status: ('A' for Active; 'I' for Inactive)
    1  A    between atoms: C_1  and  C_2
    2  A    between atoms: N_5  and  C_6
    3  A    between atoms: C_6  and  C_8
                            x       y       z     vdW  Elec       q    Type
                         _______ _______ _______ _____ _____    ______ ____

>  <TORSDO>
F 3

$$$$
=
 OpenBabel07192307433D

 43 46  0  0  0  0  0  0  0  0999 V2000
    1.3010    9.3610   19.2890 C   0  0  0  0  0  0  0  0  0  0  0  0
    0.9540    8.8850   20.5610 C   0  0  0  0  0  0  0  0  0  0  0  0
    1.3310    7.5990   20.9550 C   0  0  0  0  0  0  0  0  0  0  0  0
    2.0550    6.7910   20.0710 C   0  0  0  0  0  0  0  0  0  0  0  0
    2.4740    5.4320   20.4490 C   0  0  0  0  0  0  0  0  0  0  0  0
    2.1450    4.9880   21.5470 O   0  0  0  0  0  0  0  0  0  0  0  0
    3.2270    4.7300   19.5080 N   0  0  0  0  0  0  0  0  0  0  0  0
    3.4910    5.2700   18.2660 C   0  0  0  0  0  0  0  0  0  0  0  0
    3.1190    6.4560   17.9000 N   0  0  0  0  0  0  0  0  0  0  0  0
    2.4060    7.2470   18.8040 C   0  0  0  0  0  0  0  0  0  0  0  0
    2.0260    8.5360   18.4160 C   0  0  0  0  0  0  0  0  0  0  0  0
    4.2330    4.4250   17.2480 C   0  0  0  0  0  0  0  0  0  0  0  0
    3.3900    3.2410   16.7870 C   0  0  0  0  0  0  0  0  0  0  0  0
    3.4690    2.0390   17.7250 C   0  0  0  0  0  0  0  0  0  0  0  0
    2.9330    2.2930   19.1320 C   0  0  0  0  0  0  0  0  0  0  0  0
    3.6870    3.3920   19.8780 C   0  0  0  0  0  0  0  0  0  0  0  0
    0.3920    9.5130   21.2510 H   0  0  0  0  0  0  0  0  0  0  0  0
    1.0620    7.2320   21.9430 H   0  0  0  0  0  0  0  0  0  0  0  0
    2.3040    8.8850   17.4240 H   0  0  0  0  0  0  0  0  0  0  0  0
    5.2010    4.1080   17.6490 H   0  0  0  0  0  0  0  0  0  0  0  0
    4.4490    5.0600   16.3790 H   0  0  0  0  0  0  0  0  0  0  0  0
    3.7520    2.9200   15.8020 H   0  0  0  0  0  0  0  0  0  0  0  0
    2.3430    3.5410   16.6580 H   0  0  0  0  0  0  0  0  0  0  0  0
    2.8970    1.2140   17.2810 H   0  0  0  0  0  0  0  0  0  0  0  0
    4.5080    1.6940   17.7870 H   0  0  0  0  0  0  0  0  0  0  0  0
    1.8610    2.5240   19.0900 H   0  0  0  0  0  0  0  0  0  0  0  0
    3.0350    1.3590   19.6980 H   0  0  0  0  0  0  0  0  0  0  0  0
    4.7640    3.3230   19.6910 H   0  0  0  0  0  0  0  0  0  0  0  0
    3.5530    3.2370   20.9530 H   0  0  0  0  0  0  0  0  0  0  0  0
    0.8850   10.7390   18.8880 C   0  0  0  0  0  0  0  0  0  0  0  0
   -0.1690   11.1950   19.3210 O   0  0  0  0  0  0  0  0  0  0  0  0
    3.0680   14.1390   19.6860 C   0  0  0  0  0  0  0  0  0  0  0  0
    2.1160   13.2080   19.7650 C   0  0  0  0  0  0  0  0  0  0  0  0
    2.3030   12.5090   18.4890 C   0  0  0  0  0  0  0  0  0  0  0  0
    1.7600   11.4120   18.0740 N   0  0  0  0  0  0  0  0  0  0  0  0
    3.2110   13.1910   17.7110 N   0  0  0  0  0  0  0  0  0  0  0  0
    3.8380   14.1430   18.5230 O   0  0  0  0  0  0  0  0  0  0  0  0
    1.4280   12.9860   20.5570 H   0  0  0  0  0  0  0  0  0  0  0  0
    3.8410   12.5990   17.1810 H   0  0  0  0  0  0  0  0  0  0  0  0
    3.4110   15.1510   20.7170 C   0  0  0  0  0  0  0  0  0  0  0  0
    2.6540   15.9400   20.7770 H   0  0  0  0  0  0  0  0  0  0  0  0
    3.4890   14.6800   21.7010 H   0  0  0  0  0  0  0  0  0  0  0  0
    4.3710   15.6220   20.4830 H   0  0  0  0  0  0  0  0  0  0  0  0
  1  2  1  0  0  0  0
  2  3  2  0  0  0  0
  2 17  1  0  0  0  0
  3 18  1  0  0  0  0
  4  5  1  0  0  0  0
  4  3  1  0  0  0  0
  5  6  2  0  0  0  0
  7 16  1  0  0  0  0
  7  5  1  0  0  0  0
  8  7  1  0  0  0  0
  9  8  2  0  0  0  0
  9 10  1  0  0  0  0
 10  4  2  0  0  0  0
 11 10  1  0  0  0  0
 11  1  2  0  0  0  0
 12 20  1  0  0  0  0
 12  8  1  0  0  0  0
 13 12  1  0  0  0  0
 13 14  1  0  0  0  0
 14 25  1  0  0  0  0
 14 15  1  0  0  0  0
 15 27  1  0  0  0  0
 15 16  1  0  0  0  0
 16 29  1  0  0  0  0
 19 11  1  0  0  0  0
 21 12  1  0  0  0  0
 22 13  1  0  0  0  0
 23 13  1  0  0  0  0
 24 14  1  0  0  0  0
 26 15  1  0  0  0  0
 28 16  1  0  0  0  0
 30  1  1  0  0  0  0
 30 31  2  0  0  0  0
 32 33  2  0  0  0  0
 32 40  1  0  0  0  0
 33 38  1  0  0  0  0
 34 33  1  0  0  0  0
 35 34  2  0  0  0  0
 35 30  1  0  0  0  0
 36 34  1  0  0  0  0
 36 37  1  0  0  0  0
 37 32  1  0  0  0  0
 39 36  1  0  0  0  0
 40 41  1  0  0  0  0
 40 42  1  0  0  0  0
 43 40  1  0  0  0  0
M  END
>  <MODEL>
15

>  <REMARK>
 VINA RESULT:    -7.908      2.757      7.817
 INTER + INTRA:          -8.731
 INTER:                  -8.528
 INTRA:                  -0.204
 UNBOUND:                 0.332
  Name = 
  3 active torsions:
  status: ('A' for Active; 'I' for Inactive)
    1  A    between atoms: C_1  and  C_2
    2  A    between atoms: N_5  and  C_6
    3  A    between atoms: C_6  and  C_8
                            x       y       z     vdW  Elec       q    Type
                         _______ _______ _______ _____ _____    ______ ____

>  <TORSDO>
F 3

$$$$
=
 OpenBabel07192307433D

 43 46  0  0  0  0  0  0  0  0999 V2000
    1.0450    9.4840   19.1330 C   0  0  0  0  0  0  0  0  0  0  0  0
    0.8190    8.6210   20.2150 C   0  0  0  0  0  0  0  0  0  0  0  0
    1.5490    7.4370   20.3320 C   0  0  0  0  0  0  0  0  0  0  0  0
    2.5060    7.1180   19.3620 C   0  0  0  0  0  0  0  0  0  0  0  0
    3.3000    5.8810   19.4510 C   0  0  0  0  0  0  0  0  0  0  0  0
    3.0850    5.0980   20.3730 O   0  0  0  0  0  0  0  0  0  0  0  0
    4.2550    5.6840   18.4540 N   0  0  0  0  0  0  0  0  0  0  0  0
    4.3820    6.5750   17.4080 C   0  0  0  0  0  0  0  0  0  0  0  0
    3.6850    7.6600   17.2950 N   0  0  0  0  0  0  0  0  0  0  0  0
    2.7430    7.9620   18.2820 C   0  0  0  0  0  0  0  0  0  0  0  0
    2.0080    9.1470   18.1710 C   0  0  0  0  0  0  0  0  0  0  0  0
    5.3710    6.2610   16.3010 C   0  0  0  0  0  0  0  0  0  0  0  0
    4.9330    5.0470   15.4900 C   0  0  0  0  0  0  0  0  0  0  0  0
    5.3380    3.7170   16.1210 C   0  0  0  0  0  0  0  0  0  0  0  0
    4.7090    3.4430   17.4860 C   0  0  0  0  0  0  0  0  0  0  0  0
    5.0800    4.4800   18.5430 C   0  0  0  0  0  0  0  0  0  0  0  0
    0.0750    8.8680   20.9720 H   0  0  0  0  0  0  0  0  0  0  0  0
    1.3720    6.7690   21.1730 H   0  0  0  0  0  0  0  0  0  0  0  0
    2.1980    9.8010   17.3220 H   0  0  0  0  0  0  0  0  0  0  0  0
    6.3780    6.1370   16.7140 H   0  0  0  0  0  0  0  0  0  0  0  0
    5.4140    7.1310   15.6330 H   0  0  0  0  0  0  0  0  0  0  0  0
    5.4030    5.1030   14.5000 H   0  0  0  0  0  0  0  0  0  0  0  0
    3.8480    5.0630   15.3280 H   0  0  0  0  0  0  0  0  0  0  0  0
    5.0510    2.9060   15.4390 H   0  0  0  0  0  0  0  0  0  0  0  0
    6.4310    3.6730   16.2080 H   0  0  0  0  0  0  0  0  0  0  0  0
    3.6190    3.3660   17.3890 H   0  0  0  0  0  0  0  0  0  0  0  0
    5.0680    2.4620   17.8230 H   0  0  0  0  0  0  0  0  0  0  0  0
    6.1340    4.7660   18.4580 H   0  0  0  0  0  0  0  0  0  0  0  0
    4.9670    4.0240   19.5320 H   0  0  0  0  0  0  0  0  0  0  0  0
    0.2500   10.7440   19.0270 C   0  0  0  0  0  0  0  0  0  0  0  0
   -0.6050   10.8390   18.1520 O   0  0  0  0  0  0  0  0  0  0  0  0
    2.6340   14.0860   18.6960 C   0  0  0  0  0  0  0  0  0  0  0  0
    2.1210   12.8780   18.4570 C   0  0  0  0  0  0  0  0  0  0  0  0
    1.3590   12.6510   19.6900 C   0  0  0  0  0  0  0  0  0  0  0  0
    0.5250   11.7040   19.9690 N   0  0  0  0  0  0  0  0  0  0  0  0
    1.6320   13.6470   20.5980 N   0  0  0  0  0  0  0  0  0  0  0  0
    2.3140   14.6660   19.9230 O   0  0  0  0  0  0  0  0  0  0  0  0
    2.1950   12.2530   17.5890 H   0  0  0  0  0  0  0  0  0  0  0  0
    0.8320   13.9540   21.1410 H   0  0  0  0  0  0  0  0  0  0  0  0
    3.4840   14.8890   17.7800 C   0  0  0  0  0  0  0  0  0  0  0  0
    4.3340   14.3090   17.4060 H   0  0  0  0  0  0  0  0  0  0  0  0
    2.9000   15.2290   16.9190 H   0  0  0  0  0  0  0  0  0  0  0  0
    3.8770   15.7690   18.3000 H   0  0  0  0  0  0  0  0  0  0  0  0
  1  2  1  0  0  0  0
  2  3  2  0  0  0  0
  2 17  1  0  0  0  0
  3 18  1  0  0  0  0
  4  5  1  0  0  0  0
  4  3  1  0  0  0  0
  5  6  2  0  0  0  0
  7 16  1  0  0  0  0
  7  5  1  0  0  0  0
  8  7  1  0  0  0  0
  9  8  2  0  0  0  0
  9 10  1  0  0  0  0
 10  4  2  0  0  0  0
 11 10  1  0  0  0  0
 11  1  2  0  0  0  0
 12 20  1  0  0  0  0
 12  8  1  0  0  0  0
 13 14  1  0  0  0  0
 13 12  1  0  0  0  0
 14 25  1  0  0  0  0
 14 15  1  0  0  0  0
 15 27  1  0  0  0  0
 15 16  1  0  0  0  0
 16 29  1  0  0  0  0
 19 11  1  0  0  0  0
 21 12  1  0  0  0  0
 22 13  1  0  0  0  0
 23 13  1  0  0  0  0
 24 14  1  0  0  0  0
 26 15  1  0  0  0  0
 28 16  1  0  0  0  0
 30  1  1  0  0  0  0
 30 35  1  0  0  0  0
 31 30  2  0  0  0  0
 32 37  1  0  0  0  0
 33 32  2  0  0  0  0
 33 34  1  0  0  0  0
 34 35  2  0  0  0  0
 34 36  1  0  0  0  0
 36 39  1  0  0  0  0
 37 36  1  0  0  0  0
 38 33  1  0  0  0  0
 40 43  1  0  0  0  0
 40 32  1  0  0  0  0
 41 40  1  0  0  0  0
 42 40  1  0  0  0  0
M  END
>  <MODEL>
16

>  <REMARK>
 VINA RESULT:    -7.874      2.371      7.988
 INTER + INTRA:          -8.693
 INTER:                  -8.228
 INTRA:                  -0.466
 UNBOUND:                 0.332
  Name = 
  3 active torsions:
  status: ('A' for Active; 'I' for Inactive)
    1  A    between atoms: C_1  and  C_2
    2  A    between atoms: N_5  and  C_6
    3  A    between atoms: C_6  and  C_8
                            x       y       z     vdW  Elec       q    Type
                         _______ _______ _______ _____ _____    ______ ____

>  <TORSDO>
F 3

$$$$
=
 OpenBabel07192307433D

 43 46  0  0  0  0  0  0  0  0999 V2000
    2.5780    7.2400   18.6380 C   0  0  0  0  0  0  0  0  0  0  0  0
    2.3520    6.8910   19.9770 C   0  0  0  0  0  0  0  0  0  0  0  0
    1.5780    7.7160   20.7960 C   0  0  0  0  0  0  0  0  0  0  0  0
    1.0310    8.8920   20.2710 C   0  0  0  0  0  0  0  0  0  0  0  0
    0.2060    9.7870   21.1000 C   0  0  0  0  0  0  0  0  0  0  0  0
    0.0320    9.5110   22.2840 O   0  0  0  0  0  0  0  0  0  0  0  0
   -0.3230   10.9090   20.4640 N   0  0  0  0  0  0  0  0  0  0  0  0
   -0.0170   11.1880   19.1480 C   0  0  0  0  0  0  0  0  0  0  0  0
    0.7200   10.4290   18.4010 N   0  0  0  0  0  0  0  0  0  0  0  0
    1.2460    9.2550   18.9450 C   0  0  0  0  0  0  0  0  0  0  0  0
    2.0220    8.4240   18.1300 C   0  0  0  0  0  0  0  0  0  0  0  0
   -0.5440   12.4720   18.5350 C   0  0  0  0  0  0  0  0  0  0  0  0
    0.1080   13.6980   19.1660 C   0  0  0  0  0  0  0  0  0  0  0  0
   -0.5600   14.1380   20.4660 C   0  0  0  0  0  0  0  0  0  0  0  0
   -0.4900   13.1130   21.5960 C   0  0  0  0  0  0  0  0  0  0  0  0
   -1.1770   11.7910   21.2580 C   0  0  0  0  0  0  0  0  0  0  0  0
    2.7760    5.9750   20.3870 H   0  0  0  0  0  0  0  0  0  0  0  0
    1.4040    7.4420   21.8350 H   0  0  0  0  0  0  0  0  0  0  0  0
    2.1860    8.7150   17.0950 H   0  0  0  0  0  0  0  0  0  0  0  0
   -1.6360   12.5070   18.6030 H   0  0  0  0  0  0  0  0  0  0  0  0
   -0.2990   12.4580   17.4640 H   0  0  0  0  0  0  0  0  0  0  0  0
    0.0380   14.5320   18.4560 H   0  0  0  0  0  0  0  0  0  0  0  0
    1.1750   13.5190   19.3410 H   0  0  0  0  0  0  0  0  0  0  0  0
   -0.0790   15.0630   20.8090 H   0  0  0  0  0  0  0  0  0  0  0  0
   -1.6090   14.3920   20.2690 H   0  0  0  0  0  0  0  0  0  0  0  0
    0.5550   12.9400   21.8830 H   0  0  0  0  0  0  0  0  0  0  0  0
   -0.9910   13.5490   22.4690 H   0  0  0  0  0  0  0  0  0  0  0  0
   -2.1120   11.9640   20.7150 H   0  0  0  0  0  0  0  0  0  0  0  0
   -1.4550   11.2950   22.1940 H   0  0  0  0  0  0  0  0  0  0  0  0
    3.4120    6.3450   17.7810 C   0  0  0  0  0  0  0  0  0  0  0  0
    4.5580    6.6830   17.5010 O   0  0  0  0  0  0  0  0  0  0  0  0
    3.9260    2.5670   19.3400 C   0  0  0  0  0  0  0  0  0  0  0  0
    4.1620    3.8440   19.0320 C   0  0  0  0  0  0  0  0  0  0  0  0
    3.1670    4.0630   17.9760 C   0  0  0  0  0  0  0  0  0  0  0  0
    2.8210    5.1670   17.3990 N   0  0  0  0  0  0  0  0  0  0  0  0
    2.5700    2.8690   17.6410 N   0  0  0  0  0  0  0  0  0  0  0  0
    2.9200    1.9290   18.6160 O   0  0  0  0  0  0  0  0  0  0  0  0
    4.8500    4.5450   19.4620 H   0  0  0  0  0  0  0  0  0  0  0  0
    1.5770    2.9340   17.4450 H   0  0  0  0  0  0  0  0  0  0  0  0
    4.6030    1.7660   20.3910 C   0  0  0  0  0  0  0  0  0  0  0  0
    4.5000    2.2260   21.3800 H   0  0  0  0  0  0  0  0  0  0  0  0
    4.1740    0.7600   20.4390 H   0  0  0  0  0  0  0  0  0  0  0  0
    5.6720    1.6750   20.1710 H   0  0  0  0  0  0  0  0  0  0  0  0
  1  2  1  0  0  0  0
  2 17  1  0  0  0  0
  2  3  2  0  0  0  0
  3 18  1  0  0  0  0
  4  3  1  0  0  0  0
  4  5  1  0  0  0  0
  5  6  2  0  0  0  0
  7  5  1  0  0  0  0
  7 16  1  0  0  0  0
  8  7  1  0  0  0  0
  9 10  1  0  0  0  0
  9  8  2  0  0  0  0
 10  4  2  0  0  0  0
 11  1  2  0  0  0  0
 11 10  1  0  0  0  0
 12 20  1  0  0  0  0
 12  8  1  0  0  0  0
 12 13  1  0  0  0  0
 13 23  1  0  0  0  0
 13 14  1  0  0  0  0
 14 24  1  0  0  0  0
 14 15  1  0  0  0  0
 15 26  1  0  0  0  0
 15 27  1  0  0  0  0
 16 15  1  0  0  0  0
 16 29  1  0  0  0  0
 19 11  1  0  0  0  0
 21 12  1  0  0  0  0
 22 13  1  0  0  0  0
 25 14  1  0  0  0  0
 28 16  1  0  0  0  0
 30  1  1  0  0  0  0
 31 30  2  0  0  0  0
 32 40  1  0  0  0  0
 33 32  2  0  0  0  0
 33 38  1  0  0  0  0
 34 33  1  0  0  0  0
 35 30  1  0  0  0  0
 35 34  2  0  0  0  0
 36 34  1  0  0  0  0
 36 37  1  0  0  0  0
 37 32  1  0  0  0  0
 39 36  1  0  0  0  0
 40 42  1  0  0  0  0
 40 41  1  0  0  0  0
 43 40  1  0  0  0  0
M  END
>  <MODEL>
17

>  <REMARK>
 VINA RESULT:    -7.841      2.359      3.505
 INTER + INTRA:          -8.655
 INTER:                  -8.368
 INTRA:                  -0.287
 UNBOUND:                 0.332
  Name = 
  3 active torsions:
  status: ('A' for Active; 'I' for Inactive)
    1  A    between atoms: C_1  and  C_2
    2  A    between atoms: N_5  and  C_6
    3  A    between atoms: C_6  and  C_8
                            x       y       z     vdW  Elec       q    Type
                         _______ _______ _______ _____ _____    ______ ____

>  <TORSDO>
F 3

$$$$
=
 OpenBabel07192307433D

 43 46  0  0  0  0  0  0  0  0999 V2000
    0.9750    9.6190   19.0630 C   0  0  0  0  0  0  0  0  0  0  0  0
    0.7010    8.7710   20.1460 C   0  0  0  0  0  0  0  0  0  0  0  0
    1.4140    7.5810   20.3020 C   0  0  0  0  0  0  0  0  0  0  0  0
    2.4010    7.2400   19.3710 C   0  0  0  0  0  0  0  0  0  0  0  0
    3.1780    5.9960   19.5020 C   0  0  0  0  0  0  0  0  0  0  0  0
    2.9220    5.2270   20.4260 O   0  0  0  0  0  0  0  0  0  0  0  0
    4.1650    5.7770   18.5420 N   0  0  0  0  0  0  0  0  0  0  0  0
    4.3390    6.6530   17.4910 C   0  0  0  0  0  0  0  0  0  0  0  0
    3.6580    7.7450   17.3410 N   0  0  0  0  0  0  0  0  0  0  0  0
    2.6850    8.0680   18.2900 C   0  0  0  0  0  0  0  0  0  0  0  0
    1.9680    9.2590   18.1390 C   0  0  0  0  0  0  0  0  0  0  0  0
    5.3630    6.3160   16.4240 C   0  0  0  0  0  0  0  0  0  0  0  0
    4.9400    5.0960   15.6120 C   0  0  0  0  0  0  0  0  0  0  0  0
    5.3080    3.7700   16.2730 C   0  0  0  0  0  0  0  0  0  0  0  0
    4.6290    3.5190   17.6170 C   0  0  0  0  0  0  0  0  0  0  0  0
    4.9730    4.5650   18.6750 C   0  0  0  0  0  0  0  0  0  0  0  0
   -0.0660    9.0360   20.8730 H   0  0  0  0  0  0  0  0  0  0  0  0
    1.2000    6.9250   21.1440 H   0  0  0  0  0  0  0  0  0  0  0  0
    2.1960    9.9010   17.2900 H   0  0  0  0  0  0  0  0  0  0  0  0
    6.3530    6.1860   16.8740 H   0  0  0  0  0  0  0  0  0  0  0  0
    5.4390    7.1770   15.7470 H   0  0  0  0  0  0  0  0  0  0  0  0
    5.4450    5.1360   14.6390 H   0  0  0  0  0  0  0  0  0  0  0  0
    3.8620    5.1220   15.4120 H   0  0  0  0  0  0  0  0  0  0  0  0
    5.0370    2.9540   15.5900 H   0  0  0  0  0  0  0  0  0  0  0  0
    6.3970    3.7160   16.3990 H   0  0  0  0  0  0  0  0  0  0  0  0
    3.5420    3.4530   17.4830 H   0  0  0  0  0  0  0  0  0  0  0  0
    4.9640    2.5390   17.9790 H   0  0  0  0  0  0  0  0  0  0  0  0
    6.0330    4.8390   18.6240 H   0  0  0  0  0  0  0  0  0  0  0  0
    4.8210    4.1230   19.6650 H   0  0  0  0  0  0  0  0  0  0  0  0
    0.1980   10.8860   18.9140 C   0  0  0  0  0  0  0  0  0  0  0  0
   -0.7550   10.9150   18.1410 O   0  0  0  0  0  0  0  0  0  0  0  0
   -1.5500   12.3790   22.3310 C   0  0  0  0  0  0  0  0  0  0  0  0
   -1.4040   11.7430   21.1670 C   0  0  0  0  0  0  0  0  0  0  0  0
   -0.1230   12.2920   20.7090 C   0  0  0  0  0  0  0  0  0  0  0  0
    0.6050   11.9310   19.7050 N   0  0  0  0  0  0  0  0  0  0  0  0
    0.2730   13.3130   21.5420 N   0  0  0  0  0  0  0  0  0  0  0  0
   -0.5390   13.2740   22.6810 O   0  0  0  0  0  0  0  0  0  0  0  0
   -2.0190   10.9970   20.7040 H   0  0  0  0  0  0  0  0  0  0  0  0
    1.2690   13.3440   21.7280 H   0  0  0  0  0  0  0  0  0  0  0  0
   -2.6590   12.2120   23.3040 C   0  0  0  0  0  0  0  0  0  0  0  0
   -2.2960   11.8570   24.2740 H   0  0  0  0  0  0  0  0  0  0  0  0
   -3.1740   13.1650   23.4620 H   0  0  0  0  0  0  0  0  0  0  0  0
   -3.3870   11.4850   22.9290 H   0  0  0  0  0  0  0  0  0  0  0  0
  1  2  1  0  0  0  0
  2  3  2  0  0  0  0
  2 17  1  0  0  0  0
  3 18  1  0  0  0  0
  4  5  1  0  0  0  0
  4  3  1  0  0  0  0
  5  6  2  0  0  0  0
  7 16  1  0  0  0  0
  7  5  1  0  0  0  0
  8  7  1  0  0  0  0
  9  8  2  0  0  0  0
  9 10  1  0  0  0  0
 10  4  2  0  0  0  0
 11 10  1  0  0  0  0
 11  1  2  0  0  0  0
 12 20  1  0  0  0  0
 12  8  1  0  0  0  0
 13 14  1  0  0  0  0
 13 12  1  0  0  0  0
 14 25  1  0  0  0  0
 14 15  1  0  0  0  0
 15 27  1  0  0  0  0
 15 16  1  0  0  0  0
 16 29  1  0  0  0  0
 19 11  1  0  0  0  0
 21 12  1  0  0  0  0
 22 13  1  0  0  0  0
 23 13  1  0  0  0  0
 24 14  1  0  0  0  0
 26 15  1  0  0  0  0
 28 16  1  0  0  0  0
 30  1  1  0  0  0  0
 30 35  1  0  0  0  0
 31 30  2  0  0  0  0
 32 37  1  0  0  0  0
 32 40  1  0  0  0  0
 33 32  2  0  0  0  0
 34 33  1  0  0  0  0
 34 36  1  0  0  0  0
 35 34  2  0  0  0  0
 36 39  1  0  0  0  0
 36 37  1  0  0  0  0
 38 33  1  0  0  0  0
 40 42  1  0  0  0  0
 40 41  1  0  0  0  0
 43 40  1  0  0  0  0
M  END
>  <MODEL>
18

>  <REMARK>
 VINA RESULT:    -7.760      2.154      8.548
 INTER + INTRA:          -8.562
 INTER:                  -8.261
 INTRA:                  -0.301
 UNBOUND:                 0.332
  Name = 
  3 active torsions:
  status: ('A' for Active; 'I' for Inactive)
    1  A    between atoms: C_1  and  C_2
    2  A    between atoms: N_5  and  C_6
    3  A    between atoms: C_6  and  C_8
                            x       y       z     vdW  Elec       q    Type
                         _______ _______ _______ _____ _____    ______ ____

>  <TORSDO>
F 3

$$$$
=
 OpenBabel07192307433D

 43 46  0  0  0  0  0  0  0  0999 V2000
    0.9740    8.6510   20.0680 C   0  0  0  0  0  0  0  0  0  0  0  0
    0.8660    7.5250   20.8960 C   0  0  0  0  0  0  0  0  0  0  0  0
    1.6900    6.4180   20.6840 C   0  0  0  0  0  0  0  0  0  0  0  0
    2.6210    6.4400   19.6400 C   0  0  0  0  0  0  0  0  0  0  0  0
    3.5100    5.2940   19.3860 C   0  0  0  0  0  0  0  0  0  0  0  0
    3.4000    4.2870   20.0810 O   0  0  0  0  0  0  0  0  0  0  0  0
    4.4290    5.4400   18.3470 N   0  0  0  0  0  0  0  0  0  0  0  0
    4.4380    6.5750   17.5630 C   0  0  0  0  0  0  0  0  0  0  0  0
    3.6560    7.5900   17.7520 N   0  0  0  0  0  0  0  0  0  0  0  0
    2.7410    7.5480   18.8080 C   0  0  0  0  0  0  0  0  0  0  0  0
    1.9130    8.6540   19.0250 C   0  0  0  0  0  0  0  0  0  0  0  0
    5.3950    6.6400   16.3880 C   0  0  0  0  0  0  0  0  0  0  0  0
    5.0120    5.6390   15.3020 C   0  0  0  0  0  0  0  0  0  0  0  0
    5.5470    4.2320   15.5590 C   0  0  0  0  0  0  0  0  0  0  0  0
    5.0070    3.5670   16.8230 C   0  0  0  0  0  0  0  0  0  0  0  0
    5.3470    4.3290   18.1020 C   0  0  0  0  0  0  0  0  0  0  0  0
    0.1430    7.5070   21.7100 H   0  0  0  0  0  0  0  0  0  0  0  0
    1.6050    5.5450   21.3290 H   0  0  0  0  0  0  0  0  0  0  0  0
    2.0130    9.5160   18.3690 H   0  0  0  0  0  0  0  0  0  0  0  0
    6.4260    6.5020   16.7280 H   0  0  0  0  0  0  0  0  0  0  0  0
    5.3390    7.6520   15.9650 H   0  0  0  0  0  0  0  0  0  0  0  0
    5.4290    5.9860   14.3490 H   0  0  0  0  0  0  0  0  0  0  0  0
    3.9230    5.6030   15.1790 H   0  0  0  0  0  0  0  0  0  0  0  0
    5.2910    3.6010   14.6990 H   0  0  0  0  0  0  0  0  0  0  0  0
    6.6430    4.2630   15.6030 H   0  0  0  0  0  0  0  0  0  0  0  0
    3.9220    3.4240   16.7380 H   0  0  0  0  0  0  0  0  0  0  0  0
    5.4550    2.5670   16.8870 H   0  0  0  0  0  0  0  0  0  0  0  0
    6.3710    4.7170   18.0650 H   0  0  0  0  0  0  0  0  0  0  0  0
    5.3170    3.6280   18.9430 H   0  0  0  0  0  0  0  0  0  0  0  0
    0.0810    9.8240   20.3110 C   0  0  0  0  0  0  0  0  0  0  0  0
   -0.4130    9.9780   21.4230 O   0  0  0  0  0  0  0  0  0  0  0  0
    2.0250   13.3630   19.4980 C   0  0  0  0  0  0  0  0  0  0  0  0
    1.5390   12.3210   20.1760 C   0  0  0  0  0  0  0  0  0  0  0  0
    0.5800   11.7820   19.2050 C   0  0  0  0  0  0  0  0  0  0  0  0
   -0.0870   10.6750   19.2480 N   0  0  0  0  0  0  0  0  0  0  0  0
    0.4600   12.6420   18.1380 N   0  0  0  0  0  0  0  0  0  0  0  0
    1.4990   13.5750   18.2240 O   0  0  0  0  0  0  0  0  0  0  0  0
    1.8010   11.9400   21.1430 H   0  0  0  0  0  0  0  0  0  0  0  0
    0.3680   12.1860   17.2370 H   0  0  0  0  0  0  0  0  0  0  0  0
    3.0850   14.3000   19.9470 C   0  0  0  0  0  0  0  0  0  0  0  0
    3.7220   13.8510   20.7160 H   0  0  0  0  0  0  0  0  0  0  0  0
    3.7220   14.5860   19.1040 H   0  0  0  0  0  0  0  0  0  0  0  0
    2.6380   15.2070   20.3670 H   0  0  0  0  0  0  0  0  0  0  0  0
  1 30  1  0  0  0  0
  1  2  1  0  0  0  0
  2 17  1  0  0  0  0
  3  2  2  0  0  0  0
  3 18  1  0  0  0  0
  4  3  1  0  0  0  0
  5  4  1  0  0  0  0
  5  6  2  0  0  0  0
  7  5  1  0  0  0  0
  8  9  2  0  0  0  0
  8  7  1  0  0  0  0
  9 10  1  0  0  0  0
 10 11  1  0  0  0  0
 10  4  2  0  0  0  0
 11  1  2  0  0  0  0
 12 20  1  0  0  0  0
 12  8  1  0  0  0  0
 13 14  1  0  0  0  0
 13 12  1  0  0  0  0
 14 25  1  0  0  0  0
 14 15  1  0  0  0  0
 15 27  1  0  0  0  0
 15 16  1  0  0  0  0
 16  7  1  0  0  0  0
 16 29  1  0  0  0  0
 19 11  1  0  0  0  0
 21 12  1  0  0  0  0
 22 13  1  0  0  0  0
 23 13  1  0  0  0  0
 24 14  1  0  0  0  0
 26 15  1  0  0  0  0
 28 16  1  0  0  0  0
 30 31  2  0  0  0  0
 32 40  1  0  0  0  0
 32 33  2  0  0  0  0
 33 38  1  0  0  0  0
 34 35  2  0  0  0  0
 34 33  1  0  0  0  0
 35 30  1  0  0  0  0
 36 37  1  0  0  0  0
 36 34  1  0  0  0  0
 37 32  1  0  0  0  0
 39 36  1  0  0  0  0
 40 43  1  0  0  0  0
 40 41  1  0  0  0  0
 42 40  1  0  0  0  0
M  END
>  <MODEL>
19

>  <REMARK>
 VINA RESULT:    -7.702      2.168      7.943
 INTER + INTRA:          -8.496
 INTER:                  -8.204
 INTRA:                  -0.292
 UNBOUND:                 0.332
  Name = 
  3 active torsions:
  status: ('A' for Active; 'I' for Inactive)
    1  A    between atoms: C_1  and  C_2
    2  A    between atoms: N_5  and  C_6
    3  A    between atoms: C_6  and  C_8
                            x       y       z     vdW  Elec       q    Type
                         _______ _______ _______ _____ _____    ______ ____

>  <TORSDO>
F 3

$$$$
=
 OpenBabel07192307433D

 43 46  0  0  0  0  0  0  0  0999 V2000
    1.8640    8.1470   19.1670 C   0  0  0  0  0  0  0  0  0  0  0  0
    1.8630    7.6110   20.4620 C   0  0  0  0  0  0  0  0  0  0  0  0
    1.1360    8.2350   21.4780 C   0  0  0  0  0  0  0  0  0  0  0  0
    0.4110    9.3980   21.1940 C   0  0  0  0  0  0  0  0  0  0  0  0
   -0.3710   10.0840   22.2360 C   0  0  0  0  0  0  0  0  0  0  0  0
   -0.3510    9.6460   23.3840 O   0  0  0  0  0  0  0  0  0  0  0  0
   -1.0890   11.2090   21.8330 N   0  0  0  0  0  0  0  0  0  0  0  0
   -0.9990   11.6820   20.5400 C   0  0  0  0  0  0  0  0  0  0  0  0
   -0.3050   11.1100   19.6080 N   0  0  0  0  0  0  0  0  0  0  0  0
    0.4020    9.9440   19.9140 C   0  0  0  0  0  0  0  0  0  0  0  0
    1.1320    9.3140   18.9010 C   0  0  0  0  0  0  0  0  0  0  0  0
   -1.7260   12.9640   20.1810 C   0  0  0  0  0  0  0  0  0  0  0  0
   -1.1130   14.1690   20.8880 C   0  0  0  0  0  0  0  0  0  0  0  0
   -1.6300   14.3660   22.3110 C   0  0  0  0  0  0  0  0  0  0  0  0
   -1.3050   13.2230   23.2700 C   0  0  0  0  0  0  0  0  0  0  0  0
   -1.9030   11.8840   22.8430 C   0  0  0  0  0  0  0  0  0  0  0  0
    2.4250    6.7060   20.6850 H   0  0  0  0  0  0  0  0  0  0  0  0
    1.1360    7.8170   22.4830 H   0  0  0  0  0  0  0  0  0  0  0  0
    1.1200    9.7480   17.9040 H   0  0  0  0  0  0  0  0  0  0  0  0
   -2.7970   12.8670   20.3910 H   0  0  0  0  0  0  0  0  0  0  0  0
   -1.6340   13.1110   19.0970 H   0  0  0  0  0  0  0  0  0  0  0  0
   -1.3610   15.0710   20.3150 H   0  0  0  0  0  0  0  0  0  0  0  0
   -0.0190   14.0920   20.9010 H   0  0  0  0  0  0  0  0  0  0  0  0
   -1.1970   15.2900   22.7140 H   0  0  0  0  0  0  0  0  0  0  0  0
   -2.7160   14.5220   22.2850 H   0  0  0  0  0  0  0  0  0  0  0  0
   -0.2180   13.1350   23.3960 H   0  0  0  0  0  0  0  0  0  0  0  0
   -1.7180   13.4880   24.2520 H   0  0  0  0  0  0  0  0  0  0  0  0
   -2.9170   12.0160   22.4510 H   0  0  0  0  0  0  0  0  0  0  0  0
   -1.9990   11.2480   23.7290 H   0  0  0  0  0  0  0  0  0  0  0  0
    2.6510    7.4650   18.0960 C   0  0  0  0  0  0  0  0  0  0  0  0
    3.2230    8.1440   17.2500 O   0  0  0  0  0  0  0  0  0  0  0  0
    5.9310    4.9780   17.9400 C   0  0  0  0  0  0  0  0  0  0  0  0
    5.1610    6.0560   17.7820 C   0  0  0  0  0  0  0  0  0  0  0  0
    3.8320    5.4880   18.0370 C   0  0  0  0  0  0  0  0  0  0  0  0
    2.7000    6.0960   18.1730 N   0  0  0  0  0  0  0  0  0  0  0  0
    3.9210    4.1190   18.1430 N   0  0  0  0  0  0  0  0  0  0  0  0
    5.2760    3.7870   18.2510 O   0  0  0  0  0  0  0  0  0  0  0  0
    5.4270    7.0740   17.5750 H   0  0  0  0  0  0  0  0  0  0  0  0
    3.3220    3.7110   18.8510 H   0  0  0  0  0  0  0  0  0  0  0  0
    7.4120    4.9210   17.8470 C   0  0  0  0  0  0  0  0  0  0  0  0
    7.7820    3.8930   17.9140 H   0  0  0  0  0  0  0  0  0  0  0  0
    7.7500    5.3410   16.8940 H   0  0  0  0  0  0  0  0  0  0  0  0
    7.8660    5.4980   18.6590 H   0  0  0  0  0  0  0  0  0  0  0  0
  1  2  1  0  0  0  0
  2 17  1  0  0  0  0
  2  3  2  0  0  0  0
  3 18  1  0  0  0  0
  4  3  1  0  0  0  0
  4  5  1  0  0  0  0
  5  6  2  0  0  0  0
  7  5  1  0  0  0  0
  7 16  1  0  0  0  0
  8  7  1  0  0  0  0
  9 10  1  0  0  0  0
  9  8  2  0  0  0  0
 10  4  2  0  0  0  0
 11  1  2  0  0  0  0
 11 10  1  0  0  0  0
 12 20  1  0  0  0  0
 12  8  1  0  0  0  0
 12 13  1  0  0  0  0
 13 23  1  0  0  0  0
 13 14  1  0  0  0  0
 14 24  1  0  0  0  0
 14 15  1  0  0  0  0
 15 26  1  0  0  0  0
 15 27  1  0  0  0  0
 16 15  1  0  0  0  0
 16 29  1  0  0  0  0
 19 11  1  0  0  0  0
 21 12  1  0  0  0  0
 22 13  1  0  0  0  0
 25 14  1  0  0  0  0
 28 16  1  0  0  0  0
 30 35  1  0  0  0  0
 30  1  1  0  0  0  0
 31 30  2  0  0  0  0
 32 37  1  0  0  0  0
 33 32  2  0  0  0  0
 33 34  1  0  0  0  0
 34 36  1  0  0  0  0
 34 35  2  0  0  0  0
 36 37  1  0  0  0  0
 36 39  1  0  0  0  0
 38 33  1  0  0  0  0
 40 41  1  0  0  0  0
 40 32  1  0  0  0  0
 40 43  1  0  0  0  0
 42 40  1  0  0  0  0
M  END
>  <MODEL>
20

>  <REMARK>
 VINA RESULT:    -7.682      2.005      3.241
 INTER + INTRA:          -8.473
 INTER:                  -8.517
 INTRA:                   0.044
 UNBOUND:                 0.332
  Name = 
  3 active torsions:
  status: ('A' for Active; 'I' for Inactive)
    1  A    between atoms: C_1  and  C_2
    2  A    between atoms: N_5  and  C_6
    3  A    between atoms: C_6  and  C_8
                            x       y       z     vdW  Elec       q    Type
                         _______ _______ _______ _____ _____    ______ ____

>  <TORSDO>
F 3

$$$$
=
 OpenBabel07192307433D

 43 46  0  0  0  0  0  0  0  0999 V2000
    1.6700    8.1250   19.5630 C   0  0  0  0  0  0  0  0  0  0  0  0
    1.5620    8.8030   18.3400 C   0  0  0  0  0  0  0  0  0  0  0  0
    0.9030   10.0320   18.2760 C   0  0  0  0  0  0  0  0  0  0  0  0
    0.3510   10.5810   19.4390 C   0  0  0  0  0  0  0  0  0  0  0  0
   -0.3480   11.8770   19.4140 C   0  0  0  0  0  0  0  0  0  0  0  0
   -0.4820   12.4630   18.3430 O   0  0  0  0  0  0  0  0  0  0  0  0
   -0.8220   12.3490   20.6380 N   0  0  0  0  0  0  0  0  0  0  0  0
   -0.6980   11.5940   21.7860 C   0  0  0  0  0  0  0  0  0  0  0  0
   -0.1040   10.4440   21.8330 N   0  0  0  0  0  0  0  0  0  0  0  0
    0.4480    9.9220   20.6600 C   0  0  0  0  0  0  0  0  0  0  0  0
    1.1090    8.6910   20.7170 C   0  0  0  0  0  0  0  0  0  0  0  0
   -1.3150   12.1150   23.0700 C   0  0  0  0  0  0  0  0  0  0  0  0
   -2.8380   12.1270   22.9910 C   0  0  0  0  0  0  0  0  0  0  0  0
   -3.4000   13.3710   22.3080 C   0  0  0  0  0  0  0  0  0  0  0  0
   -2.9950   13.5320   20.8440 C   0  0  0  0  0  0  0  0  0  0  0  0
   -1.4860   13.6520   20.6420 C   0  0  0  0  0  0  0  0  0  0  0  0
    1.9920    8.3780   17.4340 H   0  0  0  0  0  0  0  0  0  0  0  0
    0.8210   10.5570   17.3260 H   0  0  0  0  0  0  0  0  0  0  0  0
    1.1800    8.1820   21.6760 H   0  0  0  0  0  0  0  0  0  0  0  0
   -0.9090   13.1020   23.3140 H   0  0  0  0  0  0  0  0  0  0  0  0
   -1.0130   11.4430   23.8840 H   0  0  0  0  0  0  0  0  0  0  0  0
   -3.2390   12.0960   24.0110 H   0  0  0  0  0  0  0  0  0  0  0  0
   -3.2040   11.2280   22.4790 H   0  0  0  0  0  0  0  0  0  0  0  0
   -4.4960   13.3330   22.3620 H   0  0  0  0  0  0  0  0  0  0  0  0
   -3.0960   14.2630   22.8700 H   0  0  0  0  0  0  0  0  0  0  0  0
   -3.3980   12.7020   20.2490 H   0  0  0  0  0  0  0  0  0  0  0  0
   -3.4680   14.4490   20.4700 H   0  0  0  0  0  0  0  0  0  0  0  0
   -1.0360   14.2770   21.4220 H   0  0  0  0  0  0  0  0  0  0  0  0
   -1.3020   14.1670   19.6940 H   0  0  0  0  0  0  0  0  0  0  0  0
    2.3770    6.8100   19.6070 C   0  0  0  0  0  0  0  0  0  0  0  0
    2.0980    6.0120   20.4970 O   0  0  0  0  0  0  0  0  0  0  0  0
    3.6150    3.2260   17.9990 C   0  0  0  0  0  0  0  0  0  0  0  0
    3.1100    4.1110   18.8600 C   0  0  0  0  0  0  0  0  0  0  0  0
    3.5850    5.3700   18.2770 C   0  0  0  0  0  0  0  0  0  0  0  0
    3.2780    6.5830   18.5980 N   0  0  0  0  0  0  0  0  0  0  0  0
    4.4590    5.1070   17.2470 N   0  0  0  0  0  0  0  0  0  0  0  0
    4.3630    3.7450   16.9430 O   0  0  0  0  0  0  0  0  0  0  0  0
    2.4850    3.9620   19.7190 H   0  0  0  0  0  0  0  0  0  0  0  0
    4.3740    5.7310   16.4520 H   0  0  0  0  0  0  0  0  0  0  0  0
    3.4390    1.7520   18.0310 C   0  0  0  0  0  0  0  0  0  0  0  0
    4.3330    1.2300   17.6730 H   0  0  0  0  0  0  0  0  0  0  0  0
    3.2370    1.4150   19.0530 H   0  0  0  0  0  0  0  0  0  0  0  0
    2.5980    1.4550   17.3970 H   0  0  0  0  0  0  0  0  0  0  0  0
  1 30  1  0  0  0  0
  1 11  1  0  0  0  0
  2  1  2  0  0  0  0
  3  2  1  0  0  0  0
  3  4  2  0  0  0  0
  4 10  1  0  0  0  0
  5  4  1  0  0  0  0
  5  7  1  0  0  0  0
  6  5  2  0  0  0  0
  7 16  1  0  0  0  0
  7  8  1  0  0  0  0
  8  9  2  0  0  0  0
  8 12  1  0  0  0  0
 10 11  2  0  0  0  0
 10  9  1  0  0  0  0
 11 19  1  0  0  0  0
 12 20  1  0  0  0  0
 12 21  1  0  0  0  0
 13 12  1  0  0  0  0
 13 22  1  0  0  0  0
 14 24  1  0  0  0  0
 14 25  1  0  0  0  0
 14 13  1  0  0  0  0
 15 14  1  0  0  0  0
 16 15  1  0  0  0  0
 16 28  1  0  0  0  0
 17  2  1  0  0  0  0
 18  3  1  0  0  0  0
 23 13  1  0  0  0  0
 26 15  1  0  0  0  0
 27 15  1  0  0  0  0
 29 16  1  0  0  0  0
 30 31  2  0  0  0  0
 32 40  1  0  0  0  0
 32 33  2  0  0  0  0
 33 38  1  0  0  0  0
 34 35  2  0  0  0  0
 34 33  1  0  0  0  0
 35 30  1  0  0  0  0
 36 34  1  0  0  0  0
 37 36  1  0  0  0  0
 37 32  1  0  0  0  0
 39 36  1  0  0  0  0
 40 42  1  0  0  0  0
 41 40  1  0  0  0  0
 43 40  1  0  0  0  0
M  END
>  <MODEL>
21

>  <REMARK>
 VINA RESULT:    -7.447      2.113      2.896
 INTER + INTRA:          -8.204
 INTER:                  -8.539
 INTRA:                   0.335
 UNBOUND:                 0.332
  Name = 
  3 active torsions:
  status: ('A' for Active; 'I' for Inactive)
    1  A    between atoms: C_1  and  C_2
    2  A    between atoms: N_5  and  C_6
    3  A    between atoms: C_6  and  C_8
                            x       y       z     vdW  Elec       q    Type
                         _______ _______ _______ _____ _____    ______ ____

>  <TORSDO>
F 3

$$$$
=
 OpenBabel07192307433D

 43 46  0  0  0  0  0  0  0  0999 V2000
    1.3190    9.5120   19.7500 C   0  0  0  0  0  0  0  0  0  0  0  0
    2.0790    9.5170   18.5710 C   0  0  0  0  0  0  0  0  0  0  0  0
    2.5970    8.3220   18.0670 C   0  0  0  0  0  0  0  0  0  0  0  0
    2.3530    7.1230   18.7460 C   0  0  0  0  0  0  0  0  0  0  0  0
    2.8780    5.8420   18.2460 C   0  0  0  0  0  0  0  0  0  0  0  0
    3.5770    5.8370   17.2350 O   0  0  0  0  0  0  0  0  0  0  0  0
    2.5390    4.7040   18.9770 N   0  0  0  0  0  0  0  0  0  0  0  0
    1.8130    4.8030   20.1460 C   0  0  0  0  0  0  0  0  0  0  0  0
    1.3540    5.9180   20.6190 N   0  0  0  0  0  0  0  0  0  0  0  0
    1.6020    7.1000   19.9170 C   0  0  0  0  0  0  0  0  0  0  0  0
    1.0860    8.3000   20.4170 C   0  0  0  0  0  0  0  0  0  0  0  0
    1.5540    3.5430   20.9510 C   0  0  0  0  0  0  0  0  0  0  0  0
    2.8430    2.9920   21.5510 C   0  0  0  0  0  0  0  0  0  0  0  0
    3.6370    2.1160   20.5840 C   0  0  0  0  0  0  0  0  0  0  0  0
    4.1410    2.8410   19.3380 C   0  0  0  0  0  0  0  0  0  0  0  0
    3.0190    3.4160   18.4760 C   0  0  0  0  0  0  0  0  0  0  0  0
    2.2690   10.4490   18.0410 H   0  0  0  0  0  0  0  0  0  0  0  0
    3.1860    8.3280   17.1520 H   0  0  0  0  0  0  0  0  0  0  0  0
    0.5010    8.2740   21.3340 H   0  0  0  0  0  0  0  0  0  0  0  0
    1.0360    2.7990   20.3370 H   0  0  0  0  0  0  0  0  0  0  0  0
    0.8700    3.8030   21.7690 H   0  0  0  0  0  0  0  0  0  0  0  0
    2.5840    2.3770   22.4220 H   0  0  0  0  0  0  0  0  0  0  0  0
    3.4780    3.8080   21.9160 H   0  0  0  0  0  0  0  0  0  0  0  0
    4.5030    1.7050   21.1190 H   0  0  0  0  0  0  0  0  0  0  0  0
    3.0240    1.2580   20.2840 H   0  0  0  0  0  0  0  0  0  0  0  0
    4.8500    3.6290   19.6210 H   0  0  0  0  0  0  0  0  0  0  0  0
    4.6990    2.1120   18.7360 H   0  0  0  0  0  0  0  0  0  0  0  0
    2.1740    2.7210   18.4190 H   0  0  0  0  0  0  0  0  0  0  0  0
    3.3900    3.5300   17.4530 H   0  0  0  0  0  0  0  0  0  0  0  0
    0.7770   10.8020   20.2730 C   0  0  0  0  0  0  0  0  0  0  0  0
    0.6510   11.7520   19.5060 O   0  0  0  0  0  0  0  0  0  0  0  0
   -2.6500   12.2650   22.0280 C   0  0  0  0  0  0  0  0  0  0  0  0
   -1.6700   12.0820   21.1410 C   0  0  0  0  0  0  0  0  0  0  0  0
   -0.6800   11.3770   21.9610 C   0  0  0  0  0  0  0  0  0  0  0  0
    0.4210   10.8050   21.5980 N   0  0  0  0  0  0  0  0  0  0  0  0
   -1.0830   11.3690   23.2770 N   0  0  0  0  0  0  0  0  0  0  0  0
   -2.4190   11.7830   23.3160 O   0  0  0  0  0  0  0  0  0  0  0  0
   -1.6240   12.3300   20.0990 H   0  0  0  0  0  0  0  0  0  0  0  0
   -0.8880   10.5060   23.7730 H   0  0  0  0  0  0  0  0  0  0  0  0
   -3.9680   12.9020   21.7800 C   0  0  0  0  0  0  0  0  0  0  0  0
   -4.7950   12.2310   22.0320 H   0  0  0  0  0  0  0  0  0  0  0  0
   -4.0720   13.8100   22.3830 H   0  0  0  0  0  0  0  0  0  0  0  0
   -4.0650   13.1760   20.7240 H   0  0  0  0  0  0  0  0  0  0  0  0
  1 30  1  0  0  0  0
  1 11  1  0  0  0  0
  2  1  2  0  0  0  0
  3  2  1  0  0  0  0
  3  4  2  0  0  0  0
  4 10  1  0  0  0  0
  5  4  1  0  0  0  0
  5  7  1  0  0  0  0
  6  5  2  0  0  0  0
  7  8  1  0  0  0  0
  8  9  2  0  0  0  0
  8 12  1  0  0  0  0
 10 11  2  0  0  0  0
 10  9  1  0  0  0  0
 11 19  1  0  0  0  0
 12 13  1  0  0  0  0
 12 21  1  0  0  0  0
 13 23  1  0  0  0  0
 13 22  1  0  0  0  0
 14 24  1  0  0  0  0
 14 13  1  0  0  0  0
 15 26  1  0  0  0  0
 15 14  1  0  0  0  0
 16  7  1  0  0  0  0
 16 15  1  0  0  0  0
 17  2  1  0  0  0  0
 18  3  1  0  0  0  0
 20 12  1  0  0  0  0
 25 14  1  0  0  0  0
 27 15  1  0  0  0  0
 28 16  1  0  0  0  0
 29 16  1  0  0  0  0
 30 35  1  0  0  0  0
 31 30  2  0  0  0  0
 32 37  1  0  0  0  0
 33 34  1  0  0  0  0
 33 32  2  0  0  0  0
 34 36  1  0  0  0  0
 35 34  2  0  0  0  0
 36 37  1  0  0  0  0
 36 39  1  0  0  0  0
 38 33  1  0  0  0  0
 40 32  1  0  0  0  0
 40 41  1  0  0  0  0
 40 42  1  0  0  0  0
 43 40  1  0  0  0  0
M  END
>  <MODEL>
22

>  <REMARK>
 VINA RESULT:    -7.297      2.346      8.273
 INTER + INTRA:          -8.031
 INTER:                  -8.112
 INTRA:                   0.080
 UNBOUND:                 0.332
  Name = 
  3 active torsions:
  status: ('A' for Active; 'I' for Inactive)
    1  A    between atoms: C_1  and  C_2
    2  A    between atoms: N_5  and  C_6
    3  A    between atoms: C_6  and  C_8
                            x       y       z     vdW  Elec       q    Type
                         _______ _______ _______ _____ _____    ______ ____

>  <TORSDO>
F 3

$$$$
=
 OpenBabel07192307433D

 43 46  0  0  0  0  0  0  0  0999 V2000
    1.2260    9.5920   19.2410 C   0  0  0  0  0  0  0  0  0  0  0  0
    2.1130    9.5340   18.1560 C   0  0  0  0  0  0  0  0  0  0  0  0
    2.7050    8.3210   17.7990 C   0  0  0  0  0  0  0  0  0  0  0  0
    2.4070    7.1660   18.5310 C   0  0  0  0  0  0  0  0  0  0  0  0
    3.0080    5.8670   18.1850 C   0  0  0  0  0  0  0  0  0  0  0  0
    3.8140    5.8090   17.2600 O   0  0  0  0  0  0  0  0  0  0  0  0
    2.6090    4.7740   18.9540 N   0  0  0  0  0  0  0  0  0  0  0  0
    1.7560    4.9360   20.0260 C   0  0  0  0  0  0  0  0  0  0  0  0
    1.2280    6.0690   20.3650 N   0  0  0  0  0  0  0  0  0  0  0  0
    1.5320    7.2060   19.6120 C   0  0  0  0  0  0  0  0  0  0  0  0
    0.9420    8.4240   19.9640 C   0  0  0  0  0  0  0  0  0  0  0  0
    1.4310    3.7290   20.8860 C   0  0  0  0  0  0  0  0  0  0  0  0
    2.6540    3.2540   21.6630 C   0  0  0  0  0  0  0  0  0  0  0  0
    3.5660    2.3340   20.8550 C   0  0  0  0  0  0  0  0  0  0  0  0
    4.1930    2.9820   19.6220 C   0  0  0  0  0  0  0  0  0  0  0  0
    3.1640    3.4680   18.6030 C   0  0  0  0  0  0  0  0  0  0  0  0
    2.3440   10.4310   17.5840 H   0  0  0  0  0  0  0  0  0  0  0  0
    3.3910    8.2780   16.9560 H   0  0  0  0  0  0  0  0  0  0  0  0
    0.2590    8.4470   20.8100 H   0  0  0  0  0  0  0  0  0  0  0  0
    0.9970    2.9310   20.2750 H   0  0  0  0  0  0  0  0  0  0  0  0
    0.6560    4.0270   21.6040 H   0  0  0  0  0  0  0  0  0  0  0  0
    2.3110    2.6950   22.5420 H   0  0  0  0  0  0  0  0  0  0  0  0
    3.2310    4.1090   22.0350 H   0  0  0  0  0  0  0  0  0  0  0  0
    4.3740    1.9820   21.5090 H   0  0  0  0  0  0  0  0  0  0  0  0
    3.0050    1.4410   20.5520 H   0  0  0  0  0  0  0  0  0  0  0  0
    4.8520    3.8050   19.9240 H   0  0  0  0  0  0  0  0  0  0  0  0
    4.8270    2.2280   19.1390 H   0  0  0  0  0  0  0  0  0  0  0  0
    2.3430    2.7490   18.5040 H   0  0  0  0  0  0  0  0  0  0  0  0
    3.6440    3.5190   17.6210 H   0  0  0  0  0  0  0  0  0  0  0  0
    0.6070   10.9020   19.6070 C   0  0  0  0  0  0  0  0  0  0  0  0
   -0.5030   11.1820   19.1660 O   0  0  0  0  0  0  0  0  0  0  0  0
    2.8090   14.2800   18.7690 C   0  0  0  0  0  0  0  0  0  0  0  0
    2.1640   13.1240   18.5990 C   0  0  0  0  0  0  0  0  0  0  0  0
    2.0210   12.6790   19.9900 C   0  0  0  0  0  0  0  0  0  0  0  0
    1.3390   11.6880   20.4610 N   0  0  0  0  0  0  0  0  0  0  0  0
    2.7380   13.5080   20.8220 N   0  0  0  0  0  0  0  0  0  0  0  0
    3.1120   14.6350   20.0830 O   0  0  0  0  0  0  0  0  0  0  0  0
    1.8000   12.6590   17.7050 H   0  0  0  0  0  0  0  0  0  0  0  0
    2.2880   13.7070   21.7090 H   0  0  0  0  0  0  0  0  0  0  0  0
    3.2110   15.2390   17.7090 C   0  0  0  0  0  0  0  0  0  0  0  0
    4.2870   15.1910   17.5080 H   0  0  0  0  0  0  0  0  0  0  0  0
    2.6820   15.0190   16.7770 H   0  0  0  0  0  0  0  0  0  0  0  0
    2.9690   16.2630   18.0110 H   0  0  0  0  0  0  0  0  0  0  0  0
  1 30  1  0  0  0  0
  1 11  1  0  0  0  0
  2  1  2  0  0  0  0
  3  2  1  0  0  0  0
  3  4  2  0  0  0  0
  4 10  1  0  0  0  0
  5  4  1  0  0  0  0
  5  7  1  0  0  0  0
  6  5  2  0  0  0  0
  7  8  1  0  0  0  0
  8  9  2  0  0  0  0
  8 12  1  0  0  0  0
 10 11  2  0  0  0  0
 10  9  1  0  0  0  0
 11 19  1  0  0  0  0
 12 21  1  0  0  0  0
 12 13  1  0  0  0  0
 13 23  1  0  0  0  0
 13 22  1  0  0  0  0
 14 24  1  0  0  0  0
 14 13  1  0  0  0  0
 15 26  1  0  0  0  0
 15 14  1  0  0  0  0
 16  7  1  0  0  0  0
 16 15  1  0  0  0  0
 17  2  1  0  0  0  0
 18  3  1  0  0  0  0
 20 12  1  0  0  0  0
 25 14  1  0  0  0  0
 27 15  1  0  0  0  0
 28 16  1  0  0  0  0
 29 16  1  0  0  0  0
 30 35  1  0  0  0  0
 31 30  2  0  0  0  0
 32 37  1  0  0  0  0
 33 32  2  0  0  0  0
 33 34  1  0  0  0  0
 34 35  2  0  0  0  0
 34 36  1  0  0  0  0
 36 39  1  0  0  0  0
 37 36  1  0  0  0  0
 38 33  1  0  0  0  0
 40 43  1  0  0  0  0
 40 32  1  0  0  0  0
 41 40  1  0  0  0  0
 42 40  1  0  0  0  0
M  END
>  <MODEL>
23

>  <REMARK>
 VINA RESULT:    -7.201      2.645      7.449
 INTER + INTRA:          -7.921
 INTER:                  -7.557
 INTRA:                  -0.364
 UNBOUND:                 0.332
  Name = 
  3 active torsions:
  status: ('A' for Active; 'I' for Inactive)
    1  A    between atoms: C_1  and  C_2
    2  A    between atoms: N_5  and  C_6
    3  A    between atoms: C_6  and  C_8
                            x       y       z     vdW  Elec       q    Type
                         _______ _______ _______ _____ _____    ______ ____

>  <TORSDO>
F 3

$$$$
=
 OpenBabel07192307433D

 43 46  0  0  0  0  0  0  0  0999 V2000
    2.3140    8.7200   18.1260 C   0  0  0  0  0  0  0  0  0  0  0  0
    3.4430    8.4240   17.3500 C   0  0  0  0  0  0  0  0  0  0  0  0
    3.9830    7.1360   17.3600 C   0  0  0  0  0  0  0  0  0  0  0  0
    3.3890    6.1450   18.1490 C   0  0  0  0  0  0  0  0  0  0  0  0
    3.9250    4.7740   18.1840 C   0  0  0  0  0  0  0  0  0  0  0  0
    4.9370    4.5120   17.5380 O   0  0  0  0  0  0  0  0  0  0  0  0
    3.2300    3.8570   18.9720 N   0  0  0  0  0  0  0  0  0  0  0  0
    2.1460    4.2500   19.7290 C   0  0  0  0  0  0  0  0  0  0  0  0
    1.6650    5.4520   19.7310 N   0  0  0  0  0  0  0  0  0  0  0  0
    2.2690    6.4210   18.9270 C   0  0  0  0  0  0  0  0  0  0  0  0
    1.7330    7.7130   18.9120 C   0  0  0  0  0  0  0  0  0  0  0  0
    1.4870    3.2310   20.6400 C   0  0  0  0  0  0  0  0  0  0  0  0
    2.4090    2.8310   21.7870 C   0  0  0  0  0  0  0  0  0  0  0  0
    3.4040    1.7350   21.4120 C   0  0  0  0  0  0  0  0  0  0  0  0
    4.3940    2.1230   20.3160 C   0  0  0  0  0  0  0  0  0  0  0  0
    3.7230    2.4800   18.9910 C   0  0  0  0  0  0  0  0  0  0  0  0
    3.9060    9.1940   16.7340 H   0  0  0  0  0  0  0  0  0  0  0  0
    4.8590    6.9090   16.7560 H   0  0  0  0  0  0  0  0  0  0  0  0
    0.8570    7.9210   19.5230 H   0  0  0  0  0  0  0  0  0  0  0  0
    1.1510    2.3640   20.0620 H   0  0  0  0  0  0  0  0  0  0  0  0
    0.5840    3.6930   21.0610 H   0  0  0  0  0  0  0  0  0  0  0  0
    1.7920    2.4540   22.6120 H   0  0  0  0  0  0  0  0  0  0  0  0
    2.9500    3.7060   22.1690 H   0  0  0  0  0  0  0  0  0  0  0  0
    3.9710    1.4590   22.3100 H   0  0  0  0  0  0  0  0  0  0  0  0
    2.8550    0.8360   21.1060 H   0  0  0  0  0  0  0  0  0  0  0  0
    5.0300    2.9490   20.6590 H   0  0  0  0  0  0  0  0  0  0  0  0
    5.0540    1.2620   20.1480 H   0  0  0  0  0  0  0  0  0  0  0  0
    2.8890    1.8020   18.7800 H   0  0  0  0  0  0  0  0  0  0  0  0
    4.4480    2.3330   18.1840 H   0  0  0  0  0  0  0  0  0  0  0  0
    1.7550   10.1050   18.1030 C   0  0  0  0  0  0  0  0  0  0  0  0
    2.5240   11.0580   18.0250 O   0  0  0  0  0  0  0  0  0  0  0  0
   -0.6640   11.7410   21.0070 C   0  0  0  0  0  0  0  0  0  0  0  0
    0.4010   11.1930   20.4180 C   0  0  0  0  0  0  0  0  0  0  0  0
   -0.1970   10.6920   19.1760 C   0  0  0  0  0  0  0  0  0  0  0  0
    0.3860   10.1960   18.1340 N   0  0  0  0  0  0  0  0  0  0  0  0
   -1.5650   10.8290   19.2260 N   0  0  0  0  0  0  0  0  0  0  0  0
   -1.8710   11.6510   20.3160 O   0  0  0  0  0  0  0  0  0  0  0  0
    1.4260   11.1630   20.7300 H   0  0  0  0  0  0  0  0  0  0  0  0
   -1.9940   11.1020   18.3490 H   0  0  0  0  0  0  0  0  0  0  0  0
   -0.6900   12.4610   22.3060 C   0  0  0  0  0  0  0  0  0  0  0  0
   -1.5670   12.1880   22.9020 H   0  0  0  0  0  0  0  0  0  0  0  0
    0.2040   12.2240   22.8900 H   0  0  0  0  0  0  0  0  0  0  0  0
   -0.7180   13.5430   22.1400 H   0  0  0  0  0  0  0  0  0  0  0  0
  1 11  1  0  0  0  0
  2  3  1  0  0  0  0
  2  1  2  0  0  0  0
  3  4  2  0  0  0  0
  4  5  1  0  0  0  0
  4 10  1  0  0  0  0
  5  7  1  0  0  0  0
  6  5  2  0  0  0  0
  7 16  1  0  0  0  0
  7  8  1  0  0  0  0
  8  9  2  0  0  0  0
  8 12  1  0  0  0  0
 10  9  1  0  0  0  0
 11 10  2  0  0  0  0
 11 19  1  0  0  0  0
 12 21  1  0  0  0  0
 12 13  1  0  0  0  0
 13 23  1  0  0  0  0
 13 22  1  0  0  0  0
 14 13  1  0  0  0  0
 14 24  1  0  0  0  0
 15 26  1  0  0  0  0
 15 14  1  0  0  0  0
 16 15  1  0  0  0  0
 17  2  1  0  0  0  0
 18  3  1  0  0  0  0
 20 12  1  0  0  0  0
 25 14  1  0  0  0  0
 27 15  1  0  0  0  0
 28 16  1  0  0  0  0
 29 16  1  0  0  0  0
 30  1  1  0  0  0  0
 30 35  1  0  0  0  0
 31 30  2  0  0  0  0
 32 40  1  0  0  0  0
 33 38  1  0  0  0  0
 33 32  2  0  0  0  0
 34 36  1  0  0  0  0
 34 33  1  0  0  0  0
 35 34  2  0  0  0  0
 36 37  1  0  0  0  0
 37 32  1  0  0  0  0
 39 36  1  0  0  0  0
 40 42  1  0  0  0  0
 40 41  1  0  0  0  0
 43 40  1  0  0  0  0
M  END
>  <MODEL>
24

>  <REMARK>
 VINA RESULT:    -7.110      2.221      7.793
 INTER + INTRA:          -7.817
 INTER:                  -7.528
 INTRA:                  -0.289
 UNBOUND:                 0.332
  Name = 
  3 active torsions:
  status: ('A' for Active; 'I' for Inactive)
    1  A    between atoms: C_1  and  C_2
    2  A    between atoms: N_5  and  C_6
    3  A    between atoms: C_6  and  C_8
                            x       y       z     vdW  Elec       q    Type
                         _______ _______ _______ _____ _____    ______ ____

>  <TORSDO>
F 3

$$$$
=
 OpenBabel07192307433D

 43 46  0  0  0  0  0  0  0  0999 V2000
    0.9350    9.2650   20.1450 C   0  0  0  0  0  0  0  0  0  0  0  0
    1.6880    9.4720   18.9800 C   0  0  0  0  0  0  0  0  0  0  0  0
    2.3410    8.4000   18.3680 C   0  0  0  0  0  0  0  0  0  0  0  0
    2.2370    7.1200   18.9240 C   0  0  0  0  0  0  0  0  0  0  0  0
    2.9060    5.9630   18.3070 C   0  0  0  0  0  0  0  0  0  0  0  0
    3.6000    6.1370   17.3080 O   0  0  0  0  0  0  0  0  0  0  0  0
    2.7020    4.7280   18.9210 N   0  0  0  0  0  0  0  0  0  0  0  0
    1.9700    4.6280   20.0860 C   0  0  0  0  0  0  0  0  0  0  0  0
    1.3860    5.6310   20.6600 N   0  0  0  0  0  0  0  0  0  0  0  0
    1.4950    6.8970   20.0800 C   0  0  0  0  0  0  0  0  0  0  0  0
    0.8440    7.9750   20.6880 C   0  0  0  0  0  0  0  0  0  0  0  0
    1.8590    3.2740   20.7620 C   0  0  0  0  0  0  0  0  0  0  0  0
    3.2030    2.8190   21.3200 C   0  0  0  0  0  0  0  0  0  0  0  0
    4.0920    2.1390   20.2810 C   0  0  0  0  0  0  0  0  0  0  0  0
    4.5080    3.0350   19.1160 C   0  0  0  0  0  0  0  0  0  0  0  0
    3.3260    3.5590   18.3030 C   0  0  0  0  0  0  0  0  0  0  0  0
    1.7690   10.4670   18.5450 H   0  0  0  0  0  0  0  0  0  0  0  0
    2.9240    8.5630   17.4640 H   0  0  0  0  0  0  0  0  0  0  0  0
    0.2660    7.7920   21.5920 H   0  0  0  0  0  0  0  0  0  0  0  0
    1.4300    2.5390   20.0730 H   0  0  0  0  0  0  0  0  0  0  0  0
    1.1500    3.3720   21.5950 H   0  0  0  0  0  0  0  0  0  0  0  0
    3.0180    2.0960   22.1240 H   0  0  0  0  0  0  0  0  0  0  0  0
    3.7400    3.6630   21.7690 H   0  0  0  0  0  0  0  0  0  0  0  0
    5.0000    1.7790   20.7820 H   0  0  0  0  0  0  0  0  0  0  0  0
    3.5820    1.2490   19.8920 H   0  0  0  0  0  0  0  0  0  0  0  0
    5.1220    3.8680   19.4820 H   0  0  0  0  0  0  0  0  0  0  0  0
    5.1460    2.4380   18.4520 H   0  0  0  0  0  0  0  0  0  0  0  0
    2.5670    2.7800   18.1690 H   0  0  0  0  0  0  0  0  0  0  0  0
    3.6810    3.8140   17.2990 H   0  0  0  0  0  0  0  0  0  0  0  0
    0.2480   10.4270   20.7850 C   0  0  0  0  0  0  0  0  0  0  0  0
    0.5050   10.7040   21.9520 O   0  0  0  0  0  0  0  0  0  0  0  0
    0.7750   14.1190   19.0380 C   0  0  0  0  0  0  0  0  0  0  0  0
    0.9240   13.0910   19.8740 C   0  0  0  0  0  0  0  0  0  0  0  0
   -0.2860   12.3150   19.5780 C   0  0  0  0  0  0  0  0  0  0  0  0
   -0.6110   11.1300   19.9780 N   0  0  0  0  0  0  0  0  0  0  0  0
   -1.1090   13.0330   18.7410 N   0  0  0  0  0  0  0  0  0  0  0  0
   -0.3750   14.1170   18.2490 O   0  0  0  0  0  0  0  0  0  0  0  0
    1.7240   12.8550   20.5480 H   0  0  0  0  0  0  0  0  0  0  0  0
   -1.5790   12.4780   18.0340 H   0  0  0  0  0  0  0  0  0  0  0  0
    1.7190   15.2490   18.8400 C   0  0  0  0  0  0  0  0  0  0  0  0
    1.3550   16.1670   19.3120 H   0  0  0  0  0  0  0  0  0  0  0  0
    2.6950   15.0090   19.2720 H   0  0  0  0  0  0  0  0  0  0  0  0
    1.8540   15.4480   17.7720 H   0  0  0  0  0  0  0  0  0  0  0  0
  1 11  1  0  0  0  0
  1 30  1  0  0  0  0
  2  1  2  0  0  0  0
  3  4  2  0  0  0  0
  3  2  1  0  0  0  0
  4 10  1  0  0  0  0
  5  7  1  0  0  0  0
  5  4  1  0  0  0  0
  6  5  2  0  0  0  0
  7  8  1  0  0  0  0
  8  9  2  0  0  0  0
  8 12  1  0  0  0  0
 10  9  1  0  0  0  0
 10 11  2  0  0  0  0
 11 19  1  0  0  0  0
 12 13  1  0  0  0  0
 12 21  1  0  0  0  0
 13 23  1  0  0  0  0
 13 22  1  0  0  0  0
 14 24  1  0  0  0  0
 14 13  1  0  0  0  0
 15 26  1  0  0  0  0
 15 14  1  0  0  0  0
 16  7  1  0  0  0  0
 16 15  1  0  0  0  0
 17  2  1  0  0  0  0
 18  3  1  0  0  0  0
 20 12  1  0  0  0  0
 25 14  1  0  0  0  0
 27 15  1  0  0  0  0
 28 16  1  0  0  0  0
 29 16  1  0  0  0  0
 30 31  2  0  0  0  0
 32 33  2  0  0  0  0
 33 38  1  0  0  0  0
 34 33  1  0  0  0  0
 34 35  2  0  0  0  0
 35 30  1  0  0  0  0
 36 34  1  0  0  0  0
 37 36  1  0  0  0  0
 37 32  1  0  0  0  0
 39 36  1  0  0  0  0
 40 32  1  0  0  0  0
 40 42  1  0  0  0  0
 40 41  1  0  0  0  0
 43 40  1  0  0  0  0
M  END
>  <MODEL>
25

>  <REMARK>
 VINA RESULT:    -7.060      2.493      7.881
 INTER + INTRA:          -7.760
 INTER:                  -7.536
 INTRA:                  -0.224
 UNBOUND:                 0.332
  Name = 
  3 active torsions:
  status: ('A' for Active; 'I' for Inactive)
    1  A    between atoms: C_1  and  C_2
    2  A    between atoms: N_5  and  C_6
    3  A    between atoms: C_6  and  C_8
                            x       y       z     vdW  Elec       q    Type
                         _______ _______ _______ _____ _____    ______ ____

>  <TORSDO>
F 3

$$$$
=
 OpenBabel07192307433D

 43 46  0  0  0  0  0  0  0  0999 V2000
    1.7200    6.6280   20.2630 C   0  0  0  0  0  0  0  0  0  0  0  0
    2.2990    6.8950   19.0140 C   0  0  0  0  0  0  0  0  0  0  0  0
    2.2740    8.1900   18.4930 C   0  0  0  0  0  0  0  0  0  0  0  0
    1.6670    9.2170   19.2250 C   0  0  0  0  0  0  0  0  0  0  0  0
    1.6230   10.5970   18.7120 C   0  0  0  0  0  0  0  0  0  0  0  0
    2.0940   10.8370   17.6030 O   0  0  0  0  0  0  0  0  0  0  0  0
    1.0310   11.5480   19.5420 N   0  0  0  0  0  0  0  0  0  0  0  0
    0.4570   11.1830   20.7420 C   0  0  0  0  0  0  0  0  0  0  0  0
    0.4650    9.9750   21.2090 N   0  0  0  0  0  0  0  0  0  0  0  0
    1.0870    8.9690   20.4640 C   0  0  0  0  0  0  0  0  0  0  0  0
    1.1150    7.6700   20.9810 C   0  0  0  0  0  0  0  0  0  0  0  0
   -0.2560   12.2430   21.5600 C   0  0  0  0  0  0  0  0  0  0  0  0
   -1.5220   12.7280   20.8610 C   0  0  0  0  0  0  0  0  0  0  0  0
   -1.2620   13.8160   19.8220 C   0  0  0  0  0  0  0  0  0  0  0  0
   -0.3880   13.3800   18.6490 C   0  0  0  0  0  0  0  0  0  0  0  0
    1.0110   12.9320   19.0690 C   0  0  0  0  0  0  0  0  0  0  0  0
    2.7740    6.0980   18.4430 H   0  0  0  0  0  0  0  0  0  0  0  0
    2.7250    8.3960   17.5240 H   0  0  0  0  0  0  0  0  0  0  0  0
    0.6580    7.4840   21.9500 H   0  0  0  0  0  0  0  0  0  0  0  0
    0.4260   13.0680   21.7920 H   0  0  0  0  0  0  0  0  0  0  0  0
   -0.5380   11.7930   22.5210 H   0  0  0  0  0  0  0  0  0  0  0  0
   -2.1980   13.1440   21.6180 H   0  0  0  0  0  0  0  0  0  0  0  0
   -2.0480   11.8880   20.3920 H   0  0  0  0  0  0  0  0  0  0  0  0
   -2.2280   14.1560   19.4270 H   0  0  0  0  0  0  0  0  0  0  0  0
   -0.8080   14.6860   20.3130 H   0  0  0  0  0  0  0  0  0  0  0  0
   -0.8900   12.5880   18.0790 H   0  0  0  0  0  0  0  0  0  0  0  0
   -0.2860   14.2400   17.9750 H   0  0  0  0  0  0  0  0  0  0  0  0
    1.4090   13.5820   19.8560 H   0  0  0  0  0  0  0  0  0  0  0  0
    1.6830   13.0430   18.2130 H   0  0  0  0  0  0  0  0  0  0  0  0
    1.7560    5.2340   20.7990 C   0  0  0  0  0  0  0  0  0  0  0  0
    2.4560    4.9880   21.7760 O   0  0  0  0  0  0  0  0  0  0  0  0
    2.8260    1.9540   18.5500 C   0  0  0  0  0  0  0  0  0  0  0  0
    2.9010    3.1340   19.1680 C   0  0  0  0  0  0  0  0  0  0  0  0
    1.4830    3.3950   19.4400 C   0  0  0  0  0  0  0  0  0  0  0  0
    0.9490    4.3280   20.1580 N   0  0  0  0  0  0  0  0  0  0  0  0
    0.7050    2.4500   18.8110 N   0  0  0  0  0  0  0  0  0  0  0  0
    1.5490    1.4230   18.3760 O   0  0  0  0  0  0  0  0  0  0  0  0
    3.7560    3.7200   19.4420 H   0  0  0  0  0  0  0  0  0  0  0  0
   -0.1020    2.1440   19.3450 H   0  0  0  0  0  0  0  0  0  0  0  0
    3.9620    1.1360   18.0550 C   0  0  0  0  0  0  0  0  0  0  0  0
    4.0970    0.2270   18.6510 H   0  0  0  0  0  0  0  0  0  0  0  0
    3.7920    0.8370   17.0150 H   0  0  0  0  0  0  0  0  0  0  0  0
    4.8930    1.7110   18.1000 H   0  0  0  0  0  0  0  0  0  0  0  0
  1 30  1  0  0  0  0
  1 11  1  0  0  0  0
  2  1  2  0  0  0  0
  3  2  1  0  0  0  0
  3  4  2  0  0  0  0
  4 10  1  0  0  0  0
  5  4  1  0  0  0  0
  5  7  1  0  0  0  0
  6  5  2  0  0  0  0
  7  8  1  0  0  0  0
  8  9  2  0  0  0  0
  8 12  1  0  0  0  0
 10 11  2  0  0  0  0
 10  9  1  0  0  0  0
 11 19  1  0  0  0  0
 12 20  1  0  0  0  0
 12 21  1  0  0  0  0
 13 12  1  0  0  0  0
 13 22  1  0  0  0  0
 14 25  1  0  0  0  0
 14 13  1  0  0  0  0
 15 16  1  0  0  0  0
 15 14  1  0  0  0  0
 16  7  1  0  0  0  0
 16 28  1  0  0  0  0
 17  2  1  0  0  0  0
 18  3  1  0  0  0  0
 23 13  1  0  0  0  0
 24 14  1  0  0  0  0
 26 15  1  0  0  0  0
 27 15  1  0  0  0  0
 29 16  1  0  0  0  0
 30 31  2  0  0  0  0
 32 33  2  0  0  0  0
 33 34  1  0  0  0  0
 33 38  1  0  0  0  0
 34 35  2  0  0  0  0
 35 30  1  0  0  0  0
 36 39  1  0  0  0  0
 36 34  1  0  0  0  0
 37 32  1  0  0  0  0
 37 36  1  0  0  0  0
 40 43  1  0  0  0  0
 40 32  1  0  0  0  0
 40 41  1  0  0  0  0
 42 40  1  0  0  0  0
M  END
>  <MODEL>
26

>  <REMARK>
 VINA RESULT:    -6.824      2.935      3.404
 INTER + INTRA:          -7.489
 INTER:                  -7.186
 INTRA:                  -0.303
 UNBOUND:                 0.332
  Name = 
  3 active torsions:
  status: ('A' for Active; 'I' for Inactive)
    1  A    between atoms: C_1  and  C_2
    2  A    between atoms: N_5  and  C_6
    3  A    between atoms: C_6  and  C_8
                            x       y       z     vdW  Elec       q    Type
                         _______ _______ _______ _____ _____    ______ ____

>  <TORSDO>
F 3

$$$$
=
 OpenBabel07192307433D

 43 46  0  0  0  0  0  0  0  0999 V2000
    1.1870    8.5710   20.1660 C   0  0  0  0  0  0  0  0  0  0  0  0
    1.2410    9.2310   18.9300 C   0  0  0  0  0  0  0  0  0  0  0  0
    2.0920    8.7680   17.9250 C   0  0  0  0  0  0  0  0  0  0  0  0
    2.8890    7.6420   18.1600 C   0  0  0  0  0  0  0  0  0  0  0  0
    3.7970    7.1200   17.1250 C   0  0  0  0  0  0  0  0  0  0  0  0
    3.8810    7.7110   16.0510 O   0  0  0  0  0  0  0  0  0  0  0  0
    4.5130    5.9690   17.4520 N   0  0  0  0  0  0  0  0  0  0  0  0
    4.4190    5.4080   18.7090 C   0  0  0  0  0  0  0  0  0  0  0  0
    3.6440    5.8570   19.6440 N   0  0  0  0  0  0  0  0  0  0  0  0
    2.8490    6.9760   19.3810 C   0  0  0  0  0  0  0  0  0  0  0  0
    1.9950    7.4450   20.3840 C   0  0  0  0  0  0  0  0  0  0  0  0
    5.2930    4.2130   19.0400 C   0  0  0  0  0  0  0  0  0  0  0  0
    6.7680    4.5980   19.0920 C   0  0  0  0  0  0  0  0  0  0  0  0
    7.4400    4.6110   17.7210 C   0  0  0  0  0  0  0  0  0  0  0  0
    6.8690    5.6350   16.7420 C   0  0  0  0  0  0  0  0  0  0  0  0
    5.3920    5.4110   16.4250 C   0  0  0  0  0  0  0  0  0  0  0  0
    0.6200   10.1060   18.7450 H   0  0  0  0  0  0  0  0  0  0  0  0
    2.1310    9.2810   16.9660 H   0  0  0  0  0  0  0  0  0  0  0  0
    1.9710    6.9190   21.3360 H   0  0  0  0  0  0  0  0  0  0  0  0
    5.1070    3.3980   18.3320 H   0  0  0  0  0  0  0  0  0  0  0  0
    4.9940    3.8420   20.0290 H   0  0  0  0  0  0  0  0  0  0  0  0
    7.2960    3.8670   19.7160 H   0  0  0  0  0  0  0  0  0  0  0  0
    6.8930    5.5760   19.5730 H   0  0  0  0  0  0  0  0  0  0  0  0
    8.5080    4.8230   17.8600 H   0  0  0  0  0  0  0  0  0  0  0  0
    7.3810    3.6090   17.2780 H   0  0  0  0  0  0  0  0  0  0  0  0
    7.0310    6.6510   17.1230 H   0  0  0  0  0  0  0  0  0  0  0  0
    7.4390    5.5510   15.8080 H   0  0  0  0  0  0  0  0  0  0  0  0
    5.1730    4.3430   16.3120 H   0  0  0  0  0  0  0  0  0  0  0  0
    5.1710    5.8710   15.4560 H   0  0  0  0  0  0  0  0  0  0  0  0
    0.2720    9.0860   21.2290 C   0  0  0  0  0  0  0  0  0  0  0  0
   -0.6330    8.3660   21.6390 O   0  0  0  0  0  0  0  0  0  0  0  0
   -1.9230   12.5470   20.8120 C   0  0  0  0  0  0  0  0  0  0  0  0
   -1.4580   11.3170   20.5860 C   0  0  0  0  0  0  0  0  0  0  0  0
   -0.2390   11.3250   21.4020 C   0  0  0  0  0  0  0  0  0  0  0  0
    0.5510   10.3460   21.6960 N   0  0  0  0  0  0  0  0  0  0  0  0
   -0.0070   12.5940   21.8820 N   0  0  0  0  0  0  0  0  0  0  0  0
   -1.1610   13.3530   21.6560 O   0  0  0  0  0  0  0  0  0  0  0  0
   -1.8740   10.5140   20.0090 H   0  0  0  0  0  0  0  0  0  0  0  0
    0.3490   12.6270   22.8310 H   0  0  0  0  0  0  0  0  0  0  0  0
   -3.1790   13.1350   20.2820 C   0  0  0  0  0  0  0  0  0  0  0  0
   -4.0060   13.0290   20.9930 H   0  0  0  0  0  0  0  0  0  0  0  0
   -3.0430   14.2010   20.0770 H   0  0  0  0  0  0  0  0  0  0  0  0
   -3.4680   12.6380   19.3510 H   0  0  0  0  0  0  0  0  0  0  0  0
  1 11  1  0  0  0  0
  1 30  1  0  0  0  0
  2  1  2  0  0  0  0
  3  4  2  0  0  0  0
  3  2  1  0  0  0  0
  4 10  1  0  0  0  0
  5  7  1  0  0  0  0
  5  4  1  0  0  0  0
  6  5  2  0  0  0  0
  7  8  1  0  0  0  0
  8 12  1  0  0  0  0
  8  9  2  0  0  0  0
 10  9  1  0  0  0  0
 10 11  2  0  0  0  0
 11 19  1  0  0  0  0
 12 13  1  0  0  0  0
 12 21  1  0  0  0  0
 13 23  1  0  0  0  0
 13 22  1  0  0  0  0
 14 24  1  0  0  0  0
 14 13  1  0  0  0  0
 15 26  1  0  0  0  0
 15 14  1  0  0  0  0
 16 15  1  0  0  0  0
 16  7  1  0  0  0  0
 17  2  1  0  0  0  0
 18  3  1  0  0  0  0
 20 12  1  0  0  0  0
 25 14  1  0  0  0  0
 27 15  1  0  0  0  0
 28 16  1  0  0  0  0
 29 16  1  0  0  0  0
 30 31  2  0  0  0  0
 30 35  1  0  0  0  0
 32 37  1  0  0  0  0
 33 32  2  0  0  0  0
 33 34  1  0  0  0  0
 34 35  2  0  0  0  0
 34 36  1  0  0  0  0
 36 39  1  0  0  0  0
 37 36  1  0  0  0  0
 38 33  1  0  0  0  0
 40 32  1  0  0  0  0
 40 41  1  0  0  0  0
 42 40  1  0  0  0  0
 43 40  1  0  0  0  0
M  END
>  <MODEL>
27

>  <REMARK>
 VINA RESULT:    -6.639      2.141      8.216
 INTER + INTRA:          -7.278
 INTER:                  -6.992
 INTRA:                  -0.286
 UNBOUND:                 0.332
  Name = 
  3 active torsions:
  status: ('A' for Active; 'I' for Inactive)
    1  A    between atoms: C_1  and  C_2
    2  A    between atoms: N_5  and  C_6
    3  A    between atoms: C_6  and  C_8
                            x       y       z     vdW  Elec       q    Type
                         _______ _______ _______ _____ _____    ______ ____

>  <TORSDO>
F 3

$$$$
=
 OpenBabel07192307433D

 43 46  0  0  0  0  0  0  0  0999 V2000
    6.6760    6.6110   17.4200 C   0  0  0  0  0  0  0  0  0  0  0  0
    6.4250    5.7740   16.3230 C   0  0  0  0  0  0  0  0  0  0  0  0
    5.3240    4.9150   16.3350 C   0  0  0  0  0  0  0  0  0  0  0  0
    4.4750    4.8960   17.4470 C   0  0  0  0  0  0  0  0  0  0  0  0
    3.3010    4.0090   17.4960 C   0  0  0  0  0  0  0  0  0  0  0  0
    3.0910    3.2430   16.5580 O   0  0  0  0  0  0  0  0  0  0  0  0
    2.5000    4.1020   18.6340 N   0  0  0  0  0  0  0  0  0  0  0  0
    2.8470    4.9320   19.6790 C   0  0  0  0  0  0  0  0  0  0  0  0
    3.8830    5.7100   19.6710 N   0  0  0  0  0  0  0  0  0  0  0  0
    4.7100    5.7190   18.5440 C   0  0  0  0  0  0  0  0  0  0  0  0
    5.8140    6.5760   18.5270 C   0  0  0  0  0  0  0  0  0  0  0  0
    1.9910    4.9230   20.9320 C   0  0  0  0  0  0  0  0  0  0  0  0
    2.1040    3.5950   21.6740 C   0  0  0  0  0  0  0  0  0  0  0  0
    1.1760    2.5130   21.1260 C   0  0  0  0  0  0  0  0  0  0  0  0
    1.4570    2.1060   19.6810 C   0  0  0  0  0  0  0  0  0  0  0  0
    1.3080    3.2560   18.6870 C   0  0  0  0  0  0  0  0  0  0  0  0
    7.0830    5.7890   15.4560 H   0  0  0  0  0  0  0  0  0  0  0  0
    5.1300    4.2680   15.4820 H   0  0  0  0  0  0  0  0  0  0  0  0
    5.9910    7.2160   19.3890 H   0  0  0  0  0  0  0  0  0  0  0  0
    0.9530    5.1680   20.6850 H   0  0  0  0  0  0  0  0  0  0  0  0
    2.3520    5.7230   21.5910 H   0  0  0  0  0  0  0  0  0  0  0  0
    1.8390    3.7620   22.7250 H   0  0  0  0  0  0  0  0  0  0  0  0
    3.1390    3.2340   21.6600 H   0  0  0  0  0  0  0  0  0  0  0  0
    1.2670    1.6230   21.7610 H   0  0  0  0  0  0  0  0  0  0  0  0
    0.1350    2.8490   21.2140 H   0  0  0  0  0  0  0  0  0  0  0  0
    2.4560    1.6580   19.6040 H   0  0  0  0  0  0  0  0  0  0  0  0
    0.7360    1.3230   19.4130 H   0  0  0  0  0  0  0  0  0  0  0  0
    0.4420    3.8790   18.9370 H   0  0  0  0  0  0  0  0  0  0  0  0
    1.1060    2.8360   17.6970 H   0  0  0  0  0  0  0  0  0  0  0  0
    7.8620    7.5190   17.3880 C   0  0  0  0  0  0  0  0  0  0  0  0
    8.3420    7.8350   16.3040 O   0  0  0  0  0  0  0  0  0  0  0  0
    9.1280   11.2890   18.4610 C   0  0  0  0  0  0  0  0  0  0  0  0
    8.8260   10.2300   17.7070 C   0  0  0  0  0  0  0  0  0  0  0  0
    8.7230    9.1820   18.7290 C   0  0  0  0  0  0  0  0  0  0  0  0
    8.3030    7.9660   18.6080 N   0  0  0  0  0  0  0  0  0  0  0  0
    9.1410    9.6720   19.9450 N   0  0  0  0  0  0  0  0  0  0  0  0
    9.2440   11.0630   19.8320 O   0  0  0  0  0  0  0  0  0  0  0  0
    8.6550   10.1570   16.6510 H   0  0  0  0  0  0  0  0  0  0  0  0
    8.6010    9.3460   20.7390 H   0  0  0  0  0  0  0  0  0  0  0  0
    9.3230   12.6850   17.9960 C   0  0  0  0  0  0  0  0  0  0  0  0
    8.8530   12.8560   17.0210 H   0  0  0  0  0  0  0  0  0  0  0  0
    8.8850   13.3890   18.7110 H   0  0  0  0  0  0  0  0  0  0  0  0
   10.3900   12.9090   17.9010 H   0  0  0  0  0  0  0  0  0  0  0  0
  1 11  1  0  0  0  0
  2  3  1  0  0  0  0
  2  1  2  0  0  0  0
  3  4  2  0  0  0  0
  4  5  1  0  0  0  0
  4 10  1  0  0  0  0
  5  7  1  0  0  0  0
  6  5  2  0  0  0  0
  7 16  1  0  0  0  0
  7  8  1  0  0  0  0
  8 12  1  0  0  0  0
  9  8  2  0  0  0  0
 10  9  1  0  0  0  0
 11 10  2  0  0  0  0
 11 19  1  0  0  0  0
 12 21  1  0  0  0  0
 12 13  1  0  0  0  0
 13 22  1  0  0  0  0
 14 25  1  0  0  0  0
 14 13  1  0  0  0  0
 14 24  1  0  0  0  0
 15 14  1  0  0  0  0
 16 28  1  0  0  0  0
 16 15  1  0  0  0  0
 17  2  1  0  0  0  0
 18  3  1  0  0  0  0
 20 12  1  0  0  0  0
 23 13  1  0  0  0  0
 26 15  1  0  0  0  0
 27 15  1  0  0  0  0
 29 16  1  0  0  0  0
 30  1  1  0  0  0  0
 30 35  1  0  0  0  0
 31 30  2  0  0  0  0
 32 37  1  0  0  0  0
 33 32  2  0  0  0  0
 33 34  1  0  0  0  0
 34 36  1  0  0  0  0
 35 34  2  0  0  0  0
 36 39  1  0  0  0  0
 37 36  1  0  0  0  0
 38 33  1  0  0  0  0
 40 32  1  0  0  0  0
 40 42  1  0  0  0  0
 41 40  1  0  0  0  0
 43 40  1  0  0  0  0
M  END
>  <MODEL>
28

>  <REMARK>
 VINA RESULT:    -6.509      4.375      6.622
 INTER + INTRA:          -7.129
 INTER:                  -7.275
 INTRA:                   0.147
 UNBOUND:                 0.332
  Name = 
  3 active torsions:
  status: ('A' for Active; 'I' for Inactive)
    1  A    between atoms: C_1  and  C_2
    2  A    between atoms: N_5  and  C_6
    3  A    between atoms: C_6  and  C_8
                            x       y       z     vdW  Elec       q    Type
                         _______ _______ _______ _____ _____    ______ ____

>  <TORSDO>
F 3

$$$$
