=
 OpenBabel07192307433D

 85 90  0  0  1  0  0  0  0  0999 V2000
    1.5980    5.7310   20.5310 C   0  0  0  0  0  0  0  0  0  0  0  0
    2.4630    5.8550   19.4350 C   0  0  0  0  0  0  0  0  0  0  0  0
    2.6310    7.0860   18.8210 C   0  0  0  0  0  0  0  0  0  0  0  0
    3.4890    7.3120   17.7410 N   0  0  0  0  0  0  0  0  0  0  0  0
    4.2260    6.4040   17.0320 C   0  0  0  0  0  0  0  0  0  0  0  0
    4.2180    5.1900   17.1780 O   0  0  0  0  0  0  0  0  0  0  0  0
    5.0420    7.0300   16.1100 N   0  0  0  0  0  0  0  0  0  0  0  0
    2.0040    8.2020   19.2440 N   0  0  0  0  0  0  0  0  0  0  0  0
    1.1890    8.1120   20.3220 C   0  0  0  0  0  0  0  0  0  0  0  0
    0.9690    6.9010   20.9750 C   0  0  0  0  0  0  0  0  0  0  0  0
    3.0130    4.9920   19.0840 H   0  0  0  0  0  0  0  0  0  0  0  0
    3.5200    8.2800   17.4730 H   0  0  0  0  0  0  0  0  0  0  0  0
    4.8040    7.9770   15.8510 H   0  0  0  0  0  0  0  0  0  0  0  0
    0.2880    6.8670   21.8150 H   0  0  0  0  0  0  0  0  0  0  0  0
    5.8570    6.2730   15.1710 C   0  0  0  0  0  0  0  0  0  0  0  0
    5.0300    5.1600   14.5250 C   0  0  0  0  0  0  0  0  0  0  0  0
    5.8320    4.3910   13.4750 C   0  0  0  0  0  0  0  0  0  0  0  0
    7.3280    4.3000   13.7840 C   0  0  0  0  0  0  0  0  0  0  0  0
    7.6030    4.3920   15.2780 C   0  0  0  0  0  0  0  0  0  0  0  0
    7.1110    5.7160   15.8670 C   0  0  0  0  0  0  0  0  0  0  0  0
    6.1780    6.9620   14.3780 H   0  0  0  0  0  0  0  0  0  0  0  0
    4.1240    5.5730   14.0590 H   0  0  0  0  0  0  0  0  0  0  0  0
    4.6820    4.4610   15.2980 H   0  0  0  0  0  0  0  0  0  0  0  0
    5.7100    4.8640   12.4930 H   0  0  0  0  0  0  0  0  0  0  0  0
    5.4090    3.3830   13.3810 H   0  0  0  0  0  0  0  0  0  0  0  0
    7.7310    3.3650   13.3780 H   0  0  0  0  0  0  0  0  0  0  0  0
    7.8530    5.1170   13.2690 H   0  0  0  0  0  0  0  0  0  0  0  0
    7.1000    3.5630   15.7900 H   0  0  0  0  0  0  0  0  0  0  0  0
    8.6740    4.2780   15.4760 H   0  0  0  0  0  0  0  0  0  0  0  0
    6.9390    5.5760   16.9410 H   0  0  0  0  0  0  0  0  0  0  0  0
    7.9090    6.4660   15.7920 H   0  0  0  0  0  0  0  0  0  0  0  0
    0.5820    9.3070   20.7520 N   0  0  0  0  0  0  0  0  0  0  0  0
    0.5190   10.4460   19.8540 C   0  0  0  0  0  0  0  0  0  0  0  0
   -0.2020   11.4740   20.6670 C   0  0  0  0  0  0  0  0  0  0  0  0
   -0.4880   10.9570   21.9240 C   0  0  0  0  0  0  0  0  0  0  0  0
   -1.1460   11.6850   22.8990 C   0  0  0  0  0  0  0  0  0  0  0  0
   -1.5430   13.0020   22.6070 C   0  0  0  0  0  0  0  0  0  0  0  0
   -1.2550   13.5240   21.3240 C   0  0  0  0  0  0  0  0  0  0  0  0
   -0.5830   12.7700   20.3360 C   0  0  0  0  0  0  0  0  0  0  0  0
    0.0280    9.5820   21.9940 C   0  0  0  0  0  0  0  0  0  0  0  0
   -0.0380    8.9130   23.0090 O   0  0  0  0  0  0  0  0  0  0  0  0
   -0.0490   10.1800   18.9570 H   0  0  0  0  0  0  0  0  0  0  0  0
    1.5300   10.7830   19.6110 H   0  0  0  0  0  0  0  0  0  0  0  0
   -1.3430   11.2250   23.8650 H   0  0  0  0  0  0  0  0  0  0  0  0
   -1.5600   14.5370   21.0730 H   0  0  0  0  0  0  0  0  0  0  0  0
   -2.2660   13.8010   23.6860 C   0  0  0  0  0  0  0  0  0  0  0  0
   -2.7120   15.2020   23.2280 C   0  0  0  0  0  0  0  0  0  0  0  0
   -4.0980   15.2660   22.5870 C   0  0  0  0  0  0  0  0  0  0  0  0
   -5.1460   14.5470   23.4260 C   0  0  0  0  0  0  0  0  0  0  0  0
   -4.7520   13.1040   23.7100 C   0  0  0  0  0  0  0  0  0  0  0  0
   -3.3870   13.0120   24.3840 C   0  0  0  0  0  0  0  0  0  0  0  0
   -1.5120   13.9840   24.4660 H   0  0  0  0  0  0  0  0  0  0  0  0
   -2.7320   15.8510   24.1130 H   0  0  0  0  0  0  0  0  0  0  0  0
   -1.9740   15.6450   22.5490 H   0  0  0  0  0  0  0  0  0  0  0  0
   -4.0710   14.8410   21.5810 H   0  0  0  0  0  0  0  0  0  0  0  0
   -4.3870   16.3180   22.4640 H   0  0  0  0  0  0  0  0  0  0  0  0
   -6.1100   14.5710   22.9060 H   0  0  0  0  0  0  0  0  0  0  0  0
   -5.2840   15.0820   24.3730 H   0  0  0  0  0  0  0  0  0  0  0  0
   -5.5060   12.6450   24.3610 H   0  0  0  0  0  0  0  0  0  0  0  0
   -4.7600   12.5250   22.7810 H   0  0  0  0  0  0  0  0  0  0  0  0
   -3.4970   13.4160   25.4000 H   0  0  0  0  0  0  0  0  0  0  0  0
   -3.1040   11.9580   24.5020 H   0  0  0  0  0  0  0  0  0  0  0  0
   -0.2910   13.3380   18.9740 C   0  0  0  0  0  0  0  0  0  0  0  0
   -0.9710   12.6900   17.9870 F   0  0  0  0  0  0  0  0  0  0  0  0
   -0.6470   14.6480   18.8700 F   0  0  0  0  0  0  0  0  0  0  0  0
    1.0220   13.2780   18.6220 F   0  0  0  0  0  0  0  0  0  0  0  0
    1.4430    4.3800   21.2340 C   0  0  2  0  0  0  0  0  0  0  0  0
    0.7000    4.5720   22.0240 H   0  0  0  0  0  0  0  0  0  0  0  0
    2.7280    3.9240   21.9500 C   0  0  0  0  0  0  0  0  0  0  0  0
    3.3570    3.3190   21.2840 H   0  0  0  0  0  0  0  0  0  0  0  0
    3.3190    4.7790   22.2970 H   0  0  0  0  0  0  0  0  0  0  0  0
    2.5090    3.3000   22.8220 H   0  0  0  0  0  0  0  0  0  0  0  0
    0.8490    3.2030   20.4130 C   0  0  0  0  0  0  0  0  0  0  0  0
    0.5310    2.4320   21.1270 H   0  0  0  0  0  0  0  0  0  0  0  0
   -0.0710    3.5040   19.8990 H   0  0  0  0  0  0  0  0  0  0  0  0
    1.7950    2.6030   19.4220 C   0  0  0  0  0  0  0  0  0  0  0  0
    2.7030    1.6780   19.6600 N   0  0  0  0  0  0  0  0  0  0  0  0
    3.3510    1.3920   18.4840 N   0  0  0  0  0  0  0  0  0  0  0  0
    2.8300    2.1520   17.5500 C   0  0  0  0  0  0  0  0  0  0  0  0
    1.8580    2.9330   18.0910 N   0  0  0  0  0  0  0  0  0  0  0  0
    3.1180    2.1670   16.5080 H   0  0  0  0  0  0  0  0  0  0  0  0
    1.0680    3.9060   17.3870 C   0  0  0  0  0  0  0  0  0  0  0  0
    1.7390    4.6050   16.8830 H   0  0  0  0  0  0  0  0  0  0  0  0
    0.4400    4.4500   18.0970 H   0  0  0  0  0  0  0  0  0  0  0  0
    0.4370    3.3820   16.6640 H   0  0  0  0  0  0  0  0  0  0  0  0
  1 10  1  0  0  0  0
  1 67  1  0  0  0  0
  2  1  2  0  0  0  0
  3  8  2  0  0  0  0
  3  2  1  0  0  0  0
  4  3  1  0  0  0  0
  5  6  2  0  0  0  0
  5  4  1  0  0  0  0
  7  5  1  0  0  0  0
  8  9  1  0  0  0  0
  9 32  1  0  0  0  0
  9 10  2  0  0  0  0
 10 14  1  0  0  0  0
 11  2  1  0  0  0  0
 12  4  1  0  0  0  0
 13  7  1  0  0  0  0
 15 20  1  0  0  0  0
 15  7  1  0  0  0  0
 16 15  1  0  0  0  0
 16 23  1  0  0  0  0
 17 18  1  0  0  0  0
 17 16  1  0  0  0  0
 18 19  1  0  0  0  0
 19 29  1  0  0  0  0
 19 28  1  0  0  0  0
 19 20  1  0  0  0  0
 20 30  1  0  0  0  0
 21 15  1  0  0  0  0
 22 16  1  0  0  0  0
 24 17  1  0  0  0  0
 25 17  1  0  0  0  0
 26 18  1  0  0  0  0
 27 18  1  0  0  0  0
 31 20  1  0  0  0  0
 32 40  1  0  0  0  0
 33 34  1  0  0  0  0
 33 32  1  0  0  0  0
 34 35  1  0  0  0  0
 35 40  1  0  0  0  0
 35 36  2  0  0  0  0
 36 44  1  0  0  0  0
 37 36  1  0  0  0  0
 37 46  1  0  0  0  0
 38 37  2  0  0  0  0
 39 34  2  0  0  0  0
 39 38  1  0  0  0  0
 40 41  2  0  0  0  0
 42 33  1  0  0  0  0
 43 33  1  0  0  0  0
 45 38  1  0  0  0  0
 46 51  1  0  0  0  0
 46 52  1  0  0  0  0
 47 46  1  0  0  0  0
 47 53  1  0  0  0  0
 48 47  1  0  0  0  0
 48 49  1  0  0  0  0
 49 50  1  0  0  0  0
 49 58  1  0  0  0  0
 50 59  1  0  0  0  0
 50 51  1  0  0  0  0
 51 62  1  0  0  0  0
 51 61  1  0  0  0  0
 54 47  1  0  0  0  0
 55 48  1  0  0  0  0
 56 48  1  0  0  0  0
 57 49  1  0  0  0  0
 60 50  1  0  0  0  0
 63 39  1  0  0  0  0
 64 63  1  0  0  0  0
 65 63  1  0  0  0  0
 66 63  1  0  0  0  0
 67 69  1  0  0  0  0
 67 68  1  1  0  0  0
 69 71  1  0  0  0  0
 69 72  1  0  0  0  0
 70 69  1  0  0  0  0
 73 74  1  0  0  0  0
 73 67  1  0  0  0  0
 75 73  1  0  0  0  0
 76 77  2  0  0  0  0
 76 73  1  0  0  0  0
 78 77  1  0  0  0  0
 79 80  1  0  0  0  0
 79 78  2  0  0  0  0
 80 76  1  0  0  0  0
 81 79  1  0  0  0  0
 82 80  1  0  0  0  0
 82 84  1  0  0  0  0
 83 82  1  0  0  0  0
 85 82  1  0  0  0  0
M  END
>  <MODEL>
1

>  <REMARK>
 VINA RESULT:    -9.878      0.000      0.000
 INTER + INTRA:         -11.304
 INTER:                 -10.945
 INTRA:                  -0.359
 UNBOUND:                 3.194
  Name = 
  9 active torsions:
  status: ('A' for Active; 'I' for Inactive)
    1  A    between atoms: C_1  and  C_2
    2  A    between atoms: C_2  and  C_3
    3  A    between atoms: C_2  and  C_10
    4  A    between atoms: C_3  and  C_4
    5  A    between atoms: N_8  and  C_9
    6  A    between atoms: N_16  and  C_17
    7  A    between atoms: C_24  and  N_26
    8  A    between atoms: C_31  and  C_38
    9  A    between atoms: C_33  and  C_34
                            x       y       z     vdW  Elec       q    Type
                         _______ _______ _______ _____ _____    ______ ____

>  <TORSDO>
F 9

$$$$
=
 OpenBabel07192307433D

 85 90  0  0  1  0  0  0  0  0999 V2000
    1.8600    5.5070   20.0410 C   0  0  0  0  0  0  0  0  0  0  0  0
    2.7580    5.4500   18.9660 C   0  0  0  0  0  0  0  0  0  0  0  0
    3.0680    6.6010   18.2590 C   0  0  0  0  0  0  0  0  0  0  0  0
    3.9690    6.6460   17.1920 N   0  0  0  0  0  0  0  0  0  0  0  0
    4.6230    5.6110   16.5820 C   0  0  0  0  0  0  0  0  0  0  0  0
    4.4850    4.4200   16.8270 O   0  0  0  0  0  0  0  0  0  0  0  0
    5.5200    6.0700   15.6390 N   0  0  0  0  0  0  0  0  0  0  0  0
    2.5510    7.8070   18.5700 N   0  0  0  0  0  0  0  0  0  0  0  0
    1.7070    7.8910   19.6260 C   0  0  0  0  0  0  0  0  0  0  0  0
    1.3480    6.7690   20.3690 C   0  0  0  0  0  0  0  0  0  0  0  0
    3.2230    4.5090   18.7050 H   0  0  0  0  0  0  0  0  0  0  0  0
    4.1070    7.5790   16.8460 H   0  0  0  0  0  0  0  0  0  0  0  0
    5.3890    7.0100   15.2960 H   0  0  0  0  0  0  0  0  0  0  0  0
    0.6480    6.8760   21.1870 H   0  0  0  0  0  0  0  0  0  0  0  0
    6.2730    5.1570   14.7900 C   0  0  0  0  0  0  0  0  0  0  0  0
    7.1050    5.9390   13.7730 C   0  0  0  0  0  0  0  0  0  0  0  0
    7.9670    5.0150   12.9110 C   0  0  0  0  0  0  0  0  0  0  0  0
    7.3390    3.6430   12.6560 C   0  0  0  0  0  0  0  0  0  0  0  0
    5.8190    3.6950   12.7260 C   0  0  0  0  0  0  0  0  0  0  0  0
    5.3280    4.1550   14.1000 C   0  0  0  0  0  0  0  0  0  0  0  0
    6.9620    4.5950   15.4340 H   0  0  0  0  0  0  0  0  0  0  0  0
    7.7500    6.6680   14.2810 H   0  0  0  0  0  0  0  0  0  0  0  0
    6.4400    6.5240   13.1210 H   0  0  0  0  0  0  0  0  0  0  0  0
    8.9430    4.8650   13.3890 H   0  0  0  0  0  0  0  0  0  0  0  0
    8.1700    5.5150   11.9570 H   0  0  0  0  0  0  0  0  0  0  0  0
    7.6640    3.2670   11.6790 H   0  0  0  0  0  0  0  0  0  0  0  0
    7.7110    2.9300   13.4060 H   0  0  0  0  0  0  0  0  0  0  0  0
    5.4460    4.3870   11.9610 H   0  0  0  0  0  0  0  0  0  0  0  0
    5.3930    2.7130   12.4940 H   0  0  0  0  0  0  0  0  0  0  0  0
    4.3210    4.5740   13.9870 H   0  0  0  0  0  0  0  0  0  0  0  0
    5.2120    3.2830   14.7560 H   0  0  0  0  0  0  0  0  0  0  0  0
    1.2190    9.1740   19.9370 N   0  0  0  0  0  0  0  0  0  0  0  0
    1.7910   10.3400   19.2880 C   0  0  0  0  0  0  0  0  0  0  0  0
    0.9980   11.4690   19.8660 C   0  0  0  0  0  0  0  0  0  0  0  0
    0.0830   10.9720   20.7850 C   0  0  0  0  0  0  0  0  0  0  0  0
   -0.7870   11.7870   21.4880 C   0  0  0  0  0  0  0  0  0  0  0  0
   -0.7430   13.1740   21.2630 C   0  0  0  0  0  0  0  0  0  0  0  0
    0.1870   13.6760   20.3240 C   0  0  0  0  0  0  0  0  0  0  0  0
    1.0690   12.8340   19.6110 C   0  0  0  0  0  0  0  0  0  0  0  0
    0.2310    9.5110   20.8520 C   0  0  0  0  0  0  0  0  0  0  0  0
   -0.4140    8.8260   21.6240 O   0  0  0  0  0  0  0  0  0  0  0  0
    1.6480   10.2690   18.2050 H   0  0  0  0  0  0  0  0  0  0  0  0
    2.8480   10.4320   19.5530 H   0  0  0  0  0  0  0  0  0  0  0  0
   -1.4830   11.3390   22.1940 H   0  0  0  0  0  0  0  0  0  0  0  0
    0.2320   14.7450   20.1280 H   0  0  0  0  0  0  0  0  0  0  0  0
   -1.7030   14.0690   22.0430 C   0  0  0  0  0  0  0  0  0  0  0  0
   -2.9660   14.4590   21.2550 C   0  0  0  0  0  0  0  0  0  0  0  0
   -4.1400   13.4900   21.3870 C   0  0  0  0  0  0  0  0  0  0  0  0
   -4.4250   13.1350   22.8400 C   0  0  0  0  0  0  0  0  0  0  0  0
   -3.1910   12.5830   23.5410 C   0  0  0  0  0  0  0  0  0  0  0  0
   -2.0130   13.5480   23.4570 C   0  0  0  0  0  0  0  0  0  0  0  0
   -1.1590   15.0130   22.1950 H   0  0  0  0  0  0  0  0  0  0  0  0
   -3.3050   15.4330   21.6310 H   0  0  0  0  0  0  0  0  0  0  0  0
   -2.7350   14.6110   20.1940 H   0  0  0  0  0  0  0  0  0  0  0  0
   -3.9480   12.5790   20.8130 H   0  0  0  0  0  0  0  0  0  0  0  0
   -5.0340   13.9460   20.9410 H   0  0  0  0  0  0  0  0  0  0  0  0
   -5.2360   12.3990   22.8860 H   0  0  0  0  0  0  0  0  0  0  0  0
   -4.7770   14.0280   23.3710 H   0  0  0  0  0  0  0  0  0  0  0  0
   -3.4270   12.3950   24.5960 H   0  0  0  0  0  0  0  0  0  0  0  0
   -2.9220   11.6120   23.1130 H   0  0  0  0  0  0  0  0  0  0  0  0
   -2.2560   14.4150   24.0870 H   0  0  0  0  0  0  0  0  0  0  0  0
   -1.1240   13.0830   23.9030 H   0  0  0  0  0  0  0  0  0  0  0  0
    2.0480   13.3850   18.6100 C   0  0  0  0  0  0  0  0  0  0  0  0
    1.7600   14.6690   18.2590 F   0  0  0  0  0  0  0  0  0  0  0  0
    3.3220   13.4080   19.0870 F   0  0  0  0  0  0  0  0  0  0  0  0
    2.0960   12.6820   17.4450 F   0  0  0  0  0  0  0  0  0  0  0  0
    1.5490    4.2430   20.8470 C   0  0  2  0  0  0  0  0  0  0  0  0
    0.5520    4.4360   21.2740 H   0  0  0  0  0  0  0  0  0  0  0  0
    2.5010    4.0430   22.0420 C   0  0  0  0  0  0  0  0  0  0  0  0
    3.5320    3.8860   21.7030 H   0  0  0  0  0  0  0  0  0  0  0  0
    2.4880    4.9090   22.7140 H   0  0  0  0  0  0  0  0  0  0  0  0
    2.2310    3.1630   22.6340 H   0  0  0  0  0  0  0  0  0  0  0  0
    1.3930    2.9100   20.0660 C   0  0  0  0  0  0  0  0  0  0  0  0
    0.8110    2.2270   20.6980 H   0  0  0  0  0  0  0  0  0  0  0  0
    0.7820    3.0490   19.1680 H   0  0  0  0  0  0  0  0  0  0  0  0
    2.6850    2.2600   19.6900 C   0  0  0  0  0  0  0  0  0  0  0  0
    3.6800    1.9560   20.5010 N   0  0  0  0  0  0  0  0  0  0  0  0
    4.6730    1.3590   19.7650 N   0  0  0  0  0  0  0  0  0  0  0  0
    4.2700    1.3150   18.5170 C   0  0  0  0  0  0  0  0  0  0  0  0
    3.0350    1.8750   18.4200 N   0  0  0  0  0  0  0  0  0  0  0  0
    4.8230    0.9030   17.6840 H   0  0  0  0  0  0  0  0  0  0  0  0
    2.2690    2.0230   17.2120 C   0  0  0  0  0  0  0  0  0  0  0  0
    2.9450    1.9650   16.3570 H   0  0  0  0  0  0  0  0  0  0  0  0
    1.7670    2.9940   17.2150 H   0  0  0  0  0  0  0  0  0  0  0  0
    1.5240    1.2240   17.1750 H   0  0  0  0  0  0  0  0  0  0  0  0
  1 10  1  0  0  0  0
  1 67  1  0  0  0  0
  2  1  2  0  0  0  0
  3  8  2  0  0  0  0
  3  2  1  0  0  0  0
  4  3  1  0  0  0  0
  5  6  2  0  0  0  0
  5  4  1  0  0  0  0
  7  5  1  0  0  0  0
  8  9  1  0  0  0  0
  9 32  1  0  0  0  0
  9 10  2  0  0  0  0
 10 14  1  0  0  0  0
 11  2  1  0  0  0  0
 12  4  1  0  0  0  0
 13  7  1  0  0  0  0
 15 21  1  0  0  0  0
 15  7  1  0  0  0  0
 16 22  1  0  0  0  0
 16 15  1  0  0  0  0
 17 24  1  0  0  0  0
 17 16  1  0  0  0  0
 18 19  1  0  0  0  0
 18 17  1  0  0  0  0
 18 27  1  0  0  0  0
 19 20  1  0  0  0  0
 20 31  1  0  0  0  0
 20 15  1  0  0  0  0
 23 16  1  0  0  0  0
 25 17  1  0  0  0  0
 26 18  1  0  0  0  0
 28 19  1  0  0  0  0
 29 19  1  0  0  0  0
 30 20  1  0  0  0  0
 32 40  1  0  0  0  0
 33 43  1  0  0  0  0
 33 34  1  0  0  0  0
 33 32  1  0  0  0  0
 34 35  1  0  0  0  0
 35 40  1  0  0  0  0
 35 36  2  0  0  0  0
 36 44  1  0  0  0  0
 37 36  1  0  0  0  0
 37 46  1  0  0  0  0
 38 37  2  0  0  0  0
 39 34  2  0  0  0  0
 39 38  1  0  0  0  0
 40 41  2  0  0  0  0
 42 33  1  0  0  0  0
 45 38  1  0  0  0  0
 46 52  1  0  0  0  0
 46 51  1  0  0  0  0
 47 48  1  0  0  0  0
 47 53  1  0  0  0  0
 47 46  1  0  0  0  0
 48 49  1  0  0  0  0
 49 57  1  0  0  0  0
 49 58  1  0  0  0  0
 49 50  1  0  0  0  0
 50 59  1  0  0  0  0
 51 50  1  0  0  0  0
 51 62  1  0  0  0  0
 51 61  1  0  0  0  0
 54 47  1  0  0  0  0
 55 48  1  0  0  0  0
 56 48  1  0  0  0  0
 60 50  1  0  0  0  0
 63 65  1  0  0  0  0
 63 39  1  0  0  0  0
 64 63  1  0  0  0  0
 66 63  1  0  0  0  0
 67 68  1  1  0  0  0
 67 69  1  0  0  0  0
 69 72  1  0  0  0  0
 69 71  1  0  0  0  0
 70 69  1  0  0  0  0
 73 74  1  0  0  0  0
 73 67  1  0  0  0  0
 75 73  1  0  0  0  0
 76 73  1  0  0  0  0
 76 77  2  0  0  0  0
 78 77  1  0  0  0  0
 79 78  2  0  0  0  0
 80 79  1  0  0  0  0
 80 76  1  0  0  0  0
 81 79  1  0  0  0  0
 82 84  1  0  0  0  0
 82 80  1  0  0  0  0
 83 82  1  0  0  0  0
 85 82  1  0  0  0  0
M  END
>  <MODEL>
2

>  <REMARK>
 VINA RESULT:    -9.455      1.281      1.753
 INTER + INTRA:         -10.682
 INTER:                 -10.605
 INTRA:                  -0.078
 UNBOUND:                 3.194
  Name = 
  9 active torsions:
  status: ('A' for Active; 'I' for Inactive)
    1  A    between atoms: C_1  and  C_2
    2  A    between atoms: C_2  and  C_3
    3  A    between atoms: C_2  and  C_10
    4  A    between atoms: C_3  and  C_4
    5  A    between atoms: N_8  and  C_9
    6  A    between atoms: N_16  and  C_17
    7  A    between atoms: C_24  and  N_26
    8  A    between atoms: C_31  and  C_38
    9  A    between atoms: C_33  and  C_34
                            x       y       z     vdW  Elec       q    Type
                         _______ _______ _______ _____ _____    ______ ____

>  <TORSDO>
F 9

$$$$
=
 OpenBabel07192307433D

 85 90  0  0  1  0  0  0  0  0999 V2000
    1.7370   12.4280   18.6820 C   0  0  0  0  0  0  0  0  0  0  0  0
    0.6170   12.5330   19.5180 C   0  0  0  0  0  0  0  0  0  0  0  0
    0.0310   11.3900   20.0400 C   0  0  0  0  0  0  0  0  0  0  0  0
   -1.0690   11.3970   20.9010 N   0  0  0  0  0  0  0  0  0  0  0  0
   -1.8270   12.4600   21.3110 C   0  0  0  0  0  0  0  0  0  0  0  0
   -1.7130   13.6190   20.9360 O   0  0  0  0  0  0  0  0  0  0  0  0
   -2.7560   12.0790   22.2570 N   0  0  0  0  0  0  0  0  0  0  0  0
    0.5050   10.1520   19.7930 N   0  0  0  0  0  0  0  0  0  0  0  0
    1.6060   10.0300   19.0140 C   0  0  0  0  0  0  0  0  0  0  0  0
    2.2330   11.1390   18.4510 C   0  0  0  0  0  0  0  0  0  0  0  0
    0.2250   13.5090   19.7710 H   0  0  0  0  0  0  0  0  0  0  0  0
   -1.3120   10.4750   21.2200 H   0  0  0  0  0  0  0  0  0  0  0  0
   -2.9820   11.0960   22.3130 H   0  0  0  0  0  0  0  0  0  0  0  0
    3.0930   10.9950   17.8100 H   0  0  0  0  0  0  0  0  0  0  0  0
   -3.7430   13.0130   22.7810 C   0  0  0  0  0  0  0  0  0  0  0  0
   -4.0580   14.0920   21.7440 C   0  0  0  0  0  0  0  0  0  0  0  0
   -5.1470   15.0490   22.2300 C   0  0  0  0  0  0  0  0  0  0  0  0
   -5.1470   15.2670   23.7450 C   0  0  0  0  0  0  0  0  0  0  0  0
   -3.7660   15.0490   24.3470 C   0  0  0  0  0  0  0  0  0  0  0  0
   -3.2580   13.6260   24.1070 C   0  0  0  0  0  0  0  0  0  0  0  0
   -4.6640   12.4490   22.9760 H   0  0  0  0  0  0  0  0  0  0  0  0
   -4.3730   13.6350   20.7950 H   0  0  0  0  0  0  0  0  0  0  0  0
   -3.1470   14.6650   21.5170 H   0  0  0  0  0  0  0  0  0  0  0  0
   -6.1330   14.6710   21.9350 H   0  0  0  0  0  0  0  0  0  0  0  0
   -5.0240   16.0090   21.7150 H   0  0  0  0  0  0  0  0  0  0  0  0
   -5.5070   16.2780   23.9700 H   0  0  0  0  0  0  0  0  0  0  0  0
   -5.8580   14.5700   24.2100 H   0  0  0  0  0  0  0  0  0  0  0  0
   -3.0610   15.7610   23.9020 H   0  0  0  0  0  0  0  0  0  0  0  0
   -3.7820   15.2570   25.4220 H   0  0  0  0  0  0  0  0  0  0  0  0
   -2.1630   13.6340   24.1630 H   0  0  0  0  0  0  0  0  0  0  0  0
   -3.5910   12.9780   24.9280 H   0  0  0  0  0  0  0  0  0  0  0  0
    2.0880    8.7230   18.8100 N   0  0  0  0  0  0  0  0  0  0  0  0
    3.0630    8.4690   17.7650 C   0  0  0  0  0  0  0  0  0  0  0  0
    3.3200    7.0010   17.8940 C   0  0  0  0  0  0  0  0  0  0  0  0
    2.5280    6.4790   18.9090 C   0  0  0  0  0  0  0  0  0  0  0  0
    2.5470    5.1390   19.2550 C   0  0  0  0  0  0  0  0  0  0  0  0
    3.4000    4.2710   18.5510 C   0  0  0  0  0  0  0  0  0  0  0  0
    4.2090    4.8070   17.5230 C   0  0  0  0  0  0  0  0  0  0  0  0
    4.1820    6.1780   17.1790 C   0  0  0  0  0  0  0  0  0  0  0  0
    1.7240    7.5660   19.4850 C   0  0  0  0  0  0  0  0  0  0  0  0
    0.8980    7.3730   20.3580 O   0  0  0  0  0  0  0  0  0  0  0  0
    3.9710    9.0490   17.9550 H   0  0  0  0  0  0  0  0  0  0  0  0
    2.6290    8.7020   16.7890 H   0  0  0  0  0  0  0  0  0  0  0  0
    1.9040    4.7880   20.0600 H   0  0  0  0  0  0  0  0  0  0  0  0
    4.8830    4.1560   16.9710 H   0  0  0  0  0  0  0  0  0  0  0  0
    3.4140    2.7940   18.9350 C   0  0  0  0  0  0  0  0  0  0  0  0
    4.0320    2.5170   20.3170 C   0  0  0  0  0  0  0  0  0  0  0  0
    3.0540    2.5670   21.4900 C   0  0  0  0  0  0  0  0  0  0  0  0
    1.8000    1.7470   21.2190 C   0  0  0  0  0  0  0  0  0  0  0  0
    1.1130    2.1720   19.9270 C   0  0  0  0  0  0  0  0  0  0  0  0
    2.0580    2.0960   18.7330 C   0  0  0  0  0  0  0  0  0  0  0  0
    4.0970    2.3150   18.2170 H   0  0  0  0  0  0  0  0  0  0  0  0
    4.4620    1.5070   20.2940 H   0  0  0  0  0  0  0  0  0  0  0  0
    4.8730    3.1940   20.5130 H   0  0  0  0  0  0  0  0  0  0  0  0
    2.7810    3.6020   21.7130 H   0  0  0  0  0  0  0  0  0  0  0  0
    3.5530    2.1840   22.3900 H   0  0  0  0  0  0  0  0  0  0  0  0
    1.1040    1.8530   22.0590 H   0  0  0  0  0  0  0  0  0  0  0  0
    2.0650    0.6850   21.1590 H   0  0  0  0  0  0  0  0  0  0  0  0
    0.2510    1.5200   19.7450 H   0  0  0  0  0  0  0  0  0  0  0  0
    0.7110    3.1840   20.0340 H   0  0  0  0  0  0  0  0  0  0  0  0
    2.2560    1.0320   18.5390 H   0  0  0  0  0  0  0  0  0  0  0  0
    1.5530    2.4830   17.8380 H   0  0  0  0  0  0  0  0  0  0  0  0
    5.0540    6.7330   16.0860 C   0  0  0  0  0  0  0  0  0  0  0  0
    4.3360    7.4070   15.1450 F   0  0  0  0  0  0  0  0  0  0  0  0
    5.9740    7.6210   16.5550 F   0  0  0  0  0  0  0  0  0  0  0  0
    5.7590    5.7860   15.4100 F   0  0  0  0  0  0  0  0  0  0  0  0
    2.4070   13.6930   18.1390 C   0  0  2  0  0  0  0  0  0  0  0  0
    1.8790   13.8910   17.1920 H   0  0  0  0  0  0  0  0  0  0  0  0
    3.8880   13.4780   17.7720 C   0  0  0  0  0  0  0  0  0  0  0  0
    4.3810   12.8160   18.4940 H   0  0  0  0  0  0  0  0  0  0  0  0
    3.9940   13.0360   16.7740 H   0  0  0  0  0  0  0  0  0  0  0  0
    4.4490   14.4170   17.7770 H   0  0  0  0  0  0  0  0  0  0  0  0
    2.2500   15.0020   18.9590 C   0  0  0  0  0  0  0  0  0  0  0  0
    2.5020   15.8380   18.2930 H   0  0  0  0  0  0  0  0  0  0  0  0
    1.2040   15.1710   19.2360 H   0  0  0  0  0  0  0  0  0  0  0  0
    3.1040   15.0690   20.1840 C   0  0  0  0  0  0  0  0  0  0  0  0
    4.4220   15.0710   20.2270 N   0  0  0  0  0  0  0  0  0  0  0  0
    4.8130   15.1570   21.5410 N   0  0  0  0  0  0  0  0  0  0  0  0
    3.7270   15.2000   22.2760 C   0  0  0  0  0  0  0  0  0  0  0  0
    2.6330   15.1390   21.4710 N   0  0  0  0  0  0  0  0  0  0  0  0
    3.6920   15.2710   23.3540 H   0  0  0  0  0  0  0  0  0  0  0  0
    1.2630   15.1450   21.9090 C   0  0  0  0  0  0  0  0  0  0  0  0
    1.1270   15.9590   22.6250 H   0  0  0  0  0  0  0  0  0  0  0  0
    1.0290   14.1920   22.3910 H   0  0  0  0  0  0  0  0  0  0  0  0
    0.6220   15.2840   21.0350 H   0  0  0  0  0  0  0  0  0  0  0  0
  1  2  1  0  0  0  0
  2 11  1  0  0  0  0
  2  3  2  0  0  0  0
  3  4  1  0  0  0  0
  4 12  1  0  0  0  0
  4  5  1  0  0  0  0
  5  7  1  0  0  0  0
  6  5  2  0  0  0  0
  7 13  1  0  0  0  0
  7 15  1  0  0  0  0
  8  3  1  0  0  0  0
  9  8  2  0  0  0  0
 10  1  2  0  0  0  0
 10  9  1  0  0  0  0
 14 10  1  0  0  0  0
 15 21  1  0  0  0  0
 15 20  1  0  0  0  0
 16 17  1  0  0  0  0
 16 15  1  0  0  0  0
 17 18  1  0  0  0  0
 18 26  1  0  0  0  0
 18 27  1  0  0  0  0
 18 19  1  0  0  0  0
 19 29  1  0  0  0  0
 20 30  1  0  0  0  0
 20 19  1  0  0  0  0
 20 31  1  0  0  0  0
 22 16  1  0  0  0  0
 23 16  1  0  0  0  0
 24 17  1  0  0  0  0
 25 17  1  0  0  0  0
 28 19  1  0  0  0  0
 32  9  1  0  0  0  0
 32 40  1  0  0  0  0
 33 34  1  0  0  0  0
 33 42  1  0  0  0  0
 33 32  1  0  0  0  0
 34 35  1  0  0  0  0
 35 36  2  0  0  0  0
 35 40  1  0  0  0  0
 36 44  1  0  0  0  0
 37 46  1  0  0  0  0
 37 36  1  0  0  0  0
 38 37  2  0  0  0  0
 39 38  1  0  0  0  0
 39 34  2  0  0  0  0
 40 41  2  0  0  0  0
 43 33  1  0  0  0  0
 45 38  1  0  0  0  0
 46 47  1  0  0  0  0
 47 54  1  0  0  0  0
 47 48  1  0  0  0  0
 48 55  1  0  0  0  0
 48 56  1  0  0  0  0
 49 48  1  0  0  0  0
 49 57  1  0  0  0  0
 50 60  1  0  0  0  0
 50 49  1  0  0  0  0
 51 46  1  0  0  0  0
 51 50  1  0  0  0  0
 52 46  1  0  0  0  0
 53 47  1  0  0  0  0
 58 49  1  0  0  0  0
 59 50  1  0  0  0  0
 61 51  1  0  0  0  0
 62 51  1  0  0  0  0
 63 65  1  0  0  0  0
 63 39  1  0  0  0  0
 64 63  1  0  0  0  0
 66 63  1  0  0  0  0
 67 68  1  6  0  0  0
 67  1  1  0  0  0  0
 67 73  1  0  0  0  0
 69 72  1  0  0  0  0
 69 67  1  0  0  0  0
 69 70  1  0  0  0  0
 71 69  1  0  0  0  0
 73 75  1  0  0  0  0
 73 76  1  0  0  0  0
 74 73  1  0  0  0  0
 76 77  2  0  0  0  0
 76 80  1  0  0  0  0
 77 78  1  0  0  0  0
 78 79  2  0  0  0  0
 79 81  1  0  0  0  0
 80 82  1  0  0  0  0
 80 79  1  0  0  0  0
 82 84  1  0  0  0  0
 82 83  1  0  0  0  0
 85 82  1  0  0  0  0
M  END
>  <MODEL>
3

>  <REMARK>
 VINA RESULT:    -9.245      3.537     11.161
 INTER + INTRA:         -10.375
 INTER:                 -10.317
 INTRA:                  -0.058
 UNBOUND:                 3.194
  Name = 
  9 active torsions:
  status: ('A' for Active; 'I' for Inactive)
    1  A    between atoms: C_1  and  C_2
    2  A    between atoms: C_2  and  C_3
    3  A    between atoms: C_2  and  C_10
    4  A    between atoms: C_3  and  C_4
    5  A    between atoms: N_8  and  C_9
    6  A    between atoms: N_16  and  C_17
    7  A    between atoms: C_24  and  N_26
    8  A    between atoms: C_31  and  C_38
    9  A    between atoms: C_33  and  C_34
                            x       y       z     vdW  Elec       q    Type
                         _______ _______ _______ _____ _____    ______ ____

>  <TORSDO>
F 9

$$$$
=
 OpenBabel07192307433D

 85 90  0  0  1  0  0  0  0  0999 V2000
    1.9250    5.3500   20.3840 C   0  0  0  0  0  0  0  0  0  0  0  0
    2.7830    5.3230   19.2760 C   0  0  0  0  0  0  0  0  0  0  0  0
    2.9510    6.4590   18.5000 C   0  0  0  0  0  0  0  0  0  0  0  0
    3.8020    6.5330   17.3950 N   0  0  0  0  0  0  0  0  0  0  0  0
    4.5320    5.5360   16.8100 C   0  0  0  0  0  0  0  0  0  0  0  0
    4.5220    4.3520   17.1190 O   0  0  0  0  0  0  0  0  0  0  0  0
    5.3430    6.0280   15.8070 N   0  0  0  0  0  0  0  0  0  0  0  0
    2.3290    7.6240   18.7720 N   0  0  0  0  0  0  0  0  0  0  0  0
    1.5210    7.6830   19.8580 C   0  0  0  0  0  0  0  0  0  0  0  0
    1.3030    6.5720   20.6700 C   0  0  0  0  0  0  0  0  0  0  0  0
    3.3280    4.4180   19.0420 H   0  0  0  0  0  0  0  0  0  0  0  0
    3.8340    7.4560   16.9970 H   0  0  0  0  0  0  0  0  0  0  0  0
    5.1060    6.9320   15.4240 H   0  0  0  0  0  0  0  0  0  0  0  0
    0.6260    6.6550   21.5110 H   0  0  0  0  0  0  0  0  0  0  0  0
    6.1500    5.1480   14.9730 C   0  0  0  0  0  0  0  0  0  0  0  0
    7.0170    5.9680   14.0160 C   0  0  0  0  0  0  0  0  0  0  0  0
    7.9340    5.0790   13.1750 C   0  0  0  0  0  0  0  0  0  0  0  0
    7.3410    3.7050   12.8570 C   0  0  0  0  0  0  0  0  0  0  0  0
    5.8190    3.7330   12.8550 C   0  0  0  0  0  0  0  0  0  0  0  0
    5.2560    4.1510   14.2150 C   0  0  0  0  0  0  0  0  0  0  0  0
    6.8170    4.5810   15.6360 H   0  0  0  0  0  0  0  0  0  0  0  0
    7.6250    6.6940   14.5730 H   0  0  0  0  0  0  0  0  0  0  0  0
    6.3740    6.5590   13.3480 H   0  0  0  0  0  0  0  0  0  0  0  0
    8.8890    4.9320   13.6960 H   0  0  0  0  0  0  0  0  0  0  0  0
    8.1740    5.6060   12.2450 H   0  0  0  0  0  0  0  0  0  0  0  0
    7.7180    3.3580   11.8880 H   0  0  0  0  0  0  0  0  0  0  0  0
    7.6880    2.9790   13.6060 H   0  0  0  0  0  0  0  0  0  0  0  0
    5.4710    4.4380   12.0910 H   0  0  0  0  0  0  0  0  0  0  0  0
    5.4200    2.7510   12.5790 H   0  0  0  0  0  0  0  0  0  0  0  0
    4.2490    4.5570   14.0630 H   0  0  0  0  0  0  0  0  0  0  0  0
    5.1230    3.2610   14.8430 H   0  0  0  0  0  0  0  0  0  0  0  0
    0.9210    8.9270   20.1260 N   0  0  0  0  0  0  0  0  0  0  0  0
    0.1650    9.6020   19.0860 C   0  0  0  0  0  0  0  0  0  0  0  0
   -0.3100   10.8450   19.7690 C   0  0  0  0  0  0  0  0  0  0  0  0
    0.1690   10.8720   21.0720 C   0  0  0  0  0  0  0  0  0  0  0  0
   -0.1040   11.9090   21.9470 C   0  0  0  0  0  0  0  0  0  0  0  0
   -0.8980   12.9790   21.4980 C   0  0  0  0  0  0  0  0  0  0  0  0
   -1.3880   12.9460   20.1730 C   0  0  0  0  0  0  0  0  0  0  0  0
   -1.1040   11.8810   19.2890 C   0  0  0  0  0  0  0  0  0  0  0  0
    0.9730    9.6620   21.3020 C   0  0  0  0  0  0  0  0  0  0  0  0
    1.5600    9.4600   22.3490 O   0  0  0  0  0  0  0  0  0  0  0  0
   -0.6750    8.9750   18.7720 H   0  0  0  0  0  0  0  0  0  0  0  0
    0.8240    9.8470   18.2480 H   0  0  0  0  0  0  0  0  0  0  0  0
    0.2990   11.8730   22.9570 H   0  0  0  0  0  0  0  0  0  0  0  0
   -2.0120   13.7590   19.8070 H   0  0  0  0  0  0  0  0  0  0  0  0
   -1.1940   14.1210   22.4660 C   0  0  0  0  0  0  0  0  0  0  0  0
   -2.0590   15.2410   21.8590 C   0  0  0  0  0  0  0  0  0  0  0  0
   -3.5680   15.0460   22.0020 C   0  0  0  0  0  0  0  0  0  0  0  0
   -3.9630   14.6890   23.4280 C   0  0  0  0  0  0  0  0  0  0  0  0
   -3.2130   13.4640   23.9340 C   0  0  0  0  0  0  0  0  0  0  0  0
   -1.7020   13.6460   23.8380 C   0  0  0  0  0  0  0  0  0  0  0  0
   -0.2190   14.5920   22.6660 H   0  0  0  0  0  0  0  0  0  0  0  0
   -1.8010   16.1760   22.3730 H   0  0  0  0  0  0  0  0  0  0  0  0
   -1.8090   15.4000   20.8040 H   0  0  0  0  0  0  0  0  0  0  0  0
   -3.9180   14.2720   21.3140 H   0  0  0  0  0  0  0  0  0  0  0  0
   -4.0780   15.9710   21.7020 H   0  0  0  0  0  0  0  0  0  0  0  0
   -5.0430   14.5070   23.4740 H   0  0  0  0  0  0  0  0  0  0  0  0
   -3.7570   15.5410   24.0880 H   0  0  0  0  0  0  0  0  0  0  0  0
   -3.4870   13.2790   24.9800 H   0  0  0  0  0  0  0  0  0  0  0  0
   -3.5290   12.5770   23.3760 H   0  0  0  0  0  0  0  0  0  0  0  0
   -1.4160   14.4030   24.5810 H   0  0  0  0  0  0  0  0  0  0  0  0
   -1.2000   12.7160   24.1360 H   0  0  0  0  0  0  0  0  0  0  0  0
   -1.6400   11.8580   17.8830 C   0  0  0  0  0  0  0  0  0  0  0  0
   -2.9810   12.0920   17.8380 F   0  0  0  0  0  0  0  0  0  0  0  0
   -1.0710   12.8110   17.0950 F   0  0  0  0  0  0  0  0  0  0  0  0
   -1.4460   10.6750   17.2400 F   0  0  0  0  0  0  0  0  0  0  0  0
    1.7710    4.1070   21.2640 C   0  0  2  0  0  0  0  0  0  0  0  0
    0.9880    4.3850   21.9870 H   0  0  0  0  0  0  0  0  0  0  0  0
    3.0330    3.7960   22.0920 C   0  0  0  0  0  0  0  0  0  0  0  0
    2.8230    3.8510   23.1670 H   0  0  0  0  0  0  0  0  0  0  0  0
    3.4230    2.7970   21.8680 H   0  0  0  0  0  0  0  0  0  0  0  0
    3.8350    4.5140   21.8950 H   0  0  0  0  0  0  0  0  0  0  0  0
    1.2450    2.8090   20.5940 C   0  0  0  0  0  0  0  0  0  0  0  0
    1.3230    2.0030   21.3340 H   0  0  0  0  0  0  0  0  0  0  0  0
    0.1740    2.8840   20.3740 H   0  0  0  0  0  0  0  0  0  0  0  0
    1.9780    2.4160   19.3510 C   0  0  0  0  0  0  0  0  0  0  0  0
    1.5140    2.4520   18.1180 N   0  0  0  0  0  0  0  0  0  0  0  0
    2.5050    2.0230   17.2690 N   0  0  0  0  0  0  0  0  0  0  0  0
    3.5530    1.7280   18.0000 C   0  0  0  0  0  0  0  0  0  0  0  0
    3.2680    1.9490   19.3110 N   0  0  0  0  0  0  0  0  0  0  0  0
    4.5030    1.3620   17.6330 H   0  0  0  0  0  0  0  0  0  0  0  0
    4.1610    1.7280   20.4170 C   0  0  0  0  0  0  0  0  0  0  0  0
    3.6480    1.1200   21.1650 H   0  0  0  0  0  0  0  0  0  0  0  0
    4.4420    2.6890   20.8560 H   0  0  0  0  0  0  0  0  0  0  0  0
    5.0530    1.2180   20.0440 H   0  0  0  0  0  0  0  0  0  0  0  0
  1 10  1  0  0  0  0
  1 67  1  0  0  0  0
  2  1  2  0  0  0  0
  3  8  2  0  0  0  0
  3  2  1  0  0  0  0
  4  3  1  0  0  0  0
  5  6  2  0  0  0  0
  5  4  1  0  0  0  0
  7  5  1  0  0  0  0
  8  9  1  0  0  0  0
  9 32  1  0  0  0  0
  9 10  2  0  0  0  0
 10 14  1  0  0  0  0
 11  2  1  0  0  0  0
 12  4  1  0  0  0  0
 13  7  1  0  0  0  0
 15 21  1  0  0  0  0
 15  7  1  0  0  0  0
 16 22  1  0  0  0  0
 16 15  1  0  0  0  0
 17 24  1  0  0  0  0
 17 16  1  0  0  0  0
 18 17  1  0  0  0  0
 18 27  1  0  0  0  0
 19 18  1  0  0  0  0
 19 20  1  0  0  0  0
 20 31  1  0  0  0  0
 20 15  1  0  0  0  0
 23 16  1  0  0  0  0
 25 17  1  0  0  0  0
 26 18  1  0  0  0  0
 28 19  1  0  0  0  0
 29 19  1  0  0  0  0
 30 20  1  0  0  0  0
 32 40  1  0  0  0  0
 33 34  1  0  0  0  0
 33 32  1  0  0  0  0
 34 35  1  0  0  0  0
 35 40  1  0  0  0  0
 35 36  2  0  0  0  0
 36 44  1  0  0  0  0
 37 36  1  0  0  0  0
 37 46  1  0  0  0  0
 38 37  2  0  0  0  0
 39 34  2  0  0  0  0
 39 38  1  0  0  0  0
 40 41  2  0  0  0  0
 42 33  1  0  0  0  0
 43 33  1  0  0  0  0
 45 38  1  0  0  0  0
 46 52  1  0  0  0  0
 46 51  1  0  0  0  0
 47 48  1  0  0  0  0
 47 53  1  0  0  0  0
 47 46  1  0  0  0  0
 48 49  1  0  0  0  0
 49 57  1  0  0  0  0
 49 50  1  0  0  0  0
 49 58  1  0  0  0  0
 50 59  1  0  0  0  0
 51 50  1  0  0  0  0
 51 62  1  0  0  0  0
 51 61  1  0  0  0  0
 54 47  1  0  0  0  0
 55 48  1  0  0  0  0
 56 48  1  0  0  0  0
 60 50  1  0  0  0  0
 63 39  1  0  0  0  0
 64 63  1  0  0  0  0
 65 63  1  0  0  0  0
 66 63  1  0  0  0  0
 67 68  1  1  0  0  0
 67 69  1  0  0  0  0
 69 70  1  0  0  0  0
 71 69  1  0  0  0  0
 72 69  1  0  0  0  0
 73 67  1  0  0  0  0
 73 74  1  0  0  0  0
 75 73  1  0  0  0  0
 76 73  1  0  0  0  0
 77 76  2  0  0  0  0
 78 79  2  0  0  0  0
 78 77  1  0  0  0  0
 79 80  1  0  0  0  0
 80 76  1  0  0  0  0
 80 82  1  0  0  0  0
 81 79  1  0  0  0  0
 82 84  1  0  0  0  0
 82 83  1  0  0  0  0
 85 82  1  0  0  0  0
M  END
>  <MODEL>
4

>  <REMARK>
 VINA RESULT:    -9.004      1.186      1.729
 INTER + INTRA:         -10.021
 INTER:                 -10.659
 INTRA:                   0.638
 UNBOUND:                 3.194
  Name = 
  9 active torsions:
  status: ('A' for Active; 'I' for Inactive)
    1  A    between atoms: C_1  and  C_2
    2  A    between atoms: C_2  and  C_3
    3  A    between atoms: C_2  and  C_10
    4  A    between atoms: C_3  and  C_4
    5  A    between atoms: N_8  and  C_9
    6  A    between atoms: N_16  and  C_17
    7  A    between atoms: C_24  and  N_26
    8  A    between atoms: C_31  and  C_38
    9  A    between atoms: C_33  and  C_34
                            x       y       z     vdW  Elec       q    Type
                         _______ _______ _______ _____ _____    ______ ____

>  <TORSDO>
F 9

$$$$
=
 OpenBabel07192307433D

 85 90  0  0  1  0  0  0  0  0999 V2000
    2.3320   12.5820   18.5330 C   0  0  0  0  0  0  0  0  0  0  0  0
    1.2510   12.7830   19.4040 C   0  0  0  0  0  0  0  0  0  0  0  0
    0.5760   11.6940   19.9340 C   0  0  0  0  0  0  0  0  0  0  0  0
   -0.4930   11.7950   20.8270 N   0  0  0  0  0  0  0  0  0  0  0  0
   -1.1350   12.9190   21.2670 C   0  0  0  0  0  0  0  0  0  0  0  0
   -0.9240   14.0670   20.8980 O   0  0  0  0  0  0  0  0  0  0  0  0
   -2.0690   12.6170   22.2380 N   0  0  0  0  0  0  0  0  0  0  0  0
    0.9250   10.4200   19.6620 N   0  0  0  0  0  0  0  0  0  0  0  0
    1.9860   10.2030   18.8500 C   0  0  0  0  0  0  0  0  0  0  0  0
    2.6980   11.2550   18.2770 C   0  0  0  0  0  0  0  0  0  0  0  0
    0.9600   13.7880   19.6760 H   0  0  0  0  0  0  0  0  0  0  0  0
   -0.8120   10.8960   21.1450 H   0  0  0  0  0  0  0  0  0  0  0  0
   -2.3840   11.6590   22.2930 H   0  0  0  0  0  0  0  0  0  0  0  0
    3.5220   11.0370   17.6100 H   0  0  0  0  0  0  0  0  0  0  0  0
   -2.9480   13.6340   22.7980 C   0  0  0  0  0  0  0  0  0  0  0  0
   -2.3930   14.1430   24.1290 C   0  0  0  0  0  0  0  0  0  0  0  0
   -3.2510   15.2670   24.7120 C   0  0  0  0  0  0  0  0  0  0  0  0
   -4.7380   15.1480   24.3740 C   0  0  0  0  0  0  0  0  0  0  0  0
   -5.1470   13.7030   24.1240 C   0  0  0  0  0  0  0  0  0  0  0  0
   -4.3790   13.0890   22.9520 C   0  0  0  0  0  0  0  0  0  0  0  0
   -2.9720   14.4770   22.0950 H   0  0  0  0  0  0  0  0  0  0  0  0
   -1.3610   14.5000   24.0060 H   0  0  0  0  0  0  0  0  0  0  0  0
   -2.3430   13.3150   24.8510 H   0  0  0  0  0  0  0  0  0  0  0  0
   -2.8900   16.2370   24.3470 H   0  0  0  0  0  0  0  0  0  0  0  0
   -3.1150   15.2820   25.8000 H   0  0  0  0  0  0  0  0  0  0  0  0
   -5.3350   15.5790   25.1870 H   0  0  0  0  0  0  0  0  0  0  0  0
   -4.9540   15.7450   23.4770 H   0  0  0  0  0  0  0  0  0  0  0  0
   -4.9560   13.1120   25.0280 H   0  0  0  0  0  0  0  0  0  0  0  0
   -6.2240   13.6390   23.9310 H   0  0  0  0  0  0  0  0  0  0  0  0
   -4.3770   11.9990   23.0710 H   0  0  0  0  0  0  0  0  0  0  0  0
   -4.9230   13.2820   22.0190 H   0  0  0  0  0  0  0  0  0  0  0  0
    2.3370    8.8590   18.6220 N   0  0  0  0  0  0  0  0  0  0  0  0
    3.2980    8.5310   17.5840 C   0  0  0  0  0  0  0  0  0  0  0  0
    3.4040    7.0420   17.6820 C   0  0  0  0  0  0  0  0  0  0  0  0
    2.5470    6.5800   18.6730 C   0  0  0  0  0  0  0  0  0  0  0  0
    2.4250    5.2380   18.9870 C   0  0  0  0  0  0  0  0  0  0  0  0
    3.1980    4.3050   18.2750 C   0  0  0  0  0  0  0  0  0  0  0  0
    4.0720    4.7790   17.2700 C   0  0  0  0  0  0  0  0  0  0  0  0
    4.1900    6.1520   16.9590 C   0  0  0  0  0  0  0  0  0  0  0  0
    1.8480    7.7300   19.2640 C   0  0  0  0  0  0  0  0  0  0  0  0
    0.9930    7.6020   20.1210 O   0  0  0  0  0  0  0  0  0  0  0  0
    4.2570    9.0130   17.8000 H   0  0  0  0  0  0  0  0  0  0  0  0
    2.9050    8.8290   16.6080 H   0  0  0  0  0  0  0  0  0  0  0  0
    1.7380    4.9360   19.7750 H   0  0  0  0  0  0  0  0  0  0  0  0
    4.6860    4.0760   16.7120 H   0  0  0  0  0  0  0  0  0  0  0  0
    3.0570    2.8250   18.6230 C   0  0  0  0  0  0  0  0  0  0  0  0
    3.9670    2.3700   19.7790 C   0  0  0  0  0  0  0  0  0  0  0  0
    3.3640    2.5120   21.1760 C   0  0  0  0  0  0  0  0  0  0  0  0
    1.9600    1.9270   21.2510 C   0  0  0  0  0  0  0  0  0  0  0  0
    1.0360    2.5330   20.2030 C   0  0  0  0  0  0  0  0  0  0  0  0
    1.5970    2.3730   18.7940 C   0  0  0  0  0  0  0  0  0  0  0  0
    3.4260    2.2830   17.7400 H   0  0  0  0  0  0  0  0  0  0  0  0
    4.1910    1.3060   19.6270 H   0  0  0  0  0  0  0  0  0  0  0  0
    4.9330    2.8870   19.7430 H   0  0  0  0  0  0  0  0  0  0  0  0
    3.3460    3.5630   21.4770 H   0  0  0  0  0  0  0  0  0  0  0  0
    4.0120    2.0000   21.8990 H   0  0  0  0  0  0  0  0  0  0  0  0
    1.5460    2.0970   22.2520 H   0  0  0  0  0  0  0  0  0  0  0  0
    2.0100    0.8410   21.1090 H   0  0  0  0  0  0  0  0  0  0  0  0
    0.0560    2.0440   20.2590 H   0  0  0  0  0  0  0  0  0  0  0  0
    0.8600    3.5900   20.4280 H   0  0  0  0  0  0  0  0  0  0  0  0
    1.5460    1.3050   18.5420 H   0  0  0  0  0  0  0  0  0  0  0  0
    0.9450    2.8890   18.0770 H   0  0  0  0  0  0  0  0  0  0  0  0
    5.1300    6.6410   15.8910 C   0  0  0  0  0  0  0  0  0  0  0  0
    6.1430    7.3960   16.4010 F   0  0  0  0  0  0  0  0  0  0  0  0
    5.7310    5.6200   15.2210 F   0  0  0  0  0  0  0  0  0  0  0  0
    4.5320    7.4130   14.9420 F   0  0  0  0  0  0  0  0  0  0  0  0
    3.1020   13.7840   17.9800 C   0  0  2  0  0  0  0  0  0  0  0  0
    2.5070   14.1070   17.1110 H   0  0  0  0  0  0  0  0  0  0  0  0
    4.4940   13.4080   17.4370 C   0  0  0  0  0  0  0  0  0  0  0  0
    4.4440   12.5050   16.8170 H   0  0  0  0  0  0  0  0  0  0  0  0
    4.9200   14.2170   16.8340 H   0  0  0  0  0  0  0  0  0  0  0  0
    5.2000   13.1920   18.2450 H   0  0  0  0  0  0  0  0  0  0  0  0
    3.2070   15.0480   18.8760 C   0  0  0  0  0  0  0  0  0  0  0  0
    3.7470   15.8120   18.3020 H   0  0  0  0  0  0  0  0  0  0  0  0
    2.2190   15.4840   19.0610 H   0  0  0  0  0  0  0  0  0  0  0  0
    3.9020   14.8230   20.1810 C   0  0  0  0  0  0  0  0  0  0  0  0
    3.3380   14.5010   21.3280 N   0  0  0  0  0  0  0  0  0  0  0  0
    4.3230   14.3740   22.2760 N   0  0  0  0  0  0  0  0  0  0  0  0
    5.4700   14.6270   21.6910 C   0  0  0  0  0  0  0  0  0  0  0  0
    5.2560   14.9220   20.3810 N   0  0  0  0  0  0  0  0  0  0  0  0
    6.4430   14.6090   22.1640 H   0  0  0  0  0  0  0  0  0  0  0  0
    6.2660   15.2670   19.4180 C   0  0  0  0  0  0  0  0  0  0  0  0
    6.1600   14.6150   18.5480 H   0  0  0  0  0  0  0  0  0  0  0  0
    7.2560   15.1270   19.8610 H   0  0  0  0  0  0  0  0  0  0  0  0
    6.1330   16.3150   19.1380 H   0  0  0  0  0  0  0  0  0  0  0  0
  1  2  1  0  0  0  0
  2 11  1  0  0  0  0
  2  3  2  0  0  0  0
  3  4  1  0  0  0  0
  4 12  1  0  0  0  0
  4  5  1  0  0  0  0
  5  7  1  0  0  0  0
  6  5  2  0  0  0  0
  7 13  1  0  0  0  0
  7 15  1  0  0  0  0
  8  3  1  0  0  0  0
  9  8  2  0  0  0  0
 10  1  2  0  0  0  0
 10  9  1  0  0  0  0
 14 10  1  0  0  0  0
 15 20  1  0  0  0  0
 15 16  1  0  0  0  0
 16 17  1  0  0  0  0
 16 23  1  0  0  0  0
 17 25  1  0  0  0  0
 18 17  1  0  0  0  0
 18 26  1  0  0  0  0
 19 18  1  0  0  0  0
 19 28  1  0  0  0  0
 20 30  1  0  0  0  0
 20 19  1  0  0  0  0
 21 15  1  0  0  0  0
 22 16  1  0  0  0  0
 24 17  1  0  0  0  0
 27 18  1  0  0  0  0
 29 19  1  0  0  0  0
 31 20  1  0  0  0  0
 32  9  1  0  0  0  0
 32 40  1  0  0  0  0
 33 34  1  0  0  0  0
 33 42  1  0  0  0  0
 33 32  1  0  0  0  0
 34 35  1  0  0  0  0
 35 36  2  0  0  0  0
 35 40  1  0  0  0  0
 36 44  1  0  0  0  0
 37 46  1  0  0  0  0
 37 36  1  0  0  0  0
 38 37  2  0  0  0  0
 39 38  1  0  0  0  0
 39 34  2  0  0  0  0
 40 41  2  0  0  0  0
 43 33  1  0  0  0  0
 45 38  1  0  0  0  0
 46 51  1  0  0  0  0
 46 47  1  0  0  0  0
 47 48  1  0  0  0  0
 48 49  1  0  0  0  0
 48 55  1  0  0  0  0
 48 56  1  0  0  0  0
 49 57  1  0  0  0  0
 50 59  1  0  0  0  0
 50 60  1  0  0  0  0
 50 49  1  0  0  0  0
 51 50  1  0  0  0  0
 52 46  1  0  0  0  0
 53 47  1  0  0  0  0
 54 47  1  0  0  0  0
 58 49  1  0  0  0  0
 61 51  1  0  0  0  0
 62 51  1  0  0  0  0
 63 64  1  0  0  0  0
 63 39  1  0  0  0  0
 65 63  1  0  0  0  0
 66 63  1  0  0  0  0
 67 68  1  6  0  0  0
 67  1  1  0  0  0  0
 67 73  1  0  0  0  0
 69 67  1  0  0  0  0
 69 72  1  0  0  0  0
 70 69  1  0  0  0  0
 71 69  1  0  0  0  0
 73 75  1  0  0  0  0
 73 76  1  0  0  0  0
 74 73  1  0  0  0  0
 76 80  1  0  0  0  0
 76 77  2  0  0  0  0
 77 78  1  0  0  0  0
 79 81  1  0  0  0  0
 79 78  2  0  0  0  0
 80 79  1  0  0  0  0
 82 84  1  0  0  0  0
 82 80  1  0  0  0  0
 83 82  1  0  0  0  0
 85 82  1  0  0  0  0
M  END
>  <MODEL>
5

>  <REMARK>
 VINA RESULT:    -8.866      3.789     11.187
 INTER + INTRA:          -9.818
 INTER:                  -8.999
 INTRA:                  -0.819
 UNBOUND:                 3.194
  Name = 
  9 active torsions:
  status: ('A' for Active; 'I' for Inactive)
    1  A    between atoms: C_1  and  C_2
    2  A    between atoms: C_2  and  C_3
    3  A    between atoms: C_2  and  C_10
    4  A    between atoms: C_3  and  C_4
    5  A    between atoms: N_8  and  C_9
    6  A    between atoms: N_16  and  C_17
    7  A    between atoms: C_24  and  N_26
    8  A    between atoms: C_31  and  C_38
    9  A    between atoms: C_33  and  C_34
                            x       y       z     vdW  Elec       q    Type
                         _______ _______ _______ _____ _____    ______ ____

>  <TORSDO>
F 9

$$$$
=
 OpenBabel07192307433D

 85 90  0  0  1  0  0  0  0  0999 V2000
    1.4630   12.5490   18.7220 C   0  0  0  0  0  0  0  0  0  0  0  0
    0.4580   12.6280   19.6960 C   0  0  0  0  0  0  0  0  0  0  0  0
   -0.0040   11.4750   20.3110 C   0  0  0  0  0  0  0  0  0  0  0  0
   -0.9830   11.4570   21.3070 N   0  0  0  0  0  0  0  0  0  0  0  0
   -1.7280   12.4960   21.7920 C   0  0  0  0  0  0  0  0  0  0  0  0
   -1.7160   13.6500   21.3840 O   0  0  0  0  0  0  0  0  0  0  0  0
   -2.5100   12.1010   22.8580 N   0  0  0  0  0  0  0  0  0  0  0  0
    0.4890   10.2520   20.0270 N   0  0  0  0  0  0  0  0  0  0  0  0
    1.4840   10.1560   19.1140 C   0  0  0  0  0  0  0  0  0  0  0  0
    1.9830   11.2770   18.4530 C   0  0  0  0  0  0  0  0  0  0  0  0
    0.0590   13.5930   19.9790 H   0  0  0  0  0  0  0  0  0  0  0  0
   -1.1410   10.5340   21.6730 H   0  0  0  0  0  0  0  0  0  0  0  0
   -2.6820   11.1110   22.9620 H   0  0  0  0  0  0  0  0  0  0  0  0
    2.7580   11.1530   17.7090 H   0  0  0  0  0  0  0  0  0  0  0  0
   -3.4610   13.0050   23.4880 C   0  0  0  0  0  0  0  0  0  0  0  0
   -4.0860   13.9320   22.4440 C   0  0  0  0  0  0  0  0  0  0  0  0
   -5.1460   14.8480   23.0580 C   0  0  0  0  0  0  0  0  0  0  0  0
   -4.8650   15.2330   24.5110 C   0  0  0  0  0  0  0  0  0  0  0  0
   -3.3760   15.1960   24.8280 C   0  0  0  0  0  0  0  0  0  0  0  0
   -2.7850   13.8010   24.6200 C   0  0  0  0  0  0  0  0  0  0  0  0
   -4.2620   12.3950   23.9250 H   0  0  0  0  0  0  0  0  0  0  0  0
   -4.5360   13.3480   21.6300 H   0  0  0  0  0  0  0  0  0  0  0  0
   -3.3020   14.5480   21.9790 H   0  0  0  0  0  0  0  0  0  0  0  0
   -6.1290   14.3600   23.0130 H   0  0  0  0  0  0  0  0  0  0  0  0
   -5.2280   15.7510   22.4410 H   0  0  0  0  0  0  0  0  0  0  0  0
   -5.2730   16.2310   24.7120 H   0  0  0  0  0  0  0  0  0  0  0  0
   -5.3930   14.5380   25.1790 H   0  0  0  0  0  0  0  0  0  0  0  0
   -2.8510   15.9080   24.1790 H   0  0  0  0  0  0  0  0  0  0  0  0
   -3.1970   15.5210   25.8580 H   0  0  0  0  0  0  0  0  0  0  0  0
   -1.7070   13.9020   24.4440 H   0  0  0  0  0  0  0  0  0  0  0  0
   -2.8780   13.2230   25.5490 H   0  0  0  0  0  0  0  0  0  0  0  0
    1.9940    8.8660   18.8740 N   0  0  0  0  0  0  0  0  0  0  0  0
    1.5760    7.7590   19.7150 C   0  0  0  0  0  0  0  0  0  0  0  0
    2.3100    6.5950   19.1270 C   0  0  0  0  0  0  0  0  0  0  0  0
    3.0950    7.0290   18.0660 C   0  0  0  0  0  0  0  0  0  0  0  0
    3.8950    6.1720   17.3310 C   0  0  0  0  0  0  0  0  0  0  0  0
    3.9150    4.8080   17.6700 C   0  0  0  0  0  0  0  0  0  0  0  0
    3.1100    4.3690   18.7470 C   0  0  0  0  0  0  0  0  0  0  0  0
    2.2970    5.2530   19.4910 C   0  0  0  0  0  0  0  0  0  0  0  0
    2.9150    8.4800   17.9110 C   0  0  0  0  0  0  0  0  0  0  0  0
    3.5340    9.1280   17.0870 O   0  0  0  0  0  0  0  0  0  0  0  0
    0.4920    7.6230   19.6390 H   0  0  0  0  0  0  0  0  0  0  0  0
    1.8920    7.9360   20.7460 H   0  0  0  0  0  0  0  0  0  0  0  0
    4.4870    6.5710   16.5100 H   0  0  0  0  0  0  0  0  0  0  0  0
    3.1040    3.3170   19.0220 H   0  0  0  0  0  0  0  0  0  0  0  0
    4.8000    3.8680   16.8580 C   0  0  0  0  0  0  0  0  0  0  0  0
    4.7770    4.1460   15.3440 C   0  0  0  0  0  0  0  0  0  0  0  0
    5.8090    5.1590   14.8520 C   0  0  0  0  0  0  0  0  0  0  0  0
    7.2030    4.8540   15.3830 C   0  0  0  0  0  0  0  0  0  0  0  0
    7.2220    4.7620   16.9040 C   0  0  0  0  0  0  0  0  0  0  0  0
    6.2260    3.7310   17.4210 C   0  0  0  0  0  0  0  0  0  0  0  0
    4.3470    2.8720   16.9720 H   0  0  0  0  0  0  0  0  0  0  0  0
    4.9790    3.1980   14.8280 H   0  0  0  0  0  0  0  0  0  0  0  0
    3.7760    4.4560   15.0190 H   0  0  0  0  0  0  0  0  0  0  0  0
    5.5150    6.1720   15.1390 H   0  0  0  0  0  0  0  0  0  0  0  0
    5.8270    5.1490   13.7540 H   0  0  0  0  0  0  0  0  0  0  0  0
    7.9000    5.6320   15.0520 H   0  0  0  0  0  0  0  0  0  0  0  0
    7.5570    3.9080   14.9560 H   0  0  0  0  0  0  0  0  0  0  0  0
    8.2300    4.4870   17.2370 H   0  0  0  0  0  0  0  0  0  0  0  0
    7.0170    5.7450   17.3390 H   0  0  0  0  0  0  0  0  0  0  0  0
    6.6040    2.7390   17.1340 H   0  0  0  0  0  0  0  0  0  0  0  0
    6.2120    3.7490   18.5180 H   0  0  0  0  0  0  0  0  0  0  0  0
    1.4410    4.7690   20.6300 C   0  0  0  0  0  0  0  0  0  0  0  0
    2.1710    4.5160   21.7520 F   0  0  0  0  0  0  0  0  0  0  0  0
    0.5000    5.6810   20.9970 F   0  0  0  0  0  0  0  0  0  0  0  0
    0.7640    3.6200   20.3590 F   0  0  0  0  0  0  0  0  0  0  0  0
    2.0010   13.8270   18.0720 C   0  0  2  0  0  0  0  0  0  0  0  0
    1.2880   14.0340   17.2580 H   0  0  0  0  0  0  0  0  0  0  0  0
    3.3750   13.6290   17.4050 C   0  0  0  0  0  0  0  0  0  0  0  0
    3.4850   12.6070   17.0250 H   0  0  0  0  0  0  0  0  0  0  0  0
    3.5190   14.3240   16.5700 H   0  0  0  0  0  0  0  0  0  0  0  0
    4.1970   13.7890   18.1110 H   0  0  0  0  0  0  0  0  0  0  0  0
    2.0090   15.1230   18.9280 C   0  0  0  0  0  0  0  0  0  0  0  0
    2.2280   15.9600   18.2520 H   0  0  0  0  0  0  0  0  0  0  0  0
    1.0120   15.3390   19.3270 H   0  0  0  0  0  0  0  0  0  0  0  0
    3.0000   15.1170   20.0480 C   0  0  0  0  0  0  0  0  0  0  0  0
    4.3130   15.0640   19.9390 N   0  0  0  0  0  0  0  0  0  0  0  0
    4.8540   15.0940   21.2000 N   0  0  0  0  0  0  0  0  0  0  0  0
    3.8620   15.1580   22.0560 C   0  0  0  0  0  0  0  0  0  0  0  0
    2.6820   15.1660   21.3820 N   0  0  0  0  0  0  0  0  0  0  0  0
    3.9530   15.1970   23.1330 H   0  0  0  0  0  0  0  0  0  0  0  0
    1.3720   15.2150   21.9750 C   0  0  0  0  0  0  0  0  0  0  0  0
    0.6280   15.2710   21.1780 H   0  0  0  0  0  0  0  0  0  0  0  0
    1.2930   16.0990   22.6120 H   0  0  0  0  0  0  0  0  0  0  0  0
    1.2310   14.3130   22.5770 H   0  0  0  0  0  0  0  0  0  0  0  0
  1  2  1  0  0  0  0
  2 11  1  0  0  0  0
  2  3  2  0  0  0  0
  3  4  1  0  0  0  0
  4 12  1  0  0  0  0
  4  5  1  0  0  0  0
  5  7  1  0  0  0  0
  6  5  2  0  0  0  0
  7 13  1  0  0  0  0
  7 15  1  0  0  0  0
  8  3  1  0  0  0  0
  9  8  2  0  0  0  0
 10  1  2  0  0  0  0
 10  9  1  0  0  0  0
 14 10  1  0  0  0  0
 15 21  1  0  0  0  0
 15 20  1  0  0  0  0
 16 17  1  0  0  0  0
 16 15  1  0  0  0  0
 17 18  1  0  0  0  0
 18 26  1  0  0  0  0
 18 19  1  0  0  0  0
 18 27  1  0  0  0  0
 19 29  1  0  0  0  0
 20 19  1  0  0  0  0
 20 31  1  0  0  0  0
 22 16  1  0  0  0  0
 23 16  1  0  0  0  0
 24 17  1  0  0  0  0
 25 17  1  0  0  0  0
 28 19  1  0  0  0  0
 30 20  1  0  0  0  0
 32  9  1  0  0  0  0
 32 33  1  0  0  0  0
 33 43  1  0  0  0  0
 34 39  1  0  0  0  0
 34 33  1  0  0  0  0
 35 34  2  0  0  0  0
 36 37  2  0  0  0  0
 36 35  1  0  0  0  0
 37 38  1  0  0  0  0
 38 45  1  0  0  0  0
 38 39  2  0  0  0  0
 39 63  1  0  0  0  0
 40 35  1  0  0  0  0
 40 32  1  0  0  0  0
 41 40  2  0  0  0  0
 42 33  1  0  0  0  0
 44 36  1  0  0  0  0
 46 52  1  0  0  0  0
 46 51  1  0  0  0  0
 46 37  1  0  0  0  0
 47 46  1  0  0  0  0
 48 55  1  0  0  0  0
 48 47  1  0  0  0  0
 48 49  1  0  0  0  0
 49 50  1  0  0  0  0
 50 59  1  0  0  0  0
 50 60  1  0  0  0  0
 50 51  1  0  0  0  0
 51 62  1  0  0  0  0
 53 47  1  0  0  0  0
 54 47  1  0  0  0  0
 56 48  1  0  0  0  0
 57 49  1  0  0  0  0
 58 49  1  0  0  0  0
 61 51  1  0  0  0  0
 63 65  1  0  0  0  0
 63 64  1  0  0  0  0
 66 63  1  0  0  0  0
 67 68  1  6  0  0  0
 67  1  1  0  0  0  0
 67 73  1  0  0  0  0
 69 67  1  0  0  0  0
 69 72  1  0  0  0  0
 70 69  1  0  0  0  0
 71 69  1  0  0  0  0
 73 75  1  0  0  0  0
 73 76  1  0  0  0  0
 74 73  1  0  0  0  0
 76 80  1  0  0  0  0
 77 76  2  0  0  0  0
 77 78  1  0  0  0  0
 78 79  2  0  0  0  0
 79 81  1  0  0  0  0
 80 82  1  0  0  0  0
 80 79  1  0  0  0  0
 82 85  1  0  0  0  0
 82 84  1  0  0  0  0
 83 82  1  0  0  0  0
M  END
>  <MODEL>
6

>  <REMARK>
 VINA RESULT:    -8.650      3.619     11.599
 INTER + INTRA:          -9.502
 INTER:                  -9.567
 INTRA:                   0.065
 UNBOUND:                 3.194
  Name = 
  9 active torsions:
  status: ('A' for Active; 'I' for Inactive)
    1  A    between atoms: C_1  and  C_2
    2  A    between atoms: C_2  and  C_3
    3  A    between atoms: C_2  and  C_10
    4  A    between atoms: C_3  and  C_4
    5  A    between atoms: N_8  and  C_9
    6  A    between atoms: N_16  and  C_17
    7  A    between atoms: C_24  and  N_26
    8  A    between atoms: C_31  and  C_38
    9  A    between atoms: C_33  and  C_34
                            x       y       z     vdW  Elec       q    Type
                         _______ _______ _______ _____ _____    ______ ____

>  <TORSDO>
F 9

$$$$
=
 OpenBabel07192307433D

 85 90  0  0  1  0  0  0  0  0999 V2000
    1.9600    5.2780   20.3930 C   0  0  0  0  0  0  0  0  0  0  0  0
    2.8330    5.2910   19.2960 C   0  0  0  0  0  0  0  0  0  0  0  0
    3.0970    6.4800   18.6350 C   0  0  0  0  0  0  0  0  0  0  0  0
    3.9700    6.5960   17.5510 N   0  0  0  0  0  0  0  0  0  0  0  0
    4.6350    5.6060   16.8790 C   0  0  0  0  0  0  0  0  0  0  0  0
    4.5320    4.4030   17.0740 O   0  0  0  0  0  0  0  0  0  0  0  0
    5.4980    6.1300   15.9370 N   0  0  0  0  0  0  0  0  0  0  0  0
    2.5580    7.6580   19.0110 N   0  0  0  0  0  0  0  0  0  0  0  0
    1.7380    7.6730   20.0890 C   0  0  0  0  0  0  0  0  0  0  0  0
    1.4250    6.5100   20.7890 C   0  0  0  0  0  0  0  0  0  0  0  0
    3.3140    4.3750   18.9820 H   0  0  0  0  0  0  0  0  0  0  0  0
    4.0770    7.5470   17.2440 H   0  0  0  0  0  0  0  0  0  0  0  0
    5.3350    7.0810   15.6410 H   0  0  0  0  0  0  0  0  0  0  0  0
    0.7420    6.5620   21.6270 H   0  0  0  0  0  0  0  0  0  0  0  0
    6.2520    5.2750   15.0310 C   0  0  0  0  0  0  0  0  0  0  0  0
    7.0650    6.1230   14.0520 C   0  0  0  0  0  0  0  0  0  0  0  0
    7.9290    5.2590   13.1320 C   0  0  0  0  0  0  0  0  0  0  0  0
    7.3140    3.8970   12.8050 C   0  0  0  0  0  0  0  0  0  0  0  0
    5.7940    3.9290   12.8920 C   0  0  0  0  0  0  0  0  0  0  0  0
    5.3110    4.3040   14.2940 C   0  0  0  0  0  0  0  0  0  0  0  0
    6.9530    4.6850   15.6350 H   0  0  0  0  0  0  0  0  0  0  0  0
    7.7070    6.8300   14.5960 H   0  0  0  0  0  0  0  0  0  0  0  0
    6.3870    6.7360   13.4410 H   0  0  0  0  0  0  0  0  0  0  0  0
    8.9110    5.0940   13.5920 H   0  0  0  0  0  0  0  0  0  0  0  0
    8.1180    5.8160   12.2060 H   0  0  0  0  0  0  0  0  0  0  0  0
    7.6330    3.5810   11.8050 H   0  0  0  0  0  0  0  0  0  0  0  0
    7.7000    3.1480   13.5090 H   0  0  0  0  0  0  0  0  0  0  0  0
    5.4060    4.6580   12.1710 H   0  0  0  0  0  0  0  0  0  0  0  0
    5.3760    2.9570   12.6070 H   0  0  0  0  0  0  0  0  0  0  0  0
    4.2990    4.7170   14.2140 H   0  0  0  0  0  0  0  0  0  0  0  0
    5.2110    3.3950   14.9000 H   0  0  0  0  0  0  0  0  0  0  0  0
    1.2270    8.9280   20.4700 N   0  0  0  0  0  0  0  0  0  0  0  0
    1.5300   10.1020   19.6710 C   0  0  0  0  0  0  0  0  0  0  0  0
    0.7980   11.1930   20.3870 C   0  0  0  0  0  0  0  0  0  0  0  0
    0.1660   10.6710   21.5080 C   0  0  0  0  0  0  0  0  0  0  0  0
   -0.5850   11.4490   22.3720 C   0  0  0  0  0  0  0  0  0  0  0  0
   -0.7140   12.8230   22.1040 C   0  0  0  0  0  0  0  0  0  0  0  0
   -0.0740   13.3500   20.9580 C   0  0  0  0  0  0  0  0  0  0  0  0
    0.6890   12.5460   20.0830 C   0  0  0  0  0  0  0  0  0  0  0  0
    0.4520    9.2310   21.5810 C   0  0  0  0  0  0  0  0  0  0  0  0
    0.0650    8.5360   22.5020 O   0  0  0  0  0  0  0  0  0  0  0  0
    1.1470    9.9680   18.6540 H   0  0  0  0  0  0  0  0  0  0  0  0
    2.6070   10.2880   19.6790 H   0  0  0  0  0  0  0  0  0  0  0  0
   -1.0570   10.9830   23.2340 H   0  0  0  0  0  0  0  0  0  0  0  0
   -0.1670   14.4090   20.7270 H   0  0  0  0  0  0  0  0  0  0  0  0
   -1.5410   13.6770   23.0610 C   0  0  0  0  0  0  0  0  0  0  0  0
   -1.8940   15.0680   22.5050 C   0  0  0  0  0  0  0  0  0  0  0  0
   -3.1910   15.1380   21.7000 C   0  0  0  0  0  0  0  0  0  0  0  0
   -4.3500   14.4720   22.4310 C   0  0  0  0  0  0  0  0  0  0  0  0
   -4.0280   13.0320   22.8110 C   0  0  0  0  0  0  0  0  0  0  0  0
   -2.7560   12.9380   23.6460 C   0  0  0  0  0  0  0  0  0  0  0  0
   -0.8800   13.8730   23.9190 H   0  0  0  0  0  0  0  0  0  0  0  0
   -2.0030   15.7500   23.3580 H   0  0  0  0  0  0  0  0  0  0  0  0
   -1.0690   15.4710   21.9040 H   0  0  0  0  0  0  0  0  0  0  0  0
   -3.0550   14.6750   20.7190 H   0  0  0  0  0  0  0  0  0  0  0  0
   -3.4370   16.1900   21.5070 H   0  0  0  0  0  0  0  0  0  0  0  0
   -5.2440   14.4970   21.7990 H   0  0  0  0  0  0  0  0  0  0  0  0
   -4.5860   15.0440   23.3370 H   0  0  0  0  0  0  0  0  0  0  0  0
   -4.8660   12.6140   23.3810 H   0  0  0  0  0  0  0  0  0  0  0  0
   -3.9400   12.4200   21.9080 H   0  0  0  0  0  0  0  0  0  0  0  0
   -2.9770   13.3810   24.6270 H   0  0  0  0  0  0  0  0  0  0  0  0
   -2.5150   11.8830   23.8330 H   0  0  0  0  0  0  0  0  0  0  0  0
    1.3580   13.1210   18.8640 C   0  0  0  0  0  0  0  0  0  0  0  0
    2.5460   12.5130   18.5920 F   0  0  0  0  0  0  0  0  0  0  0  0
    0.6030   12.9790   17.7410 F   0  0  0  0  0  0  0  0  0  0  0  0
    1.6340   14.4500   18.9640 F   0  0  0  0  0  0  0  0  0  0  0  0
    1.7000    3.9720   21.1480 C   0  0  2  0  0  0  0  0  0  0  0  0
    0.9190    4.2350   21.8780 H   0  0  0  0  0  0  0  0  0  0  0  0
    2.9160    3.4970   21.9660 C   0  0  0  0  0  0  0  0  0  0  0  0
    2.6350    2.6990   22.6630 H   0  0  0  0  0  0  0  0  0  0  0  0
    3.7130    3.1200   21.3150 H   0  0  0  0  0  0  0  0  0  0  0  0
    3.3390    4.3040   22.5710 H   0  0  0  0  0  0  0  0  0  0  0  0
    1.1040    2.7820   20.3470 C   0  0  0  0  0  0  0  0  0  0  0  0
    1.3780    1.8610   20.8760 H   0  0  0  0  0  0  0  0  0  0  0  0
    0.0090    2.8010   20.3670 H   0  0  0  0  0  0  0  0  0  0  0  0
    1.5710    2.6970   18.9290 C   0  0  0  0  0  0  0  0  0  0  0  0
    1.0330    3.2970   17.8850 N   0  0  0  0  0  0  0  0  0  0  0  0
    1.7680    2.9720   16.7720 N   0  0  0  0  0  0  0  0  0  0  0  0
    2.7370    2.1750   17.1550 C   0  0  0  0  0  0  0  0  0  0  0  0
    2.6500    1.9680   18.4960 N   0  0  0  0  0  0  0  0  0  0  0  0
    3.4950    1.7420   16.5160 H   0  0  0  0  0  0  0  0  0  0  0  0
    3.5270    1.1410   19.2800 C   0  0  0  0  0  0  0  0  0  0  0  0
    3.0020    0.2190   19.5390 H   0  0  0  0  0  0  0  0  0  0  0  0
    3.8070    1.6710   20.1940 H   0  0  0  0  0  0  0  0  0  0  0  0
    4.4210    0.9270   18.6880 H   0  0  0  0  0  0  0  0  0  0  0  0
  1 10  1  0  0  0  0
  1 67  1  0  0  0  0
  2  1  2  0  0  0  0
  3  8  2  0  0  0  0
  3  2  1  0  0  0  0
  4  3  1  0  0  0  0
  5  6  2  0  0  0  0
  5  4  1  0  0  0  0
  7  5  1  0  0  0  0
  8  9  1  0  0  0  0
  9 32  1  0  0  0  0
  9 10  2  0  0  0  0
 10 14  1  0  0  0  0
 11  2  1  0  0  0  0
 12  4  1  0  0  0  0
 13  7  1  0  0  0  0
 15 21  1  0  0  0  0
 15  7  1  0  0  0  0
 16 22  1  0  0  0  0
 16 15  1  0  0  0  0
 17 24  1  0  0  0  0
 17 16  1  0  0  0  0
 18 19  1  0  0  0  0
 18 17  1  0  0  0  0
 18 27  1  0  0  0  0
 19 20  1  0  0  0  0
 20 31  1  0  0  0  0
 20 15  1  0  0  0  0
 23 16  1  0  0  0  0
 25 17  1  0  0  0  0
 26 18  1  0  0  0  0
 28 19  1  0  0  0  0
 29 19  1  0  0  0  0
 30 20  1  0  0  0  0
 32 40  1  0  0  0  0
 33 43  1  0  0  0  0
 33 34  1  0  0  0  0
 33 32  1  0  0  0  0
 34 35  1  0  0  0  0
 35 40  1  0  0  0  0
 35 36  2  0  0  0  0
 36 44  1  0  0  0  0
 37 36  1  0  0  0  0
 37 46  1  0  0  0  0
 38 37  2  0  0  0  0
 39 34  2  0  0  0  0
 39 38  1  0  0  0  0
 40 41  2  0  0  0  0
 42 33  1  0  0  0  0
 45 38  1  0  0  0  0
 46 51  1  0  0  0  0
 46 52  1  0  0  0  0
 47 46  1  0  0  0  0
 47 53  1  0  0  0  0
 48 49  1  0  0  0  0
 48 47  1  0  0  0  0
 49 50  1  0  0  0  0
 49 58  1  0  0  0  0
 50 59  1  0  0  0  0
 50 51  1  0  0  0  0
 51 62  1  0  0  0  0
 51 61  1  0  0  0  0
 54 47  1  0  0  0  0
 55 48  1  0  0  0  0
 56 48  1  0  0  0  0
 57 49  1  0  0  0  0
 60 50  1  0  0  0  0
 63 66  1  0  0  0  0
 63 39  1  0  0  0  0
 64 63  1  0  0  0  0
 65 63  1  0  0  0  0
 67 68  1  1  0  0  0
 67 69  1  0  0  0  0
 69 72  1  0  0  0  0
 69 70  1  0  0  0  0
 71 69  1  0  0  0  0
 73 75  1  0  0  0  0
 73 74  1  0  0  0  0
 73 67  1  0  0  0  0
 76 73  1  0  0  0  0
 77 76  2  0  0  0  0
 78 79  2  0  0  0  0
 78 77  1  0  0  0  0
 79 80  1  0  0  0  0
 80 76  1  0  0  0  0
 80 82  1  0  0  0  0
 81 79  1  0  0  0  0
 82 83  1  0  0  0  0
 82 84  1  0  0  0  0
 85 82  1  0  0  0  0
M  END
>  <MODEL>
7

>  <REMARK>
 VINA RESULT:    -8.369      1.044      1.585
 INTER + INTRA:          -9.090
 INTER:                  -9.532
 INTRA:                   0.443
 UNBOUND:                 3.194
  Name = 
  9 active torsions:
  status: ('A' for Active; 'I' for Inactive)
    1  A    between atoms: C_1  and  C_2
    2  A    between atoms: C_2  and  C_3
    3  A    between atoms: C_2  and  C_10
    4  A    between atoms: C_3  and  C_4
    5  A    between atoms: N_8  and  C_9
    6  A    between atoms: N_16  and  C_17
    7  A    between atoms: C_24  and  N_26
    8  A    between atoms: C_31  and  C_38
    9  A    between atoms: C_33  and  C_34
                            x       y       z     vdW  Elec       q    Type
                         _______ _______ _______ _____ _____    ______ ____

>  <TORSDO>
F 9

$$$$
=
 OpenBabel07192307433D

 85 90  0  0  1  0  0  0  0  0999 V2000
    1.4270   12.3340   18.6700 C   0  0  0  0  0  0  0  0  0  0  0  0
    0.4880   12.4240   19.7070 C   0  0  0  0  0  0  0  0  0  0  0  0
    0.0950   11.2830   20.3890 C   0  0  0  0  0  0  0  0  0  0  0  0
   -0.8130   11.2790   21.4500 N   0  0  0  0  0  0  0  0  0  0  0  0
   -1.5480   12.3190   21.9500 C   0  0  0  0  0  0  0  0  0  0  0  0
   -1.5890   13.4580   21.5050 O   0  0  0  0  0  0  0  0  0  0  0  0
   -2.2460   11.9430   23.0800 N   0  0  0  0  0  0  0  0  0  0  0  0
    0.5950   10.0620   20.1120 N   0  0  0  0  0  0  0  0  0  0  0  0
    1.5290    9.9560   19.1360 C   0  0  0  0  0  0  0  0  0  0  0  0
    1.9560   11.0640   18.4070 C   0  0  0  0  0  0  0  0  0  0  0  0
    0.0870   13.3900   19.9850 H   0  0  0  0  0  0  0  0  0  0  0  0
   -0.9260   10.3650   21.8540 H   0  0  0  0  0  0  0  0  0  0  0  0
   -2.3890   10.9540   23.2270 H   0  0  0  0  0  0  0  0  0  0  0  0
    2.6820   10.9310   17.6160 H   0  0  0  0  0  0  0  0  0  0  0  0
   -3.1730   12.8490   23.7440 C   0  0  0  0  0  0  0  0  0  0  0  0
   -4.1070   13.4980   22.7220 C   0  0  0  0  0  0  0  0  0  0  0  0
   -5.1450   14.4000   23.3920 C   0  0  0  0  0  0  0  0  0  0  0  0
   -4.6450   15.0750   24.6700 C   0  0  0  0  0  0  0  0  0  0  0  0
   -3.1320   15.2470   24.6630 C   0  0  0  0  0  0  0  0  0  0  0  0
   -2.4070   13.9040   24.5620 C   0  0  0  0  0  0  0  0  0  0  0  0
   -3.7850   12.2530   24.4340 H   0  0  0  0  0  0  0  0  0  0  0  0
   -4.6220   12.7310   22.1270 H   0  0  0  0  0  0  0  0  0  0  0  0
   -3.5190   14.0920   22.0070 H   0  0  0  0  0  0  0  0  0  0  0  0
   -6.0420   13.8170   23.6360 H   0  0  0  0  0  0  0  0  0  0  0  0
   -5.4660   15.1600   22.6690 H   0  0  0  0  0  0  0  0  0  0  0  0
   -5.1390   16.0460   24.7900 H   0  0  0  0  0  0  0  0  0  0  0  0
   -4.9350   14.4660   25.5380 H   0  0  0  0  0  0  0  0  0  0  0  0
   -2.8440   15.8760   23.8120 H   0  0  0  0  0  0  0  0  0  0  0  0
   -2.8050   15.7740   25.5660 H   0  0  0  0  0  0  0  0  0  0  0  0
   -1.4080   14.0790   24.1470 H   0  0  0  0  0  0  0  0  0  0  0  0
   -2.2410   13.5030   25.5700 H   0  0  0  0  0  0  0  0  0  0  0  0
    2.0500    8.6690   18.9040 N   0  0  0  0  0  0  0  0  0  0  0  0
    1.6400    7.5620   19.7480 C   0  0  0  0  0  0  0  0  0  0  0  0
    2.3860    6.4030   19.1680 C   0  0  0  0  0  0  0  0  0  0  0  0
    3.1690    6.8380   18.1070 C   0  0  0  0  0  0  0  0  0  0  0  0
    3.9790    5.9850   17.3780 C   0  0  0  0  0  0  0  0  0  0  0  0
    4.0090    4.6230   17.7240 C   0  0  0  0  0  0  0  0  0  0  0  0
    3.2060    4.1820   18.8010 C   0  0  0  0  0  0  0  0  0  0  0  0
    2.3830    5.0620   19.5380 C   0  0  0  0  0  0  0  0  0  0  0  0
    2.9770    8.2870   17.9450 C   0  0  0  0  0  0  0  0  0  0  0  0
    3.5930    8.9360   17.1190 O   0  0  0  0  0  0  0  0  0  0  0  0
    0.5580    7.4170   19.6710 H   0  0  0  0  0  0  0  0  0  0  0  0
    1.9520    7.7480   20.7800 H   0  0  0  0  0  0  0  0  0  0  0  0
    4.5690    6.3850   16.5560 H   0  0  0  0  0  0  0  0  0  0  0  0
    3.2080    3.1310   19.0800 H   0  0  0  0  0  0  0  0  0  0  0  0
    4.9050    3.6870   16.9180 C   0  0  0  0  0  0  0  0  0  0  0  0
    4.7530    3.8410   15.3940 C   0  0  0  0  0  0  0  0  0  0  0  0
    5.6670    4.8830   14.7500 C   0  0  0  0  0  0  0  0  0  0  0  0
    7.1150    4.7210   15.1950 C   0  0  0  0  0  0  0  0  0  0  0  0
    7.2480    4.7520   16.7120 C   0  0  0  0  0  0  0  0  0  0  0  0
    6.3730    3.6960   17.3790 C   0  0  0  0  0  0  0  0  0  0  0  0
    4.5390    2.6730   17.1390 H   0  0  0  0  0  0  0  0  0  0  0  0
    4.9910    2.8720   14.9360 H   0  0  0  0  0  0  0  0  0  0  0  0
    3.7110    4.0520   15.1240 H   0  0  0  0  0  0  0  0  0  0  0  0
    5.3170    5.8920   14.9840 H   0  0  0  0  0  0  0  0  0  0  0  0
    5.6080    4.7860   13.6580 H   0  0  0  0  0  0  0  0  0  0  0  0
    7.7240    5.5180   14.7550 H   0  0  0  0  0  0  0  0  0  0  0  0
    7.5100    3.7720   14.8140 H   0  0  0  0  0  0  0  0  0  0  0  0
    8.2950    4.5770   16.9870 H   0  0  0  0  0  0  0  0  0  0  0  0
    6.9990    5.7500   17.0890 H   0  0  0  0  0  0  0  0  0  0  0  0
    6.8050    2.7150   17.1390 H   0  0  0  0  0  0  0  0  0  0  0  0
    6.4350    3.8010   18.4700 H   0  0  0  0  0  0  0  0  0  0  0  0
    1.5290    4.5760   20.6770 C   0  0  0  0  0  0  0  0  0  0  0  0
    1.1560    3.2750   20.5230 F   0  0  0  0  0  0  0  0  0  0  0  0
    2.1750    4.6370   21.8740 F   0  0  0  0  0  0  0  0  0  0  0  0
    0.3740    5.2780   20.8380 F   0  0  0  0  0  0  0  0  0  0  0  0
    1.8910   13.6000   17.9450 C   0  0  2  0  0  0  0  0  0  0  0  0
    1.0850   13.8050   17.2230 H   0  0  0  0  0  0  0  0  0  0  0  0
    3.1700   13.3820   17.1140 C   0  0  0  0  0  0  0  0  0  0  0  0
    3.3580   12.3140   16.9520 H   0  0  0  0  0  0  0  0  0  0  0  0
    3.1010   13.8720   16.1370 H   0  0  0  0  0  0  0  0  0  0  0  0
    4.0550   13.7800   17.6200 H   0  0  0  0  0  0  0  0  0  0  0  0
    2.0160   14.9040   18.7780 C   0  0  0  0  0  0  0  0  0  0  0  0
    2.3980   15.6850   18.1080 H   0  0  0  0  0  0  0  0  0  0  0  0
    1.0320   15.2650   19.0960 H   0  0  0  0  0  0  0  0  0  0  0  0
    2.9100   14.7910   19.9710 C   0  0  0  0  0  0  0  0  0  0  0  0
    2.5430   14.5260   21.2090 N   0  0  0  0  0  0  0  0  0  0  0  0
    3.6670   14.4970   21.9980 N   0  0  0  0  0  0  0  0  0  0  0  0
    4.6980   14.7510   21.2280 C   0  0  0  0  0  0  0  0  0  0  0  0
    4.2730   14.9500   19.9520 N   0  0  0  0  0  0  0  0  0  0  0  0
    5.7310   14.8000   21.5450 H   0  0  0  0  0  0  0  0  0  0  0  0
    5.1090   15.2670   18.8250 C   0  0  0  0  0  0  0  0  0  0  0  0
    4.9070   14.5500   18.0260 H   0  0  0  0  0  0  0  0  0  0  0  0
    6.1590   15.2000   19.1190 H   0  0  0  0  0  0  0  0  0  0  0  0
    4.8810   16.2860   18.5010 H   0  0  0  0  0  0  0  0  0  0  0  0
  1  2  1  0  0  0  0
  2 11  1  0  0  0  0
  2  3  2  0  0  0  0
  3  4  1  0  0  0  0
  4 12  1  0  0  0  0
  4  5  1  0  0  0  0
  5  7  1  0  0  0  0
  6  5  2  0  0  0  0
  7 13  1  0  0  0  0
  7 15  1  0  0  0  0
  8  3  1  0  0  0  0
  9  8  2  0  0  0  0
 10  1  2  0  0  0  0
 10  9  1  0  0  0  0
 14 10  1  0  0  0  0
 15 21  1  0  0  0  0
 15 20  1  0  0  0  0
 16 17  1  0  0  0  0
 16 15  1  0  0  0  0
 17 24  1  0  0  0  0
 17 18  1  0  0  0  0
 18 26  1  0  0  0  0
 18 27  1  0  0  0  0
 19 18  1  0  0  0  0
 19 29  1  0  0  0  0
 20 19  1  0  0  0  0
 20 31  1  0  0  0  0
 22 16  1  0  0  0  0
 23 16  1  0  0  0  0
 25 17  1  0  0  0  0
 28 19  1  0  0  0  0
 30 20  1  0  0  0  0
 32  9  1  0  0  0  0
 32 33  1  0  0  0  0
 33 43  1  0  0  0  0
 34 39  1  0  0  0  0
 34 33  1  0  0  0  0
 35 34  2  0  0  0  0
 36 37  2  0  0  0  0
 36 35  1  0  0  0  0
 37 38  1  0  0  0  0
 38 45  1  0  0  0  0
 38 39  2  0  0  0  0
 39 63  1  0  0  0  0
 40 35  1  0  0  0  0
 40 32  1  0  0  0  0
 41 40  2  0  0  0  0
 42 33  1  0  0  0  0
 44 36  1  0  0  0  0
 46 52  1  0  0  0  0
 46 51  1  0  0  0  0
 46 37  1  0  0  0  0
 47 46  1  0  0  0  0
 48 55  1  0  0  0  0
 48 49  1  0  0  0  0
 48 47  1  0  0  0  0
 49 50  1  0  0  0  0
 50 59  1  0  0  0  0
 50 60  1  0  0  0  0
 50 51  1  0  0  0  0
 51 62  1  0  0  0  0
 53 47  1  0  0  0  0
 54 47  1  0  0  0  0
 56 48  1  0  0  0  0
 57 49  1  0  0  0  0
 58 49  1  0  0  0  0
 61 51  1  0  0  0  0
 63 66  1  0  0  0  0
 63 65  1  0  0  0  0
 64 63  1  0  0  0  0
 67 68  1  6  0  0  0
 67  1  1  0  0  0  0
 67 73  1  0  0  0  0
 69 72  1  0  0  0  0
 69 67  1  0  0  0  0
 70 69  1  0  0  0  0
 71 69  1  0  0  0  0
 73 75  1  0  0  0  0
 73 76  1  0  0  0  0
 74 73  1  0  0  0  0
 76 77  2  0  0  0  0
 77 78  1  0  0  0  0
 79 81  1  0  0  0  0
 79 78  2  0  0  0  0
 80 76  1  0  0  0  0
 80 79  1  0  0  0  0
 82 84  1  0  0  0  0
 82 80  1  0  0  0  0
 83 82  1  0  0  0  0
 85 82  1  0  0  0  0
M  END
>  <MODEL>
8

>  <REMARK>
 VINA RESULT:    -8.298      3.632     11.544
 INTER + INTRA:          -8.985
 INTER:                  -8.992
 INTRA:                   0.008
 UNBOUND:                 3.194
  Name = 
  9 active torsions:
  status: ('A' for Active; 'I' for Inactive)
    1  A    between atoms: C_1  and  C_2
    2  A    between atoms: C_2  and  C_3
    3  A    between atoms: C_2  and  C_10
    4  A    between atoms: C_3  and  C_4
    5  A    between atoms: N_8  and  C_9
    6  A    between atoms: N_16  and  C_17
    7  A    between atoms: C_24  and  N_26
    8  A    between atoms: C_31  and  C_38
    9  A    between atoms: C_33  and  C_34
                            x       y       z     vdW  Elec       q    Type
                         _______ _______ _______ _____ _____    ______ ____

>  <TORSDO>
F 9

$$$$
=
 OpenBabel07192307433D

 85 90  0  0  1  0  0  0  0  0999 V2000
   -1.9200   10.3140   17.2320 C   0  0  0  0  0  0  0  0  0  0  0  0
   -1.9750   11.0680   18.4120 C   0  0  0  0  0  0  0  0  0  0  0  0
   -0.9950   10.9120   19.3800 C   0  0  0  0  0  0  0  0  0  0  0  0
   -0.9520   11.6360   20.5740 N   0  0  0  0  0  0  0  0  0  0  0  0
   -1.8660   12.5270   21.0670 C   0  0  0  0  0  0  0  0  0  0  0  0
   -2.9460   12.8100   20.5660 O   0  0  0  0  0  0  0  0  0  0  0  0
   -1.4110   13.1250   22.2250 N   0  0  0  0  0  0  0  0  0  0  0  0
    0.0430   10.0640   19.2350 N   0  0  0  0  0  0  0  0  0  0  0  0
    0.1330    9.3500   18.0880 C   0  0  0  0  0  0  0  0  0  0  0  0
   -0.8250    9.4540   17.0820 C   0  0  0  0  0  0  0  0  0  0  0  0
   -2.7720   11.7850   18.5550 H   0  0  0  0  0  0  0  0  0  0  0  0
   -0.1350   11.4260   21.1200 H   0  0  0  0  0  0  0  0  0  0  0  0
   -0.6660   12.6600   22.7220 H   0  0  0  0  0  0  0  0  0  0  0  0
   -0.7310    8.8430   16.1940 H   0  0  0  0  0  0  0  0  0  0  0  0
   -2.2420   14.0440   22.9890 C   0  0  0  0  0  0  0  0  0  0  0  0
   -1.7590   14.1200   24.4380 C   0  0  0  0  0  0  0  0  0  0  0  0
   -2.5630   15.1330   25.2540 C   0  0  0  0  0  0  0  0  0  0  0  0
   -4.0210   15.2670   24.8120 C   0  0  0  0  0  0  0  0  0  0  0  0
   -4.5310   13.9910   24.1550 C   0  0  0  0  0  0  0  0  0  0  0  0
   -3.7240   13.6320   22.9060 C   0  0  0  0  0  0  0  0  0  0  0  0
   -2.1350   15.0410   22.5420 H   0  0  0  0  0  0  0  0  0  0  0  0
   -0.6940   14.3850   24.4760 H   0  0  0  0  0  0  0  0  0  0  0  0
   -1.8430   13.1290   24.9090 H   0  0  0  0  0  0  0  0  0  0  0  0
   -2.0900   16.1210   25.1890 H   0  0  0  0  0  0  0  0  0  0  0  0
   -2.5180   14.8450   26.3110 H   0  0  0  0  0  0  0  0  0  0  0  0
   -4.6440   15.5270   25.6760 H   0  0  0  0  0  0  0  0  0  0  0  0
   -4.1080   16.0990   24.1000 H   0  0  0  0  0  0  0  0  0  0  0  0
   -4.4680   13.1650   24.8730 H   0  0  0  0  0  0  0  0  0  0  0  0
   -5.5890   14.0950   23.8910 H   0  0  0  0  0  0  0  0  0  0  0  0
   -3.8260   12.5560   22.7240 H   0  0  0  0  0  0  0  0  0  0  0  0
   -4.1690   14.1230   22.0310 H   0  0  0  0  0  0  0  0  0  0  0  0
    1.2520    8.5040   17.9620 N   0  0  0  0  0  0  0  0  0  0  0  0
    1.0820    7.0660   18.0620 C   0  0  0  0  0  0  0  0  0  0  0  0
    2.4710    6.5490   17.8560 C   0  0  0  0  0  0  0  0  0  0  0  0
    3.3440    7.6170   17.6860 C   0  0  0  0  0  0  0  0  0  0  0  0
    4.7020    7.4450   17.4820 C   0  0  0  0  0  0  0  0  0  0  0  0
    5.2190    6.1380   17.4450 C   0  0  0  0  0  0  0  0  0  0  0  0
    4.3270    5.0540   17.6120 C   0  0  0  0  0  0  0  0  0  0  0  0
    2.9420    5.2410   17.8190 C   0  0  0  0  0  0  0  0  0  0  0  0
    2.5780    8.8680   17.7730 C   0  0  0  0  0  0  0  0  0  0  0  0
    3.1090    9.9620   17.7160 O   0  0  0  0  0  0  0  0  0  0  0  0
    0.4080    6.7160   17.2740 H   0  0  0  0  0  0  0  0  0  0  0  0
    0.7140    6.8040   19.0580 H   0  0  0  0  0  0  0  0  0  0  0  0
    5.3350    8.3200   17.3550 H   0  0  0  0  0  0  0  0  0  0  0  0
    4.7040    4.0340   17.5780 H   0  0  0  0  0  0  0  0  0  0  0  0
    6.7180    5.9550   17.2220 C   0  0  0  0  0  0  0  0  0  0  0  0
    7.4660    7.2660   16.9240 C   0  0  0  0  0  0  0  0  0  0  0  0
    7.9830    8.0140   18.1520 C   0  0  0  0  0  0  0  0  0  0  0  0
    8.7380    7.0940   19.1020 C   0  0  0  0  0  0  0  0  0  0  0  0
    7.8970    5.8940   19.5170 C   0  0  0  0  0  0  0  0  0  0  0  0
    7.3990    5.1070   18.3100 C   0  0  0  0  0  0  0  0  0  0  0  0
    6.8030    5.3620   16.2980 H   0  0  0  0  0  0  0  0  0  0  0  0
    8.3380    7.0190   16.3040 H   0  0  0  0  0  0  0  0  0  0  0  0
    6.8500    7.9400   16.3180 H   0  0  0  0  0  0  0  0  0  0  0  0
    7.1550    8.4950   18.6800 H   0  0  0  0  0  0  0  0  0  0  0  0
    8.6460    8.8260   17.8260 H   0  0  0  0  0  0  0  0  0  0  0  0
    9.0430    7.6570   19.9920 H   0  0  0  0  0  0  0  0  0  0  0  0
    9.6580    6.7450   18.6170 H   0  0  0  0  0  0  0  0  0  0  0  0
    8.4990    5.2340   20.1540 H   0  0  0  0  0  0  0  0  0  0  0  0
    7.0550    6.2240   20.1340 H   0  0  0  0  0  0  0  0  0  0  0  0
    8.2720    4.6190   17.8550 H   0  0  0  0  0  0  0  0  0  0  0  0
    6.7350    4.3000   18.6450 H   0  0  0  0  0  0  0  0  0  0  0  0
    2.0050    4.0760   17.9880 C   0  0  0  0  0  0  0  0  0  0  0  0
    0.8770    4.2070   17.2360 F   0  0  0  0  0  0  0  0  0  0  0  0
    2.5690    2.8970   17.6090 F   0  0  0  0  0  0  0  0  0  0  0  0
    1.5800    3.8940   19.2690 F   0  0  0  0  0  0  0  0  0  0  0  0
   -2.9800   10.5150   16.1450 C   0  0  2  0  0  0  0  0  0  0  0  0
   -2.4990   11.1950   15.4240 H   0  0  0  0  0  0  0  0  0  0  0  0
   -4.2360   11.2470   16.6590 C   0  0  0  0  0  0  0  0  0  0  0  0
   -4.5590   10.8430   17.6260 H   0  0  0  0  0  0  0  0  0  0  0  0
   -4.0530   12.3200   16.7780 H   0  0  0  0  0  0  0  0  0  0  0  0
   -5.0820   11.1310   15.9750 H   0  0  0  0  0  0  0  0  0  0  0  0
   -3.3960    9.2780   15.3050 C   0  0  0  0  0  0  0  0  0  0  0  0
   -2.5180    8.6220   15.2300 H   0  0  0  0  0  0  0  0  0  0  0  0
   -4.1480    8.6790   15.8290 H   0  0  0  0  0  0  0  0  0  0  0  0
   -3.8910    9.6030   13.9320 C   0  0  0  0  0  0  0  0  0  0  0  0
   -5.1090    9.9860   13.6030 N   0  0  0  0  0  0  0  0  0  0  0  0
   -5.1470   10.1970   12.2470 N   0  0  0  0  0  0  0  0  0  0  0  0
   -3.9530    9.9320   11.7710 C   0  0  0  0  0  0  0  0  0  0  0  0
   -3.1350    9.5480   12.7870 N   0  0  0  0  0  0  0  0  0  0  0  0
   -3.6510   10.0020   10.7350 H   0  0  0  0  0  0  0  0  0  0  0  0
   -1.7550    9.1640   12.6600 C   0  0  0  0  0  0  0  0  0  0  0  0
   -1.2240    9.4540   13.5690 H   0  0  0  0  0  0  0  0  0  0  0  0
   -1.3130    9.6740   11.8000 H   0  0  0  0  0  0  0  0  0  0  0  0
   -1.7100    8.0820   12.5100 H   0  0  0  0  0  0  0  0  0  0  0  0
  1  2  1  0  0  0  0
  2 11  1  0  0  0  0
  2  3  2  0  0  0  0
  3  4  1  0  0  0  0
  4  5  1  0  0  0  0
  4 12  1  0  0  0  0
  5  7  1  0  0  0  0
  6  5  2  0  0  0  0
  7 13  1  0  0  0  0
  7 15  1  0  0  0  0
  8  3  1  0  0  0  0
  9  8  2  0  0  0  0
 10  1  2  0  0  0  0
 10  9  1  0  0  0  0
 14 10  1  0  0  0  0
 15 16  1  0  0  0  0
 16 22  1  0  0  0  0
 16 23  1  0  0  0  0
 16 17  1  0  0  0  0
 17 25  1  0  0  0  0
 18 17  1  0  0  0  0
 18 26  1  0  0  0  0
 19 18  1  0  0  0  0
 19 28  1  0  0  0  0
 20 15  1  0  0  0  0
 20 19  1  0  0  0  0
 21 15  1  0  0  0  0
 24 17  1  0  0  0  0
 27 18  1  0  0  0  0
 29 19  1  0  0  0  0
 30 20  1  0  0  0  0
 31 20  1  0  0  0  0
 32 33  1  0  0  0  0
 32  9  1  0  0  0  0
 33 43  1  0  0  0  0
 34 33  1  0  0  0  0
 35 40  1  0  0  0  0
 35 34  2  0  0  0  0
 36 35  1  0  0  0  0
 37 36  2  0  0  0  0
 37 38  1  0  0  0  0
 38 39  2  0  0  0  0
 39 34  1  0  0  0  0
 39 63  1  0  0  0  0
 40 32  1  0  0  0  0
 41 40  2  0  0  0  0
 42 33  1  0  0  0  0
 44 36  1  0  0  0  0
 45 38  1  0  0  0  0
 46 37  1  0  0  0  0
 46 51  1  0  0  0  0
 47 46  1  0  0  0  0
 47 48  1  0  0  0  0
 48 55  1  0  0  0  0
 48 49  1  0  0  0  0
 49 50  1  0  0  0  0
 49 57  1  0  0  0  0
 50 60  1  0  0  0  0
 50 59  1  0  0  0  0
 51 62  1  0  0  0  0
 51 50  1  0  0  0  0
 52 46  1  0  0  0  0
 53 47  1  0  0  0  0
 54 47  1  0  0  0  0
 56 48  1  0  0  0  0
 58 49  1  0  0  0  0
 61 51  1  0  0  0  0
 63 66  1  0  0  0  0
 64 63  1  0  0  0  0
 65 63  1  0  0  0  0
 67 68  1  6  0  0  0
 67 69  1  0  0  0  0
 67  1  1  0  0  0  0
 69 71  1  0  0  0  0
 69 70  1  0  0  0  0
 72 69  1  0  0  0  0
 73 75  1  0  0  0  0
 73 67  1  0  0  0  0
 74 73  1  0  0  0  0
 76 73  1  0  0  0  0
 77 76  2  0  0  0  0
 78 77  1  0  0  0  0
 79 78  2  0  0  0  0
 79 80  1  0  0  0  0
 80 76  1  0  0  0  0
 81 79  1  0  0  0  0
 82 80  1  0  0  0  0
 82 83  1  0  0  0  0
 84 82  1  0  0  0  0
 85 82  1  0  0  0  0
M  END
>  <MODEL>
9

>  <REMARK>
 VINA RESULT:    -7.287      4.746     11.092
 INTER + INTRA:          -7.500
 INTER:                  -6.802
 INTRA:                  -0.698
 UNBOUND:                 3.194
  Name = 
  9 active torsions:
  status: ('A' for Active; 'I' for Inactive)
    1  A    between atoms: C_1  and  C_2
    2  A    between atoms: C_2  and  C_3
    3  A    between atoms: C_2  and  C_10
    4  A    between atoms: C_3  and  C_4
    5  A    between atoms: N_8  and  C_9
    6  A    between atoms: N_16  and  C_17
    7  A    between atoms: C_24  and  N_26
    8  A    between atoms: C_31  and  C_38
    9  A    between atoms: C_33  and  C_34
                            x       y       z     vdW  Elec       q    Type
                         _______ _______ _______ _____ _____    ______ ____

>  <TORSDO>
F 9

$$$$
=
 OpenBabel07192307433D

 85 90  0  0  1  0  0  0  0  0999 V2000
    1.8060   12.4290   18.7490 C   0  0  0  0  0  0  0  0  0  0  0  0
    0.6930   12.4990   19.5980 C   0  0  0  0  0  0  0  0  0  0  0  0
    0.1310   11.3370   20.1030 C   0  0  0  0  0  0  0  0  0  0  0  0
   -0.9600   11.3090   20.9740 N   0  0  0  0  0  0  0  0  0  0  0  0
   -1.7310   12.3500   21.4120 C   0  0  0  0  0  0  0  0  0  0  0  0
   -1.6400   13.5180   21.0600 O   0  0  0  0  0  0  0  0  0  0  0  0
   -2.6450   11.9360   22.3600 N   0  0  0  0  0  0  0  0  0  0  0  0
    0.6220   10.1110   19.8260 N   0  0  0  0  0  0  0  0  0  0  0  0
    1.7170   10.0220   19.0340 C   0  0  0  0  0  0  0  0  0  0  0  0
    2.3210   11.1530   18.4880 C   0  0  0  0  0  0  0  0  0  0  0  0
    0.2880   13.4630   19.8740 H   0  0  0  0  0  0  0  0  0  0  0  0
   -1.1850   10.3770   21.2770 H   0  0  0  0  0  0  0  0  0  0  0  0
   -2.8540   10.9490   22.3980 H   0  0  0  0  0  0  0  0  0  0  0  0
    3.1770   11.0350   17.8360 H   0  0  0  0  0  0  0  0  0  0  0  0
   -3.6410   12.8430   22.9110 C   0  0  0  0  0  0  0  0  0  0  0  0
   -4.0180   13.9100   21.8820 C   0  0  0  0  0  0  0  0  0  0  0  0
   -5.1180   14.8380   22.4000 C   0  0  0  0  0  0  0  0  0  0  0  0
   -5.0790   15.0600   23.9130 C   0  0  0  0  0  0  0  0  0  0  0  0
   -3.6740   14.8830   24.4730 C   0  0  0  0  0  0  0  0  0  0  0  0
   -3.1340   13.4740   24.2210 C   0  0  0  0  0  0  0  0  0  0  0  0
   -4.5400   12.2550   23.1360 H   0  0  0  0  0  0  0  0  0  0  0  0
   -4.3490   13.4420   20.9450 H   0  0  0  0  0  0  0  0  0  0  0  0
   -3.1320   14.5080   21.6270 H   0  0  0  0  0  0  0  0  0  0  0  0
   -6.1020   14.4310   22.1360 H   0  0  0  0  0  0  0  0  0  0  0  0
   -5.0380   15.7990   21.8790 H   0  0  0  0  0  0  0  0  0  0  0  0
   -5.4600   16.0610   24.1470 H   0  0  0  0  0  0  0  0  0  0  0  0
   -5.7550   14.3440   24.4010 H   0  0  0  0  0  0  0  0  0  0  0  0
   -3.0030   15.6130   24.0050 H   0  0  0  0  0  0  0  0  0  0  0  0
   -3.6630   15.0930   25.5480 H   0  0  0  0  0  0  0  0  0  0  0  0
   -2.0380   13.5120   24.2440 H   0  0  0  0  0  0  0  0  0  0  0  0
   -3.4230   12.8190   25.0530 H   0  0  0  0  0  0  0  0  0  0  0  0
    2.2180    8.7280   18.8000 N   0  0  0  0  0  0  0  0  0  0  0  0
    1.7840    7.6250   19.6380 C   0  0  0  0  0  0  0  0  0  0  0  0
    2.5140    6.4550   19.0580 C   0  0  0  0  0  0  0  0  0  0  0  0
    3.3110    6.8810   18.0040 C   0  0  0  0  0  0  0  0  0  0  0  0
    4.1110    6.0170   17.2760 C   0  0  0  0  0  0  0  0  0  0  0  0
    4.1160    4.6530   17.6170 C   0  0  0  0  0  0  0  0  0  0  0  0
    3.2990    4.2220   18.6870 C   0  0  0  0  0  0  0  0  0  0  0  0
    2.4860    5.1130   19.4230 C   0  0  0  0  0  0  0  0  0  0  0  0
    3.1450    8.3330   17.8450 C   0  0  0  0  0  0  0  0  0  0  0  0
    3.7760    8.9750   17.0270 O   0  0  0  0  0  0  0  0  0  0  0  0
    0.7000    7.4980   19.5530 H   0  0  0  0  0  0  0  0  0  0  0  0
    2.0930    7.8010   20.6720 H   0  0  0  0  0  0  0  0  0  0  0  0
    4.7130    6.4090   16.4590 H   0  0  0  0  0  0  0  0  0  0  0  0
    3.2810    3.1700   18.9630 H   0  0  0  0  0  0  0  0  0  0  0  0
    5.0010    3.7050   16.8130 C   0  0  0  0  0  0  0  0  0  0  0  0
    4.5580    3.5330   15.3490 C   0  0  0  0  0  0  0  0  0  0  0  0
    5.1530    4.5400   14.3660 C   0  0  0  0  0  0  0  0  0  0  0  0
    6.6620    4.6650   14.5240 C   0  0  0  0  0  0  0  0  0  0  0  0
    7.0550    5.0130   15.9540 C   0  0  0  0  0  0  0  0  0  0  0  0
    6.5040    4.0020   16.9540 C   0  0  0  0  0  0  0  0  0  0  0  0
    4.8570    2.7150   17.2720 H   0  0  0  0  0  0  0  0  0  0  0  0
    4.8720    2.5330   15.0210 H   0  0  0  0  0  0  0  0  0  0  0  0
    3.4640    3.5440   15.2670 H   0  0  0  0  0  0  0  0  0  0  0  0
    4.6830    5.5190   14.4930 H   0  0  0  0  0  0  0  0  0  0  0  0
    4.9180    4.2230   13.3410 H   0  0  0  0  0  0  0  0  0  0  0  0
    7.0390    5.4340   13.8400 H   0  0  0  0  0  0  0  0  0  0  0  0
    7.1390    3.7210   14.2340 H   0  0  0  0  0  0  0  0  0  0  0  0
    8.1480    5.0380   16.0330 H   0  0  0  0  0  0  0  0  0  0  0  0
    6.7100    6.0230   16.2010 H   0  0  0  0  0  0  0  0  0  0  0  0
    7.0470    3.0600   16.7980 H   0  0  0  0  0  0  0  0  0  0  0  0
    6.7400    4.3280   17.9760 H   0  0  0  0  0  0  0  0  0  0  0  0
    1.6170    4.6370   20.5550 C   0  0  0  0  0  0  0  0  0  0  0  0
    0.3980    5.2450   20.5610 F   0  0  0  0  0  0  0  0  0  0  0  0
    1.3630    3.3010   20.4880 F   0  0  0  0  0  0  0  0  0  0  0  0
    2.1500    4.8570   21.7880 F   0  0  0  0  0  0  0  0  0  0  0  0
    2.4510   13.7140   18.2250 C   0  0  2  0  0  0  0  0  0  0  0  0
    1.8040   14.5170   18.6130 H   0  0  0  0  0  0  0  0  0  0  0  0
    2.4060   13.8260   16.6890 C   0  0  0  0  0  0  0  0  0  0  0  0
    1.5290   13.3070   16.2820 H   0  0  0  0  0  0  0  0  0  0  0  0
    2.3670   14.8720   16.3640 H   0  0  0  0  0  0  0  0  0  0  0  0
    3.2830   13.3690   16.2220 H   0  0  0  0  0  0  0  0  0  0  0  0
    3.8720   14.0710   18.7390 C   0  0  0  0  0  0  0  0  0  0  0  0
    4.4880   13.1670   18.6550 H   0  0  0  0  0  0  0  0  0  0  0  0
    4.3570   14.8020   18.0840 H   0  0  0  0  0  0  0  0  0  0  0  0
    3.9110   14.5680   20.1490 C   0  0  0  0  0  0  0  0  0  0  0  0
    2.8750   14.8150   20.9270 N   0  0  0  0  0  0  0  0  0  0  0  0
    3.3400   15.2400   22.1470 N   0  0  0  0  0  0  0  0  0  0  0  0
    4.6510   15.2520   22.0890 C   0  0  0  0  0  0  0  0  0  0  0  0
    5.0540   14.8470   20.8560 N   0  0  0  0  0  0  0  0  0  0  0  0
    5.3200   15.5380   22.8890 H   0  0  0  0  0  0  0  0  0  0  0  0
    6.4160   14.7430   20.4060 C   0  0  0  0  0  0  0  0  0  0  0  0
    6.4350   14.1770   19.4720 H   0  0  0  0  0  0  0  0  0  0  0  0
    7.0110   14.2220   21.1600 H   0  0  0  0  0  0  0  0  0  0  0  0
    6.8090   15.7520   20.2580 H   0  0  0  0  0  0  0  0  0  0  0  0
  1  2  1  0  0  0  0
  2 11  1  0  0  0  0
  2  3  2  0  0  0  0
  3  4  1  0  0  0  0
  4 12  1  0  0  0  0
  4  5  1  0  0  0  0
  5  7  1  0  0  0  0
  6  5  2  0  0  0  0
  7 13  1  0  0  0  0
  7 15  1  0  0  0  0
  8  3  1  0  0  0  0
  9  8  2  0  0  0  0
 10  1  2  0  0  0  0
 10  9  1  0  0  0  0
 14 10  1  0  0  0  0
 15 21  1  0  0  0  0
 15 20  1  0  0  0  0
 16 17  1  0  0  0  0
 16 15  1  0  0  0  0
 17 18  1  0  0  0  0
 18 26  1  0  0  0  0
 18 27  1  0  0  0  0
 18 19  1  0  0  0  0
 19 29  1  0  0  0  0
 20 30  1  0  0  0  0
 20 19  1  0  0  0  0
 20 31  1  0  0  0  0
 22 16  1  0  0  0  0
 23 16  1  0  0  0  0
 24 17  1  0  0  0  0
 25 17  1  0  0  0  0
 28 19  1  0  0  0  0
 32  9  1  0  0  0  0
 32 33  1  0  0  0  0
 33 43  1  0  0  0  0
 34 39  1  0  0  0  0
 34 33  1  0  0  0  0
 35 34  2  0  0  0  0
 36 37  2  0  0  0  0
 36 35  1  0  0  0  0
 37 38  1  0  0  0  0
 38 45  1  0  0  0  0
 38 39  2  0  0  0  0
 39 63  1  0  0  0  0
 40 35  1  0  0  0  0
 40 32  1  0  0  0  0
 41 40  2  0  0  0  0
 42 33  1  0  0  0  0
 44 36  1  0  0  0  0
 46 51  1  0  0  0  0
 46 52  1  0  0  0  0
 46 37  1  0  0  0  0
 47 46  1  0  0  0  0
 48 55  1  0  0  0  0
 48 49  1  0  0  0  0
 48 47  1  0  0  0  0
 49 50  1  0  0  0  0
 50 59  1  0  0  0  0
 50 60  1  0  0  0  0
 50 51  1  0  0  0  0
 51 62  1  0  0  0  0
 53 47  1  0  0  0  0
 54 47  1  0  0  0  0
 56 48  1  0  0  0  0
 57 49  1  0  0  0  0
 58 49  1  0  0  0  0
 61 51  1  0  0  0  0
 63 64  1  0  0  0  0
 63 66  1  0  0  0  0
 65 63  1  0  0  0  0
 67 68  1  1  0  0  0
 67 73  1  0  0  0  0
 67  1  1  0  0  0  0
 69 67  1  0  0  0  0
 70 69  1  0  0  0  0
 71 69  1  0  0  0  0
 72 69  1  0  0  0  0
 73 76  1  0  0  0  0
 74 73  1  0  0  0  0
 75 73  1  0  0  0  0
 76 80  1  0  0  0  0
 76 77  2  0  0  0  0
 77 78  1  0  0  0  0
 79 78  2  0  0  0  0
 79 81  1  0  0  0  0
 80 79  1  0  0  0  0
 82 80  1  0  0  0  0
 82 84  1  0  0  0  0
 83 82  1  0  0  0  0
 85 82  1  0  0  0  0
M  END
>  <MODEL>
10

>  <REMARK>
 VINA RESULT:    -7.177      3.801     11.594
 INTER + INTRA:          -7.340
 INTER:                  -7.156
 INTRA:                  -0.183
 UNBOUND:                 3.194
  Name = 
  9 active torsions:
  status: ('A' for Active; 'I' for Inactive)
    1  A    between atoms: C_1  and  C_2
    2  A    between atoms: C_2  and  C_3
    3  A    between atoms: C_2  and  C_10
    4  A    between atoms: C_3  and  C_4
    5  A    between atoms: N_8  and  C_9
    6  A    between atoms: N_16  and  C_17
    7  A    between atoms: C_24  and  N_26
    8  A    between atoms: C_31  and  C_38
    9  A    between atoms: C_33  and  C_34
                            x       y       z     vdW  Elec       q    Type
                         _______ _______ _______ _____ _____    ______ ____

>  <TORSDO>
F 9

$$$$
=
 OpenBabel07192307433D

 85 90  0  0  1  0  0  0  0  0999 V2000
   -0.6200   10.6930   17.8930 C   0  0  0  0  0  0  0  0  0  0  0  0
   -0.9230   11.1180   19.1930 C   0  0  0  0  0  0  0  0  0  0  0  0
   -0.3810   10.4560   20.2840 C   0  0  0  0  0  0  0  0  0  0  0  0
   -0.6050   10.8220   21.6130 N   0  0  0  0  0  0  0  0  0  0  0  0
   -1.4390   11.7900   22.1040 C   0  0  0  0  0  0  0  0  0  0  0  0
   -2.2060   12.4850   21.4530 O   0  0  0  0  0  0  0  0  0  0  0  0
   -1.2960   11.9300   23.4700 N   0  0  0  0  0  0  0  0  0  0  0  0
    0.4580    9.4080   20.1550 N   0  0  0  0  0  0  0  0  0  0  0  0
    0.7910    9.0010   18.9070 C   0  0  0  0  0  0  0  0  0  0  0  0
    0.2700    9.6180   17.7720 C   0  0  0  0  0  0  0  0  0  0  0  0
   -1.5640   11.9770   19.3420 H   0  0  0  0  0  0  0  0  0  0  0  0
   -0.0800   10.2600   22.2600 H   0  0  0  0  0  0  0  0  0  0  0  0
   -0.8710   11.1630   23.9710 H   0  0  0  0  0  0  0  0  0  0  0  0
    0.5390    9.2430   16.7930 H   0  0  0  0  0  0  0  0  0  0  0  0
   -2.1410   12.8330   24.2390 C   0  0  0  0  0  0  0  0  0  0  0  0
   -3.6170   12.5430   23.9670 C   0  0  0  0  0  0  0  0  0  0  0  0
   -4.5370   13.4230   24.8150 C   0  0  0  0  0  0  0  0  0  0  0  0
   -3.9600   14.8070   25.1190 C   0  0  0  0  0  0  0  0  0  0  0  0
   -2.9750   15.2550   24.0490 C   0  0  0  0  0  0  0  0  0  0  0  0
   -1.7860   14.3000   23.9330 C   0  0  0  0  0  0  0  0  0  0  0  0
   -1.9470   12.6450   25.3030 H   0  0  0  0  0  0  0  0  0  0  0  0
   -3.8450   11.4860   24.1620 H   0  0  0  0  0  0  0  0  0  0  0  0
   -3.8380   12.7100   22.9030 H   0  0  0  0  0  0  0  0  0  0  0  0
   -4.7550   12.9230   25.7670 H   0  0  0  0  0  0  0  0  0  0  0  0
   -5.4980   13.5240   24.2990 H   0  0  0  0  0  0  0  0  0  0  0  0
   -4.7780   15.5320   25.2140 H   0  0  0  0  0  0  0  0  0  0  0  0
   -3.4500   14.7810   26.0920 H   0  0  0  0  0  0  0  0  0  0  0  0
   -3.4890   15.3060   23.0820 H   0  0  0  0  0  0  0  0  0  0  0  0
   -2.6130   16.2670   24.2630 H   0  0  0  0  0  0  0  0  0  0  0  0
   -1.3540   14.4020   22.9310 H   0  0  0  0  0  0  0  0  0  0  0  0
   -0.9970   14.6150   24.6280 H   0  0  0  0  0  0  0  0  0  0  0  0
    1.6970    7.9280   18.8180 N   0  0  0  0  0  0  0  0  0  0  0  0
    1.5810    6.8090   19.7370 C   0  0  0  0  0  0  0  0  0  0  0  0
    2.6880    5.9020   19.3020 C   0  0  0  0  0  0  0  0  0  0  0  0
    3.3800    6.4850   18.2480 C   0  0  0  0  0  0  0  0  0  0  0  0
    4.4650    5.8770   17.6410 C   0  0  0  0  0  0  0  0  0  0  0  0
    4.8840    4.6190   18.1090 C   0  0  0  0  0  0  0  0  0  0  0  0
    4.1740    4.0270   19.1780 C   0  0  0  0  0  0  0  0  0  0  0  0
    3.0670    4.6560   19.7900 C   0  0  0  0  0  0  0  0  0  0  0  0
    2.7670    7.7870   17.9460 C   0  0  0  0  0  0  0  0  0  0  0  0
    3.2160    8.5360   17.0990 O   0  0  0  0  0  0  0  0  0  0  0  0
    0.6040    6.3300   19.6170 H   0  0  0  0  0  0  0  0  0  0  0  0
    1.7410    7.1540   20.7620 H   0  0  0  0  0  0  0  0  0  0  0  0
    4.9660    6.3830   16.8180 H   0  0  0  0  0  0  0  0  0  0  0  0
    4.4750    3.0500   19.5510 H   0  0  0  0  0  0  0  0  0  0  0  0
    6.0820    3.9550   17.4370 C   0  0  0  0  0  0  0  0  0  0  0  0
    5.7460    3.2790   16.0950 C   0  0  0  0  0  0  0  0  0  0  0  0
    5.8590    4.1800   14.8660 C   0  0  0  0  0  0  0  0  0  0  0  0
    7.1770    4.9430   14.8400 C   0  0  0  0  0  0  0  0  0  0  0  0
    7.3930    5.7450   16.1170 C   0  0  0  0  0  0  0  0  0  0  0  0
    7.3210    4.8630   17.3580 C   0  0  0  0  0  0  0  0  0  0  0  0
    6.3690    3.1310   18.1070 H   0  0  0  0  0  0  0  0  0  0  0  0
    6.4500    2.4480   15.9560 H   0  0  0  0  0  0  0  0  0  0  0  0
    4.7490    2.8240   16.1250 H   0  0  0  0  0  0  0  0  0  0  0  0
    5.0220    4.8820   14.8320 H   0  0  0  0  0  0  0  0  0  0  0  0
    5.7760    3.5640   13.9610 H   0  0  0  0  0  0  0  0  0  0  0  0
    7.1940    5.6150   13.9750 H   0  0  0  0  0  0  0  0  0  0  0  0
    8.0050    4.2360   14.7090 H   0  0  0  0  0  0  0  0  0  0  0  0
    8.3750    6.2310   16.0770 H   0  0  0  0  0  0  0  0  0  0  0  0
    6.6570    6.5540   16.1780 H   0  0  0  0  0  0  0  0  0  0  0  0
    8.2100    4.2160   17.3510 H   0  0  0  0  0  0  0  0  0  0  0  0
    7.4030    5.4860   18.2590 H   0  0  0  0  0  0  0  0  0  0  0  0
    2.3180    4.0080   20.9220 C   0  0  0  0  0  0  0  0  0  0  0  0
    2.4810    4.6760   22.0980 F   0  0  0  0  0  0  0  0  0  0  0  0
    0.9750    3.9690   20.7020 F   0  0  0  0  0  0  0  0  0  0  0  0
    2.6960    2.7240   21.1680 F   0  0  0  0  0  0  0  0  0  0  0  0
   -1.1870   11.4490   16.6890 C   0  0  2  0  0  0  0  0  0  0  0  0
   -0.4480   11.2750   15.8900 H   0  0  0  0  0  0  0  0  0  0  0  0
   -1.2380   12.9740   16.9060 C   0  0  0  0  0  0  0  0  0  0  0  0
   -0.2530   13.3650   17.1860 H   0  0  0  0  0  0  0  0  0  0  0  0
   -1.5710   13.4960   16.0030 H   0  0  0  0  0  0  0  0  0  0  0  0
   -1.9220   13.2460   17.7150 H   0  0  0  0  0  0  0  0  0  0  0  0
   -2.5330   10.9540   16.0940 C   0  0  0  0  0  0  0  0  0  0  0  0
   -3.0140   11.8150   15.6120 H   0  0  0  0  0  0  0  0  0  0  0  0
   -2.3660   10.2370   15.2830 H   0  0  0  0  0  0  0  0  0  0  0  0
   -3.4690   10.3590   17.0970 C   0  0  0  0  0  0  0  0  0  0  0  0
   -3.3640    9.1750   17.6680 N   0  0  0  0  0  0  0  0  0  0  0  0
   -4.4160    9.0170   18.5360 N   0  0  0  0  0  0  0  0  0  0  0  0
   -5.1470   10.1050   18.4750 C   0  0  0  0  0  0  0  0  0  0  0  0
   -4.5980   10.9700   17.5820 N   0  0  0  0  0  0  0  0  0  0  0  0
   -6.0490   10.2980   19.0400 H   0  0  0  0  0  0  0  0  0  0  0  0
   -5.1200   12.2640   17.2310 C   0  0  0  0  0  0  0  0  0  0  0  0
   -4.8950   12.4610   16.1810 H   0  0  0  0  0  0  0  0  0  0  0  0
   -4.6500   13.0280   17.8550 H   0  0  0  0  0  0  0  0  0  0  0  0
   -6.2000   12.2600   17.4040 H   0  0  0  0  0  0  0  0  0  0  0  0
  1  2  1  0  0  0  0
  2 11  1  0  0  0  0
  2  3  2  0  0  0  0
  3  4  1  0  0  0  0
  4  5  1  0  0  0  0
  4 12  1  0  0  0  0
  5  7  1  0  0  0  0
  6  5  2  0  0  0  0
  7 13  1  0  0  0  0
  7 15  1  0  0  0  0
  8  3  1  0  0  0  0
  9  8  2  0  0  0  0
 10  1  2  0  0  0  0
 10  9  1  0  0  0  0
 14 10  1  0  0  0  0
 15 21  1  0  0  0  0
 16 22  1  0  0  0  0
 16 15  1  0  0  0  0
 16 17  1  0  0  0  0
 17 18  1  0  0  0  0
 17 24  1  0  0  0  0
 18 26  1  0  0  0  0
 18 27  1  0  0  0  0
 19 29  1  0  0  0  0
 19 18  1  0  0  0  0
 20 19  1  0  0  0  0
 20 15  1  0  0  0  0
 20 31  1  0  0  0  0
 23 16  1  0  0  0  0
 25 17  1  0  0  0  0
 28 19  1  0  0  0  0
 30 20  1  0  0  0  0
 32  9  1  0  0  0  0
 32 33  1  0  0  0  0
 33 43  1  0  0  0  0
 34 33  1  0  0  0  0
 34 39  1  0  0  0  0
 35 34  2  0  0  0  0
 36 37  2  0  0  0  0
 36 35  1  0  0  0  0
 37 38  1  0  0  0  0
 38 45  1  0  0  0  0
 38 39  2  0  0  0  0
 39 63  1  0  0  0  0
 40 35  1  0  0  0  0
 40 32  1  0  0  0  0
 41 40  2  0  0  0  0
 42 33  1  0  0  0  0
 44 36  1  0  0  0  0
 46 52  1  0  0  0  0
 46 37  1  0  0  0  0
 47 54  1  0  0  0  0
 47 46  1  0  0  0  0
 48 47  1  0  0  0  0
 49 48  1  0  0  0  0
 49 50  1  0  0  0  0
 50 60  1  0  0  0  0
 50 51  1  0  0  0  0
 51 46  1  0  0  0  0
 51 62  1  0  0  0  0
 53 47  1  0  0  0  0
 55 48  1  0  0  0  0
 56 48  1  0  0  0  0
 57 49  1  0  0  0  0
 58 49  1  0  0  0  0
 59 50  1  0  0  0  0
 61 51  1  0  0  0  0
 63 66  1  0  0  0  0
 63 64  1  0  0  0  0
 65 63  1  0  0  0  0
 67 68  1  6  0  0  0
 67 69  1  0  0  0  0
 67  1  1  0  0  0  0
 69 70  1  0  0  0  0
 69 72  1  0  0  0  0
 71 69  1  0  0  0  0
 73 67  1  0  0  0  0
 73 76  1  0  0  0  0
 74 73  1  0  0  0  0
 75 73  1  0  0  0  0
 76 80  1  0  0  0  0
 76 77  2  0  0  0  0
 77 78  1  0  0  0  0
 79 78  2  0  0  0  0
 79 81  1  0  0  0  0
 80 79  1  0  0  0  0
 82 85  1  0  0  0  0
 82 80  1  0  0  0  0
 82 84  1  0  0  0  0
 83 82  1  0  0  0  0
M  END
>  <MODEL>
11

>  <REMARK>
 VINA RESULT:    -7.012      3.723     11.203
 INTER + INTRA:          -7.097
 INTER:                  -6.360
 INTRA:                  -0.737
 UNBOUND:                 3.194
  Name = 
  9 active torsions:
  status: ('A' for Active; 'I' for Inactive)
    1  A    between atoms: C_1  and  C_2
    2  A    between atoms: C_2  and  C_3
    3  A    between atoms: C_2  and  C_10
    4  A    between atoms: C_3  and  C_4
    5  A    between atoms: N_8  and  C_9
    6  A    between atoms: N_16  and  C_17
    7  A    between atoms: C_24  and  N_26
    8  A    between atoms: C_31  and  C_38
    9  A    between atoms: C_33  and  C_34
                            x       y       z     vdW  Elec       q    Type
                         _______ _______ _______ _____ _____    ______ ____

>  <TORSDO>
F 9

$$$$
