=
 OpenBabel07192307433D

 44 48  0  0  0  0  0  0  0  0999 V2000
    3.4860    5.1870   19.1240 C   0  0  0  0  0  0  0  0  0  0  0  0
    2.7400    6.2250   19.6410 C   0  0  0  0  0  0  0  0  0  0  0  0
    2.7090    7.3900   18.9090 C   0  0  0  0  0  0  0  0  0  0  0  0
    1.9690    8.5060   19.3640 N   0  0  0  0  0  0  0  0  0  0  0  0
    1.2050    8.5070   20.5970 C   0  0  0  0  0  0  0  0  0  0  0  0
    0.6160    9.8800   20.6360 C   0  0  0  0  0  0  0  0  0  0  0  0
    1.0230   10.5920   19.5110 C   0  0  0  0  0  0  0  0  0  0  0  0
    0.6350   11.8970   19.2740 C   0  0  0  0  0  0  0  0  0  0  0  0
   -0.1970   12.5030   20.2140 C   0  0  0  0  0  0  0  0  0  0  0  0
   -0.6190   11.7970   21.3580 C   0  0  0  0  0  0  0  0  0  0  0  0
   -0.2160   10.4680   21.5870 C   0  0  0  0  0  0  0  0  0  0  0  0
    1.8860    9.7260   18.6950 C   0  0  0  0  0  0  0  0  0  0  0  0
    2.3770   10.1170   17.6520 O   0  0  0  0  0  0  0  0  0  0  0  0
    3.3760    7.4920   17.7520 N   0  0  0  0  0  0  0  0  0  0  0  0
    4.0880    6.4450   17.3060 C   0  0  0  0  0  0  0  0  0  0  0  0
    4.1600    5.2770   17.9660 N   0  0  0  0  0  0  0  0  0  0  0  0
    2.2160    6.0980   20.5790 H   0  0  0  0  0  0  0  0  0  0  0  0
    0.4180    7.7470   20.5460 H   0  0  0  0  0  0  0  0  0  0  0  0
    1.8730    8.3450   21.4480 H   0  0  0  0  0  0  0  0  0  0  0  0
    0.9710   12.4240   18.3860 H   0  0  0  0  0  0  0  0  0  0  0  0
   -0.5250   13.5300   20.0620 H   0  0  0  0  0  0  0  0  0  0  0  0
   -1.2700   12.3020   22.0720 H   0  0  0  0  0  0  0  0  0  0  0  0
    4.8310    6.5820   16.0020 C   0  0  0  0  0  0  0  0  0  0  0  0
    6.3040    6.2470   15.9300 C   0  0  0  0  0  0  0  0  0  0  0  0
    5.3050    5.3520   15.2610 C   0  0  0  0  0  0  0  0  0  0  0  0
    4.5070    7.4190   15.3890 H   0  0  0  0  0  0  0  0  0  0  0  0
    6.9310    6.8780   15.3100 H   0  0  0  0  0  0  0  0  0  0  0  0
    6.7930    5.8960   16.8320 H   0  0  0  0  0  0  0  0  0  0  0  0
    5.1250    4.3780   15.7030 H   0  0  0  0  0  0  0  0  0  0  0  0
    5.2560    5.3640   14.1780 H   0  0  0  0  0  0  0  0  0  0  0  0
    2.5850    3.2910   20.5700 N   0  0  0  0  0  0  0  0  0  0  0  0
    3.1260    2.1360   21.0480 C   0  0  0  0  0  0  0  0  0  0  0  0
    4.3710    2.0330   20.6500 N   0  0  0  0  0  0  0  0  0  0  0  0
    4.6520    3.1430   19.8940 N   0  0  0  0  0  0  0  0  0  0  0  0
    3.5740    3.9130   19.8400 C   0  0  0  0  0  0  0  0  0  0  0  0
    2.5930    1.4240   21.6630 H   0  0  0  0  0  0  0  0  0  0  0  0
    1.2350    3.7310   20.8070 C   0  0  0  0  0  0  0  0  0  0  0  0
    0.7450    3.0230   21.4790 H   0  0  0  0  0  0  0  0  0  0  0  0
    1.2530    4.7180   21.2780 H   0  0  0  0  0  0  0  0  0  0  0  0
    0.7120    3.8020   19.8510 H   0  0  0  0  0  0  0  0  0  0  0  0
   -0.6600    9.7040   22.8050 C   0  0  0  0  0  0  0  0  0  0  0  0
    0.3500    9.5390   23.7020 F   0  0  0  0  0  0  0  0  0  0  0  0
   -1.6530   10.3460   23.4780 F   0  0  0  0  0  0  0  0  0  0  0  0
   -1.1310    8.4580   22.5320 F   0  0  0  0  0  0  0  0  0  0  0  0
  1  2  1  0  0  0  0
  1 35  1  0  0  0  0
  2 17  1  0  0  0  0
  3  4  1  0  0  0  0
  3  2  2  0  0  0  0
  4  5  1  0  0  0  0
  5  6  1  0  0  0  0
  5 19  1  0  0  0  0
  6 11  1  0  0  0  0
  7  6  2  0  0  0  0
  8  7  1  0  0  0  0
  8  9  2  0  0  0  0
  9 10  1  0  0  0  0
 10 11  2  0  0  0  0
 10 22  1  0  0  0  0
 11 41  1  0  0  0  0
 12  4  1  0  0  0  0
 12  7  1  0  0  0  0
 13 12  2  0  0  0  0
 14  3  1  0  0  0  0
 15 14  2  0  0  0  0
 15 16  1  0  0  0  0
 16  1  2  0  0  0  0
 18  5  1  0  0  0  0
 20  8  1  0  0  0  0
 21  9  1  0  0  0  0
 23 15  1  0  0  0  0
 24 23  1  0  0  0  0
 24 28  1  0  0  0  0
 25 29  1  0  0  0  0
 25 24  1  0  0  0  0
 25 23  1  0  0  0  0
 26 23  1  0  0  0  0
 27 24  1  0  0  0  0
 30 25  1  0  0  0  0
 31 37  1  0  0  0  0
 31 32  1  0  0  0  0
 32 36  1  0  0  0  0
 33 32  2  0  0  0  0
 34 33  1  0  0  0  0
 35 34  2  0  0  0  0
 35 31  1  0  0  0  0
 37 39  1  0  0  0  0
 37 38  1  0  0  0  0
 40 37  1  0  0  0  0
 41 43  1  0  0  0  0
 41 42  1  0  0  0  0
 44 41  1  0  0  0  0
M  END
>  <MODEL>
1

>  <REMARK>
 VINA RESULT:    -7.612      0.000      0.000
 INTER + INTRA:          -9.650
 INTER:                  -9.897
 INTRA:                   0.247
 UNBOUND:                -0.480
  Name = 
  4 active torsions:
  status: ('A' for Active; 'I' for Inactive)
    1  A    between atoms: C_1  and  N_2
    2  A    between atoms: C_6  and  C_7
    3  A    between atoms: C_17  and  C_18
    4  A    between atoms: C_25  and  C_26
                            x       y       z     vdW  Elec       q    Type
                         _______ _______ _______ _____ _____    ______ ____

>  <TORSDO>
F 4

$$$$
=
 OpenBabel07192307433D

 44 48  0  0  0  0  0  0  0  0999 V2000
    0.3370   10.6460   20.4330 C   0  0  0  0  0  0  0  0  0  0  0  0
    0.7600    9.3420   20.2830 C   0  0  0  0  0  0  0  0  0  0  0  0
    1.6600    9.0950   19.2710 C   0  0  0  0  0  0  0  0  0  0  0  0
    2.1470    7.7880   19.0440 N   0  0  0  0  0  0  0  0  0  0  0  0
    1.7520    6.6410   19.8400 C   0  0  0  0  0  0  0  0  0  0  0  0
    2.5190    5.5150   19.2250 C   0  0  0  0  0  0  0  0  0  0  0  0
    3.2820    5.9970   18.1660 C   0  0  0  0  0  0  0  0  0  0  0  0
    4.0980    5.1820   17.4040 C   0  0  0  0  0  0  0  0  0  0  0  0
    4.1400    3.8270   17.7290 C   0  0  0  0  0  0  0  0  0  0  0  0
    3.3750    3.3230   18.7980 C   0  0  0  0  0  0  0  0  0  0  0  0
    2.5480    4.1640   19.5660 C   0  0  0  0  0  0  0  0  0  0  0  0
    3.0520    7.4430   18.0410 C   0  0  0  0  0  0  0  0  0  0  0  0
    3.6050    8.1050   17.1830 O   0  0  0  0  0  0  0  0  0  0  0  0
    2.0940   10.0870   18.4820 N   0  0  0  0  0  0  0  0  0  0  0  0
    1.6400   11.3350   18.6790 C   0  0  0  0  0  0  0  0  0  0  0  0
    0.7640   11.6490   19.6480 N   0  0  0  0  0  0  0  0  0  0  0  0
    0.3840    8.5730   20.9440 H   0  0  0  0  0  0  0  0  0  0  0  0
    2.0510    6.7920   20.8820 H   0  0  0  0  0  0  0  0  0  0  0  0
    0.6740    6.4760   19.7440 H   0  0  0  0  0  0  0  0  0  0  0  0
    4.6800    5.5910   16.5830 H   0  0  0  0  0  0  0  0  0  0  0  0
    4.7720    3.1530   17.1520 H   0  0  0  0  0  0  0  0  0  0  0  0
    3.4320    2.2580   19.0240 H   0  0  0  0  0  0  0  0  0  0  0  0
    2.1420   12.4350   17.7780 C   0  0  0  0  0  0  0  0  0  0  0  0
    1.8660   13.8810   18.1220 C   0  0  0  0  0  0  0  0  0  0  0  0
    3.2610   13.3440   18.2350 C   0  0  0  0  0  0  0  0  0  0  0  0
    2.1220   12.1890   16.7200 H   0  0  0  0  0  0  0  0  0  0  0  0
    1.6360   14.5550   17.3040 H   0  0  0  0  0  0  0  0  0  0  0  0
    1.3180   14.0940   19.0330 H   0  0  0  0  0  0  0  0  0  0  0  0
    3.6690   13.2040   19.2300 H   0  0  0  0  0  0  0  0  0  0  0  0
    3.9890   13.6590   17.4970 H   0  0  0  0  0  0  0  0  0  0  0  0
   -0.6960   10.4730   22.7570 N   0  0  0  0  0  0  0  0  0  0  0  0
   -1.7400   11.0990   23.3690 C   0  0  0  0  0  0  0  0  0  0  0  0
   -2.2860   11.9580   22.5440 N   0  0  0  0  0  0  0  0  0  0  0  0
   -1.5880   11.8940   21.3650 N   0  0  0  0  0  0  0  0  0  0  0  0
   -0.6210   10.9950   21.4840 C   0  0  0  0  0  0  0  0  0  0  0  0
   -2.0540   10.9030   24.3850 H   0  0  0  0  0  0  0  0  0  0  0  0
    0.1360    9.4690   23.3640 C   0  0  0  0  0  0  0  0  0  0  0  0
    0.6480    9.9060   24.2250 H   0  0  0  0  0  0  0  0  0  0  0  0
   -0.4870    8.6370   23.7040 H   0  0  0  0  0  0  0  0  0  0  0  0
    0.8480    9.1020   22.6210 H   0  0  0  0  0  0  0  0  0  0  0  0
    1.7250    3.6360   20.7100 C   0  0  0  0  0  0  0  0  0  0  0  0
    1.7380    2.2760   20.7660 F   0  0  0  0  0  0  0  0  0  0  0  0
    2.1930    4.0610   21.9150 F   0  0  0  0  0  0  0  0  0  0  0  0
    0.4160    4.0010   20.6620 F   0  0  0  0  0  0  0  0  0  0  0  0
  1 35  1  0  0  0  0
  2  1  1  0  0  0  0
  2 17  1  0  0  0  0
  3  2  2  0  0  0  0
  4  3  1  0  0  0  0
  4  5  1  0  0  0  0
  5 18  1  0  0  0  0
  6 11  1  0  0  0  0
  6  5  1  0  0  0  0
  7  6  2  0  0  0  0
  8  9  2  0  0  0  0
  8  7  1  0  0  0  0
  9 10  1  0  0  0  0
 10 22  1  0  0  0  0
 10 11  2  0  0  0  0
 11 41  1  0  0  0  0
 12  7  1  0  0  0  0
 12  4  1  0  0  0  0
 13 12  2  0  0  0  0
 14 15  2  0  0  0  0
 14  3  1  0  0  0  0
 15 16  1  0  0  0  0
 16  1  2  0  0  0  0
 19  5  1  0  0  0  0
 20  8  1  0  0  0  0
 21  9  1  0  0  0  0
 23 24  1  0  0  0  0
 23 25  1  0  0  0  0
 23 15  1  0  0  0  0
 24 25  1  0  0  0  0
 24 28  1  0  0  0  0
 25 29  1  0  0  0  0
 26 23  1  0  0  0  0
 27 24  1  0  0  0  0
 30 25  1  0  0  0  0
 31 37  1  0  0  0  0
 31 32  1  0  0  0  0
 32 36  1  0  0  0  0
 33 32  2  0  0  0  0
 34 35  2  0  0  0  0
 34 33  1  0  0  0  0
 35 31  1  0  0  0  0
 37 39  1  0  0  0  0
 37 38  1  0  0  0  0
 40 37  1  0  0  0  0
 41 42  1  0  0  0  0
 41 43  1  0  0  0  0
 44 41  1  0  0  0  0
M  END
>  <MODEL>
2

>  <REMARK>
 VINA RESULT:    -7.466      3.039      7.146
 INTER + INTRA:          -9.473
 INTER:                  -9.350
 INTRA:                  -0.123
 UNBOUND:                -0.480
  Name = 
  4 active torsions:
  status: ('A' for Active; 'I' for Inactive)
    1  A    between atoms: C_1  and  N_2
    2  A    between atoms: C_6  and  C_7
    3  A    between atoms: C_17  and  C_18
    4  A    between atoms: C_25  and  C_26
                            x       y       z     vdW  Elec       q    Type
                         _______ _______ _______ _____ _____    ______ ____

>  <TORSDO>
F 4

$$$$
=
 OpenBabel07192307433D

 44 48  0  0  0  0  0  0  0  0999 V2000
    0.4290   10.5630   20.4640 C   0  0  0  0  0  0  0  0  0  0  0  0
    0.8390    9.2570   20.3040 C   0  0  0  0  0  0  0  0  0  0  0  0
    1.7300    9.0080   19.2840 C   0  0  0  0  0  0  0  0  0  0  0  0
    2.2040    7.6980   19.0460 N   0  0  0  0  0  0  0  0  0  0  0  0
    1.8040    6.5500   19.8380 C   0  0  0  0  0  0  0  0  0  0  0  0
    2.5570    5.4210   19.2110 C   0  0  0  0  0  0  0  0  0  0  0  0
    3.3170    5.9030   18.1480 C   0  0  0  0  0  0  0  0  0  0  0  0
    4.1200    5.0860   17.3760 C   0  0  0  0  0  0  0  0  0  0  0  0
    4.1530    3.7280   17.6930 C   0  0  0  0  0  0  0  0  0  0  0  0
    3.3910    3.2240   18.7640 C   0  0  0  0  0  0  0  0  0  0  0  0
    2.5770    4.0680   19.5430 C   0  0  0  0  0  0  0  0  0  0  0  0
    3.0980    7.3520   18.0340 C   0  0  0  0  0  0  0  0  0  0  0  0
    3.6500    8.0130   17.1750 O   0  0  0  0  0  0  0  0  0  0  0  0
    2.1660   10.0010   18.4970 N   0  0  0  0  0  0  0  0  0  0  0  0
    1.7240   11.2520   18.7040 C   0  0  0  0  0  0  0  0  0  0  0  0
    0.8580   11.5670   19.6820 N   0  0  0  0  0  0  0  0  0  0  0  0
    0.4610    8.4880   20.9630 H   0  0  0  0  0  0  0  0  0  0  0  0
    2.1120    6.6930   20.8780 H   0  0  0  0  0  0  0  0  0  0  0  0
    0.7250    6.3950   19.7490 H   0  0  0  0  0  0  0  0  0  0  0  0
    4.7000    5.4940   16.5530 H   0  0  0  0  0  0  0  0  0  0  0  0
    4.7750    3.0530   17.1070 H   0  0  0  0  0  0  0  0  0  0  0  0
    3.4410    2.1580   18.9840 H   0  0  0  0  0  0  0  0  0  0  0  0
    2.2290   12.3520   17.8060 C   0  0  0  0  0  0  0  0  0  0  0  0
    1.8770   13.7930   18.1020 C   0  0  0  0  0  0  0  0  0  0  0  0
    3.2840   13.3170   18.3010 C   0  0  0  0  0  0  0  0  0  0  0  0
    2.2760   12.0840   16.7550 H   0  0  0  0  0  0  0  0  0  0  0  0
    1.6630   14.4390   17.2570 H   0  0  0  0  0  0  0  0  0  0  0  0
    1.2710   14.0020   18.9770 H   0  0  0  0  0  0  0  0  0  0  0  0
    3.6430   13.2150   19.3190 H   0  0  0  0  0  0  0  0  0  0  0  0
    4.0370   13.6460   17.5950 H   0  0  0  0  0  0  0  0  0  0  0  0
   -1.5430   11.8330   21.4620 N   0  0  0  0  0  0  0  0  0  0  0  0
   -2.1500   11.8170   22.6820 C   0  0  0  0  0  0  0  0  0  0  0  0
   -1.5520   10.9500   23.4620 N   0  0  0  0  0  0  0  0  0  0  0  0
   -0.5320   10.3850   22.7390 N   0  0  0  0  0  0  0  0  0  0  0  0
   -0.5180   10.9150   21.5240 C   0  0  0  0  0  0  0  0  0  0  0  0
   -2.9960   12.4360   22.9480 H   0  0  0  0  0  0  0  0  0  0  0  0
   -1.9350   12.6650   20.3550 C   0  0  0  0  0  0  0  0  0  0  0  0
   -3.0220   12.6300   20.2540 H   0  0  0  0  0  0  0  0  0  0  0  0
   -1.6270   13.6970   20.5490 H   0  0  0  0  0  0  0  0  0  0  0  0
   -1.4370   12.3090   19.4510 H   0  0  0  0  0  0  0  0  0  0  0  0
    1.7580    3.5410   20.6910 C   0  0  0  0  0  0  0  0  0  0  0  0
    0.4370    3.8420   20.5580 F   0  0  0  0  0  0  0  0  0  0  0  0
    1.8220    2.1850   20.7840 F   0  0  0  0  0  0  0  0  0  0  0  0
    2.1370    4.0230   21.9050 F   0  0  0  0  0  0  0  0  0  0  0  0
  1 35  1  0  0  0  0
  2  1  1  0  0  0  0
  2 17  1  0  0  0  0
  3  2  2  0  0  0  0
  4  3  1  0  0  0  0
  4  5  1  0  0  0  0
  5 18  1  0  0  0  0
  6 11  1  0  0  0  0
  6  5  1  0  0  0  0
  7  6  2  0  0  0  0
  8  9  2  0  0  0  0
  8  7  1  0  0  0  0
  9 10  1  0  0  0  0
 10 22  1  0  0  0  0
 10 11  2  0  0  0  0
 11 41  1  0  0  0  0
 12  7  1  0  0  0  0
 12  4  1  0  0  0  0
 13 12  2  0  0  0  0
 14 15  2  0  0  0  0
 14  3  1  0  0  0  0
 15 16  1  0  0  0  0
 16  1  2  0  0  0  0
 19  5  1  0  0  0  0
 20  8  1  0  0  0  0
 21  9  1  0  0  0  0
 23 24  1  0  0  0  0
 23 25  1  0  0  0  0
 23 15  1  0  0  0  0
 24 25  1  0  0  0  0
 24 28  1  0  0  0  0
 25 29  1  0  0  0  0
 26 23  1  0  0  0  0
 27 24  1  0  0  0  0
 30 25  1  0  0  0  0
 31 35  1  0  0  0  0
 31 32  1  0  0  0  0
 32 36  1  0  0  0  0
 32 33  2  0  0  0  0
 34 33  1  0  0  0  0
 35 34  2  0  0  0  0
 37 39  1  0  0  0  0
 37 31  1  0  0  0  0
 38 37  1  0  0  0  0
 40 37  1  0  0  0  0
 41 43  1  0  0  0  0
 41 44  1  0  0  0  0
 42 41  1  0  0  0  0
M  END
>  <MODEL>
3

>  <REMARK>
 VINA RESULT:    -7.441      3.055      7.262
 INTER + INTRA:          -9.443
 INTER:                  -9.304
 INTRA:                  -0.138
 UNBOUND:                -0.480
  Name = 
  4 active torsions:
  status: ('A' for Active; 'I' for Inactive)
    1  A    between atoms: C_1  and  N_2
    2  A    between atoms: C_6  and  C_7
    3  A    between atoms: C_17  and  C_18
    4  A    between atoms: C_25  and  C_26
                            x       y       z     vdW  Elec       q    Type
                         _______ _______ _______ _____ _____    ______ ____

>  <TORSDO>
F 4

$$$$
=
 OpenBabel07192307433D

 44 48  0  0  0  0  0  0  0  0999 V2000
    1.2960   10.8100   19.4610 C   0  0  0  0  0  0  0  0  0  0  0  0
    1.9820    9.7480   18.9120 C   0  0  0  0  0  0  0  0  0  0  0  0
    1.7860    8.5160   19.4950 C   0  0  0  0  0  0  0  0  0  0  0  0
    2.4490    7.3710   18.9970 N   0  0  0  0  0  0  0  0  0  0  0  0
    3.3550    7.4050   17.8650 C   0  0  0  0  0  0  0  0  0  0  0  0
    3.7890    5.9800   17.7300 C   0  0  0  0  0  0  0  0  0  0  0  0
    3.1730    5.2120   18.7140 C   0  0  0  0  0  0  0  0  0  0  0  0
    3.3840    3.8520   18.8380 C   0  0  0  0  0  0  0  0  0  0  0  0
    4.2540    3.2490   17.9300 C   0  0  0  0  0  0  0  0  0  0  0  0
    4.8850    4.0110   16.9280 C   0  0  0  0  0  0  0  0  0  0  0  0
    4.6610    5.3960   16.8130 C   0  0  0  0  0  0  0  0  0  0  0  0
    2.3190    6.0890   19.5270 C   0  0  0  0  0  0  0  0  0  0  0  0
    1.6690    5.6570   20.4610 O   0  0  0  0  0  0  0  0  0  0  0  0
    0.9640    8.3760   20.5430 N   0  0  0  0  0  0  0  0  0  0  0  0
    0.3280    9.4530   21.0330 C   0  0  0  0  0  0  0  0  0  0  0  0
    0.4690   10.6830   20.5130 N   0  0  0  0  0  0  0  0  0  0  0  0
    2.6340    9.9070   18.0650 H   0  0  0  0  0  0  0  0  0  0  0  0
    2.8180    7.7340   16.9700 H   0  0  0  0  0  0  0  0  0  0  0  0
    4.2080    8.0520   18.0910 H   0  0  0  0  0  0  0  0  0  0  0  0
    2.8880    3.2820   19.6180 H   0  0  0  0  0  0  0  0  0  0  0  0
    4.4450    2.1790   17.9960 H   0  0  0  0  0  0  0  0  0  0  0  0
    5.5590    3.5070   16.2350 H   0  0  0  0  0  0  0  0  0  0  0  0
   -0.5910    9.2710   22.2140 C   0  0  0  0  0  0  0  0  0  0  0  0
   -0.0570    9.4190   23.6200 C   0  0  0  0  0  0  0  0  0  0  0  0
   -0.9840   10.4580   23.0650 C   0  0  0  0  0  0  0  0  0  0  0  0
   -1.3500    8.5060   22.0750 H   0  0  0  0  0  0  0  0  0  0  0  0
   -0.4360    8.7370   24.3740 H   0  0  0  0  0  0  0  0  0  0  0  0
    0.9900    9.6720   23.7460 H   0  0  0  0  0  0  0  0  0  0  0  0
   -0.5660   11.4290   22.8240 H   0  0  0  0  0  0  0  0  0  0  0  0
   -1.9970   10.4930   23.4470 H   0  0  0  0  0  0  0  0  0  0  0  0
    0.4480   13.0150   18.5020 N   0  0  0  0  0  0  0  0  0  0  0  0
    1.0660   14.1430   18.0530 C   0  0  0  0  0  0  0  0  0  0  0  0
    2.3650   14.0090   18.1630 N   0  0  0  0  0  0  0  0  0  0  0  0
    2.6050   12.7670   18.6950 N   0  0  0  0  0  0  0  0  0  0  0  0
    1.4470   12.1560   18.9030 C   0  0  0  0  0  0  0  0  0  0  0  0
    0.5450   15.0090   17.6680 H   0  0  0  0  0  0  0  0  0  0  0  0
   -0.9760   12.8080   18.5310 C   0  0  0  0  0  0  0  0  0  0  0  0
   -1.1760   11.7580   18.7570 H   0  0  0  0  0  0  0  0  0  0  0  0
   -1.4180   13.4320   19.3120 H   0  0  0  0  0  0  0  0  0  0  0  0
   -1.3960   13.0950   17.5640 H   0  0  0  0  0  0  0  0  0  0  0  0
    5.3300    6.2210   15.7470 C   0  0  0  0  0  0  0  0  0  0  0  0
    6.3460    6.9770   16.2460 F   0  0  0  0  0  0  0  0  0  0  0  0
    5.8860    5.4480   14.7760 F   0  0  0  0  0  0  0  0  0  0  0  0
    4.4930    7.0840   15.1110 F   0  0  0  0  0  0  0  0  0  0  0  0
  1 16  2  0  0  0  0
  2  1  1  0  0  0  0
  2  3  2  0  0  0  0
  3 14  1  0  0  0  0
  4  3  1  0  0  0  0
  4 12  1  0  0  0  0
  5 19  1  0  0  0  0
  5  4  1  0  0  0  0
  6  5  1  0  0  0  0
  6  7  1  0  0  0  0
  7  8  2  0  0  0  0
  7 12  1  0  0  0  0
  8 20  1  0  0  0  0
  9 21  1  0  0  0  0
  9  8  1  0  0  0  0
 10  9  2  0  0  0  0
 11 10  1  0  0  0  0
 11  6  2  0  0  0  0
 12 13  2  0  0  0  0
 14 15  2  0  0  0  0
 15 23  1  0  0  0  0
 16 15  1  0  0  0  0
 17  2  1  0  0  0  0
 18  5  1  0  0  0  0
 22 10  1  0  0  0  0
 23 25  1  0  0  0  0
 23 24  1  0  0  0  0
 24 28  1  0  0  0  0
 24 27  1  0  0  0  0
 25 30  1  0  0  0  0
 25 24  1  0  0  0  0
 26 23  1  0  0  0  0
 29 25  1  0  0  0  0
 31 37  1  0  0  0  0
 31 35  1  0  0  0  0
 32 33  2  0  0  0  0
 32 31  1  0  0  0  0
 33 34  1  0  0  0  0
 34 35  2  0  0  0  0
 35  1  1  0  0  0  0
 36 32  1  0  0  0  0
 37 38  1  0  0  0  0
 37 39  1  0  0  0  0
 40 37  1  0  0  0  0
 41 42  1  0  0  0  0
 41 11  1  0  0  0  0
 43 41  1  0  0  0  0
 44 41  1  0  0  0  0
M  END
>  <MODEL>
4

>  <REMARK>
 VINA RESULT:    -7.434      3.974      8.460
 INTER + INTRA:          -9.434
 INTER:                  -9.522
 INTRA:                   0.088
 UNBOUND:                -0.480
  Name = 
  4 active torsions:
  status: ('A' for Active; 'I' for Inactive)
    1  A    between atoms: C_1  and  N_2
    2  A    between atoms: C_6  and  C_7
    3  A    between atoms: C_17  and  C_18
    4  A    between atoms: C_25  and  C_26
                            x       y       z     vdW  Elec       q    Type
                         _______ _______ _______ _____ _____    ______ ____

>  <TORSDO>
F 4

$$$$
=
 OpenBabel07192307433D

 44 48  0  0  0  0  0  0  0  0999 V2000
    2.9980    6.2030   18.6880 C   0  0  0  0  0  0  0  0  0  0  0  0
    2.5330    7.4520   19.0400 C   0  0  0  0  0  0  0  0  0  0  0  0
    1.6790    7.5140   20.1180 C   0  0  0  0  0  0  0  0  0  0  0  0
    1.1540    8.7540   20.5500 N   0  0  0  0  0  0  0  0  0  0  0  0
    1.4690   10.0180   19.9110 C   0  0  0  0  0  0  0  0  0  0  0  0
    0.6890   11.0110   20.7120 C   0  0  0  0  0  0  0  0  0  0  0  0
   -0.0090   10.3490   21.7190 C   0  0  0  0  0  0  0  0  0  0  0  0
   -0.8200   11.0110   22.6210 C   0  0  0  0  0  0  0  0  0  0  0  0
   -0.9280   12.3960   22.4960 C   0  0  0  0  0  0  0  0  0  0  0  0
   -0.2280   13.0800   21.4840 C   0  0  0  0  0  0  0  0  0  0  0  0
    0.5950   12.3940   20.5710 C   0  0  0  0  0  0  0  0  0  0  0  0
    0.2790    8.9120   21.6230 C   0  0  0  0  0  0  0  0  0  0  0  0
   -0.2150    8.1110   22.3940 O   0  0  0  0  0  0  0  0  0  0  0  0
    1.3300    6.4040   20.7820 N   0  0  0  0  0  0  0  0  0  0  0  0
    1.8150    5.2160   20.3850 C   0  0  0  0  0  0  0  0  0  0  0  0
    2.6540    5.0820   19.3440 N   0  0  0  0  0  0  0  0  0  0  0  0
    2.8420    8.3210   18.4770 H   0  0  0  0  0  0  0  0  0  0  0  0
    2.5430   10.2140   19.9870 H   0  0  0  0  0  0  0  0  0  0  0  0
    1.1290   10.0040   18.8710 H   0  0  0  0  0  0  0  0  0  0  0  0
   -1.3520   10.4650   23.3940 H   0  0  0  0  0  0  0  0  0  0  0  0
   -1.5580   12.9530   23.1890 H   0  0  0  0  0  0  0  0  0  0  0  0
   -0.3350   14.1630   21.4150 H   0  0  0  0  0  0  0  0  0  0  0  0
    1.4070    3.9810   21.1460 C   0  0  0  0  0  0  0  0  0  0  0  0
    1.4130    2.6330   20.4610 C   0  0  0  0  0  0  0  0  0  0  0  0
    2.4370    2.9360   21.5120 C   0  0  0  0  0  0  0  0  0  0  0  0
    0.6080    4.1430   21.8640 H   0  0  0  0  0  0  0  0  0  0  0  0
    0.6100    1.9450   20.7040 H   0  0  0  0  0  0  0  0  0  0  0  0
    1.7300    2.5870   19.4250 H   0  0  0  0  0  0  0  0  0  0  0  0
    3.4620    3.0830   21.1890 H   0  0  0  0  0  0  0  0  0  0  0  0
    2.3400    2.4460   22.4740 H   0  0  0  0  0  0  0  0  0  0  0  0
    4.3180    4.8720   16.9610 N   0  0  0  0  0  0  0  0  0  0  0  0
    5.1590    5.2220   15.9490 C   0  0  0  0  0  0  0  0  0  0  0  0
    5.2740    6.5260   15.9000 N   0  0  0  0  0  0  0  0  0  0  0  0
    4.4930    7.0430   16.9020 N   0  0  0  0  0  0  0  0  0  0  0  0
    3.9090    6.0470   17.5520 C   0  0  0  0  0  0  0  0  0  0  0  0
    5.6490    4.5150   15.2930 H   0  0  0  0  0  0  0  0  0  0  0  0
    3.9580    3.5220   17.3070 C   0  0  0  0  0  0  0  0  0  0  0  0
    4.5050    3.2290   18.2060 H   0  0  0  0  0  0  0  0  0  0  0  0
    2.8850    3.4730   17.5100 H   0  0  0  0  0  0  0  0  0  0  0  0
    4.1920    2.8660   16.4650 H   0  0  0  0  0  0  0  0  0  0  0  0
    1.3470   13.1140   19.4850 C   0  0  0  0  0  0  0  0  0  0  0  0
    1.0890   14.4510   19.4840 F   0  0  0  0  0  0  0  0  0  0  0  0
    2.6950   12.9980   19.6330 F   0  0  0  0  0  0  0  0  0  0  0  0
    1.0630   12.6720   18.2310 F   0  0  0  0  0  0  0  0  0  0  0  0
  1  2  1  0  0  0  0
  1 16  2  0  0  0  0
  2  3  2  0  0  0  0
  3  4  1  0  0  0  0
  3 14  1  0  0  0  0
  4 12  1  0  0  0  0
  5 18  1  0  0  0  0
  5  4  1  0  0  0  0
  5  6  1  0  0  0  0
  6  7  1  0  0  0  0
  7  8  2  0  0  0  0
  8 20  1  0  0  0  0
  9  8  1  0  0  0  0
  9 21  1  0  0  0  0
 10  9  2  0  0  0  0
 11  6  2  0  0  0  0
 11 10  1  0  0  0  0
 12  7  1  0  0  0  0
 12 13  2  0  0  0  0
 15 14  2  0  0  0  0
 15 23  1  0  0  0  0
 16 15  1  0  0  0  0
 17  2  1  0  0  0  0
 19  5  1  0  0  0  0
 22 10  1  0  0  0  0
 23 25  1  0  0  0  0
 23 26  1  0  0  0  0
 24 27  1  0  0  0  0
 24 23  1  0  0  0  0
 24 25  1  0  0  0  0
 25 30  1  0  0  0  0
 28 24  1  0  0  0  0
 29 25  1  0  0  0  0
 31 37  1  0  0  0  0
 31 35  1  0  0  0  0
 32 31  1  0  0  0  0
 33 32  2  0  0  0  0
 33 34  1  0  0  0  0
 34 35  2  0  0  0  0
 35  1  1  0  0  0  0
 36 32  1  0  0  0  0
 37 39  1  0  0  0  0
 37 38  1  0  0  0  0
 40 37  1  0  0  0  0
 41 43  1  0  0  0  0
 41 11  1  0  0  0  0
 42 41  1  0  0  0  0
 44 41  1  0  0  0  0
M  END
>  <MODEL>
5

>  <REMARK>
 VINA RESULT:    -7.387      2.668      4.500
 INTER + INTRA:          -9.378
 INTER:                  -9.615
 INTRA:                   0.237
 UNBOUND:                -0.480
  Name = 
  4 active torsions:
  status: ('A' for Active; 'I' for Inactive)
    1  A    between atoms: C_1  and  N_2
    2  A    between atoms: C_6  and  C_7
    3  A    between atoms: C_17  and  C_18
    4  A    between atoms: C_25  and  C_26
                            x       y       z     vdW  Elec       q    Type
                         _______ _______ _______ _____ _____    ______ ____

>  <TORSDO>
F 4

$$$$
=
 OpenBabel07192307433D

 44 48  0  0  0  0  0  0  0  0999 V2000
    4.2500    5.3850   17.9460 C   0  0  0  0  0  0  0  0  0  0  0  0
    3.6470    6.5930   18.2260 C   0  0  0  0  0  0  0  0  0  0  0  0
    2.7210    6.6010   19.2460 C   0  0  0  0  0  0  0  0  0  0  0  0
    2.0530    7.7950   19.6010 N   0  0  0  0  0  0  0  0  0  0  0  0
    2.2880    9.0660   18.9430 C   0  0  0  0  0  0  0  0  0  0  0  0
    1.3660   10.0000   19.6590 C   0  0  0  0  0  0  0  0  0  0  0  0
    0.6690    9.3010   20.6410 C   0  0  0  0  0  0  0  0  0  0  0  0
   -0.2600    9.9050   21.4670 C   0  0  0  0  0  0  0  0  0  0  0  0
   -0.4900   11.2680   21.2900 C   0  0  0  0  0  0  0  0  0  0  0  0
    0.2070   11.9900   20.3020 C   0  0  0  0  0  0  0  0  0  0  0  0
    1.1500   11.3620   19.4670 C   0  0  0  0  0  0  0  0  0  0  0  0
    1.0980    7.8960   20.6120 C   0  0  0  0  0  0  0  0  0  0  0  0
    0.6330    7.0720   21.3760 O   0  0  0  0  0  0  0  0  0  0  0  0
    2.4360    5.4800   19.9220 N   0  0  0  0  0  0  0  0  0  0  0  0
    3.0570    4.3350   19.5960 C   0  0  0  0  0  0  0  0  0  0  0  0
    3.9720    4.2550   18.6160 N   0  0  0  0  0  0  0  0  0  0  0  0
    3.9080    7.4720   17.6550 H   0  0  0  0  0  0  0  0  0  0  0  0
    3.3310    9.3670   19.0800 H   0  0  0  0  0  0  0  0  0  0  0  0
    2.0200    8.9900   17.8840 H   0  0  0  0  0  0  0  0  0  0  0  0
   -0.7870    9.3300   22.2240 H   0  0  0  0  0  0  0  0  0  0  0  0
   -1.2140   11.7800   21.9230 H   0  0  0  0  0  0  0  0  0  0  0  0
    0.0020   13.0550   20.1910 H   0  0  0  0  0  0  0  0  0  0  0  0
    2.7190    3.0870   20.3710 C   0  0  0  0  0  0  0  0  0  0  0  0
    1.4420    3.0180   21.1770 C   0  0  0  0  0  0  0  0  0  0  0  0
    1.5770    2.2000   19.9280 C   0  0  0  0  0  0  0  0  0  0  0  0
    3.5790    2.5840   20.8040 H   0  0  0  0  0  0  0  0  0  0  0  0
    1.4820    2.5100   22.1350 H   0  0  0  0  0  0  0  0  0  0  0  0
    0.7820    3.8780   21.1650 H   0  0  0  0  0  0  0  0  0  0  0  0
    0.9930    2.4990   19.0640 H   0  0  0  0  0  0  0  0  0  0  0  0
    1.7000    1.1280   20.0320 H   0  0  0  0  0  0  0  0  0  0  0  0
    6.6150    5.2340   17.0070 N   0  0  0  0  0  0  0  0  0  0  0  0
    7.1210    5.1490   15.7450 C   0  0  0  0  0  0  0  0  0  0  0  0
    6.1410    5.1480   14.8760 N   0  0  0  0  0  0  0  0  0  0  0  0
    4.9670    5.2350   15.5810 N   0  0  0  0  0  0  0  0  0  0  0  0
    5.2450    5.2880   16.8760 C   0  0  0  0  0  0  0  0  0  0  0  0
    8.1760    5.0910   15.5160 H   0  0  0  0  0  0  0  0  0  0  0  0
    7.4010    5.2580   18.2130 C   0  0  0  0  0  0  0  0  0  0  0  0
    6.7600    4.9970   19.0580 H   0  0  0  0  0  0  0  0  0  0  0  0
    8.2070    4.5230   18.1360 H   0  0  0  0  0  0  0  0  0  0  0  0
    7.8350    6.2530   18.3330 H   0  0  0  0  0  0  0  0  0  0  0  0
    1.9010   12.1230   18.4070 C   0  0  0  0  0  0  0  0  0  0  0  0
    1.1180   13.0520   17.7930 F   0  0  0  0  0  0  0  0  0  0  0  0
    2.9560   12.8100   18.9220 F   0  0  0  0  0  0  0  0  0  0  0  0
    2.4050   11.3380   17.4180 F   0  0  0  0  0  0  0  0  0  0  0  0
  1  2  1  0  0  0  0
  1 16  2  0  0  0  0
  2  3  2  0  0  0  0
  3  4  1  0  0  0  0
  3 14  1  0  0  0  0
  4 12  1  0  0  0  0
  5 18  1  0  0  0  0
  5  4  1  0  0  0  0
  5  6  1  0  0  0  0
  6  7  1  0  0  0  0
  7  8  2  0  0  0  0
  8 20  1  0  0  0  0
  9  8  1  0  0  0  0
  9 21  1  0  0  0  0
 10  9  2  0  0  0  0
 11  6  2  0  0  0  0
 11 10  1  0  0  0  0
 12  7  1  0  0  0  0
 12 13  2  0  0  0  0
 15 14  2  0  0  0  0
 15 23  1  0  0  0  0
 16 15  1  0  0  0  0
 17  2  1  0  0  0  0
 19  5  1  0  0  0  0
 22 10  1  0  0  0  0
 23 26  1  0  0  0  0
 23 24  1  0  0  0  0
 24 27  1  0  0  0  0
 25 30  1  0  0  0  0
 25 23  1  0  0  0  0
 25 24  1  0  0  0  0
 28 24  1  0  0  0  0
 29 25  1  0  0  0  0
 31 37  1  0  0  0  0
 32 31  1  0  0  0  0
 33 34  1  0  0  0  0
 33 32  2  0  0  0  0
 34 35  2  0  0  0  0
 35 31  1  0  0  0  0
 35  1  1  0  0  0  0
 36 32  1  0  0  0  0
 37 40  1  0  0  0  0
 37 38  1  0  0  0  0
 39 37  1  0  0  0  0
 41 43  1  0  0  0  0
 41 11  1  0  0  0  0
 42 41  1  0  0  0  0
 44 41  1  0  0  0  0
M  END
>  <MODEL>
6

>  <REMARK>
 VINA RESULT:    -7.252      2.764      4.644
 INTER + INTRA:          -9.216
 INTER:                  -9.020
 INTRA:                  -0.197
 UNBOUND:                -0.480
  Name = 
  4 active torsions:
  status: ('A' for Active; 'I' for Inactive)
    1  A    between atoms: C_1  and  N_2
    2  A    between atoms: C_6  and  C_7
    3  A    between atoms: C_17  and  C_18
    4  A    between atoms: C_25  and  C_26
                            x       y       z     vdW  Elec       q    Type
                         _______ _______ _______ _____ _____    ______ ____

>  <TORSDO>
F 4

$$$$
=
 OpenBabel07192307433D

 44 48  0  0  0  0  0  0  0  0999 V2000
    1.1390   12.3190   20.3030 C   0  0  0  0  0  0  0  0  0  0  0  0
    1.5550   11.0580   19.9340 C   0  0  0  0  0  0  0  0  0  0  0  0
    0.9840    9.9970   20.6010 C   0  0  0  0  0  0  0  0  0  0  0  0
    1.3510    8.6690   20.2880 N   0  0  0  0  0  0  0  0  0  0  0  0
    2.3240    8.3310   19.2670 C   0  0  0  0  0  0  0  0  0  0  0  0
    2.3650    6.8370   19.3120 C   0  0  0  0  0  0  0  0  0  0  0  0
    1.4840    6.3780   20.2870 C   0  0  0  0  0  0  0  0  0  0  0  0
    1.3070    5.0340   20.5580 C   0  0  0  0  0  0  0  0  0  0  0  0
    2.0530    4.1220   19.8120 C   0  0  0  0  0  0  0  0  0  0  0  0
    2.9500    4.5700   18.8220 C   0  0  0  0  0  0  0  0  0  0  0  0
    3.1200    5.9420   18.5570 C   0  0  0  0  0  0  0  0  0  0  0  0
    0.8340    7.5360   20.9150 C   0  0  0  0  0  0  0  0  0  0  0  0
    0.0160    7.4020   21.8050 O   0  0  0  0  0  0  0  0  0  0  0  0
    0.0700   10.2010   21.5590 N   0  0  0  0  0  0  0  0  0  0  0  0
   -0.2890   11.4560   21.8740 C   0  0  0  0  0  0  0  0  0  0  0  0
    0.2240   12.5370   21.2630 N   0  0  0  0  0  0  0  0  0  0  0  0
    2.2950   10.9400   19.1550 H   0  0  0  0  0  0  0  0  0  0  0  0
    1.9740    8.6810   18.2910 H   0  0  0  0  0  0  0  0  0  0  0  0
    3.2990    8.7550   19.5270 H   0  0  0  0  0  0  0  0  0  0  0  0
    0.6110    4.7090   21.3260 H   0  0  0  0  0  0  0  0  0  0  0  0
    1.9410    3.0550   19.9970 H   0  0  0  0  0  0  0  0  0  0  0  0
    3.5170    3.8290   18.2580 H   0  0  0  0  0  0  0  0  0  0  0  0
   -1.3190   11.6610   22.9550 C   0  0  0  0  0  0  0  0  0  0  0  0
   -1.7050   13.0610   23.3790 C   0  0  0  0  0  0  0  0  0  0  0  0
   -2.6820   12.2200   22.6140 C   0  0  0  0  0  0  0  0  0  0  0  0
   -1.2880   10.9190   23.7480 H   0  0  0  0  0  0  0  0  0  0  0  0
   -1.8850   13.2310   24.4350 H   0  0  0  0  0  0  0  0  0  0  0  0
   -1.2320   13.8960   22.8740 H   0  0  0  0  0  0  0  0  0  0  0  0
   -2.8870   12.4960   21.5850 H   0  0  0  0  0  0  0  0  0  0  0  0
   -3.5390   11.8240   23.1460 H   0  0  0  0  0  0  0  0  0  0  0  0
    2.7450   14.2850   20.0750 N   0  0  0  0  0  0  0  0  0  0  0  0
    2.9020   15.2660   19.1430 C   0  0  0  0  0  0  0  0  0  0  0  0
    2.0160   15.1160   18.1890 N   0  0  0  0  0  0  0  0  0  0  0  0
    1.2610   14.0140   18.5020 N   0  0  0  0  0  0  0  0  0  0  0  0
    1.6960   13.5030   19.6450 C   0  0  0  0  0  0  0  0  0  0  0  0
    3.6520   16.0430   19.1990 H   0  0  0  0  0  0  0  0  0  0  0  0
    3.5460   14.1370   21.2620 C   0  0  0  0  0  0  0  0  0  0  0  0
    4.6020   14.1760   20.9830 H   0  0  0  0  0  0  0  0  0  0  0  0
    3.3290   14.9570   21.9520 H   0  0  0  0  0  0  0  0  0  0  0  0
    3.2940   13.1890   21.7430 H   0  0  0  0  0  0  0  0  0  0  0  0
    4.0750    6.4320   17.5020 C   0  0  0  0  0  0  0  0  0  0  0  0
    5.3080    6.7000   18.0120 F   0  0  0  0  0  0  0  0  0  0  0  0
    4.2720    5.5090   16.5220 F   0  0  0  0  0  0  0  0  0  0  0  0
    3.6680    7.5690   16.8750 F   0  0  0  0  0  0  0  0  0  0  0  0
  1 16  2  0  0  0  0
  2  1  1  0  0  0  0
  2  3  2  0  0  0  0
  3 14  1  0  0  0  0
  4  3  1  0  0  0  0
  4 12  1  0  0  0  0
  5  6  1  0  0  0  0
  5 19  1  0  0  0  0
  5  4  1  0  0  0  0
  6  7  1  0  0  0  0
  7  8  2  0  0  0  0
  7 12  1  0  0  0  0
  8 20  1  0  0  0  0
  9 21  1  0  0  0  0
  9  8  1  0  0  0  0
 10  9  2  0  0  0  0
 11 10  1  0  0  0  0
 11  6  2  0  0  0  0
 12 13  2  0  0  0  0
 14 15  2  0  0  0  0
 15 23  1  0  0  0  0
 16 15  1  0  0  0  0
 17  2  1  0  0  0  0
 18  5  1  0  0  0  0
 22 10  1  0  0  0  0
 23 24  1  0  0  0  0
 23 26  1  0  0  0  0
 24 27  1  0  0  0  0
 25 23  1  0  0  0  0
 25 30  1  0  0  0  0
 25 24  1  0  0  0  0
 28 24  1  0  0  0  0
 29 25  1  0  0  0  0
 31 37  1  0  0  0  0
 32 36  1  0  0  0  0
 32 31  1  0  0  0  0
 33 34  1  0  0  0  0
 33 32  2  0  0  0  0
 34 35  2  0  0  0  0
 35 31  1  0  0  0  0
 35  1  1  0  0  0  0
 37 40  1  0  0  0  0
 37 39  1  0  0  0  0
 38 37  1  0  0  0  0
 41 42  1  0  0  0  0
 41 11  1  0  0  0  0
 43 41  1  0  0  0  0
 44 41  1  0  0  0  0
M  END
>  <MODEL>
7

>  <REMARK>
 VINA RESULT:    -5.905      3.889      8.590
 INTER + INTRA:          -7.593
 INTER:                  -7.341
 INTRA:                  -0.252
 UNBOUND:                -0.480
  Name = 
  4 active torsions:
  status: ('A' for Active; 'I' for Inactive)
    1  A    between atoms: C_1  and  N_2
    2  A    between atoms: C_6  and  C_7
    3  A    between atoms: C_17  and  C_18
    4  A    between atoms: C_25  and  C_26
                            x       y       z     vdW  Elec       q    Type
                         _______ _______ _______ _____ _____    ______ ____

>  <TORSDO>
F 4

$$$$
=
 OpenBabel07192307433D

 44 48  0  0  0  0  0  0  0  0999 V2000
    1.7650   11.3960   18.3610 C   0  0  0  0  0  0  0  0  0  0  0  0
    2.6230   10.3330   18.1740 C   0  0  0  0  0  0  0  0  0  0  0  0
    2.0490    9.0880   18.0540 C   0  0  0  0  0  0  0  0  0  0  0  0
    2.8530    7.9410   17.8610 N   0  0  0  0  0  0  0  0  0  0  0  0
    4.3000    7.9880   17.7710 C   0  0  0  0  0  0  0  0  0  0  0  0
    4.6780    6.5560   17.5690 C   0  0  0  0  0  0  0  0  0  0  0  0
    3.5290    5.7700   17.5510 C   0  0  0  0  0  0  0  0  0  0  0  0
    3.5670    4.3990   17.3820 C   0  0  0  0  0  0  0  0  0  0  0  0
    4.8180    3.8030   17.2250 C   0  0  0  0  0  0  0  0  0  0  0  0
    5.9900    4.5830   17.2410 C   0  0  0  0  0  0  0  0  0  0  0  0
    5.9370    5.9790   17.4150 C   0  0  0  0  0  0  0  0  0  0  0  0
    2.3610    6.6420   17.7370 C   0  0  0  0  0  0  0  0  0  0  0  0
    1.2300    6.1950   17.7610 O   0  0  0  0  0  0  0  0  0  0  0  0
    0.7200    8.9360   18.1170 N   0  0  0  0  0  0  0  0  0  0  0  0
   -0.0610   10.0130   18.3050 C   0  0  0  0  0  0  0  0  0  0  0  0
    0.4300   11.2570   18.4260 N   0  0  0  0  0  0  0  0  0  0  0  0
    3.6900   10.5030   18.1280 H   0  0  0  0  0  0  0  0  0  0  0  0
    4.5980    8.5940   16.9090 H   0  0  0  0  0  0  0  0  0  0  0  0
    4.7180    8.3740   18.7050 H   0  0  0  0  0  0  0  0  0  0  0  0
    2.6510    3.8150   17.3730 H   0  0  0  0  0  0  0  0  0  0  0  0
    4.8880    2.7250   17.0880 H   0  0  0  0  0  0  0  0  0  0  0  0
    6.9510    4.0840   17.1150 H   0  0  0  0  0  0  0  0  0  0  0  0
   -1.5540    9.8180   18.3730 C   0  0  0  0  0  0  0  0  0  0  0  0
   -2.4820   10.9910   18.1560 C   0  0  0  0  0  0  0  0  0  0  0  0
   -2.3930    9.9130   17.1190 C   0  0  0  0  0  0  0  0  0  0  0  0
   -1.8750    9.0910   19.1140 H   0  0  0  0  0  0  0  0  0  0  0  0
   -3.3730   11.0450   18.7720 H   0  0  0  0  0  0  0  0  0  0  0  0
   -2.0410   11.9580   17.9380 H   0  0  0  0  0  0  0  0  0  0  0  0
   -1.9020   10.1530   16.1820 H   0  0  0  0  0  0  0  0  0  0  0  0
   -3.2310    9.2330   17.0190 H   0  0  0  0  0  0  0  0  0  0  0  0
    2.1840   13.5900   19.5900 N   0  0  0  0  0  0  0  0  0  0  0  0
    2.8250   14.7450   19.2570 C   0  0  0  0  0  0  0  0  0  0  0  0
    3.3070   14.6490   18.0420 N   0  0  0  0  0  0  0  0  0  0  0  0
    2.9740   13.4060   17.5670 N   0  0  0  0  0  0  0  0  0  0  0  0
    2.2920   12.7550   18.4990 C   0  0  0  0  0  0  0  0  0  0  0  0
    2.9130   15.6010   19.9120 H   0  0  0  0  0  0  0  0  0  0  0  0
    1.5350   13.3380   20.8490 C   0  0  0  0  0  0  0  0  0  0  0  0
    1.6160   12.2730   21.0820 H   0  0  0  0  0  0  0  0  0  0  0  0
    2.0310   13.9140   21.6360 H   0  0  0  0  0  0  0  0  0  0  0  0
    0.4920   13.6530   20.7800 H   0  0  0  0  0  0  0  0  0  0  0  0
    7.1830    6.8230   17.4330 C   0  0  0  0  0  0  0  0  0  0  0  0
    7.9500    6.5800   18.5320 F   0  0  0  0  0  0  0  0  0  0  0  0
    7.9830    6.5770   16.3610 F   0  0  0  0  0  0  0  0  0  0  0  0
    6.9420    8.1610   17.4280 F   0  0  0  0  0  0  0  0  0  0  0  0
  1 16  2  0  0  0  0
  1 35  1  0  0  0  0
  2  1  1  0  0  0  0
  3 14  1  0  0  0  0
  3  2  2  0  0  0  0
  4  3  1  0  0  0  0
  5  4  1  0  0  0  0
  5 19  1  0  0  0  0
  6  5  1  0  0  0  0
  7  6  1  0  0  0  0
  7 12  1  0  0  0  0
  8  7  2  0  0  0  0
  9 10  2  0  0  0  0
  9  8  1  0  0  0  0
 10 11  1  0  0  0  0
 11 41  1  0  0  0  0
 11  6  2  0  0  0  0
 12 13  2  0  0  0  0
 12  4  1  0  0  0  0
 14 15  2  0  0  0  0
 15 23  1  0  0  0  0
 15 16  1  0  0  0  0
 17  2  1  0  0  0  0
 18  5  1  0  0  0  0
 20  8  1  0  0  0  0
 21  9  1  0  0  0  0
 22 10  1  0  0  0  0
 23 26  1  0  0  0  0
 24 23  1  0  0  0  0
 24 27  1  0  0  0  0
 25 24  1  0  0  0  0
 25 23  1  0  0  0  0
 28 24  1  0  0  0  0
 29 25  1  0  0  0  0
 30 25  1  0  0  0  0
 31 37  1  0  0  0  0
 32 31  1  0  0  0  0
 32 36  1  0  0  0  0
 33 32  2  0  0  0  0
 34 33  1  0  0  0  0
 34 35  2  0  0  0  0
 35 31  1  0  0  0  0
 37 38  1  0  0  0  0
 37 39  1  0  0  0  0
 40 37  1  0  0  0  0
 41 42  1  0  0  0  0
 43 41  1  0  0  0  0
 44 41  1  0  0  0  0
M  END
>  <MODEL>
8

>  <REMARK>
 VINA RESULT:    -5.345      4.350      8.409
 INTER + INTRA:          -6.918
 INTER:                  -6.915
 INTRA:                  -0.003
 UNBOUND:                -0.480
  Name = 
  4 active torsions:
  status: ('A' for Active; 'I' for Inactive)
    1  A    between atoms: C_1  and  N_2
    2  A    between atoms: C_6  and  C_7
    3  A    between atoms: C_17  and  C_18
    4  A    between atoms: C_25  and  C_26
                            x       y       z     vdW  Elec       q    Type
                         _______ _______ _______ _____ _____    ______ ____

>  <TORSDO>
F 4

$$$$
=
 OpenBabel07192307433D

 44 48  0  0  0  0  0  0  0  0999 V2000
    2.3720    5.9430   18.7700 C   0  0  0  0  0  0  0  0  0  0  0  0
    1.7890    7.1590   19.0540 C   0  0  0  0  0  0  0  0  0  0  0  0
    2.3490    8.2680   18.4600 C   0  0  0  0  0  0  0  0  0  0  0  0
    1.8160    9.5560   18.6950 N   0  0  0  0  0  0  0  0  0  0  0  0
    0.6690    9.8000   19.5490 C   0  0  0  0  0  0  0  0  0  0  0  0
    0.4960   11.2840   19.4770 C   0  0  0  0  0  0  0  0  0  0  0  0
    1.4740   11.8250   18.6470 C   0  0  0  0  0  0  0  0  0  0  0  0
    1.5650   13.1800   18.3900 C   0  0  0  0  0  0  0  0  0  0  0  0
    0.6300   14.0160   18.9970 C   0  0  0  0  0  0  0  0  0  0  0  0
   -0.3660   13.4850   19.8390 C   0  0  0  0  0  0  0  0  0  0  0  0
   -0.4480   12.1030   20.0940 C   0  0  0  0  0  0  0  0  0  0  0  0
    2.3200   10.7330   18.1450 C   0  0  0  0  0  0  0  0  0  0  0  0
    3.2550   10.9460   17.3960 O   0  0  0  0  0  0  0  0  0  0  0  0
    3.4070    8.1500   17.6480 N   0  0  0  0  0  0  0  0  0  0  0  0
    3.9310    6.9360   17.4160 C   0  0  0  0  0  0  0  0  0  0  0  0
    3.4350    5.8120   17.9580 N   0  0  0  0  0  0  0  0  0  0  0  0
    0.9340    7.2070   19.7140 H   0  0  0  0  0  0  0  0  0  0  0  0
   -0.2100    9.2860   19.1460 H   0  0  0  0  0  0  0  0  0  0  0  0
    0.8940    9.4840   20.5720 H   0  0  0  0  0  0  0  0  0  0  0  0
    2.3410   13.5700   17.7380 H   0  0  0  0  0  0  0  0  0  0  0  0
    0.6700   15.0900   18.8180 H   0  0  0  0  0  0  0  0  0  0  0  0
   -1.0810   14.1680   20.2980 H   0  0  0  0  0  0  0  0  0  0  0  0
    5.1230    6.8290   16.4990 C   0  0  0  0  0  0  0  0  0  0  0  0
    6.5230    6.9010   17.0660 C   0  0  0  0  0  0  0  0  0  0  0  0
    6.0030    5.5990   16.5340 C   0  0  0  0  0  0  0  0  0  0  0  0
    4.9820    7.2930   15.5280 H   0  0  0  0  0  0  0  0  0  0  0  0
    7.2700    7.4340   16.4880 H   0  0  0  0  0  0  0  0  0  0  0  0
    6.6360    7.0150   18.1380 H   0  0  0  0  0  0  0  0  0  0  0  0
    5.7740    4.8170   17.2500 H   0  0  0  0  0  0  0  0  0  0  0  0
    6.4030    5.2370   15.5940 H   0  0  0  0  0  0  0  0  0  0  0  0
    1.8360    3.4510   18.8080 N   0  0  0  0  0  0  0  0  0  0  0  0
    1.2400    2.6330   19.7200 C   0  0  0  0  0  0  0  0  0  0  0  0
    0.8910    3.3260   20.7750 N   0  0  0  0  0  0  0  0  0  0  0  0
    1.2660    4.6270   20.5520 N   0  0  0  0  0  0  0  0  0  0  0  0
    1.8400    4.7130   19.3610 C   0  0  0  0  0  0  0  0  0  0  0  0
    1.0860    1.5720   19.5750 H   0  0  0  0  0  0  0  0  0  0  0  0
    2.3470    3.0310   17.5300 C   0  0  0  0  0  0  0  0  0  0  0  0
    2.6000    3.9160   16.9420 H   0  0  0  0  0  0  0  0  0  0  0  0
    3.2500    2.4320   17.6790 H   0  0  0  0  0  0  0  0  0  0  0  0
    1.5920    2.4210   17.0290 H   0  0  0  0  0  0  0  0  0  0  0  0
   -1.5070   11.5240   20.9910 C   0  0  0  0  0  0  0  0  0  0  0  0
   -2.2480   12.4910   21.6000 F   0  0  0  0  0  0  0  0  0  0  0  0
   -2.3950   10.7540   20.3050 F   0  0  0  0  0  0  0  0  0  0  0  0
   -1.0170   10.7380   21.9880 F   0  0  0  0  0  0  0  0  0  0  0  0
  1  2  1  0  0  0  0
  1 35  1  0  0  0  0
  2 17  1  0  0  0  0
  3  4  1  0  0  0  0
  3  2  2  0  0  0  0
  4  5  1  0  0  0  0
  5 19  1  0  0  0  0
  6  5  1  0  0  0  0
  6 11  1  0  0  0  0
  7  6  2  0  0  0  0
  8  7  1  0  0  0  0
  8  9  2  0  0  0  0
  9 10  1  0  0  0  0
 10 11  2  0  0  0  0
 10 22  1  0  0  0  0
 11 41  1  0  0  0  0
 12  7  1  0  0  0  0
 12  4  1  0  0  0  0
 13 12  2  0  0  0  0
 14  3  1  0  0  0  0
 15 14  2  0  0  0  0
 15 16  1  0  0  0  0
 16  1  2  0  0  0  0
 18  5  1  0  0  0  0
 20  8  1  0  0  0  0
 21  9  1  0  0  0  0
 23 25  1  0  0  0  0
 23 24  1  0  0  0  0
 23 15  1  0  0  0  0
 24 28  1  0  0  0  0
 25 24  1  0  0  0  0
 25 29  1  0  0  0  0
 26 23  1  0  0  0  0
 27 24  1  0  0  0  0
 30 25  1  0  0  0  0
 31 35  1  0  0  0  0
 31 32  1  0  0  0  0
 32 33  2  0  0  0  0
 34 33  1  0  0  0  0
 35 34  2  0  0  0  0
 36 32  1  0  0  0  0
 37 39  1  0  0  0  0
 37 31  1  0  0  0  0
 38 37  1  0  0  0  0
 40 37  1  0  0  0  0
 41 42  1  0  0  0  0
 41 44  1  0  0  0  0
 43 41  1  0  0  0  0
M  END
>  <MODEL>
9

>  <REMARK>
 VINA RESULT:    -5.196      1.670      2.192
 INTER + INTRA:          -6.739
 INTER:                  -6.978
 INTRA:                   0.240
 UNBOUND:                -0.480
  Name = 
  4 active torsions:
  status: ('A' for Active; 'I' for Inactive)
    1  A    between atoms: C_1  and  N_2
    2  A    between atoms: C_6  and  C_7
    3  A    between atoms: C_17  and  C_18
    4  A    between atoms: C_25  and  C_26
                            x       y       z     vdW  Elec       q    Type
                         _______ _______ _______ _____ _____    ______ ____

>  <TORSDO>
F 4

$$$$
=
 OpenBabel07192307433D

 44 48  0  0  0  0  0  0  0  0999 V2000
    0.0160   10.7720   18.3020 C   0  0  0  0  0  0  0  0  0  0  0  0
    0.5260    9.4930   18.2320 C   0  0  0  0  0  0  0  0  0  0  0  0
    1.8870    9.3770   18.0620 C   0  0  0  0  0  0  0  0  0  0  0  0
    2.4960    8.1040   17.9790 N   0  0  0  0  0  0  0  0  0  0  0  0
    1.7570    6.8600   18.0700 C   0  0  0  0  0  0  0  0  0  0  0  0
    2.8200    5.8170   17.9310 C   0  0  0  0  0  0  0  0  0  0  0  0
    4.0570    6.4350   17.7710 C   0  0  0  0  0  0  0  0  0  0  0  0
    5.2310    5.7220   17.6170 C   0  0  0  0  0  0  0  0  0  0  0  0
    5.1450    4.3300   17.6240 C   0  0  0  0  0  0  0  0  0  0  0  0
    3.9020    3.6890   17.7840 C   0  0  0  0  0  0  0  0  0  0  0  0
    2.7140    4.4280   17.9400 C   0  0  0  0  0  0  0  0  0  0  0  0
    3.8620    7.8910   17.7990 C   0  0  0  0  0  0  0  0  0  0  0  0
    4.7960    8.6610   17.6780 O   0  0  0  0  0  0  0  0  0  0  0  0
    2.6620   10.4660   17.9720 N   0  0  0  0  0  0  0  0  0  0  0  0
    2.1020   11.6840   18.0440 C   0  0  0  0  0  0  0  0  0  0  0  0
    0.7820   11.8710   18.2120 N   0  0  0  0  0  0  0  0  0  0  0  0
   -0.1370    8.6420   18.3100 H   0  0  0  0  0  0  0  0  0  0  0  0
    1.2690    6.7890   19.0470 H   0  0  0  0  0  0  0  0  0  0  0  0
    1.0370    6.7940   17.2490 H   0  0  0  0  0  0  0  0  0  0  0  0
    6.1800    6.2350   17.4940 H   0  0  0  0  0  0  0  0  0  0  0  0
    6.0490    3.7340   17.5060 H   0  0  0  0  0  0  0  0  0  0  0  0
    3.8720    2.6000   17.7850 H   0  0  0  0  0  0  0  0  0  0  0  0
    2.9940   12.8950   17.9390 C   0  0  0  0  0  0  0  0  0  0  0  0
    2.3930   14.2820   17.9640 C   0  0  0  0  0  0  0  0  0  0  0  0
    3.1940   13.7990   19.1350 C   0  0  0  0  0  0  0  0  0  0  0  0
    3.8510   12.7620   17.2860 H   0  0  0  0  0  0  0  0  0  0  0  0
    2.8320   15.0280   17.3090 H   0  0  0  0  0  0  0  0  0  0  0  0
    1.3180   14.3730   18.0720 H   0  0  0  0  0  0  0  0  0  0  0  0
    2.6610   13.5740   20.0520 H   0  0  0  0  0  0  0  0  0  0  0  0
    4.1800   14.2240   19.2870 H   0  0  0  0  0  0  0  0  0  0  0  0
   -2.4380   10.6050   17.6320 N   0  0  0  0  0  0  0  0  0  0  0  0
   -3.6000   11.0140   18.2130 C   0  0  0  0  0  0  0  0  0  0  0  0
   -3.3390   11.6100   19.3510 N   0  0  0  0  0  0  0  0  0  0  0  0
   -1.9780   11.5920   19.5200 N   0  0  0  0  0  0  0  0  0  0  0  0
   -1.4220   10.9850   18.4810 C   0  0  0  0  0  0  0  0  0  0  0  0
   -4.5810   10.8610   17.7840 H   0  0  0  0  0  0  0  0  0  0  0  0
   -2.3420    9.9130   16.3740 C   0  0  0  0  0  0  0  0  0  0  0  0
   -1.9090    8.9250   16.5450 H   0  0  0  0  0  0  0  0  0  0  0  0
   -3.3420    9.7960   15.9460 H   0  0  0  0  0  0  0  0  0  0  0  0
   -1.7290   10.5050   15.6900 H   0  0  0  0  0  0  0  0  0  0  0  0
    1.3790    3.7550   18.1120 C   0  0  0  0  0  0  0  0  0  0  0  0
    0.4760    4.1610   17.1780 F   0  0  0  0  0  0  0  0  0  0  0  0
    1.4660    2.4040   17.9800 F   0  0  0  0  0  0  0  0  0  0  0  0
    0.7990    3.9800   19.3220 F   0  0  0  0  0  0  0  0  0  0  0  0
  1 35  1  0  0  0  0
  2  1  1  0  0  0  0
  2 17  1  0  0  0  0
  3  2  2  0  0  0  0
  4  3  1  0  0  0  0
  4  5  1  0  0  0  0
  5 18  1  0  0  0  0
  6 11  1  0  0  0  0
  6  5  1  0  0  0  0
  7 12  1  0  0  0  0
  7  6  2  0  0  0  0
  8  9  2  0  0  0  0
  8  7  1  0  0  0  0
  9 10  1  0  0  0  0
 10 22  1  0  0  0  0
 10 11  2  0  0  0  0
 11 41  1  0  0  0  0
 12  4  1  0  0  0  0
 13 12  2  0  0  0  0
 14 15  2  0  0  0  0
 14  3  1  0  0  0  0
 15 16  1  0  0  0  0
 16  1  2  0  0  0  0
 19  5  1  0  0  0  0
 20  8  1  0  0  0  0
 21  9  1  0  0  0  0
 23 24  1  0  0  0  0
 23 15  1  0  0  0  0
 23 25  1  0  0  0  0
 24 28  1  0  0  0  0
 24 25  1  0  0  0  0
 25 30  1  0  0  0  0
 25 29  1  0  0  0  0
 26 23  1  0  0  0  0
 27 24  1  0  0  0  0
 31 32  1  0  0  0  0
 31 35  1  0  0  0  0
 32 33  2  0  0  0  0
 33 34  1  0  0  0  0
 35 34  2  0  0  0  0
 36 32  1  0  0  0  0
 37 38  1  0  0  0  0
 37 31  1  0  0  0  0
 39 37  1  0  0  0  0
 40 37  1  0  0  0  0
 41 44  1  0  0  0  0
 42 41  1  0  0  0  0
 43 41  1  0  0  0  0
M  END
>  <MODEL>
10

>  <REMARK>
 VINA RESULT:    -5.135      3.685      7.651
 INTER + INTRA:          -6.665
 INTER:                  -6.320
 INTRA:                  -0.345
 UNBOUND:                -0.480
  Name = 
  4 active torsions:
  status: ('A' for Active; 'I' for Inactive)
    1  A    between atoms: C_1  and  N_2
    2  A    between atoms: C_6  and  C_7
    3  A    between atoms: C_17  and  C_18
    4  A    between atoms: C_25  and  C_26
                            x       y       z     vdW  Elec       q    Type
                         _______ _______ _______ _____ _____    ______ ____

>  <TORSDO>
F 4

$$$$
=
 OpenBabel07192307433D

 44 48  0  0  0  0  0  0  0  0999 V2000
   -2.9090   12.0740   18.8880 C   0  0  0  0  0  0  0  0  0  0  0  0
   -1.6100   12.5250   18.9850 C   0  0  0  0  0  0  0  0  0  0  0  0
   -1.2210   13.0350   20.2030 C   0  0  0  0  0  0  0  0  0  0  0  0
    0.0930   13.5210   20.3940 N   0  0  0  0  0  0  0  0  0  0  0  0
    1.1030   13.5150   19.3530 C   0  0  0  0  0  0  0  0  0  0  0  0
    2.2950   14.1150   20.0260 C   0  0  0  0  0  0  0  0  0  0  0  0
    1.9720   14.4340   21.3430 C   0  0  0  0  0  0  0  0  0  0  0  0
    2.8800   15.0060   22.2140 C   0  0  0  0  0  0  0  0  0  0  0  0
    4.1610   15.2660   21.7320 C   0  0  0  0  0  0  0  0  0  0  0  0
    4.5050   14.9500   20.4030 C   0  0  0  0  0  0  0  0  0  0  0  0
    3.5710   14.3670   19.5260 C   0  0  0  0  0  0  0  0  0  0  0  0
    0.5720   14.0600   21.5860 C   0  0  0  0  0  0  0  0  0  0  0  0
    0.0440   14.2400   22.6680 O   0  0  0  0  0  0  0  0  0  0  0  0
   -2.0760   13.0800   21.2330 N   0  0  0  0  0  0  0  0  0  0  0  0
   -3.3300   12.6280   21.0710 C   0  0  0  0  0  0  0  0  0  0  0  0
   -3.7770   12.1150   19.9130 N   0  0  0  0  0  0  0  0  0  0  0  0
   -0.9530   12.4690   18.1280 H   0  0  0  0  0  0  0  0  0  0  0  0
    1.3090   12.4860   19.0420 H   0  0  0  0  0  0  0  0  0  0  0  0
    0.7760   14.1370   18.5140 H   0  0  0  0  0  0  0  0  0  0  0  0
    2.5950   15.2430   23.2350 H   0  0  0  0  0  0  0  0  0  0  0  0
    4.9040   15.7160   22.3890 H   0  0  0  0  0  0  0  0  0  0  0  0
    5.5160   15.1660   20.0590 H   0  0  0  0  0  0  0  0  0  0  0  0
   -4.2760   12.6900   22.2440 C   0  0  0  0  0  0  0  0  0  0  0  0
   -3.9000   13.4760   23.4790 C   0  0  0  0  0  0  0  0  0  0  0  0
   -4.9890   13.9800   22.5810 C   0  0  0  0  0  0  0  0  0  0  0  0
   -4.8300   11.7720   22.4190 H   0  0  0  0  0  0  0  0  0  0  0  0
   -4.1750   13.0580   24.4410 H   0  0  0  0  0  0  0  0  0  0  0  0
   -2.9490   13.9980   23.4840 H   0  0  0  0  0  0  0  0  0  0  0  0
   -4.7820   14.8590   21.9810 H   0  0  0  0  0  0  0  0  0  0  0  0
   -6.0120   13.9140   22.9340 H   0  0  0  0  0  0  0  0  0  0  0  0
   -2.8210   10.5370   16.8560 N   0  0  0  0  0  0  0  0  0  0  0  0
   -3.6400   10.3510   15.7840 C   0  0  0  0  0  0  0  0  0  0  0  0
   -4.6710   11.1550   15.8700 N   0  0  0  0  0  0  0  0  0  0  0  0
   -4.5250   11.8860   17.0220 N   0  0  0  0  0  0  0  0  0  0  0  0
   -3.4050   11.5180   17.6280 C   0  0  0  0  0  0  0  0  0  0  0  0
   -3.4510    9.6400   14.9910 H   0  0  0  0  0  0  0  0  0  0  0  0
   -1.5950    9.8230   17.0940 C   0  0  0  0  0  0  0  0  0  0  0  0
   -1.1940    9.4790   16.1370 H   0  0  0  0  0  0  0  0  0  0  0  0
   -0.8690   10.4920   17.5650 H   0  0  0  0  0  0  0  0  0  0  0  0
   -1.7960    8.9850   17.7660 H   0  0  0  0  0  0  0  0  0  0  0  0
    3.9260   14.0250   18.1040 C   0  0  0  0  0  0  0  0  0  0  0  0
    3.5930   12.7430   17.7880 F   0  0  0  0  0  0  0  0  0  0  0  0
    3.2670   14.8100   17.2090 F   0  0  0  0  0  0  0  0  0  0  0  0
    5.2490   14.1540   17.8190 F   0  0  0  0  0  0  0  0  0  0  0  0
  1  2  1  0  0  0  0
  1 16  2  0  0  0  0
  2  3  2  0  0  0  0
  3  4  1  0  0  0  0
  3 14  1  0  0  0  0
  4 12  1  0  0  0  0
  5  6  1  0  0  0  0
  5  4  1  0  0  0  0
  6  7  1  0  0  0  0
  7 12  1  0  0  0  0
  7  8  2  0  0  0  0
  8 20  1  0  0  0  0
  9  8  1  0  0  0  0
  9 21  1  0  0  0  0
 10  9  2  0  0  0  0
 11  6  2  0  0  0  0
 11 10  1  0  0  0  0
 12 13  2  0  0  0  0
 15 14  2  0  0  0  0
 15 23  1  0  0  0  0
 16 15  1  0  0  0  0
 17  2  1  0  0  0  0
 18  5  1  0  0  0  0
 19  5  1  0  0  0  0
 22 10  1  0  0  0  0
 23 26  1  0  0  0  0
 23 25  1  0  0  0  0
 23 24  1  0  0  0  0
 24 28  1  0  0  0  0
 24 27  1  0  0  0  0
 25 30  1  0  0  0  0
 25 24  1  0  0  0  0
 29 25  1  0  0  0  0
 31 37  1  0  0  0  0
 31 35  1  0  0  0  0
 32 33  2  0  0  0  0
 32 31  1  0  0  0  0
 33 34  1  0  0  0  0
 34 35  2  0  0  0  0
 35  1  1  0  0  0  0
 36 32  1  0  0  0  0
 37 39  1  0  0  0  0
 37 40  1  0  0  0  0
 38 37  1  0  0  0  0
 41 11  1  0  0  0  0
 42 41  1  0  0  0  0
 43 41  1  0  0  0  0
 44 41  1  0  0  0  0
M  END
>  <MODEL>
11

>  <REMARK>
 VINA RESULT:    -4.853      6.989      9.197
 INTER + INTRA:          -6.326
 INTER:                  -6.055
 INTRA:                  -0.271
 UNBOUND:                -0.480
  Name = 
  4 active torsions:
  status: ('A' for Active; 'I' for Inactive)
    1  A    between atoms: C_1  and  N_2
    2  A    between atoms: C_6  and  C_7
    3  A    between atoms: C_17  and  C_18
    4  A    between atoms: C_25  and  C_26
                            x       y       z     vdW  Elec       q    Type
                         _______ _______ _______ _____ _____    ______ ____

>  <TORSDO>
F 4

$$$$
