=
 OpenBabel07192307433D

 53 56  0  0  1  0  0  0  0  0999 V2000
   -0.4740   10.9000   20.2950 C   0  0  0  0  0  0  0  0  0  0  0  0
   -0.7560   11.2320   21.6280 C   0  0  0  0  0  0  0  0  0  0  0  0
   -0.2820   10.4350   22.6710 C   0  0  0  0  0  0  0  0  0  0  0  0
    0.4820    9.3030   22.3920 C   0  0  0  0  0  0  0  0  0  0  0  0
    0.7840    8.9560   21.0710 C   0  0  0  0  0  0  0  0  0  0  0  0
    0.2970    9.7530   20.0290 C   0  0  0  0  0  0  0  0  0  0  0  0
   -1.3370   12.1170   21.8720 H   0  0  0  0  0  0  0  0  0  0  0  0
   -0.4970   10.7050   23.7020 H   0  0  0  0  0  0  0  0  0  0  0  0
    0.8440    8.7030   23.2240 H   0  0  0  0  0  0  0  0  0  0  0  0
    0.5060    9.4930   18.9940 H   0  0  0  0  0  0  0  0  0  0  0  0
    1.5580    7.7970   20.8770 N   0  0  0  0  0  0  0  0  0  0  0  0
    2.0010    7.2640   19.6690 C   0  0  0  0  0  0  0  0  0  0  0  0
    2.6460    6.0370   19.8780 N   0  0  0  0  0  0  0  0  0  0  0  0
    1.8600    4.9440   20.4570 C   0  0  0  0  0  0  0  0  0  0  0  0
    2.7430    3.7580   20.8160 C   0  0  0  0  0  0  0  0  0  0  0  0
    3.4400    3.2660   19.6670 O   0  0  0  0  0  0  0  0  0  0  0  0
    4.0540    4.2730   18.9590 C   0  0  0  0  0  0  0  0  0  0  0  0
    5.0900    3.8800   18.1130 C   0  0  0  0  0  0  0  0  0  0  0  0
    5.7930    4.8460   17.3850 C   0  0  0  0  0  0  0  0  0  0  0  0
    5.4270    6.1720   17.5650 C   0  0  0  0  0  0  0  0  0  0  0  0
    4.4180    6.5760   18.3700 N   0  0  0  0  0  0  0  0  0  0  0  0
    3.7080    5.6320   19.0280 C   0  0  0  0  0  0  0  0  0  0  0  0
    1.8320    7.7710   18.5640 O   0  0  0  0  0  0  0  0  0  0  0  0
    2.0800    7.4630   21.6710 H   0  0  0  0  0  0  0  0  0  0  0  0
    1.1090    4.6550   19.7060 H   0  0  0  0  0  0  0  0  0  0  0  0
    1.3230    5.2930   21.3460 H   0  0  0  0  0  0  0  0  0  0  0  0
    2.1270    2.9360   21.2030 H   0  0  0  0  0  0  0  0  0  0  0  0
    3.4720    4.0180   21.5960 H   0  0  0  0  0  0  0  0  0  0  0  0
    5.3480    2.8260   18.0310 H   0  0  0  0  0  0  0  0  0  0  0  0
    5.9420    6.9820   17.0510 H   0  0  0  0  0  0  0  0  0  0  0  0
    6.9360    4.4980   16.4870 C   0  0  0  0  0  0  0  0  0  0  0  0
    7.3190    5.5250   15.6820 F   0  0  0  0  0  0  0  0  0  0  0  0
    6.6650    3.4600   15.6570 F   0  0  0  0  0  0  0  0  0  0  0  0
    8.0460    4.1420   17.1830 F   0  0  0  0  0  0  0  0  0  0  0  0
   -0.9680   11.7630   19.1370 C   0  0  2  0  0  0  0  0  0  0  0  0
   -0.4120   11.4780   18.2310 H   0  0  0  0  0  0  0  0  0  0  0  0
   -0.6410   13.2390   19.4080 C   0  0  0  0  0  0  0  0  0  0  0  0
   -0.8920   13.5180   20.4380 H   0  0  0  0  0  0  0  0  0  0  0  0
    0.4220   13.4570   19.2530 H   0  0  0  0  0  0  0  0  0  0  0  0
   -1.2180   13.8940   18.7420 H   0  0  0  0  0  0  0  0  0  0  0  0
   -2.4710   11.5290   18.8640 C   0  0  0  0  0  0  0  0  0  0  0  0
   -2.8600   10.7990   19.5850 H   0  0  0  0  0  0  0  0  0  0  0  0
   -3.0420   12.4470   19.0300 H   0  0  0  0  0  0  0  0  0  0  0  0
   -2.7340   10.9990   17.4960 C   0  0  0  0  0  0  0  0  0  0  0  0
   -1.9120   10.2620   16.7750 N   0  0  0  0  0  0  0  0  0  0  0  0
   -2.5170    9.9980   15.5710 N   0  0  0  0  0  0  0  0  0  0  0  0
   -3.6970   10.5720   15.5830 C   0  0  0  0  0  0  0  0  0  0  0  0
   -3.8810   11.2040   16.7720 N   0  0  0  0  0  0  0  0  0  0  0  0
   -4.4230   10.5560   14.7800 H   0  0  0  0  0  0  0  0  0  0  0  0
   -5.0630   11.9240   17.1660 C   0  0  0  0  0  0  0  0  0  0  0  0
   -5.2020   12.7580   16.4670 H   0  0  0  0  0  0  0  0  0  0  0  0
   -4.9410   12.3100   18.1830 H   0  0  0  0  0  0  0  0  0  0  0  0
   -5.9210   11.2490   17.1320 H   0  0  0  0  0  0  0  0  0  0  0  0
  1  2  1  0  0  0  0
  2  7  1  0  0  0  0
  2  3  2  0  0  0  0
  3  8  1  0  0  0  0
  4  3  1  0  0  0  0
  4  9  1  0  0  0  0
  5  4  2  0  0  0  0
  6  1  2  0  0  0  0
  6  5  1  0  0  0  0
 10  6  1  0  0  0  0
 11  5  1  0  0  0  0
 11 24  1  0  0  0  0
 12 13  1  0  0  0  0
 12 11  1  0  0  0  0
 13 14  1  0  0  0  0
 14 15  1  0  0  0  0
 14 26  1  0  0  0  0
 15 27  1  0  0  0  0
 15 28  1  0  0  0  0
 16 15  1  0  0  0  0
 17 22  1  0  0  0  0
 17 16  1  0  0  0  0
 18 17  2  0  0  0  0
 19 20  2  0  0  0  0
 19 18  1  0  0  0  0
 20 21  1  0  0  0  0
 21 22  2  0  0  0  0
 22 13  1  0  0  0  0
 23 12  2  0  0  0  0
 25 14  1  0  0  0  0
 29 18  1  0  0  0  0
 30 20  1  0  0  0  0
 31 34  1  0  0  0  0
 31 19  1  0  0  0  0
 32 31  1  0  0  0  0
 33 31  1  0  0  0  0
 35 36  1  6  0  0  0
 35 37  1  0  0  0  0
 35  1  1  0  0  0  0
 37 38  1  0  0  0  0
 39 37  1  0  0  0  0
 40 37  1  0  0  0  0
 41 43  1  0  0  0  0
 41 35  1  0  0  0  0
 41 42  1  0  0  0  0
 44 41  1  0  0  0  0
 45 44  2  0  0  0  0
 46 47  2  0  0  0  0
 46 45  1  0  0  0  0
 47 48  1  0  0  0  0
 48 50  1  0  0  0  0
 48 44  1  0  0  0  0
 49 47  1  0  0  0  0
 50 52  1  0  0  0  0
 51 50  1  0  0  0  0
 53 50  1  0  0  0  0
M  END
>  <MODEL>
1

>  <REMARK>
 VINA RESULT:    -8.828      0.000      0.000
 INTER + INTRA:         -12.338
 INTER:                 -11.941
 INTRA:                  -0.397
 UNBOUND:                -0.413
  Name = 
  7 active torsions:
  status: ('A' for Active; 'I' for Inactive)
    1  A    between atoms: C_1  and  C_2
    2  A    between atoms: C_2  and  C_3
    3  A    between atoms: C_2  and  C_10
    4  A    between atoms: C_3  and  C_4
    5  A    between atoms: N_8  and  C_9
    6  A    between atoms: C_14  and  N_16
    7  A    between atoms: C_24  and  C_28
                            x       y       z     vdW  Elec       q    Type
                         _______ _______ _______ _____ _____    ______ ____

>  <TORSDO>
F 7

$$$$
=
 OpenBabel07192307433D

 53 56  0  0  1  0  0  0  0  0999 V2000
    0.2240   11.2000   20.9790 C   0  0  0  0  0  0  0  0  0  0  0  0
   -0.4470   11.1860   22.2100 C   0  0  0  0  0  0  0  0  0  0  0  0
   -0.4110   10.0520   23.0230 C   0  0  0  0  0  0  0  0  0  0  0  0
    0.3000    8.9240   22.6160 C   0  0  0  0  0  0  0  0  0  0  0  0
    0.9850    8.9170   21.3970 C   0  0  0  0  0  0  0  0  0  0  0  0
    0.9360   10.0520   20.5810 C   0  0  0  0  0  0  0  0  0  0  0  0
   -0.9950   12.0570   22.5560 H   0  0  0  0  0  0  0  0  0  0  0  0
   -0.9260   10.0540   23.9810 H   0  0  0  0  0  0  0  0  0  0  0  0
    0.3170    8.0560   23.2720 H   0  0  0  0  0  0  0  0  0  0  0  0
    1.4480   10.0630   19.6220 H   0  0  0  0  0  0  0  0  0  0  0  0
    1.6750    7.7370   21.0600 N   0  0  0  0  0  0  0  0  0  0  0  0
    1.9330    7.2380   19.7860 C   0  0  0  0  0  0  0  0  0  0  0  0
    2.5460    5.9800   19.8630 N   0  0  0  0  0  0  0  0  0  0  0  0
    1.7940    4.8950   20.5000 C   0  0  0  0  0  0  0  0  0  0  0  0
    2.6640    3.6610   20.6960 C   0  0  0  0  0  0  0  0  0  0  0  0
    3.1830    3.1910   19.4480 O   0  0  0  0  0  0  0  0  0  0  0  0
    3.7430    4.2030   18.7030 C   0  0  0  0  0  0  0  0  0  0  0  0
    4.6420    3.8060   17.7140 C   0  0  0  0  0  0  0  0  0  0  0  0
    5.2860    4.7740   16.9360 C   0  0  0  0  0  0  0  0  0  0  0  0
    5.0060    6.1040   17.2110 C   0  0  0  0  0  0  0  0  0  0  0  0
    4.1290    6.5130   18.1560 N   0  0  0  0  0  0  0  0  0  0  0  0
    3.4690    5.5700   18.8670 C   0  0  0  0  0  0  0  0  0  0  0  0
    1.6450    7.7980   18.7320 O   0  0  0  0  0  0  0  0  0  0  0  0
    2.2810    7.3500   21.7660 H   0  0  0  0  0  0  0  0  0  0  0  0
    0.9400    4.6670   19.8440 H   0  0  0  0  0  0  0  0  0  0  0  0
    1.3930    5.2270   21.4650 H   0  0  0  0  0  0  0  0  0  0  0  0
    2.0670    2.8480   21.1310 H   0  0  0  0  0  0  0  0  0  0  0  0
    3.4990    3.8600   21.3830 H   0  0  0  0  0  0  0  0  0  0  0  0
    4.8410    2.7470   17.5600 H   0  0  0  0  0  0  0  0  0  0  0  0
    5.4850    6.9140   16.6630 H   0  0  0  0  0  0  0  0  0  0  0  0
    6.2870    4.4200   15.8820 C   0  0  0  0  0  0  0  0  0  0  0  0
    6.0580    3.2080   15.3100 F   0  0  0  0  0  0  0  0  0  0  0  0
    7.5590    4.3730   16.3500 F   0  0  0  0  0  0  0  0  0  0  0  0
    6.2950    5.3150   14.8620 F   0  0  0  0  0  0  0  0  0  0  0  0
    0.2130   12.4310   20.0790 C   0  0  2  0  0  0  0  0  0  0  0  0
    0.5690   12.1340   19.0810 H   0  0  0  0  0  0  0  0  0  0  0  0
    1.2080   13.4750   20.6080 C   0  0  0  0  0  0  0  0  0  0  0  0
    0.7280   14.4530   20.7280 H   0  0  0  0  0  0  0  0  0  0  0  0
    1.6260   13.1870   21.5790 H   0  0  0  0  0  0  0  0  0  0  0  0
    2.0440   13.6060   19.9080 H   0  0  0  0  0  0  0  0  0  0  0  0
   -1.2160   12.9990   19.9220 C   0  0  0  0  0  0  0  0  0  0  0  0
   -1.7310   12.9520   20.8900 H   0  0  0  0  0  0  0  0  0  0  0  0
   -1.1840   14.0580   19.6500 H   0  0  0  0  0  0  0  0  0  0  0  0
   -2.0340   12.2390   18.9350 C   0  0  0  0  0  0  0  0  0  0  0  0
   -1.5860   11.6340   17.8530 N   0  0  0  0  0  0  0  0  0  0  0  0
   -2.6550   11.0670   17.2040 N   0  0  0  0  0  0  0  0  0  0  0  0
   -3.7330   11.3310   17.9060 C   0  0  0  0  0  0  0  0  0  0  0  0
   -3.3920   12.0560   19.0040 N   0  0  0  0  0  0  0  0  0  0  0  0
   -4.7430   11.0280   17.6620 H   0  0  0  0  0  0  0  0  0  0  0  0
   -4.3000   12.5120   20.0230 C   0  0  0  0  0  0  0  0  0  0  0  0
   -3.8660   12.2640   21.0000 H   0  0  0  0  0  0  0  0  0  0  0  0
   -5.2660   12.0110   19.9100 H   0  0  0  0  0  0  0  0  0  0  0  0
   -4.4340   13.5920   19.9260 H   0  0  0  0  0  0  0  0  0  0  0  0
  1  2  1  0  0  0  0
  2  7  1  0  0  0  0
  2  3  2  0  0  0  0
  3  8  1  0  0  0  0
  4  3  1  0  0  0  0
  4  9  1  0  0  0  0
  5  4  2  0  0  0  0
  6  1  2  0  0  0  0
  6  5  1  0  0  0  0
 10  6  1  0  0  0  0
 11  5  1  0  0  0  0
 11 24  1  0  0  0  0
 12 13  1  0  0  0  0
 12 11  1  0  0  0  0
 13 14  1  0  0  0  0
 14 15  1  0  0  0  0
 14 26  1  0  0  0  0
 15 27  1  0  0  0  0
 15 28  1  0  0  0  0
 16 15  1  0  0  0  0
 17 22  1  0  0  0  0
 17 16  1  0  0  0  0
 18 17  2  0  0  0  0
 19 20  2  0  0  0  0
 19 18  1  0  0  0  0
 20 21  1  0  0  0  0
 21 22  2  0  0  0  0
 22 13  1  0  0  0  0
 23 12  2  0  0  0  0
 25 14  1  0  0  0  0
 29 18  1  0  0  0  0
 30 20  1  0  0  0  0
 31 33  1  0  0  0  0
 31 19  1  0  0  0  0
 32 31  1  0  0  0  0
 34 31  1  0  0  0  0
 35 36  1  6  0  0  0
 35 37  1  0  0  0  0
 35  1  1  0  0  0  0
 37 38  1  0  0  0  0
 37 39  1  0  0  0  0
 40 37  1  0  0  0  0
 41 35  1  0  0  0  0
 41 42  1  0  0  0  0
 43 41  1  0  0  0  0
 44 48  1  0  0  0  0
 44 41  1  0  0  0  0
 45 44  2  0  0  0  0
 46 45  1  0  0  0  0
 46 47  2  0  0  0  0
 47 48  1  0  0  0  0
 48 50  1  0  0  0  0
 49 47  1  0  0  0  0
 50 51  1  0  0  0  0
 52 50  1  0  0  0  0
 53 50  1  0  0  0  0
M  END
>  <MODEL>
2

>  <REMARK>
 VINA RESULT:    -8.580      1.036      1.470
 INTER + INTRA:         -12.002
 INTER:                 -11.442
 INTRA:                  -0.560
 UNBOUND:                -0.413
  Name = 
  7 active torsions:
  status: ('A' for Active; 'I' for Inactive)
    1  A    between atoms: C_1  and  C_2
    2  A    between atoms: C_2  and  C_3
    3  A    between atoms: C_2  and  C_10
    4  A    between atoms: C_3  and  C_4
    5  A    between atoms: N_8  and  C_9
    6  A    between atoms: C_14  and  N_16
    7  A    between atoms: C_24  and  C_28
                            x       y       z     vdW  Elec       q    Type
                         _______ _______ _______ _____ _____    ______ ____

>  <TORSDO>
F 7

$$$$
=
 OpenBabel07192307433D

 53 56  0  0  1  0  0  0  0  0999 V2000
    0.4940   11.3330   21.2580 C   0  0  0  0  0  0  0  0  0  0  0  0
   -0.4300   11.2250   22.3080 C   0  0  0  0  0  0  0  0  0  0  0  0
   -0.6510    9.9970   22.9330 C   0  0  0  0  0  0  0  0  0  0  0  0
    0.0540    8.8670   22.5200 C   0  0  0  0  0  0  0  0  0  0  0  0
    0.9870    8.9510   21.4820 C   0  0  0  0  0  0  0  0  0  0  0  0
    1.1960   10.1820   20.8510 C   0  0  0  0  0  0  0  0  0  0  0  0
   -0.9810   12.0940   22.6580 H   0  0  0  0  0  0  0  0  0  0  0  0
   -1.3610    9.9250   23.7530 H   0  0  0  0  0  0  0  0  0  0  0  0
   -0.1330    7.9240   23.0290 H   0  0  0  0  0  0  0  0  0  0  0  0
    1.9050   10.2680   20.0310 H   0  0  0  0  0  0  0  0  0  0  0  0
    1.6530    7.7630   21.1250 N   0  0  0  0  0  0  0  0  0  0  0  0
    1.9480    7.3080   19.8420 C   0  0  0  0  0  0  0  0  0  0  0  0
    2.5160    6.0270   19.8920 N   0  0  0  0  0  0  0  0  0  0  0  0
    1.7030    4.9440   20.4520 C   0  0  0  0  0  0  0  0  0  0  0  0
    2.5240    3.6740   20.6310 C   0  0  0  0  0  0  0  0  0  0  0  0
    3.0800    3.2380   19.3870 O   0  0  0  0  0  0  0  0  0  0  0  0
    3.7030    4.2590   18.7090 C   0  0  0  0  0  0  0  0  0  0  0  0
    4.6300    3.8710   17.7420 C   0  0  0  0  0  0  0  0  0  0  0  0
    5.3370    4.8480   17.0320 C   0  0  0  0  0  0  0  0  0  0  0  0
    5.0890    6.1750   17.3500 C   0  0  0  0  0  0  0  0  0  0  0  0
    4.1860    6.5750   18.2750 N   0  0  0  0  0  0  0  0  0  0  0  0
    3.4670    5.6270   18.9180 C   0  0  0  0  0  0  0  0  0  0  0  0
    1.7230    7.9190   18.8020 O   0  0  0  0  0  0  0  0  0  0  0  0
    2.2160    7.3280   21.8380 H   0  0  0  0  0  0  0  0  0  0  0  0
    0.8710    4.7720   19.7530 H   0  0  0  0  0  0  0  0  0  0  0  0
    1.2730    5.2500   21.4120 H   0  0  0  0  0  0  0  0  0  0  0  0
    1.8830    2.8650   21.0070 H   0  0  0  0  0  0  0  0  0  0  0  0
    3.3350    3.8170   21.3600 H   0  0  0  0  0  0  0  0  0  0  0  0
    4.8010    2.8140   17.5520 H   0  0  0  0  0  0  0  0  0  0  0  0
    5.6160    6.9890   16.8560 H   0  0  0  0  0  0  0  0  0  0  0  0
    6.3700    4.5030   16.0060 C   0  0  0  0  0  0  0  0  0  0  0  0
    7.6290    4.4330   16.5130 F   0  0  0  0  0  0  0  0  0  0  0  0
    6.4300    5.3990   14.9890 F   0  0  0  0  0  0  0  0  0  0  0  0
    6.1360    3.2960   15.4300 F   0  0  0  0  0  0  0  0  0  0  0  0
    0.7640   12.6660   20.5680 C   0  0  2  0  0  0  0  0  0  0  0  0
    1.8540   12.8080   20.5030 H   0  0  0  0  0  0  0  0  0  0  0  0
    0.2210   13.8190   21.4260 C   0  0  0  0  0  0  0  0  0  0  0  0
   -0.8370   14.0070   21.2130 H   0  0  0  0  0  0  0  0  0  0  0  0
    0.3140   13.6100   22.4980 H   0  0  0  0  0  0  0  0  0  0  0  0
    0.7660   14.7490   21.2170 H   0  0  0  0  0  0  0  0  0  0  0  0
    0.1970   12.6790   19.1300 C   0  0  0  0  0  0  0  0  0  0  0  0
    0.2610   13.6980   18.7270 H   0  0  0  0  0  0  0  0  0  0  0  0
    0.8070   12.0560   18.4690 H   0  0  0  0  0  0  0  0  0  0  0  0
   -1.2300   12.2540   19.0680 C   0  0  0  0  0  0  0  0  0  0  0  0
   -2.2580   12.8990   19.5840 N   0  0  0  0  0  0  0  0  0  0  0  0
   -3.3930   12.1710   19.3280 N   0  0  0  0  0  0  0  0  0  0  0  0
   -3.0380   11.1010   18.6560 C   0  0  0  0  0  0  0  0  0  0  0  0
   -1.6920   11.1140   18.4620 N   0  0  0  0  0  0  0  0  0  0  0  0
   -3.6980   10.3190   18.3040 H   0  0  0  0  0  0  0  0  0  0  0  0
   -0.9380   10.1200   17.7460 C   0  0  0  0  0  0  0  0  0  0  0  0
   -1.6370    9.3530   17.3910 H   0  0  0  0  0  0  0  0  0  0  0  0
   -0.1970    9.6660   18.4110 H   0  0  0  0  0  0  0  0  0  0  0  0
   -0.4300   10.5940   16.9030 H   0  0  0  0  0  0  0  0  0  0  0  0
  1  2  1  0  0  0  0
  2  7  1  0  0  0  0
  2  3  2  0  0  0  0
  3  8  1  0  0  0  0
  4  3  1  0  0  0  0
  4  9  1  0  0  0  0
  5  4  2  0  0  0  0
  6  1  2  0  0  0  0
  6  5  1  0  0  0  0
 10  6  1  0  0  0  0
 11  5  1  0  0  0  0
 11 24  1  0  0  0  0
 12 13  1  0  0  0  0
 12 11  1  0  0  0  0
 13 14  1  0  0  0  0
 14 15  1  0  0  0  0
 14 26  1  0  0  0  0
 15 27  1  0  0  0  0
 15 28  1  0  0  0  0
 16 15  1  0  0  0  0
 17 22  1  0  0  0  0
 17 16  1  0  0  0  0
 18 17  2  0  0  0  0
 19 20  2  0  0  0  0
 19 18  1  0  0  0  0
 20 21  1  0  0  0  0
 21 22  2  0  0  0  0
 22 13  1  0  0  0  0
 23 12  2  0  0  0  0
 25 14  1  0  0  0  0
 29 18  1  0  0  0  0
 30 20  1  0  0  0  0
 31 32  1  0  0  0  0
 31 19  1  0  0  0  0
 33 31  1  0  0  0  0
 34 31  1  0  0  0  0
 35 36  1  6  0  0  0
 35  1  1  0  0  0  0
 35 37  1  0  0  0  0
 37 39  1  0  0  0  0
 38 37  1  0  0  0  0
 40 37  1  0  0  0  0
 41 35  1  0  0  0  0
 42 41  1  0  0  0  0
 43 41  1  0  0  0  0
 44 41  1  0  0  0  0
 44 45  2  0  0  0  0
 46 45  1  0  0  0  0
 47 46  2  0  0  0  0
 48 47  1  0  0  0  0
 48 44  1  0  0  0  0
 49 47  1  0  0  0  0
 50 52  1  0  0  0  0
 50 48  1  0  0  0  0
 51 50  1  0  0  0  0
 53 50  1  0  0  0  0
M  END
>  <MODEL>
3

>  <REMARK>
 VINA RESULT:    -8.257      1.275      1.937
 INTER + INTRA:         -11.566
 INTER:                 -10.980
 INTRA:                  -0.586
 UNBOUND:                -0.413
  Name = 
  7 active torsions:
  status: ('A' for Active; 'I' for Inactive)
    1  A    between atoms: C_1  and  C_2
    2  A    between atoms: C_2  and  C_3
    3  A    between atoms: C_2  and  C_10
    4  A    between atoms: C_3  and  C_4
    5  A    between atoms: N_8  and  C_9
    6  A    between atoms: C_14  and  N_16
    7  A    between atoms: C_24  and  C_28
                            x       y       z     vdW  Elec       q    Type
                         _______ _______ _______ _____ _____    ______ ____

>  <TORSDO>
F 7

$$$$
=
 OpenBabel07192307433D

 53 56  0  0  1  0  0  0  0  0999 V2000
    0.3290   11.2170   20.7450 C   0  0  0  0  0  0  0  0  0  0  0  0
   -0.3430   11.1980   21.9760 C   0  0  0  0  0  0  0  0  0  0  0  0
   -0.3060   10.0610   22.7840 C   0  0  0  0  0  0  0  0  0  0  0  0
    0.4050    8.9350   22.3730 C   0  0  0  0  0  0  0  0  0  0  0  0
    1.0900    8.9330   21.1540 C   0  0  0  0  0  0  0  0  0  0  0  0
    1.0410   10.0720   20.3430 C   0  0  0  0  0  0  0  0  0  0  0  0
   -0.8910   12.0680   22.3260 H   0  0  0  0  0  0  0  0  0  0  0  0
   -0.8210   10.0580   23.7420 H   0  0  0  0  0  0  0  0  0  0  0  0
    0.4220    8.0640   23.0260 H   0  0  0  0  0  0  0  0  0  0  0  0
    1.5530   10.0870   19.3830 H   0  0  0  0  0  0  0  0  0  0  0  0
    1.7810    7.7550   20.8120 N   0  0  0  0  0  0  0  0  0  0  0  0
    2.0360    7.2600   19.5360 C   0  0  0  0  0  0  0  0  0  0  0  0
    2.6510    6.0020   19.6080 N   0  0  0  0  0  0  0  0  0  0  0  0
    1.9020    4.9140   20.2450 C   0  0  0  0  0  0  0  0  0  0  0  0
    2.7740    3.6810   20.4350 C   0  0  0  0  0  0  0  0  0  0  0  0
    3.2900    3.2150   19.1850 O   0  0  0  0  0  0  0  0  0  0  0  0
    3.8460    4.2290   18.4410 C   0  0  0  0  0  0  0  0  0  0  0  0
    4.7430    3.8350   17.4480 C   0  0  0  0  0  0  0  0  0  0  0  0
    5.3830    4.8060   16.6700 C   0  0  0  0  0  0  0  0  0  0  0  0
    5.1020    6.1350   16.9480 C   0  0  0  0  0  0  0  0  0  0  0  0
    4.2270    6.5410   17.8970 N   0  0  0  0  0  0  0  0  0  0  0  0
    3.5710    5.5950   18.6080 C   0  0  0  0  0  0  0  0  0  0  0  0
    1.7440    7.8210   18.4840 O   0  0  0  0  0  0  0  0  0  0  0  0
    2.3900    7.3670   21.5150 H   0  0  0  0  0  0  0  0  0  0  0  0
    1.0460    4.6870   19.5910 H   0  0  0  0  0  0  0  0  0  0  0  0
    1.5030    5.2430   21.2110 H   0  0  0  0  0  0  0  0  0  0  0  0
    2.1800    2.8660   20.8700 H   0  0  0  0  0  0  0  0  0  0  0  0
    3.6110    3.8800   21.1200 H   0  0  0  0  0  0  0  0  0  0  0  0
    4.9430    2.7770   17.2910 H   0  0  0  0  0  0  0  0  0  0  0  0
    5.5780    6.9470   16.4010 H   0  0  0  0  0  0  0  0  0  0  0  0
    6.3810    4.4560   15.6120 C   0  0  0  0  0  0  0  0  0  0  0  0
    7.6610    4.4330   16.0680 F   0  0  0  0  0  0  0  0  0  0  0  0
    6.3750    5.3210   14.5670 F   0  0  0  0  0  0  0  0  0  0  0  0
    6.1560    3.2260   15.0830 F   0  0  0  0  0  0  0  0  0  0  0  0
    0.3170   12.4530   19.8500 C   0  0  2  0  0  0  0  0  0  0  0  0
    0.1660   13.3390   20.4850 H   0  0  0  0  0  0  0  0  0  0  0  0
   -0.8800   12.3910   18.8900 C   0  0  0  0  0  0  0  0  0  0  0  0
   -1.4880   13.3010   18.9560 H   0  0  0  0  0  0  0  0  0  0  0  0
   -0.5630   12.2770   17.8470 H   0  0  0  0  0  0  0  0  0  0  0  0
   -1.5340   11.5440   19.1360 H   0  0  0  0  0  0  0  0  0  0  0  0
    1.6630   12.6230   19.1100 C   0  0  0  0  0  0  0  0  0  0  0  0
    2.1840   11.6570   19.0820 H   0  0  0  0  0  0  0  0  0  0  0  0
    1.4980   12.9050   18.0670 H   0  0  0  0  0  0  0  0  0  0  0  0
    2.5660   13.6060   19.7740 C   0  0  0  0  0  0  0  0  0  0  0  0
    2.8160   13.6860   21.0660 N   0  0  0  0  0  0  0  0  0  0  0  0
    3.6800   14.7330   21.2710 N   0  0  0  0  0  0  0  0  0  0  0  0
    3.9460   15.2670   20.1020 C   0  0  0  0  0  0  0  0  0  0  0  0
    3.2760   14.5890   19.1320 N   0  0  0  0  0  0  0  0  0  0  0  0
    4.5920   16.1160   19.9190 H   0  0  0  0  0  0  0  0  0  0  0  0
    3.3360   14.8660   17.7210 C   0  0  0  0  0  0  0  0  0  0  0  0
    2.3570   15.2510   17.4090 H   0  0  0  0  0  0  0  0  0  0  0  0
    3.5650   13.9470   17.1720 H   0  0  0  0  0  0  0  0  0  0  0  0
    4.1160   15.6070   17.5340 H   0  0  0  0  0  0  0  0  0  0  0  0
  1  2  1  0  0  0  0
  2  7  1  0  0  0  0
  2  3  2  0  0  0  0
  3  8  1  0  0  0  0
  4  3  1  0  0  0  0
  4  9  1  0  0  0  0
  5  4  2  0  0  0  0
  6  1  2  0  0  0  0
  6  5  1  0  0  0  0
 10  6  1  0  0  0  0
 11  5  1  0  0  0  0
 11 24  1  0  0  0  0
 12 13  1  0  0  0  0
 12 11  1  0  0  0  0
 13 14  1  0  0  0  0
 14 15  1  0  0  0  0
 14 26  1  0  0  0  0
 15 27  1  0  0  0  0
 15 28  1  0  0  0  0
 16 15  1  0  0  0  0
 17 22  1  0  0  0  0
 17 16  1  0  0  0  0
 18 17  2  0  0  0  0
 19 20  2  0  0  0  0
 19 18  1  0  0  0  0
 20 21  1  0  0  0  0
 21 22  2  0  0  0  0
 22 13  1  0  0  0  0
 23 12  2  0  0  0  0
 25 14  1  0  0  0  0
 29 18  1  0  0  0  0
 30 20  1  0  0  0  0
 31 32  1  0  0  0  0
 31 19  1  0  0  0  0
 33 31  1  0  0  0  0
 34 31  1  0  0  0  0
 35 36  1  1  0  0  0
 35  1  1  0  0  0  0
 37 38  1  0  0  0  0
 37 40  1  0  0  0  0
 37 35  1  0  0  0  0
 39 37  1  0  0  0  0
 41 44  1  0  0  0  0
 41 35  1  0  0  0  0
 42 41  1  0  0  0  0
 43 41  1  0  0  0  0
 44 45  2  0  0  0  0
 45 46  1  0  0  0  0
 47 46  2  0  0  0  0
 48 44  1  0  0  0  0
 48 47  1  0  0  0  0
 49 47  1  0  0  0  0
 50 48  1  0  0  0  0
 51 50  1  0  0  0  0
 52 50  1  0  0  0  0
 53 50  1  0  0  0  0
M  END
>  <MODEL>
4

>  <REMARK>
 VINA RESULT:    -8.218      2.602      3.865
 INTER + INTRA:         -11.513
 INTER:                 -11.016
 INTRA:                  -0.497
 UNBOUND:                -0.413
  Name = 
  7 active torsions:
  status: ('A' for Active; 'I' for Inactive)
    1  A    between atoms: C_1  and  C_2
    2  A    between atoms: C_2  and  C_3
    3  A    between atoms: C_2  and  C_10
    4  A    between atoms: C_3  and  C_4
    5  A    between atoms: N_8  and  C_9
    6  A    between atoms: C_14  and  N_16
    7  A    between atoms: C_24  and  C_28
                            x       y       z     vdW  Elec       q    Type
                         _______ _______ _______ _____ _____    ______ ____

>  <TORSDO>
F 7

$$$$
=
 OpenBabel07192307433D

 53 56  0  0  1  0  0  0  0  0999 V2000
   -0.0990   11.1860   21.2450 C   0  0  0  0  0  0  0  0  0  0  0  0
   -0.1200   12.0570   20.1460 C   0  0  0  0  0  0  0  0  0  0  0  0
    0.5210   11.7110   18.9560 C   0  0  0  0  0  0  0  0  0  0  0  0
    1.1840   10.4890   18.8500 C   0  0  0  0  0  0  0  0  0  0  0  0
    1.2110    9.6000   19.9290 C   0  0  0  0  0  0  0  0  0  0  0  0
    0.5760    9.9570   21.1240 C   0  0  0  0  0  0  0  0  0  0  0  0
   -0.6420   13.0090   20.1990 H   0  0  0  0  0  0  0  0  0  0  0  0
    0.4910   12.3880   18.1060 H   0  0  0  0  0  0  0  0  0  0  0  0
    1.6690   10.2420   17.9090 H   0  0  0  0  0  0  0  0  0  0  0  0
    0.5980    9.2880   21.9810 H   0  0  0  0  0  0  0  0  0  0  0  0
    1.9050    8.3890   19.7400 N   0  0  0  0  0  0  0  0  0  0  0  0
    2.1540    7.7320   18.5380 C   0  0  0  0  0  0  0  0  0  0  0  0
    2.7740    6.4960   18.7710 N   0  0  0  0  0  0  0  0  0  0  0  0
    2.0320    5.4990   19.5500 C   0  0  0  0  0  0  0  0  0  0  0  0
    2.9090    4.3040   19.8940 C   0  0  0  0  0  0  0  0  0  0  0  0
    3.4200    3.6790   18.7130 O   0  0  0  0  0  0  0  0  0  0  0  0
    3.9690    4.5890   17.8390 C   0  0  0  0  0  0  0  0  0  0  0  0
    4.8620    4.0710   16.9010 C   0  0  0  0  0  0  0  0  0  0  0  0
    5.4940    4.9330   15.9990 C   0  0  0  0  0  0  0  0  0  0  0  0
    5.2100    6.2860   16.1030 C   0  0  0  0  0  0  0  0  0  0  0  0
    4.3390    6.8100   16.9950 N   0  0  0  0  0  0  0  0  0  0  0  0
    3.6900    5.9640   17.8280 C   0  0  0  0  0  0  0  0  0  0  0  0
    1.8540    8.1500   17.4240 O   0  0  0  0  0  0  0  0  0  0  0  0
    2.5190    8.0980   20.4850 H   0  0  0  0  0  0  0  0  0  0  0  0
    1.1740    5.1860   18.9360 H   0  0  0  0  0  0  0  0  0  0  0  0
    1.6380    5.9510   20.4670 H   0  0  0  0  0  0  0  0  0  0  0  0
    2.3210    3.5520   20.4360 H   0  0  0  0  0  0  0  0  0  0  0  0
    3.7490    4.5930   20.5420 H   0  0  0  0  0  0  0  0  0  0  0  0
    5.0640    3.0020   16.8830 H   0  0  0  0  0  0  0  0  0  0  0  0
    5.6800    7.0210   15.4510 H   0  0  0  0  0  0  0  0  0  0  0  0
    6.4880    4.4500   14.9910 C   0  0  0  0  0  0  0  0  0  0  0  0
    6.6240    5.2860   13.9280 F   0  0  0  0  0  0  0  0  0  0  0  0
    6.1710    3.2380   14.4700 F   0  0  0  0  0  0  0  0  0  0  0  0
    7.7310    4.3190   15.5180 F   0  0  0  0  0  0  0  0  0  0  0  0
   -0.8040   11.5350   22.5530 C   0  0  2  0  0  0  0  0  0  0  0  0
   -0.1380   12.1810   23.1430 H   0  0  0  0  0  0  0  0  0  0  0  0
   -1.0290   10.2610   23.3810 C   0  0  0  0  0  0  0  0  0  0  0  0
   -2.0840    9.9640   23.3720 H   0  0  0  0  0  0  0  0  0  0  0  0
   -0.4410    9.4170   23.0020 H   0  0  0  0  0  0  0  0  0  0  0  0
   -0.7450   10.4230   24.4290 H   0  0  0  0  0  0  0  0  0  0  0  0
   -2.1140   12.3130   22.2940 C   0  0  0  0  0  0  0  0  0  0  0  0
   -2.0740   12.7640   21.2940 H   0  0  0  0  0  0  0  0  0  0  0  0
   -2.9710   11.6350   22.2820 H   0  0  0  0  0  0  0  0  0  0  0  0
   -2.3370   13.4100   23.2780 C   0  0  0  0  0  0  0  0  0  0  0  0
   -1.6560   14.5360   23.3580 N   0  0  0  0  0  0  0  0  0  0  0  0
   -2.1580   15.2670   24.4060 N   0  0  0  0  0  0  0  0  0  0  0  0
   -3.1390   14.5770   24.9410 C   0  0  0  0  0  0  0  0  0  0  0  0
   -3.2940   13.4100   24.2620 N   0  0  0  0  0  0  0  0  0  0  0  0
   -3.7400   14.8750   25.7900 H   0  0  0  0  0  0  0  0  0  0  0  0
   -4.2840   12.4030   24.5380 C   0  0  0  0  0  0  0  0  0  0  0  0
   -5.1290   12.8880   25.0440 H   0  0  0  0  0  0  0  0  0  0  0  0
   -3.8580   11.6310   25.1860 H   0  0  0  0  0  0  0  0  0  0  0  0
   -4.6090   11.9520   23.5970 H   0  0  0  0  0  0  0  0  0  0  0  0
  1 35  1  0  0  0  0
  2  7  1  0  0  0  0
  2  1  2  0  0  0  0
  3  2  1  0  0  0  0
  4  3  2  0  0  0  0
  4  5  1  0  0  0  0
  5  6  2  0  0  0  0
  6  1  1  0  0  0  0
  6 10  1  0  0  0  0
  8  3  1  0  0  0  0
  9  4  1  0  0  0  0
 11  5  1  0  0  0  0
 11 24  1  0  0  0  0
 12 13  1  0  0  0  0
 12 11  1  0  0  0  0
 13 14  1  0  0  0  0
 14 15  1  0  0  0  0
 14 26  1  0  0  0  0
 15 27  1  0  0  0  0
 15 28  1  0  0  0  0
 16 15  1  0  0  0  0
 17 16  1  0  0  0  0
 18 17  2  0  0  0  0
 19 20  2  0  0  0  0
 19 18  1  0  0  0  0
 20 21  1  0  0  0  0
 21 22  2  0  0  0  0
 22 17  1  0  0  0  0
 22 13  1  0  0  0  0
 23 12  2  0  0  0  0
 25 14  1  0  0  0  0
 29 18  1  0  0  0  0
 30 20  1  0  0  0  0
 31 34  1  0  0  0  0
 31 19  1  0  0  0  0
 32 31  1  0  0  0  0
 33 31  1  0  0  0  0
 35 36  1  1  0  0  0
 35 37  1  0  0  0  0
 37 40  1  0  0  0  0
 38 37  1  0  0  0  0
 39 37  1  0  0  0  0
 41 35  1  0  0  0  0
 41 44  1  0  0  0  0
 42 41  1  0  0  0  0
 43 41  1  0  0  0  0
 44 45  2  0  0  0  0
 44 48  1  0  0  0  0
 45 46  1  0  0  0  0
 46 47  2  0  0  0  0
 47 49  1  0  0  0  0
 48 50  1  0  0  0  0
 48 47  1  0  0  0  0
 50 51  1  0  0  0  0
 50 52  1  0  0  0  0
 53 50  1  0  0  0  0
M  END
>  <MODEL>
5

>  <REMARK>
 VINA RESULT:    -7.969      3.076      4.129
 INTER + INTRA:         -11.177
 INTER:                 -10.925
 INTRA:                  -0.252
 UNBOUND:                -0.413
  Name = 
  7 active torsions:
  status: ('A' for Active; 'I' for Inactive)
    1  A    between atoms: C_1  and  C_2
    2  A    between atoms: C_2  and  C_3
    3  A    between atoms: C_2  and  C_10
    4  A    between atoms: C_3  and  C_4
    5  A    between atoms: N_8  and  C_9
    6  A    between atoms: C_14  and  N_16
    7  A    between atoms: C_24  and  C_28
                            x       y       z     vdW  Elec       q    Type
                         _______ _______ _______ _____ _____    ______ ____

>  <TORSDO>
F 7

$$$$
=
 OpenBabel07192307433D

 53 56  0  0  1  0  0  0  0  0999 V2000
   -1.1620   11.6570   19.5670 C   0  0  0  0  0  0  0  0  0  0  0  0
   -0.3980   12.7960   19.2730 C   0  0  0  0  0  0  0  0  0  0  0  0
    0.9830   12.6960   19.1020 C   0  0  0  0  0  0  0  0  0  0  0  0
    1.6130   11.4580   19.2180 C   0  0  0  0  0  0  0  0  0  0  0  0
    0.8720   10.3070   19.5020 C   0  0  0  0  0  0  0  0  0  0  0  0
   -0.5110   10.4140   19.6830 C   0  0  0  0  0  0  0  0  0  0  0  0
   -0.8680   13.7690   19.1630 H   0  0  0  0  0  0  0  0  0  0  0  0
    1.5660   13.5820   18.8640 H   0  0  0  0  0  0  0  0  0  0  0  0
    2.6900   11.4080   19.0730 H   0  0  0  0  0  0  0  0  0  0  0  0
   -1.1050    9.5350   19.9210 H   0  0  0  0  0  0  0  0  0  0  0  0
    1.5860    9.0980   19.6050 N   0  0  0  0  0  0  0  0  0  0  0  0
    1.9570    8.2400   18.5730 C   0  0  0  0  0  0  0  0  0  0  0  0
    2.5550    7.0800   19.0860 N   0  0  0  0  0  0  0  0  0  0  0  0
    1.7430    6.2240   19.9570 C   0  0  0  0  0  0  0  0  0  0  0  0
    2.5860    5.1310   20.5970 C   0  0  0  0  0  0  0  0  0  0  0  0
    3.2150    4.3140   19.6040 O   0  0  0  0  0  0  0  0  0  0  0  0
    3.8450    5.0630   18.6370 C   0  0  0  0  0  0  0  0  0  0  0  0
    4.8290    4.4040   17.9010 C   0  0  0  0  0  0  0  0  0  0  0  0
    5.5450    5.1030   16.9230 C   0  0  0  0  0  0  0  0  0  0  0  0
    5.2470    6.4460   16.7510 C   0  0  0  0  0  0  0  0  0  0  0  0
    4.2880    7.1030   17.4440 N   0  0  0  0  0  0  0  0  0  0  0  0
    3.5630    6.4070   18.3490 C   0  0  0  0  0  0  0  0  0  0  0  0
    1.7680    8.4430   17.3770 O   0  0  0  0  0  0  0  0  0  0  0  0
    2.1230    8.9600   20.4460 H   0  0  0  0  0  0  0  0  0  0  0  0
    0.9520    5.7870   19.3290 H   0  0  0  0  0  0  0  0  0  0  0  0
    1.2570    6.8250   20.7330 H   0  0  0  0  0  0  0  0  0  0  0  0
    1.9490    4.4760   21.2060 H   0  0  0  0  0  0  0  0  0  0  0  0
    3.3560    5.5500   21.2600 H   0  0  0  0  0  0  0  0  0  0  0  0
    5.0370    3.3540   18.0970 H   0  0  0  0  0  0  0  0  0  0  0  0
    5.7770    7.0610   16.0250 H   0  0  0  0  0  0  0  0  0  0  0  0
    6.6360    4.4680   16.1210 C   0  0  0  0  0  0  0  0  0  0  0  0
    7.1310    5.2800   15.1490 F   0  0  0  0  0  0  0  0  0  0  0  0
    6.2420    3.3330   15.4910 F   0  0  0  0  0  0  0  0  0  0  0  0
    7.7010    4.1210   16.8890 F   0  0  0  0  0  0  0  0  0  0  0  0
   -2.6760   11.7360   19.7440 C   0  0  2  0  0  0  0  0  0  0  0  0
   -2.9920   10.9040   20.3910 H   0  0  0  0  0  0  0  0  0  0  0  0
   -3.3720   11.5320   18.3910 C   0  0  0  0  0  0  0  0  0  0  0  0
   -2.8050   10.8430   17.7540 H   0  0  0  0  0  0  0  0  0  0  0  0
   -4.3830   11.1240   18.5080 H   0  0  0  0  0  0  0  0  0  0  0  0
   -3.4550   12.4830   17.8480 H   0  0  0  0  0  0  0  0  0  0  0  0
   -3.0920   13.0560   20.4330 C   0  0  0  0  0  0  0  0  0  0  0  0
   -2.2230   13.7230   20.4890 H   0  0  0  0  0  0  0  0  0  0  0  0
   -3.8390   13.5860   19.8340 H   0  0  0  0  0  0  0  0  0  0  0  0
   -3.5960   12.8500   21.8200 C   0  0  0  0  0  0  0  0  0  0  0  0
   -4.8600   12.7510   22.1840 N   0  0  0  0  0  0  0  0  0  0  0  0
   -4.9020   12.5860   23.5460 N   0  0  0  0  0  0  0  0  0  0  0  0
   -3.6650   12.5790   23.9860 C   0  0  0  0  0  0  0  0  0  0  0  0
   -2.8120   12.7330   22.9390 N   0  0  0  0  0  0  0  0  0  0  0  0
   -3.3550   12.4710   25.0170 H   0  0  0  0  0  0  0  0  0  0  0  0
   -1.3750   12.7510   23.0240 C   0  0  0  0  0  0  0  0  0  0  0  0
   -1.0980   13.1060   24.0240 H   0  0  0  0  0  0  0  0  0  0  0  0
   -0.9670   13.4260   22.2650 H   0  0  0  0  0  0  0  0  0  0  0  0
   -0.9940   11.7400   22.8570 H   0  0  0  0  0  0  0  0  0  0  0  0
  1  6  1  0  0  0  0
  1 35  1  0  0  0  0
  2  1  2  0  0  0  0
  3  4  2  0  0  0  0
  3  2  1  0  0  0  0
  4  5  1  0  0  0  0
  5 11  1  0  0  0  0
  5  6  2  0  0  0  0
  6 10  1  0  0  0  0
  7  2  1  0  0  0  0
  8  3  1  0  0  0  0
  9  4  1  0  0  0  0
 11 24  1  0  0  0  0
 12 13  1  0  0  0  0
 12 11  1  0  0  0  0
 13 14  1  0  0  0  0
 14 15  1  0  0  0  0
 14 26  1  0  0  0  0
 15 27  1  0  0  0  0
 15 28  1  0  0  0  0
 16 15  1  0  0  0  0
 17 16  1  0  0  0  0
 18 29  1  0  0  0  0
 18 17  2  0  0  0  0
 19 18  1  0  0  0  0
 20 19  2  0  0  0  0
 20 21  1  0  0  0  0
 21 22  2  0  0  0  0
 22 17  1  0  0  0  0
 22 13  1  0  0  0  0
 23 12  2  0  0  0  0
 25 14  1  0  0  0  0
 30 20  1  0  0  0  0
 31 34  1  0  0  0  0
 31 19  1  0  0  0  0
 32 31  1  0  0  0  0
 33 31  1  0  0  0  0
 35 36  1  1  0  0  0
 35 41  1  0  0  0  0
 37 39  1  0  0  0  0
 37 35  1  0  0  0  0
 38 37  1  0  0  0  0
 40 37  1  0  0  0  0
 41 42  1  0  0  0  0
 41 44  1  0  0  0  0
 43 41  1  0  0  0  0
 44 45  2  0  0  0  0
 44 48  1  0  0  0  0
 45 46  1  0  0  0  0
 46 47  2  0  0  0  0
 47 49  1  0  0  0  0
 48 50  1  0  0  0  0
 48 47  1  0  0  0  0
 50 51  1  0  0  0  0
 52 50  1  0  0  0  0
 53 50  1  0  0  0  0
M  END
>  <MODEL>
6

>  <REMARK>
 VINA RESULT:    -7.840      2.430      3.526
 INTER + INTRA:         -11.002
 INTER:                 -10.150
 INTRA:                  -0.852
 UNBOUND:                -0.413
  Name = 
  7 active torsions:
  status: ('A' for Active; 'I' for Inactive)
    1  A    between atoms: C_1  and  C_2
    2  A    between atoms: C_2  and  C_3
    3  A    between atoms: C_2  and  C_10
    4  A    between atoms: C_3  and  C_4
    5  A    between atoms: N_8  and  C_9
    6  A    between atoms: C_14  and  N_16
    7  A    between atoms: C_24  and  C_28
                            x       y       z     vdW  Elec       q    Type
                         _______ _______ _______ _____ _____    ______ ____

>  <TORSDO>
F 7

$$$$
=
 OpenBabel07192307433D

 53 56  0  0  1  0  0  0  0  0999 V2000
    2.6930    5.7690   18.7510 C   0  0  0  0  0  0  0  0  0  0  0  0
    2.2140    4.7840   19.6270 C   0  0  0  0  0  0  0  0  0  0  0  0
    1.5640    5.1440   20.8080 C   0  0  0  0  0  0  0  0  0  0  0  0
    1.3820    6.4900   21.1220 C   0  0  0  0  0  0  0  0  0  0  0  0
    1.8430    7.4900   20.2600 C   0  0  0  0  0  0  0  0  0  0  0  0
    2.5030    7.1240   19.0830 C   0  0  0  0  0  0  0  0  0  0  0  0
    2.3300    3.7290   19.3980 H   0  0  0  0  0  0  0  0  0  0  0  0
    1.1870    4.3740   21.4760 H   0  0  0  0  0  0  0  0  0  0  0  0
    0.8660    6.7430   22.0460 H   0  0  0  0  0  0  0  0  0  0  0  0
    2.8840    7.8850   18.4050 H   0  0  0  0  0  0  0  0  0  0  0  0
    1.6210    8.8240   20.6530 N   0  0  0  0  0  0  0  0  0  0  0  0
    0.4010    9.4890   20.7500 C   0  0  0  0  0  0  0  0  0  0  0  0
    0.6000   10.8410   21.0630 N   0  0  0  0  0  0  0  0  0  0  0  0
    1.3510   11.6570   20.1050 C   0  0  0  0  0  0  0  0  0  0  0  0
    1.6620   13.0330   20.6770 C   0  0  0  0  0  0  0  0  0  0  0  0
    0.4640   13.7280   21.0350 O   0  0  0  0  0  0  0  0  0  0  0  0
   -0.3850   12.9480   21.7870 C   0  0  0  0  0  0  0  0  0  0  0  0
   -1.3360   13.6350   22.5390 C   0  0  0  0  0  0  0  0  0  0  0  0
   -2.2140   12.9210   23.3620 C   0  0  0  0  0  0  0  0  0  0  0  0
   -2.0740   11.5420   23.4000 C   0  0  0  0  0  0  0  0  0  0  0  0
   -1.1670   10.8530   22.6700 N   0  0  0  0  0  0  0  0  0  0  0  0
   -0.3580   11.5460   21.8360 C   0  0  0  0  0  0  0  0  0  0  0  0
   -0.7010    8.9820   20.5630 O   0  0  0  0  0  0  0  0  0  0  0  0
    2.3560    9.2690   21.1780 H   0  0  0  0  0  0  0  0  0  0  0  0
    0.7290   11.7450   19.2010 H   0  0  0  0  0  0  0  0  0  0  0  0
    2.2800   11.1510   19.8210 H   0  0  0  0  0  0  0  0  0  0  0  0
    2.1830   13.6420   19.9250 H   0  0  0  0  0  0  0  0  0  0  0  0
    2.3180   12.9660   21.5570 H   0  0  0  0  0  0  0  0  0  0  0  0
   -1.3840   14.7210   22.4870 H   0  0  0  0  0  0  0  0  0  0  0  0
   -2.7050   10.9200   24.0330 H   0  0  0  0  0  0  0  0  0  0  0  0
   -3.2360   13.5950   24.2210 C   0  0  0  0  0  0  0  0  0  0  0  0
   -2.6950   14.4520   25.1270 F   0  0  0  0  0  0  0  0  0  0  0  0
   -3.9870   12.7230   24.9400 F   0  0  0  0  0  0  0  0  0  0  0  0
   -4.1120   14.3330   23.4930 F   0  0  0  0  0  0  0  0  0  0  0  0
    3.3940    5.4020   17.4460 C   0  0  2  0  0  0  0  0  0  0  0  0
    2.7490    5.7070   16.6090 H   0  0  0  0  0  0  0  0  0  0  0  0
    3.5510    3.8770   17.3480 C   0  0  0  0  0  0  0  0  0  0  0  0
    3.9080    3.4540   18.2940 H   0  0  0  0  0  0  0  0  0  0  0  0
    2.6060    3.3840   17.0960 H   0  0  0  0  0  0  0  0  0  0  0  0
    4.2840    3.6110   16.5740 H   0  0  0  0  0  0  0  0  0  0  0  0
    4.7410    6.1480   17.3030 C   0  0  0  0  0  0  0  0  0  0  0  0
    4.5480    7.1860   17.0040 H   0  0  0  0  0  0  0  0  0  0  0  0
    5.2560    6.2030   18.2660 H   0  0  0  0  0  0  0  0  0  0  0  0
    5.6320    5.5380   16.2750 C   0  0  0  0  0  0  0  0  0  0  0  0
    5.4350    5.5430   14.9720 N   0  0  0  0  0  0  0  0  0  0  0  0
    6.4700    4.8630   14.3800 N   0  0  0  0  0  0  0  0  0  0  0  0
    7.2810    4.4620   15.3310 C   0  0  0  0  0  0  0  0  0  0  0  0
    6.8010    4.8690   16.5360 N   0  0  0  0  0  0  0  0  0  0  0  0
    8.1920    3.8940   15.1960 H   0  0  0  0  0  0  0  0  0  0  0  0
    7.4280    4.6390   17.8100 C   0  0  0  0  0  0  0  0  0  0  0  0
    8.5140    4.7030   17.6710 H   0  0  0  0  0  0  0  0  0  0  0  0
    7.1600    3.6450   18.1820 H   0  0  0  0  0  0  0  0  0  0  0  0
    7.0880    5.3980   18.5190 H   0  0  0  0  0  0  0  0  0  0  0  0
  1  6  2  0  0  0  0
  1  2  1  0  0  0  0
  2  3  2  0  0  0  0
  3  4  1  0  0  0  0
  3  8  1  0  0  0  0
  4  9  1  0  0  0  0
  5 11  1  0  0  0  0
  5  4  2  0  0  0  0
  6  5  1  0  0  0  0
  7  2  1  0  0  0  0
 10  6  1  0  0  0  0
 11 12  1  0  0  0  0
 11 24  1  0  0  0  0
 12 13  1  0  0  0  0
 13 22  1  0  0  0  0
 14 15  1  0  0  0  0
 14 13  1  0  0  0  0
 15 16  1  0  0  0  0
 15 28  1  0  0  0  0
 16 17  1  0  0  0  0
 17 22  2  0  0  0  0
 17 18  1  0  0  0  0
 18 19  2  0  0  0  0
 19 20  1  0  0  0  0
 19 31  1  0  0  0  0
 20 30  1  0  0  0  0
 21 20  2  0  0  0  0
 22 21  1  0  0  0  0
 23 12  2  0  0  0  0
 25 14  1  0  0  0  0
 26 14  1  0  0  0  0
 27 15  1  0  0  0  0
 29 18  1  0  0  0  0
 31 33  1  0  0  0  0
 31 32  1  0  0  0  0
 34 31  1  0  0  0  0
 35 36  1  6  0  0  0
 35  1  1  0  0  0  0
 37 35  1  0  0  0  0
 37 38  1  0  0  0  0
 39 37  1  0  0  0  0
 40 37  1  0  0  0  0
 41 35  1  0  0  0  0
 41 43  1  0  0  0  0
 42 41  1  0  0  0  0
 44 48  1  0  0  0  0
 44 41  1  0  0  0  0
 45 44  2  0  0  0  0
 46 45  1  0  0  0  0
 46 47  2  0  0  0  0
 47 48  1  0  0  0  0
 48 50  1  0  0  0  0
 49 47  1  0  0  0  0
 50 52  1  0  0  0  0
 50 53  1  0  0  0  0
 51 50  1  0  0  0  0
M  END
>  <MODEL>
7

>  <REMARK>
 VINA RESULT:    -7.784      6.069     10.135
 INTER + INTRA:         -10.927
 INTER:                 -10.291
 INTRA:                  -0.636
 UNBOUND:                -0.413
  Name = 
  7 active torsions:
  status: ('A' for Active; 'I' for Inactive)
    1  A    between atoms: C_1  and  C_2
    2  A    between atoms: C_2  and  C_3
    3  A    between atoms: C_2  and  C_10
    4  A    between atoms: C_3  and  C_4
    5  A    between atoms: N_8  and  C_9
    6  A    between atoms: C_14  and  N_16
    7  A    between atoms: C_24  and  C_28
                            x       y       z     vdW  Elec       q    Type
                         _______ _______ _______ _____ _____    ______ ____

>  <TORSDO>
F 7

$$$$
=
 OpenBabel07192307433D

 53 56  0  0  1  0  0  0  0  0999 V2000
    0.4080   12.6050   19.3510 C   0  0  0  0  0  0  0  0  0  0  0  0
   -0.9730   12.4290   19.1880 C   0  0  0  0  0  0  0  0  0  0  0  0
   -1.5260   11.1480   19.1680 C   0  0  0  0  0  0  0  0  0  0  0  0
   -0.7050   10.0320   19.3190 C   0  0  0  0  0  0  0  0  0  0  0  0
    0.6740   10.1820   19.4930 C   0  0  0  0  0  0  0  0  0  0  0  0
    1.2250   11.4680   19.5000 C   0  0  0  0  0  0  0  0  0  0  0  0
   -1.6360   13.2840   19.0840 H   0  0  0  0  0  0  0  0  0  0  0  0
   -2.6000   11.0220   19.0520 H   0  0  0  0  0  0  0  0  0  0  0  0
   -1.1630    9.0450   19.3070 H   0  0  0  0  0  0  0  0  0  0  0  0
    2.2970   11.6080   19.6180 H   0  0  0  0  0  0  0  0  0  0  0  0
    1.4310    9.0030   19.6350 N   0  0  0  0  0  0  0  0  0  0  0  0
    1.8660    8.1470   18.6260 C   0  0  0  0  0  0  0  0  0  0  0  0
    2.4940    7.0190   19.1740 N   0  0  0  0  0  0  0  0  0  0  0  0
    1.6920    6.1440   20.0330 C   0  0  0  0  0  0  0  0  0  0  0  0
    2.5580    5.0940   20.7140 C   0  0  0  0  0  0  0  0  0  0  0  0
    3.2470    4.2890   19.7510 O   0  0  0  0  0  0  0  0  0  0  0  0
    3.8750    5.0490   18.7920 C   0  0  0  0  0  0  0  0  0  0  0  0
    4.9050    4.4190   18.0940 C   0  0  0  0  0  0  0  0  0  0  0  0
    5.6220    5.1330   17.1270 C   0  0  0  0  0  0  0  0  0  0  0  0
    5.2750    6.4610   16.9260 C   0  0  0  0  0  0  0  0  0  0  0  0
    4.2720    7.0890   17.5810 N   0  0  0  0  0  0  0  0  0  0  0  0
    3.5490    6.3770   18.4760 C   0  0  0  0  0  0  0  0  0  0  0  0
    1.7040    8.3260   17.4230 O   0  0  0  0  0  0  0  0  0  0  0  0
    1.9490    8.8990   20.4930 H   0  0  0  0  0  0  0  0  0  0  0  0
    0.9370    5.6660   19.3900 H   0  0  0  0  0  0  0  0  0  0  0  0
    1.1600    6.7360   20.7870 H   0  0  0  0  0  0  0  0  0  0  0  0
    1.9300    4.4220   21.3140 H   0  0  0  0  0  0  0  0  0  0  0  0
    3.2910    5.5520   21.3920 H   0  0  0  0  0  0  0  0  0  0  0  0
    5.1480    3.3810   18.3120 H   0  0  0  0  0  0  0  0  0  0  0  0
    5.8020    7.0860   16.2070 H   0  0  0  0  0  0  0  0  0  0  0  0
    6.7600    4.5310   16.3660 C   0  0  0  0  0  0  0  0  0  0  0  0
    6.4140    3.4090   15.6810 F   0  0  0  0  0  0  0  0  0  0  0  0
    7.8010    4.1730   17.1590 F   0  0  0  0  0  0  0  0  0  0  0  0
    7.2680    5.3850   15.4420 F   0  0  0  0  0  0  0  0  0  0  0  0
    1.0360   13.9960   19.3900 C   0  0  2  0  0  0  0  0  0  0  0  0
    1.2180   14.2640   20.4420 H   0  0  0  0  0  0  0  0  0  0  0  0
    0.0460   15.0320   18.8370 C   0  0  0  0  0  0  0  0  0  0  0  0
    0.4240   15.4870   17.9150 H   0  0  0  0  0  0  0  0  0  0  0  0
   -0.9300   14.5870   18.6140 H   0  0  0  0  0  0  0  0  0  0  0  0
   -0.1130   15.8430   19.5600 H   0  0  0  0  0  0  0  0  0  0  0  0
    2.3940   14.0200   18.6530 C   0  0  0  0  0  0  0  0  0  0  0  0
    2.6100   13.0170   18.2620 H   0  0  0  0  0  0  0  0  0  0  0  0
    2.3490   14.6790   17.7810 H   0  0  0  0  0  0  0  0  0  0  0  0
    3.5250   14.4140   19.5400 C   0  0  0  0  0  0  0  0  0  0  0  0
    3.5070   14.4490   20.8580 N   0  0  0  0  0  0  0  0  0  0  0  0
    4.7350   14.8810   21.2920 N   0  0  0  0  0  0  0  0  0  0  0  0
    5.4810   15.0940   20.2340 C   0  0  0  0  0  0  0  0  0  0  0  0
    4.7680   14.8070   19.1120 N   0  0  0  0  0  0  0  0  0  0  0  0
    6.5050   15.4450   20.2340 H   0  0  0  0  0  0  0  0  0  0  0  0
    5.2570   14.8950   17.7620 C   0  0  0  0  0  0  0  0  0  0  0  0
    5.8650   15.8040   17.6790 H   0  0  0  0  0  0  0  0  0  0  0  0
    4.4140   14.9490   17.0650 H   0  0  0  0  0  0  0  0  0  0  0  0
    5.8580   14.0100   17.5400 H   0  0  0  0  0  0  0  0  0  0  0  0
  1 35  1  0  0  0  0
  1  6  1  0  0  0  0
  2  1  2  0  0  0  0
  3  2  1  0  0  0  0
  3  4  2  0  0  0  0
  4  5  1  0  0  0  0
  5  6  2  0  0  0  0
  5 11  1  0  0  0  0
  6 10  1  0  0  0  0
  7  2  1  0  0  0  0
  8  3  1  0  0  0  0
  9  4  1  0  0  0  0
 11 24  1  0  0  0  0
 12 13  1  0  0  0  0
 12 11  1  0  0  0  0
 13 14  1  0  0  0  0
 14 15  1  0  0  0  0
 14 26  1  0  0  0  0
 15 27  1  0  0  0  0
 15 28  1  0  0  0  0
 16 15  1  0  0  0  0
 17 16  1  0  0  0  0
 18 29  1  0  0  0  0
 18 17  2  0  0  0  0
 19 18  1  0  0  0  0
 20 19  2  0  0  0  0
 20 21  1  0  0  0  0
 21 22  2  0  0  0  0
 22 17  1  0  0  0  0
 22 13  1  0  0  0  0
 23 12  2  0  0  0  0
 25 14  1  0  0  0  0
 30 20  1  0  0  0  0
 31 19  1  0  0  0  0
 31 33  1  0  0  0  0
 32 31  1  0  0  0  0
 34 31  1  0  0  0  0
 35 36  1  1  0  0  0
 37 35  1  0  0  0  0
 37 40  1  0  0  0  0
 38 37  1  0  0  0  0
 39 37  1  0  0  0  0
 41 35  1  0  0  0  0
 41 44  1  0  0  0  0
 42 41  1  0  0  0  0
 43 41  1  0  0  0  0
 44 45  2  0  0  0  0
 45 46  1  0  0  0  0
 47 49  1  0  0  0  0
 47 46  2  0  0  0  0
 48 44  1  0  0  0  0
 48 47  1  0  0  0  0
 50 48  1  0  0  0  0
 51 50  1  0  0  0  0
 52 50  1  0  0  0  0
 53 50  1  0  0  0  0
M  END
>  <MODEL>
8

>  <REMARK>
 VINA RESULT:    -7.757      3.126      4.618
 INTER + INTRA:         -10.890
 INTER:                 -10.036
 INTRA:                  -0.854
 UNBOUND:                -0.413
  Name = 
  7 active torsions:
  status: ('A' for Active; 'I' for Inactive)
    1  A    between atoms: C_1  and  C_2
    2  A    between atoms: C_2  and  C_3
    3  A    between atoms: C_2  and  C_10
    4  A    between atoms: C_3  and  C_4
    5  A    between atoms: N_8  and  C_9
    6  A    between atoms: C_14  and  N_16
    7  A    between atoms: C_24  and  C_28
                            x       y       z     vdW  Elec       q    Type
                         _______ _______ _______ _____ _____    ______ ____

>  <TORSDO>
F 7

$$$$
=
 OpenBabel07192307433D

 53 56  0  0  1  0  0  0  0  0999 V2000
    2.7040    5.6810   18.6570 C   0  0  0  0  0  0  0  0  0  0  0  0
    2.2260    4.7350   19.5750 C   0  0  0  0  0  0  0  0  0  0  0  0
    1.6000    5.1440   20.7530 C   0  0  0  0  0  0  0  0  0  0  0  0
    1.4400    6.5020   21.0220 C   0  0  0  0  0  0  0  0  0  0  0  0
    1.9000    7.4650   20.1180 C   0  0  0  0  0  0  0  0  0  0  0  0
    2.5370    7.0490   18.9440 C   0  0  0  0  0  0  0  0  0  0  0  0
    2.3250    3.6700   19.3810 H   0  0  0  0  0  0  0  0  0  0  0  0
    1.2240    4.4030   21.4540 H   0  0  0  0  0  0  0  0  0  0  0  0
    0.9420    6.7940   21.9450 H   0  0  0  0  0  0  0  0  0  0  0  0
    2.9160    7.7810   18.2340 H   0  0  0  0  0  0  0  0  0  0  0  0
    1.7010    8.8150   20.4680 N   0  0  0  0  0  0  0  0  0  0  0  0
    0.4900    9.4890   20.5960 C   0  0  0  0  0  0  0  0  0  0  0  0
    0.7080   10.8520   20.8440 N   0  0  0  0  0  0  0  0  0  0  0  0
    1.4150   11.6260   19.8190 C   0  0  0  0  0  0  0  0  0  0  0  0
    1.7580   13.0210   20.3200 C   0  0  0  0  0  0  0  0  0  0  0  0
    0.5800   13.7360   20.7070 O   0  0  0  0  0  0  0  0  0  0  0  0
   -0.2340   12.9920   21.5290 C   0  0  0  0  0  0  0  0  0  0  0  0
   -1.1460   13.7130   22.2980 C   0  0  0  0  0  0  0  0  0  0  0  0
   -1.9860   13.0370   23.1890 C   0  0  0  0  0  0  0  0  0  0  0  0
   -1.8490   11.6590   23.2760 C   0  0  0  0  0  0  0  0  0  0  0  0
   -0.9800   10.9380   22.5310 N   0  0  0  0  0  0  0  0  0  0  0  0
   -0.2100   11.5930   21.6330 C   0  0  0  0  0  0  0  0  0  0  0  0
   -0.6220    8.9820   20.4820 O   0  0  0  0  0  0  0  0  0  0  0  0
    2.4630    9.2770   20.9380 H   0  0  0  0  0  0  0  0  0  0  0  0
    0.7510   11.6810   18.9430 H   0  0  0  0  0  0  0  0  0  0  0  0
    2.3280   11.1030   19.5120 H   0  0  0  0  0  0  0  0  0  0  0  0
    2.2440   13.5970   19.5210 H   0  0  0  0  0  0  0  0  0  0  0  0
    2.4550   12.9860   21.1700 H   0  0  0  0  0  0  0  0  0  0  0  0
   -1.1920   14.7970   22.2040 H   0  0  0  0  0  0  0  0  0  0  0  0
   -2.4510   11.0670   23.9620 H   0  0  0  0  0  0  0  0  0  0  0  0
   -2.9630   13.7500   24.0680 C   0  0  0  0  0  0  0  0  0  0  0  0
   -2.3710   14.5820   24.9650 F   0  0  0  0  0  0  0  0  0  0  0  0
   -3.7360   12.9080   24.7990 F   0  0  0  0  0  0  0  0  0  0  0  0
   -3.8220   14.5250   23.3580 F   0  0  0  0  0  0  0  0  0  0  0  0
    3.3790    5.2600   17.3550 C   0  0  2  0  0  0  0  0  0  0  0  0
    2.6530    5.3760   16.5360 H   0  0  0  0  0  0  0  0  0  0  0  0
    3.7410    3.7680   17.4130 C   0  0  0  0  0  0  0  0  0  0  0  0
    3.3010    3.2210   16.5710 H   0  0  0  0  0  0  0  0  0  0  0  0
    4.8250    3.6090   17.3850 H   0  0  0  0  0  0  0  0  0  0  0  0
    3.3590    3.3100   18.3350 H   0  0  0  0  0  0  0  0  0  0  0  0
    4.5990    6.1550   17.0400 C   0  0  0  0  0  0  0  0  0  0  0  0
    4.7250    6.2210   15.9520 H   0  0  0  0  0  0  0  0  0  0  0  0
    4.4270    7.1780   17.3850 H   0  0  0  0  0  0  0  0  0  0  0  0
    5.8680    5.6240   17.6130 C   0  0  0  0  0  0  0  0  0  0  0  0
    6.2510    5.7110   18.8710 N   0  0  0  0  0  0  0  0  0  0  0  0
    7.4840    5.1170   18.9860 N   0  0  0  0  0  0  0  0  0  0  0  0
    7.8260    4.6740   17.7990 C   0  0  0  0  0  0  0  0  0  0  0  0
    6.8400    4.9610   16.9070 N   0  0  0  0  0  0  0  0  0  0  0  0
    8.7450    4.1600   17.5500 H   0  0  0  0  0  0  0  0  0  0  0  0
    6.8430    4.6120   15.5110 C   0  0  0  0  0  0  0  0  0  0  0  0
    6.9820    5.5320   14.9310 H   0  0  0  0  0  0  0  0  0  0  0  0
    5.8900    4.1450   15.2440 H   0  0  0  0  0  0  0  0  0  0  0  0
    7.6600    3.9110   15.3200 H   0  0  0  0  0  0  0  0  0  0  0  0
  1  6  2  0  0  0  0
  1  2  1  0  0  0  0
  2  3  2  0  0  0  0
  3  4  1  0  0  0  0
  3  8  1  0  0  0  0
  4  9  1  0  0  0  0
  5 11  1  0  0  0  0
  5  4  2  0  0  0  0
  6  5  1  0  0  0  0
  7  2  1  0  0  0  0
 10  6  1  0  0  0  0
 11 12  1  0  0  0  0
 11 24  1  0  0  0  0
 12 13  1  0  0  0  0
 13 22  1  0  0  0  0
 14 15  1  0  0  0  0
 14 13  1  0  0  0  0
 15 16  1  0  0  0  0
 15 28  1  0  0  0  0
 16 17  1  0  0  0  0
 17 22  2  0  0  0  0
 17 18  1  0  0  0  0
 18 19  2  0  0  0  0
 19 20  1  0  0  0  0
 19 31  1  0  0  0  0
 20 30  1  0  0  0  0
 21 20  2  0  0  0  0
 22 21  1  0  0  0  0
 23 12  2  0  0  0  0
 25 14  1  0  0  0  0
 26 14  1  0  0  0  0
 27 15  1  0  0  0  0
 29 18  1  0  0  0  0
 31 33  1  0  0  0  0
 31 32  1  0  0  0  0
 34 31  1  0  0  0  0
 35 36  1  6  0  0  0
 35 37  1  0  0  0  0
 35  1  1  0  0  0  0
 37 40  1  0  0  0  0
 38 37  1  0  0  0  0
 39 37  1  0  0  0  0
 41 35  1  0  0  0  0
 41 43  1  0  0  0  0
 41 44  1  0  0  0  0
 42 41  1  0  0  0  0
 44 45  2  0  0  0  0
 45 46  1  0  0  0  0
 47 46  2  0  0  0  0
 48 44  1  0  0  0  0
 48 47  1  0  0  0  0
 49 47  1  0  0  0  0
 50 48  1  0  0  0  0
 51 50  1  0  0  0  0
 52 50  1  0  0  0  0
 53 50  1  0  0  0  0
M  END
>  <MODEL>
9

>  <REMARK>
 VINA RESULT:    -7.717      5.981     10.151
 INTER + INTRA:         -10.837
 INTER:                 -10.134
 INTRA:                  -0.702
 UNBOUND:                -0.413
  Name = 
  7 active torsions:
  status: ('A' for Active; 'I' for Inactive)
    1  A    between atoms: C_1  and  C_2
    2  A    between atoms: C_2  and  C_3
    3  A    between atoms: C_2  and  C_10
    4  A    between atoms: C_3  and  C_4
    5  A    between atoms: N_8  and  C_9
    6  A    between atoms: C_14  and  N_16
    7  A    between atoms: C_24  and  C_28
                            x       y       z     vdW  Elec       q    Type
                         _______ _______ _______ _____ _____    ______ ____

>  <TORSDO>
F 7

$$$$
=
 OpenBabel07192307433D

 53 56  0  0  1  0  0  0  0  0999 V2000
    2.6490    3.4000   18.9350 C   0  0  0  0  0  0  0  0  0  0  0  0
    2.8710    2.5210   20.0050 C   0  0  0  0  0  0  0  0  0  0  0  0
    2.5160    2.8850   21.3040 C   0  0  0  0  0  0  0  0  0  0  0  0
    1.9310    4.1270   21.5470 C   0  0  0  0  0  0  0  0  0  0  0  0
    1.6920    5.0170   20.4950 C   0  0  0  0  0  0  0  0  0  0  0  0
    2.0590    4.6520   19.1950 C   0  0  0  0  0  0  0  0  0  0  0  0
    3.3110    1.5420   19.8400 H   0  0  0  0  0  0  0  0  0  0  0  0
    2.6820    2.1930   22.1260 H   0  0  0  0  0  0  0  0  0  0  0  0
    1.6580    4.3820   22.5680 H   0  0  0  0  0  0  0  0  0  0  0  0
    1.8970    5.3350   18.3650 H   0  0  0  0  0  0  0  0  0  0  0  0
    1.1000    6.2510   20.8260 N   0  0  0  0  0  0  0  0  0  0  0  0
    1.5620    7.5260   20.5090 C   0  0  0  0  0  0  0  0  0  0  0  0
    0.7610    8.5050   21.1130 N   0  0  0  0  0  0  0  0  0  0  0  0
    0.7010    8.5260   22.5780 C   0  0  0  0  0  0  0  0  0  0  0  0
   -0.3620    9.4970   23.0730 C   0  0  0  0  0  0  0  0  0  0  0  0
   -0.1090   10.8250   22.6030 O   0  0  0  0  0  0  0  0  0  0  0  0
    0.1460   10.8580   21.2510 C   0  0  0  0  0  0  0  0  0  0  0  0
   -0.0310   12.0940   20.6290 C   0  0  0  0  0  0  0  0  0  0  0  0
    0.1700   12.2070   19.2490 C   0  0  0  0  0  0  0  0  0  0  0  0
    0.5210   11.0570   18.5570 C   0  0  0  0  0  0  0  0  0  0  0  0
    0.7100    9.8520   19.1410 N   0  0  0  0  0  0  0  0  0  0  0  0
    0.5670    9.7620   20.4830 C   0  0  0  0  0  0  0  0  0  0  0  0
    2.5470    7.7740   19.8200 O   0  0  0  0  0  0  0  0  0  0  0  0
    0.1230    6.2340   21.0680 H   0  0  0  0  0  0  0  0  0  0  0  0
    1.6980    8.8260   22.9360 H   0  0  0  0  0  0  0  0  0  0  0  0
    0.4980    7.5210   22.9630 H   0  0  0  0  0  0  0  0  0  0  0  0
   -0.3560    9.5300   24.1700 H   0  0  0  0  0  0  0  0  0  0  0  0
   -1.3690    9.1880   22.7580 H   0  0  0  0  0  0  0  0  0  0  0  0
   -0.3310   12.9570   21.2190 H   0  0  0  0  0  0  0  0  0  0  0  0
    0.6720   11.0620   17.4790 H   0  0  0  0  0  0  0  0  0  0  0  0
   -0.0350   13.4920   18.5120 C   0  0  0  0  0  0  0  0  0  0  0  0
   -0.6710   14.4390   19.2500 F   0  0  0  0  0  0  0  0  0  0  0  0
   -0.7720   13.3470   17.3820 F   0  0  0  0  0  0  0  0  0  0  0  0
    1.1390   14.0540   18.1240 F   0  0  0  0  0  0  0  0  0  0  0  0
    3.0150    3.0210   17.5030 C   0  0  2  0  0  0  0  0  0  0  0  0
    2.0880    2.7750   16.9630 H   0  0  0  0  0  0  0  0  0  0  0  0
    3.8750    1.7490   17.5020 C   0  0  0  0  0  0  0  0  0  0  0  0
    3.6530    1.1220   16.6310 H   0  0  0  0  0  0  0  0  0  0  0  0
    4.9460    1.9790   17.4830 H   0  0  0  0  0  0  0  0  0  0  0  0
    3.6780    1.1450   18.3970 H   0  0  0  0  0  0  0  0  0  0  0  0
    3.6940    4.1980   16.7660 C   0  0  0  0  0  0  0  0  0  0  0  0
    3.6290    4.0320   15.6830 H   0  0  0  0  0  0  0  0  0  0  0  0
    3.1620    5.1340   16.9580 H   0  0  0  0  0  0  0  0  0  0  0  0
    5.1350    4.3440   17.1170 C   0  0  0  0  0  0  0  0  0  0  0  0
    5.6230    4.6130   18.3120 N   0  0  0  0  0  0  0  0  0  0  0  0
    6.9900    4.6820   18.2120 N   0  0  0  0  0  0  0  0  0  0  0  0
    7.3110    4.4470   16.9610 C   0  0  0  0  0  0  0  0  0  0  0  0
    6.1820    4.2210   16.2390 N   0  0  0  0  0  0  0  0  0  0  0  0
    8.3130    4.4330   16.5510 H   0  0  0  0  0  0  0  0  0  0  0  0
    6.1330    3.9040   14.8360 C   0  0  0  0  0  0  0  0  0  0  0  0
    5.9280    2.8300   14.7380 H   0  0  0  0  0  0  0  0  0  0  0  0
    7.0930    4.1430   14.3680 H   0  0  0  0  0  0  0  0  0  0  0  0
    5.3400    4.4900   14.3650 H   0  0  0  0  0  0  0  0  0  0  0  0
  1  6  2  0  0  0  0
  1  2  1  0  0  0  0
  2  3  2  0  0  0  0
  3  4  1  0  0  0  0
  3  8  1  0  0  0  0
  4  9  1  0  0  0  0
  5 11  1  0  0  0  0
  5  4  2  0  0  0  0
  6  5  1  0  0  0  0
  7  2  1  0  0  0  0
 10  6  1  0  0  0  0
 11 24  1  0  0  0  0
 12 11  1  0  0  0  0
 12 13  1  0  0  0  0
 13 14  1  0  0  0  0
 14 25  1  0  0  0  0
 14 26  1  0  0  0  0
 14 15  1  0  0  0  0
 15 27  1  0  0  0  0
 16 15  1  0  0  0  0
 17 16  1  0  0  0  0
 18 29  1  0  0  0  0
 18 17  1  0  0  0  0
 19 18  2  0  0  0  0
 20 21  2  0  0  0  0
 20 19  1  0  0  0  0
 21 22  1  0  0  0  0
 22 13  1  0  0  0  0
 22 17  2  0  0  0  0
 23 12  2  0  0  0  0
 28 15  1  0  0  0  0
 30 20  1  0  0  0  0
 31 19  1  0  0  0  0
 31 32  1  0  0  0  0
 33 31  1  0  0  0  0
 34 31  1  0  0  0  0
 35 36  1  6  0  0  0
 35  1  1  0  0  0  0
 37 35  1  0  0  0  0
 37 40  1  0  0  0  0
 38 37  1  0  0  0  0
 39 37  1  0  0  0  0
 41 43  1  0  0  0  0
 41 44  1  0  0  0  0
 41 35  1  0  0  0  0
 42 41  1  0  0  0  0
 44 45  2  0  0  0  0
 46 45  1  0  0  0  0
 47 46  2  0  0  0  0
 48 47  1  0  0  0  0
 48 44  1  0  0  0  0
 49 47  1  0  0  0  0
 50 48  1  0  0  0  0
 51 50  1  0  0  0  0
 52 50  1  0  0  0  0
 53 50  1  0  0  0  0
M  END
>  <MODEL>
10

>  <REMARK>
 VINA RESULT:    -7.638      4.360      8.994
 INTER + INTRA:         -10.730
 INTER:                 -10.069
 INTRA:                  -0.661
 UNBOUND:                -0.413
  Name = 
  7 active torsions:
  status: ('A' for Active; 'I' for Inactive)
    1  A    between atoms: C_1  and  C_2
    2  A    between atoms: C_2  and  C_3
    3  A    between atoms: C_2  and  C_10
    4  A    between atoms: C_3  and  C_4
    5  A    between atoms: N_8  and  C_9
    6  A    between atoms: C_14  and  N_16
    7  A    between atoms: C_24  and  C_28
                            x       y       z     vdW  Elec       q    Type
                         _______ _______ _______ _____ _____    ______ ____

>  <TORSDO>
F 7

$$$$
=
 OpenBabel07192307433D

 53 56  0  0  1  0  0  0  0  0999 V2000
   -0.0530   12.4210   19.8460 C   0  0  0  0  0  0  0  0  0  0  0  0
   -1.1300   12.2980   18.9560 C   0  0  0  0  0  0  0  0  0  0  0  0
   -1.3650   11.0940   18.2910 C   0  0  0  0  0  0  0  0  0  0  0  0
   -0.5300   10.0000   18.5130 C   0  0  0  0  0  0  0  0  0  0  0  0
    0.5460   10.0950   19.4020 C   0  0  0  0  0  0  0  0  0  0  0  0
    0.7830   11.3080   20.0580 C   0  0  0  0  0  0  0  0  0  0  0  0
   -1.8040   13.1310   18.7780 H   0  0  0  0  0  0  0  0  0  0  0  0
   -2.2090   11.0050   17.6120 H   0  0  0  0  0  0  0  0  0  0  0  0
   -0.7400    9.0720   17.9860 H   0  0  0  0  0  0  0  0  0  0  0  0
    1.6230   11.4100   20.7410 H   0  0  0  0  0  0  0  0  0  0  0  0
    1.3420    8.9460   19.5660 N   0  0  0  0  0  0  0  0  0  0  0  0
    1.8100    8.0880   18.5730 C   0  0  0  0  0  0  0  0  0  0  0  0
    2.4730    6.9910   19.1410 N   0  0  0  0  0  0  0  0  0  0  0  0
    1.6970    6.1030   20.0120 C   0  0  0  0  0  0  0  0  0  0  0  0
    2.5950    5.0940   20.7130 C   0  0  0  0  0  0  0  0  0  0  0  0
    3.3150    4.2980   19.7670 O   0  0  0  0  0  0  0  0  0  0  0  0
    3.9220    5.0640   18.7980 C   0  0  0  0  0  0  0  0  0  0  0  0
    4.9760    4.4580   18.1150 C   0  0  0  0  0  0  0  0  0  0  0  0
    5.6720    5.1800   17.1390 C   0  0  0  0  0  0  0  0  0  0  0  0
    5.2820    6.4910   16.9150 C   0  0  0  0  0  0  0  0  0  0  0  0
    4.2550    7.0950   17.5560 N   0  0  0  0  0  0  0  0  0  0  0  0
    3.5530    6.3740   18.4580 C   0  0  0  0  0  0  0  0  0  0  0  0
    1.6480    8.2430   17.3660 O   0  0  0  0  0  0  0  0  0  0  0  0
    1.8590    8.8730   20.4270 H   0  0  0  0  0  0  0  0  0  0  0  0
    0.9610    5.5900   19.3740 H   0  0  0  0  0  0  0  0  0  0  0  0
    1.1420    6.6890   20.7530 H   0  0  0  0  0  0  0  0  0  0  0  0
    1.9870    4.4120   21.3220 H   0  0  0  0  0  0  0  0  0  0  0  0
    3.3090    5.5890   21.3870 H   0  0  0  0  0  0  0  0  0  0  0  0
    5.2530    3.4320   18.3500 H   0  0  0  0  0  0  0  0  0  0  0  0
    5.7900    7.1230   16.1880 H   0  0  0  0  0  0  0  0  0  0  0  0
    6.8330    4.6040   16.3930 C   0  0  0  0  0  0  0  0  0  0  0  0
    7.8740    4.2640   17.1980 F   0  0  0  0  0  0  0  0  0  0  0  0
    7.3440    5.4530   15.4660 F   0  0  0  0  0  0  0  0  0  0  0  0
    6.5010    3.4710   15.7220 F   0  0  0  0  0  0  0  0  0  0  0  0
    0.2170   13.7220   20.5970 C   0  0  2  0  0  0  0  0  0  0  0  0
   -0.5350   14.4630   20.2850 H   0  0  0  0  0  0  0  0  0  0  0  0
    1.5860   14.2870   20.1900 C   0  0  0  0  0  0  0  0  0  0  0  0
    1.8290   14.0280   19.1530 H   0  0  0  0  0  0  0  0  0  0  0  0
    1.6210   15.3780   20.2780 H   0  0  0  0  0  0  0  0  0  0  0  0
    2.3820   13.8730   20.8230 H   0  0  0  0  0  0  0  0  0  0  0  0
    0.0860   13.5260   22.1240 C   0  0  0  0  0  0  0  0  0  0  0  0
    0.6890   12.6620   22.4300 H   0  0  0  0  0  0  0  0  0  0  0  0
    0.4990   14.3850   22.6610 H   0  0  0  0  0  0  0  0  0  0  0  0
   -1.3180   13.2750   22.5560 C   0  0  0  0  0  0  0  0  0  0  0  0
   -2.2940   14.1610   22.5870 N   0  0  0  0  0  0  0  0  0  0  0  0
   -3.4230   13.5400   23.0600 N   0  0  0  0  0  0  0  0  0  0  0  0
   -3.1170   12.2870   23.3030 C   0  0  0  0  0  0  0  0  0  0  0  0
   -1.8100   12.0720   22.9940 N   0  0  0  0  0  0  0  0  0  0  0  0
   -3.7860   11.5290   23.6900 H   0  0  0  0  0  0  0  0  0  0  0  0
   -1.1180   10.8150   23.1030 C   0  0  0  0  0  0  0  0  0  0  0  0
   -0.3620   10.9110   23.8910 H   0  0  0  0  0  0  0  0  0  0  0  0
   -0.6330   10.5750   22.1510 H   0  0  0  0  0  0  0  0  0  0  0  0
   -1.8360   10.0310   23.3540 H   0  0  0  0  0  0  0  0  0  0  0  0
  1  6  1  0  0  0  0
  1 35  1  0  0  0  0
  2  1  2  0  0  0  0
  3  4  2  0  0  0  0
  3  2  1  0  0  0  0
  4  5  1  0  0  0  0
  5 11  1  0  0  0  0
  5  6  2  0  0  0  0
  6 10  1  0  0  0  0
  7  2  1  0  0  0  0
  8  3  1  0  0  0  0
  9  4  1  0  0  0  0
 11 24  1  0  0  0  0
 12 13  1  0  0  0  0
 12 11  1  0  0  0  0
 13 14  1  0  0  0  0
 14 15  1  0  0  0  0
 14 26  1  0  0  0  0
 15 27  1  0  0  0  0
 15 28  1  0  0  0  0
 16 15  1  0  0  0  0
 17 16  1  0  0  0  0
 18 29  1  0  0  0  0
 18 17  2  0  0  0  0
 19 18  1  0  0  0  0
 20 19  2  0  0  0  0
 20 21  1  0  0  0  0
 21 22  2  0  0  0  0
 22 17  1  0  0  0  0
 22 13  1  0  0  0  0
 23 12  2  0  0  0  0
 25 14  1  0  0  0  0
 30 20  1  0  0  0  0
 31 19  1  0  0  0  0
 31 32  1  0  0  0  0
 33 31  1  0  0  0  0
 34 31  1  0  0  0  0
 35 36  1  6  0  0  0
 35 41  1  0  0  0  0
 37 39  1  0  0  0  0
 37 35  1  0  0  0  0
 37 40  1  0  0  0  0
 38 37  1  0  0  0  0
 41 42  1  0  0  0  0
 41 44  1  0  0  0  0
 41 43  1  0  0  0  0
 44 45  2  0  0  0  0
 44 48  1  0  0  0  0
 45 46  1  0  0  0  0
 46 47  2  0  0  0  0
 47 49  1  0  0  0  0
 48 50  1  0  0  0  0
 48 47  1  0  0  0  0
 50 53  1  0  0  0  0
 50 51  1  0  0  0  0
 52 50  1  0  0  0  0
M  END
>  <MODEL>
11

>  <REMARK>
 VINA RESULT:    -7.628      2.364      3.667
 INTER + INTRA:         -10.716
 INTER:                 -10.070
 INTRA:                  -0.646
 UNBOUND:                -0.413
  Name = 
  7 active torsions:
  status: ('A' for Active; 'I' for Inactive)
    1  A    between atoms: C_1  and  C_2
    2  A    between atoms: C_2  and  C_3
    3  A    between atoms: C_2  and  C_10
    4  A    between atoms: C_3  and  C_4
    5  A    between atoms: N_8  and  C_9
    6  A    between atoms: C_14  and  N_16
    7  A    between atoms: C_24  and  C_28
                            x       y       z     vdW  Elec       q    Type
                         _______ _______ _______ _____ _____    ______ ____

>  <TORSDO>
F 7

$$$$
=
 OpenBabel07192307433D

 53 56  0  0  1  0  0  0  0  0999 V2000
    2.7510    5.1820   18.6310 C   0  0  0  0  0  0  0  0  0  0  0  0
    2.2430    4.3980   19.6760 C   0  0  0  0  0  0  0  0  0  0  0  0
    1.6220    4.9970   20.7730 C   0  0  0  0  0  0  0  0  0  0  0  0
    1.4970    6.3850   20.8320 C   0  0  0  0  0  0  0  0  0  0  0  0
    1.9870    7.1870   19.7980 C   0  0  0  0  0  0  0  0  0  0  0  0
    2.6190    6.5820   18.7060 C   0  0  0  0  0  0  0  0  0  0  0  0
    2.3140    3.3140   19.6470 H   0  0  0  0  0  0  0  0  0  0  0  0
    1.2210    4.3810   21.5740 H   0  0  0  0  0  0  0  0  0  0  0  0
    1.0020    6.8250   21.6950 H   0  0  0  0  0  0  0  0  0  0  0  0
    3.0220    7.1870   17.8970 H   0  0  0  0  0  0  0  0  0  0  0  0
    1.8240    8.5790   19.9370 N   0  0  0  0  0  0  0  0  0  0  0  0
    0.6550    9.2690   20.2490 C   0  0  0  0  0  0  0  0  0  0  0  0
    0.8680   10.6540   20.1830 N   0  0  0  0  0  0  0  0  0  0  0  0
    1.2560   11.2210   18.8880 C   0  0  0  0  0  0  0  0  0  0  0  0
    1.6520   12.6840   19.0240 C   0  0  0  0  0  0  0  0  0  0  0  0
    0.5800   13.4630   19.5650 O   0  0  0  0  0  0  0  0  0  0  0  0
    0.0350   12.8860   20.6890 C   0  0  0  0  0  0  0  0  0  0  0  0
   -0.6830   13.7410   21.5240 C   0  0  0  0  0  0  0  0  0  0  0  0
   -1.2390   13.2440   22.7080 C   0  0  0  0  0  0  0  0  0  0  0  0
   -1.0220   11.9070   23.0040 C   0  0  0  0  0  0  0  0  0  0  0  0
   -0.3390   11.0560   22.2040 N   0  0  0  0  0  0  0  0  0  0  0  0
    0.1480   11.5310   21.0350 C   0  0  0  0  0  0  0  0  0  0  0  0
   -0.4250    8.7530   20.5190 O   0  0  0  0  0  0  0  0  0  0  0  0
    2.6580    9.1180   20.1040 H   0  0  0  0  0  0  0  0  0  0  0  0
    0.3900   11.1140   18.2180 H   0  0  0  0  0  0  0  0  0  0  0  0
    2.0840   10.6480   18.4560 H   0  0  0  0  0  0  0  0  0  0  0  0
    1.8940   13.1000   18.0360 H   0  0  0  0  0  0  0  0  0  0  0  0
    2.5430   12.8050   19.6570 H   0  0  0  0  0  0  0  0  0  0  0  0
   -0.8000   14.7880   21.2520 H   0  0  0  0  0  0  0  0  0  0  0  0
   -1.4040   11.4540   23.9170 H   0  0  0  0  0  0  0  0  0  0  0  0
   -1.9920   14.1120   23.6660 C   0  0  0  0  0  0  0  0  0  0  0  0
   -3.0200   13.4680   24.2800 F   0  0  0  0  0  0  0  0  0  0  0  0
   -2.5390   15.2050   23.0780 F   0  0  0  0  0  0  0  0  0  0  0  0
   -1.2010   14.5790   24.6650 F   0  0  0  0  0  0  0  0  0  0  0  0
    3.4210    4.5510   17.4140 C   0  0  2  0  0  0  0  0  0  0  0  0
    3.3120    5.2400   16.5630 H   0  0  0  0  0  0  0  0  0  0  0  0
    2.6910    3.2560   17.0280 C   0  0  0  0  0  0  0  0  0  0  0  0
    3.2940    2.3740   17.2730 H   0  0  0  0  0  0  0  0  0  0  0  0
    1.7300    3.1580   17.5450 H   0  0  0  0  0  0  0  0  0  0  0  0
    2.4960    3.2270   15.9480 H   0  0  0  0  0  0  0  0  0  0  0  0
    4.9320    4.3310   17.6560 C   0  0  0  0  0  0  0  0  0  0  0  0
    5.2950    5.0800   18.3710 H   0  0  0  0  0  0  0  0  0  0  0  0
    5.1110    3.3590   18.1230 H   0  0  0  0  0  0  0  0  0  0  0  0
    5.7410    4.4630   16.4110 C   0  0  0  0  0  0  0  0  0  0  0  0
    5.6140    3.7350   15.3190 N   0  0  0  0  0  0  0  0  0  0  0  0
    6.5550    4.1550   14.4120 N   0  0  0  0  0  0  0  0  0  0  0  0
    7.2330    5.1340   14.9640 C   0  0  0  0  0  0  0  0  0  0  0  0
    6.7520    5.3680   16.2150 N   0  0  0  0  0  0  0  0  0  0  0  0
    8.0500    5.6810   14.5110 H   0  0  0  0  0  0  0  0  0  0  0  0
    7.2250    6.3830   17.1190 C   0  0  0  0  0  0  0  0  0  0  0  0
    6.6760    6.2790   18.0630 H   0  0  0  0  0  0  0  0  0  0  0  0
    7.0450    7.3740   16.6920 H   0  0  0  0  0  0  0  0  0  0  0  0
    8.2970    6.2450   17.2820 H   0  0  0  0  0  0  0  0  0  0  0  0
  1  6  2  0  0  0  0
  1  2  1  0  0  0  0
  2  3  2  0  0  0  0
  3  4  1  0  0  0  0
  3  8  1  0  0  0  0
  4  9  1  0  0  0  0
  5 11  1  0  0  0  0
  5  4  2  0  0  0  0
  6  5  1  0  0  0  0
  7  2  1  0  0  0  0
 10  6  1  0  0  0  0
 11 24  1  0  0  0  0
 11 12  1  0  0  0  0
 12 23  2  0  0  0  0
 13 12  1  0  0  0  0
 13 22  1  0  0  0  0
 14 15  1  0  0  0  0
 14 13  1  0  0  0  0
 15 16  1  0  0  0  0
 15 28  1  0  0  0  0
 16 17  1  0  0  0  0
 17 22  2  0  0  0  0
 17 18  1  0  0  0  0
 18 19  2  0  0  0  0
 19 20  1  0  0  0  0
 19 31  1  0  0  0  0
 20 30  1  0  0  0  0
 21 20  2  0  0  0  0
 22 21  1  0  0  0  0
 25 14  1  0  0  0  0
 26 14  1  0  0  0  0
 27 15  1  0  0  0  0
 29 18  1  0  0  0  0
 31 32  1  0  0  0  0
 31 34  1  0  0  0  0
 33 31  1  0  0  0  0
 35 36  1  6  0  0  0
 35 41  1  0  0  0  0
 35  1  1  0  0  0  0
 37 38  1  0  0  0  0
 37 35  1  0  0  0  0
 37 39  1  0  0  0  0
 40 37  1  0  0  0  0
 41 43  1  0  0  0  0
 41 42  1  0  0  0  0
 44 41  1  0  0  0  0
 45 44  2  0  0  0  0
 46 47  2  0  0  0  0
 46 45  1  0  0  0  0
 47 48  1  0  0  0  0
 48 44  1  0  0  0  0
 48 50  1  0  0  0  0
 49 47  1  0  0  0  0
 50 53  1  0  0  0  0
 50 51  1  0  0  0  0
 52 50  1  0  0  0  0
M  END
>  <MODEL>
12

>  <REMARK>
 VINA RESULT:    -7.588      5.729      9.942
 INTER + INTRA:         -10.662
 INTER:                 -10.266
 INTRA:                  -0.396
 UNBOUND:                -0.413
  Name = 
  7 active torsions:
  status: ('A' for Active; 'I' for Inactive)
    1  A    between atoms: C_1  and  C_2
    2  A    between atoms: C_2  and  C_3
    3  A    between atoms: C_2  and  C_10
    4  A    between atoms: C_3  and  C_4
    5  A    between atoms: N_8  and  C_9
    6  A    between atoms: C_14  and  N_16
    7  A    between atoms: C_24  and  C_28
                            x       y       z     vdW  Elec       q    Type
                         _______ _______ _______ _____ _____    ______ ____

>  <TORSDO>
F 7

$$$$
=
 OpenBabel07192307433D

 53 56  0  0  1  0  0  0  0  0999 V2000
   -0.7610   11.5870   18.7720 C   0  0  0  0  0  0  0  0  0  0  0  0
   -0.0090   12.7680   18.8470 C   0  0  0  0  0  0  0  0  0  0  0  0
    1.3530   12.7610   18.5450 C   0  0  0  0  0  0  0  0  0  0  0  0
    1.9750   11.5740   18.1580 C   0  0  0  0  0  0  0  0  0  0  0  0
    1.2450   10.3860   18.0670 C   0  0  0  0  0  0  0  0  0  0  0  0
   -0.1180   10.3970   18.3820 C   0  0  0  0  0  0  0  0  0  0  0  0
   -0.4740   13.7080   19.1310 H   0  0  0  0  0  0  0  0  0  0  0  0
    1.9260   13.6830   18.5950 H   0  0  0  0  0  0  0  0  0  0  0  0
    3.0370   11.5980   17.9210 H   0  0  0  0  0  0  0  0  0  0  0  0
   -0.7030    9.4810   18.3340 H   0  0  0  0  0  0  0  0  0  0  0  0
    1.9490    9.2320   17.6720 N   0  0  0  0  0  0  0  0  0  0  0  0
    2.3930    8.1900   18.4820 C   0  0  0  0  0  0  0  0  0  0  0  0
    3.1570    7.2790   17.7380 N   0  0  0  0  0  0  0  0  0  0  0  0
    4.3920    7.7710   17.1210 C   0  0  0  0  0  0  0  0  0  0  0  0
    4.9920    6.7330   16.1840 C   0  0  0  0  0  0  0  0  0  0  0  0
    5.2780    5.5140   16.8770 O   0  0  0  0  0  0  0  0  0  0  0  0
    4.2140    5.0860   17.6370 C   0  0  0  0  0  0  0  0  0  0  0  0
    4.2170    3.7360   17.9830 C   0  0  0  0  0  0  0  0  0  0  0  0
    3.1520    3.2100   18.7230 C   0  0  0  0  0  0  0  0  0  0  0  0
    2.1200    4.0720   19.0600 C   0  0  0  0  0  0  0  0  0  0  0  0
    2.1010    5.3880   18.7460 N   0  0  0  0  0  0  0  0  0  0  0  0
    3.1600    5.9010   18.0780 C   0  0  0  0  0  0  0  0  0  0  0  0
    2.1770    8.0830   19.6850 O   0  0  0  0  0  0  0  0  0  0  0  0
    1.8970    8.9810   16.6980 H   0  0  0  0  0  0  0  0  0  0  0  0
    5.0890    8.0040   17.9400 H   0  0  0  0  0  0  0  0  0  0  0  0
    4.1980    8.7010   16.5750 H   0  0  0  0  0  0  0  0  0  0  0  0
    5.9390    7.1060   15.7700 H   0  0  0  0  0  0  0  0  0  0  0  0
    4.3250    6.5200   15.3370 H   0  0  0  0  0  0  0  0  0  0  0  0
    5.0430    3.1000   17.6700 H   0  0  0  0  0  0  0  0  0  0  0  0
    1.2480    3.7310   19.6150 H   0  0  0  0  0  0  0  0  0  0  0  0
    3.0750    1.7640   19.1000 C   0  0  0  0  0  0  0  0  0  0  0  0
    3.5910    0.9340   18.1550 F   0  0  0  0  0  0  0  0  0  0  0  0
    1.8050    1.3370   19.3140 F   0  0  0  0  0  0  0  0  0  0  0  0
    3.7590    1.4940   20.2410 F   0  0  0  0  0  0  0  0  0  0  0  0
   -2.2550   11.5720   19.0840 C   0  0  2  0  0  0  0  0  0  0  0  0
   -2.4830   10.6480   19.6370 H   0  0  0  0  0  0  0  0  0  0  0  0
   -3.0610   11.5130   17.7780 C   0  0  0  0  0  0  0  0  0  0  0  0
   -4.0150   12.0440   17.8770 H   0  0  0  0  0  0  0  0  0  0  0  0
   -2.5150   11.9610   16.9400 H   0  0  0  0  0  0  0  0  0  0  0  0
   -3.2930   10.4740   17.5100 H   0  0  0  0  0  0  0  0  0  0  0  0
   -2.6550   12.7690   19.9750 C   0  0  0  0  0  0  0  0  0  0  0  0
   -1.9490   13.5930   19.8100 H   0  0  0  0  0  0  0  0  0  0  0  0
   -3.6370   13.1540   19.6880 H   0  0  0  0  0  0  0  0  0  0  0  0
   -2.6350   12.4390   21.4290 C   0  0  0  0  0  0  0  0  0  0  0  0
   -1.6420   11.8730   22.0860 N   0  0  0  0  0  0  0  0  0  0  0  0
   -2.0260   11.7230   23.3950 N   0  0  0  0  0  0  0  0  0  0  0  0
   -3.2400   12.2060   23.5140 C   0  0  0  0  0  0  0  0  0  0  0  0
   -3.6610   12.6730   22.3090 N   0  0  0  0  0  0  0  0  0  0  0  0
   -3.8310   12.2340   24.4210 H   0  0  0  0  0  0  0  0  0  0  0  0
   -4.9310   13.2980   22.0480 C   0  0  0  0  0  0  0  0  0  0  0  0
   -4.7830   14.3850   22.0560 H   0  0  0  0  0  0  0  0  0  0  0  0
   -5.6500   13.0160   22.8240 H   0  0  0  0  0  0  0  0  0  0  0  0
   -5.2980   12.9690   21.0730 H   0  0  0  0  0  0  0  0  0  0  0  0
  1  2  1  0  0  0  0
  1 35  1  0  0  0  0
  2  7  1  0  0  0  0
  3  8  1  0  0  0  0
  3  2  2  0  0  0  0
  4  3  1  0  0  0  0
  5  4  2  0  0  0  0
  5  6  1  0  0  0  0
  6  1  2  0  0  0  0
  9  4  1  0  0  0  0
 10  6  1  0  0  0  0
 11  5  1  0  0  0  0
 11 12  1  0  0  0  0
 12 23  2  0  0  0  0
 13 22  1  0  0  0  0
 13 12  1  0  0  0  0
 14 13  1  0  0  0  0
 14 25  1  0  0  0  0
 15 16  1  0  0  0  0
 15 14  1  0  0  0  0
 16 17  1  0  0  0  0
 17 18  2  0  0  0  0
 17 22  1  0  0  0  0
 18 19  1  0  0  0  0
 19 20  2  0  0  0  0
 19 31  1  0  0  0  0
 20 30  1  0  0  0  0
 21 20  1  0  0  0  0
 22 21  2  0  0  0  0
 24 11  1  0  0  0  0
 26 14  1  0  0  0  0
 27 15  1  0  0  0  0
 28 15  1  0  0  0  0
 29 18  1  0  0  0  0
 31 33  1  0  0  0  0
 31 34  1  0  0  0  0
 32 31  1  0  0  0  0
 35 36  1  1  0  0  0
 35 41  1  0  0  0  0
 37 38  1  0  0  0  0
 37 35  1  0  0  0  0
 39 37  1  0  0  0  0
 40 37  1  0  0  0  0
 41 44  1  0  0  0  0
 42 41  1  0  0  0  0
 43 41  1  0  0  0  0
 44 45  2  0  0  0  0
 44 48  1  0  0  0  0
 45 46  1  0  0  0  0
 46 47  2  0  0  0  0
 47 49  1  0  0  0  0
 48 47  1  0  0  0  0
 50 51  1  0  0  0  0
 50 48  1  0  0  0  0
 50 52  1  0  0  0  0
 53 50  1  0  0  0  0
M  END
>  <MODEL>
13

>  <REMARK>
 VINA RESULT:    -7.560      3.136      4.397
 INTER + INTRA:         -10.624
 INTER:                  -9.867
 INTRA:                  -0.757
 UNBOUND:                -0.413
  Name = 
  7 active torsions:
  status: ('A' for Active; 'I' for Inactive)
    1  A    between atoms: C_1  and  C_2
    2  A    between atoms: C_2  and  C_3
    3  A    between atoms: C_2  and  C_10
    4  A    between atoms: C_3  and  C_4
    5  A    between atoms: N_8  and  C_9
    6  A    between atoms: C_14  and  N_16
    7  A    between atoms: C_24  and  C_28
                            x       y       z     vdW  Elec       q    Type
                         _______ _______ _______ _____ _____    ______ ____

>  <TORSDO>
F 7

$$$$
=
 OpenBabel07192307433D

 53 56  0  0  1  0  0  0  0  0999 V2000
    0.0270   12.1670   18.8940 C   0  0  0  0  0  0  0  0  0  0  0  0
    0.8930   13.2570   18.7290 C   0  0  0  0  0  0  0  0  0  0  0  0
    2.1790   13.0690   18.2220 C   0  0  0  0  0  0  0  0  0  0  0  0
    2.6100   11.7900   17.8700 C   0  0  0  0  0  0  0  0  0  0  0  0
    1.7620   10.6890   18.0180 C   0  0  0  0  0  0  0  0  0  0  0  0
    0.4770   10.8820   18.5370 C   0  0  0  0  0  0  0  0  0  0  0  0
    0.5750   14.2650   18.9810 H   0  0  0  0  0  0  0  0  0  0  0  0
    2.8400   13.9210   18.0870 H   0  0  0  0  0  0  0  0  0  0  0  0
    3.6160   11.6730   17.4710 H   0  0  0  0  0  0  0  0  0  0  0  0
   -0.1940   10.0370   18.6750 H   0  0  0  0  0  0  0  0  0  0  0  0
    2.2760    9.4330   17.6420 N   0  0  0  0  0  0  0  0  0  0  0  0
    2.4940    8.3260   18.4590 C   0  0  0  0  0  0  0  0  0  0  0  0
    3.1250    7.3000   17.7410 N   0  0  0  0  0  0  0  0  0  0  0  0
    4.4550    7.5750   17.1890 C   0  0  0  0  0  0  0  0  0  0  0  0
    4.9130    6.4530   16.2680 C   0  0  0  0  0  0  0  0  0  0  0  0
    4.9500    5.2000   16.9580 O   0  0  0  0  0  0  0  0  0  0  0  0
    3.7930    4.9580   17.6610 C   0  0  0  0  0  0  0  0  0  0  0  0
    3.5470    3.6260   17.9900 C   0  0  0  0  0  0  0  0  0  0  0  0
    2.3720    3.2880   18.6720 C   0  0  0  0  0  0  0  0  0  0  0  0
    1.4890    4.3150   18.9700 C   0  0  0  0  0  0  0  0  0  0  0  0
    1.7120    5.6150   18.6720 N   0  0  0  0  0  0  0  0  0  0  0  0
    2.8740    5.9410   18.0620 C   0  0  0  0  0  0  0  0  0  0  0  0
    2.2040    8.2530   19.6490 O   0  0  0  0  0  0  0  0  0  0  0  0
    2.2300    9.1990   16.6630 H   0  0  0  0  0  0  0  0  0  0  0  0
    5.1420    7.6800   18.0430 H   0  0  0  0  0  0  0  0  0  0  0  0
    4.4510    8.5270   16.6460 H   0  0  0  0  0  0  0  0  0  0  0  0
    5.9290    6.6580   15.9050 H   0  0  0  0  0  0  0  0  0  0  0  0
    4.2620    6.3620   15.3880 H   0  0  0  0  0  0  0  0  0  0  0  0
    4.2660    2.8590   17.7080 H   0  0  0  0  0  0  0  0  0  0  0  0
    0.5450    4.1270   19.4790 H   0  0  0  0  0  0  0  0  0  0  0  0
    2.0290    1.8760   19.0260 C   0  0  0  0  0  0  0  0  0  0  0  0
    0.8520    1.4580   18.4890 F   0  0  0  0  0  0  0  0  0  0  0  0
    1.9180    1.6740   20.3630 F   0  0  0  0  0  0  0  0  0  0  0  0
    2.9660    0.9960   18.5900 F   0  0  0  0  0  0  0  0  0  0  0  0
   -1.3900   12.3480   19.4320 C   0  0  2  0  0  0  0  0  0  0  0  0
   -1.8620   13.1810   18.8900 H   0  0  0  0  0  0  0  0  0  0  0  0
   -1.3390   12.7580   20.9120 C   0  0  0  0  0  0  0  0  0  0  0  0
   -0.3720   12.5030   21.3600 H   0  0  0  0  0  0  0  0  0  0  0  0
   -1.4940   13.8350   21.0430 H   0  0  0  0  0  0  0  0  0  0  0  0
   -2.1140   12.2350   21.4880 H   0  0  0  0  0  0  0  0  0  0  0  0
   -2.2460   11.0830   19.1970 C   0  0  0  0  0  0  0  0  0  0  0  0
   -1.5980   10.2690   18.8470 H   0  0  0  0  0  0  0  0  0  0  0  0
   -2.6860   10.7330   20.1350 H   0  0  0  0  0  0  0  0  0  0  0  0
   -3.3100   11.2880   18.1730 C   0  0  0  0  0  0  0  0  0  0  0  0
   -4.4340   11.9560   18.3410 N   0  0  0  0  0  0  0  0  0  0  0  0
   -5.1470   11.8960   17.1700 N   0  0  0  0  0  0  0  0  0  0  0  0
   -4.4430   11.1990   16.3090 C   0  0  0  0  0  0  0  0  0  0  0  0
   -3.2790   10.8040   16.8900 N   0  0  0  0  0  0  0  0  0  0  0  0
   -4.7290   10.9640   15.2920 H   0  0  0  0  0  0  0  0  0  0  0  0
   -2.2390   10.0420   16.2520 C   0  0  0  0  0  0  0  0  0  0  0  0
   -1.9430    9.2340   16.9320 H   0  0  0  0  0  0  0  0  0  0  0  0
   -1.3790   10.6880   16.0470 H   0  0  0  0  0  0  0  0  0  0  0  0
   -2.6190    9.6320   15.3130 H   0  0  0  0  0  0  0  0  0  0  0  0
  1 35  1  0  0  0  0
  2  1  1  0  0  0  0
  2  7  1  0  0  0  0
  3  2  2  0  0  0  0
  4  5  2  0  0  0  0
  4  3  1  0  0  0  0
  5  6  1  0  0  0  0
  6 10  1  0  0  0  0
  6  1  2  0  0  0  0
  8  3  1  0  0  0  0
  9  4  1  0  0  0  0
 11  5  1  0  0  0  0
 11 12  1  0  0  0  0
 12 23  2  0  0  0  0
 13 22  1  0  0  0  0
 13 12  1  0  0  0  0
 14 13  1  0  0  0  0
 14 25  1  0  0  0  0
 15 16  1  0  0  0  0
 15 14  1  0  0  0  0
 16 17  1  0  0  0  0
 17 18  2  0  0  0  0
 17 22  1  0  0  0  0
 18 19  1  0  0  0  0
 19 20  2  0  0  0  0
 19 31  1  0  0  0  0
 20 30  1  0  0  0  0
 21 20  1  0  0  0  0
 22 21  2  0  0  0  0
 24 11  1  0  0  0  0
 26 14  1  0  0  0  0
 27 15  1  0  0  0  0
 28 15  1  0  0  0  0
 29 18  1  0  0  0  0
 31 33  1  0  0  0  0
 32 31  1  0  0  0  0
 34 31  1  0  0  0  0
 35 36  1  6  0  0  0
 35 37  1  0  0  0  0
 37 39  1  0  0  0  0
 37 38  1  0  0  0  0
 37 40  1  0  0  0  0
 41 35  1  0  0  0  0
 41 43  1  0  0  0  0
 42 41  1  0  0  0  0
 44 45  2  0  0  0  0
 44 41  1  0  0  0  0
 46 45  1  0  0  0  0
 47 48  1  0  0  0  0
 47 46  2  0  0  0  0
 48 44  1  0  0  0  0
 49 47  1  0  0  0  0
 50 48  1  0  0  0  0
 50 51  1  0  0  0  0
 52 50  1  0  0  0  0
 53 50  1  0  0  0  0
M  END
>  <MODEL>
14

>  <REMARK>
 VINA RESULT:    -7.518      2.714      3.870
 INTER + INTRA:         -10.567
 INTER:                  -9.705
 INTRA:                  -0.862
 UNBOUND:                -0.413
  Name = 
  7 active torsions:
  status: ('A' for Active; 'I' for Inactive)
    1  A    between atoms: C_1  and  C_2
    2  A    between atoms: C_2  and  C_3
    3  A    between atoms: C_2  and  C_10
    4  A    between atoms: C_3  and  C_4
    5  A    between atoms: N_8  and  C_9
    6  A    between atoms: C_14  and  N_16
    7  A    between atoms: C_24  and  C_28
                            x       y       z     vdW  Elec       q    Type
                         _______ _______ _______ _____ _____    ______ ____

>  <TORSDO>
F 7

$$$$
=
 OpenBabel07192307433D

 53 56  0  0  1  0  0  0  0  0999 V2000
    0.0120   12.1690   19.2060 C   0  0  0  0  0  0  0  0  0  0  0  0
   -1.3320   11.9870   18.8520 C   0  0  0  0  0  0  0  0  0  0  0  0
   -1.7310   10.8520   18.1440 C   0  0  0  0  0  0  0  0  0  0  0  0
   -0.7910    9.8850   17.7900 C   0  0  0  0  0  0  0  0  0  0  0  0
    0.5540   10.0390   18.1400 C   0  0  0  0  0  0  0  0  0  0  0  0
    0.9500   11.1840   18.8400 C   0  0  0  0  0  0  0  0  0  0  0  0
   -2.0860   12.7190   19.1290 H   0  0  0  0  0  0  0  0  0  0  0  0
   -2.7770   10.7150   17.8830 H   0  0  0  0  0  0  0  0  0  0  0  0
   -1.1300    9.0070   17.2450 H   0  0  0  0  0  0  0  0  0  0  0  0
    1.9930   11.3330   19.1080 H   0  0  0  0  0  0  0  0  0  0  0  0
    1.4380    9.0180   17.7420 N   0  0  0  0  0  0  0  0  0  0  0  0
    1.9790    8.0070   18.5320 C   0  0  0  0  0  0  0  0  0  0  0  0
    2.9070    7.2530   17.8000 N   0  0  0  0  0  0  0  0  0  0  0  0
    4.0920    7.9450   17.2860 C   0  0  0  0  0  0  0  0  0  0  0  0
    4.8880    7.0530   16.3450 C   0  0  0  0  0  0  0  0  0  0  0  0
    5.3050    5.8510   17.0000 O   0  0  0  0  0  0  0  0  0  0  0  0
    4.2710    5.2380   17.6700 C   0  0  0  0  0  0  0  0  0  0  0  0
    4.4470    3.8850   17.9560 C   0  0  0  0  0  0  0  0  0  0  0  0
    3.4280    3.1760   18.6010 C   0  0  0  0  0  0  0  0  0  0  0  0
    2.2650    3.8670   18.9080 C   0  0  0  0  0  0  0  0  0  0  0  0
    2.0760    5.1820   18.6520 N   0  0  0  0  0  0  0  0  0  0  0  0
    3.0870    5.8730   18.0770 C   0  0  0  0  0  0  0  0  0  0  0  0
    1.7110    7.8070   19.7130 O   0  0  0  0  0  0  0  0  0  0  0  0
    1.4790    8.8150   16.7560 H   0  0  0  0  0  0  0  0  0  0  0  0
    4.7010    8.2300   18.1580 H   0  0  0  0  0  0  0  0  0  0  0  0
    3.7990    8.8670   16.7700 H   0  0  0  0  0  0  0  0  0  0  0  0
    5.7940    7.5760   16.0110 H   0  0  0  0  0  0  0  0  0  0  0  0
    4.3090    6.7930   15.4480 H   0  0  0  0  0  0  0  0  0  0  0  0
    5.3730    3.3890   17.6690 H   0  0  0  0  0  0  0  0  0  0  0  0
    1.4200    3.3780   19.3900 H   0  0  0  0  0  0  0  0  0  0  0  0
    3.5360    1.7170   18.9080 C   0  0  0  0  0  0  0  0  0  0  0  0
    4.4630    1.4350   19.8610 F   0  0  0  0  0  0  0  0  0  0  0  0
    3.8780    0.9700   17.8280 F   0  0  0  0  0  0  0  0  0  0  0  0
    2.3670    1.2010   19.3660 F   0  0  0  0  0  0  0  0  0  0  0  0
    0.4710   13.3940   19.9920 C   0  0  2  0  0  0  0  0  0  0  0  0
   -0.3150   14.1610   19.9280 H   0  0  0  0  0  0  0  0  0  0  0  0
    1.7250   13.9940   19.3390 C   0  0  0  0  0  0  0  0  0  0  0  0
    2.0190   13.4250   18.4500 H   0  0  0  0  0  0  0  0  0  0  0  0
    1.5690   15.0350   19.0330 H   0  0  0  0  0  0  0  0  0  0  0  0
    2.5740   13.9730   20.0350 H   0  0  0  0  0  0  0  0  0  0  0  0
    0.6840   13.0560   21.4850 C   0  0  0  0  0  0  0  0  0  0  0  0
    1.2830   12.1400   21.5660 H   0  0  0  0  0  0  0  0  0  0  0  0
    1.2640   13.8390   21.9800 H   0  0  0  0  0  0  0  0  0  0  0  0
   -0.5970   12.8250   22.2120 C   0  0  0  0  0  0  0  0  0  0  0  0
   -1.4920   13.7420   22.5230 N   0  0  0  0  0  0  0  0  0  0  0  0
   -2.5140   13.1290   23.2050 N   0  0  0  0  0  0  0  0  0  0  0  0
   -2.2270   11.8510   23.2910 C   0  0  0  0  0  0  0  0  0  0  0  0
   -1.0380   11.6120   22.6760 N   0  0  0  0  0  0  0  0  0  0  0  0
   -2.8290   11.0930   23.7740 H   0  0  0  0  0  0  0  0  0  0  0  0
   -0.4060   10.3260   22.5440 C   0  0  0  0  0  0  0  0  0  0  0  0
   -1.1860    9.5570   22.5970 H   0  0  0  0  0  0  0  0  0  0  0  0
    0.3140   10.1820   23.3560 H   0  0  0  0  0  0  0  0  0  0  0  0
    0.1130   10.2800   21.5830 H   0  0  0  0  0  0  0  0  0  0  0  0
  1 35  1  0  0  0  0
  2  7  1  0  0  0  0
  2  1  1  0  0  0  0
  3  2  2  0  0  0  0
  4  5  2  0  0  0  0
  4  3  1  0  0  0  0
  5  6  1  0  0  0  0
  6 10  1  0  0  0  0
  6  1  2  0  0  0  0
  8  3  1  0  0  0  0
  9  4  1  0  0  0  0
 11  5  1  0  0  0  0
 11 12  1  0  0  0  0
 12 23  2  0  0  0  0
 13 22  1  0  0  0  0
 13 12  1  0  0  0  0
 14 13  1  0  0  0  0
 14 25  1  0  0  0  0
 15 16  1  0  0  0  0
 15 14  1  0  0  0  0
 16 17  1  0  0  0  0
 17 18  2  0  0  0  0
 17 22  1  0  0  0  0
 18 19  1  0  0  0  0
 19 20  2  0  0  0  0
 19 31  1  0  0  0  0
 20 30  1  0  0  0  0
 21 20  1  0  0  0  0
 22 21  2  0  0  0  0
 24 11  1  0  0  0  0
 26 14  1  0  0  0  0
 27 15  1  0  0  0  0
 28 15  1  0  0  0  0
 29 18  1  0  0  0  0
 31 34  1  0  0  0  0
 31 32  1  0  0  0  0
 33 31  1  0  0  0  0
 35 36  1  6  0  0  0
 35 41  1  0  0  0  0
 37 35  1  0  0  0  0
 37 40  1  0  0  0  0
 38 37  1  0  0  0  0
 39 37  1  0  0  0  0
 41 42  1  0  0  0  0
 41 43  1  0  0  0  0
 41 44  1  0  0  0  0
 44 45  2  0  0  0  0
 44 48  1  0  0  0  0
 45 46  1  0  0  0  0
 46 47  2  0  0  0  0
 47 49  1  0  0  0  0
 48 47  1  0  0  0  0
 50 51  1  0  0  0  0
 50 48  1  0  0  0  0
 50 52  1  0  0  0  0
 53 50  1  0  0  0  0
M  END
>  <MODEL>
15

>  <REMARK>
 VINA RESULT:    -7.512      3.048      4.586
 INTER + INTRA:         -10.559
 INTER:                  -9.605
 INTRA:                  -0.955
 UNBOUND:                -0.413
  Name = 
  7 active torsions:
  status: ('A' for Active; 'I' for Inactive)
    1  A    between atoms: C_1  and  C_2
    2  A    between atoms: C_2  and  C_3
    3  A    between atoms: C_2  and  C_10
    4  A    between atoms: C_3  and  C_4
    5  A    between atoms: N_8  and  C_9
    6  A    between atoms: C_14  and  N_16
    7  A    between atoms: C_24  and  C_28
                            x       y       z     vdW  Elec       q    Type
                         _______ _______ _______ _____ _____    ______ ____

>  <TORSDO>
F 7

$$$$
=
 OpenBabel07192307433D

 53 56  0  0  1  0  0  0  0  0999 V2000
    4.2130    5.7370   18.4930 C   0  0  0  0  0  0  0  0  0  0  0  0
    4.3260    6.3210   17.2230 C   0  0  0  0  0  0  0  0  0  0  0  0
    3.5570    7.4350   16.8840 C   0  0  0  0  0  0  0  0  0  0  0  0
    2.6720    7.9800   17.8130 C   0  0  0  0  0  0  0  0  0  0  0  0
    2.5480    7.4220   19.0890 C   0  0  0  0  0  0  0  0  0  0  0  0
    3.3130    6.2980   19.4190 C   0  0  0  0  0  0  0  0  0  0  0  0
    5.0200    5.9240   16.4870 H   0  0  0  0  0  0  0  0  0  0  0  0
    3.6600    7.8880   15.9010 H   0  0  0  0  0  0  0  0  0  0  0  0
    2.0900    8.8530   17.5260 H   0  0  0  0  0  0  0  0  0  0  0  0
    3.2210    5.8370   20.4000 H   0  0  0  0  0  0  0  0  0  0  0  0
    1.6290    8.0310   19.9660 N   0  0  0  0  0  0  0  0  0  0  0  0
    1.2430    9.3680   19.9960 C   0  0  0  0  0  0  0  0  0  0  0  0
    0.3970    9.6130   21.0860 N   0  0  0  0  0  0  0  0  0  0  0  0
    0.9380    9.3910   22.4310 C   0  0  0  0  0  0  0  0  0  0  0  0
   -0.1520    9.4930   23.4880 C   0  0  0  0  0  0  0  0  0  0  0  0
   -0.7880   10.7750   23.4530 O   0  0  0  0  0  0  0  0  0  0  0  0
   -1.1580   11.1370   22.1790 C   0  0  0  0  0  0  0  0  0  0  0  0
   -2.1450   12.1180   22.0870 C   0  0  0  0  0  0  0  0  0  0  0  0
   -2.6080   12.5170   20.8280 C   0  0  0  0  0  0  0  0  0  0  0  0
   -2.0630   11.8880   19.7190 C   0  0  0  0  0  0  0  0  0  0  0  0
   -1.0970   10.9440   19.7830 N   0  0  0  0  0  0  0  0  0  0  0  0
   -0.6170   10.6020   21.0000 C   0  0  0  0  0  0  0  0  0  0  0  0
    1.6060   10.2310   19.2010 O   0  0  0  0  0  0  0  0  0  0  0  0
    0.9790    7.4210   20.4350 H   0  0  0  0  0  0  0  0  0  0  0  0
    1.7120   10.1560   22.5950 H   0  0  0  0  0  0  0  0  0  0  0  0
    1.4230    8.4100   22.4870 H   0  0  0  0  0  0  0  0  0  0  0  0
    0.2850    9.3710   24.4880 H   0  0  0  0  0  0  0  0  0  0  0  0
   -0.9120    8.7090   23.3630 H   0  0  0  0  0  0  0  0  0  0  0  0
   -2.5530   12.5590   22.9940 H   0  0  0  0  0  0  0  0  0  0  0  0
   -2.3880   12.1300   18.7080 H   0  0  0  0  0  0  0  0  0  0  0  0
   -3.6870   13.5380   20.6580 C   0  0  0  0  0  0  0  0  0  0  0  0
   -4.5110   13.2780   19.6090 F   0  0  0  0  0  0  0  0  0  0  0  0
   -3.2080   14.7900   20.4500 F   0  0  0  0  0  0  0  0  0  0  0  0
   -4.4920   13.6200   21.7480 F   0  0  0  0  0  0  0  0  0  0  0  0
    5.0520    4.5280   18.8930 C   0  0  2  0  0  0  0  0  0  0  0  0
    5.2890    4.6090   19.9640 H   0  0  0  0  0  0  0  0  0  0  0  0
    6.3930    4.5510   18.1430 C   0  0  0  0  0  0  0  0  0  0  0  0
    6.2400    4.5460   17.0580 H   0  0  0  0  0  0  0  0  0  0  0  0
    6.9860    5.4390   18.3930 H   0  0  0  0  0  0  0  0  0  0  0  0
    6.9940    3.6660   18.3920 H   0  0  0  0  0  0  0  0  0  0  0  0
    4.2760    3.2090   18.6770 C   0  0  0  0  0  0  0  0  0  0  0  0
    3.7880    3.2340   17.6950 H   0  0  0  0  0  0  0  0  0  0  0  0
    4.9610    2.3570   18.6510 H   0  0  0  0  0  0  0  0  0  0  0  0
    3.2180    2.9880   19.7040 C   0  0  0  0  0  0  0  0  0  0  0  0
    3.4120    2.6450   20.9620 N   0  0  0  0  0  0  0  0  0  0  0  0
    2.1860    2.5240   21.5680 N   0  0  0  0  0  0  0  0  0  0  0  0
    1.2690    2.8010   20.6710 C   0  0  0  0  0  0  0  0  0  0  0  0
    1.8680    3.1060   19.4900 N   0  0  0  0  0  0  0  0  0  0  0  0
    0.1980    2.7920   20.8300 H   0  0  0  0  0  0  0  0  0  0  0  0
    1.1900    3.4870   18.2790 C   0  0  0  0  0  0  0  0  0  0  0  0
    1.2400    4.5790   18.1910 H   0  0  0  0  0  0  0  0  0  0  0  0
    0.1450    3.1660   18.3220 H   0  0  0  0  0  0  0  0  0  0  0  0
    1.6830    3.0120   17.4280 H   0  0  0  0  0  0  0  0  0  0  0  0
  1 35  1  0  0  0  0
  1  6  1  0  0  0  0
  2  1  2  0  0  0  0
  3  2  1  0  0  0  0
  3  4  2  0  0  0  0
  4  5  1  0  0  0  0
  5  6  2  0  0  0  0
  5 11  1  0  0  0  0
  6 10  1  0  0  0  0
  7  2  1  0  0  0  0
  8  3  1  0  0  0  0
  9  4  1  0  0  0  0
 11 12  1  0  0  0  0
 11 24  1  0  0  0  0
 12 13  1  0  0  0  0
 13 14  1  0  0  0  0
 14 26  1  0  0  0  0
 14 25  1  0  0  0  0
 14 15  1  0  0  0  0
 15 27  1  0  0  0  0
 16 15  1  0  0  0  0
 17 16  1  0  0  0  0
 18 17  1  0  0  0  0
 18 29  1  0  0  0  0
 19 18  2  0  0  0  0
 20 21  2  0  0  0  0
 20 19  1  0  0  0  0
 21 22  1  0  0  0  0
 22 13  1  0  0  0  0
 22 17  2  0  0  0  0
 23 12  2  0  0  0  0
 28 15  1  0  0  0  0
 30 20  1  0  0  0  0
 31 19  1  0  0  0  0
 31 34  1  0  0  0  0
 32 31  1  0  0  0  0
 33 31  1  0  0  0  0
 35 36  1  1  0  0  0
 37 40  1  0  0  0  0
 37 39  1  0  0  0  0
 37 35  1  0  0  0  0
 38 37  1  0  0  0  0
 41 35  1  0  0  0  0
 41 44  1  0  0  0  0
 42 41  1  0  0  0  0
 43 41  1  0  0  0  0
 44 45  2  0  0  0  0
 45 46  1  0  0  0  0
 47 49  1  0  0  0  0
 47 46  2  0  0  0  0
 48 44  1  0  0  0  0
 48 47  1  0  0  0  0
 50 52  1  0  0  0  0
 50 48  1  0  0  0  0
 51 50  1  0  0  0  0
 53 50  1  0  0  0  0
M  END
>  <MODEL>
16

>  <REMARK>
 VINA RESULT:    -7.457      5.288      9.535
 INTER + INTRA:         -10.485
 INTER:                 -10.153
 INTRA:                  -0.332
 UNBOUND:                -0.413
  Name = 
  7 active torsions:
  status: ('A' for Active; 'I' for Inactive)
    1  A    between atoms: C_1  and  C_2
    2  A    between atoms: C_2  and  C_3
    3  A    between atoms: C_2  and  C_10
    4  A    between atoms: C_3  and  C_4
    5  A    between atoms: N_8  and  C_9
    6  A    between atoms: C_14  and  N_16
    7  A    between atoms: C_24  and  C_28
                            x       y       z     vdW  Elec       q    Type
                         _______ _______ _______ _____ _____    ______ ____

>  <TORSDO>
F 7

$$$$
=
 OpenBabel07192307433D

 53 56  0  0  1  0  0  0  0  0999 V2000
    0.5300   12.5390   18.9150 C   0  0  0  0  0  0  0  0  0  0  0  0
   -0.8470   12.2880   18.9900 C   0  0  0  0  0  0  0  0  0  0  0  0
   -1.3570   11.0320   18.6580 C   0  0  0  0  0  0  0  0  0  0  0  0
   -0.4940   10.0130   18.2540 C   0  0  0  0  0  0  0  0  0  0  0  0
    0.8840   10.2370   18.1800 C   0  0  0  0  0  0  0  0  0  0  0  0
    1.3880   11.5010   18.5040 C   0  0  0  0  0  0  0  0  0  0  0  0
   -1.5380   13.0600   19.3160 H   0  0  0  0  0  0  0  0  0  0  0  0
   -2.4250   10.8430   18.7290 H   0  0  0  0  0  0  0  0  0  0  0  0
   -0.9170    9.0420   18.0070 H   0  0  0  0  0  0  0  0  0  0  0  0
    2.4550   11.7030   18.4380 H   0  0  0  0  0  0  0  0  0  0  0  0
    1.6840    9.1570   17.7610 N   0  0  0  0  0  0  0  0  0  0  0  0
    2.1880    8.1200   18.5410 C   0  0  0  0  0  0  0  0  0  0  0  0
    3.0370    7.3000   17.7840 N   0  0  0  0  0  0  0  0  0  0  0  0
    4.2440    7.9090   17.2170 C   0  0  0  0  0  0  0  0  0  0  0  0
    4.9430    6.9580   16.2570 C   0  0  0  0  0  0  0  0  0  0  0  0
    5.3060    5.7370   16.9110 O   0  0  0  0  0  0  0  0  0  0  0  0
    4.2610    5.2000   17.6260 C   0  0  0  0  0  0  0  0  0  0  0  0
    4.3610    3.8410   17.9220 C   0  0  0  0  0  0  0  0  0  0  0  0
    3.3230    3.2060   18.6140 C   0  0  0  0  0  0  0  0  0  0  0  0
    2.2210    3.9740   18.9560 C   0  0  0  0  0  0  0  0  0  0  0  0
    2.1080    5.2960   18.6910 N   0  0  0  0  0  0  0  0  0  0  0  0
    3.1380    5.9140   18.0710 C   0  0  0  0  0  0  0  0  0  0  0  0
    1.9540    7.9500   19.7340 O   0  0  0  0  0  0  0  0  0  0  0  0
    1.6740    8.9420   16.7760 H   0  0  0  0  0  0  0  0  0  0  0  0
    4.9030    8.1620   18.0620 H   0  0  0  0  0  0  0  0  0  0  0  0
    3.9920    8.8430   16.7020 H   0  0  0  0  0  0  0  0  0  0  0  0
    5.8680    7.4170   15.8820 H   0  0  0  0  0  0  0  0  0  0  0  0
    4.3140    6.7280   15.3860 H   0  0  0  0  0  0  0  0  0  0  0  0
    5.2410    3.2830   17.6060 H   0  0  0  0  0  0  0  0  0  0  0  0
    1.3650    3.5460   19.4750 H   0  0  0  0  0  0  0  0  0  0  0  0
    3.3490    1.7460   18.9330 C   0  0  0  0  0  0  0  0  0  0  0  0
    4.1930    1.4330   19.9520 F   0  0  0  0  0  0  0  0  0  0  0  0
    3.7360    0.9780   17.8840 F   0  0  0  0  0  0  0  0  0  0  0  0
    2.1300    1.2810   19.3090 F   0  0  0  0  0  0  0  0  0  0  0  0
    1.1140   13.8990   19.2870 C   0  0  2  0  0  0  0  0  0  0  0  0
    1.3200   13.9030   20.3680 H   0  0  0  0  0  0  0  0  0  0  0  0
    0.0750   15.0010   19.0330 C   0  0  0  0  0  0  0  0  0  0  0  0
   -0.3540   14.9170   18.0270 H   0  0  0  0  0  0  0  0  0  0  0  0
   -0.7510   14.9590   19.7520 H   0  0  0  0  0  0  0  0  0  0  0  0
    0.5350   15.9950   19.1090 H   0  0  0  0  0  0  0  0  0  0  0  0
    2.4470   14.1590   18.5490 C   0  0  0  0  0  0  0  0  0  0  0  0
    2.7560   13.2430   18.0300 H   0  0  0  0  0  0  0  0  0  0  0  0
    2.3170   14.9150   17.7700 H   0  0  0  0  0  0  0  0  0  0  0  0
    3.5500   14.5530   19.4710 C   0  0  0  0  0  0  0  0  0  0  0  0
    3.4660   14.6680   20.7810 N   0  0  0  0  0  0  0  0  0  0  0  0
    4.6900   15.0680   21.2560 N   0  0  0  0  0  0  0  0  0  0  0  0
    5.4990   15.1820   20.2280 C   0  0  0  0  0  0  0  0  0  0  0  0
    4.8310   14.8610   19.0890 N   0  0  0  0  0  0  0  0  0  0  0  0
    6.5380   15.4840   20.2640 H   0  0  0  0  0  0  0  0  0  0  0  0
    5.3910   14.8440   17.7640 C   0  0  0  0  0  0  0  0  0  0  0  0
    4.8550   14.0880   17.1770 H   0  0  0  0  0  0  0  0  0  0  0  0
    6.4550   14.5890   17.8140 H   0  0  0  0  0  0  0  0  0  0  0  0
    5.2740   15.8320   17.3130 H   0  0  0  0  0  0  0  0  0  0  0  0
  1  2  1  0  0  0  0
  1 35  1  0  0  0  0
  2  7  1  0  0  0  0
  3  8  1  0  0  0  0
  3  2  2  0  0  0  0
  4  3  1  0  0  0  0
  5  4  2  0  0  0  0
  5  6  1  0  0  0  0
  6  1  2  0  0  0  0
  9  4  1  0  0  0  0
 10  6  1  0  0  0  0
 11  5  1  0  0  0  0
 11 12  1  0  0  0  0
 12 23  2  0  0  0  0
 13 22  1  0  0  0  0
 13 12  1  0  0  0  0
 14 13  1  0  0  0  0
 14 25  1  0  0  0  0
 15 16  1  0  0  0  0
 15 14  1  0  0  0  0
 16 17  1  0  0  0  0
 17 18  2  0  0  0  0
 17 22  1  0  0  0  0
 18 19  1  0  0  0  0
 19 31  1  0  0  0  0
 19 20  2  0  0  0  0
 20 30  1  0  0  0  0
 21 20  1  0  0  0  0
 22 21  2  0  0  0  0
 24 11  1  0  0  0  0
 26 14  1  0  0  0  0
 27 15  1  0  0  0  0
 28 15  1  0  0  0  0
 29 18  1  0  0  0  0
 31 34  1  0  0  0  0
 31 32  1  0  0  0  0
 33 31  1  0  0  0  0
 35 36  1  1  0  0  0
 37 40  1  0  0  0  0
 37 35  1  0  0  0  0
 37 39  1  0  0  0  0
 38 37  1  0  0  0  0
 41 35  1  0  0  0  0
 41 44  1  0  0  0  0
 42 41  1  0  0  0  0
 43 41  1  0  0  0  0
 44 45  2  0  0  0  0
 45 46  1  0  0  0  0
 47 49  1  0  0  0  0
 47 46  2  0  0  0  0
 48 44  1  0  0  0  0
 48 47  1  0  0  0  0
 50 52  1  0  0  0  0
 50 48  1  0  0  0  0
 51 50  1  0  0  0  0
 53 50  1  0  0  0  0
M  END
>  <MODEL>
17

>  <REMARK>
 VINA RESULT:    -7.391      3.807      5.471
 INTER + INTRA:         -10.396
 INTER:                  -9.526
 INTRA:                  -0.869
 UNBOUND:                -0.413
  Name = 
  7 active torsions:
  status: ('A' for Active; 'I' for Inactive)
    1  A    between atoms: C_1  and  C_2
    2  A    between atoms: C_2  and  C_3
    3  A    between atoms: C_2  and  C_10
    4  A    between atoms: C_3  and  C_4
    5  A    between atoms: N_8  and  C_9
    6  A    between atoms: C_14  and  N_16
    7  A    between atoms: C_24  and  C_28
                            x       y       z     vdW  Elec       q    Type
                         _______ _______ _______ _____ _____    ______ ____

>  <TORSDO>
F 7

$$$$
=
 OpenBabel07192307433D

 53 56  0  0  1  0  0  0  0  0999 V2000
    4.2800    4.6260   16.8720 C   0  0  0  0  0  0  0  0  0  0  0  0
    3.6020    3.4010   16.7940 C   0  0  0  0  0  0  0  0  0  0  0  0
    2.3790    3.2270   17.4430 C   0  0  0  0  0  0  0  0  0  0  0  0
    1.8190    4.2750   18.1700 C   0  0  0  0  0  0  0  0  0  0  0  0
    2.4710    5.5090   18.2550 C   0  0  0  0  0  0  0  0  0  0  0  0
    3.7030    5.6760   17.6120 C   0  0  0  0  0  0  0  0  0  0  0  0
    4.0100    2.5740   16.2210 H   0  0  0  0  0  0  0  0  0  0  0  0
    1.8560    2.2770   17.3680 H   0  0  0  0  0  0  0  0  0  0  0  0
    0.8610    4.1140   18.6600 H   0  0  0  0  0  0  0  0  0  0  0  0
    4.2350    6.6210   17.6780 H   0  0  0  0  0  0  0  0  0  0  0  0
    1.8390    6.5140   19.0120 N   0  0  0  0  0  0  0  0  0  0  0  0
    2.1370    7.8750   19.0340 C   0  0  0  0  0  0  0  0  0  0  0  0
    1.3630    8.5330   20.0000 N   0  0  0  0  0  0  0  0  0  0  0  0
    1.5350    8.1310   21.3990 C   0  0  0  0  0  0  0  0  0  0  0  0
    0.4880    8.7790   22.2930 C   0  0  0  0  0  0  0  0  0  0  0  0
    0.5510   10.2070   22.2130 O   0  0  0  0  0  0  0  0  0  0  0  0
    0.5830   10.6540   20.9120 C   0  0  0  0  0  0  0  0  0  0  0  0
    0.2070   11.9820   20.7150 C   0  0  0  0  0  0  0  0  0  0  0  0
    0.1760   12.5060   19.4180 C   0  0  0  0  0  0  0  0  0  0  0  0
    0.5070   11.6520   18.3760 C   0  0  0  0  0  0  0  0  0  0  0  0
    0.8870   10.3650   18.5440 N   0  0  0  0  0  0  0  0  0  0  0  0
    0.9670    9.8820   19.8050 C   0  0  0  0  0  0  0  0  0  0  0  0
    2.9750    8.4300   18.3310 O   0  0  0  0  0  0  0  0  0  0  0  0
    0.9170    6.3060   19.3610 H   0  0  0  0  0  0  0  0  0  0  0  0
    2.5480    8.4410   21.7000 H   0  0  0  0  0  0  0  0  0  0  0  0
    1.4810    7.0400   21.4900 H   0  0  0  0  0  0  0  0  0  0  0  0
    0.6650    8.5010   23.3410 H   0  0  0  0  0  0  0  0  0  0  0  0
   -0.5270    8.4470   22.0320 H   0  0  0  0  0  0  0  0  0  0  0  0
   -0.0660   12.5980   21.5700 H   0  0  0  0  0  0  0  0  0  0  0  0
    0.4840   11.9810   17.3380 H   0  0  0  0  0  0  0  0  0  0  0  0
   -0.2510   13.9100   19.1310 C   0  0  0  0  0  0  0  0  0  0  0  0
   -1.3440   14.2950   19.8410 F   0  0  0  0  0  0  0  0  0  0  0  0
   -0.5650   14.1150   17.8270 F   0  0  0  0  0  0  0  0  0  0  0  0
    0.7200   14.8120   19.4290 F   0  0  0  0  0  0  0  0  0  0  0  0
    5.6110    4.8480   16.1600 C   0  0  2  0  0  0  0  0  0  0  0  0
    5.6090    5.8600   15.7290 H   0  0  0  0  0  0  0  0  0  0  0  0
    5.7450    3.8690   14.9840 C   0  0  0  0  0  0  0  0  0  0  0  0
    6.6000    3.1980   15.1240 H   0  0  0  0  0  0  0  0  0  0  0  0
    4.8490    3.2490   14.8640 H   0  0  0  0  0  0  0  0  0  0  0  0
    5.9060    4.4110   14.0430 H   0  0  0  0  0  0  0  0  0  0  0  0
    6.7980    4.7560   17.1470 C   0  0  0  0  0  0  0  0  0  0  0  0
    6.4680    4.2480   18.0610 H   0  0  0  0  0  0  0  0  0  0  0  0
    7.5980    4.1370   16.7320 H   0  0  0  0  0  0  0  0  0  0  0  0
    7.3290    6.0930   17.5370 C   0  0  0  0  0  0  0  0  0  0  0  0
    7.3070    7.1860   16.7990 N   0  0  0  0  0  0  0  0  0  0  0  0
    7.9090    8.1940   17.5090 N   0  0  0  0  0  0  0  0  0  0  0  0
    8.2810    7.7010   18.6670 C   0  0  0  0  0  0  0  0  0  0  0  0
    7.9310    6.3890   18.7330 N   0  0  0  0  0  0  0  0  0  0  0  0
    8.7890    8.2390   19.4570 H   0  0  0  0  0  0  0  0  0  0  0  0
    8.1510    5.5170   19.8570 C   0  0  0  0  0  0  0  0  0  0  0  0
    8.8140    4.7060   19.5330 H   0  0  0  0  0  0  0  0  0  0  0  0
    7.1970    5.1030   20.1970 H   0  0  0  0  0  0  0  0  0  0  0  0
    8.6110    6.0870   20.6670 H   0  0  0  0  0  0  0  0  0  0  0  0
  1  6  1  0  0  0  0
  2  1  2  0  0  0  0
  2  3  1  0  0  0  0
  3  4  2  0  0  0  0
  4  5  1  0  0  0  0
  4  9  1  0  0  0  0
  5 11  1  0  0  0  0
  6 10  1  0  0  0  0
  6  5  2  0  0  0  0
  7  2  1  0  0  0  0
  8  3  1  0  0  0  0
 11 12  1  0  0  0  0
 11 24  1  0  0  0  0
 12 13  1  0  0  0  0
 13 14  1  0  0  0  0
 14 26  1  0  0  0  0
 14 25  1  0  0  0  0
 14 15  1  0  0  0  0
 15 27  1  0  0  0  0
 16 15  1  0  0  0  0
 17 16  1  0  0  0  0
 18 17  1  0  0  0  0
 18 29  1  0  0  0  0
 19 18  2  0  0  0  0
 20 21  2  0  0  0  0
 20 19  1  0  0  0  0
 21 22  1  0  0  0  0
 22 13  1  0  0  0  0
 22 17  2  0  0  0  0
 23 12  2  0  0  0  0
 28 15  1  0  0  0  0
 30 20  1  0  0  0  0
 31 19  1  0  0  0  0
 31 34  1  0  0  0  0
 31 32  1  0  0  0  0
 33 31  1  0  0  0  0
 35 36  1  6  0  0  0
 35  1  1  0  0  0  0
 35 41  1  0  0  0  0
 37 38  1  0  0  0  0
 37 35  1  0  0  0  0
 39 37  1  0  0  0  0
 40 37  1  0  0  0  0
 41 44  1  0  0  0  0
 41 42  1  0  0  0  0
 43 41  1  0  0  0  0
 44 48  1  0  0  0  0
 45 46  1  0  0  0  0
 45 44  2  0  0  0  0
 46 47  2  0  0  0  0
 47 48  1  0  0  0  0
 47 49  1  0  0  0  0
 48 50  1  0  0  0  0
 50 52  1  0  0  0  0
 50 53  1  0  0  0  0
 51 50  1  0  0  0  0
M  END
>  <MODEL>
18

>  <REMARK>
 VINA RESULT:    -7.372      4.677      9.306
 INTER + INTRA:         -10.371
 INTER:                  -9.854
 INTRA:                  -0.517
 UNBOUND:                -0.413
  Name = 
  7 active torsions:
  status: ('A' for Active; 'I' for Inactive)
    1  A    between atoms: C_1  and  C_2
    2  A    between atoms: C_2  and  C_3
    3  A    between atoms: C_2  and  C_10
    4  A    between atoms: C_3  and  C_4
    5  A    between atoms: N_8  and  C_9
    6  A    between atoms: C_14  and  N_16
    7  A    between atoms: C_24  and  C_28
                            x       y       z     vdW  Elec       q    Type
                         _______ _______ _______ _____ _____    ______ ____

>  <TORSDO>
F 7

$$$$
=
 OpenBabel07192307433D

 53 56  0  0  1  0  0  0  0  0999 V2000
   -0.4210   11.2000   21.0910 C   0  0  0  0  0  0  0  0  0  0  0  0
   -0.9230   12.2000   20.2450 C   0  0  0  0  0  0  0  0  0  0  0  0
   -0.6630   12.1630   18.8740 C   0  0  0  0  0  0  0  0  0  0  0  0
    0.0960   11.1250   18.3350 C   0  0  0  0  0  0  0  0  0  0  0  0
    0.6000   10.1120   19.1570 C   0  0  0  0  0  0  0  0  0  0  0  0
    0.3460   10.1600   20.5320 C   0  0  0  0  0  0  0  0  0  0  0  0
   -1.5300   13.0100   20.6380 H   0  0  0  0  0  0  0  0  0  0  0  0
   -1.0650   12.9360   18.2250 H   0  0  0  0  0  0  0  0  0  0  0  0
    0.2780   11.1180   17.2630 H   0  0  0  0  0  0  0  0  0  0  0  0
    0.7410    9.3920   21.1930 H   0  0  0  0  0  0  0  0  0  0  0  0
    1.3590    9.1040   18.5340 N   0  0  0  0  0  0  0  0  0  0  0  0
    2.0190    8.0390   19.1430 C   0  0  0  0  0  0  0  0  0  0  0  0
    2.7620    7.3150   18.1990 N   0  0  0  0  0  0  0  0  0  0  0  0
    3.8390    8.0190   17.4970 C   0  0  0  0  0  0  0  0  0  0  0  0
    4.4070    7.1710   16.3670 C   0  0  0  0  0  0  0  0  0  0  0  0
    4.9130    5.9260   16.8590 O   0  0  0  0  0  0  0  0  0  0  0  0
    4.0180    5.2910   17.6880 C   0  0  0  0  0  0  0  0  0  0  0  0
    4.2120    3.9210   17.8590 C   0  0  0  0  0  0  0  0  0  0  0  0
    3.3230    3.1910   18.6560 C   0  0  0  0  0  0  0  0  0  0  0  0
    2.2640    3.8810   19.2270 C   0  0  0  0  0  0  0  0  0  0  0  0
    2.0630    5.2110   19.0860 N   0  0  0  0  0  0  0  0  0  0  0  0
    2.9570    5.9190   18.3590 C   0  0  0  0  0  0  0  0  0  0  0  0
    1.9870    7.7750   20.3410 O   0  0  0  0  0  0  0  0  0  0  0  0
    1.1970    8.9580   17.5500 H   0  0  0  0  0  0  0  0  0  0  0  0
    4.6170    8.2420   18.2430 H   0  0  0  0  0  0  0  0  0  0  0  0
    3.4740    8.9730   17.1010 H   0  0  0  0  0  0  0  0  0  0  0  0
    5.2420    7.6990   15.8870 H   0  0  0  0  0  0  0  0  0  0  0  0
    3.6530    6.9730   15.5920 H   0  0  0  0  0  0  0  0  0  0  0  0
    5.0480    3.4290   17.3650 H   0  0  0  0  0  0  0  0  0  0  0  0
    1.5190    3.3770   19.8420 H   0  0  0  0  0  0  0  0  0  0  0  0
    3.4510    1.7140   18.8540 C   0  0  0  0  0  0  0  0  0  0  0  0
    3.8270    1.0520   17.7280 F   0  0  0  0  0  0  0  0  0  0  0  0
    2.2960    1.1290   19.2600 F   0  0  0  0  0  0  0  0  0  0  0  0
    4.3800    1.4020   19.7930 F   0  0  0  0  0  0  0  0  0  0  0  0
   -0.7030   11.2090   22.5910 C   0  0  2  0  0  0  0  0  0  0  0  0
   -0.0340   11.9430   23.0640 H   0  0  0  0  0  0  0  0  0  0  0  0
   -0.3550    9.8410   23.1960 C   0  0  0  0  0  0  0  0  0  0  0  0
    0.2350    9.2380   22.4970 H   0  0  0  0  0  0  0  0  0  0  0  0
    0.2220    9.9390   24.1230 H   0  0  0  0  0  0  0  0  0  0  0  0
   -1.2660    9.2740   23.4270 H   0  0  0  0  0  0  0  0  0  0  0  0
   -2.1590   11.6350   22.8850 C   0  0  0  0  0  0  0  0  0  0  0  0
   -2.7060   11.7290   21.9390 H   0  0  0  0  0  0  0  0  0  0  0  0
   -2.6800   10.8620   23.4580 H   0  0  0  0  0  0  0  0  0  0  0  0
   -2.2450   12.9450   23.5910 C   0  0  0  0  0  0  0  0  0  0  0  0
   -1.3140   13.8790   23.6180 N   0  0  0  0  0  0  0  0  0  0  0  0
   -1.7720   14.9190   24.3880 N   0  0  0  0  0  0  0  0  0  0  0  0
   -2.9740   14.6030   24.8110 C   0  0  0  0  0  0  0  0  0  0  0  0
   -3.3160   13.3790   24.3300 N   0  0  0  0  0  0  0  0  0  0  0  0
   -3.6070   15.2100   25.4460 H   0  0  0  0  0  0  0  0  0  0  0  0
   -4.5680   12.7080   24.5590 C   0  0  0  0  0  0  0  0  0  0  0  0
   -5.3410   13.2230   23.9750 H   0  0  0  0  0  0  0  0  0  0  0  0
   -4.8210   12.7460   25.6230 H   0  0  0  0  0  0  0  0  0  0  0  0
   -4.4790   11.6660   24.2420 H   0  0  0  0  0  0  0  0  0  0  0  0
  1 35  1  0  0  0  0
  2  7  1  0  0  0  0
  2  1  2  0  0  0  0
  3  2  1  0  0  0  0
  4  3  2  0  0  0  0
  4  5  1  0  0  0  0
  5  6  2  0  0  0  0
  6  1  1  0  0  0  0
  6 10  1  0  0  0  0
  8  3  1  0  0  0  0
  9  4  1  0  0  0  0
 11 12  1  0  0  0  0
 11  5  1  0  0  0  0
 12 23  2  0  0  0  0
 13 22  1  0  0  0  0
 13 12  1  0  0  0  0
 14 13  1  0  0  0  0
 14 25  1  0  0  0  0
 15 16  1  0  0  0  0
 15 14  1  0  0  0  0
 16 17  1  0  0  0  0
 17 18  2  0  0  0  0
 17 22  1  0  0  0  0
 18 19  1  0  0  0  0
 19 31  1  0  0  0  0
 19 20  2  0  0  0  0
 20 30  1  0  0  0  0
 21 20  1  0  0  0  0
 22 21  2  0  0  0  0
 24 11  1  0  0  0  0
 26 14  1  0  0  0  0
 27 15  1  0  0  0  0
 28 15  1  0  0  0  0
 29 18  1  0  0  0  0
 31 33  1  0  0  0  0
 31 34  1  0  0  0  0
 32 31  1  0  0  0  0
 35 41  1  0  0  0  0
 35 36  1  1  0  0  0
 35 37  1  0  0  0  0
 37 40  1  0  0  0  0
 37 39  1  0  0  0  0
 38 37  1  0  0  0  0
 41 43  1  0  0  0  0
 41 44  1  0  0  0  0
 42 41  1  0  0  0  0
 44 45  2  0  0  0  0
 44 48  1  0  0  0  0
 45 46  1  0  0  0  0
 46 47  2  0  0  0  0
 47 49  1  0  0  0  0
 48 50  1  0  0  0  0
 48 47  1  0  0  0  0
 50 52  1  0  0  0  0
 51 50  1  0  0  0  0
 53 50  1  0  0  0  0
M  END
>  <MODEL>
19

>  <REMARK>
 VINA RESULT:    -7.353      3.535      4.944
 INTER + INTRA:         -10.344
 INTER:                  -9.993
 INTRA:                  -0.351
 UNBOUND:                -0.413
  Name = 
  7 active torsions:
  status: ('A' for Active; 'I' for Inactive)
    1  A    between atoms: C_1  and  C_2
    2  A    between atoms: C_2  and  C_3
    3  A    between atoms: C_2  and  C_10
    4  A    between atoms: C_3  and  C_4
    5  A    between atoms: N_8  and  C_9
    6  A    between atoms: C_14  and  N_16
    7  A    between atoms: C_24  and  C_28
                            x       y       z     vdW  Elec       q    Type
                         _______ _______ _______ _____ _____    ______ ____

>  <TORSDO>
F 7

$$$$
=
 OpenBabel07192307433D

 53 56  0  0  1  0  0  0  0  0999 V2000
   -1.6800   12.0710   19.3650 C   0  0  0  0  0  0  0  0  0  0  0  0
   -0.9630   13.2650   19.1940 C   0  0  0  0  0  0  0  0  0  0  0  0
    0.3710   13.2360   18.7860 C   0  0  0  0  0  0  0  0  0  0  0  0
    1.0000   12.0170   18.5390 C   0  0  0  0  0  0  0  0  0  0  0  0
    0.3030   10.8140   18.6940 C   0  0  0  0  0  0  0  0  0  0  0  0
   -1.0310   10.8480   19.1140 C   0  0  0  0  0  0  0  0  0  0  0  0
   -1.4350   14.2280   19.3650 H   0  0  0  0  0  0  0  0  0  0  0  0
    0.9160   14.1660   18.6460 H   0  0  0  0  0  0  0  0  0  0  0  0
    2.0390   12.0240   18.2160 H   0  0  0  0  0  0  0  0  0  0  0  0
   -1.5870    9.9240   19.2560 H   0  0  0  0  0  0  0  0  0  0  0  0
    1.0120    9.6270   18.4270 N   0  0  0  0  0  0  0  0  0  0  0  0
    1.5990    8.7630   19.3490 C   0  0  0  0  0  0  0  0  0  0  0  0
    2.3140    7.7520   18.6910 N   0  0  0  0  0  0  0  0  0  0  0  0
    3.4420    8.1560   17.8470 C   0  0  0  0  0  0  0  0  0  0  0  0
    3.9780    6.9800   17.0430 C   0  0  0  0  0  0  0  0  0  0  0  0
    4.4030    5.9170   17.9020 O   0  0  0  0  0  0  0  0  0  0  0  0
    3.4570    5.6070   18.8530 C   0  0  0  0  0  0  0  0  0  0  0  0
    3.5680    4.3440   19.4320 C   0  0  0  0  0  0  0  0  0  0  0  0
    2.6250    3.9340   20.3810 C   0  0  0  0  0  0  0  0  0  0  0  0
    1.5980    4.8160   20.6840 C   0  0  0  0  0  0  0  0  0  0  0  0
    1.4780    6.0510   20.1440 N   0  0  0  0  0  0  0  0  0  0  0  0
    2.4240    6.4600   19.2680 C   0  0  0  0  0  0  0  0  0  0  0  0
    1.5310    8.8740   20.5690 O   0  0  0  0  0  0  0  0  0  0  0  0
    0.8580    9.2000   17.5280 H   0  0  0  0  0  0  0  0  0  0  0  0
    4.2190    8.5540   18.5170 H   0  0  0  0  0  0  0  0  0  0  0  0
    3.1400    8.9640   17.1710 H   0  0  0  0  0  0  0  0  0  0  0  0
    4.8500    7.2950   16.4550 H   0  0  0  0  0  0  0  0  0  0  0  0
    3.2270    6.5970   16.3370 H   0  0  0  0  0  0  0  0  0  0  0  0
    4.3820    3.6840   19.1370 H   0  0  0  0  0  0  0  0  0  0  0  0
    0.8150    4.5600   21.3950 H   0  0  0  0  0  0  0  0  0  0  0  0
    2.6630    2.5810   21.0170 C   0  0  0  0  0  0  0  0  0  0  0  0
    1.9920    1.6350   20.3080 F   0  0  0  0  0  0  0  0  0  0  0  0
    2.1230    2.5620   22.2620 F   0  0  0  0  0  0  0  0  0  0  0  0
    3.9300    2.1130   21.1500 F   0  0  0  0  0  0  0  0  0  0  0  0
   -3.1440   12.0760   19.7960 C   0  0  2  0  0  0  0  0  0  0  0  0
   -3.3150   11.2050   20.4480 H   0  0  0  0  0  0  0  0  0  0  0  0
   -4.0500   11.8920   18.5700 C   0  0  0  0  0  0  0  0  0  0  0  0
   -3.4730   11.5740   17.6950 H   0  0  0  0  0  0  0  0  0  0  0  0
   -4.8300   11.1420   18.7460 H   0  0  0  0  0  0  0  0  0  0  0  0
   -4.5460   12.8360   18.3080 H   0  0  0  0  0  0  0  0  0  0  0  0
   -3.4880   13.3480   20.6030 C   0  0  0  0  0  0  0  0  0  0  0  0
   -2.6020   13.9940   20.6520 H   0  0  0  0  0  0  0  0  0  0  0  0
   -4.2590   13.9330   20.0940 H   0  0  0  0  0  0  0  0  0  0  0  0
   -3.9080   13.0480   22.0020 C   0  0  0  0  0  0  0  0  0  0  0  0
   -5.1470   12.9970   22.4490 N   0  0  0  0  0  0  0  0  0  0  0  0
   -5.1070   12.7110   23.7910 N   0  0  0  0  0  0  0  0  0  0  0  0
   -3.8460   12.5860   24.1350 C   0  0  0  0  0  0  0  0  0  0  0  0
   -3.0580   12.7810   23.0450 N   0  0  0  0  0  0  0  0  0  0  0  0
   -3.4740   12.3650   25.1270 H   0  0  0  0  0  0  0  0  0  0  0  0
   -1.6220   12.7000   23.0230 C   0  0  0  0  0  0  0  0  0  0  0  0
   -1.3380   11.6490   23.1620 H   0  0  0  0  0  0  0  0  0  0  0  0
   -1.2030   13.3070   23.8320 H   0  0  0  0  0  0  0  0  0  0  0  0
   -1.2570   13.0710   22.0620 H   0  0  0  0  0  0  0  0  0  0  0  0
  1 35  1  0  0  0  0
  2  7  1  0  0  0  0
  2  1  1  0  0  0  0
  3  2  2  0  0  0  0
  4  5  2  0  0  0  0
  4  3  1  0  0  0  0
  5  6  1  0  0  0  0
  6 10  1  0  0  0  0
  6  1  2  0  0  0  0
  8  3  1  0  0  0  0
  9  4  1  0  0  0  0
 11  5  1  0  0  0  0
 11 12  1  0  0  0  0
 12 23  2  0  0  0  0
 13 22  1  0  0  0  0
 13 12  1  0  0  0  0
 14 25  1  0  0  0  0
 14 13  1  0  0  0  0
 15 14  1  0  0  0  0
 15 16  1  0  0  0  0
 16 17  1  0  0  0  0
 17 22  2  0  0  0  0
 17 18  1  0  0  0  0
 18 19  2  0  0  0  0
 19 20  1  0  0  0  0
 19 31  1  0  0  0  0
 20 30  1  0  0  0  0
 21 20  2  0  0  0  0
 22 21  1  0  0  0  0
 24 11  1  0  0  0  0
 26 14  1  0  0  0  0
 27 15  1  0  0  0  0
 28 15  1  0  0  0  0
 29 18  1  0  0  0  0
 31 34  1  0  0  0  0
 31 33  1  0  0  0  0
 32 31  1  0  0  0  0
 35 36  1  1  0  0  0
 35 41  1  0  0  0  0
 37 39  1  0  0  0  0
 37 35  1  0  0  0  0
 38 37  1  0  0  0  0
 40 37  1  0  0  0  0
 41 42  1  0  0  0  0
 41 44  1  0  0  0  0
 43 41  1  0  0  0  0
 44 45  2  0  0  0  0
 44 48  1  0  0  0  0
 45 46  1  0  0  0  0
 46 47  2  0  0  0  0
 47 49  1  0  0  0  0
 48 47  1  0  0  0  0
 50 48  1  0  0  0  0
 50 51  1  0  0  0  0
 50 52  1  0  0  0  0
 53 50  1  0  0  0  0
M  END
>  <MODEL>
20

>  <REMARK>
 VINA RESULT:    -7.315      3.462      4.933
 INTER + INTRA:         -10.294
 INTER:                  -9.447
 INTRA:                  -0.847
 UNBOUND:                -0.413
  Name = 
  7 active torsions:
  status: ('A' for Active; 'I' for Inactive)
    1  A    between atoms: C_1  and  C_2
    2  A    between atoms: C_2  and  C_3
    3  A    between atoms: C_2  and  C_10
    4  A    between atoms: C_3  and  C_4
    5  A    between atoms: N_8  and  C_9
    6  A    between atoms: C_14  and  N_16
    7  A    between atoms: C_24  and  C_28
                            x       y       z     vdW  Elec       q    Type
                         _______ _______ _______ _____ _____    ______ ____

>  <TORSDO>
F 7

$$$$
=
 OpenBabel07192307433D

 53 56  0  0  1  0  0  0  0  0999 V2000
    3.9110    3.7330   19.4690 C   0  0  0  0  0  0  0  0  0  0  0  0
    3.6070    2.5970   20.2330 C   0  0  0  0  0  0  0  0  0  0  0  0
    2.6560    2.6630   21.2520 C   0  0  0  0  0  0  0  0  0  0  0  0
    1.9960    3.8630   21.5130 C   0  0  0  0  0  0  0  0  0  0  0  0
    2.2750    5.0070   20.7590 C   0  0  0  0  0  0  0  0  0  0  0  0
    3.2380    4.9370   19.7460 C   0  0  0  0  0  0  0  0  0  0  0  0
    4.0970    1.6460   20.0390 H   0  0  0  0  0  0  0  0  0  0  0  0
    2.4190    1.7750   21.8320 H   0  0  0  0  0  0  0  0  0  0  0  0
    1.2540    3.8850   22.3090 H   0  0  0  0  0  0  0  0  0  0  0  0
    3.4830    5.8190   19.1580 H   0  0  0  0  0  0  0  0  0  0  0  0
    1.5670    6.1780   21.0900 N   0  0  0  0  0  0  0  0  0  0  0  0
    1.6800    7.4340   20.5000 C   0  0  0  0  0  0  0  0  0  0  0  0
    0.8920    8.3720   21.1820 N   0  0  0  0  0  0  0  0  0  0  0  0
    1.2100    8.6330   22.5890 C   0  0  0  0  0  0  0  0  0  0  0  0
    0.1480    9.5060   23.2420 C   0  0  0  0  0  0  0  0  0  0  0  0
    0.0140   10.7560   22.5600 O   0  0  0  0  0  0  0  0  0  0  0  0
   -0.1010   10.5960   21.1980 C   0  0  0  0  0  0  0  0  0  0  0  0
   -0.6640   11.6670   20.5050 C   0  0  0  0  0  0  0  0  0  0  0  0
   -0.8520   11.5720   19.1210 C   0  0  0  0  0  0  0  0  0  0  0  0
   -0.4800   10.3860   18.5060 C   0  0  0  0  0  0  0  0  0  0  0  0
    0.0790    9.3400   19.1560 N   0  0  0  0  0  0  0  0  0  0  0  0
    0.3080    9.4600   20.4830 C   0  0  0  0  0  0  0  0  0  0  0  0
    2.3880    7.7040   19.5350 O   0  0  0  0  0  0  0  0  0  0  0  0
    0.7070    6.0570   21.6010 H   0  0  0  0  0  0  0  0  0  0  0  0
    2.1900    9.1350   22.6090 H   0  0  0  0  0  0  0  0  0  0  0  0
    1.3090    7.6900   23.1370 H   0  0  0  0  0  0  0  0  0  0  0  0
    0.4310    9.7260   24.2800 H   0  0  0  0  0  0  0  0  0  0  0  0
   -0.8290    9.0020   23.2680 H   0  0  0  0  0  0  0  0  0  0  0  0
   -0.9590   12.5650   21.0450 H   0  0  0  0  0  0  0  0  0  0  0  0
   -0.6160   10.2290   17.4370 H   0  0  0  0  0  0  0  0  0  0  0  0
   -1.4800   12.6680   18.3210 C   0  0  0  0  0  0  0  0  0  0  0  0
   -2.3250   12.2130   17.3580 F   0  0  0  0  0  0  0  0  0  0  0  0
   -0.5730   13.4460   17.6790 F   0  0  0  0  0  0  0  0  0  0  0  0
   -2.2170   13.5080   19.0910 F   0  0  0  0  0  0  0  0  0  0  0  0
    4.9360    3.6830   18.3400 C   0  0  2  0  0  0  0  0  0  0  0  0
    5.3560    2.6660   18.2980 H   0  0  0  0  0  0  0  0  0  0  0  0
    6.1060    4.6280   18.6530 C   0  0  0  0  0  0  0  0  0  0  0  0
    6.6360    4.3150   19.5600 H   0  0  0  0  0  0  0  0  0  0  0  0
    6.8340    4.6630   17.8350 H   0  0  0  0  0  0  0  0  0  0  0  0
    5.7440    5.6510   18.8240 H   0  0  0  0  0  0  0  0  0  0  0  0
    4.2810    3.9830   16.9730 C   0  0  0  0  0  0  0  0  0  0  0  0
    3.6830    3.1160   16.6620 H   0  0  0  0  0  0  0  0  0  0  0  0
    3.5790    4.8170   17.0550 H   0  0  0  0  0  0  0  0  0  0  0  0
    5.2800    4.2530   15.9010 C   0  0  0  0  0  0  0  0  0  0  0  0
    6.0030    3.3530   15.2640 N   0  0  0  0  0  0  0  0  0  0  0  0
    6.8120    4.0080   14.3690 N   0  0  0  0  0  0  0  0  0  0  0  0
    6.5630    5.2930   14.4710 C   0  0  0  0  0  0  0  0  0  0  0  0
    5.6040    5.4940   15.4140 N   0  0  0  0  0  0  0  0  0  0  0  0
    7.0390    6.0830   13.9050 H   0  0  0  0  0  0  0  0  0  0  0  0
    5.0500    6.7690   15.7890 C   0  0  0  0  0  0  0  0  0  0  0  0
    4.9910    7.3920   14.8880 H   0  0  0  0  0  0  0  0  0  0  0  0
    5.6960    7.2490   16.5300 H   0  0  0  0  0  0  0  0  0  0  0  0
    4.0560    6.6160   16.2150 H   0  0  0  0  0  0  0  0  0  0  0  0
  1  6  2  0  0  0  0
  1  2  1  0  0  0  0
  2  3  2  0  0  0  0
  3  4  1  0  0  0  0
  3  8  1  0  0  0  0
  4  9  1  0  0  0  0
  5 11  1  0  0  0  0
  5  4  2  0  0  0  0
  6  5  1  0  0  0  0
  7  2  1  0  0  0  0
 10  6  1  0  0  0  0
 11 24  1  0  0  0  0
 12 11  1  0  0  0  0
 12 13  1  0  0  0  0
 13 14  1  0  0  0  0
 14 25  1  0  0  0  0
 14 26  1  0  0  0  0
 14 15  1  0  0  0  0
 15 28  1  0  0  0  0
 15 27  1  0  0  0  0
 16 15  1  0  0  0  0
 17 16  1  0  0  0  0
 18 29  1  0  0  0  0
 18 17  1  0  0  0  0
 19 18  2  0  0  0  0
 20 19  1  0  0  0  0
 20 21  2  0  0  0  0
 21 22  1  0  0  0  0
 22 13  1  0  0  0  0
 22 17  2  0  0  0  0
 23 12  2  0  0  0  0
 30 20  1  0  0  0  0
 31 34  1  0  0  0  0
 31 19  1  0  0  0  0
 32 31  1  0  0  0  0
 33 31  1  0  0  0  0
 35 36  1  6  0  0  0
 35 37  1  0  0  0  0
 35  1  1  0  0  0  0
 37 40  1  0  0  0  0
 37 38  1  0  0  0  0
 39 37  1  0  0  0  0
 41 43  1  0  0  0  0
 41 35  1  0  0  0  0
 42 41  1  0  0  0  0
 44 41  1  0  0  0  0
 45 44  2  0  0  0  0
 46 47  2  0  0  0  0
 46 45  1  0  0  0  0
 47 48  1  0  0  0  0
 48 50  1  0  0  0  0
 48 44  1  0  0  0  0
 49 47  1  0  0  0  0
 50 53  1  0  0  0  0
 50 52  1  0  0  0  0
 51 50  1  0  0  0  0
M  END
>  <MODEL>
21

>  <REMARK>
 VINA RESULT:    -7.282      4.322      8.908
 INTER + INTRA:         -10.249
 INTER:                  -9.906
 INTRA:                  -0.343
 UNBOUND:                -0.413
  Name = 
  7 active torsions:
  status: ('A' for Active; 'I' for Inactive)
    1  A    between atoms: C_1  and  C_2
    2  A    between atoms: C_2  and  C_3
    3  A    between atoms: C_2  and  C_10
    4  A    between atoms: C_3  and  C_4
    5  A    between atoms: N_8  and  C_9
    6  A    between atoms: C_14  and  N_16
    7  A    between atoms: C_24  and  C_28
                            x       y       z     vdW  Elec       q    Type
                         _______ _______ _______ _____ _____    ______ ____

>  <TORSDO>
F 7

$$$$
=
 OpenBabel07192307433D

 53 56  0  0  1  0  0  0  0  0999 V2000
    2.3520    7.0570   19.4770 C   0  0  0  0  0  0  0  0  0  0  0  0
    2.7950    7.0430   18.1460 C   0  0  0  0  0  0  0  0  0  0  0  0
    2.6370    8.1670   17.3360 C   0  0  0  0  0  0  0  0  0  0  0  0
    2.0400    9.3180   17.8480 C   0  0  0  0  0  0  0  0  0  0  0  0
    1.5980    9.3600   19.1740 C   0  0  0  0  0  0  0  0  0  0  0  0
    1.7490    8.2260   19.9790 C   0  0  0  0  0  0  0  0  0  0  0  0
    3.2770    6.1630   17.7280 H   0  0  0  0  0  0  0  0  0  0  0  0
    2.9930    8.1510   16.3090 H   0  0  0  0  0  0  0  0  0  0  0  0
    1.9360   10.1830   17.1960 H   0  0  0  0  0  0  0  0  0  0  0  0
    1.3990    8.2300   21.0080 H   0  0  0  0  0  0  0  0  0  0  0  0
    1.0040   10.5590   19.6110 N   0  0  0  0  0  0  0  0  0  0  0  0
   -0.2890   10.7390   20.0950 C   0  0  0  0  0  0  0  0  0  0  0  0
   -0.5470   12.0990   20.3190 N   0  0  0  0  0  0  0  0  0  0  0  0
   -0.4930   13.0010   19.1650 C   0  0  0  0  0  0  0  0  0  0  0  0
   -0.5850   14.4570   19.5990 C   0  0  0  0  0  0  0  0  0  0  0  0
   -1.7940   14.7070   20.3230 O   0  0  0  0  0  0  0  0  0  0  0  0
   -2.0090   13.7760   21.3130 C   0  0  0  0  0  0  0  0  0  0  0  0
   -2.8820   14.1590   22.3300 C   0  0  0  0  0  0  0  0  0  0  0  0
   -3.1270   13.2860   23.3960 C   0  0  0  0  0  0  0  0  0  0  0  0
   -2.4580   12.0710   23.3930 C   0  0  0  0  0  0  0  0  0  0  0  0
   -1.6170   11.6730   22.4120 N   0  0  0  0  0  0  0  0  0  0  0  0
   -1.4270   12.4990   21.3580 C   0  0  0  0  0  0  0  0  0  0  0  0
   -1.1100    9.8450   20.2780 O   0  0  0  0  0  0  0  0  0  0  0  0
    1.6290   11.3070   19.8670 H   0  0  0  0  0  0  0  0  0  0  0  0
   -1.3380   12.7370   18.5110 H   0  0  0  0  0  0  0  0  0  0  0  0
    0.4300   12.8370   18.5980 H   0  0  0  0  0  0  0  0  0  0  0  0
   -0.5900   15.1110   18.7160 H   0  0  0  0  0  0  0  0  0  0  0  0
    0.2750   14.7490   20.2190 H   0  0  0  0  0  0  0  0  0  0  0  0
   -3.3600   15.1360   22.2910 H   0  0  0  0  0  0  0  0  0  0  0  0
   -2.5800   11.3500   24.1990 H   0  0  0  0  0  0  0  0  0  0  0  0
   -4.0250   13.6460   24.5360 C   0  0  0  0  0  0  0  0  0  0  0  0
   -5.1470   14.3090   24.1490 F   0  0  0  0  0  0  0  0  0  0  0  0
   -3.4240   14.4420   25.4560 F   0  0  0  0  0  0  0  0  0  0  0  0
   -4.4580   12.5520   25.2130 F   0  0  0  0  0  0  0  0  0  0  0  0
    2.5260    5.8460   20.3880 C   0  0  2  0  0  0  0  0  0  0  0  0
    2.7030    6.2060   21.4130 H   0  0  0  0  0  0  0  0  0  0  0  0
    3.7790    5.0580   19.9770 C   0  0  0  0  0  0  0  0  0  0  0  0
    3.7450    4.7850   18.9170 H   0  0  0  0  0  0  0  0  0  0  0  0
    4.6970    5.6330   20.1450 H   0  0  0  0  0  0  0  0  0  0  0  0
    3.8580    4.1250   20.5520 H   0  0  0  0  0  0  0  0  0  0  0  0
    1.2530    4.9690   20.4060 C   0  0  0  0  0  0  0  0  0  0  0  0
    0.9890    4.7390   21.4460 H   0  0  0  0  0  0  0  0  0  0  0  0
    0.4010    5.5160   19.9940 H   0  0  0  0  0  0  0  0  0  0  0  0
    1.4330    3.6760   19.6870 C   0  0  0  0  0  0  0  0  0  0  0  0
    1.3280    3.4860   18.3870 N   0  0  0  0  0  0  0  0  0  0  0  0
    1.5460    2.1550   18.1290 N   0  0  0  0  0  0  0  0  0  0  0  0
    1.7860    1.5610   19.2740 C   0  0  0  0  0  0  0  0  0  0  0  0
    1.7350    2.4750   20.2790 N   0  0  0  0  0  0  0  0  0  0  0  0
    1.9940    0.5080   19.4150 H   0  0  0  0  0  0  0  0  0  0  0  0
    1.9700    2.2050   21.6720 C   0  0  0  0  0  0  0  0  0  0  0  0
    1.3080    1.3840   21.9750 H   0  0  0  0  0  0  0  0  0  0  0  0
    1.7490    3.0980   22.2660 H   0  0  0  0  0  0  0  0  0  0  0  0
    3.0160    1.9230   21.8110 H   0  0  0  0  0  0  0  0  0  0  0  0
  1  6  1  0  0  0  0
  1 35  1  0  0  0  0
  2  1  2  0  0  0  0
  3  4  2  0  0  0  0
  3  2  1  0  0  0  0
  4  5  1  0  0  0  0
  5 11  1  0  0  0  0
  5  6  2  0  0  0  0
  6 10  1  0  0  0  0
  7  2  1  0  0  0  0
  8  3  1  0  0  0  0
  9  4  1  0  0  0  0
 11 24  1  0  0  0  0
 11 12  1  0  0  0  0
 12 23  2  0  0  0  0
 12 13  1  0  0  0  0
 13 22  1  0  0  0  0
 14 15  1  0  0  0  0
 14 13  1  0  0  0  0
 15 28  1  0  0  0  0
 15 16  1  0  0  0  0
 16 17  1  0  0  0  0
 17 22  2  0  0  0  0
 17 18  1  0  0  0  0
 18 19  2  0  0  0  0
 19 31  1  0  0  0  0
 20 19  1  0  0  0  0
 20 30  1  0  0  0  0
 21 20  2  0  0  0  0
 22 21  1  0  0  0  0
 25 14  1  0  0  0  0
 26 14  1  0  0  0  0
 27 15  1  0  0  0  0
 29 18  1  0  0  0  0
 31 34  1  0  0  0  0
 31 33  1  0  0  0  0
 32 31  1  0  0  0  0
 35 41  1  0  0  0  0
 35 36  1  1  0  0  0
 37 39  1  0  0  0  0
 37 35  1  0  0  0  0
 37 40  1  0  0  0  0
 38 37  1  0  0  0  0
 41 42  1  0  0  0  0
 43 41  1  0  0  0  0
 44 48  1  0  0  0  0
 44 41  1  0  0  0  0
 45 44  2  0  0  0  0
 46 45  1  0  0  0  0
 46 47  2  0  0  0  0
 47 49  1  0  0  0  0
 47 48  1  0  0  0  0
 48 50  1  0  0  0  0
 50 53  1  0  0  0  0
 50 51  1  0  0  0  0
 50 52  1  0  0  0  0
M  END
>  <MODEL>
22

>  <REMARK>
 VINA RESULT:    -7.182      6.144     10.291
 INTER + INTRA:         -10.114
 INTER:                  -9.528
 INTRA:                  -0.586
 UNBOUND:                -0.413
  Name = 
  7 active torsions:
  status: ('A' for Active; 'I' for Inactive)
    1  A    between atoms: C_1  and  C_2
    2  A    between atoms: C_2  and  C_3
    3  A    between atoms: C_2  and  C_10
    4  A    between atoms: C_3  and  C_4
    5  A    between atoms: N_8  and  C_9
    6  A    between atoms: C_14  and  N_16
    7  A    between atoms: C_24  and  C_28
                            x       y       z     vdW  Elec       q    Type
                         _______ _______ _______ _____ _____    ______ ____

>  <TORSDO>
F 7

$$$$
=
 OpenBabel07192307433D

 53 56  0  0  1  0  0  0  0  0999 V2000
    4.6990    4.1540   17.0570 C   0  0  0  0  0  0  0  0  0  0  0  0
    3.9760    2.9640   16.8920 C   0  0  0  0  0  0  0  0  0  0  0  0
    2.6880    2.8390   17.4150 C   0  0  0  0  0  0  0  0  0  0  0  0
    2.1080    3.9050   18.1020 C   0  0  0  0  0  0  0  0  0  0  0  0
    2.8050    5.1050   18.2710 C   0  0  0  0  0  0  0  0  0  0  0  0
    4.1010    5.2210   17.7550 C   0  0  0  0  0  0  0  0  0  0  0  0
    4.4000    2.1250   16.3480 H   0  0  0  0  0  0  0  0  0  0  0  0
    2.1320    1.9170   17.2730 H   0  0  0  0  0  0  0  0  0  0  0  0
    1.1000    3.7830   18.4930 H   0  0  0  0  0  0  0  0  0  0  0  0
    4.6670    6.1390   17.8890 H   0  0  0  0  0  0  0  0  0  0  0  0
    2.1490    6.1300   18.9800 N   0  0  0  0  0  0  0  0  0  0  0  0
    2.3830    7.5000   18.9020 C   0  0  0  0  0  0  0  0  0  0  0  0
    1.6070    8.1870   19.8470 N   0  0  0  0  0  0  0  0  0  0  0  0
    1.8380    7.8880   21.2630 C   0  0  0  0  0  0  0  0  0  0  0  0
    0.7870    8.5480   22.1450 C   0  0  0  0  0  0  0  0  0  0  0  0
    0.7810    9.9680   21.9680 O   0  0  0  0  0  0  0  0  0  0  0  0
    0.7560   10.3270   20.6400 C   0  0  0  0  0  0  0  0  0  0  0  0
    0.3120   11.6210   20.3680 C   0  0  0  0  0  0  0  0  0  0  0  0
    0.2200   12.0540   19.0400 C   0  0  0  0  0  0  0  0  0  0  0  0
    0.5600   11.1480   18.0470 C   0  0  0  0  0  0  0  0  0  0  0  0
    1.0050    9.8930   18.2880 N   0  0  0  0  0  0  0  0  0  0  0  0
    1.1430    9.5000   19.5750 C   0  0  0  0  0  0  0  0  0  0  0  0
    3.1740    8.0440   18.1380 O   0  0  0  0  0  0  0  0  0  0  0  0
    1.2480    5.9040   19.3710 H   0  0  0  0  0  0  0  0  0  0  0  0
    2.8430    8.2630   21.5110 H   0  0  0  0  0  0  0  0  0  0  0  0
    1.8380    6.8050   21.4270 H   0  0  0  0  0  0  0  0  0  0  0  0
    1.0070    8.3490   23.2020 H   0  0  0  0  0  0  0  0  0  0  0  0
   -0.2180    8.1540   21.9390 H   0  0  0  0  0  0  0  0  0  0  0  0
    0.0350   12.2800   21.1880 H   0  0  0  0  0  0  0  0  0  0  0  0
    0.4920   11.4050   16.9910 H   0  0  0  0  0  0  0  0  0  0  0  0
   -0.2800   13.4160   18.6750 C   0  0  0  0  0  0  0  0  0  0  0  0
    0.6790   14.3760   18.7450 F   0  0  0  0  0  0  0  0  0  0  0  0
   -1.2910   13.8440   19.4710 F   0  0  0  0  0  0  0  0  0  0  0  0
   -0.7570   13.4630   17.4050 F   0  0  0  0  0  0  0  0  0  0  0  0
    6.1030    4.3210   16.4830 C   0  0  2  0  0  0  0  0  0  0  0  0
    6.4570    3.3360   16.1440 H   0  0  0  0  0  0  0  0  0  0  0  0
    7.0680    4.7800   17.5860 C   0  0  0  0  0  0  0  0  0  0  0  0
    6.9720    5.8550   17.7740 H   0  0  0  0  0  0  0  0  0  0  0  0
    6.8860    4.2570   18.5330 H   0  0  0  0  0  0  0  0  0  0  0  0
    8.1100    4.5920   17.2950 H   0  0  0  0  0  0  0  0  0  0  0  0
    6.1020    5.2700   15.2630 C   0  0  0  0  0  0  0  0  0  0  0  0
    5.1700    5.8500   15.2590 H   0  0  0  0  0  0  0  0  0  0  0  0
    6.9110    6.0010   15.3410 H   0  0  0  0  0  0  0  0  0  0  0  0
    6.1890    4.5420   13.9660 C   0  0  0  0  0  0  0  0  0  0  0  0
    5.3370    3.6400   13.5190 N   0  0  0  0  0  0  0  0  0  0  0  0
    5.7820    3.1960   12.2990 N   0  0  0  0  0  0  0  0  0  0  0  0
    6.8920    3.8400   12.0210 C   0  0  0  0  0  0  0  0  0  0  0  0
    7.1820    4.7000   13.0330 N   0  0  0  0  0  0  0  0  0  0  0  0
    7.4950    3.7160   11.1310 H   0  0  0  0  0  0  0  0  0  0  0  0
    8.3080    5.5950   13.0760 C   0  0  0  0  0  0  0  0  0  0  0  0
    7.9580    6.5950   12.7940 H   0  0  0  0  0  0  0  0  0  0  0  0
    9.0760    5.2590   12.3730 H   0  0  0  0  0  0  0  0  0  0  0  0
    8.7190    5.6050   14.0890 H   0  0  0  0  0  0  0  0  0  0  0  0
  1  6  1  0  0  0  0
  2  1  2  0  0  0  0
  2  3  1  0  0  0  0
  3  4  2  0  0  0  0
  4  5  1  0  0  0  0
  4  9  1  0  0  0  0
  5 11  1  0  0  0  0
  6 10  1  0  0  0  0
  6  5  2  0  0  0  0
  7  2  1  0  0  0  0
  8  3  1  0  0  0  0
 11 24  1  0  0  0  0
 12 11  1  0  0  0  0
 12 13  1  0  0  0  0
 13 14  1  0  0  0  0
 14 26  1  0  0  0  0
 14 25  1  0  0  0  0
 14 15  1  0  0  0  0
 15 27  1  0  0  0  0
 16 15  1  0  0  0  0
 17 16  1  0  0  0  0
 18 17  1  0  0  0  0
 18 29  1  0  0  0  0
 19 18  2  0  0  0  0
 20 21  2  0  0  0  0
 20 19  1  0  0  0  0
 21 22  1  0  0  0  0
 22 13  1  0  0  0  0
 22 17  2  0  0  0  0
 23 12  2  0  0  0  0
 28 15  1  0  0  0  0
 30 20  1  0  0  0  0
 31 32  1  0  0  0  0
 31 19  1  0  0  0  0
 31 33  1  0  0  0  0
 34 31  1  0  0  0  0
 35 36  1  6  0  0  0
 35  1  1  0  0  0  0
 35 37  1  0  0  0  0
 37 38  1  0  0  0  0
 37 39  1  0  0  0  0
 40 37  1  0  0  0  0
 41 43  1  0  0  0  0
 41 35  1  0  0  0  0
 42 41  1  0  0  0  0
 44 41  1  0  0  0  0
 45 44  2  0  0  0  0
 46 45  1  0  0  0  0
 47 46  2  0  0  0  0
 47 48  1  0  0  0  0
 48 50  1  0  0  0  0
 48 44  1  0  0  0  0
 49 47  1  0  0  0  0
 50 53  1  0  0  0  0
 51 50  1  0  0  0  0
 52 50  1  0  0  0  0
M  END
>  <MODEL>
23

>  <REMARK>
 VINA RESULT:    -7.151      4.526      9.315
 INTER + INTRA:         -10.072
 INTER:                  -9.600
 INTRA:                  -0.472
 UNBOUND:                -0.413
  Name = 
  7 active torsions:
  status: ('A' for Active; 'I' for Inactive)
    1  A    between atoms: C_1  and  C_2
    2  A    between atoms: C_2  and  C_3
    3  A    between atoms: C_2  and  C_10
    4  A    between atoms: C_3  and  C_4
    5  A    between atoms: N_8  and  C_9
    6  A    between atoms: C_14  and  N_16
    7  A    between atoms: C_24  and  C_28
                            x       y       z     vdW  Elec       q    Type
                         _______ _______ _______ _____ _____    ______ ____

>  <TORSDO>
F 7

$$$$
=
 OpenBabel07192307433D

 53 56  0  0  1  0  0  0  0  0999 V2000
    4.4850    5.6860   16.6120 C   0  0  0  0  0  0  0  0  0  0  0  0
    3.9420    4.6580   17.3970 C   0  0  0  0  0  0  0  0  0  0  0  0
    3.0660    4.9540   18.4430 C   0  0  0  0  0  0  0  0  0  0  0  0
    2.7210    6.2770   18.7100 C   0  0  0  0  0  0  0  0  0  0  0  0
    3.2420    7.3190   17.9360 C   0  0  0  0  0  0  0  0  0  0  0  0
    4.1280    7.0180   16.8960 C   0  0  0  0  0  0  0  0  0  0  0  0
    4.1830    3.6180   17.1980 H   0  0  0  0  0  0  0  0  0  0  0  0
    2.6420    4.1500   19.0390 H   0  0  0  0  0  0  0  0  0  0  0  0
    2.0310    6.4790   19.5270 H   0  0  0  0  0  0  0  0  0  0  0  0
    4.5580    7.8120   16.2910 H   0  0  0  0  0  0  0  0  0  0  0  0
    2.8450    8.6260   18.2750 N   0  0  0  0  0  0  0  0  0  0  0  0
    1.6120    9.2280   18.0350 C   0  0  0  0  0  0  0  0  0  0  0  0
    1.6400   10.5770   18.4160 N   0  0  0  0  0  0  0  0  0  0  0  0
    2.5840   11.4600   17.7250 C   0  0  0  0  0  0  0  0  0  0  0  0
    2.6450   12.8290   18.3870 C   0  0  0  0  0  0  0  0  0  0  0  0
    1.3580   13.4540   18.4040 O   0  0  0  0  0  0  0  0  0  0  0  0
    0.3760   12.6100   18.8700 C   0  0  0  0  0  0  0  0  0  0  0  0
   -0.7850   13.2250   19.3360 C   0  0  0  0  0  0  0  0  0  0  0  0
   -1.8180   12.4420   19.8620 C   0  0  0  0  0  0  0  0  0  0  0  0
   -1.6180   11.0710   19.9130 C   0  0  0  0  0  0  0  0  0  0  0  0
   -0.5060   10.4510   19.4570 N   0  0  0  0  0  0  0  0  0  0  0  0
    0.4650   11.2100   18.9000 C   0  0  0  0  0  0  0  0  0  0  0  0
    0.6370    8.6760   17.5340 O   0  0  0  0  0  0  0  0  0  0  0  0
    3.3770    9.0890   18.9940 H   0  0  0  0  0  0  0  0  0  0  0  0
    2.2380   11.5480   16.6840 H   0  0  0  0  0  0  0  0  0  0  0  0
    3.5820   11.0090   17.7060 H   0  0  0  0  0  0  0  0  0  0  0  0
    3.3220   13.4870   17.8250 H   0  0  0  0  0  0  0  0  0  0  0  0
    3.0290   12.7640   19.4150 H   0  0  0  0  0  0  0  0  0  0  0  0
   -0.8760   14.3090   19.2930 H   0  0  0  0  0  0  0  0  0  0  0  0
   -2.3670   10.3990   20.3300 H   0  0  0  0  0  0  0  0  0  0  0  0
   -3.0760   13.0370   20.4100 C   0  0  0  0  0  0  0  0  0  0  0  0
   -3.0550   14.3960   20.4490 F   0  0  0  0  0  0  0  0  0  0  0  0
   -3.3480   12.6360   21.6770 F   0  0  0  0  0  0  0  0  0  0  0  0
   -4.1650   12.7070   19.6690 F   0  0  0  0  0  0  0  0  0  0  0  0
    5.4320    5.3880   15.4530 C   0  0  2  0  0  0  0  0  0  0  0  0
    5.0050    5.8220   14.5370 H   0  0  0  0  0  0  0  0  0  0  0  0
    5.5180    3.8720   15.2230 C   0  0  0  0  0  0  0  0  0  0  0  0
    4.6390    3.5040   14.6820 H   0  0  0  0  0  0  0  0  0  0  0  0
    6.4070    3.5950   14.6450 H   0  0  0  0  0  0  0  0  0  0  0  0
    5.5600    3.3350   16.1810 H   0  0  0  0  0  0  0  0  0  0  0  0
    6.8180    6.0330   15.6820 C   0  0  0  0  0  0  0  0  0  0  0  0
    7.5490    5.5640   15.0110 H   0  0  0  0  0  0  0  0  0  0  0  0
    6.8010    7.0930   15.4130 H   0  0  0  0  0  0  0  0  0  0  0  0
    7.3100    5.8630   17.0790 C   0  0  0  0  0  0  0  0  0  0  0  0
    7.4900    4.7180   17.7080 N   0  0  0  0  0  0  0  0  0  0  0  0
    7.9340    4.9920   18.9780 N   0  0  0  0  0  0  0  0  0  0  0  0
    8.0220    6.2960   19.0970 C   0  0  0  0  0  0  0  0  0  0  0  0
    7.6500    6.8840   17.9290 N   0  0  0  0  0  0  0  0  0  0  0  0
    8.3390    6.8370   19.9800 H   0  0  0  0  0  0  0  0  0  0  0  0
    7.6400    8.2990   17.6680 C   0  0  0  0  0  0  0  0  0  0  0  0
    7.1260    8.7950   18.5010 H   0  0  0  0  0  0  0  0  0  0  0  0
    7.1080    8.5000   16.7330 H   0  0  0  0  0  0  0  0  0  0  0  0
    8.6690    8.6550   17.5860 H   0  0  0  0  0  0  0  0  0  0  0  0
  1  6  2  0  0  0  0
  1  2  1  0  0  0  0
  2  3  2  0  0  0  0
  3  4  1  0  0  0  0
  3  8  1  0  0  0  0
  4  9  1  0  0  0  0
  5 11  1  0  0  0  0
  5  4  2  0  0  0  0
  6  5  1  0  0  0  0
  7  2  1  0  0  0  0
 10  6  1  0  0  0  0
 11 24  1  0  0  0  0
 12 11  1  0  0  0  0
 12 13  1  0  0  0  0
 13 22  1  0  0  0  0
 14 15  1  0  0  0  0
 14 13  1  0  0  0  0
 15 16  1  0  0  0  0
 15 28  1  0  0  0  0
 16 17  1  0  0  0  0
 17 22  2  0  0  0  0
 17 18  1  0  0  0  0
 18 19  2  0  0  0  0
 19 20  1  0  0  0  0
 19 31  1  0  0  0  0
 20 30  1  0  0  0  0
 21 20  2  0  0  0  0
 22 21  1  0  0  0  0
 23 12  2  0  0  0  0
 25 14  1  0  0  0  0
 26 14  1  0  0  0  0
 27 15  1  0  0  0  0
 29 18  1  0  0  0  0
 31 32  1  0  0  0  0
 31 33  1  0  0  0  0
 34 31  1  0  0  0  0
 35 36  1  6  0  0  0
 35 41  1  0  0  0  0
 35  1  1  0  0  0  0
 37 35  1  0  0  0  0
 37 40  1  0  0  0  0
 38 37  1  0  0  0  0
 39 37  1  0  0  0  0
 41 44  1  0  0  0  0
 42 41  1  0  0  0  0
 43 41  1  0  0  0  0
 44 45  2  0  0  0  0
 44 48  1  0  0  0  0
 45 46  1  0  0  0  0
 46 47  2  0  0  0  0
 47 49  1  0  0  0  0
 48 47  1  0  0  0  0
 50 48  1  0  0  0  0
 50 51  1  0  0  0  0
 52 50  1  0  0  0  0
 53 50  1  0  0  0  0
M  END
>  <MODEL>
24

>  <REMARK>
 VINA RESULT:    -7.138      5.237      9.949
 INTER + INTRA:         -10.055
 INTER:                  -9.502
 INTRA:                  -0.552
 UNBOUND:                -0.413
  Name = 
  7 active torsions:
  status: ('A' for Active; 'I' for Inactive)
    1  A    between atoms: C_1  and  C_2
    2  A    between atoms: C_2  and  C_3
    3  A    between atoms: C_2  and  C_10
    4  A    between atoms: C_3  and  C_4
    5  A    between atoms: N_8  and  C_9
    6  A    between atoms: C_14  and  N_16
    7  A    between atoms: C_24  and  C_28
                            x       y       z     vdW  Elec       q    Type
                         _______ _______ _______ _____ _____    ______ ____

>  <TORSDO>
F 7

$$$$
=
 OpenBabel07192307433D

 53 56  0  0  1  0  0  0  0  0999 V2000
   -0.7870   12.4650   19.7510 C   0  0  0  0  0  0  0  0  0  0  0  0
    0.1030   13.5200   19.5050 C   0  0  0  0  0  0  0  0  0  0  0  0
    1.4650   13.2700   19.3260 C   0  0  0  0  0  0  0  0  0  0  0  0
    1.9480   11.9640   19.3850 C   0  0  0  0  0  0  0  0  0  0  0  0
    1.0780   10.8940   19.6200 C   0  0  0  0  0  0  0  0  0  0  0  0
   -0.2840   11.1520   19.8100 C   0  0  0  0  0  0  0  0  0  0  0  0
   -0.2510   14.5450   19.4390 H   0  0  0  0  0  0  0  0  0  0  0  0
    2.1460   14.0930   19.1250 H   0  0  0  0  0  0  0  0  0  0  0  0
    3.0120   11.7970   19.2360 H   0  0  0  0  0  0  0  0  0  0  0  0
   -0.9760   10.3370   20.0100 H   0  0  0  0  0  0  0  0  0  0  0  0
    1.6480    9.6080   19.6680 N   0  0  0  0  0  0  0  0  0  0  0  0
    1.8560    8.7310   18.6060 C   0  0  0  0  0  0  0  0  0  0  0  0
    2.3400    7.5000   19.0700 N   0  0  0  0  0  0  0  0  0  0  0  0
    1.4820    6.7300   19.9760 C   0  0  0  0  0  0  0  0  0  0  0  0
    2.2240    5.5330   20.5540 C   0  0  0  0  0  0  0  0  0  0  0  0
    2.6950    4.6660   19.5170 O   0  0  0  0  0  0  0  0  0  0  0  0
    3.3540    5.3540   18.5240 C   0  0  0  0  0  0  0  0  0  0  0  0
    4.2100    4.5970   17.7250 C   0  0  0  0  0  0  0  0  0  0  0  0
    4.9490    5.2240   16.7160 C   0  0  0  0  0  0  0  0  0  0  0  0
    4.8030    6.5960   16.5770 C   0  0  0  0  0  0  0  0  0  0  0  0
    3.9700    7.3490   17.3320 N   0  0  0  0  0  0  0  0  0  0  0  0
    3.2190    6.7270   18.2690 C   0  0  0  0  0  0  0  0  0  0  0  0
    1.6270    8.9780   17.4260 O   0  0  0  0  0  0  0  0  0  0  0  0
    2.2110    9.3920   20.4750 H   0  0  0  0  0  0  0  0  0  0  0  0
    0.6100    6.4000   19.3900 H   0  0  0  0  0  0  0  0  0  0  0  0
    1.1150    7.3700   20.7860 H   0  0  0  0  0  0  0  0  0  0  0  0
    1.5480    4.9460   21.1910 H   0  0  0  0  0  0  0  0  0  0  0  0
    3.0730    5.8460   21.1770 H   0  0  0  0  0  0  0  0  0  0  0  0
    4.3030    3.5260   17.8970 H   0  0  0  0  0  0  0  0  0  0  0  0
    5.3610    7.1580   15.8300 H   0  0  0  0  0  0  0  0  0  0  0  0
    5.9100    4.4800   15.8450 C   0  0  0  0  0  0  0  0  0  0  0  0
    5.8410    4.8410   14.5370 F   0  0  0  0  0  0  0  0  0  0  0  0
    5.7200    3.1370   15.8680 F   0  0  0  0  0  0  0  0  0  0  0  0
    7.2000    4.6820   16.2160 F   0  0  0  0  0  0  0  0  0  0  0  0
   -2.2820   12.7100   19.9350 C   0  0  2  0  0  0  0  0  0  0  0  0
   -2.5960   13.4860   19.2200 H   0  0  0  0  0  0  0  0  0  0  0  0
   -2.5510   13.2720   21.3390 C   0  0  0  0  0  0  0  0  0  0  0  0
   -1.6260   13.3360   21.9230 H   0  0  0  0  0  0  0  0  0  0  0  0
   -2.9930   14.2740   21.3020 H   0  0  0  0  0  0  0  0  0  0  0  0
   -3.2420   12.6220   21.8930 H   0  0  0  0  0  0  0  0  0  0  0  0
   -3.1010   11.4330   19.6390 C   0  0  0  0  0  0  0  0  0  0  0  0
   -2.4330   10.5630   19.6650 H   0  0  0  0  0  0  0  0  0  0  0  0
   -3.8460   11.2620   20.4210 H   0  0  0  0  0  0  0  0  0  0  0  0
   -3.7560   11.4640   18.3010 C   0  0  0  0  0  0  0  0  0  0  0  0
   -4.8690   12.1010   17.9920 N   0  0  0  0  0  0  0  0  0  0  0  0
   -5.1450   11.8640   16.6690 N   0  0  0  0  0  0  0  0  0  0  0  0
   -4.1930   11.0950   16.1930 C   0  0  0  0  0  0  0  0  0  0  0  0
   -3.2950   10.8250   17.1780 N   0  0  0  0  0  0  0  0  0  0  0  0
   -4.1190   10.7230   15.1800 H   0  0  0  0  0  0  0  0  0  0  0  0
   -2.1020   10.0340   17.0320 C   0  0  0  0  0  0  0  0  0  0  0  0
   -1.7050    9.8300   18.0340 H   0  0  0  0  0  0  0  0  0  0  0  0
   -1.3610   10.5850   16.4440 H   0  0  0  0  0  0  0  0  0  0  0  0
   -2.3520    9.1010   16.5210 H   0  0  0  0  0  0  0  0  0  0  0  0
  1  6  1  0  0  0  0
  1 35  1  0  0  0  0
  2  1  2  0  0  0  0
  3  4  2  0  0  0  0
  3  2  1  0  0  0  0
  4  5  1  0  0  0  0
  5 11  1  0  0  0  0
  5  6  2  0  0  0  0
  6 10  1  0  0  0  0
  7  2  1  0  0  0  0
  8  3  1  0  0  0  0
  9  4  1  0  0  0  0
 11 24  1  0  0  0  0
 12 13  1  0  0  0  0
 12 11  1  0  0  0  0
 13 14  1  0  0  0  0
 14 15  1  0  0  0  0
 14 26  1  0  0  0  0
 15 28  1  0  0  0  0
 15 27  1  0  0  0  0
 16 15  1  0  0  0  0
 17 16  1  0  0  0  0
 18 29  1  0  0  0  0
 18 17  2  0  0  0  0
 19 18  1  0  0  0  0
 20 19  2  0  0  0  0
 20 21  1  0  0  0  0
 21 22  2  0  0  0  0
 22 17  1  0  0  0  0
 22 13  1  0  0  0  0
 23 12  2  0  0  0  0
 25 14  1  0  0  0  0
 30 20  1  0  0  0  0
 31 33  1  0  0  0  0
 31 34  1  0  0  0  0
 31 19  1  0  0  0  0
 32 31  1  0  0  0  0
 35 36  1  6  0  0  0
 35 37  1  0  0  0  0
 37 40  1  0  0  0  0
 37 38  1  0  0  0  0
 39 37  1  0  0  0  0
 41 42  1  0  0  0  0
 41 35  1  0  0  0  0
 41 43  1  0  0  0  0
 44 41  1  0  0  0  0
 45 44  2  0  0  0  0
 46 45  1  0  0  0  0
 47 46  2  0  0  0  0
 47 48  1  0  0  0  0
 48 44  1  0  0  0  0
 49 47  1  0  0  0  0
 50 48  1  0  0  0  0
 50 51  1  0  0  0  0
 52 50  1  0  0  0  0
 53 50  1  0  0  0  0
M  END
>  <MODEL>
25

>  <REMARK>
 VINA RESULT:    -7.055      1.541      2.212
 INTER + INTRA:          -9.943
 INTER:                  -8.996
 INTRA:                  -0.946
 UNBOUND:                -0.413
  Name = 
  7 active torsions:
  status: ('A' for Active; 'I' for Inactive)
    1  A    between atoms: C_1  and  C_2
    2  A    between atoms: C_2  and  C_3
    3  A    between atoms: C_2  and  C_10
    4  A    between atoms: C_3  and  C_4
    5  A    between atoms: N_8  and  C_9
    6  A    between atoms: C_14  and  N_16
    7  A    between atoms: C_24  and  C_28
                            x       y       z     vdW  Elec       q    Type
                         _______ _______ _______ _____ _____    ______ ____

>  <TORSDO>
F 7

$$$$
=
 OpenBabel07192307433D

 53 56  0  0  1  0  0  0  0  0999 V2000
    0.3750    9.7470   19.4810 C   0  0  0  0  0  0  0  0  0  0  0  0
   -0.1560    9.2260   20.6700 C   0  0  0  0  0  0  0  0  0  0  0  0
    0.4570    8.1440   21.3030 C   0  0  0  0  0  0  0  0  0  0  0  0
    1.6090    7.5770   20.7590 C   0  0  0  0  0  0  0  0  0  0  0  0
    2.1620    8.0860   19.5800 C   0  0  0  0  0  0  0  0  0  0  0  0
    1.5370    9.1630   18.9430 C   0  0  0  0  0  0  0  0  0  0  0  0
   -1.0440    9.6590   21.1220 H   0  0  0  0  0  0  0  0  0  0  0  0
    0.0450    7.7530   22.2300 H   0  0  0  0  0  0  0  0  0  0  0  0
    2.0700    6.7390   21.2780 H   0  0  0  0  0  0  0  0  0  0  0  0
    1.9410    9.5650   18.0160 H   0  0  0  0  0  0  0  0  0  0  0  0
    3.3230    7.4540   19.0960 N   0  0  0  0  0  0  0  0  0  0  0  0
    3.4020    6.3980   18.1920 C   0  0  0  0  0  0  0  0  0  0  0  0
    4.7290    5.9700   18.0470 N   0  0  0  0  0  0  0  0  0  0  0  0
    5.4080    5.4440   19.2350 C   0  0  0  0  0  0  0  0  0  0  0  0
    6.8900    5.2220   18.9710 C   0  0  0  0  0  0  0  0  0  0  0  0
    7.0910    4.3130   17.8840 O   0  0  0  0  0  0  0  0  0  0  0  0
    6.3330    4.6400   16.7840 C   0  0  0  0  0  0  0  0  0  0  0  0
    6.7650    4.1130   15.5680 C   0  0  0  0  0  0  0  0  0  0  0  0
    6.0720    4.4270   14.3940 C   0  0  0  0  0  0  0  0  0  0  0  0
    4.9840    5.2800   14.5030 C   0  0  0  0  0  0  0  0  0  0  0  0
    4.5390    5.7930   15.6730 N   0  0  0  0  0  0  0  0  0  0  0  0
    5.1810    5.4410   16.8100 C   0  0  0  0  0  0  0  0  0  0  0  0
    2.4480    5.8840   17.6150 O   0  0  0  0  0  0  0  0  0  0  0  0
    4.1860    7.9680   19.1790 H   0  0  0  0  0  0  0  0  0  0  0  0
    4.9140    4.4960   19.4940 H   0  0  0  0  0  0  0  0  0  0  0  0
    5.2770    6.1290   20.0810 H   0  0  0  0  0  0  0  0  0  0  0  0
    7.3670    4.7850   19.8580 H   0  0  0  0  0  0  0  0  0  0  0  0
    7.4080    6.1670   18.7520 H   0  0  0  0  0  0  0  0  0  0  0  0
    7.6410    3.4680   15.5400 H   0  0  0  0  0  0  0  0  0  0  0  0
    4.4090    5.5880   13.6310 H   0  0  0  0  0  0  0  0  0  0  0  0
    6.5000    3.9250   13.0510 C   0  0  0  0  0  0  0  0  0  0  0  0
    6.8790    2.6200   13.0620 F   0  0  0  0  0  0  0  0  0  0  0  0
    7.5510    4.6110   12.5360 F   0  0  0  0  0  0  0  0  0  0  0  0
    5.5060    4.0140   12.1300 F   0  0  0  0  0  0  0  0  0  0  0  0
   -0.2680   10.9390   18.7760 C   0  0  2  0  0  0  0  0  0  0  0  0
   -0.1050   10.8290   17.6930 H   0  0  0  0  0  0  0  0  0  0  0  0
    0.4350   12.2370   19.1980 C   0  0  0  0  0  0  0  0  0  0  0  0
    0.0470   13.0970   18.6400 H   0  0  0  0  0  0  0  0  0  0  0  0
    0.3050   12.4450   20.2660 H   0  0  0  0  0  0  0  0  0  0  0  0
    1.5140   12.1790   18.9980 H   0  0  0  0  0  0  0  0  0  0  0  0
   -1.7930   10.9820   19.0240 C   0  0  0  0  0  0  0  0  0  0  0  0
   -2.0830   10.1190   19.6370 H   0  0  0  0  0  0  0  0  0  0  0  0
   -2.0650   11.8680   19.6050 H   0  0  0  0  0  0  0  0  0  0  0  0
   -2.5840   10.9290   17.7620 C   0  0  0  0  0  0  0  0  0  0  0  0
   -2.1670   10.4670   16.6000 N   0  0  0  0  0  0  0  0  0  0  0  0
   -3.1860   10.6110   15.6910 N   0  0  0  0  0  0  0  0  0  0  0  0
   -4.2060   11.1520   16.3160 C   0  0  0  0  0  0  0  0  0  0  0  0
   -3.8780   11.3610   17.6190 N   0  0  0  0  0  0  0  0  0  0  0  0
   -5.1640   11.4000   15.8790 H   0  0  0  0  0  0  0  0  0  0  0  0
   -4.7470   11.9150   18.6240 C   0  0  0  0  0  0  0  0  0  0  0  0
   -5.7680   11.9220   18.2230 H   0  0  0  0  0  0  0  0  0  0  0  0
   -4.4340   12.9360   18.8620 H   0  0  0  0  0  0  0  0  0  0  0  0
   -4.6930   11.2970   19.5240 H   0  0  0  0  0  0  0  0  0  0  0  0
  1  2  1  0  0  0  0
  2  7  1  0  0  0  0
  2  3  2  0  0  0  0
  3  8  1  0  0  0  0
  4  9  1  0  0  0  0
  4  3  1  0  0  0  0
  5  4  2  0  0  0  0
  6  1  2  0  0  0  0
  6  5  1  0  0  0  0
 10  6  1  0  0  0  0
 11 24  1  0  0  0  0
 11  5  1  0  0  0  0
 12 11  1  0  0  0  0
 13 12  1  0  0  0  0
 13 14  1  0  0  0  0
 14 25  1  0  0  0  0
 14 26  1  0  0  0  0
 15 14  1  0  0  0  0
 15 27  1  0  0  0  0
 16 15  1  0  0  0  0
 17 22  1  0  0  0  0
 17 16  1  0  0  0  0
 18 17  2  0  0  0  0
 19 20  2  0  0  0  0
 19 18  1  0  0  0  0
 20 21  1  0  0  0  0
 21 22  2  0  0  0  0
 22 13  1  0  0  0  0
 23 12  2  0  0  0  0
 28 15  1  0  0  0  0
 29 18  1  0  0  0  0
 30 20  1  0  0  0  0
 31 32  1  0  0  0  0
 31 19  1  0  0  0  0
 33 31  1  0  0  0  0
 34 31  1  0  0  0  0
 35 36  1  6  0  0  0
 35 41  1  0  0  0  0
 35 37  1  0  0  0  0
 35  1  1  0  0  0  0
 37 39  1  0  0  0  0
 38 37  1  0  0  0  0
 40 37  1  0  0  0  0
 41 43  1  0  0  0  0
 41 42  1  0  0  0  0
 44 41  1  0  0  0  0
 45 44  2  0  0  0  0
 46 47  2  0  0  0  0
 46 45  1  0  0  0  0
 47 48  1  0  0  0  0
 48 44  1  0  0  0  0
 48 50  1  0  0  0  0
 49 47  1  0  0  0  0
 50 52  1  0  0  0  0
 50 53  1  0  0  0  0
 51 50  1  0  0  0  0
M  END
>  <MODEL>
26

>  <REMARK>
 VINA RESULT:    -7.021      1.961      2.762
 INTER + INTRA:          -9.897
 INTER:                  -9.116
 INTRA:                  -0.781
 UNBOUND:                -0.413
  Name = 
  7 active torsions:
  status: ('A' for Active; 'I' for Inactive)
    1  A    between atoms: C_1  and  C_2
    2  A    between atoms: C_2  and  C_3
    3  A    between atoms: C_2  and  C_10
    4  A    between atoms: C_3  and  C_4
    5  A    between atoms: N_8  and  C_9
    6  A    between atoms: C_14  and  N_16
    7  A    between atoms: C_24  and  C_28
                            x       y       z     vdW  Elec       q    Type
                         _______ _______ _______ _____ _____    ______ ____

>  <TORSDO>
F 7

$$$$
=
 OpenBabel07192307433D

 53 56  0  0  1  0  0  0  0  0999 V2000
    2.3000    6.6220   19.1530 C   0  0  0  0  0  0  0  0  0  0  0  0
    2.4880    6.8520   17.7830 C   0  0  0  0  0  0  0  0  0  0  0  0
    2.3460    8.1360   17.2540 C   0  0  0  0  0  0  0  0  0  0  0  0
    2.0200    9.2020   18.0910 C   0  0  0  0  0  0  0  0  0  0  0  0
    1.8370    9.0000   19.4620 C   0  0  0  0  0  0  0  0  0  0  0  0
    1.9700    7.7090   19.9850 C   0  0  0  0  0  0  0  0  0  0  0  0
    2.7580    6.0400   17.1130 H   0  0  0  0  0  0  0  0  0  0  0  0
    2.5040    8.3060   16.1920 H   0  0  0  0  0  0  0  0  0  0  0  0
    1.9220   10.1940   17.6540 H   0  0  0  0  0  0  0  0  0  0  0  0
    1.8160    7.5250   21.0450 H   0  0  0  0  0  0  0  0  0  0  0  0
    1.5070   10.1290   20.2350 N   0  0  0  0  0  0  0  0  0  0  0  0
    0.2450   10.6860   20.4310 C   0  0  0  0  0  0  0  0  0  0  0  0
    0.3390   11.8730   21.1710 N   0  0  0  0  0  0  0  0  0  0  0  0
    1.1050   12.9790   20.5880 C   0  0  0  0  0  0  0  0  0  0  0  0
    1.2910   14.1090   21.5900 C   0  0  0  0  0  0  0  0  0  0  0  0
    0.0300   14.6110   22.0440 O   0  0  0  0  0  0  0  0  0  0  0  0
   -0.8210   13.6030   22.4340 C   0  0  0  0  0  0  0  0  0  0  0  0
   -1.8640   13.9800   23.2800 C   0  0  0  0  0  0  0  0  0  0  0  0
   -2.7530   13.0090   23.7540 C   0  0  0  0  0  0  0  0  0  0  0  0
   -2.5320   11.6960   23.3670 C   0  0  0  0  0  0  0  0  0  0  0  0
   -1.5360   11.3090   22.5390 N   0  0  0  0  0  0  0  0  0  0  0  0
   -0.7130   12.2600   22.0410 C   0  0  0  0  0  0  0  0  0  0  0  0
   -0.8080   10.2280   19.9980 O   0  0  0  0  0  0  0  0  0  0  0  0
    2.1750   10.4090   20.9360 H   0  0  0  0  0  0  0  0  0  0  0  0
    0.5450   13.3290   19.7080 H   0  0  0  0  0  0  0  0  0  0  0  0
    2.0810   12.6220   20.2410 H   0  0  0  0  0  0  0  0  0  0  0  0
    1.8260   14.9440   21.1180 H   0  0  0  0  0  0  0  0  0  0  0  0
    1.8850   13.7870   22.4570 H   0  0  0  0  0  0  0  0  0  0  0  0
   -1.9730   15.0230   23.5690 H   0  0  0  0  0  0  0  0  0  0  0  0
   -3.1680   10.8830   23.7140 H   0  0  0  0  0  0  0  0  0  0  0  0
   -3.8730   13.3380   24.6910 C   0  0  0  0  0  0  0  0  0  0  0  0
   -4.4580   12.2380   25.2340 F   0  0  0  0  0  0  0  0  0  0  0  0
   -4.8740   14.0350   24.0990 F   0  0  0  0  0  0  0  0  0  0  0  0
   -3.4580   14.0920   25.7400 F   0  0  0  0  0  0  0  0  0  0  0  0
    2.4640    5.2310   19.7580 C   0  0  2  0  0  0  0  0  0  0  0  0
    2.0100    4.5000   19.0720 H   0  0  0  0  0  0  0  0  0  0  0  0
    1.6850    5.1390   21.0780 C   0  0  0  0  0  0  0  0  0  0  0  0
    1.0820    6.0390   21.2450 H   0  0  0  0  0  0  0  0  0  0  0  0
    1.0090    4.2770   21.0950 H   0  0  0  0  0  0  0  0  0  0  0  0
    2.3710    5.0440   21.9300 H   0  0  0  0  0  0  0  0  0  0  0  0
    3.9570    4.8630   19.9230 C   0  0  0  0  0  0  0  0  0  0  0  0
    4.4950    5.7220   20.3430 H   0  0  0  0  0  0  0  0  0  0  0  0
    4.0770    4.0510   20.6460 H   0  0  0  0  0  0  0  0  0  0  0  0
    4.6090    4.5040   18.6320 C   0  0  0  0  0  0  0  0  0  0  0  0
    4.0620    3.8220   17.6460 N   0  0  0  0  0  0  0  0  0  0  0  0
    4.9940    3.6890   16.6470 N   0  0  0  0  0  0  0  0  0  0  0  0
    6.0890    4.2970   17.0400 C   0  0  0  0  0  0  0  0  0  0  0  0
    5.8930    4.8310   18.2750 N   0  0  0  0  0  0  0  0  0  0  0  0
    7.0140    4.3710   16.4820 H   0  0  0  0  0  0  0  0  0  0  0  0
    6.8570    5.5930   19.0230 C   0  0  0  0  0  0  0  0  0  0  0  0
    6.6290    5.4750   20.0900 H   0  0  0  0  0  0  0  0  0  0  0  0
    6.7910    6.6500   18.7440 H   0  0  0  0  0  0  0  0  0  0  0  0
    7.8590    5.2190   18.8010 H   0  0  0  0  0  0  0  0  0  0  0  0
  1 35  1  0  0  0  0
  1  6  1  0  0  0  0
  2  1  2  0  0  0  0
  3  2  1  0  0  0  0
  3  4  2  0  0  0  0
  4  5  1  0  0  0  0
  5  6  2  0  0  0  0
  5 11  1  0  0  0  0
  6 10  1  0  0  0  0
  7  2  1  0  0  0  0
  8  3  1  0  0  0  0
  9  4  1  0  0  0  0
 11 12  1  0  0  0  0
 11 24  1  0  0  0  0
 12 13  1  0  0  0  0
 13 22  1  0  0  0  0
 14 13  1  0  0  0  0
 14 15  1  0  0  0  0
 15 16  1  0  0  0  0
 15 28  1  0  0  0  0
 16 17  1  0  0  0  0
 17 18  1  0  0  0  0
 18 29  1  0  0  0  0
 18 19  2  0  0  0  0
 19 31  1  0  0  0  0
 20 30  1  0  0  0  0
 20 19  1  0  0  0  0
 21 20  2  0  0  0  0
 22 17  2  0  0  0  0
 22 21  1  0  0  0  0
 23 12  2  0  0  0  0
 25 14  1  0  0  0  0
 26 14  1  0  0  0  0
 27 15  1  0  0  0  0
 31 32  1  0  0  0  0
 31 34  1  0  0  0  0
 33 31  1  0  0  0  0
 35 36  1  6  0  0  0
 35 41  1  0  0  0  0
 35 37  1  0  0  0  0
 37 39  1  0  0  0  0
 37 38  1  0  0  0  0
 37 40  1  0  0  0  0
 41 42  1  0  0  0  0
 41 43  1  0  0  0  0
 44 41  1  0  0  0  0
 45 44  2  0  0  0  0
 46 47  2  0  0  0  0
 46 45  1  0  0  0  0
 47 48  1  0  0  0  0
 48 44  1  0  0  0  0
 48 50  1  0  0  0  0
 49 47  1  0  0  0  0
 50 51  1  0  0  0  0
 52 50  1  0  0  0  0
 53 50  1  0  0  0  0
M  END
>  <MODEL>
27

>  <REMARK>
 VINA RESULT:    -6.927      6.132     10.317
 INTER + INTRA:          -9.769
 INTER:                  -9.250
 INTRA:                  -0.519
 UNBOUND:                -0.413
  Name = 
  7 active torsions:
  status: ('A' for Active; 'I' for Inactive)
    1  A    between atoms: C_1  and  C_2
    2  A    between atoms: C_2  and  C_3
    3  A    between atoms: C_2  and  C_10
    4  A    between atoms: C_3  and  C_4
    5  A    between atoms: N_8  and  C_9
    6  A    between atoms: C_14  and  N_16
    7  A    between atoms: C_24  and  C_28
                            x       y       z     vdW  Elec       q    Type
                         _______ _______ _______ _____ _____    ______ ____

>  <TORSDO>
F 7

$$$$
=
 OpenBabel07192307433D

 53 56  0  0  1  0  0  0  0  0999 V2000
    3.3570    5.5490   17.6820 C   0  0  0  0  0  0  0  0  0  0  0  0
    4.0760    6.4270   16.8580 C   0  0  0  0  0  0  0  0  0  0  0  0
    3.9180    7.8080   16.9870 C   0  0  0  0  0  0  0  0  0  0  0  0
    3.0470    8.3240   17.9440 C   0  0  0  0  0  0  0  0  0  0  0  0
    2.3260    7.4690   18.7840 C   0  0  0  0  0  0  0  0  0  0  0  0
    2.4790    6.0860   18.6430 C   0  0  0  0  0  0  0  0  0  0  0  0
    4.7730    6.0500   16.1140 H   0  0  0  0  0  0  0  0  0  0  0  0
    4.4870    8.4810   16.3510 H   0  0  0  0  0  0  0  0  0  0  0  0
    2.9480    9.4040   18.0280 H   0  0  0  0  0  0  0  0  0  0  0  0
    1.9170    5.4020   19.2750 H   0  0  0  0  0  0  0  0  0  0  0  0
    1.4650    8.0720   19.7210 N   0  0  0  0  0  0  0  0  0  0  0  0
    1.1290    9.4190   19.8220 C   0  0  0  0  0  0  0  0  0  0  0  0
    0.3350    9.6460   20.9550 N   0  0  0  0  0  0  0  0  0  0  0  0
    0.9210    9.3500   22.2660 C   0  0  0  0  0  0  0  0  0  0  0  0
   -0.1220    9.4450   23.3710 C   0  0  0  0  0  0  0  0  0  0  0  0
   -0.7120   10.7480   23.4140 O   0  0  0  0  0  0  0  0  0  0  0  0
   -1.1200   11.1750   22.1710 C   0  0  0  0  0  0  0  0  0  0  0  0
   -2.0740   12.1920   22.1600 C   0  0  0  0  0  0  0  0  0  0  0  0
   -2.5710   12.6600   20.9380 C   0  0  0  0  0  0  0  0  0  0  0  0
   -2.0940   12.0600   19.7830 C   0  0  0  0  0  0  0  0  0  0  0  0
   -1.1600   11.0810   19.7690 N   0  0  0  0  0  0  0  0  0  0  0  0
   -0.6450   10.6730   20.9500 C   0  0  0  0  0  0  0  0  0  0  0  0
    1.4900   10.3010   19.0490 O   0  0  0  0  0  0  0  0  0  0  0  0
    0.8130    7.4650   20.1920 H   0  0  0  0  0  0  0  0  0  0  0  0
    1.7280   10.0810   22.4300 H   0  0  0  0  0  0  0  0  0  0  0  0
    1.3730    8.3520   22.2620 H   0  0  0  0  0  0  0  0  0  0  0  0
    0.3490    9.2650   24.3460 H   0  0  0  0  0  0  0  0  0  0  0  0
   -0.9140    8.6930   23.2450 H   0  0  0  0  0  0  0  0  0  0  0  0
   -2.4300   12.6090   23.1010 H   0  0  0  0  0  0  0  0  0  0  0  0
   -2.4500   12.3540   18.7970 H   0  0  0  0  0  0  0  0  0  0  0  0
   -3.6190   13.7230   20.8540 C   0  0  0  0  0  0  0  0  0  0  0  0
   -3.1250   14.9380   20.4960 F   0  0  0  0  0  0  0  0  0  0  0  0
   -4.2730   13.9210   22.0260 F   0  0  0  0  0  0  0  0  0  0  0  0
   -4.5760   13.4290   19.9370 F   0  0  0  0  0  0  0  0  0  0  0  0
    3.5230    4.0360   17.5710 C   0  0  2  0  0  0  0  0  0  0  0  0
    3.8030    3.7940   16.5350 H   0  0  0  0  0  0  0  0  0  0  0  0
    2.1780    3.3430   17.8370 C   0  0  0  0  0  0  0  0  0  0  0  0
    2.2350    2.6950   18.7190 H   0  0  0  0  0  0  0  0  0  0  0  0
    1.3710    4.0650   18.0040 H   0  0  0  0  0  0  0  0  0  0  0  0
    1.8920    2.7100   16.9860 H   0  0  0  0  0  0  0  0  0  0  0  0
    4.6480    3.5250   18.4990 C   0  0  0  0  0  0  0  0  0  0  0  0
    4.2640    3.4500   19.5240 H   0  0  0  0  0  0  0  0  0  0  0  0
    4.9510    2.5120   18.2170 H   0  0  0  0  0  0  0  0  0  0  0  0
    5.8320    4.4290   18.5220 C   0  0  0  0  0  0  0  0  0  0  0  0
    6.2160    5.1850   19.5320 N   0  0  0  0  0  0  0  0  0  0  0  0
    7.3360    5.8790   19.1470 N   0  0  0  0  0  0  0  0  0  0  0  0
    7.6190    5.5280   17.9140 C   0  0  0  0  0  0  0  0  0  0  0  0
    6.7090    4.6150   17.4830 N   0  0  0  0  0  0  0  0  0  0  0  0
    8.4430    5.8990   17.3180 H   0  0  0  0  0  0  0  0  0  0  0  0
    6.7040    3.9800   16.1920 C   0  0  0  0  0  0  0  0  0  0  0  0
    7.7270    3.6470   15.9740 H   0  0  0  0  0  0  0  0  0  0  0  0
    6.3760    4.6920   15.4290 H   0  0  0  0  0  0  0  0  0  0  0  0
    6.0210    3.1280   16.2150 H   0  0  0  0  0  0  0  0  0  0  0  0
  1  6  1  0  0  0  0
  2  3  1  0  0  0  0
  2  1  2  0  0  0  0
  3  4  2  0  0  0  0
  4  9  1  0  0  0  0
  4  5  1  0  0  0  0
  5 11  1  0  0  0  0
  6  5  2  0  0  0  0
  6 10  1  0  0  0  0
  7  2  1  0  0  0  0
  8  3  1  0  0  0  0
 11 12  1  0  0  0  0
 11 24  1  0  0  0  0
 12 13  1  0  0  0  0
 13 14  1  0  0  0  0
 14 25  1  0  0  0  0
 14 15  1  0  0  0  0
 15 16  1  0  0  0  0
 15 27  1  0  0  0  0
 17 16  1  0  0  0  0
 18 17  1  0  0  0  0
 18 29  1  0  0  0  0
 19 18  2  0  0  0  0
 20 19  1  0  0  0  0
 21 20  2  0  0  0  0
 21 22  1  0  0  0  0
 22 13  1  0  0  0  0
 22 17  2  0  0  0  0
 23 12  2  0  0  0  0
 26 14  1  0  0  0  0
 28 15  1  0  0  0  0
 30 20  1  0  0  0  0
 31 19  1  0  0  0  0
 31 33  1  0  0  0  0
 32 31  1  0  0  0  0
 34 31  1  0  0  0  0
 35 36  1  6  0  0  0
 35  1  1  0  0  0  0
 35 37  1  0  0  0  0
 35 41  1  0  0  0  0
 37 39  1  0  0  0  0
 37 38  1  0  0  0  0
 40 37  1  0  0  0  0
 41 44  1  0  0  0  0
 41 42  1  0  0  0  0
 43 41  1  0  0  0  0
 44 45  2  0  0  0  0
 46 45  1  0  0  0  0
 47 46  2  0  0  0  0
 48 47  1  0  0  0  0
 48 44  1  0  0  0  0
 49 47  1  0  0  0  0
 50 53  1  0  0  0  0
 50 48  1  0  0  0  0
 51 50  1  0  0  0  0
 52 50  1  0  0  0  0
M  END
>  <MODEL>
28

>  <REMARK>
 VINA RESULT:    -6.760      5.355      9.864
 INTER + INTRA:          -9.544
 INTER:                  -9.854
 INTRA:                   0.310
 UNBOUND:                -0.413
  Name = 
  7 active torsions:
  status: ('A' for Active; 'I' for Inactive)
    1  A    between atoms: C_1  and  C_2
    2  A    between atoms: C_2  and  C_3
    3  A    between atoms: C_2  and  C_10
    4  A    between atoms: C_3  and  C_4
    5  A    between atoms: N_8  and  C_9
    6  A    between atoms: C_14  and  N_16
    7  A    between atoms: C_24  and  C_28
                            x       y       z     vdW  Elec       q    Type
                         _______ _______ _______ _____ _____    ______ ____

>  <TORSDO>
F 7

$$$$
=
 OpenBabel07192307433D

 53 56  0  0  1  0  0  0  0  0999 V2000
   -0.6440   11.6220   20.9200 C   0  0  0  0  0  0  0  0  0  0  0  0
   -1.2420   11.8710   19.6760 C   0  0  0  0  0  0  0  0  0  0  0  0
   -0.9960   11.0290   18.5910 C   0  0  0  0  0  0  0  0  0  0  0  0
   -0.1550    9.9270   18.7390 C   0  0  0  0  0  0  0  0  0  0  0  0
    0.4460    9.6520   19.9720 C   0  0  0  0  0  0  0  0  0  0  0  0
    0.2040   10.5060   21.0540 C   0  0  0  0  0  0  0  0  0  0  0  0
   -1.9130   12.7150   19.5390 H   0  0  0  0  0  0  0  0  0  0  0  0
   -1.4720   11.2240   17.6340 H   0  0  0  0  0  0  0  0  0  0  0  0
    0.0140    9.2840   17.8790 H   0  0  0  0  0  0  0  0  0  0  0  0
    0.6730   10.3210   22.0170 H   0  0  0  0  0  0  0  0  0  0  0  0
    1.2830    8.5220   20.0360 N   0  0  0  0  0  0  0  0  0  0  0  0
    1.7550    7.7540   18.9740 C   0  0  0  0  0  0  0  0  0  0  0  0
    2.4680    6.6430   19.4480 N   0  0  0  0  0  0  0  0  0  0  0  0
    1.7420    5.6690   20.2690 C   0  0  0  0  0  0  0  0  0  0  0  0
    2.6900    4.6450   20.8770 C   0  0  0  0  0  0  0  0  0  0  0  0
    3.4130    3.9430   19.8600 O   0  0  0  0  0  0  0  0  0  0  0  0
    3.9710    4.7960   18.9360 C   0  0  0  0  0  0  0  0  0  0  0  0
    5.0280    4.2770   18.1890 C   0  0  0  0  0  0  0  0  0  0  0  0
    5.6760    5.0900   17.2530 C   0  0  0  0  0  0  0  0  0  0  0  0
    5.2380    6.4000   17.1320 C   0  0  0  0  0  0  0  0  0  0  0  0
    4.2080    6.9210   17.8360 N   0  0  0  0  0  0  0  0  0  0  0  0
    3.5510    6.1140   18.7000 C   0  0  0  0  0  0  0  0  0  0  0  0
    1.5600    7.9880   17.7860 O   0  0  0  0  0  0  0  0  0  0  0  0
    1.8230    8.4060   20.8790 H   0  0  0  0  0  0  0  0  0  0  0  0
    1.0090    5.1780   19.6120 H   0  0  0  0  0  0  0  0  0  0  0  0
    1.1860    6.1810   21.0630 H   0  0  0  0  0  0  0  0  0  0  0  0
    2.1200    3.9000   21.4480 H   0  0  0  0  0  0  0  0  0  0  0  0
    3.4030    5.1140   21.5690 H   0  0  0  0  0  0  0  0  0  0  0  0
    5.3440    3.2480   18.3440 H   0  0  0  0  0  0  0  0  0  0  0  0
    5.7080    7.0990   16.4410 H   0  0  0  0  0  0  0  0  0  0  0  0
    6.8380    4.6100   16.4420 C   0  0  0  0  0  0  0  0  0  0  0  0
    7.3040    5.5400   15.5670 F   0  0  0  0  0  0  0  0  0  0  0  0
    6.5500    3.5130   15.6970 F   0  0  0  0  0  0  0  0  0  0  0  0
    7.8990    4.2690   17.2180 F   0  0  0  0  0  0  0  0  0  0  0  0
   -0.9080   12.5180   22.1260 C   0  0  2  0  0  0  0  0  0  0  0  0
   -0.7050   11.9390   23.0390 H   0  0  0  0  0  0  0  0  0  0  0  0
   -2.3940   12.9070   22.1730 C   0  0  0  0  0  0  0  0  0  0  0  0
   -2.5970   13.5910   23.0040 H   0  0  0  0  0  0  0  0  0  0  0  0
   -2.7180   13.3980   21.2490 H   0  0  0  0  0  0  0  0  0  0  0  0
   -3.0240   12.0190   22.3200 H   0  0  0  0  0  0  0  0  0  0  0  0
    0.0270   13.7490   22.1270 C   0  0  0  0  0  0  0  0  0  0  0  0
   -0.4350   14.5520   22.7150 H   0  0  0  0  0  0  0  0  0  0  0  0
    0.9720   13.5160   22.6270 H   0  0  0  0  0  0  0  0  0  0  0  0
    0.2860   14.2780   20.7580 C   0  0  0  0  0  0  0  0  0  0  0  0
   -0.5470   14.9960   20.0300 N   0  0  0  0  0  0  0  0  0  0  0  0
    0.0590   15.2670   18.8280 N   0  0  0  0  0  0  0  0  0  0  0  0
    1.2500   14.7170   18.8490 C   0  0  0  0  0  0  0  0  0  0  0  0
    1.4400   14.0930   20.0410 N   0  0  0  0  0  0  0  0  0  0  0  0
    1.9790   14.7440   18.0490 H   0  0  0  0  0  0  0  0  0  0  0  0
    2.6350   13.3980   20.4440 C   0  0  0  0  0  0  0  0  0  0  0  0
    3.3420   13.4240   19.6060 H   0  0  0  0  0  0  0  0  0  0  0  0
    2.3940   12.3600   20.6930 H   0  0  0  0  0  0  0  0  0  0  0  0
    3.0600   13.8950   21.3190 H   0  0  0  0  0  0  0  0  0  0  0  0
  1  6  1  0  0  0  0
  1 35  1  0  0  0  0
  2  1  2  0  0  0  0
  3  4  2  0  0  0  0
  3  2  1  0  0  0  0
  4  5  1  0  0  0  0
  5 11  1  0  0  0  0
  5  6  2  0  0  0  0
  6 10  1  0  0  0  0
  7  2  1  0  0  0  0
  8  3  1  0  0  0  0
  9  4  1  0  0  0  0
 11 24  1  0  0  0  0
 12 13  1  0  0  0  0
 12 11  1  0  0  0  0
 13 14  1  0  0  0  0
 14 15  1  0  0  0  0
 14 26  1  0  0  0  0
 15 27  1  0  0  0  0
 15 28  1  0  0  0  0
 16 15  1  0  0  0  0
 17 16  1  0  0  0  0
 18 29  1  0  0  0  0
 18 17  2  0  0  0  0
 19 18  1  0  0  0  0
 20 19  2  0  0  0  0
 20 21  1  0  0  0  0
 21 22  2  0  0  0  0
 22 17  1  0  0  0  0
 22 13  1  0  0  0  0
 23 12  2  0  0  0  0
 25 14  1  0  0  0  0
 30 20  1  0  0  0  0
 31 34  1  0  0  0  0
 31 19  1  0  0  0  0
 32 31  1  0  0  0  0
 33 31  1  0  0  0  0
 35 41  1  0  0  0  0
 35 37  1  0  0  0  0
 35 36  1  1  0  0  0
 37 40  1  0  0  0  0
 37 38  1  0  0  0  0
 39 37  1  0  0  0  0
 41 43  1  0  0  0  0
 41 42  1  0  0  0  0
 44 41  1  0  0  0  0
 45 44  2  0  0  0  0
 46 47  2  0  0  0  0
 46 45  1  0  0  0  0
 47 48  1  0  0  0  0
 48 50  1  0  0  0  0
 48 44  1  0  0  0  0
 49 47  1  0  0  0  0
 50 52  1  0  0  0  0
 50 53  1  0  0  0  0
 51 50  1  0  0  0  0
M  END
>  <MODEL>
29

>  <REMARK>
 VINA RESULT:    -6.751      2.224      3.409
 INTER + INTRA:          -9.532
 INTER:                  -9.843
 INTRA:                   0.311
 UNBOUND:                -0.413
  Name = 
  7 active torsions:
  status: ('A' for Active; 'I' for Inactive)
    1  A    between atoms: C_1  and  C_2
    2  A    between atoms: C_2  and  C_3
    3  A    between atoms: C_2  and  C_10
    4  A    between atoms: C_3  and  C_4
    5  A    between atoms: N_8  and  C_9
    6  A    between atoms: C_14  and  N_16
    7  A    between atoms: C_24  and  C_28
                            x       y       z     vdW  Elec       q    Type
                         _______ _______ _______ _____ _____    ______ ____

>  <TORSDO>
F 7

$$$$
=
 OpenBabel07192307433D

 53 56  0  0  1  0  0  0  0  0999 V2000
    4.2000    4.5620   17.1920 C   0  0  0  0  0  0  0  0  0  0  0  0
    5.0210    4.6620   16.0590 C   0  0  0  0  0  0  0  0  0  0  0  0
    5.3300    5.9100   15.5170 C   0  0  0  0  0  0  0  0  0  0  0  0
    4.8280    7.0700   16.1050 C   0  0  0  0  0  0  0  0  0  0  0  0
    4.0140    6.9960   17.2400 C   0  0  0  0  0  0  0  0  0  0  0  0
    3.6980    5.7420   17.7730 C   0  0  0  0  0  0  0  0  0  0  0  0
    5.4370    3.7740   15.5920 H   0  0  0  0  0  0  0  0  0  0  0  0
    5.9760    5.9780   14.6460 H   0  0  0  0  0  0  0  0  0  0  0  0
    5.0900    8.0300   15.6660 H   0  0  0  0  0  0  0  0  0  0  0  0
    3.0550    5.6600   18.6450 H   0  0  0  0  0  0  0  0  0  0  0  0
    3.5460    8.2140   17.7700 N   0  0  0  0  0  0  0  0  0  0  0  0
    2.2490    8.5230   18.1700 C   0  0  0  0  0  0  0  0  0  0  0  0
    2.1530    9.8740   18.5340 N   0  0  0  0  0  0  0  0  0  0  0  0
    2.4330   10.8780   17.5030 C   0  0  0  0  0  0  0  0  0  0  0  0
    2.4950   12.2770   18.0980 C   0  0  0  0  0  0  0  0  0  0  0  0
    1.2680   12.6170   18.7510 O   0  0  0  0  0  0  0  0  0  0  0  0
    0.8400   11.6250   19.6030 C   0  0  0  0  0  0  0  0  0  0  0  0
   -0.0650   12.0180   20.5880 C   0  0  0  0  0  0  0  0  0  0  0  0
   -0.5220   11.0790   21.5200 C   0  0  0  0  0  0  0  0  0  0  0  0
   -0.0220    9.7890   21.4250 C   0  0  0  0  0  0  0  0  0  0  0  0
    0.8470    9.3830   20.4720 N   0  0  0  0  0  0  0  0  0  0  0  0
    1.2410   10.2820   19.5410 C   0  0  0  0  0  0  0  0  0  0  0  0
    1.3030    7.7410   18.1810 O   0  0  0  0  0  0  0  0  0  0  0  0
    4.2380    8.8340   18.1600 H   0  0  0  0  0  0  0  0  0  0  0  0
    1.6250   10.8080   16.7590 H   0  0  0  0  0  0  0  0  0  0  0  0
    3.3750   10.6450   16.9930 H   0  0  0  0  0  0  0  0  0  0  0  0
    2.6590   13.0150   17.3020 H   0  0  0  0  0  0  0  0  0  0  0  0
    3.3240   12.3760   18.8130 H   0  0  0  0  0  0  0  0  0  0  0  0
   -0.4040   13.0510   20.6280 H   0  0  0  0  0  0  0  0  0  0  0  0
   -0.3130    9.0100   22.1280 H   0  0  0  0  0  0  0  0  0  0  0  0
   -1.4660   11.4390   22.6230 C   0  0  0  0  0  0  0  0  0  0  0  0
   -2.6830   11.8480   22.1760 F   0  0  0  0  0  0  0  0  0  0  0  0
   -1.0060   12.4410   23.4130 F   0  0  0  0  0  0  0  0  0  0  0  0
   -1.7110   10.3910   23.4510 F   0  0  0  0  0  0  0  0  0  0  0  0
    3.8590    3.2100   17.8120 C   0  0  2  0  0  0  0  0  0  0  0  0
    4.4070    2.4290   17.2640 H   0  0  0  0  0  0  0  0  0  0  0  0
    2.3640    2.9110   17.6250 C   0  0  0  0  0  0  0  0  0  0  0  0
    2.2060    1.8850   17.2720 H   0  0  0  0  0  0  0  0  0  0  0  0
    1.8020    3.0330   18.5580 H   0  0  0  0  0  0  0  0  0  0  0  0
    1.9230    3.5840   16.8770 H   0  0  0  0  0  0  0  0  0  0  0  0
    4.2960    3.1460   19.2930 C   0  0  0  0  0  0  0  0  0  0  0  0
    4.9540    2.2800   19.4380 H   0  0  0  0  0  0  0  0  0  0  0  0
    4.8910    4.0230   19.5590 H   0  0  0  0  0  0  0  0  0  0  0  0
    3.1440    3.0010   20.2290 C   0  0  0  0  0  0  0  0  0  0  0  0
    2.6620    1.8690   20.7020 N   0  0  0  0  0  0  0  0  0  0  0  0
    1.5940    2.1630   21.5120 N   0  0  0  0  0  0  0  0  0  0  0  0
    1.4490    3.4680   21.5240 C   0  0  0  0  0  0  0  0  0  0  0  0
    2.4040    4.0360   20.7400 N   0  0  0  0  0  0  0  0  0  0  0  0
    0.6930    4.0210   22.0660 H   0  0  0  0  0  0  0  0  0  0  0  0
    2.5810    5.4480   20.5250 C   0  0  0  0  0  0  0  0  0  0  0  0
    1.7230    5.9690   20.9670 H   0  0  0  0  0  0  0  0  0  0  0  0
    2.6290    5.6560   19.4510 H   0  0  0  0  0  0  0  0  0  0  0  0
    3.5110    5.7680   21.0010 H   0  0  0  0  0  0  0  0  0  0  0  0
  1  6  1  0  0  0  0
  1 35  1  0  0  0  0
  2  1  2  0  0  0  0
  3  2  1  0  0  0  0
  3  4  2  0  0  0  0
  4  5  1  0  0  0  0
  5 11  1  0  0  0  0
  5  6  2  0  0  0  0
  6 10  1  0  0  0  0
  7  2  1  0  0  0  0
  8  3  1  0  0  0  0
  9  4  1  0  0  0  0
 11 24  1  0  0  0  0
 11 12  1  0  0  0  0
 12 23  2  0  0  0  0
 12 13  1  0  0  0  0
 13 22  1  0  0  0  0
 14 15  1  0  0  0  0
 14 13  1  0  0  0  0
 15 16  1  0  0  0  0
 15 28  1  0  0  0  0
 16 17  1  0  0  0  0
 17 18  1  0  0  0  0
 18 29  1  0  0  0  0
 18 19  2  0  0  0  0
 19 31  1  0  0  0  0
 20 19  1  0  0  0  0
 20 30  1  0  0  0  0
 21 20  2  0  0  0  0
 22 17  2  0  0  0  0
 22 21  1  0  0  0  0
 25 14  1  0  0  0  0
 26 14  1  0  0  0  0
 27 15  1  0  0  0  0
 31 33  1  0  0  0  0
 31 34  1  0  0  0  0
 32 31  1  0  0  0  0
 35 36  1  6  0  0  0
 35 41  1  0  0  0  0
 37 35  1  0  0  0  0
 37 39  1  0  0  0  0
 38 37  1  0  0  0  0
 40 37  1  0  0  0  0
 41 42  1  0  0  0  0
 41 43  1  0  0  0  0
 41 44  1  0  0  0  0
 44 45  2  0  0  0  0
 44 48  1  0  0  0  0
 45 46  1  0  0  0  0
 46 47  2  0  0  0  0
 47 49  1  0  0  0  0
 48 47  1  0  0  0  0
 50 48  1  0  0  0  0
 50 51  1  0  0  0  0
 50 53  1  0  0  0  0
 52 50  1  0  0  0  0
M  END
>  <MODEL>
30

>  <REMARK>
 VINA RESULT:    -6.720      4.943      9.240
 INTER + INTRA:          -9.490
 INTER:                  -9.296
 INTRA:                  -0.194
 UNBOUND:                -0.413
  Name = 
  7 active torsions:
  status: ('A' for Active; 'I' for Inactive)
    1  A    between atoms: C_1  and  C_2
    2  A    between atoms: C_2  and  C_3
    3  A    between atoms: C_2  and  C_10
    4  A    between atoms: C_3  and  C_4
    5  A    between atoms: N_8  and  C_9
    6  A    between atoms: C_14  and  N_16
    7  A    between atoms: C_24  and  C_28
                            x       y       z     vdW  Elec       q    Type
                         _______ _______ _______ _____ _____    ______ ____

>  <TORSDO>
F 7

$$$$
=
 OpenBabel07192307433D

 53 56  0  0  1  0  0  0  0  0999 V2000
    3.6550    6.0310   18.9170 C   0  0  0  0  0  0  0  0  0  0  0  0
    3.3320    5.1760   19.9810 C   0  0  0  0  0  0  0  0  0  0  0  0
    2.3430    5.5320   20.8990 C   0  0  0  0  0  0  0  0  0  0  0  0
    1.6630    6.7410   20.7600 C   0  0  0  0  0  0  0  0  0  0  0  0
    1.9610    7.6060   19.7020 C   0  0  0  0  0  0  0  0  0  0  0  0
    2.9610    7.2490   18.7910 C   0  0  0  0  0  0  0  0  0  0  0  0
    3.8360    4.2220   20.1030 H   0  0  0  0  0  0  0  0  0  0  0  0
    2.0920    4.8590   21.7150 H   0  0  0  0  0  0  0  0  0  0  0  0
    0.8920    6.9900   21.4850 H   0  0  0  0  0  0  0  0  0  0  0  0
    3.2210    7.9130   17.9690 H   0  0  0  0  0  0  0  0  0  0  0  0
    1.2310    8.8080   19.6350 N   0  0  0  0  0  0  0  0  0  0  0  0
    0.1370    9.1810   20.4110 C   0  0  0  0  0  0  0  0  0  0  0  0
   -0.3880   10.4030   19.9680 N   0  0  0  0  0  0  0  0  0  0  0  0
   -0.9130   10.4630   18.6010 C   0  0  0  0  0  0  0  0  0  0  0  0
   -1.2490   11.8920   18.2000 C   0  0  0  0  0  0  0  0  0  0  0  0
   -2.2120   12.4650   19.0890 O   0  0  0  0  0  0  0  0  0  0  0  0
   -1.8770   12.2800   20.4100 C   0  0  0  0  0  0  0  0  0  0  0  0
   -2.4800   13.1480   21.3190 C   0  0  0  0  0  0  0  0  0  0  0  0
   -2.1650   13.0530   22.6790 C   0  0  0  0  0  0  0  0  0  0  0  0
   -1.2340   12.0960   23.0540 C   0  0  0  0  0  0  0  0  0  0  0  0
   -0.6450   11.2350   22.1920 N   0  0  0  0  0  0  0  0  0  0  0  0
   -0.9960   11.2970   20.8870 C   0  0  0  0  0  0  0  0  0  0  0  0
   -0.3310    8.5290   21.3390 O   0  0  0  0  0  0  0  0  0  0  0  0
    1.6860    9.5900   19.1920 H   0  0  0  0  0  0  0  0  0  0  0  0
   -1.8140    9.8310   18.5750 H   0  0  0  0  0  0  0  0  0  0  0  0
   -0.1880   10.0370   17.8980 H   0  0  0  0  0  0  0  0  0  0  0  0
   -1.6830   11.9060   17.1920 H   0  0  0  0  0  0  0  0  0  0  0  0
   -0.3520   12.5270   18.1810 H   0  0  0  0  0  0  0  0  0  0  0  0
   -3.1860   13.8970   20.9640 H   0  0  0  0  0  0  0  0  0  0  0  0
   -0.9220   11.9770   24.0900 H   0  0  0  0  0  0  0  0  0  0  0  0
   -2.7490   13.9730   23.7040 C   0  0  0  0  0  0  0  0  0  0  0  0
   -3.7050   13.3860   24.4710 F   0  0  0  0  0  0  0  0  0  0  0  0
   -3.3320   15.0720   23.1620 F   0  0  0  0  0  0  0  0  0  0  0  0
   -1.8120   14.4350   24.5720 F   0  0  0  0  0  0  0  0  0  0  0  0
    4.7220    5.6590   17.8920 C   0  0  2  0  0  0  0  0  0  0  0  0
    5.5420    5.1460   18.4170 H   0  0  0  0  0  0  0  0  0  0  0  0
    5.3220    6.9320   17.2760 C   0  0  0  0  0  0  0  0  0  0  0  0
    6.3230    7.1300   17.6740 H   0  0  0  0  0  0  0  0  0  0  0  0
    5.4040    6.8590   16.1850 H   0  0  0  0  0  0  0  0  0  0  0  0
    4.7000    7.8070   17.5080 H   0  0  0  0  0  0  0  0  0  0  0  0
    4.1620    4.6900   16.8250 C   0  0  0  0  0  0  0  0  0  0  0  0
    3.3490    5.1850   16.2800 H   0  0  0  0  0  0  0  0  0  0  0  0
    4.9250    4.4550   16.0780 H   0  0  0  0  0  0  0  0  0  0  0  0
    3.6150    3.4360   17.4150 C   0  0  0  0  0  0  0  0  0  0  0  0
    4.3140    2.3890   17.8070 N   0  0  0  0  0  0  0  0  0  0  0  0
    3.4390    1.4390   18.2730 N   0  0  0  0  0  0  0  0  0  0  0  0
    2.2250    1.9260   18.1630 C   0  0  0  0  0  0  0  0  0  0  0  0
    2.2860    3.1780   17.6380 N   0  0  0  0  0  0  0  0  0  0  0  0
    1.3080    1.4220   18.4400 H   0  0  0  0  0  0  0  0  0  0  0  0
    1.1600    4.0400   17.3910 C   0  0  0  0  0  0  0  0  0  0  0  0
    0.2590    3.5360   17.7610 H   0  0  0  0  0  0  0  0  0  0  0  0
    1.0650    4.2280   16.3170 H   0  0  0  0  0  0  0  0  0  0  0  0
    1.3120    4.9870   17.9160 H   0  0  0  0  0  0  0  0  0  0  0  0
  1  2  1  0  0  0  0
  2  7  1  0  0  0  0
  2  3  2  0  0  0  0
  3  8  1  0  0  0  0
  4  3  1  0  0  0  0
  4  9  1  0  0  0  0
  5  4  2  0  0  0  0
  6  1  2  0  0  0  0
  6  5  1  0  0  0  0
 10  6  1  0  0  0  0
 11  5  1  0  0  0  0
 11 12  1  0  0  0  0
 12 23  2  0  0  0  0
 13 12  1  0  0  0  0
 13 22  1  0  0  0  0
 14 13  1  0  0  0  0
 15 14  1  0  0  0  0
 15 16  1  0  0  0  0
 16 17  1  0  0  0  0
 17 22  2  0  0  0  0
 17 18  1  0  0  0  0
 18 19  2  0  0  0  0
 19 20  1  0  0  0  0
 19 31  1  0  0  0  0
 20 30  1  0  0  0  0
 21 20  2  0  0  0  0
 22 21  1  0  0  0  0
 24 11  1  0  0  0  0
 25 14  1  0  0  0  0
 26 14  1  0  0  0  0
 27 15  1  0  0  0  0
 28 15  1  0  0  0  0
 29 18  1  0  0  0  0
 31 32  1  0  0  0  0
 31 34  1  0  0  0  0
 33 31  1  0  0  0  0
 35 36  1  1  0  0  0
 35  1  1  0  0  0  0
 37 40  1  0  0  0  0
 37 38  1  0  0  0  0
 37 35  1  0  0  0  0
 39 37  1  0  0  0  0
 41 44  1  0  0  0  0
 41 35  1  0  0  0  0
 42 41  1  0  0  0  0
 43 41  1  0  0  0  0
 44 48  1  0  0  0  0
 44 45  2  0  0  0  0
 45 46  1  0  0  0  0
 47 46  2  0  0  0  0
 47 49  1  0  0  0  0
 48 47  1  0  0  0  0
 50 48  1  0  0  0  0
 50 51  1  0  0  0  0
 50 53  1  0  0  0  0
 52 50  1  0  0  0  0
M  END
>  <MODEL>
31

>  <REMARK>
 VINA RESULT:    -6.688      5.558      9.734
 INTER + INTRA:          -9.446
 INTER:                  -9.736
 INTRA:                   0.290
 UNBOUND:                -0.413
  Name = 
  7 active torsions:
  status: ('A' for Active; 'I' for Inactive)
    1  A    between atoms: C_1  and  C_2
    2  A    between atoms: C_2  and  C_3
    3  A    between atoms: C_2  and  C_10
    4  A    between atoms: C_3  and  C_4
    5  A    between atoms: N_8  and  C_9
    6  A    between atoms: C_14  and  N_16
    7  A    between atoms: C_24  and  C_28
                            x       y       z     vdW  Elec       q    Type
                         _______ _______ _______ _____ _____    ______ ____

>  <TORSDO>
F 7

$$$$
=
 OpenBabel07192307433D

 53 56  0  0  1  0  0  0  0  0999 V2000
    4.6870    5.3000   17.0850 C   0  0  0  0  0  0  0  0  0  0  0  0
    3.7090    4.3250   17.3260 C   0  0  0  0  0  0  0  0  0  0  0  0
    2.4720    4.6810   17.8660 C   0  0  0  0  0  0  0  0  0  0  0  0
    2.1990    6.0150   18.1630 C   0  0  0  0  0  0  0  0  0  0  0  0
    3.1550    7.0070   17.9240 C   0  0  0  0  0  0  0  0  0  0  0  0
    4.3970    6.6430   17.3930 C   0  0  0  0  0  0  0  0  0  0  0  0
    3.8910    3.2810   17.0880 H   0  0  0  0  0  0  0  0  0  0  0  0
    1.7160    3.9200   18.0390 H   0  0  0  0  0  0  0  0  0  0  0  0
    1.2240    6.2660   18.5770 H   0  0  0  0  0  0  0  0  0  0  0  0
    5.1620    7.3950   17.2130 H   0  0  0  0  0  0  0  0  0  0  0  0
    2.8010    8.3290   18.2550 N   0  0  0  0  0  0  0  0  0  0  0  0
    1.5840    8.9650   18.0240 C   0  0  0  0  0  0  0  0  0  0  0  0
    1.6560   10.3160   18.3930 N   0  0  0  0  0  0  0  0  0  0  0  0
    2.6180   11.1650   17.6840 C   0  0  0  0  0  0  0  0  0  0  0  0
    2.7270   12.5370   18.3340 C   0  0  0  0  0  0  0  0  0  0  0  0
    1.4590   13.1990   18.3600 O   0  0  0  0  0  0  0  0  0  0  0  0
    0.4580   12.3890   18.8440 C   0  0  0  0  0  0  0  0  0  0  0  0
   -0.6790   13.0420   19.3170 C   0  0  0  0  0  0  0  0  0  0  0  0
   -1.7290   12.2940   19.8620 C   0  0  0  0  0  0  0  0  0  0  0  0
   -1.5690   10.9180   19.9230 C   0  0  0  0  0  0  0  0  0  0  0  0
   -0.4810   10.2620   19.4590 N   0  0  0  0  0  0  0  0  0  0  0  0
    0.5060   10.9870   18.8840 C   0  0  0  0  0  0  0  0  0  0  0  0
    0.5870    8.4380   17.5390 O   0  0  0  0  0  0  0  0  0  0  0  0
    3.3550    8.7810   18.9650 H   0  0  0  0  0  0  0  0  0  0  0  0
    2.2620   11.2550   16.6460 H   0  0  0  0  0  0  0  0  0  0  0  0
    3.6020   10.6840   17.6580 H   0  0  0  0  0  0  0  0  0  0  0  0
    3.4160   13.1690   17.7590 H   0  0  0  0  0  0  0  0  0  0  0  0
    3.1200   12.4690   19.3580 H   0  0  0  0  0  0  0  0  0  0  0  0
   -0.7390   14.1270   19.2650 H   0  0  0  0  0  0  0  0  0  0  0  0
   -2.3320   10.2720   20.3530 H   0  0  0  0  0  0  0  0  0  0  0  0
   -2.9630   12.9310   20.4180 C   0  0  0  0  0  0  0  0  0  0  0  0
   -4.0800   12.6620   19.6940 F   0  0  0  0  0  0  0  0  0  0  0  0
   -2.8810   14.2840   20.4820 F   0  0  0  0  0  0  0  0  0  0  0  0
   -3.2320   12.5120   21.6810 F   0  0  0  0  0  0  0  0  0  0  0  0
    6.0420    4.9390   16.4830 C   0  0  2  0  0  0  0  0  0  0  0  0
    6.0460    3.8600   16.2630 H   0  0  0  0  0  0  0  0  0  0  0  0
    7.1540    5.1820   17.5130 C   0  0  0  0  0  0  0  0  0  0  0  0
    6.8900    4.7570   18.4880 H   0  0  0  0  0  0  0  0  0  0  0  0
    8.1060    4.7360   17.2010 H   0  0  0  0  0  0  0  0  0  0  0  0
    7.3200    6.2570   17.6600 H   0  0  0  0  0  0  0  0  0  0  0  0
    6.2860    5.6940   15.1560 C   0  0  0  0  0  0  0  0  0  0  0  0
    5.4830    6.4260   15.0050 H   0  0  0  0  0  0  0  0  0  0  0  0
    7.2130    6.2710   15.2050 H   0  0  0  0  0  0  0  0  0  0  0  0
    6.3040    4.7890   13.9720 C   0  0  0  0  0  0  0  0  0  0  0  0
    5.4260    3.8440   13.7000 N   0  0  0  0  0  0  0  0  0  0  0  0
    5.8070    3.2270   12.5340 N   0  0  0  0  0  0  0  0  0  0  0  0
    6.9040    3.8120   12.1140 C   0  0  0  0  0  0  0  0  0  0  0  0
    7.2490    4.8020   12.9780 N   0  0  0  0  0  0  0  0  0  0  0  0
    7.4620    3.5570   11.2220 H   0  0  0  0  0  0  0  0  0  0  0  0
    8.3800    5.6810   12.8390 C   0  0  0  0  0  0  0  0  0  0  0  0
    8.6550    5.7160   11.7780 H   0  0  0  0  0  0  0  0  0  0  0  0
    9.2210    5.3000   13.4280 H   0  0  0  0  0  0  0  0  0  0  0  0
    8.1060    6.6760   13.1970 H   0  0  0  0  0  0  0  0  0  0  0  0
  1  2  2  0  0  0  0
  1  6  1  0  0  0  0
  2  3  1  0  0  0  0
  3  8  1  0  0  0  0
  3  4  2  0  0  0  0
  4  9  1  0  0  0  0
  5  4  1  0  0  0  0
  5 11  1  0  0  0  0
  6  5  2  0  0  0  0
  7  2  1  0  0  0  0
 10  6  1  0  0  0  0
 11 24  1  0  0  0  0
 12 11  1  0  0  0  0
 12 13  1  0  0  0  0
 13 22  1  0  0  0  0
 14 15  1  0  0  0  0
 14 13  1  0  0  0  0
 15 16  1  0  0  0  0
 15 28  1  0  0  0  0
 16 17  1  0  0  0  0
 17 22  2  0  0  0  0
 17 18  1  0  0  0  0
 18 19  2  0  0  0  0
 19 20  1  0  0  0  0
 19 31  1  0  0  0  0
 20 30  1  0  0  0  0
 21 20  2  0  0  0  0
 22 21  1  0  0  0  0
 23 12  2  0  0  0  0
 25 14  1  0  0  0  0
 26 14  1  0  0  0  0
 27 15  1  0  0  0  0
 29 18  1  0  0  0  0
 31 33  1  0  0  0  0
 31 34  1  0  0  0  0
 32 31  1  0  0  0  0
 35 36  1  6  0  0  0
 35  1  1  0  0  0  0
 35 37  1  0  0  0  0
 37 40  1  0  0  0  0
 37 38  1  0  0  0  0
 39 37  1  0  0  0  0
 41 43  1  0  0  0  0
 41 35  1  0  0  0  0
 42 41  1  0  0  0  0
 44 41  1  0  0  0  0
 45 44  2  0  0  0  0
 46 45  1  0  0  0  0
 47 46  2  0  0  0  0
 47 48  1  0  0  0  0
 48 44  1  0  0  0  0
 49 47  1  0  0  0  0
 50 48  1  0  0  0  0
 50 53  1  0  0  0  0
 50 52  1  0  0  0  0
 51 50  1  0  0  0  0
M  END
>  <MODEL>
32

>  <REMARK>
 VINA RESULT:    -6.685      5.256      9.973
 INTER + INTRA:          -9.442
 INTER:                  -9.030
 INTRA:                  -0.413
 UNBOUND:                -0.413
  Name = 
  7 active torsions:
  status: ('A' for Active; 'I' for Inactive)
    1  A    between atoms: C_1  and  C_2
    2  A    between atoms: C_2  and  C_3
    3  A    between atoms: C_2  and  C_10
    4  A    between atoms: C_3  and  C_4
    5  A    between atoms: N_8  and  C_9
    6  A    between atoms: C_14  and  N_16
    7  A    between atoms: C_24  and  C_28
                            x       y       z     vdW  Elec       q    Type
                         _______ _______ _______ _____ _____    ______ ____

>  <TORSDO>
F 7

$$$$
=
 OpenBabel07192307433D

 53 56  0  0  1  0  0  0  0  0999 V2000
   -0.9390   12.9870   20.0920 C   0  0  0  0  0  0  0  0  0  0  0  0
   -0.1780   13.9100   19.3610 C   0  0  0  0  0  0  0  0  0  0  0  0
    1.0540   13.5400   18.8200 C   0  0  0  0  0  0  0  0  0  0  0  0
    1.5330   12.2430   18.9980 C   0  0  0  0  0  0  0  0  0  0  0  0
    0.7880   11.3020   19.7150 C   0  0  0  0  0  0  0  0  0  0  0  0
   -0.4410   11.6810   20.2650 C   0  0  0  0  0  0  0  0  0  0  0  0
   -0.5360   14.9220   19.1960 H   0  0  0  0  0  0  0  0  0  0  0  0
    1.6330   14.2590   18.2460 H   0  0  0  0  0  0  0  0  0  0  0  0
    2.4930   11.9790   18.5590 H   0  0  0  0  0  0  0  0  0  0  0  0
   -1.0310   10.9710   20.8400 H   0  0  0  0  0  0  0  0  0  0  0  0
    1.3450   10.0160   19.8510 N   0  0  0  0  0  0  0  0  0  0  0  0
    1.5020    9.0490   18.8600 C   0  0  0  0  0  0  0  0  0  0  0  0
    1.9900    7.8550   19.4100 N   0  0  0  0  0  0  0  0  0  0  0  0
    1.1600    7.1770   20.4100 C   0  0  0  0  0  0  0  0  0  0  0  0
    1.9110    6.0230   21.0590 C   0  0  0  0  0  0  0  0  0  0  0  0
    2.3320    5.0650   20.0830 O   0  0  0  0  0  0  0  0  0  0  0  0
    2.9600    5.6560   19.0110 C   0  0  0  0  0  0  0  0  0  0  0  0
    3.7760    4.8220   18.2480 C   0  0  0  0  0  0  0  0  0  0  0  0
    4.4810    5.3510   17.1620 C   0  0  0  0  0  0  0  0  0  0  0  0
    4.3450    6.7080   16.9110 C   0  0  0  0  0  0  0  0  0  0  0  0
    3.5500    7.5340   17.6300 N   0  0  0  0  0  0  0  0  0  0  0  0
    2.8290    7.0040   18.6440 C   0  0  0  0  0  0  0  0  0  0  0  0
    1.2300    9.1980   17.6730 O   0  0  0  0  0  0  0  0  0  0  0  0
    1.9370    9.8610   20.6510 H   0  0  0  0  0  0  0  0  0  0  0  0
    0.2630    6.8110   19.8880 H   0  0  0  0  0  0  0  0  0  0  0  0
    0.8320    7.8890   21.1760 H   0  0  0  0  0  0  0  0  0  0  0  0
    1.2550    5.5030   21.7690 H   0  0  0  0  0  0  0  0  0  0  0  0
    2.7880    6.3770   21.6210 H   0  0  0  0  0  0  0  0  0  0  0  0
    3.8630    3.7690   18.5070 H   0  0  0  0  0  0  0  0  0  0  0  0
    4.8790    7.1960   16.0980 H   0  0  0  0  0  0  0  0  0  0  0  0
    5.4000    4.5220   16.3220 C   0  0  0  0  0  0  0  0  0  0  0  0
    6.6980    4.5870   16.7210 F   0  0  0  0  0  0  0  0  0  0  0  0
    5.3970    4.8830   15.0140 F   0  0  0  0  0  0  0  0  0  0  0  0
    5.0710    3.2050   16.3490 F   0  0  0  0  0  0  0  0  0  0  0  0
   -2.2960   13.3620   20.6820 C   0  0  2  0  0  0  0  0  0  0  0  0
   -3.0810   13.0050   19.9990 H   0  0  0  0  0  0  0  0  0  0  0  0
   -2.4320   14.8900   20.7490 C   0  0  0  0  0  0  0  0  0  0  0  0
   -2.0760   15.2770   21.7110 H   0  0  0  0  0  0  0  0  0  0  0  0
   -1.8610   15.3880   19.9570 H   0  0  0  0  0  0  0  0  0  0  0  0
   -3.4830   15.1920   20.6450 H   0  0  0  0  0  0  0  0  0  0  0  0
   -2.5180   12.6850   22.0540 C   0  0  0  0  0  0  0  0  0  0  0  0
   -3.5480   12.3100   22.1090 H   0  0  0  0  0  0  0  0  0  0  0  0
   -1.8730   11.8080   22.1620 H   0  0  0  0  0  0  0  0  0  0  0  0
   -2.3130   13.6190   23.1980 C   0  0  0  0  0  0  0  0  0  0  0  0
   -1.1540   14.0470   23.6560 N   0  0  0  0  0  0  0  0  0  0  0  0
   -1.3950   14.8730   24.7260 N   0  0  0  0  0  0  0  0  0  0  0  0
   -2.6940   14.9390   24.8950 C   0  0  0  0  0  0  0  0  0  0  0  0
   -3.3120   14.1760   23.9550 N   0  0  0  0  0  0  0  0  0  0  0  0
   -3.2110   15.5060   25.6590 H   0  0  0  0  0  0  0  0  0  0  0  0
   -4.7350   14.0180   23.8050 C   0  0  0  0  0  0  0  0  0  0  0  0
   -5.2280   14.7560   24.4490 H   0  0  0  0  0  0  0  0  0  0  0  0
   -5.0300   13.0070   24.1050 H   0  0  0  0  0  0  0  0  0  0  0  0
   -5.0050   14.1810   22.7590 H   0  0  0  0  0  0  0  0  0  0  0  0
  1  6  1  0  0  0  0
  1 35  1  0  0  0  0
  2  1  2  0  0  0  0
  3  4  2  0  0  0  0
  3  2  1  0  0  0  0
  4  5  1  0  0  0  0
  5 11  1  0  0  0  0
  5  6  2  0  0  0  0
  6 10  1  0  0  0  0
  7  2  1  0  0  0  0
  8  3  1  0  0  0  0
  9  4  1  0  0  0  0
 11 24  1  0  0  0  0
 12 13  1  0  0  0  0
 12 11  1  0  0  0  0
 13 14  1  0  0  0  0
 14 15  1  0  0  0  0
 14 26  1  0  0  0  0
 15 28  1  0  0  0  0
 15 27  1  0  0  0  0
 16 15  1  0  0  0  0
 17 16  1  0  0  0  0
 18 29  1  0  0  0  0
 18 17  2  0  0  0  0
 19 18  1  0  0  0  0
 20 19  2  0  0  0  0
 20 21  1  0  0  0  0
 21 22  2  0  0  0  0
 22 17  1  0  0  0  0
 22 13  1  0  0  0  0
 23 12  2  0  0  0  0
 25 14  1  0  0  0  0
 30 20  1  0  0  0  0
 31 34  1  0  0  0  0
 31 32  1  0  0  0  0
 31 19  1  0  0  0  0
 33 31  1  0  0  0  0
 35 36  1  6  0  0  0
 35 37  1  0  0  0  0
 35 41  1  0  0  0  0
 37 38  1  0  0  0  0
 39 37  1  0  0  0  0
 40 37  1  0  0  0  0
 41 42  1  0  0  0  0
 41 43  1  0  0  0  0
 41 44  1  0  0  0  0
 44 45  2  0  0  0  0
 44 48  1  0  0  0  0
 45 46  1  0  0  0  0
 46 47  2  0  0  0  0
 47 49  1  0  0  0  0
 48 47  1  0  0  0  0
 50 48  1  0  0  0  0
 50 52  1  0  0  0  0
 50 51  1  0  0  0  0
 53 50  1  0  0  0  0
M  END
>  <MODEL>
33

>  <REMARK>
 VINA RESULT:    -6.655      3.204      4.317
 INTER + INTRA:          -9.401
 INTER:                  -8.772
 INTRA:                  -0.630
 UNBOUND:                -0.413
  Name = 
  7 active torsions:
  status: ('A' for Active; 'I' for Inactive)
    1  A    between atoms: C_1  and  C_2
    2  A    between atoms: C_2  and  C_3
    3  A    between atoms: C_2  and  C_10
    4  A    between atoms: C_3  and  C_4
    5  A    between atoms: N_8  and  C_9
    6  A    between atoms: C_14  and  N_16
    7  A    between atoms: C_24  and  C_28
                            x       y       z     vdW  Elec       q    Type
                         _______ _______ _______ _____ _____    ______ ____

>  <TORSDO>
F 7

$$$$
