=
 OpenBabel07192307433D

 64 68  0  0  1  0  0  0  0  0999 V2000
    1.1910    8.4520   20.3580 N   0  0  0  0  0  0  0  0  0  0  0  0
    1.2690    7.0580   20.7750 C   0  0  0  0  0  0  0  0  0  0  0  0
    2.1600    6.4350   19.7490 C   0  0  0  0  0  0  0  0  0  0  0  0
    2.5710    7.4020   18.8410 C   0  0  0  0  0  0  0  0  0  0  0  0
    3.3990    7.1200   17.7690 C   0  0  0  0  0  0  0  0  0  0  0  0
    3.8340    5.7980   17.5960 C   0  0  0  0  0  0  0  0  0  0  0  0
    3.4240    4.8120   18.5280 C   0  0  0  0  0  0  0  0  0  0  0  0
    2.5820    5.1150   19.6170 C   0  0  0  0  0  0  0  0  0  0  0  0
    1.9770    8.6870   19.2250 C   0  0  0  0  0  0  0  0  0  0  0  0
    2.2060    9.7100   18.6050 O   0  0  0  0  0  0  0  0  0  0  0  0
    0.2710    6.6090   20.7490 H   0  0  0  0  0  0  0  0  0  0  0  0
    1.7210    6.9940   21.7690 H   0  0  0  0  0  0  0  0  0  0  0  0
    3.6870    7.9150   17.0860 H   0  0  0  0  0  0  0  0  0  0  0  0
    3.7730    3.7860   18.4000 H   0  0  0  0  0  0  0  0  0  0  0  0
    4.7360    5.4550   16.4220 C   0  0  0  0  0  0  0  0  0  0  0  0
    4.9260    3.9410   16.2440 C   0  0  0  0  0  0  0  0  0  0  0  0
    5.6980    3.6150   14.9610 C   0  0  0  0  0  0  0  0  0  0  0  0
    6.7010    4.6990   14.5570 C   0  0  0  0  0  0  0  0  0  0  0  0
    7.2200    5.4720   15.7630 C   0  0  0  0  0  0  0  0  0  0  0  0
    6.0930    6.1820   16.5200 C   0  0  0  0  0  0  0  0  0  0  0  0
    4.2430    5.8150   15.5070 H   0  0  0  0  0  0  0  0  0  0  0  0
    5.4760    3.5250   17.0970 H   0  0  0  0  0  0  0  0  0  0  0  0
    3.9590    3.4240   16.2240 H   0  0  0  0  0  0  0  0  0  0  0  0
    6.2200    2.6610   15.1010 H   0  0  0  0  0  0  0  0  0  0  0  0
    4.9950    3.4610   14.1330 H   0  0  0  0  0  0  0  0  0  0  0  0
    7.5340    4.2410   14.0110 H   0  0  0  0  0  0  0  0  0  0  0  0
    6.2210    5.4000   13.8600 H   0  0  0  0  0  0  0  0  0  0  0  0
    7.7300    4.7780   16.4420 H   0  0  0  0  0  0  0  0  0  0  0  0
    7.9690    6.2070   15.4460 H   0  0  0  0  0  0  0  0  0  0  0  0
    6.4140    6.3130   17.5610 H   0  0  0  0  0  0  0  0  0  0  0  0
    5.9700    7.1990   16.1210 H   0  0  0  0  0  0  0  0  0  0  0  0
   -1.0070   11.4360   21.0240 C   0  0  0  0  0  0  0  0  0  0  0  0
   -1.2240   11.2790   22.3990 C   0  0  0  0  0  0  0  0  0  0  0  0
   -0.6670   10.2040   23.0850 C   0  0  0  0  0  0  0  0  0  0  0  0
    0.1230    9.2750   22.4060 C   0  0  0  0  0  0  0  0  0  0  0  0
    0.3760    9.4020   21.0320 C   0  0  0  0  0  0  0  0  0  0  0  0
   -0.2040   10.4900   20.3610 C   0  0  0  0  0  0  0  0  0  0  0  0
   -1.8390   11.9920   22.9450 H   0  0  0  0  0  0  0  0  0  0  0  0
   -0.8490   10.0870   24.1500 H   0  0  0  0  0  0  0  0  0  0  0  0
    0.5370    8.4570   22.9890 H   0  0  0  0  0  0  0  0  0  0  0  0
   -0.0410   10.6190   19.2950 H   0  0  0  0  0  0  0  0  0  0  0  0
   -1.6220   12.6330   20.3110 C   0  0  2  0  0  0  0  0  0  0  0  0
   -0.9450   12.8630   19.4720 H   0  0  0  0  0  0  0  0  0  0  0  0
   -1.6440   13.9210   21.1460 C   0  0  0  0  0  0  0  0  0  0  0  0
   -0.6370   14.1720   21.5010 H   0  0  0  0  0  0  0  0  0  0  0  0
   -2.0020   14.7620   20.5400 H   0  0  0  0  0  0  0  0  0  0  0  0
   -2.2930   13.8470   22.0240 H   0  0  0  0  0  0  0  0  0  0  0  0
   -2.9860   12.2990   19.6660 C   0  0  0  0  0  0  0  0  0  0  0  0
   -3.6430   13.1780   19.6710 H   0  0  0  0  0  0  0  0  0  0  0  0
   -3.4900   11.5580   20.3060 H   0  0  0  0  0  0  0  0  0  0  0  0
   -2.9110   11.7120   18.2950 C   0  0  0  0  0  0  0  0  0  0  0  0
   -1.8710   11.8090   17.4860 N   0  0  0  0  0  0  0  0  0  0  0  0
   -2.1610   11.1390   16.3220 N   0  0  0  0  0  0  0  0  0  0  0  0
   -3.3690   10.6410   16.4470 C   0  0  0  0  0  0  0  0  0  0  0  0
   -3.8690   10.9520   17.6770 N   0  0  0  0  0  0  0  0  0  0  0  0
   -3.9000   10.0610   15.7050 H   0  0  0  0  0  0  0  0  0  0  0  0
   -5.1470   10.5090   18.1680 C   0  0  0  0  0  0  0  0  0  0  0  0
   -5.0470   10.0410   19.1470 H   0  0  0  0  0  0  0  0  0  0  0  0
   -5.5500    9.7800   17.4610 H   0  0  0  0  0  0  0  0  0  0  0  0
   -5.8120   11.3720   18.2340 H   0  0  0  0  0  0  0  0  0  0  0  0
    2.1620    4.0640   20.6080 C   0  0  0  0  0  0  0  0  0  0  0  0
    0.8260    3.8110   20.5510 F   0  0  0  0  0  0  0  0  0  0  0  0
    2.7730    2.8660   20.3850 F   0  0  0  0  0  0  0  0  0  0  0  0
    2.4290    4.3870   21.9020 F   0  0  0  0  0  0  0  0  0  0  0  0
  1  2  1  0  0  0  0
  1 36  1  0  0  0  0
  2 12  1  0  0  0  0
  3  2  1  0  0  0  0
  4  9  1  0  0  0  0
  4  3  2  0  0  0  0
  5  4  1  0  0  0  0
  6  5  2  0  0  0  0
  6  7  1  0  0  0  0
  7  8  2  0  0  0  0
  8  3  1  0  0  0  0
  8 61  1  0  0  0  0
  9  1  1  0  0  0  0
 10  9  2  0  0  0  0
 11  2  1  0  0  0  0
 13  5  1  0  0  0  0
 14  7  1  0  0  0  0
 15 20  1  0  0  0  0
 15  6  1  0  0  0  0
 16 15  1  0  0  0  0
 16 22  1  0  0  0  0
 17 24  1  0  0  0  0
 17 16  1  0  0  0  0
 18 17  1  0  0  0  0
 18 19  1  0  0  0  0
 19 28  1  0  0  0  0
 19 20  1  0  0  0  0
 20 30  1  0  0  0  0
 21 15  1  0  0  0  0
 23 16  1  0  0  0  0
 25 17  1  0  0  0  0
 26 18  1  0  0  0  0
 27 18  1  0  0  0  0
 29 19  1  0  0  0  0
 31 20  1  0  0  0  0
 32 33  1  0  0  0  0
 33 38  1  0  0  0  0
 33 34  2  0  0  0  0
 34 39  1  0  0  0  0
 35 40  1  0  0  0  0
 35 34  1  0  0  0  0
 36 35  2  0  0  0  0
 37 32  2  0  0  0  0
 37 36  1  0  0  0  0
 41 37  1  0  0  0  0
 42 43  1  6  0  0  0
 42 32  1  0  0  0  0
 42 44  1  0  0  0  0
 44 45  1  0  0  0  0
 44 47  1  0  0  0  0
 46 44  1  0  0  0  0
 48 49  1  0  0  0  0
 48 50  1  0  0  0  0
 48 42  1  0  0  0  0
 51 48  1  0  0  0  0
 52 51  2  0  0  0  0
 53 54  2  0  0  0  0
 53 52  1  0  0  0  0
 54 55  1  0  0  0  0
 55 57  1  0  0  0  0
 55 51  1  0  0  0  0
 56 54  1  0  0  0  0
 57 60  1  0  0  0  0
 57 58  1  0  0  0  0
 59 57  1  0  0  0  0
 61 64  1  0  0  0  0
 62 61  1  0  0  0  0
 63 61  1  0  0  0  0
M  END
>  <MODEL>
1

>  <REMARK>
 VINA RESULT:    -9.728      0.000      0.000
 INTER + INTRA:         -14.105
 INTER:                 -12.796
 INTRA:                  -1.309
 UNBOUND:                -0.395
  Name = 
  8 active torsions:
  status: ('A' for Active; 'I' for Inactive)
    1  A    between atoms: C_1  and  C_2
    2  A    between atoms: C_2  and  C_3
    3  A    between atoms: C_2  and  C_10
    4  A    between atoms: C_3  and  C_4
    5  A    between atoms: N_8  and  C_9
    6  A    between atoms: C_14  and  N_16
    7  A    between atoms: C_21  and  C_28
    8  A    between atoms: C_23  and  C_24
                            x       y       z     vdW  Elec       q    Type
                         _______ _______ _______ _____ _____    ______ ____

>  <TORSDO>
F 8

$$$$
=
 OpenBabel07192307433D

 64 68  0  0  1  0  0  0  0  0999 V2000
    1.1310    8.5190   20.3470 N   0  0  0  0  0  0  0  0  0  0  0  0
    1.2270    7.1400   20.8070 C   0  0  0  0  0  0  0  0  0  0  0  0
    2.1310    6.4970   19.8050 C   0  0  0  0  0  0  0  0  0  0  0  0
    2.5320    7.4410   18.8680 C   0  0  0  0  0  0  0  0  0  0  0  0
    3.3680    7.1370   17.8090 C   0  0  0  0  0  0  0  0  0  0  0  0
    3.8220    5.8160   17.6800 C   0  0  0  0  0  0  0  0  0  0  0  0
    3.4220    4.8540   18.6400 C   0  0  0  0  0  0  0  0  0  0  0  0
    2.5710    5.1800   19.7160 C   0  0  0  0  0  0  0  0  0  0  0  0
    1.9180    8.7290   19.2100 C   0  0  0  0  0  0  0  0  0  0  0  0
    2.1360    9.7350   18.5590 O   0  0  0  0  0  0  0  0  0  0  0  0
    0.2360    6.6760   20.7920 H   0  0  0  0  0  0  0  0  0  0  0  0
    1.6760    7.1130   21.8050 H   0  0  0  0  0  0  0  0  0  0  0  0
    3.6480    7.9140   17.1020 H   0  0  0  0  0  0  0  0  0  0  0  0
    3.7850    3.8300   18.5460 H   0  0  0  0  0  0  0  0  0  0  0  0
    4.7330    5.4500   16.5200 C   0  0  0  0  0  0  0  0  0  0  0  0
    4.9030    3.9320   16.3570 C   0  0  0  0  0  0  0  0  0  0  0  0
    5.6860    3.5830   15.0880 C   0  0  0  0  0  0  0  0  0  0  0  0
    6.7100    4.6480   14.6870 C   0  0  0  0  0  0  0  0  0  0  0  0
    7.2250    5.4240   15.8930 C   0  0  0  0  0  0  0  0  0  0  0  0
    6.1000    6.1570   16.6290 C   0  0  0  0  0  0  0  0  0  0  0  0
    4.2580    5.8090   15.5960 H   0  0  0  0  0  0  0  0  0  0  0  0
    5.4360    3.5150   17.2220 H   0  0  0  0  0  0  0  0  0  0  0  0
    3.9280    3.4290   16.3290 H   0  0  0  0  0  0  0  0  0  0  0  0
    6.1920    2.6220   15.2420 H   0  0  0  0  0  0  0  0  0  0  0  0
    4.9920    3.4320   14.2520 H   0  0  0  0  0  0  0  0  0  0  0  0
    7.5430    4.1720   14.1560 H   0  0  0  0  0  0  0  0  0  0  0  0
    6.2500    5.3500   13.9780 H   0  0  0  0  0  0  0  0  0  0  0  0
    7.7170    4.7270   16.5840 H   0  0  0  0  0  0  0  0  0  0  0  0
    7.9900    6.1440   15.5800 H   0  0  0  0  0  0  0  0  0  0  0  0
    6.4100    6.2920   17.6730 H   0  0  0  0  0  0  0  0  0  0  0  0
    5.9980    7.1720   16.2200 H   0  0  0  0  0  0  0  0  0  0  0  0
   -1.2590   11.3780   20.8880 C   0  0  0  0  0  0  0  0  0  0  0  0
   -1.3290   11.3780   22.2880 C   0  0  0  0  0  0  0  0  0  0  0  0
   -0.6120   10.4450   23.0310 C   0  0  0  0  0  0  0  0  0  0  0  0
    0.1920    9.5040   22.3860 C   0  0  0  0  0  0  0  0  0  0  0  0
    0.3000    9.4780   20.9880 C   0  0  0  0  0  0  0  0  0  0  0  0
   -0.4390   10.4230   20.2590 C   0  0  0  0  0  0  0  0  0  0  0  0
   -1.9520   12.1020   22.8090 H   0  0  0  0  0  0  0  0  0  0  0  0
   -0.6800   10.4490   24.1170 H   0  0  0  0  0  0  0  0  0  0  0  0
    0.7330    8.8020   23.0130 H   0  0  0  0  0  0  0  0  0  0  0  0
   -0.3910   10.4300   19.1740 H   0  0  0  0  0  0  0  0  0  0  0  0
   -2.0460   12.4230   20.1090 C   0  0  2  0  0  0  0  0  0  0  0  0
   -2.9220   12.6660   20.7320 H   0  0  0  0  0  0  0  0  0  0  0  0
   -2.6470   11.9070   18.7930 C   0  0  0  0  0  0  0  0  0  0  0  0
   -3.3130   11.0560   18.9760 H   0  0  0  0  0  0  0  0  0  0  0  0
   -3.2380   12.6940   18.3110 H   0  0  0  0  0  0  0  0  0  0  0  0
   -1.8850   11.5810   18.0780 H   0  0  0  0  0  0  0  0  0  0  0  0
   -1.2680   13.7480   19.9490 C   0  0  0  0  0  0  0  0  0  0  0  0
   -1.3330   14.3490   20.8650 H   0  0  0  0  0  0  0  0  0  0  0  0
   -1.7730   14.3450   19.1750 H   0  0  0  0  0  0  0  0  0  0  0  0
    0.1550   13.5980   19.5240 C   0  0  0  0  0  0  0  0  0  0  0  0
    0.5520   13.2410   18.3150 N   0  0  0  0  0  0  0  0  0  0  0  0
    1.9260   13.2220   18.2950 N   0  0  0  0  0  0  0  0  0  0  0  0
    2.3400   13.5730   19.4890 C   0  0  0  0  0  0  0  0  0  0  0  0
    1.2670   13.8440   20.2870 N   0  0  0  0  0  0  0  0  0  0  0  0
    3.3690   13.6530   19.8100 H   0  0  0  0  0  0  0  0  0  0  0  0
    1.3630   14.3180   21.6420 C   0  0  0  0  0  0  0  0  0  0  0  0
    1.8130   13.5640   22.2870 H   0  0  0  0  0  0  0  0  0  0  0  0
    0.3530   14.5370   21.9980 H   0  0  0  0  0  0  0  0  0  0  0  0
    1.9680   15.2260   21.6510 H   0  0  0  0  0  0  0  0  0  0  0  0
    2.1620    4.1550   20.7380 C   0  0  0  0  0  0  0  0  0  0  0  0
    0.8180    3.9380   20.7370 F   0  0  0  0  0  0  0  0  0  0  0  0
    2.7310    2.9370   20.5090 F   0  0  0  0  0  0  0  0  0  0  0  0
    2.4880    4.4880   22.0160 F   0  0  0  0  0  0  0  0  0  0  0  0
  1  2  1  0  0  0  0
  1 36  1  0  0  0  0
  2 12  1  0  0  0  0
  3  2  1  0  0  0  0
  4  9  1  0  0  0  0
  4  3  2  0  0  0  0
  5  4  1  0  0  0  0
  6  5  2  0  0  0  0
  6  7  1  0  0  0  0
  7  8  2  0  0  0  0
  8  3  1  0  0  0  0
  8 61  1  0  0  0  0
  9  1  1  0  0  0  0
 10  9  2  0  0  0  0
 11  2  1  0  0  0  0
 13  5  1  0  0  0  0
 14  7  1  0  0  0  0
 15 20  1  0  0  0  0
 15  6  1  0  0  0  0
 16 15  1  0  0  0  0
 16 22  1  0  0  0  0
 17 24  1  0  0  0  0
 17 16  1  0  0  0  0
 18 17  1  0  0  0  0
 18 19  1  0  0  0  0
 19 28  1  0  0  0  0
 19 20  1  0  0  0  0
 20 30  1  0  0  0  0
 21 15  1  0  0  0  0
 23 16  1  0  0  0  0
 25 17  1  0  0  0  0
 26 18  1  0  0  0  0
 27 18  1  0  0  0  0
 29 19  1  0  0  0  0
 31 20  1  0  0  0  0
 32 33  1  0  0  0  0
 33 38  1  0  0  0  0
 33 34  2  0  0  0  0
 34 39  1  0  0  0  0
 35 40  1  0  0  0  0
 35 34  1  0  0  0  0
 36 35  2  0  0  0  0
 37 32  2  0  0  0  0
 37 36  1  0  0  0  0
 41 37  1  0  0  0  0
 42 43  1  1  0  0  0
 42 32  1  0  0  0  0
 44 45  1  0  0  0  0
 44 42  1  0  0  0  0
 46 44  1  0  0  0  0
 47 44  1  0  0  0  0
 48 42  1  0  0  0  0
 48 49  1  0  0  0  0
 50 48  1  0  0  0  0
 51 48  1  0  0  0  0
 51 55  1  0  0  0  0
 52 51  2  0  0  0  0
 53 52  1  0  0  0  0
 53 54  2  0  0  0  0
 54 56  1  0  0  0  0
 54 55  1  0  0  0  0
 55 57  1  0  0  0  0
 57 60  1  0  0  0  0
 57 59  1  0  0  0  0
 57 58  1  0  0  0  0
 61 64  1  0  0  0  0
 62 61  1  0  0  0  0
 63 61  1  0  0  0  0
M  END
>  <MODEL>
2

>  <REMARK>
 VINA RESULT:    -9.522      1.523      2.539
 INTER + INTRA:         -13.814
 INTER:                 -12.413
 INTRA:                  -1.401
 UNBOUND:                -0.395
  Name = 
  8 active torsions:
  status: ('A' for Active; 'I' for Inactive)
    1  A    between atoms: C_1  and  C_2
    2  A    between atoms: C_2  and  C_3
    3  A    between atoms: C_2  and  C_10
    4  A    between atoms: C_3  and  C_4
    5  A    between atoms: N_8  and  C_9
    6  A    between atoms: C_14  and  N_16
    7  A    between atoms: C_21  and  C_28
    8  A    between atoms: C_23  and  C_24
                            x       y       z     vdW  Elec       q    Type
                         _______ _______ _______ _____ _____    ______ ____

>  <TORSDO>
F 8

$$$$
=
 OpenBabel07192307433D

 64 68  0  0  1  0  0  0  0  0999 V2000
    2.5840    6.9720   18.9670 N   0  0  0  0  0  0  0  0  0  0  0  0
    2.5960    5.5510   19.2900 C   0  0  0  0  0  0  0  0  0  0  0  0
    3.4410    4.9530   18.2120 C   0  0  0  0  0  0  0  0  0  0  0  0
    3.8900    5.9560   17.3630 C   0  0  0  0  0  0  0  0  0  0  0  0
    4.6890    5.7040   16.2620 C   0  0  0  0  0  0  0  0  0  0  0  0
    5.0530    4.3770   15.9960 C   0  0  0  0  0  0  0  0  0  0  0  0
    4.6050    3.3530   16.8670 C   0  0  0  0  0  0  0  0  0  0  0  0
    3.7930    3.6260   17.9880 C   0  0  0  0  0  0  0  0  0  0  0  0
    3.3670    7.2410   17.8390 C   0  0  0  0  0  0  0  0  0  0  0  0
    3.6410    8.2900   17.2840 O   0  0  0  0  0  0  0  0  0  0  0  0
    1.5770    5.1560   19.2510 H   0  0  0  0  0  0  0  0  0  0  0  0
    3.0570    5.3990   20.2710 H   0  0  0  0  0  0  0  0  0  0  0  0
    5.0080    6.5270   15.6280 H   0  0  0  0  0  0  0  0  0  0  0  0
    4.8990    2.3210   16.6670 H   0  0  0  0  0  0  0  0  0  0  0  0
    5.9220    4.0680   14.7870 C   0  0  0  0  0  0  0  0  0  0  0  0
    6.7390    5.2820   14.3210 C   0  0  0  0  0  0  0  0  0  0  0  0
    7.7280    4.9070   13.2120 C   0  0  0  0  0  0  0  0  0  0  0  0
    7.2450    3.7560   12.3260 C   0  0  0  0  0  0  0  0  0  0  0  0
    5.7250    3.6920   12.2530 C   0  0  0  0  0  0  0  0  0  0  0  0
    5.0920    3.4750   13.6300 C   0  0  0  0  0  0  0  0  0  0  0  0
    6.6500    3.3010   15.0880 H   0  0  0  0  0  0  0  0  0  0  0  0
    6.0710    6.0660   13.9420 H   0  0  0  0  0  0  0  0  0  0  0  0
    7.2890    5.7290   15.1580 H   0  0  0  0  0  0  0  0  0  0  0  0
    7.9160    5.7950   12.5970 H   0  0  0  0  0  0  0  0  0  0  0  0
    8.6930    4.6290   13.6530 H   0  0  0  0  0  0  0  0  0  0  0  0
    7.6710    3.8660   11.3210 H   0  0  0  0  0  0  0  0  0  0  0  0
    7.6260    2.8040   12.7220 H   0  0  0  0  0  0  0  0  0  0  0  0
    5.3460    4.6290   11.8240 H   0  0  0  0  0  0  0  0  0  0  0  0
    5.4130    2.8890   11.5750 H   0  0  0  0  0  0  0  0  0  0  0  0
    4.0740    3.8850   13.6040 H   0  0  0  0  0  0  0  0  0  0  0  0
    4.9690    2.3980   13.8100 H   0  0  0  0  0  0  0  0  0  0  0  0
    0.5070    9.9850   19.8510 C   0  0  0  0  0  0  0  0  0  0  0  0
    0.3430    9.7750   21.2270 C   0  0  0  0  0  0  0  0  0  0  0  0
    0.8960    8.6570   21.8420 C   0  0  0  0  0  0  0  0  0  0  0  0
    1.6290    7.7360   21.0920 C   0  0  0  0  0  0  0  0  0  0  0  0
    1.8270    7.9150   19.7150 C   0  0  0  0  0  0  0  0  0  0  0  0
    1.2520    9.0460   19.1150 C   0  0  0  0  0  0  0  0  0  0  0  0
   -0.2260   10.4810   21.8280 H   0  0  0  0  0  0  0  0  0  0  0  0
    0.7560    8.5000   22.9090 H   0  0  0  0  0  0  0  0  0  0  0  0
    2.0420    6.8820   21.6220 H   0  0  0  0  0  0  0  0  0  0  0  0
    1.3740    9.2160   18.0490 H   0  0  0  0  0  0  0  0  0  0  0  0
   -0.1010   11.2290   19.2150 C   0  0  2  0  0  0  0  0  0  0  0  0
    0.1700   11.1830   18.1480 H   0  0  0  0  0  0  0  0  0  0  0  0
    0.5080   12.5500   19.7070 C   0  0  0  0  0  0  0  0  0  0  0  0
    0.3790   12.6590   20.7910 H   0  0  0  0  0  0  0  0  0  0  0  0
    1.5830   12.5740   19.4960 H   0  0  0  0  0  0  0  0  0  0  0  0
    0.0580   13.4270   19.2320 H   0  0  0  0  0  0  0  0  0  0  0  0
   -1.6460   11.2160   19.2550 C   0  0  0  0  0  0  0  0  0  0  0  0
   -2.0320   12.1700   19.6340 H   0  0  0  0  0  0  0  0  0  0  0  0
   -1.9590   10.4630   19.9930 H   0  0  0  0  0  0  0  0  0  0  0  0
   -2.3080   10.8620   17.9640 C   0  0  0  0  0  0  0  0  0  0  0  0
   -1.7520   10.1550   16.9960 N   0  0  0  0  0  0  0  0  0  0  0  0
   -2.6620   10.0230   15.9750 N   0  0  0  0  0  0  0  0  0  0  0  0
   -3.7570   10.6460   16.3430 C   0  0  0  0  0  0  0  0  0  0  0  0
   -3.5920   11.1660   17.5930 N   0  0  0  0  0  0  0  0  0  0  0  0
   -4.6650   10.7350   15.7640 H   0  0  0  0  0  0  0  0  0  0  0  0
   -4.6190   11.8590   18.3250 C   0  0  0  0  0  0  0  0  0  0  0  0
   -5.1800   11.1710   18.9560 H   0  0  0  0  0  0  0  0  0  0  0  0
   -5.2990   12.3200   17.6040 H   0  0  0  0  0  0  0  0  0  0  0  0
   -4.1480   12.6280   18.9390 H   0  0  0  0  0  0  0  0  0  0  0  0
    3.3330    2.5330   18.9140 C   0  0  0  0  0  0  0  0  0  0  0  0
    3.8420    2.6770   20.1680 F   0  0  0  0  0  0  0  0  0  0  0  0
    1.9780    2.5190   19.0660 F   0  0  0  0  0  0  0  0  0  0  0  0
    3.6790    1.2830   18.5080 F   0  0  0  0  0  0  0  0  0  0  0  0
  1  2  1  0  0  0  0
  1 36  1  0  0  0  0
  2 12  1  0  0  0  0
  3  2  1  0  0  0  0
  4  9  1  0  0  0  0
  4  3  2  0  0  0  0
  5  4  1  0  0  0  0
  6  5  2  0  0  0  0
  6  7  1  0  0  0  0
  7  8  2  0  0  0  0
  8  3  1  0  0  0  0
  8 61  1  0  0  0  0
  9  1  1  0  0  0  0
 10  9  2  0  0  0  0
 11  2  1  0  0  0  0
 13  5  1  0  0  0  0
 14  7  1  0  0  0  0
 15 21  1  0  0  0  0
 15  6  1  0  0  0  0
 16 15  1  0  0  0  0
 16 23  1  0  0  0  0
 17 25  1  0  0  0  0
 17 16  1  0  0  0  0
 18 27  1  0  0  0  0
 18 17  1  0  0  0  0
 19 18  1  0  0  0  0
 19 20  1  0  0  0  0
 20 31  1  0  0  0  0
 20 15  1  0  0  0  0
 22 16  1  0  0  0  0
 24 17  1  0  0  0  0
 26 18  1  0  0  0  0
 28 19  1  0  0  0  0
 29 19  1  0  0  0  0
 30 20  1  0  0  0  0
 32 33  1  0  0  0  0
 33 38  1  0  0  0  0
 33 34  2  0  0  0  0
 34 39  1  0  0  0  0
 35 40  1  0  0  0  0
 35 34  1  0  0  0  0
 36 35  2  0  0  0  0
 37 36  1  0  0  0  0
 37 32  2  0  0  0  0
 41 37  1  0  0  0  0
 42 43  1  6  0  0  0
 42 48  1  0  0  0  0
 42 44  1  0  0  0  0
 42 32  1  0  0  0  0
 44 45  1  0  0  0  0
 46 44  1  0  0  0  0
 47 44  1  0  0  0  0
 48 49  1  0  0  0  0
 48 50  1  0  0  0  0
 51 48  1  0  0  0  0
 52 51  2  0  0  0  0
 53 54  2  0  0  0  0
 53 52  1  0  0  0  0
 54 55  1  0  0  0  0
 55 51  1  0  0  0  0
 55 57  1  0  0  0  0
 56 54  1  0  0  0  0
 57 60  1  0  0  0  0
 57 58  1  0  0  0  0
 59 57  1  0  0  0  0
 61 63  1  0  0  0  0
 61 62  1  0  0  0  0
 64 61  1  0  0  0  0
M  END
>  <MODEL>
3

>  <REMARK>
 VINA RESULT:    -9.427      1.517      2.559
 INTER + INTRA:         -13.680
 INTER:                 -12.423
 INTRA:                  -1.257
 UNBOUND:                -0.395
  Name = 
  8 active torsions:
  status: ('A' for Active; 'I' for Inactive)
    1  A    between atoms: C_1  and  C_2
    2  A    between atoms: C_2  and  C_3
    3  A    between atoms: C_2  and  C_10
    4  A    between atoms: C_3  and  C_4
    5  A    between atoms: N_8  and  C_9
    6  A    between atoms: C_14  and  N_16
    7  A    between atoms: C_21  and  C_28
    8  A    between atoms: C_23  and  C_24
                            x       y       z     vdW  Elec       q    Type
                         _______ _______ _______ _____ _____    ______ ____

>  <TORSDO>
F 8

$$$$
=
 OpenBabel07192307433D

 64 68  0  0  1  0  0  0  0  0999 V2000
    1.1780    8.4090   20.3870 N   0  0  0  0  0  0  0  0  0  0  0  0
    1.2680    7.0180   20.8120 C   0  0  0  0  0  0  0  0  0  0  0  0
    2.1630    6.3940   19.7900 C   0  0  0  0  0  0  0  0  0  0  0  0
    2.5650    7.3590   18.8750 C   0  0  0  0  0  0  0  0  0  0  0  0
    3.3950    7.0770   17.8040 C   0  0  0  0  0  0  0  0  0  0  0  0
    3.8400    5.7570   17.6400 C   0  0  0  0  0  0  0  0  0  0  0  0
    3.4380    4.7740   18.5780 C   0  0  0  0  0  0  0  0  0  0  0  0
    2.5940    5.0780   19.6660 C   0  0  0  0  0  0  0  0  0  0  0  0
    1.9620    8.6420   19.2510 C   0  0  0  0  0  0  0  0  0  0  0  0
    2.1820    9.6620   18.6250 O   0  0  0  0  0  0  0  0  0  0  0  0
    0.2730    6.5610   20.7900 H   0  0  0  0  0  0  0  0  0  0  0  0
    1.7210    6.9640   21.8060 H   0  0  0  0  0  0  0  0  0  0  0  0
    3.6760    7.8690   17.1160 H   0  0  0  0  0  0  0  0  0  0  0  0
    3.7950    3.7500   18.4570 H   0  0  0  0  0  0  0  0  0  0  0  0
    4.7430    5.4140   16.4670 C   0  0  0  0  0  0  0  0  0  0  0  0
    4.9120    3.8990   16.2730 C   0  0  0  0  0  0  0  0  0  0  0  0
    5.6870    3.5760   14.9910 C   0  0  0  0  0  0  0  0  0  0  0  0
    6.7080    4.6490   14.6050 C   0  0  0  0  0  0  0  0  0  0  0  0
    7.2310    5.4010   15.8220 C   0  0  0  0  0  0  0  0  0  0  0  0
    6.1110    6.1190   16.5810 C   0  0  0  0  0  0  0  0  0  0  0  0
    4.2610    5.7910   15.5530 H   0  0  0  0  0  0  0  0  0  0  0  0
    5.4510    3.4660   17.1250 H   0  0  0  0  0  0  0  0  0  0  0  0
    3.9380    3.3970   16.2420 H   0  0  0  0  0  0  0  0  0  0  0  0
    6.1940    2.6130   15.1240 H   0  0  0  0  0  0  0  0  0  0  0  0
    4.9870    3.4420   14.1580 H   0  0  0  0  0  0  0  0  0  0  0  0
    7.5370    4.1840   14.0590 H   0  0  0  0  0  0  0  0  0  0  0  0
    6.2430    5.3650   13.9140 H   0  0  0  0  0  0  0  0  0  0  0  0
    7.7270    4.6910   16.4970 H   0  0  0  0  0  0  0  0  0  0  0  0
    7.9930    6.1280   15.5180 H   0  0  0  0  0  0  0  0  0  0  0  0
    6.4270    6.2340   17.6250 H   0  0  0  0  0  0  0  0  0  0  0  0
    6.0050    7.1420   16.1930 H   0  0  0  0  0  0  0  0  0  0  0  0
   -1.0840   11.3500   21.0260 C   0  0  0  0  0  0  0  0  0  0  0  0
   -1.2570   11.2300   22.4110 C   0  0  0  0  0  0  0  0  0  0  0  0
   -0.6500   10.1930   23.1120 C   0  0  0  0  0  0  0  0  0  0  0  0
    0.1470    9.2650   22.4390 C   0  0  0  0  0  0  0  0  0  0  0  0
    0.3560    9.3560   21.0550 C   0  0  0  0  0  0  0  0  0  0  0  0
   -0.2730   10.4060   20.3680 C   0  0  0  0  0  0  0  0  0  0  0  0
   -1.8750   11.9420   22.9530 H   0  0  0  0  0  0  0  0  0  0  0  0
   -0.7980   10.1040   24.1860 H   0  0  0  0  0  0  0  0  0  0  0  0
    0.6000    8.4770   23.0340 H   0  0  0  0  0  0  0  0  0  0  0  0
   -0.1450   10.5060   19.2950 H   0  0  0  0  0  0  0  0  0  0  0  0
   -1.7520   12.5070   20.2950 C   0  0  2  0  0  0  0  0  0  0  0  0
   -2.8250   12.2560   20.2530 H   0  0  0  0  0  0  0  0  0  0  0  0
   -1.3360   12.6470   18.8230 C   0  0  0  0  0  0  0  0  0  0  0  0
   -0.4570   12.0270   18.6070 H   0  0  0  0  0  0  0  0  0  0  0  0
   -2.1470   12.3150   18.1660 H   0  0  0  0  0  0  0  0  0  0  0  0
   -1.0880   13.6770   18.5490 H   0  0  0  0  0  0  0  0  0  0  0  0
   -1.6650   13.8320   21.0840 C   0  0  0  0  0  0  0  0  0  0  0  0
   -1.3430   14.6520   20.4300 H   0  0  0  0  0  0  0  0  0  0  0  0
   -0.8650   13.7280   21.8330 H   0  0  0  0  0  0  0  0  0  0  0  0
   -2.9060   14.2120   21.8230 C   0  0  0  0  0  0  0  0  0  0  0  0
   -4.1170   14.2590   21.2960 N   0  0  0  0  0  0  0  0  0  0  0  0
   -5.0040   14.6340   22.2750 N   0  0  0  0  0  0  0  0  0  0  0  0
   -4.3190   14.8020   23.3820 C   0  0  0  0  0  0  0  0  0  0  0  0
   -3.0030   14.5240   23.1540 N   0  0  0  0  0  0  0  0  0  0  0  0
   -4.7170   15.1030   24.3400 H   0  0  0  0  0  0  0  0  0  0  0  0
   -1.9820   14.5470   24.1670 C   0  0  0  0  0  0  0  0  0  0  0  0
   -1.8910   15.5400   24.6060 H   0  0  0  0  0  0  0  0  0  0  0  0
   -1.0320   14.2730   23.7000 H   0  0  0  0  0  0  0  0  0  0  0  0
   -2.2420   13.8210   24.9400 H   0  0  0  0  0  0  0  0  0  0  0  0
    2.1840    4.0300   20.6640 C   0  0  0  0  0  0  0  0  0  0  0  0
    0.8410    3.8050   20.6470 F   0  0  0  0  0  0  0  0  0  0  0  0
    2.7630    2.8210   20.4160 F   0  0  0  0  0  0  0  0  0  0  0  0
    2.4970    4.3390   21.9510 F   0  0  0  0  0  0  0  0  0  0  0  0
  1  2  1  0  0  0  0
  1 36  1  0  0  0  0
  2 12  1  0  0  0  0
  3  2  1  0  0  0  0
  4  9  1  0  0  0  0
  4  3  2  0  0  0  0
  5  4  1  0  0  0  0
  6  5  2  0  0  0  0
  6  7  1  0  0  0  0
  7  8  2  0  0  0  0
  8  3  1  0  0  0  0
  8 61  1  0  0  0  0
  9  1  1  0  0  0  0
 10  9  2  0  0  0  0
 11  2  1  0  0  0  0
 13  5  1  0  0  0  0
 14  7  1  0  0  0  0
 15 20  1  0  0  0  0
 15  6  1  0  0  0  0
 16 15  1  0  0  0  0
 16 22  1  0  0  0  0
 17 24  1  0  0  0  0
 17 16  1  0  0  0  0
 18 17  1  0  0  0  0
 18 19  1  0  0  0  0
 19 28  1  0  0  0  0
 19 20  1  0  0  0  0
 20 30  1  0  0  0  0
 21 15  1  0  0  0  0
 23 16  1  0  0  0  0
 25 17  1  0  0  0  0
 26 18  1  0  0  0  0
 27 18  1  0  0  0  0
 29 19  1  0  0  0  0
 31 20  1  0  0  0  0
 32 33  1  0  0  0  0
 33 38  1  0  0  0  0
 33 34  2  0  0  0  0
 34 39  1  0  0  0  0
 35 40  1  0  0  0  0
 35 34  1  0  0  0  0
 36 35  2  0  0  0  0
 37 32  2  0  0  0  0
 37 36  1  0  0  0  0
 41 37  1  0  0  0  0
 42 43  1  6  0  0  0
 42 32  1  0  0  0  0
 42 48  1  0  0  0  0
 44 42  1  0  0  0  0
 45 44  1  0  0  0  0
 46 44  1  0  0  0  0
 47 44  1  0  0  0  0
 48 51  1  0  0  0  0
 48 50  1  0  0  0  0
 49 48  1  0  0  0  0
 51 55  1  0  0  0  0
 52 51  2  0  0  0  0
 52 53  1  0  0  0  0
 53 54  2  0  0  0  0
 54 56  1  0  0  0  0
 55 54  1  0  0  0  0
 55 57  1  0  0  0  0
 57 58  1  0  0  0  0
 57 60  1  0  0  0  0
 59 57  1  0  0  0  0
 61 64  1  0  0  0  0
 62 61  1  0  0  0  0
 63 61  1  0  0  0  0
M  END
>  <MODEL>
4

>  <REMARK>
 VINA RESULT:    -9.177      1.913      2.856
 INTER + INTRA:         -13.328
 INTER:                 -12.176
 INTRA:                  -1.152
 UNBOUND:                -0.395
  Name = 
  8 active torsions:
  status: ('A' for Active; 'I' for Inactive)
    1  A    between atoms: C_1  and  C_2
    2  A    between atoms: C_2  and  C_3
    3  A    between atoms: C_2  and  C_10
    4  A    between atoms: C_3  and  C_4
    5  A    between atoms: N_8  and  C_9
    6  A    between atoms: C_14  and  N_16
    7  A    between atoms: C_21  and  C_28
    8  A    between atoms: C_23  and  C_24
                            x       y       z     vdW  Elec       q    Type
                         _______ _______ _______ _____ _____    ______ ____

>  <TORSDO>
F 8

$$$$
=
 OpenBabel07192307433D

 64 68  0  0  1  0  0  0  0  0999 V2000
    2.6700    6.8440   18.9450 N   0  0  0  0  0  0  0  0  0  0  0  0
    2.6790    5.4150   19.2320 C   0  0  0  0  0  0  0  0  0  0  0  0
    3.5250    4.8430   18.1410 C   0  0  0  0  0  0  0  0  0  0  0  0
    3.9780    5.8670   17.3190 C   0  0  0  0  0  0  0  0  0  0  0  0
    4.7800    5.6420   16.2140 C   0  0  0  0  0  0  0  0  0  0  0  0
    5.1420    4.3200   15.9160 C   0  0  0  0  0  0  0  0  0  0  0  0
    4.6890    3.2760   16.7590 C   0  0  0  0  0  0  0  0  0  0  0  0
    3.8750    3.5220   17.8840 C   0  0  0  0  0  0  0  0  0  0  0  0
    3.4570    7.1410   17.8270 C   0  0  0  0  0  0  0  0  0  0  0  0
    3.7340    8.2030   17.3000 O   0  0  0  0  0  0  0  0  0  0  0  0
    1.6580    5.0230   19.1800 H   0  0  0  0  0  0  0  0  0  0  0  0
    3.1360    5.2370   20.2100 H   0  0  0  0  0  0  0  0  0  0  0  0
    5.1030    6.4800   15.6020 H   0  0  0  0  0  0  0  0  0  0  0  0
    4.9820    2.2490   16.5340 H   0  0  0  0  0  0  0  0  0  0  0  0
    6.0130    4.0410   14.7020 C   0  0  0  0  0  0  0  0  0  0  0  0
    6.7930    5.2800   14.2360 C   0  0  0  0  0  0  0  0  0  0  0  0
    7.7860    4.9370   13.1210 C   0  0  0  0  0  0  0  0  0  0  0  0
    7.3330    3.7750   12.2330 C   0  0  0  0  0  0  0  0  0  0  0  0
    5.8160    3.6670   12.1670 C   0  0  0  0  0  0  0  0  0  0  0  0
    5.1950    3.4270   13.5470 C   0  0  0  0  0  0  0  0  0  0  0  0
    6.7660    3.2950   14.9960 H   0  0  0  0  0  0  0  0  0  0  0  0
    6.1010    6.0450   13.8620 H   0  0  0  0  0  0  0  0  0  0  0  0
    7.3340    5.7410   15.0710 H   0  0  0  0  0  0  0  0  0  0  0  0
    7.9460    5.8320   12.5070 H   0  0  0  0  0  0  0  0  0  0  0  0
    8.7620    4.6860   13.5560 H   0  0  0  0  0  0  0  0  0  0  0  0
    7.7510    3.9010   11.2270 H   0  0  0  0  0  0  0  0  0  0  0  0
    7.7440    2.8340   12.6240 H   0  0  0  0  0  0  0  0  0  0  0  0
    5.4080    4.5940   11.7430 H   0  0  0  0  0  0  0  0  0  0  0  0
    5.5230    2.8580   11.4880 H   0  0  0  0  0  0  0  0  0  0  0  0
    4.1660    3.8080   13.5270 H   0  0  0  0  0  0  0  0  0  0  0  0
    5.1050    2.3470   13.7240 H   0  0  0  0  0  0  0  0  0  0  0  0
    0.7500    9.9240   19.9490 C   0  0  0  0  0  0  0  0  0  0  0  0
    0.4250    9.5900   21.2700 C   0  0  0  0  0  0  0  0  0  0  0  0
    0.8210    8.3710   21.8100 C   0  0  0  0  0  0  0  0  0  0  0  0
    1.5560    7.4690   21.0380 C   0  0  0  0  0  0  0  0  0  0  0  0
    1.9130    7.7690   19.7150 C   0  0  0  0  0  0  0  0  0  0  0  0
    1.4950    9.0020   19.1900 C   0  0  0  0  0  0  0  0  0  0  0  0
   -0.1490   10.2790   21.8870 H   0  0  0  0  0  0  0  0  0  0  0  0
    0.5560    8.1190   22.8340 H   0  0  0  0  0  0  0  0  0  0  0  0
    1.8430    6.5330   21.5080 H   0  0  0  0  0  0  0  0  0  0  0  0
    1.7430    9.2680   18.1670 H   0  0  0  0  0  0  0  0  0  0  0  0
    0.3110   11.2740   19.3980 C   0  0  2  0  0  0  0  0  0  0  0  0
   -0.4010   11.0510   18.5870 H   0  0  0  0  0  0  0  0  0  0  0  0
    1.4320   12.0680   18.7110 C   0  0  0  0  0  0  0  0  0  0  0  0
    1.2370   12.1670   17.6360 H   0  0  0  0  0  0  0  0  0  0  0  0
    1.4960   13.0780   19.1320 H   0  0  0  0  0  0  0  0  0  0  0  0
    2.4150   11.6000   18.8250 H   0  0  0  0  0  0  0  0  0  0  0  0
   -0.4810   12.1040   20.4330 C   0  0  0  0  0  0  0  0  0  0  0  0
   -0.0130   13.0860   20.5810 H   0  0  0  0  0  0  0  0  0  0  0  0
   -0.4020   11.5960   21.4050 H   0  0  0  0  0  0  0  0  0  0  0  0
   -1.9360   12.2600   20.1380 C   0  0  0  0  0  0  0  0  0  0  0  0
   -2.5530   11.7570   19.0830 N   0  0  0  0  0  0  0  0  0  0  0  0
   -3.8840   12.0950   19.1550 N   0  0  0  0  0  0  0  0  0  0  0  0
   -4.0530   12.7900   20.2550 C   0  0  0  0  0  0  0  0  0  0  0  0
   -2.8650   12.8980   20.9180 N   0  0  0  0  0  0  0  0  0  0  0  0
   -4.9830   13.2120   20.6070 H   0  0  0  0  0  0  0  0  0  0  0  0
   -2.7040   13.5450   22.1930 C   0  0  0  0  0  0  0  0  0  0  0  0
   -3.4520   13.1960   22.9040 H   0  0  0  0  0  0  0  0  0  0  0  0
   -2.8220   14.6210   22.0460 H   0  0  0  0  0  0  0  0  0  0  0  0
   -1.7020   13.3270   22.5690 H   0  0  0  0  0  0  0  0  0  0  0  0
    3.4100    2.4070   18.7810 C   0  0  0  0  0  0  0  0  0  0  0  0
    3.8030    1.1860   18.3260 F   0  0  0  0  0  0  0  0  0  0  0  0
    3.9150    2.5110   20.0430 F   0  0  0  0  0  0  0  0  0  0  0  0
    2.0590    2.3390   18.9210 F   0  0  0  0  0  0  0  0  0  0  0  0
  1  2  1  0  0  0  0
  1 36  1  0  0  0  0
  2 12  1  0  0  0  0
  3  2  1  0  0  0  0
  4  9  1  0  0  0  0
  4  3  2  0  0  0  0
  5  4  1  0  0  0  0
  6  5  2  0  0  0  0
  6  7  1  0  0  0  0
  7  8  2  0  0  0  0
  8  3  1  0  0  0  0
  8 61  1  0  0  0  0
  9  1  1  0  0  0  0
 10  9  2  0  0  0  0
 11  2  1  0  0  0  0
 13  5  1  0  0  0  0
 14  7  1  0  0  0  0
 15 21  1  0  0  0  0
 15  6  1  0  0  0  0
 16 15  1  0  0  0  0
 16 23  1  0  0  0  0
 17 25  1  0  0  0  0
 17 16  1  0  0  0  0
 18 27  1  0  0  0  0
 18 17  1  0  0  0  0
 19 18  1  0  0  0  0
 19 20  1  0  0  0  0
 20 31  1  0  0  0  0
 20 15  1  0  0  0  0
 22 16  1  0  0  0  0
 24 17  1  0  0  0  0
 26 18  1  0  0  0  0
 28 19  1  0  0  0  0
 29 19  1  0  0  0  0
 30 20  1  0  0  0  0
 32 33  1  0  0  0  0
 33 34  2  0  0  0  0
 33 38  1  0  0  0  0
 34 39  1  0  0  0  0
 35 40  1  0  0  0  0
 35 34  1  0  0  0  0
 36 35  2  0  0  0  0
 37 36  1  0  0  0  0
 37 32  2  0  0  0  0
 41 37  1  0  0  0  0
 42 43  1  6  0  0  0
 42 32  1  0  0  0  0
 42 48  1  0  0  0  0
 44 47  1  0  0  0  0
 44 46  1  0  0  0  0
 44 42  1  0  0  0  0
 45 44  1  0  0  0  0
 48 49  1  0  0  0  0
 48 50  1  0  0  0  0
 51 48  1  0  0  0  0
 51 55  1  0  0  0  0
 52 53  1  0  0  0  0
 52 51  2  0  0  0  0
 53 54  2  0  0  0  0
 54 56  1  0  0  0  0
 54 55  1  0  0  0  0
 55 57  1  0  0  0  0
 57 60  1  0  0  0  0
 57 58  1  0  0  0  0
 59 57  1  0  0  0  0
 61 64  1  0  0  0  0
 61 63  1  0  0  0  0
 62 61  1  0  0  0  0
M  END
>  <MODEL>
5

>  <REMARK>
 VINA RESULT:    -8.904      1.776      3.105
 INTER + INTRA:         -12.944
 INTER:                 -11.794
 INTRA:                  -1.150
 UNBOUND:                -0.395
  Name = 
  8 active torsions:
  status: ('A' for Active; 'I' for Inactive)
    1  A    between atoms: C_1  and  C_2
    2  A    between atoms: C_2  and  C_3
    3  A    between atoms: C_2  and  C_10
    4  A    between atoms: C_3  and  C_4
    5  A    between atoms: N_8  and  C_9
    6  A    between atoms: C_14  and  N_16
    7  A    between atoms: C_21  and  C_28
    8  A    between atoms: C_23  and  C_24
                            x       y       z     vdW  Elec       q    Type
                         _______ _______ _______ _____ _____    ______ ____

>  <TORSDO>
F 8

$$$$
=
 OpenBabel07192307433D

 64 68  0  0  1  0  0  0  0  0999 V2000
    2.5580    6.9330   19.0030 N   0  0  0  0  0  0  0  0  0  0  0  0
    2.5250    5.5010   19.2710 C   0  0  0  0  0  0  0  0  0  0  0  0
    3.3810    4.9220   18.1920 C   0  0  0  0  0  0  0  0  0  0  0  0
    3.8770    5.9440   17.3930 C   0  0  0  0  0  0  0  0  0  0  0  0
    4.6970    5.7130   16.3030 C   0  0  0  0  0  0  0  0  0  0  0  0
    5.0330    4.3870   15.9950 C   0  0  0  0  0  0  0  0  0  0  0  0
    4.5370    3.3440   16.8150 C   0  0  0  0  0  0  0  0  0  0  0  0
    3.7040    3.5950   17.9250 C   0  0  0  0  0  0  0  0  0  0  0  0
    3.3760    7.2240   17.9060 C   0  0  0  0  0  0  0  0  0  0  0  0
    3.6900    8.2850   17.3980 O   0  0  0  0  0  0  0  0  0  0  0  0
    1.4970    5.1350   19.1920 H   0  0  0  0  0  0  0  0  0  0  0  0
    2.9560    5.3000   20.2560 H   0  0  0  0  0  0  0  0  0  0  0  0
    5.0540    6.5510   15.7090 H   0  0  0  0  0  0  0  0  0  0  0  0
    4.8100    2.3130   16.5830 H   0  0  0  0  0  0  0  0  0  0  0  0
    5.9240    4.1020   14.7970 C   0  0  0  0  0  0  0  0  0  0  0  0
    6.7240    5.3340   14.3470 C   0  0  0  0  0  0  0  0  0  0  0  0
    7.7340    4.9830   13.2500 C   0  0  0  0  0  0  0  0  0  0  0  0
    7.2870    3.8270   12.3520 C   0  0  0  0  0  0  0  0  0  0  0  0
    5.7690    3.7330   12.2580 C   0  0  0  0  0  0  0  0  0  0  0  0
    5.1220    3.4970   13.6260 C   0  0  0  0  0  0  0  0  0  0  0  0
    6.6640    3.3480   15.1040 H   0  0  0  0  0  0  0  0  0  0  0  0
    6.0450    6.1060   13.9630 H   0  0  0  0  0  0  0  0  0  0  0  0
    7.2540    5.7880   15.1930 H   0  0  0  0  0  0  0  0  0  0  0  0
    7.9130    5.8780   12.6410 H   0  0  0  0  0  0  0  0  0  0  0  0
    8.6990    4.7230   13.7030 H   0  0  0  0  0  0  0  0  0  0  0  0
    7.7230    3.9500   11.3540 H   0  0  0  0  0  0  0  0  0  0  0  0
    7.6810    2.8810   12.7490 H   0  0  0  0  0  0  0  0  0  0  0  0
    5.3780    4.6650   11.8280 H   0  0  0  0  0  0  0  0  0  0  0  0
    5.4820    2.9280   11.5730 H   0  0  0  0  0  0  0  0  0  0  0  0
    4.0960    3.8870   13.5880 H   0  0  0  0  0  0  0  0  0  0  0  0
    5.0180    2.4170   13.7990 H   0  0  0  0  0  0  0  0  0  0  0  0
    0.5030    9.9450   19.9430 C   0  0  0  0  0  0  0  0  0  0  0  0
    0.3340    9.7090   21.3130 C   0  0  0  0  0  0  0  0  0  0  0  0
    0.8760    8.5740   21.9070 C   0  0  0  0  0  0  0  0  0  0  0  0
    1.6030    7.6620   21.1400 C   0  0  0  0  0  0  0  0  0  0  0  0
    1.8070    7.8670   19.7680 C   0  0  0  0  0  0  0  0  0  0  0  0
    1.2430    9.0150   19.1890 C   0  0  0  0  0  0  0  0  0  0  0  0
   -0.2310   10.4070   21.9270 H   0  0  0  0  0  0  0  0  0  0  0  0
    0.7320    8.3960   22.9700 H   0  0  0  0  0  0  0  0  0  0  0  0
    2.0080    6.7940   21.6540 H   0  0  0  0  0  0  0  0  0  0  0  0
    1.3690    9.2060   18.1280 H   0  0  0  0  0  0  0  0  0  0  0  0
   -0.0930   11.2060   19.3310 C   0  0  2  0  0  0  0  0  0  0  0  0
   -0.5900   11.7360   20.1590 H   0  0  0  0  0  0  0  0  0  0  0  0
   -1.2170   10.9450   18.3180 C   0  0  0  0  0  0  0  0  0  0  0  0
   -1.4900    9.8820   18.3050 H   0  0  0  0  0  0  0  0  0  0  0  0
   -2.1130   11.5150   18.5880 H   0  0  0  0  0  0  0  0  0  0  0  0
   -0.9420   11.2260   17.2960 H   0  0  0  0  0  0  0  0  0  0  0  0
    0.9900   12.1750   18.8050 C   0  0  0  0  0  0  0  0  0  0  0  0
    0.6560   12.6660   17.8820 H   0  0  0  0  0  0  0  0  0  0  0  0
    1.8670   11.5770   18.5150 H   0  0  0  0  0  0  0  0  0  0  0  0
    1.4630   13.1900   19.7930 C   0  0  0  0  0  0  0  0  0  0  0  0
    0.9370   13.3850   20.9900 N   0  0  0  0  0  0  0  0  0  0  0  0
    1.6380   14.3880   21.6150 N   0  0  0  0  0  0  0  0  0  0  0  0
    2.5810   14.7810   20.7910 C   0  0  0  0  0  0  0  0  0  0  0  0
    2.5270   14.0410   19.6460 N   0  0  0  0  0  0  0  0  0  0  0  0
    3.3060   15.5600   20.9760 H   0  0  0  0  0  0  0  0  0  0  0  0
    3.4560   14.1680   18.5550 C   0  0  0  0  0  0  0  0  0  0  0  0
    4.2220   13.3940   18.6030 H   0  0  0  0  0  0  0  0  0  0  0  0
    3.9330   15.1490   18.6250 H   0  0  0  0  0  0  0  0  0  0  0  0
    2.9040   14.0870   17.6170 H   0  0  0  0  0  0  0  0  0  0  0  0
    3.1920    2.4820   18.7970 C   0  0  0  0  0  0  0  0  0  0  0  0
    1.8320    2.4390   18.8270 F   0  0  0  0  0  0  0  0  0  0  0  0
    3.5900    1.2540   18.3580 F   0  0  0  0  0  0  0  0  0  0  0  0
    3.5950    2.5660   20.0930 F   0  0  0  0  0  0  0  0  0  0  0  0
  1  2  1  0  0  0  0
  1 36  1  0  0  0  0
  2 12  1  0  0  0  0
  3  2  1  0  0  0  0
  4  9  1  0  0  0  0
  4  3  2  0  0  0  0
  5  4  1  0  0  0  0
  6  5  2  0  0  0  0
  6  7  1  0  0  0  0
  7  8  2  0  0  0  0
  8  3  1  0  0  0  0
  8 61  1  0  0  0  0
  9  1  1  0  0  0  0
 10  9  2  0  0  0  0
 11  2  1  0  0  0  0
 13  5  1  0  0  0  0
 14  7  1  0  0  0  0
 15 21  1  0  0  0  0
 15  6  1  0  0  0  0
 16 15  1  0  0  0  0
 16 23  1  0  0  0  0
 17 25  1  0  0  0  0
 17 16  1  0  0  0  0
 18 27  1  0  0  0  0
 18 17  1  0  0  0  0
 19 18  1  0  0  0  0
 19 20  1  0  0  0  0
 20 31  1  0  0  0  0
 20 15  1  0  0  0  0
 22 16  1  0  0  0  0
 24 17  1  0  0  0  0
 26 18  1  0  0  0  0
 28 19  1  0  0  0  0
 29 19  1  0  0  0  0
 30 20  1  0  0  0  0
 32 33  1  0  0  0  0
 33 34  2  0  0  0  0
 33 38  1  0  0  0  0
 34 39  1  0  0  0  0
 35 40  1  0  0  0  0
 35 34  1  0  0  0  0
 36 35  2  0  0  0  0
 37 36  1  0  0  0  0
 37 32  2  0  0  0  0
 41 37  1  0  0  0  0
 42 32  1  0  0  0  0
 42 43  1  1  0  0  0
 44 46  1  0  0  0  0
 44 42  1  0  0  0  0
 45 44  1  0  0  0  0
 47 44  1  0  0  0  0
 48 42  1  0  0  0  0
 48 51  1  0  0  0  0
 49 48  1  0  0  0  0
 50 48  1  0  0  0  0
 51 52  2  0  0  0  0
 52 53  1  0  0  0  0
 54 56  1  0  0  0  0
 54 53  2  0  0  0  0
 55 51  1  0  0  0  0
 55 54  1  0  0  0  0
 57 58  1  0  0  0  0
 57 59  1  0  0  0  0
 57 55  1  0  0  0  0
 60 57  1  0  0  0  0
 61 62  1  0  0  0  0
 61 64  1  0  0  0  0
 63 61  1  0  0  0  0
M  END
>  <MODEL>
6

>  <REMARK>
 VINA RESULT:    -8.855      2.475      3.927
 INTER + INTRA:         -12.874
 INTER:                 -11.602
 INTRA:                  -1.272
 UNBOUND:                -0.395
  Name = 
  8 active torsions:
  status: ('A' for Active; 'I' for Inactive)
    1  A    between atoms: C_1  and  C_2
    2  A    between atoms: C_2  and  C_3
    3  A    between atoms: C_2  and  C_10
    4  A    between atoms: C_3  and  C_4
    5  A    between atoms: N_8  and  C_9
    6  A    between atoms: C_14  and  N_16
    7  A    between atoms: C_21  and  C_28
    8  A    between atoms: C_23  and  C_24
                            x       y       z     vdW  Elec       q    Type
                         _______ _______ _______ _____ _____    ______ ____

>  <TORSDO>
F 8

$$$$
=
 OpenBabel07192307433D

 64 68  0  0  1  0  0  0  0  0999 V2000
    1.0880    9.2680   19.2640 N   0  0  0  0  0  0  0  0  0  0  0  0
    1.1660    7.9850   19.9520 C   0  0  0  0  0  0  0  0  0  0  0  0
    2.1960    7.2320   19.1740 C   0  0  0  0  0  0  0  0  0  0  0  0
    2.6790    8.0320   18.1460 C   0  0  0  0  0  0  0  0  0  0  0  0
    3.6410    7.6020   17.2490 C   0  0  0  0  0  0  0  0  0  0  0  0
    4.1410    6.2990   17.3880 C   0  0  0  0  0  0  0  0  0  0  0  0
    3.6570    5.4850   18.4420 C   0  0  0  0  0  0  0  0  0  0  0  0
    2.6790    5.9390   19.3500 C   0  0  0  0  0  0  0  0  0  0  0  0
    1.9960    9.3290   18.2020 C   0  0  0  0  0  0  0  0  0  0  0  0
    2.2610   10.2280   17.4240 O   0  0  0  0  0  0  0  0  0  0  0  0
    0.1960    7.4810   19.9030 H   0  0  0  0  0  0  0  0  0  0  0  0
    1.4960    8.1380   20.9830 H   0  0  0  0  0  0  0  0  0  0  0  0
    3.9790    8.2680   16.4600 H   0  0  0  0  0  0  0  0  0  0  0  0
    4.0560    4.4760   18.5570 H   0  0  0  0  0  0  0  0  0  0  0  0
    5.1900    5.7940   16.4110 C   0  0  0  0  0  0  0  0  0  0  0  0
    4.8290    4.4270   15.8100 C   0  0  0  0  0  0  0  0  0  0  0  0
    5.8130    4.0160   14.7090 C   0  0  0  0  0  0  0  0  0  0  0  0
    7.2280    4.5590   14.9170 C   0  0  0  0  0  0  0  0  0  0  0  0
    7.5460    4.7680   16.3920 C   0  0  0  0  0  0  0  0  0  0  0  0
    6.5940    5.7710   17.0500 C   0  0  0  0  0  0  0  0  0  0  0  0
    5.2300    6.5010   15.5700 H   0  0  0  0  0  0  0  0  0  0  0  0
    4.8380    3.6550   16.5900 H   0  0  0  0  0  0  0  0  0  0  0  0
    3.8120    4.4340   15.4010 H   0  0  0  0  0  0  0  0  0  0  0  0
    5.8400    2.9210   14.6560 H   0  0  0  0  0  0  0  0  0  0  0  0
    5.4450    4.3610   13.7340 H   0  0  0  0  0  0  0  0  0  0  0  0
    7.9530    3.8720   14.4650 H   0  0  0  0  0  0  0  0  0  0  0  0
    7.3350    5.5160   14.3880 H   0  0  0  0  0  0  0  0  0  0  0  0
    7.4750    3.8050   16.9150 H   0  0  0  0  0  0  0  0  0  0  0  0
    8.5800    5.1120   16.5110 H   0  0  0  0  0  0  0  0  0  0  0  0
    6.5520    5.5460   18.1230 H   0  0  0  0  0  0  0  0  0  0  0  0
    7.0220    6.7810   16.9790 H   0  0  0  0  0  0  0  0  0  0  0  0
   -0.5120   12.1280   21.1190 C   0  0  0  0  0  0  0  0  0  0  0  0
   -1.6970   12.2650   20.3840 C   0  0  0  0  0  0  0  0  0  0  0  0
   -1.9520   11.4400   19.2940 C   0  0  0  0  0  0  0  0  0  0  0  0
   -1.0290   10.4580   18.9270 C   0  0  0  0  0  0  0  0  0  0  0  0
    0.1630   10.2790   19.6450 C   0  0  0  0  0  0  0  0  0  0  0  0
    0.4020   11.1290   20.7360 C   0  0  0  0  0  0  0  0  0  0  0  0
   -2.4270   13.0260   20.6530 H   0  0  0  0  0  0  0  0  0  0  0  0
   -2.8710   11.5610   18.7250 H   0  0  0  0  0  0  0  0  0  0  0  0
   -1.2790    9.8390   18.0710 H   0  0  0  0  0  0  0  0  0  0  0  0
    1.3170   11.0290   21.3110 H   0  0  0  0  0  0  0  0  0  0  0  0
   -0.2740   13.0400   22.3160 C   0  0  2  0  0  0  0  0  0  0  0  0
    0.5700   12.5970   22.8680 H   0  0  0  0  0  0  0  0  0  0  0  0
   -1.4260   13.0590   23.3320 C   0  0  0  0  0  0  0  0  0  0  0  0
   -1.1460   13.6280   24.2270 H   0  0  0  0  0  0  0  0  0  0  0  0
   -2.3090   13.5390   22.8960 H   0  0  0  0  0  0  0  0  0  0  0  0
   -1.7200   12.0560   23.6580 H   0  0  0  0  0  0  0  0  0  0  0  0
    0.1950   14.4510   21.8970 C   0  0  0  0  0  0  0  0  0  0  0  0
    0.4580   15.0500   22.7780 H   0  0  0  0  0  0  0  0  0  0  0  0
   -0.6600   14.9700   21.4380 H   0  0  0  0  0  0  0  0  0  0  0  0
    1.3070   14.4780   20.9000 C   0  0  0  0  0  0  0  0  0  0  0  0
    2.5510   14.1010   21.1420 N   0  0  0  0  0  0  0  0  0  0  0  0
    3.2840   14.2540   19.9900 N   0  0  0  0  0  0  0  0  0  0  0  0
    2.4720   14.7140   19.0670 C   0  0  0  0  0  0  0  0  0  0  0  0
    1.2160   14.8460   19.5830 N   0  0  0  0  0  0  0  0  0  0  0  0
    2.7350   14.9480   18.0450 H   0  0  0  0  0  0  0  0  0  0  0  0
    0.0680   15.2670   18.8250 C   0  0  0  0  0  0  0  0  0  0  0  0
   -0.8370   15.2170   19.4300 H   0  0  0  0  0  0  0  0  0  0  0  0
   -0.0370   14.5990   17.9660 H   0  0  0  0  0  0  0  0  0  0  0  0
    0.2330   16.2910   18.4850 H   0  0  0  0  0  0  0  0  0  0  0  0
    2.1810    5.0720   20.4740 C   0  0  0  0  0  0  0  0  0  0  0  0
    0.8550    4.7870   20.3520 F   0  0  0  0  0  0  0  0  0  0  0  0
    2.8140    3.8660   20.5190 F   0  0  0  0  0  0  0  0  0  0  0  0
    2.3350    5.6240   21.7070 F   0  0  0  0  0  0  0  0  0  0  0  0
  1 36  1  0  0  0  0
  1  2  1  0  0  0  0
  2 12  1  0  0  0  0
  3  8  1  0  0  0  0
  3  2  1  0  0  0  0
  4  9  1  0  0  0  0
  4  3  2  0  0  0  0
  5  6  2  0  0  0  0
  5  4  1  0  0  0  0
  6  7  1  0  0  0  0
  7 14  1  0  0  0  0
  7  8  2  0  0  0  0
  8 61  1  0  0  0  0
  9  1  1  0  0  0  0
 10  9  2  0  0  0  0
 11  2  1  0  0  0  0
 13  5  1  0  0  0  0
 15 20  1  0  0  0  0
 15  6  1  0  0  0  0
 16 15  1  0  0  0  0
 16 22  1  0  0  0  0
 17 18  1  0  0  0  0
 17 16  1  0  0  0  0
 18 19  1  0  0  0  0
 19 29  1  0  0  0  0
 19 28  1  0  0  0  0
 19 20  1  0  0  0  0
 20 30  1  0  0  0  0
 21 15  1  0  0  0  0
 23 16  1  0  0  0  0
 24 17  1  0  0  0  0
 25 17  1  0  0  0  0
 26 18  1  0  0  0  0
 27 18  1  0  0  0  0
 31 20  1  0  0  0  0
 32 42  1  0  0  0  0
 33 38  1  0  0  0  0
 33 32  2  0  0  0  0
 34 33  1  0  0  0  0
 35 34  2  0  0  0  0
 35 36  1  0  0  0  0
 36 37  2  0  0  0  0
 37 32  1  0  0  0  0
 37 41  1  0  0  0  0
 39 34  1  0  0  0  0
 40 35  1  0  0  0  0
 42 43  1  1  0  0  0
 42 44  1  0  0  0  0
 44 47  1  0  0  0  0
 44 45  1  0  0  0  0
 46 44  1  0  0  0  0
 48 42  1  0  0  0  0
 48 49  1  0  0  0  0
 50 48  1  0  0  0  0
 51 52  2  0  0  0  0
 51 48  1  0  0  0  0
 53 52  1  0  0  0  0
 54 55  1  0  0  0  0
 54 53  2  0  0  0  0
 55 51  1  0  0  0  0
 56 54  1  0  0  0  0
 57 58  1  0  0  0  0
 57 55  1  0  0  0  0
 59 57  1  0  0  0  0
 60 57  1  0  0  0  0
 61 63  1  0  0  0  0
 61 64  1  0  0  0  0
 62 61  1  0  0  0  0
M  END
>  <MODEL>
7

>  <REMARK>
 VINA RESULT:    -8.695      2.228      3.240
 INTER + INTRA:         -12.649
 INTER:                 -10.992
 INTRA:                  -1.657
 UNBOUND:                -0.395
  Name = 
  8 active torsions:
  status: ('A' for Active; 'I' for Inactive)
    1  A    between atoms: C_1  and  C_2
    2  A    between atoms: C_2  and  C_3
    3  A    between atoms: C_2  and  C_10
    4  A    between atoms: C_3  and  C_4
    5  A    between atoms: N_8  and  C_9
    6  A    between atoms: C_14  and  N_16
    7  A    between atoms: C_21  and  C_28
    8  A    between atoms: C_23  and  C_24
                            x       y       z     vdW  Elec       q    Type
                         _______ _______ _______ _____ _____    ______ ____

>  <TORSDO>
F 8

$$$$
=
 OpenBabel07192307433D

 64 68  0  0  1  0  0  0  0  0999 V2000
    0.7920    8.7400   20.4220 N   0  0  0  0  0  0  0  0  0  0  0  0
    0.1100    9.4400   19.3410 C   0  0  0  0  0  0  0  0  0  0  0  0
   -0.5870   10.5650   20.0350 C   0  0  0  0  0  0  0  0  0  0  0  0
   -0.3040   10.5190   21.3940 C   0  0  0  0  0  0  0  0  0  0  0  0
   -0.8180   11.4310   22.2980 C   0  0  0  0  0  0  0  0  0  0  0  0
   -1.6650   12.4390   21.8150 C   0  0  0  0  0  0  0  0  0  0  0  0
   -1.9470   12.4930   20.4270 C   0  0  0  0  0  0  0  0  0  0  0  0
   -1.4130   11.5580   19.5170 C   0  0  0  0  0  0  0  0  0  0  0  0
    0.5820    9.3780   21.6500 C   0  0  0  0  0  0  0  0  0  0  0  0
    1.0060    9.1330   22.7650 O   0  0  0  0  0  0  0  0  0  0  0  0
   -0.6110    8.7680   18.8650 H   0  0  0  0  0  0  0  0  0  0  0  0
    0.8450    9.8240   18.6270 H   0  0  0  0  0  0  0  0  0  0  0  0
   -0.5670   11.3470   23.3520 H   0  0  0  0  0  0  0  0  0  0  0  0
   -2.5960   13.2850   20.0490 H   0  0  0  0  0  0  0  0  0  0  0  0
   -2.2540   13.4490   22.7860 C   0  0  0  0  0  0  0  0  0  0  0  0
   -1.2020   14.0350   23.7400 C   0  0  0  0  0  0  0  0  0  0  0  0
   -1.7820   15.1670   24.5940 C   0  0  0  0  0  0  0  0  0  0  0  0
   -3.2750   15.0080   24.8930 C   0  0  0  0  0  0  0  0  0  0  0  0
   -3.6980   13.5450   24.9090 C   0  0  0  0  0  0  0  0  0  0  0  0
   -3.4480   12.8580   23.5630 C   0  0  0  0  0  0  0  0  0  0  0  0
   -2.6400   14.2930   22.1960 H   0  0  0  0  0  0  0  0  0  0  0  0
   -0.8210   13.2530   24.4100 H   0  0  0  0  0  0  0  0  0  0  0  0
   -0.3340   14.4100   23.1850 H   0  0  0  0  0  0  0  0  0  0  0  0
   -1.2190   15.2190   25.5340 H   0  0  0  0  0  0  0  0  0  0  0  0
   -1.6260   16.1290   24.0910 H   0  0  0  0  0  0  0  0  0  0  0  0
   -3.5080   15.4830   25.8530 H   0  0  0  0  0  0  0  0  0  0  0  0
   -3.8590   15.5420   24.1320 H   0  0  0  0  0  0  0  0  0  0  0  0
   -3.1400   13.0180   25.6940 H   0  0  0  0  0  0  0  0  0  0  0  0
   -4.7590   13.4620   25.1720 H   0  0  0  0  0  0  0  0  0  0  0  0
   -3.3250   11.7830   23.7480 H   0  0  0  0  0  0  0  0  0  0  0  0
   -4.3460   12.9460   22.9360 H   0  0  0  0  0  0  0  0  0  0  0  0
    3.2620    6.2810   18.9990 C   0  0  0  0  0  0  0  0  0  0  0  0
    2.9790    5.1610   19.7920 C   0  0  0  0  0  0  0  0  0  0  0  0
    2.0040    5.2250   20.7820 C   0  0  0  0  0  0  0  0  0  0  0  0
    1.2900    6.4070   20.9880 C   0  0  0  0  0  0  0  0  0  0  0  0
    1.5340    7.5470   20.2070 C   0  0  0  0  0  0  0  0  0  0  0  0
    2.5290    7.4610   19.2200 C   0  0  0  0  0  0  0  0  0  0  0  0
    3.5250    4.2310   19.6490 H   0  0  0  0  0  0  0  0  0  0  0  0
    1.7980    4.3530   21.3980 H   0  0  0  0  0  0  0  0  0  0  0  0
    0.5380    6.4020   21.7710 H   0  0  0  0  0  0  0  0  0  0  0  0
    2.7540    8.3240   18.6010 H   0  0  0  0  0  0  0  0  0  0  0  0
    4.3270    6.1690   17.9150 C   0  0  2  0  0  0  0  0  0  0  0  0
    5.2940    6.2790   18.4320 H   0  0  0  0  0  0  0  0  0  0  0  0
    4.3080    7.3140   16.8930 C   0  0  0  0  0  0  0  0  0  0  0  0
    5.0760    8.0610   17.1300 H   0  0  0  0  0  0  0  0  0  0  0  0
    4.5160    6.9300   15.8880 H   0  0  0  0  0  0  0  0  0  0  0  0
    3.3450    7.8340   16.8550 H   0  0  0  0  0  0  0  0  0  0  0  0
    4.3590    4.7680   17.2630 C   0  0  0  0  0  0  0  0  0  0  0  0
    3.3590    4.4800   16.9140 H   0  0  0  0  0  0  0  0  0  0  0  0
    4.6140    4.0370   18.0450 H   0  0  0  0  0  0  0  0  0  0  0  0
    5.3610    4.6030   16.1680 C   0  0  0  0  0  0  0  0  0  0  0  0
    5.0700    4.5230   14.8810 N   0  0  0  0  0  0  0  0  0  0  0  0
    6.2430    4.3880   14.1780 N   0  0  0  0  0  0  0  0  0  0  0  0
    7.2250    4.3950   15.0480 C   0  0  0  0  0  0  0  0  0  0  0  0
    6.7240    4.5540   16.3060 N   0  0  0  0  0  0  0  0  0  0  0  0
    8.2780    4.3030   14.8220 H   0  0  0  0  0  0  0  0  0  0  0  0
    7.5290    4.6670   17.4920 C   0  0  0  0  0  0  0  0  0  0  0  0
    8.4270    5.2540   17.3000 H   0  0  0  0  0  0  0  0  0  0  0  0
    7.8200    3.6600   17.8040 H   0  0  0  0  0  0  0  0  0  0  0  0
    6.9340    5.1420   18.2740 H   0  0  0  0  0  0  0  0  0  0  0  0
   -1.7080   11.6310   18.0440 C   0  0  0  0  0  0  0  0  0  0  0  0
   -3.0250   11.8690   17.7970 F   0  0  0  0  0  0  0  0  0  0  0  0
   -1.0300   12.6400   17.4280 F   0  0  0  0  0  0  0  0  0  0  0  0
   -1.3950   10.4970   17.3610 F   0  0  0  0  0  0  0  0  0  0  0  0
  1  9  1  0  0  0  0
  2  3  1  0  0  0  0
  2  1  1  0  0  0  0
  3  4  1  0  0  0  0
  4  9  1  0  0  0  0
  4  5  2  0  0  0  0
  5 13  1  0  0  0  0
  6  5  1  0  0  0  0
  6 15  1  0  0  0  0
  7  6  2  0  0  0  0
  8  3  2  0  0  0  0
  8  7  1  0  0  0  0
  9 10  2  0  0  0  0
 11  2  1  0  0  0  0
 12  2  1  0  0  0  0
 14  7  1  0  0  0  0
 15 20  1  0  0  0  0
 15 16  1  0  0  0  0
 16 22  1  0  0  0  0
 16 17  1  0  0  0  0
 17 18  1  0  0  0  0
 17 24  1  0  0  0  0
 18 19  1  0  0  0  0
 18 26  1  0  0  0  0
 19 29  1  0  0  0  0
 19 28  1  0  0  0  0
 20 30  1  0  0  0  0
 20 19  1  0  0  0  0
 21 15  1  0  0  0  0
 23 16  1  0  0  0  0
 25 17  1  0  0  0  0
 27 18  1  0  0  0  0
 31 20  1  0  0  0  0
 32 37  2  0  0  0  0
 32 33  1  0  0  0  0
 33 34  2  0  0  0  0
 34 35  1  0  0  0  0
 34 39  1  0  0  0  0
 35 40  1  0  0  0  0
 36  1  1  0  0  0  0
 36 35  2  0  0  0  0
 37 36  1  0  0  0  0
 38 33  1  0  0  0  0
 41 37  1  0  0  0  0
 42 43  1  1  0  0  0
 42 32  1  0  0  0  0
 44 45  1  0  0  0  0
 44 42  1  0  0  0  0
 46 44  1  0  0  0  0
 47 44  1  0  0  0  0
 48 42  1  0  0  0  0
 48 50  1  0  0  0  0
 49 48  1  0  0  0  0
 51 55  1  0  0  0  0
 51 48  1  0  0  0  0
 52 51  2  0  0  0  0
 53 52  1  0  0  0  0
 53 54  2  0  0  0  0
 54 55  1  0  0  0  0
 55 57  1  0  0  0  0
 56 54  1  0  0  0  0
 57 59  1  0  0  0  0
 57 60  1  0  0  0  0
 58 57  1  0  0  0  0
 61  8  1  0  0  0  0
 62 61  1  0  0  0  0
 63 61  1  0  0  0  0
 64 61  1  0  0  0  0
M  END
>  <MODEL>
8

>  <REMARK>
 VINA RESULT:    -8.531      3.968      9.962
 INTER + INTRA:         -12.417
 INTER:                 -11.528
 INTRA:                  -0.889
 UNBOUND:                -0.395
  Name = 
  8 active torsions:
  status: ('A' for Active; 'I' for Inactive)
    1  A    between atoms: C_1  and  C_2
    2  A    between atoms: C_2  and  C_3
    3  A    between atoms: C_2  and  C_10
    4  A    between atoms: C_3  and  C_4
    5  A    between atoms: N_8  and  C_9
    6  A    between atoms: C_14  and  N_16
    7  A    between atoms: C_21  and  C_28
    8  A    between atoms: C_23  and  C_24
                            x       y       z     vdW  Elec       q    Type
                         _______ _______ _______ _____ _____    ______ ____

>  <TORSDO>
F 8

$$$$
=
 OpenBabel07192307433D

 64 68  0  0  1  0  0  0  0  0999 V2000
    1.0450    9.3230   19.1850 N   0  0  0  0  0  0  0  0  0  0  0  0
    1.1100    8.0330   19.8600 C   0  0  0  0  0  0  0  0  0  0  0  0
    2.1710    7.2960   19.1070 C   0  0  0  0  0  0  0  0  0  0  0  0
    2.6800    8.1110   18.1050 C   0  0  0  0  0  0  0  0  0  0  0  0
    3.6740    7.6970   17.2350 C   0  0  0  0  0  0  0  0  0  0  0  0
    4.1790    6.3970   17.3750 C   0  0  0  0  0  0  0  0  0  0  0  0
    3.6670    5.5670   18.4040 C   0  0  0  0  0  0  0  0  0  0  0  0
    2.6560    6.0040   19.2850 C   0  0  0  0  0  0  0  0  0  0  0  0
    1.9870    9.4030   18.1540 C   0  0  0  0  0  0  0  0  0  0  0  0
    2.2710   10.3120   17.3950 O   0  0  0  0  0  0  0  0  0  0  0  0
    0.1460    7.5230   19.7740 H   0  0  0  0  0  0  0  0  0  0  0  0
    1.4060    8.1760   20.9030 H   0  0  0  0  0  0  0  0  0  0  0  0
    4.0330    8.3750   16.4650 H   0  0  0  0  0  0  0  0  0  0  0  0
    4.0690    4.5600   18.5200 H   0  0  0  0  0  0  0  0  0  0  0  0
    5.2630    5.9100   16.4270 C   0  0  0  0  0  0  0  0  0  0  0  0
    4.8600    4.6330   15.6740 C   0  0  0  0  0  0  0  0  0  0  0  0
    5.8940    4.2560   14.6070 C   0  0  0  0  0  0  0  0  0  0  0  0
    7.3220    4.6760   14.9620 C   0  0  0  0  0  0  0  0  0  0  0  0
    7.5430    4.7250   16.4690 C   0  0  0  0  0  0  0  0  0  0  0  0
    6.6110    5.7290   17.1540 C   0  0  0  0  0  0  0  0  0  0  0  0
    5.4100    6.6870   15.6630 H   0  0  0  0  0  0  0  0  0  0  0  0
    4.7610    3.7940   16.3750 H   0  0  0  0  0  0  0  0  0  0  0  0
    3.8780    4.7500   15.1990 H   0  0  0  0  0  0  0  0  0  0  0  0
    5.8540    3.1710   14.4500 H   0  0  0  0  0  0  0  0  0  0  0  0
    5.6220    4.7140   13.6480 H   0  0  0  0  0  0  0  0  0  0  0  0
    8.0330    3.9840   14.4960 H   0  0  0  0  0  0  0  0  0  0  0  0
    7.5290    5.6670   14.5360 H   0  0  0  0  0  0  0  0  0  0  0  0
    7.3710    3.7260   16.8900 H   0  0  0  0  0  0  0  0  0  0  0  0
    8.5850    4.9820   16.6900 H   0  0  0  0  0  0  0  0  0  0  0  0
    6.4760    5.4100   18.1950 H   0  0  0  0  0  0  0  0  0  0  0  0
    7.1070    6.7080   17.2100 H   0  0  0  0  0  0  0  0  0  0  0  0
   -0.9540   11.7720   21.2300 C   0  0  0  0  0  0  0  0  0  0  0  0
   -1.7900   12.2970   20.2360 C   0  0  0  0  0  0  0  0  0  0  0  0
   -1.6840   11.8600   18.9200 C   0  0  0  0  0  0  0  0  0  0  0  0
   -0.7460   10.8840   18.5790 C   0  0  0  0  0  0  0  0  0  0  0  0
    0.1010   10.3230   19.5460 C   0  0  0  0  0  0  0  0  0  0  0  0
   -0.0180   10.7860   20.8660 C   0  0  0  0  0  0  0  0  0  0  0  0
   -2.5260   13.0600   20.4820 H   0  0  0  0  0  0  0  0  0  0  0  0
   -2.3320   12.2810   18.1540 H   0  0  0  0  0  0  0  0  0  0  0  0
   -0.7070   10.5760   17.5390 H   0  0  0  0  0  0  0  0  0  0  0  0
    0.6260   10.3840   21.6430 H   0  0  0  0  0  0  0  0  0  0  0  0
   -1.1090   12.2650   22.6630 C   0  0  2  0  0  0  0  0  0  0  0  0
   -0.2130   11.9130   23.2000 H   0  0  0  0  0  0  0  0  0  0  0  0
   -2.2830   11.6300   23.4240 C   0  0  0  0  0  0  0  0  0  0  0  0
   -3.0880   11.3500   22.7340 H   0  0  0  0  0  0  0  0  0  0  0  0
   -1.9540   10.7200   23.9390 H   0  0  0  0  0  0  0  0  0  0  0  0
   -2.7120   12.2990   24.1770 H   0  0  0  0  0  0  0  0  0  0  0  0
   -1.0780   13.8060   22.7630 C   0  0  0  0  0  0  0  0  0  0  0  0
   -1.0650   14.2590   21.7640 H   0  0  0  0  0  0  0  0  0  0  0  0
   -0.1220   14.0960   23.2240 H   0  0  0  0  0  0  0  0  0  0  0  0
   -2.1620   14.4080   23.5940 C   0  0  0  0  0  0  0  0  0  0  0  0
   -2.0480   14.7310   24.8710 N   0  0  0  0  0  0  0  0  0  0  0  0
   -3.2410   15.2670   25.2930 N   0  0  0  0  0  0  0  0  0  0  0  0
   -4.0570   15.2670   24.2650 C   0  0  0  0  0  0  0  0  0  0  0  0
   -3.4170   14.7620   23.1710 N   0  0  0  0  0  0  0  0  0  0  0  0
   -5.0780   15.6190   24.2610 H   0  0  0  0  0  0  0  0  0  0  0  0
   -4.0000   14.6750   21.8590 C   0  0  0  0  0  0  0  0  0  0  0  0
   -3.8370   15.5950   21.2980 H   0  0  0  0  0  0  0  0  0  0  0  0
   -5.0750   14.5120   21.9740 H   0  0  0  0  0  0  0  0  0  0  0  0
   -3.5480   13.8330   21.3320 H   0  0  0  0  0  0  0  0  0  0  0  0
    2.1290    5.1210   20.3820 C   0  0  0  0  0  0  0  0  0  0  0  0
    2.1670    5.7350   21.5960 F   0  0  0  0  0  0  0  0  0  0  0  0
    0.8250    4.7720   20.1860 F   0  0  0  0  0  0  0  0  0  0  0  0
    2.8120    3.9540   20.5280 F   0  0  0  0  0  0  0  0  0  0  0  0
  1 36  1  0  0  0  0
  1  2  1  0  0  0  0
  2 12  1  0  0  0  0
  3  8  1  0  0  0  0
  3  2  1  0  0  0  0
  4  9  1  0  0  0  0
  4  3  2  0  0  0  0
  5  6  2  0  0  0  0
  5  4  1  0  0  0  0
  6  7  1  0  0  0  0
  7 14  1  0  0  0  0
  7  8  2  0  0  0  0
  8 61  1  0  0  0  0
  9  1  1  0  0  0  0
 10  9  2  0  0  0  0
 11  2  1  0  0  0  0
 13  5  1  0  0  0  0
 15 20  1  0  0  0  0
 15  6  1  0  0  0  0
 16 22  1  0  0  0  0
 16 15  1  0  0  0  0
 17 18  1  0  0  0  0
 17 16  1  0  0  0  0
 18 19  1  0  0  0  0
 19 29  1  0  0  0  0
 19 28  1  0  0  0  0
 19 20  1  0  0  0  0
 20 31  1  0  0  0  0
 20 30  1  0  0  0  0
 21 15  1  0  0  0  0
 23 16  1  0  0  0  0
 24 17  1  0  0  0  0
 25 17  1  0  0  0  0
 26 18  1  0  0  0  0
 27 18  1  0  0  0  0
 32 42  1  0  0  0  0
 33 38  1  0  0  0  0
 33 32  2  0  0  0  0
 34 33  1  0  0  0  0
 35 34  2  0  0  0  0
 35 36  1  0  0  0  0
 36 37  2  0  0  0  0
 37 32  1  0  0  0  0
 37 41  1  0  0  0  0
 39 34  1  0  0  0  0
 40 35  1  0  0  0  0
 42 48  1  0  0  0  0
 42 43  1  1  0  0  0
 42 44  1  0  0  0  0
 44 46  1  0  0  0  0
 44 47  1  0  0  0  0
 45 44  1  0  0  0  0
 48 50  1  0  0  0  0
 48 51  1  0  0  0  0
 49 48  1  0  0  0  0
 51 52  2  0  0  0  0
 52 53  1  0  0  0  0
 54 53  2  0  0  0  0
 55 51  1  0  0  0  0
 55 54  1  0  0  0  0
 56 54  1  0  0  0  0
 57 59  1  0  0  0  0
 57 55  1  0  0  0  0
 58 57  1  0  0  0  0
 60 57  1  0  0  0  0
 61 64  1  0  0  0  0
 61 62  1  0  0  0  0
 63 61  1  0  0  0  0
M  END
>  <MODEL>
9

>  <REMARK>
 VINA RESULT:    -8.522      2.649      3.678
 INTER + INTRA:         -12.405
 INTER:                 -11.190
 INTRA:                  -1.215
 UNBOUND:                -0.395
  Name = 
  8 active torsions:
  status: ('A' for Active; 'I' for Inactive)
    1  A    between atoms: C_1  and  C_2
    2  A    between atoms: C_2  and  C_3
    3  A    between atoms: C_2  and  C_10
    4  A    between atoms: C_3  and  C_4
    5  A    between atoms: N_8  and  C_9
    6  A    between atoms: C_14  and  N_16
    7  A    between atoms: C_21  and  C_28
    8  A    between atoms: C_23  and  C_24
                            x       y       z     vdW  Elec       q    Type
                         _______ _______ _______ _____ _____    ______ ____

>  <TORSDO>
F 8

$$$$
=
 OpenBabel07192307433D

 64 68  0  0  1  0  0  0  0  0999 V2000
    0.9310    9.6440   19.0750 N   0  0  0  0  0  0  0  0  0  0  0  0
    0.8990    8.4130   19.8530 C   0  0  0  0  0  0  0  0  0  0  0  0
    1.9730    7.5780   19.2340 C   0  0  0  0  0  0  0  0  0  0  0  0
    2.5780    8.2880   18.2050 C   0  0  0  0  0  0  0  0  0  0  0  0
    3.6060    7.7670   17.4380 C   0  0  0  0  0  0  0  0  0  0  0  0
    4.0460    6.4650   17.7150 C   0  0  0  0  0  0  0  0  0  0  0  0
    3.4360    5.7430   18.7710 C   0  0  0  0  0  0  0  0  0  0  0  0
    2.3920    6.2880   19.5460 C   0  0  0  0  0  0  0  0  0  0  0  0
    1.9390    9.6040   18.1050 C   0  0  0  0  0  0  0  0  0  0  0  0
    2.3080   10.4360   17.2960 O   0  0  0  0  0  0  0  0  0  0  0  0
   -0.0790    7.9340   19.7450 H   0  0  0  0  0  0  0  0  0  0  0  0
    1.1350    8.6310   20.8990 H   0  0  0  0  0  0  0  0  0  0  0  0
    4.0420    8.3660   16.6420 H   0  0  0  0  0  0  0  0  0  0  0  0
    3.7870    4.7340   18.9940 H   0  0  0  0  0  0  0  0  0  0  0  0
    5.1660    5.8620   16.8830 C   0  0  0  0  0  0  0  0  0  0  0  0
    4.8040    4.4800   16.3170 C   0  0  0  0  0  0  0  0  0  0  0  0
    5.8760    3.9670   15.3500 C   0  0  0  0  0  0  0  0  0  0  0  0
    7.2870    4.4610   15.6800 C   0  0  0  0  0  0  0  0  0  0  0  0
    7.4590    4.7380   17.1680 C   0  0  0  0  0  0  0  0  0  0  0  0
    6.4930    5.8160   17.6680 C   0  0  0  0  0  0  0  0  0  0  0  0
    5.3270    6.5180   16.0150 H   0  0  0  0  0  0  0  0  0  0  0  0
    4.6940    3.7540   17.1330 H   0  0  0  0  0  0  0  0  0  0  0  0
    3.8370    4.5080   15.8020 H   0  0  0  0  0  0  0  0  0  0  0  0
    5.8560    2.8710   15.3560 H   0  0  0  0  0  0  0  0  0  0  0  0
    5.6280    4.2720   14.3250 H   0  0  0  0  0  0  0  0  0  0  0  0
    8.0210    3.7190   15.3430 H   0  0  0  0  0  0  0  0  0  0  0  0
    7.4940    5.3810   15.1170 H   0  0  0  0  0  0  0  0  0  0  0  0
    7.2870    3.8100   17.7280 H   0  0  0  0  0  0  0  0  0  0  0  0
    8.4900    5.0430   17.3780 H   0  0  0  0  0  0  0  0  0  0  0  0
    6.3290    5.6530   18.7410 H   0  0  0  0  0  0  0  0  0  0  0  0
    6.9740    6.8010   17.5910 H   0  0  0  0  0  0  0  0  0  0  0  0
   -0.5490   12.9050   20.2400 C   0  0  0  0  0  0  0  0  0  0  0  0
   -1.8440   12.7860   19.7190 C   0  0  0  0  0  0  0  0  0  0  0  0
   -2.2130   11.6610   18.9890 C   0  0  0  0  0  0  0  0  0  0  0  0
   -1.2930   10.6320   18.7770 C   0  0  0  0  0  0  0  0  0  0  0  0
    0.0100   10.7050   19.2920 C   0  0  0  0  0  0  0  0  0  0  0  0
    0.3610   11.8540   20.0180 C   0  0  0  0  0  0  0  0  0  0  0  0
   -2.5750   13.5780   19.8720 H   0  0  0  0  0  0  0  0  0  0  0  0
   -3.2180   11.5820   18.5820 H   0  0  0  0  0  0  0  0  0  0  0  0
   -1.6330    9.7740   18.2040 H   0  0  0  0  0  0  0  0  0  0  0  0
    1.3620   11.9540   20.4240 H   0  0  0  0  0  0  0  0  0  0  0  0
   -0.1870   14.1450   21.0460 C   0  0  2  0  0  0  0  0  0  0  0  0
   -0.9640   14.8910   20.8140 H   0  0  0  0  0  0  0  0  0  0  0  0
    1.1260   14.8160   20.6140 C   0  0  0  0  0  0  0  0  0  0  0  0
    1.9880   14.1940   20.8830 H   0  0  0  0  0  0  0  0  0  0  0  0
    1.1420   14.9550   19.5270 H   0  0  0  0  0  0  0  0  0  0  0  0
    1.2720   15.7980   21.0750 H   0  0  0  0  0  0  0  0  0  0  0  0
   -0.2790   13.9060   22.5700 C   0  0  0  0  0  0  0  0  0  0  0  0
    0.0660   14.7890   23.1220 H   0  0  0  0  0  0  0  0  0  0  0  0
    0.4310   13.1070   22.8300 H   0  0  0  0  0  0  0  0  0  0  0  0
   -1.6210   13.4740   23.0620 C   0  0  0  0  0  0  0  0  0  0  0  0
   -2.6400   14.2840   23.2900 N   0  0  0  0  0  0  0  0  0  0  0  0
   -3.7060   13.5310   23.7210 N   0  0  0  0  0  0  0  0  0  0  0  0
   -3.3180   12.2780   23.7410 C   0  0  0  0  0  0  0  0  0  0  0  0
   -2.0270   12.1890   23.3110 N   0  0  0  0  0  0  0  0  0  0  0  0
   -3.9180   11.4290   24.0380 H   0  0  0  0  0  0  0  0  0  0  0  0
   -1.3080   10.9530   23.1510 C   0  0  0  0  0  0  0  0  0  0  0  0
   -1.0840   10.5040   24.1180 H   0  0  0  0  0  0  0  0  0  0  0  0
   -0.3720   11.1690   22.6290 H   0  0  0  0  0  0  0  0  0  0  0  0
   -1.9190   10.2710   22.5560 H   0  0  0  0  0  0  0  0  0  0  0  0
    1.7590    5.5180   20.6730 C   0  0  0  0  0  0  0  0  0  0  0  0
    1.1370    6.3360   21.5660 F   0  0  0  0  0  0  0  0  0  0  0  0
    0.8010    4.6530   20.2370 F   0  0  0  0  0  0  0  0  0  0  0  0
    2.6390    4.7730   21.3940 F   0  0  0  0  0  0  0  0  0  0  0  0
  1 36  1  0  0  0  0
  1  2  1  0  0  0  0
  2 12  1  0  0  0  0
  3  8  1  0  0  0  0
  3  2  1  0  0  0  0
  4  3  2  0  0  0  0
  5  6  2  0  0  0  0
  5  4  1  0  0  0  0
  6  7  1  0  0  0  0
  7 14  1  0  0  0  0
  7  8  2  0  0  0  0
  8 61  1  0  0  0  0
  9  4  1  0  0  0  0
  9  1  1  0  0  0  0
 10  9  2  0  0  0  0
 11  2  1  0  0  0  0
 13  5  1  0  0  0  0
 15 20  1  0  0  0  0
 15  6  1  0  0  0  0
 16 15  1  0  0  0  0
 16 22  1  0  0  0  0
 17 24  1  0  0  0  0
 17 18  1  0  0  0  0
 17 16  1  0  0  0  0
 18 19  1  0  0  0  0
 19 29  1  0  0  0  0
 19 20  1  0  0  0  0
 19 28  1  0  0  0  0
 20 30  1  0  0  0  0
 21 15  1  0  0  0  0
 23 16  1  0  0  0  0
 25 17  1  0  0  0  0
 26 18  1  0  0  0  0
 27 18  1  0  0  0  0
 31 20  1  0  0  0  0
 32 42  1  0  0  0  0
 33 38  1  0  0  0  0
 33 32  2  0  0  0  0
 34 33  1  0  0  0  0
 35 34  2  0  0  0  0
 35 36  1  0  0  0  0
 36 37  2  0  0  0  0
 37 32  1  0  0  0  0
 37 41  1  0  0  0  0
 39 34  1  0  0  0  0
 40 35  1  0  0  0  0
 42 43  1  6  0  0  0
 42 48  1  0  0  0  0
 44 45  1  0  0  0  0
 44 42  1  0  0  0  0
 44 47  1  0  0  0  0
 46 44  1  0  0  0  0
 48 50  1  0  0  0  0
 48 51  1  0  0  0  0
 48 49  1  0  0  0  0
 51 52  2  0  0  0  0
 51 55  1  0  0  0  0
 52 53  1  0  0  0  0
 53 54  2  0  0  0  0
 54 56  1  0  0  0  0
 55 54  1  0  0  0  0
 57 55  1  0  0  0  0
 57 58  1  0  0  0  0
 59 57  1  0  0  0  0
 60 57  1  0  0  0  0
 61 64  1  0  0  0  0
 61 62  1  0  0  0  0
 63 61  1  0  0  0  0
M  END
>  <MODEL>
10

>  <REMARK>
 VINA RESULT:    -8.497      2.275      3.356
 INTER + INTRA:         -12.369
 INTER:                 -11.197
 INTRA:                  -1.172
 UNBOUND:                -0.395
  Name = 
  8 active torsions:
  status: ('A' for Active; 'I' for Inactive)
    1  A    between atoms: C_1  and  C_2
    2  A    between atoms: C_2  and  C_3
    3  A    between atoms: C_2  and  C_10
    4  A    between atoms: C_3  and  C_4
    5  A    between atoms: N_8  and  C_9
    6  A    between atoms: C_14  and  N_16
    7  A    between atoms: C_21  and  C_28
    8  A    between atoms: C_23  and  C_24
                            x       y       z     vdW  Elec       q    Type
                         _______ _______ _______ _____ _____    ______ ____

>  <TORSDO>
F 8

$$$$
=
 OpenBabel07192307433D

 64 68  0  0  1  0  0  0  0  0999 V2000
    1.6420    6.7960   20.3290 N   0  0  0  0  0  0  0  0  0  0  0  0
    0.8760    7.3350   21.4460 C   0  0  0  0  0  0  0  0  0  0  0  0
    0.8440    8.8050   21.1740 C   0  0  0  0  0  0  0  0  0  0  0  0
    1.5160    9.0720   19.9880 C   0  0  0  0  0  0  0  0  0  0  0  0
    1.6600   10.3510   19.4790 C   0  0  0  0  0  0  0  0  0  0  0  0
    1.1060   11.4170   20.2010 C   0  0  0  0  0  0  0  0  0  0  0  0
    0.4120   11.1460   21.4060 C   0  0  0  0  0  0  0  0  0  0  0  0
    0.2700    9.8360   21.9100 C   0  0  0  0  0  0  0  0  0  0  0  0
    2.0120    7.8060   19.4350 C   0  0  0  0  0  0  0  0  0  0  0  0
    2.6130    7.7610   18.3770 O   0  0  0  0  0  0  0  0  0  0  0  0
    1.3960    7.1240   22.3850 H   0  0  0  0  0  0  0  0  0  0  0  0
   -0.1360    6.9190   21.4360 H   0  0  0  0  0  0  0  0  0  0  0  0
    2.2000   10.5030   18.5480 H   0  0  0  0  0  0  0  0  0  0  0  0
   -0.0310   11.9750   21.9610 H   0  0  0  0  0  0  0  0  0  0  0  0
    1.2580   12.8350   19.6740 C   0  0  0  0  0  0  0  0  0  0  0  0
    0.0280   13.3060   18.8820 C   0  0  0  0  0  0  0  0  0  0  0  0
    0.1330   14.7870   18.5040 C   0  0  0  0  0  0  0  0  0  0  0  0
    1.5710   15.2670   18.2960 C   0  0  0  0  0  0  0  0  0  0  0  0
    2.4850   14.1400   17.8310 C   0  0  0  0  0  0  0  0  0  0  0  0
    2.5510   12.9960   18.8470 C   0  0  0  0  0  0  0  0  0  0  0  0
    1.3430   13.5060   20.5400 H   0  0  0  0  0  0  0  0  0  0  0  0
   -0.0780   12.7180   17.9610 H   0  0  0  0  0  0  0  0  0  0  0  0
   -0.8930   13.1440   19.4550 H   0  0  0  0  0  0  0  0  0  0  0  0
   -0.4500   14.9560   17.5900 H   0  0  0  0  0  0  0  0  0  0  0  0
   -0.3340   15.4030   19.2830 H   0  0  0  0  0  0  0  0  0  0  0  0
    1.5810   16.0890   17.5710 H   0  0  0  0  0  0  0  0  0  0  0  0
    1.9590   15.6790   19.2380 H   0  0  0  0  0  0  0  0  0  0  0  0
    2.1180   13.7520   16.8720 H   0  0  0  0  0  0  0  0  0  0  0  0
    3.4950   14.5250   17.6460 H   0  0  0  0  0  0  0  0  0  0  0  0
    2.8090   12.0770   18.3060 H   0  0  0  0  0  0  0  0  0  0  0  0
    3.3840   13.1710   19.5410 H   0  0  0  0  0  0  0  0  0  0  0  0
    2.6710    3.4660   18.9050 C   0  0  0  0  0  0  0  0  0  0  0  0
    2.6070    2.6750   20.0600 C   0  0  0  0  0  0  0  0  0  0  0  0
    2.2460    3.2350   21.2810 C   0  0  0  0  0  0  0  0  0  0  0  0
    1.9330    4.5930   21.3640 C   0  0  0  0  0  0  0  0  0  0  0  0
    1.9720    5.4170   20.2290 C   0  0  0  0  0  0  0  0  0  0  0  0
    2.3480    4.8320   19.0100 C   0  0  0  0  0  0  0  0  0  0  0  0
    2.8490    1.6150   20.0160 H   0  0  0  0  0  0  0  0  0  0  0  0
    2.2080    2.6140   22.1730 H   0  0  0  0  0  0  0  0  0  0  0  0
    1.6540    4.9780   22.3400 H   0  0  0  0  0  0  0  0  0  0  0  0
    2.4000    5.4370   18.1110 H   0  0  0  0  0  0  0  0  0  0  0  0
    3.0570    2.8150   17.5830 C   0  0  2  0  0  0  0  0  0  0  0  0
    2.1090    2.5180   17.1070 H   0  0  0  0  0  0  0  0  0  0  0  0
    3.8370    1.5010   17.7330 C   0  0  0  0  0  0  0  0  0  0  0  0
    4.7610    1.5270   17.1420 H   0  0  0  0  0  0  0  0  0  0  0  0
    4.1170    1.3410   18.7800 H   0  0  0  0  0  0  0  0  0  0  0  0
    3.2630    0.6270   17.4080 H   0  0  0  0  0  0  0  0  0  0  0  0
    3.7200    3.8120   16.6070 C   0  0  0  0  0  0  0  0  0  0  0  0
    3.1410    4.7430   16.5510 H   0  0  0  0  0  0  0  0  0  0  0  0
    3.6700    3.3800   15.5960 H   0  0  0  0  0  0  0  0  0  0  0  0
    5.1570    4.1080   16.8840 C   0  0  0  0  0  0  0  0  0  0  0  0
    5.6710    4.3110   18.0840 N   0  0  0  0  0  0  0  0  0  0  0  0
    7.0190    4.5410   17.9480 N   0  0  0  0  0  0  0  0  0  0  0  0
    7.3020    4.4680   16.6680 C   0  0  0  0  0  0  0  0  0  0  0  0
    6.1710    4.1730   15.9640 N   0  0  0  0  0  0  0  0  0  0  0  0
    8.2750    4.6050   16.2210 H   0  0  0  0  0  0  0  0  0  0  0  0
    6.1340    3.9580   14.5420 C   0  0  0  0  0  0  0  0  0  0  0  0
    5.1540    4.2050   14.1360 H   0  0  0  0  0  0  0  0  0  0  0  0
    6.3470    2.9030   14.3510 H   0  0  0  0  0  0  0  0  0  0  0  0
    6.8990    4.5830   14.0760 H   0  0  0  0  0  0  0  0  0  0  0  0
   -0.4800    9.5560   23.1830 C   0  0  0  0  0  0  0  0  0  0  0  0
   -1.2320   10.6200   23.5790 F   0  0  0  0  0  0  0  0  0  0  0  0
   -1.3520    8.5160   23.0550 F   0  0  0  0  0  0  0  0  0  0  0  0
    0.3200    9.2470   24.2390 F   0  0  0  0  0  0  0  0  0  0  0  0
  1  2  1  0  0  0  0
  2 11  1  0  0  0  0
  3  2  1  0  0  0  0
  3  8  1  0  0  0  0
  4  3  2  0  0  0  0
  5  4  1  0  0  0  0
  5  6  2  0  0  0  0
  6  7  1  0  0  0  0
  7  8  2  0  0  0  0
  7 14  1  0  0  0  0
  8 61  1  0  0  0  0
  9  4  1  0  0  0  0
  9  1  1  0  0  0  0
 10  9  2  0  0  0  0
 12  2  1  0  0  0  0
 13  5  1  0  0  0  0
 15  6  1  0  0  0  0
 15 21  1  0  0  0  0
 16 23  1  0  0  0  0
 16 15  1  0  0  0  0
 17 16  1  0  0  0  0
 17 25  1  0  0  0  0
 18 17  1  0  0  0  0
 18 27  1  0  0  0  0
 19 18  1  0  0  0  0
 19 20  1  0  0  0  0
 20 31  1  0  0  0  0
 20 15  1  0  0  0  0
 22 16  1  0  0  0  0
 24 17  1  0  0  0  0
 26 18  1  0  0  0  0
 28 19  1  0  0  0  0
 29 19  1  0  0  0  0
 30 20  1  0  0  0  0
 32 37  2  0  0  0  0
 32 33  1  0  0  0  0
 33 34  2  0  0  0  0
 34 35  1  0  0  0  0
 34 39  1  0  0  0  0
 35 40  1  0  0  0  0
 36  1  1  0  0  0  0
 36 35  2  0  0  0  0
 37 36  1  0  0  0  0
 38 33  1  0  0  0  0
 41 37  1  0  0  0  0
 42 43  1  6  0  0  0
 42 44  1  0  0  0  0
 42 32  1  0  0  0  0
 44 46  1  0  0  0  0
 45 44  1  0  0  0  0
 47 44  1  0  0  0  0
 48 51  1  0  0  0  0
 48 42  1  0  0  0  0
 49 48  1  0  0  0  0
 50 48  1  0  0  0  0
 51 52  2  0  0  0  0
 53 52  1  0  0  0  0
 54 53  2  0  0  0  0
 55 54  1  0  0  0  0
 55 51  1  0  0  0  0
 56 54  1  0  0  0  0
 57 55  1  0  0  0  0
 58 57  1  0  0  0  0
 59 57  1  0  0  0  0
 60 57  1  0  0  0  0
 61 62  1  0  0  0  0
 61 64  1  0  0  0  0
 63 61  1  0  0  0  0
M  END
>  <MODEL>
11

>  <REMARK>
 VINA RESULT:    -8.220      3.434      8.742
 INTER + INTRA:         -11.980
 INTER:                 -11.141
 INTRA:                  -0.839
 UNBOUND:                -0.395
  Name = 
  8 active torsions:
  status: ('A' for Active; 'I' for Inactive)
    1  A    between atoms: C_1  and  C_2
    2  A    between atoms: C_2  and  C_3
    3  A    between atoms: C_2  and  C_10
    4  A    between atoms: C_3  and  C_4
    5  A    between atoms: N_8  and  C_9
    6  A    between atoms: C_14  and  N_16
    7  A    between atoms: C_21  and  C_28
    8  A    between atoms: C_23  and  C_24
                            x       y       z     vdW  Elec       q    Type
                         _______ _______ _______ _____ _____    ______ ____

>  <TORSDO>
F 8

$$$$
=
 OpenBabel07192307433D

 64 68  0  0  1  0  0  0  0  0999 V2000
    1.1430    8.5910   20.5250 N   0  0  0  0  0  0  0  0  0  0  0  0
    1.6030    9.7960   19.8460 C   0  0  0  0  0  0  0  0  0  0  0  0
    0.7680   10.8790   20.4480 C   0  0  0  0  0  0  0  0  0  0  0  0
   -0.0790   10.3350   21.4050 C   0  0  0  0  0  0  0  0  0  0  0  0
   -0.9800   11.0960   22.1290 C   0  0  0  0  0  0  0  0  0  0  0  0
   -1.0390   12.4740   21.8740 C   0  0  0  0  0  0  0  0  0  0  0  0
   -0.1690   13.0320   20.9050 C   0  0  0  0  0  0  0  0  0  0  0  0
    0.7470   12.2440   20.1780 C   0  0  0  0  0  0  0  0  0  0  0  0
    0.1600    8.8890   21.4750 C   0  0  0  0  0  0  0  0  0  0  0  0
   -0.4360    8.1780   22.2630 O   0  0  0  0  0  0  0  0  0  0  0  0
    1.4140    9.7090   18.7720 H   0  0  0  0  0  0  0  0  0  0  0  0
    2.6630    9.9600   20.0630 H   0  0  0  0  0  0  0  0  0  0  0  0
   -1.6220   10.6180   22.8630 H   0  0  0  0  0  0  0  0  0  0  0  0
   -0.2060   14.1070   20.7170 H   0  0  0  0  0  0  0  0  0  0  0  0
   -2.0270   13.3340   22.6450 C   0  0  0  0  0  0  0  0  0  0  0  0
   -1.3520   14.1650   23.7480 C   0  0  0  0  0  0  0  0  0  0  0  0
   -2.3350   15.1450   24.3990 C   0  0  0  0  0  0  0  0  0  0  0  0
   -3.7810   14.6450   24.4090 C   0  0  0  0  0  0  0  0  0  0  0  0
   -3.8580   13.1240   24.4360 C   0  0  0  0  0  0  0  0  0  0  0  0
   -3.1890   12.4930   23.2110 C   0  0  0  0  0  0  0  0  0  0  0  0
   -2.4640   14.0540   21.9390 H   0  0  0  0  0  0  0  0  0  0  0  0
   -0.9500   13.5060   24.5270 H   0  0  0  0  0  0  0  0  0  0  0  0
   -0.4960   14.7240   23.3500 H   0  0  0  0  0  0  0  0  0  0  0  0
   -2.0030   15.3420   25.4250 H   0  0  0  0  0  0  0  0  0  0  0  0
   -2.3000   16.1080   23.8750 H   0  0  0  0  0  0  0  0  0  0  0  0
   -4.3070   15.0680   25.2740 H   0  0  0  0  0  0  0  0  0  0  0  0
   -4.3040   15.0150   23.5170 H   0  0  0  0  0  0  0  0  0  0  0  0
   -3.3680   12.7550   25.3460 H   0  0  0  0  0  0  0  0  0  0  0  0
   -4.9030   12.7990   24.4910 H   0  0  0  0  0  0  0  0  0  0  0  0
   -2.8670   11.4800   23.4850 H   0  0  0  0  0  0  0  0  0  0  0  0
   -3.9360   12.3570   22.4160 H   0  0  0  0  0  0  0  0  0  0  0  0
    2.7860    5.7650   18.6560 C   0  0  0  0  0  0  0  0  0  0  0  0
    2.5960    4.7220   19.5720 C   0  0  0  0  0  0  0  0  0  0  0  0
    1.9520    4.9530   20.7830 C   0  0  0  0  0  0  0  0  0  0  0  0
    1.4800    6.2300   21.0930 C   0  0  0  0  0  0  0  0  0  0  0  0
    1.6380    7.2990   20.1980 C   0  0  0  0  0  0  0  0  0  0  0  0
    2.2990    7.0430   18.9870 C   0  0  0  0  0  0  0  0  0  0  0  0
    2.9590    3.7200   19.3500 H   0  0  0  0  0  0  0  0  0  0  0  0
    1.8170    4.1380   21.4900 H   0  0  0  0  0  0  0  0  0  0  0  0
    0.9810    6.3550   22.0490 H   0  0  0  0  0  0  0  0  0  0  0  0
    2.4500    7.8460   18.2710 H   0  0  0  0  0  0  0  0  0  0  0  0
    3.4830    5.4710   17.3340 C   0  0  2  0  0  0  0  0  0  0  0  0
    2.7810    5.7880   16.5470 H   0  0  0  0  0  0  0  0  0  0  0  0
    3.7110    3.9770   17.0610 C   0  0  0  0  0  0  0  0  0  0  0  0
    3.5080    3.3810   17.9600 H   0  0  0  0  0  0  0  0  0  0  0  0
    3.0360    3.6270   16.2720 H   0  0  0  0  0  0  0  0  0  0  0  0
    4.7350    3.7550   16.7440 H   0  0  0  0  0  0  0  0  0  0  0  0
    4.7520    6.3300   17.1330 C   0  0  0  0  0  0  0  0  0  0  0  0
    4.6160    7.3290   17.5650 H   0  0  0  0  0  0  0  0  0  0  0  0
    4.8790    6.4960   16.0530 H   0  0  0  0  0  0  0  0  0  0  0  0
    6.0180    5.7150   17.6320 C   0  0  0  0  0  0  0  0  0  0  0  0
    6.4200    5.7250   18.8910 N   0  0  0  0  0  0  0  0  0  0  0  0
    7.6180    5.0560   18.9700 N   0  0  0  0  0  0  0  0  0  0  0  0
    7.9190    4.6450   17.7610 C   0  0  0  0  0  0  0  0  0  0  0  0
    6.9330    5.0120   16.8920 N   0  0  0  0  0  0  0  0  0  0  0  0
    8.8010    4.0900   17.4770 H   0  0  0  0  0  0  0  0  0  0  0  0
    6.9140    4.6680   15.4960 C   0  0  0  0  0  0  0  0  0  0  0  0
    7.6810    3.9300   15.2650 H   0  0  0  0  0  0  0  0  0  0  0  0
    7.1040    5.5760   14.9180 H   0  0  0  0  0  0  0  0  0  0  0  0
    5.9280    4.2680   15.2500 H   0  0  0  0  0  0  0  0  0  0  0  0
    1.6750   12.8480   19.1600 C   0  0  0  0  0  0  0  0  0  0  0  0
    1.1900   14.0130   18.6520 F   0  0  0  0  0  0  0  0  0  0  0  0
    2.8940   13.1550   19.6870 F   0  0  0  0  0  0  0  0  0  0  0  0
    1.9200   12.0440   18.0910 F   0  0  0  0  0  0  0  0  0  0  0  0
  1  9  1  0  0  0  0
  2 12  1  0  0  0  0
  2  3  1  0  0  0  0
  2  1  1  0  0  0  0
  3  4  1  0  0  0  0
  4  9  1  0  0  0  0
  4  5  2  0  0  0  0
  5 13  1  0  0  0  0
  6  5  1  0  0  0  0
  6 15  1  0  0  0  0
  7  6  2  0  0  0  0
  8  3  2  0  0  0  0
  8  7  1  0  0  0  0
  9 10  2  0  0  0  0
 11  2  1  0  0  0  0
 14  7  1  0  0  0  0
 15 20  1  0  0  0  0
 15 16  1  0  0  0  0
 16 17  1  0  0  0  0
 16 22  1  0  0  0  0
 17 18  1  0  0  0  0
 17 24  1  0  0  0  0
 18 19  1  0  0  0  0
 18 26  1  0  0  0  0
 19 29  1  0  0  0  0
 19 28  1  0  0  0  0
 20 30  1  0  0  0  0
 20 19  1  0  0  0  0
 21 15  1  0  0  0  0
 23 16  1  0  0  0  0
 25 17  1  0  0  0  0
 27 18  1  0  0  0  0
 31 20  1  0  0  0  0
 32 37  2  0  0  0  0
 32 33  1  0  0  0  0
 33 34  2  0  0  0  0
 34 35  1  0  0  0  0
 34 39  1  0  0  0  0
 35 40  1  0  0  0  0
 36  1  1  0  0  0  0
 36 35  2  0  0  0  0
 37 36  1  0  0  0  0
 38 33  1  0  0  0  0
 41 37  1  0  0  0  0
 42 43  1  6  0  0  0
 42 32  1  0  0  0  0
 44 42  1  0  0  0  0
 44 45  1  0  0  0  0
 46 44  1  0  0  0  0
 47 44  1  0  0  0  0
 48 42  1  0  0  0  0
 48 49  1  0  0  0  0
 48 51  1  0  0  0  0
 50 48  1  0  0  0  0
 51 52  2  0  0  0  0
 52 53  1  0  0  0  0
 54 53  2  0  0  0  0
 55 51  1  0  0  0  0
 55 54  1  0  0  0  0
 56 54  1  0  0  0  0
 57 55  1  0  0  0  0
 58 57  1  0  0  0  0
 59 57  1  0  0  0  0
 60 57  1  0  0  0  0
 61 63  1  0  0  0  0
 61  8  1  0  0  0  0
 62 61  1  0  0  0  0
 64 61  1  0  0  0  0
M  END
>  <MODEL>
12

>  <REMARK>
 VINA RESULT:    -8.158      3.886      9.994
 INTER + INTRA:         -11.892
 INTER:                 -10.920
 INTRA:                  -0.972
 UNBOUND:                -0.395
  Name = 
  8 active torsions:
  status: ('A' for Active; 'I' for Inactive)
    1  A    between atoms: C_1  and  C_2
    2  A    between atoms: C_2  and  C_3
    3  A    between atoms: C_2  and  C_10
    4  A    between atoms: C_3  and  C_4
    5  A    between atoms: N_8  and  C_9
    6  A    between atoms: C_14  and  N_16
    7  A    between atoms: C_21  and  C_28
    8  A    between atoms: C_23  and  C_24
                            x       y       z     vdW  Elec       q    Type
                         _______ _______ _______ _____ _____    ______ ____

>  <TORSDO>
F 8

$$$$
=
 OpenBabel07192307433D

 64 68  0  0  1  0  0  0  0  0999 V2000
    0.5750    9.7380   19.0090 N   0  0  0  0  0  0  0  0  0  0  0  0
   -0.5620    9.9920   18.1340 C   0  0  0  0  0  0  0  0  0  0  0  0
   -1.4160   10.9270   18.9290 C   0  0  0  0  0  0  0  0  0  0  0  0
   -0.8000   11.1970   20.1440 C   0  0  0  0  0  0  0  0  0  0  0  0
   -1.3600   12.0280   21.0990 C   0  0  0  0  0  0  0  0  0  0  0  0
   -2.6040   12.6130   20.8220 C   0  0  0  0  0  0  0  0  0  0  0  0
   -3.2280   12.3460   19.5790 C   0  0  0  0  0  0  0  0  0  0  0  0
   -2.6440   11.5000   18.6140 C   0  0  0  0  0  0  0  0  0  0  0  0
    0.4690   10.4630   20.2000 C   0  0  0  0  0  0  0  0  0  0  0  0
    1.2200   10.5540   21.1550 O   0  0  0  0  0  0  0  0  0  0  0  0
   -1.0910    9.0550   17.9350 H   0  0  0  0  0  0  0  0  0  0  0  0
   -0.2190   10.4720   17.2120 H   0  0  0  0  0  0  0  0  0  0  0  0
   -0.8360   12.2020   22.0360 H   0  0  0  0  0  0  0  0  0  0  0  0
   -4.1900   12.8120   19.3590 H   0  0  0  0  0  0  0  0  0  0  0  0
   -3.2480   13.5210   21.8570 C   0  0  0  0  0  0  0  0  0  0  0  0
   -2.3900   13.6790   23.1220 C   0  0  0  0  0  0  0  0  0  0  0  0
   -2.9770   14.7250   24.0760 C   0  0  0  0  0  0  0  0  0  0  0  0
   -4.5030   14.8300   24.0070 C   0  0  0  0  0  0  0  0  0  0  0  0
   -5.1450   13.5130   23.5900 C   0  0  0  0  0  0  0  0  0  0  0  0
   -4.6780   13.0580   22.2050 C   0  0  0  0  0  0  0  0  0  0  0  0
   -3.3330   14.5240   21.4130 H   0  0  0  0  0  0  0  0  0  0  0  0
   -2.3200   12.7220   23.6540 H   0  0  0  0  0  0  0  0  0  0  0  0
   -1.3620   13.9610   22.8660 H   0  0  0  0  0  0  0  0  0  0  0  0
   -2.6680   14.4770   25.0980 H   0  0  0  0  0  0  0  0  0  0  0  0
   -2.5470   15.7100   23.8570 H   0  0  0  0  0  0  0  0  0  0  0  0
   -4.8900   15.1520   24.9810 H   0  0  0  0  0  0  0  0  0  0  0  0
   -4.7840   15.6110   23.2870 H   0  0  0  0  0  0  0  0  0  0  0  0
   -4.8940   12.7410   24.3290 H   0  0  0  0  0  0  0  0  0  0  0  0
   -6.2380   13.6080   23.5960 H   0  0  0  0  0  0  0  0  0  0  0  0
   -4.7790   11.9660   22.1540 H   0  0  0  0  0  0  0  0  0  0  0  0
   -5.3640   13.4510   21.4410 H   0  0  0  0  0  0  0  0  0  0  0  0
    2.9770    6.8420   19.1410 C   0  0  0  0  0  0  0  0  0  0  0  0
    3.6890    7.0580   17.9530 C   0  0  0  0  0  0  0  0  0  0  0  0
    3.3700    8.1290   17.1240 C   0  0  0  0  0  0  0  0  0  0  0  0
    2.3420    9.0050   17.4750 C   0  0  0  0  0  0  0  0  0  0  0  0
    1.6140    8.8310   18.6620 C   0  0  0  0  0  0  0  0  0  0  0  0
    1.9470    7.7390   19.4780 C   0  0  0  0  0  0  0  0  0  0  0  0
    4.4930    6.3860   17.6620 H   0  0  0  0  0  0  0  0  0  0  0  0
    3.9230    8.2830   16.2000 H   0  0  0  0  0  0  0  0  0  0  0  0
    2.1370    9.8260   16.7940 H   0  0  0  0  0  0  0  0  0  0  0  0
    1.4010    7.5640   20.4000 H   0  0  0  0  0  0  0  0  0  0  0  0
    3.3640    5.6670   20.0310 C   0  0  2  0  0  0  0  0  0  0  0  0
    3.9640    6.0960   20.8500 H   0  0  0  0  0  0  0  0  0  0  0  0
    4.3030    4.6520   19.3620 C   0  0  0  0  0  0  0  0  0  0  0  0
    5.3370    5.0170   19.3660 H   0  0  0  0  0  0  0  0  0  0  0  0
    4.2840    3.7010   19.9050 H   0  0  0  0  0  0  0  0  0  0  0  0
    4.0310    4.4450   18.3220 H   0  0  0  0  0  0  0  0  0  0  0  0
    2.1390    5.0130   20.7080 C   0  0  0  0  0  0  0  0  0  0  0  0
    1.3430    5.7520   20.8660 H   0  0  0  0  0  0  0  0  0  0  0  0
    2.4420    4.6930   21.7160 H   0  0  0  0  0  0  0  0  0  0  0  0
    1.6000    3.8080   20.0110 C   0  0  0  0  0  0  0  0  0  0  0  0
    1.1690    3.7840   18.7620 N   0  0  0  0  0  0  0  0  0  0  0  0
    0.7600    2.5060   18.4660 N   0  0  0  0  0  0  0  0  0  0  0  0
    0.9560    1.7740   19.5370 C   0  0  0  0  0  0  0  0  0  0  0  0
    1.5050    2.5400   20.5240 N   0  0  0  0  0  0  0  0  0  0  0  0
    0.7350    0.7210   19.6400 H   0  0  0  0  0  0  0  0  0  0  0  0
    1.9050    2.0390   21.8120 C   0  0  0  0  0  0  0  0  0  0  0  0
    1.1760    2.3060   22.5770 H   0  0  0  0  0  0  0  0  0  0  0  0
    2.8700    2.4850   22.0660 H   0  0  0  0  0  0  0  0  0  0  0  0
    1.9990    0.9540   21.7490 H   0  0  0  0  0  0  0  0  0  0  0  0
   -3.3080   11.2320   17.2910 C   0  0  0  0  0  0  0  0  0  0  0  0
   -2.4990   11.5400   16.2400 F   0  0  0  0  0  0  0  0  0  0  0  0
   -3.6370    9.9190   17.1310 F   0  0  0  0  0  0  0  0  0  0  0  0
   -4.4580   11.9330   17.0990 F   0  0  0  0  0  0  0  0  0  0  0  0
  1  9  1  0  0  0  0
  2  3  1  0  0  0  0
  2  1  1  0  0  0  0
  3  4  1  0  0  0  0
  4  9  1  0  0  0  0
  4  5  2  0  0  0  0
  5 13  1  0  0  0  0
  6  5  1  0  0  0  0
  6 15  1  0  0  0  0
  7  6  2  0  0  0  0
  8  3  2  0  0  0  0
  8  7  1  0  0  0  0
  9 10  2  0  0  0  0
 11  2  1  0  0  0  0
 12  2  1  0  0  0  0
 14  7  1  0  0  0  0
 15 20  1  0  0  0  0
 15 16  1  0  0  0  0
 16 22  1  0  0  0  0
 16 17  1  0  0  0  0
 17 24  1  0  0  0  0
 18 17  1  0  0  0  0
 18 26  1  0  0  0  0
 19 29  1  0  0  0  0
 19 18  1  0  0  0  0
 19 28  1  0  0  0  0
 20 19  1  0  0  0  0
 21 15  1  0  0  0  0
 23 16  1  0  0  0  0
 25 17  1  0  0  0  0
 27 18  1  0  0  0  0
 30 20  1  0  0  0  0
 31 20  1  0  0  0  0
 32 37  1  0  0  0  0
 32 42  1  0  0  0  0
 33 32  2  0  0  0  0
 34 35  2  0  0  0  0
 34 33  1  0  0  0  0
 35 36  1  0  0  0  0
 36  1  1  0  0  0  0
 36 37  2  0  0  0  0
 37 41  1  0  0  0  0
 38 33  1  0  0  0  0
 39 34  1  0  0  0  0
 40 35  1  0  0  0  0
 42 48  1  0  0  0  0
 42 43  1  1  0  0  0
 44 45  1  0  0  0  0
 44 46  1  0  0  0  0
 44 42  1  0  0  0  0
 47 44  1  0  0  0  0
 48 49  1  0  0  0  0
 48 50  1  0  0  0  0
 51 55  1  0  0  0  0
 51 48  1  0  0  0  0
 52 51  2  0  0  0  0
 53 52  1  0  0  0  0
 53 54  2  0  0  0  0
 54 56  1  0  0  0  0
 54 55  1  0  0  0  0
 55 57  1  0  0  0  0
 57 59  1  0  0  0  0
 57 58  1  0  0  0  0
 60 57  1  0  0  0  0
 61  8  1  0  0  0  0
 62 61  1  0  0  0  0
 63 61  1  0  0  0  0
 64 61  1  0  0  0  0
M  END
>  <MODEL>
13

>  <REMARK>
 VINA RESULT:    -8.106      3.689      9.781
 INTER + INTRA:         -11.819
 INTER:                 -10.463
 INTRA:                  -1.355
 UNBOUND:                -0.395
  Name = 
  8 active torsions:
  status: ('A' for Active; 'I' for Inactive)
    1  A    between atoms: C_1  and  C_2
    2  A    between atoms: C_2  and  C_3
    3  A    between atoms: C_2  and  C_10
    4  A    between atoms: C_3  and  C_4
    5  A    between atoms: N_8  and  C_9
    6  A    between atoms: C_14  and  N_16
    7  A    between atoms: C_21  and  C_28
    8  A    between atoms: C_23  and  C_24
                            x       y       z     vdW  Elec       q    Type
                         _______ _______ _______ _____ _____    ______ ____

>  <TORSDO>
F 8

$$$$
=
 OpenBabel07192307433D

 64 68  0  0  1  0  0  0  0  0999 V2000
    0.5880    9.6300   19.0470 N   0  0  0  0  0  0  0  0  0  0  0  0
   -0.5450    9.9410   18.1850 C   0  0  0  0  0  0  0  0  0  0  0  0
   -1.3730   10.8680   19.0150 C   0  0  0  0  0  0  0  0  0  0  0  0
   -0.7480   11.0820   20.2370 C   0  0  0  0  0  0  0  0  0  0  0  0
   -1.2840   11.8930   21.2220 C   0  0  0  0  0  0  0  0  0  0  0  0
   -2.5140   12.5170   20.9700 C   0  0  0  0  0  0  0  0  0  0  0  0
   -3.1490   12.3080   19.7210 C   0  0  0  0  0  0  0  0  0  0  0  0
   -2.5880   11.4810   18.7250 C   0  0  0  0  0  0  0  0  0  0  0  0
    0.5030   10.3160   20.2630 C   0  0  0  0  0  0  0  0  0  0  0  0
    1.2590   10.3560   21.2170 O   0  0  0  0  0  0  0  0  0  0  0  0
   -1.0970    9.0240   17.9570 H   0  0  0  0  0  0  0  0  0  0  0  0
   -0.1940   10.4440   17.2800 H   0  0  0  0  0  0  0  0  0  0  0  0
   -0.7540   12.0220   22.1620 H   0  0  0  0  0  0  0  0  0  0  0  0
   -4.1000   12.8040   19.5210 H   0  0  0  0  0  0  0  0  0  0  0  0
   -3.1330   13.4040   22.0380 C   0  0  0  0  0  0  0  0  0  0  0  0
   -2.2950   13.4540   23.3240 C   0  0  0  0  0  0  0  0  0  0  0  0
   -2.8480   14.4800   24.3200 C   0  0  0  0  0  0  0  0  0  0  0  0
   -4.3640   14.6670   24.2280 C   0  0  0  0  0  0  0  0  0  0  0  0
   -5.0640   13.4080   23.7330 C   0  0  0  0  0  0  0  0  0  0  0  0
   -4.5920   12.9990   22.3350 C   0  0  0  0  0  0  0  0  0  0  0  0
   -3.1580   14.4310   21.6440 H   0  0  0  0  0  0  0  0  0  0  0  0
   -2.2850   12.4690   23.8080 H   0  0  0  0  0  0  0  0  0  0  0  0
   -1.2490   13.6950   23.1020 H   0  0  0  0  0  0  0  0  0  0  0  0
   -2.5730   14.1660   25.3340 H   0  0  0  0  0  0  0  0  0  0  0  0
   -2.3640   15.4520   24.1590 H   0  0  0  0  0  0  0  0  0  0  0  0
   -4.7550   14.9600   25.2100 H   0  0  0  0  0  0  0  0  0  0  0  0
   -4.5900   15.4960   23.5440 H   0  0  0  0  0  0  0  0  0  0  0  0
   -4.8680   12.5880   24.4360 H   0  0  0  0  0  0  0  0  0  0  0  0
   -6.1500   13.5580   23.7240 H   0  0  0  0  0  0  0  0  0  0  0  0
   -4.7470   11.9180   22.2280 H   0  0  0  0  0  0  0  0  0  0  0  0
   -5.2400   13.4650   21.5800 H   0  0  0  0  0  0  0  0  0  0  0  0
    2.6830    6.5080   18.8400 C   0  0  0  0  0  0  0  0  0  0  0  0
    3.6370    6.9150   17.8970 C   0  0  0  0  0  0  0  0  0  0  0  0
    3.5790    8.1860   17.3360 C   0  0  0  0  0  0  0  0  0  0  0  0
    2.5700    9.0740   17.7150 C   0  0  0  0  0  0  0  0  0  0  0  0
    1.6030    8.7110   18.6650 C   0  0  0  0  0  0  0  0  0  0  0  0
    1.6780    7.4200   19.2110 C   0  0  0  0  0  0  0  0  0  0  0  0
    4.4300    6.2370   17.5880 H   0  0  0  0  0  0  0  0  0  0  0  0
    4.3190    8.4890   16.5990 H   0  0  0  0  0  0  0  0  0  0  0  0
    2.5720   10.0550   17.2490 H   0  0  0  0  0  0  0  0  0  0  0  0
    0.9430    7.0970   19.9420 H   0  0  0  0  0  0  0  0  0  0  0  0
    2.7880    5.1140   19.4430 C   0  0  2  0  0  0  0  0  0  0  0  0
    2.3200    4.4340   18.7130 H   0  0  0  0  0  0  0  0  0  0  0  0
    1.9670    4.9190   20.7260 C   0  0  0  0  0  0  0  0  0  0  0  0
    1.3120    4.0430   20.6400 H   0  0  0  0  0  0  0  0  0  0  0  0
    2.6310    4.7550   21.5820 H   0  0  0  0  0  0  0  0  0  0  0  0
    1.3340    5.7810   20.9590 H   0  0  0  0  0  0  0  0  0  0  0  0
    4.2530    4.6380   19.5770 C   0  0  0  0  0  0  0  0  0  0  0  0
    4.3210    3.7800   20.2580 H   0  0  0  0  0  0  0  0  0  0  0  0
    4.8260    5.4410   20.0640 H   0  0  0  0  0  0  0  0  0  0  0  0
    4.9380    4.3330   18.2860 C   0  0  0  0  0  0  0  0  0  0  0  0
    4.3970    3.6720   17.2780 N   0  0  0  0  0  0  0  0  0  0  0  0
    5.3190    3.5960   16.2620 N   0  0  0  0  0  0  0  0  0  0  0  0
    6.4010    4.2170   16.6670 C   0  0  0  0  0  0  0  0  0  0  0  0
    6.2020    4.7190   17.9190 N   0  0  0  0  0  0  0  0  0  0  0  0
    7.3170    4.3350   16.1050 H   0  0  0  0  0  0  0  0  0  0  0  0
    7.1640    5.5100   18.6390 C   0  0  0  0  0  0  0  0  0  0  0  0
    7.0920    6.5600   18.3580 H   0  0  0  0  0  0  0  0  0  0  0  0
    8.1620    5.1400   18.3920 H   0  0  0  0  0  0  0  0  0  0  0  0
    6.9770    5.3970   19.7080 H   0  0  0  0  0  0  0  0  0  0  0  0
   -3.2630   11.2750   17.3970 C   0  0  0  0  0  0  0  0  0  0  0  0
   -3.6540    9.9840   17.2160 F   0  0  0  0  0  0  0  0  0  0  0  0
   -4.3950   12.0240   17.2680 F   0  0  0  0  0  0  0  0  0  0  0  0
   -2.4830   11.5860   16.3270 F   0  0  0  0  0  0  0  0  0  0  0  0
  1  9  1  0  0  0  0
  2  3  1  0  0  0  0
  2  1  1  0  0  0  0
  3  4  1  0  0  0  0
  4  9  1  0  0  0  0
  4  5  2  0  0  0  0
  5 13  1  0  0  0  0
  6  5  1  0  0  0  0
  6 15  1  0  0  0  0
  7  6  2  0  0  0  0
  8  3  2  0  0  0  0
  8  7  1  0  0  0  0
  9 10  2  0  0  0  0
 11  2  1  0  0  0  0
 12  2  1  0  0  0  0
 14  7  1  0  0  0  0
 15 20  1  0  0  0  0
 15 16  1  0  0  0  0
 16 22  1  0  0  0  0
 16 17  1  0  0  0  0
 17 24  1  0  0  0  0
 18 17  1  0  0  0  0
 18 26  1  0  0  0  0
 19 18  1  0  0  0  0
 19 28  1  0  0  0  0
 20 19  1  0  0  0  0
 21 15  1  0  0  0  0
 23 16  1  0  0  0  0
 25 17  1  0  0  0  0
 27 18  1  0  0  0  0
 29 19  1  0  0  0  0
 30 20  1  0  0  0  0
 31 20  1  0  0  0  0
 32 37  1  0  0  0  0
 32 42  1  0  0  0  0
 33 32  2  0  0  0  0
 34 35  2  0  0  0  0
 34 33  1  0  0  0  0
 35 36  1  0  0  0  0
 36  1  1  0  0  0  0
 36 37  2  0  0  0  0
 37 41  1  0  0  0  0
 38 33  1  0  0  0  0
 39 34  1  0  0  0  0
 40 35  1  0  0  0  0
 42 43  1  6  0  0  0
 42 48  1  0  0  0  0
 42 44  1  0  0  0  0
 44 47  1  0  0  0  0
 44 46  1  0  0  0  0
 45 44  1  0  0  0  0
 48 50  1  0  0  0  0
 48 49  1  0  0  0  0
 51 48  1  0  0  0  0
 52 51  2  0  0  0  0
 53 54  2  0  0  0  0
 53 52  1  0  0  0  0
 54 55  1  0  0  0  0
 55 51  1  0  0  0  0
 55 57  1  0  0  0  0
 56 54  1  0  0  0  0
 57 60  1  0  0  0  0
 58 57  1  0  0  0  0
 59 57  1  0  0  0  0
 61  8  1  0  0  0  0
 62 61  1  0  0  0  0
 63 61  1  0  0  0  0
 64 61  1  0  0  0  0
M  END
>  <MODEL>
14

>  <REMARK>
 VINA RESULT:    -8.077      3.856     10.038
 INTER + INTRA:         -11.778
 INTER:                 -11.049
 INTRA:                  -0.729
 UNBOUND:                -0.395
  Name = 
  8 active torsions:
  status: ('A' for Active; 'I' for Inactive)
    1  A    between atoms: C_1  and  C_2
    2  A    between atoms: C_2  and  C_3
    3  A    between atoms: C_2  and  C_10
    4  A    between atoms: C_3  and  C_4
    5  A    between atoms: N_8  and  C_9
    6  A    between atoms: C_14  and  N_16
    7  A    between atoms: C_21  and  C_28
    8  A    between atoms: C_23  and  C_24
                            x       y       z     vdW  Elec       q    Type
                         _______ _______ _______ _____ _____    ______ ____

>  <TORSDO>
F 8

$$$$
=
 OpenBabel07192307433D

 64 68  0  0  1  0  0  0  0  0999 V2000
    0.4290    9.7280   19.1280 N   0  0  0  0  0  0  0  0  0  0  0  0
   -0.7130   10.0070   18.2660 C   0  0  0  0  0  0  0  0  0  0  0  0
   -1.5240   10.9790   19.0610 C   0  0  0  0  0  0  0  0  0  0  0  0
   -0.8810   11.2460   20.2630 C   0  0  0  0  0  0  0  0  0  0  0  0
   -1.3990   12.1080   21.2150 C   0  0  0  0  0  0  0  0  0  0  0  0
   -2.6280   12.7290   20.9480 C   0  0  0  0  0  0  0  0  0  0  0  0
   -3.2790   12.4650   19.7180 C   0  0  0  0  0  0  0  0  0  0  0  0
   -2.7370   11.5870   18.7570 C   0  0  0  0  0  0  0  0  0  0  0  0
    0.3640   10.4720   20.3110 C   0  0  0  0  0  0  0  0  0  0  0  0
    1.1320   10.5520   21.2520 O   0  0  0  0  0  0  0  0  0  0  0  0
   -1.2740    9.0850   18.0890 H   0  0  0  0  0  0  0  0  0  0  0  0
   -0.3690   10.4630   17.3330 H   0  0  0  0  0  0  0  0  0  0  0  0
   -0.8560   12.2780   22.1410 H   0  0  0  0  0  0  0  0  0  0  0  0
   -4.2290   12.9590   19.5050 H   0  0  0  0  0  0  0  0  0  0  0  0
   -3.2270   13.6710   21.9790 C   0  0  0  0  0  0  0  0  0  0  0  0
   -2.3340   13.8380   23.2180 C   0  0  0  0  0  0  0  0  0  0  0  0
   -2.8740   14.9150   24.1640 C   0  0  0  0  0  0  0  0  0  0  0  0
   -4.3990   15.0500   24.1320 C   0  0  0  0  0  0  0  0  0  0  0  0
   -5.0780   13.7390   23.7600 C   0  0  0  0  0  0  0  0  0  0  0  0
   -4.6560   13.2450   22.3730 C   0  0  0  0  0  0  0  0  0  0  0  0
   -3.3030   14.6660   21.5170 H   0  0  0  0  0  0  0  0  0  0  0  0
   -2.2690   12.8900   23.7690 H   0  0  0  0  0  0  0  0  0  0  0  0
   -1.3070   14.0930   22.9300 H   0  0  0  0  0  0  0  0  0  0  0  0
   -2.5440   14.6810   25.1840 H   0  0  0  0  0  0  0  0  0  0  0  0
   -2.4310   15.8860   23.9140 H   0  0  0  0  0  0  0  0  0  0  0  0
   -4.7550   15.4000   25.1080 H   0  0  0  0  0  0  0  0  0  0  0  0
   -4.6820   15.8210   23.4030 H   0  0  0  0  0  0  0  0  0  0  0  0
   -4.8240   12.9770   24.5080 H   0  0  0  0  0  0  0  0  0  0  0  0
   -6.1680   13.8560   23.7910 H   0  0  0  0  0  0  0  0  0  0  0  0
   -4.7800   12.1550   22.3480 H   0  0  0  0  0  0  0  0  0  0  0  0
   -5.3530   13.6370   21.6180 H   0  0  0  0  0  0  0  0  0  0  0  0
    2.5090    6.5910   19.0590 C   0  0  0  0  0  0  0  0  0  0  0  0
    3.4430    6.9370   18.0730 C   0  0  0  0  0  0  0  0  0  0  0  0
    3.3760    8.1730   17.4390 C   0  0  0  0  0  0  0  0  0  0  0  0
    2.3780    9.0860   17.7880 C   0  0  0  0  0  0  0  0  0  0  0  0
    1.4320    8.7840   18.7780 C   0  0  0  0  0  0  0  0  0  0  0  0
    1.5150    7.5270   19.3980 C   0  0  0  0  0  0  0  0  0  0  0  0
    4.2260    6.2380   17.7860 H   0  0  0  0  0  0  0  0  0  0  0  0
    4.1000    8.4280   16.6690 H   0  0  0  0  0  0  0  0  0  0  0  0
    2.3730   10.0380   17.2640 H   0  0  0  0  0  0  0  0  0  0  0  0
    0.7960    7.2510   20.1630 H   0  0  0  0  0  0  0  0  0  0  0  0
    2.6240    5.2340   19.7410 C   0  0  2  0  0  0  0  0  0  0  0  0
    1.9630    4.5570   19.1760 H   0  0  0  0  0  0  0  0  0  0  0  0
    2.0690    5.2000   21.1730 C   0  0  0  0  0  0  0  0  0  0  0  0
    1.0170    4.8890   21.1760 H   0  0  0  0  0  0  0  0  0  0  0  0
    2.6300    4.4810   21.7810 H   0  0  0  0  0  0  0  0  0  0  0  0
    2.1260    6.1720   21.6730 H   0  0  0  0  0  0  0  0  0  0  0  0
    4.0410    4.6310   19.6200 C   0  0  0  0  0  0  0  0  0  0  0  0
    4.6240    4.8240   20.5300 H   0  0  0  0  0  0  0  0  0  0  0  0
    4.5700    5.1680   18.8190 H   0  0  0  0  0  0  0  0  0  0  0  0
    4.0830    3.1790   19.2740 C   0  0  0  0  0  0  0  0  0  0  0  0
    4.6320    2.2370   20.0210 N   0  0  0  0  0  0  0  0  0  0  0  0
    4.4690    1.0280   19.3880 N   0  0  0  0  0  0  0  0  0  0  0  0
    3.8170    1.2550   18.2720 C   0  0  0  0  0  0  0  0  0  0  0  0
    3.5310    2.5850   18.1690 N   0  0  0  0  0  0  0  0  0  0  0  0
    3.5320    0.5150   17.5380 H   0  0  0  0  0  0  0  0  0  0  0  0
    2.7710    3.1700   17.0970 C   0  0  0  0  0  0  0  0  0  0  0  0
    2.4950    2.4180   16.3590 H   0  0  0  0  0  0  0  0  0  0  0  0
    3.3910    3.9330   16.6170 H   0  0  0  0  0  0  0  0  0  0  0  0
    1.8730    3.6280   17.5160 H   0  0  0  0  0  0  0  0  0  0  0  0
   -3.4300   11.3230   17.4480 C   0  0  0  0  0  0  0  0  0  0  0  0
   -3.8760   10.0410   17.3540 F   0  0  0  0  0  0  0  0  0  0  0  0
   -4.5310   12.1090   17.2750 F   0  0  0  0  0  0  0  0  0  0  0  0
   -2.6460   11.5300   16.3560 F   0  0  0  0  0  0  0  0  0  0  0  0
  1  9  1  0  0  0  0
  2  3  1  0  0  0  0
  2  1  1  0  0  0  0
  3  4  1  0  0  0  0
  4  9  1  0  0  0  0
  4  5  2  0  0  0  0
  5 13  1  0  0  0  0
  6  5  1  0  0  0  0
  6 15  1  0  0  0  0
  7  6  2  0  0  0  0
  8  3  2  0  0  0  0
  8  7  1  0  0  0  0
  9 10  2  0  0  0  0
 11  2  1  0  0  0  0
 12  2  1  0  0  0  0
 14  7  1  0  0  0  0
 15 20  1  0  0  0  0
 15 16  1  0  0  0  0
 16 22  1  0  0  0  0
 16 17  1  0  0  0  0
 17 24  1  0  0  0  0
 18 17  1  0  0  0  0
 18 26  1  0  0  0  0
 19 29  1  0  0  0  0
 19 18  1  0  0  0  0
 19 28  1  0  0  0  0
 20 19  1  0  0  0  0
 21 15  1  0  0  0  0
 23 16  1  0  0  0  0
 25 17  1  0  0  0  0
 27 18  1  0  0  0  0
 30 20  1  0  0  0  0
 31 20  1  0  0  0  0
 32 37  1  0  0  0  0
 32 42  1  0  0  0  0
 33 32  2  0  0  0  0
 34 35  2  0  0  0  0
 34 33  1  0  0  0  0
 35 36  1  0  0  0  0
 36  1  1  0  0  0  0
 36 37  2  0  0  0  0
 37 41  1  0  0  0  0
 38 33  1  0  0  0  0
 39 34  1  0  0  0  0
 40 35  1  0  0  0  0
 42 43  1  6  0  0  0
 42 44  1  0  0  0  0
 44 45  1  0  0  0  0
 44 47  1  0  0  0  0
 44 46  1  0  0  0  0
 48 42  1  0  0  0  0
 48 49  1  0  0  0  0
 50 48  1  0  0  0  0
 51 48  1  0  0  0  0
 51 52  2  0  0  0  0
 53 52  1  0  0  0  0
 54 53  2  0  0  0  0
 55 54  1  0  0  0  0
 55 51  1  0  0  0  0
 56 54  1  0  0  0  0
 57 60  1  0  0  0  0
 57 55  1  0  0  0  0
 58 57  1  0  0  0  0
 59 57  1  0  0  0  0
 61  8  1  0  0  0  0
 62 61  1  0  0  0  0
 63 61  1  0  0  0  0
 64 61  1  0  0  0  0
M  END
>  <MODEL>
15

>  <REMARK>
 VINA RESULT:    -8.063      3.978     10.120
 INTER + INTRA:         -11.757
 INTER:                 -10.448
 INTRA:                  -1.309
 UNBOUND:                -0.395
  Name = 
  8 active torsions:
  status: ('A' for Active; 'I' for Inactive)
    1  A    between atoms: C_1  and  C_2
    2  A    between atoms: C_2  and  C_3
    3  A    between atoms: C_2  and  C_10
    4  A    between atoms: C_3  and  C_4
    5  A    between atoms: N_8  and  C_9
    6  A    between atoms: C_14  and  N_16
    7  A    between atoms: C_21  and  C_28
    8  A    between atoms: C_23  and  C_24
                            x       y       z     vdW  Elec       q    Type
                         _______ _______ _______ _____ _____    ______ ____

>  <TORSDO>
F 8

$$$$
=
 OpenBabel07192307433D

 64 68  0  0  1  0  0  0  0  0999 V2000
    1.1400    8.6980   20.5330 N   0  0  0  0  0  0  0  0  0  0  0  0
    1.5420    9.9310   19.8690 C   0  0  0  0  0  0  0  0  0  0  0  0
    0.6590   10.9670   20.4870 C   0  0  0  0  0  0  0  0  0  0  0  0
   -0.1590   10.3720   21.4390 C   0  0  0  0  0  0  0  0  0  0  0  0
   -1.0920   11.0810   22.1740 C   0  0  0  0  0  0  0  0  0  0  0  0
   -1.2150   12.4580   21.9380 C   0  0  0  0  0  0  0  0  0  0  0  0
   -0.3740   13.0680   20.9740 C   0  0  0  0  0  0  0  0  0  0  0  0
    0.5750   12.3320   20.2350 C   0  0  0  0  0  0  0  0  0  0  0  0
    0.1480    8.9380   21.4890 C   0  0  0  0  0  0  0  0  0  0  0  0
   -0.4130    8.1900   22.2690 O   0  0  0  0  0  0  0  0  0  0  0  0
    1.3540    9.8490   18.7940 H   0  0  0  0  0  0  0  0  0  0  0  0
    2.5940   10.1410   20.0850 H   0  0  0  0  0  0  0  0  0  0  0  0
   -1.7090   10.5640   22.9040 H   0  0  0  0  0  0  0  0  0  0  0  0
   -0.4620   14.1420   20.8000 H   0  0  0  0  0  0  0  0  0  0  0  0
   -2.2390   13.2610   22.7230 C   0  0  0  0  0  0  0  0  0  0  0  0
   -1.5950   14.1490   23.7990 C   0  0  0  0  0  0  0  0  0  0  0  0
   -2.6250   15.0700   24.4620 C   0  0  0  0  0  0  0  0  0  0  0  0
   -4.0350   14.4770   24.5130 C   0  0  0  0  0  0  0  0  0  0  0  0
   -4.0110   12.9550   24.5580 C   0  0  0  0  0  0  0  0  0  0  0  0
   -3.3310   12.3530   23.3250 C   0  0  0  0  0  0  0  0  0  0  0  0
   -2.7380   13.9430   22.0190 H   0  0  0  0  0  0  0  0  0  0  0  0
   -1.1330   13.5260   24.5770 H   0  0  0  0  0  0  0  0  0  0  0  0
   -0.7870   14.7570   23.3750 H   0  0  0  0  0  0  0  0  0  0  0  0
   -2.2830   15.3010   25.4780 H   0  0  0  0  0  0  0  0  0  0  0  0
   -2.6660   16.0270   23.9280 H   0  0  0  0  0  0  0  0  0  0  0  0
   -4.5680   14.8760   25.3850 H   0  0  0  0  0  0  0  0  0  0  0  0
   -4.6010   14.8010   23.6290 H   0  0  0  0  0  0  0  0  0  0  0  0
   -3.4770   12.6300   25.4610 H   0  0  0  0  0  0  0  0  0  0  0  0
   -5.0320   12.5630   24.6420 H   0  0  0  0  0  0  0  0  0  0  0  0
   -2.9360   11.3670   23.6020 H   0  0  0  0  0  0  0  0  0  0  0  0
   -4.0850   12.1590   22.5500 H   0  0  0  0  0  0  0  0  0  0  0  0
    3.2860    6.0630   18.9110 C   0  0  0  0  0  0  0  0  0  0  0  0
    2.7600    4.9130   19.5140 C   0  0  0  0  0  0  0  0  0  0  0  0
    1.7310    5.0100   20.4440 C   0  0  0  0  0  0  0  0  0  0  0  0
    1.2040    6.2590   20.7790 C   0  0  0  0  0  0  0  0  0  0  0  0
    1.6930    7.4340   20.1880 C   0  0  0  0  0  0  0  0  0  0  0  0
    2.7380    7.3110   19.2590 C   0  0  0  0  0  0  0  0  0  0  0  0
    3.1580    3.9300   19.2680 H   0  0  0  0  0  0  0  0  0  0  0  0
    1.3360    4.1120   20.9130 H   0  0  0  0  0  0  0  0  0  0  0  0
    0.3990    6.2790   21.5080 H   0  0  0  0  0  0  0  0  0  0  0  0
    3.1510    8.1970   18.7870 H   0  0  0  0  0  0  0  0  0  0  0  0
    4.4030    5.9160   17.8870 C   0  0  2  0  0  0  0  0  0  0  0  0
    5.3420    5.9080   18.4650 H   0  0  0  0  0  0  0  0  0  0  0  0
    4.5500    7.1140   16.9370 C   0  0  0  0  0  0  0  0  0  0  0  0
    4.6300    6.7780   15.8960 H   0  0  0  0  0  0  0  0  0  0  0  0
    3.6720    7.7660   17.0100 H   0  0  0  0  0  0  0  0  0  0  0  0
    5.4330    7.7230   17.1560 H   0  0  0  0  0  0  0  0  0  0  0  0
    4.3550    4.5560   17.1530 C   0  0  0  0  0  0  0  0  0  0  0  0
    3.3320    4.3280   16.8280 H   0  0  0  0  0  0  0  0  0  0  0  0
    4.6110    3.7710   17.8790 H   0  0  0  0  0  0  0  0  0  0  0  0
    5.3070    4.4210   16.0100 C   0  0  0  0  0  0  0  0  0  0  0  0
    4.9560    4.3220   14.7400 N   0  0  0  0  0  0  0  0  0  0  0  0
    6.0960    4.2240   13.9800 N   0  0  0  0  0  0  0  0  0  0  0  0
    7.1200    4.2730   14.7990 C   0  0  0  0  0  0  0  0  0  0  0  0
    6.6760    4.4210   16.0810 N   0  0  0  0  0  0  0  0  0  0  0  0
    8.1620    4.2170   14.5220 H   0  0  0  0  0  0  0  0  0  0  0  0
    7.5350    4.5710   17.2250 C   0  0  0  0  0  0  0  0  0  0  0  0
    7.0990    5.2550   17.9520 H   0  0  0  0  0  0  0  0  0  0  0  0
    8.4910    4.9740   16.8820 H   0  0  0  0  0  0  0  0  0  0  0  0
    7.6840    3.5900   17.6790 H   0  0  0  0  0  0  0  0  0  0  0  0
    1.4710   12.9920   19.2230 C   0  0  0  0  0  0  0  0  0  0  0  0
    1.4240   12.3680   18.0140 F   0  0  0  0  0  0  0  0  0  0  0  0
    1.1200   14.2870   18.9830 F   0  0  0  0  0  0  0  0  0  0  0  0
    2.7830   13.0180   19.5810 F   0  0  0  0  0  0  0  0  0  0  0  0
  1  9  1  0  0  0  0
  2 12  1  0  0  0  0
  2  3  1  0  0  0  0
  2  1  1  0  0  0  0
  3  4  1  0  0  0  0
  4  9  1  0  0  0  0
  4  5  2  0  0  0  0
  5 13  1  0  0  0  0
  6  5  1  0  0  0  0
  6 15  1  0  0  0  0
  7  6  2  0  0  0  0
  8  3  2  0  0  0  0
  8  7  1  0  0  0  0
  9 10  2  0  0  0  0
 11  2  1  0  0  0  0
 14  7  1  0  0  0  0
 15 20  1  0  0  0  0
 15 16  1  0  0  0  0
 16 17  1  0  0  0  0
 16 22  1  0  0  0  0
 17 18  1  0  0  0  0
 17 24  1  0  0  0  0
 18 19  1  0  0  0  0
 18 26  1  0  0  0  0
 19 29  1  0  0  0  0
 19 28  1  0  0  0  0
 20 30  1  0  0  0  0
 20 19  1  0  0  0  0
 21 15  1  0  0  0  0
 23 16  1  0  0  0  0
 25 17  1  0  0  0  0
 27 18  1  0  0  0  0
 31 20  1  0  0  0  0
 32 37  2  0  0  0  0
 32 33  1  0  0  0  0
 33 34  2  0  0  0  0
 34 35  1  0  0  0  0
 34 39  1  0  0  0  0
 35 40  1  0  0  0  0
 36  1  1  0  0  0  0
 36 35  2  0  0  0  0
 37 36  1  0  0  0  0
 38 33  1  0  0  0  0
 41 37  1  0  0  0  0
 42 43  1  1  0  0  0
 42 32  1  0  0  0  0
 44 46  1  0  0  0  0
 44 47  1  0  0  0  0
 44 42  1  0  0  0  0
 45 44  1  0  0  0  0
 48 50  1  0  0  0  0
 48 42  1  0  0  0  0
 49 48  1  0  0  0  0
 51 55  1  0  0  0  0
 51 48  1  0  0  0  0
 52 51  2  0  0  0  0
 53 52  1  0  0  0  0
 53 54  2  0  0  0  0
 54 55  1  0  0  0  0
 55 57  1  0  0  0  0
 56 54  1  0  0  0  0
 57 60  1  0  0  0  0
 57 58  1  0  0  0  0
 59 57  1  0  0  0  0
 61 64  1  0  0  0  0
 61  8  1  0  0  0  0
 62 61  1  0  0  0  0
 63 61  1  0  0  0  0
M  END
>  <MODEL>
16

>  <REMARK>
 VINA RESULT:    -8.015      4.136     10.013
 INTER + INTRA:         -11.691
 INTER:                 -10.774
 INTRA:                  -0.917
 UNBOUND:                -0.395
  Name = 
  8 active torsions:
  status: ('A' for Active; 'I' for Inactive)
    1  A    between atoms: C_1  and  C_2
    2  A    between atoms: C_2  and  C_3
    3  A    between atoms: C_2  and  C_10
    4  A    between atoms: C_3  and  C_4
    5  A    between atoms: N_8  and  C_9
    6  A    between atoms: C_14  and  N_16
    7  A    between atoms: C_21  and  C_28
    8  A    between atoms: C_23  and  C_24
                            x       y       z     vdW  Elec       q    Type
                         _______ _______ _______ _____ _____    ______ ____

>  <TORSDO>
F 8

$$$$
=
 OpenBabel07192307433D

 64 68  0  0  1  0  0  0  0  0999 V2000
    1.2110   10.0410   19.1660 N   0  0  0  0  0  0  0  0  0  0  0  0
    1.0630    8.8100   19.9330 C   0  0  0  0  0  0  0  0  0  0  0  0
    2.0000    7.8610   19.2580 C   0  0  0  0  0  0  0  0  0  0  0  0
    2.6420    8.5080   18.2100 C   0  0  0  0  0  0  0  0  0  0  0  0
    3.5640    7.8790   17.3930 C   0  0  0  0  0  0  0  0  0  0  0  0
    3.8530    6.5290   17.6360 C   0  0  0  0  0  0  0  0  0  0  0  0
    3.2070    5.8690   18.7110 C   0  0  0  0  0  0  0  0  0  0  0  0
    2.2710    6.5250   19.5370 C   0  0  0  0  0  0  0  0  0  0  0  0
    2.1630    9.8940   18.1520 C   0  0  0  0  0  0  0  0  0  0  0  0
    2.5950   10.6870   17.3360 O   0  0  0  0  0  0  0  0  0  0  0  0
    0.0310    8.4550   19.8640 H   0  0  0  0  0  0  0  0  0  0  0  0
    1.3690    8.9820   20.9690 H   0  0  0  0  0  0  0  0  0  0  0  0
    4.0340    8.4320   16.5840 H   0  0  0  0  0  0  0  0  0  0  0  0
    3.4420    4.8220   18.9080 H   0  0  0  0  0  0  0  0  0  0  0  0
    4.8540    5.8070   16.7480 C   0  0  0  0  0  0  0  0  0  0  0  0
    4.5390    4.3120   16.5950 C   0  0  0  0  0  0  0  0  0  0  0  0
    5.4580    3.6420   15.5680 C   0  0  0  0  0  0  0  0  0  0  0  0
    6.8470    4.2800   15.4810 C   0  0  0  0  0  0  0  0  0  0  0  0
    7.2640    4.9170   16.8000 C   0  0  0  0  0  0  0  0  0  0  0  0
    6.3030    6.0270   17.2330 C   0  0  0  0  0  0  0  0  0  0  0  0
    4.7820    6.2440   15.7420 H   0  0  0  0  0  0  0  0  0  0  0  0
    4.6590    3.7980   17.5570 H   0  0  0  0  0  0  0  0  0  0  0  0
    3.4940    4.1600   16.2970 H   0  0  0  0  0  0  0  0  0  0  0  0
    5.5530    2.5800   15.8240 H   0  0  0  0  0  0  0  0  0  0  0  0
    4.9930    3.6770   14.5750 H   0  0  0  0  0  0  0  0  0  0  0  0
    7.5780    3.5220   15.1750 H   0  0  0  0  0  0  0  0  0  0  0  0
    6.8490    5.0480   14.6950 H   0  0  0  0  0  0  0  0  0  0  0  0
    7.2970    4.1420   17.5780 H   0  0  0  0  0  0  0  0  0  0  0  0
    8.2800    5.3220   16.7200 H   0  0  0  0  0  0  0  0  0  0  0  0
    6.3590    6.1180   18.3260 H   0  0  0  0  0  0  0  0  0  0  0  0
    6.6560    6.9900   16.8400 H   0  0  0  0  0  0  0  0  0  0  0  0
   -1.7190   12.2780   19.9290 C   0  0  0  0  0  0  0  0  0  0  0  0
   -1.0780   13.5230   19.9530 C   0  0  0  0  0  0  0  0  0  0  0  0
    0.2930   13.6170   19.7350 C   0  0  0  0  0  0  0  0  0  0  0  0
    1.0420   12.4660   19.4810 C   0  0  0  0  0  0  0  0  0  0  0  0
    0.4360   11.2020   19.4360 C   0  0  0  0  0  0  0  0  0  0  0  0
   -0.9470   11.1320   19.6670 C   0  0  0  0  0  0  0  0  0  0  0  0
   -1.6440   14.4310   20.1510 H   0  0  0  0  0  0  0  0  0  0  0  0
    0.7820   14.5880   19.7650 H   0  0  0  0  0  0  0  0  0  0  0  0
    2.1070   12.5950   19.3150 H   0  0  0  0  0  0  0  0  0  0  0  0
   -1.4520   10.1710   19.6500 H   0  0  0  0  0  0  0  0  0  0  0  0
   -3.2240   12.2170   20.1580 C   0  0  2  0  0  0  0  0  0  0  0  0
   -3.3930   11.3500   20.8160 H   0  0  0  0  0  0  0  0  0  0  0  0
   -4.0410   11.9020   18.8960 C   0  0  0  0  0  0  0  0  0  0  0  0
   -4.3820   10.8590   18.9030 H   0  0  0  0  0  0  0  0  0  0  0  0
   -4.9290   12.5420   18.8480 H   0  0  0  0  0  0  0  0  0  0  0  0
   -3.4720   12.0560   17.9730 H   0  0  0  0  0  0  0  0  0  0  0  0
   -3.7520   13.4420   20.9380 C   0  0  0  0  0  0  0  0  0  0  0  0
   -4.6440   13.8560   20.4520 H   0  0  0  0  0  0  0  0  0  0  0  0
   -2.9930   14.2360   20.8750 H   0  0  0  0  0  0  0  0  0  0  0  0
   -4.0130   13.2030   22.3890 C   0  0  0  0  0  0  0  0  0  0  0  0
   -5.1460   12.7410   22.8880 N   0  0  0  0  0  0  0  0  0  0  0  0
   -5.0120   12.6410   24.2520 N   0  0  0  0  0  0  0  0  0  0  0  0
   -3.7990   13.0380   24.5570 C   0  0  0  0  0  0  0  0  0  0  0  0
   -3.1260   13.3750   23.4190 N   0  0  0  0  0  0  0  0  0  0  0  0
   -3.3740   13.0870   25.5490 H   0  0  0  0  0  0  0  0  0  0  0  0
   -1.7510   13.7940   23.3850 C   0  0  0  0  0  0  0  0  0  0  0  0
   -1.3620   13.7710   22.3670 H   0  0  0  0  0  0  0  0  0  0  0  0
   -1.1700   13.1070   24.0060 H   0  0  0  0  0  0  0  0  0  0  0  0
   -1.6850   14.8070   23.7860 H   0  0  0  0  0  0  0  0  0  0  0  0
    1.5990    5.8210   20.6840 C   0  0  0  0  0  0  0  0  0  0  0  0
    0.9610    6.6890   21.5150 F   0  0  0  0  0  0  0  0  0  0  0  0
    0.6440    4.9420   20.2650 F   0  0  0  0  0  0  0  0  0  0  0  0
    2.4500    5.1050   21.4670 F   0  0  0  0  0  0  0  0  0  0  0  0
  1 36  1  0  0  0  0
  1  2  1  0  0  0  0
  2 12  1  0  0  0  0
  3  8  1  0  0  0  0
  3  2  1  0  0  0  0
  4  3  2  0  0  0  0
  5  6  2  0  0  0  0
  5  4  1  0  0  0  0
  6  7  1  0  0  0  0
  7 14  1  0  0  0  0
  7  8  2  0  0  0  0
  8 61  1  0  0  0  0
  9  4  1  0  0  0  0
  9  1  1  0  0  0  0
 10  9  2  0  0  0  0
 11  2  1  0  0  0  0
 13  5  1  0  0  0  0
 15 20  1  0  0  0  0
 15  6  1  0  0  0  0
 16 15  1  0  0  0  0
 16 22  1  0  0  0  0
 17 24  1  0  0  0  0
 17 16  1  0  0  0  0
 18 17  1  0  0  0  0
 18 19  1  0  0  0  0
 19 20  1  0  0  0  0
 19 28  1  0  0  0  0
 20 30  1  0  0  0  0
 21 15  1  0  0  0  0
 23 16  1  0  0  0  0
 25 17  1  0  0  0  0
 26 18  1  0  0  0  0
 27 18  1  0  0  0  0
 29 19  1  0  0  0  0
 31 20  1  0  0  0  0
 32 33  1  0  0  0  0
 32 42  1  0  0  0  0
 33 38  1  0  0  0  0
 34 39  1  0  0  0  0
 34 33  2  0  0  0  0
 35 34  1  0  0  0  0
 36 35  2  0  0  0  0
 36 37  1  0  0  0  0
 37 32  2  0  0  0  0
 40 35  1  0  0  0  0
 41 37  1  0  0  0  0
 42 43  1  1  0  0  0
 42 48  1  0  0  0  0
 44 45  1  0  0  0  0
 44 42  1  0  0  0  0
 46 44  1  0  0  0  0
 47 44  1  0  0  0  0
 48 51  1  0  0  0  0
 49 48  1  0  0  0  0
 50 48  1  0  0  0  0
 51 52  2  0  0  0  0
 51 55  1  0  0  0  0
 52 53  1  0  0  0  0
 53 54  2  0  0  0  0
 54 56  1  0  0  0  0
 55 54  1  0  0  0  0
 57 55  1  0  0  0  0
 57 60  1  0  0  0  0
 57 59  1  0  0  0  0
 58 57  1  0  0  0  0
 61 64  1  0  0  0  0
 61 62  1  0  0  0  0
 63 61  1  0  0  0  0
M  END
>  <MODEL>
17

>  <REMARK>
 VINA RESULT:    -8.005      2.378      3.497
 INTER + INTRA:         -11.676
 INTER:                 -10.792
 INTRA:                  -0.884
 UNBOUND:                -0.395
  Name = 
  8 active torsions:
  status: ('A' for Active; 'I' for Inactive)
    1  A    between atoms: C_1  and  C_2
    2  A    between atoms: C_2  and  C_3
    3  A    between atoms: C_2  and  C_10
    4  A    between atoms: C_3  and  C_4
    5  A    between atoms: N_8  and  C_9
    6  A    between atoms: C_14  and  N_16
    7  A    between atoms: C_21  and  C_28
    8  A    between atoms: C_23  and  C_24
                            x       y       z     vdW  Elec       q    Type
                         _______ _______ _______ _____ _____    ______ ____

>  <TORSDO>
F 8

$$$$
=
 OpenBabel07192307433D

 64 68  0  0  1  0  0  0  0  0999 V2000
    1.4700    8.9180   19.1340 N   0  0  0  0  0  0  0  0  0  0  0  0
    0.5200    9.6630   18.3180 C   0  0  0  0  0  0  0  0  0  0  0  0
   -0.3020   10.4040   19.3230 C   0  0  0  0  0  0  0  0  0  0  0  0
    0.1600   10.1190   20.6010 C   0  0  0  0  0  0  0  0  0  0  0  0
   -0.4110   10.6550   21.7420 C   0  0  0  0  0  0  0  0  0  0  0  0
   -1.5070   11.5170   21.5920 C   0  0  0  0  0  0  0  0  0  0  0  0
   -1.9740   11.8160   20.2880 C   0  0  0  0  0  0  0  0  0  0  0  0
   -1.3780   11.2650   19.1350 C   0  0  0  0  0  0  0  0  0  0  0  0
    1.2920    9.1920   20.4940 C   0  0  0  0  0  0  0  0  0  0  0  0
    1.9010    8.8070   21.4770 O   0  0  0  0  0  0  0  0  0  0  0  0
   -0.0990    8.9670   17.7450 H   0  0  0  0  0  0  0  0  0  0  0  0
    1.0580   10.3610   17.6690 H   0  0  0  0  0  0  0  0  0  0  0  0
   -0.0120   10.3950   22.7190 H   0  0  0  0  0  0  0  0  0  0  0  0
   -2.8180   12.4970   20.1720 H   0  0  0  0  0  0  0  0  0  0  0  0
   -2.1630   12.1120   22.8270 C   0  0  0  0  0  0  0  0  0  0  0  0
   -3.6440   12.4550   22.6030 C   0  0  0  0  0  0  0  0  0  0  0  0
   -4.3250   12.8960   23.9030 C   0  0  0  0  0  0  0  0  0  0  0  0
   -3.3800   13.5950   24.8840 C   0  0  0  0  0  0  0  0  0  0  0  0
   -2.2380   14.3040   24.1670 C   0  0  0  0  0  0  0  0  0  0  0  0
   -1.3790   13.3320   23.3520 C   0  0  0  0  0  0  0  0  0  0  0  0
   -2.1390   11.3490   23.6180 H   0  0  0  0  0  0  0  0  0  0  0  0
   -3.7380   13.2650   21.8680 H   0  0  0  0  0  0  0  0  0  0  0  0
   -4.1860   11.5990   22.1840 H   0  0  0  0  0  0  0  0  0  0  0  0
   -5.1580   13.5630   23.6510 H   0  0  0  0  0  0  0  0  0  0  0  0
   -4.7690   12.0270   24.4030 H   0  0  0  0  0  0  0  0  0  0  0  0
   -3.9490   14.3080   25.4930 H   0  0  0  0  0  0  0  0  0  0  0  0
   -2.9630   12.8550   25.5800 H   0  0  0  0  0  0  0  0  0  0  0  0
   -2.6540   15.0680   23.4970 H   0  0  0  0  0  0  0  0  0  0  0  0
   -1.6080   14.8330   24.8910 H   0  0  0  0  0  0  0  0  0  0  0  0
   -0.9070   13.8970   22.5380 H   0  0  0  0  0  0  0  0  0  0  0  0
   -0.5500   12.9680   23.9750 H   0  0  0  0  0  0  0  0  0  0  0  0
    3.9670    6.1220   18.7860 C   0  0  0  0  0  0  0  0  0  0  0  0
    4.2860    6.2450   17.4270 C   0  0  0  0  0  0  0  0  0  0  0  0
    3.6780    7.2200   16.6440 C   0  0  0  0  0  0  0  0  0  0  0  0
    2.7480    8.0950   17.2110 C   0  0  0  0  0  0  0  0  0  0  0  0
    2.4110    8.0140   18.5700 C   0  0  0  0  0  0  0  0  0  0  0  0
    3.0310    7.0160   19.3380 C   0  0  0  0  0  0  0  0  0  0  0  0
    5.0060    5.5710   16.9660 H   0  0  0  0  0  0  0  0  0  0  0  0
    3.9250    7.3020   15.5880 H   0  0  0  0  0  0  0  0  0  0  0  0
    2.3060    8.8400   16.5560 H   0  0  0  0  0  0  0  0  0  0  0  0
    2.7910    6.9130   20.3920 H   0  0  0  0  0  0  0  0  0  0  0  0
    4.6640    5.0500   19.6140 C   0  0  2  0  0  0  0  0  0  0  0  0
    4.4040    5.2660   20.6630 H   0  0  0  0  0  0  0  0  0  0  0  0
    6.1980    5.1250   19.5790 C   0  0  0  0  0  0  0  0  0  0  0  0
    6.6080    4.3820   18.8840 H   0  0  0  0  0  0  0  0  0  0  0  0
    6.5220    6.1150   19.2380 H   0  0  0  0  0  0  0  0  0  0  0  0
    6.6540    4.9470   20.5580 H   0  0  0  0  0  0  0  0  0  0  0  0
    4.1140    3.6340   19.3300 C   0  0  0  0  0  0  0  0  0  0  0  0
    4.8530    2.8700   19.6010 H   0  0  0  0  0  0  0  0  0  0  0  0
    3.9800    3.5360   18.2430 H   0  0  0  0  0  0  0  0  0  0  0  0
    2.7950    3.3300   19.9610 C   0  0  0  0  0  0  0  0  0  0  0  0
    2.6240    2.9630   21.2190 N   0  0  0  0  0  0  0  0  0  0  0  0
    1.2800    2.7830   21.4410 N   0  0  0  0  0  0  0  0  0  0  0  0
    0.6580    3.0500   20.3170 C   0  0  0  0  0  0  0  0  0  0  0  0
    1.5630    3.4220   19.3670 N   0  0  0  0  0  0  0  0  0  0  0  0
   -0.4090    2.9990   20.1500 H   0  0  0  0  0  0  0  0  0  0  0  0
    1.2160    3.8430   18.0360 C   0  0  0  0  0  0  0  0  0  0  0  0
    0.7250    4.8150   18.0500 H   0  0  0  0  0  0  0  0  0  0  0  0
    0.5330    3.1020   17.6120 H   0  0  0  0  0  0  0  0  0  0  0  0
    2.1290    3.8950   17.4390 H   0  0  0  0  0  0  0  0  0  0  0  0
   -1.8720   11.5990   17.7540 C   0  0  0  0  0  0  0  0  0  0  0  0
   -1.8000   10.5320   16.9120 F   0  0  0  0  0  0  0  0  0  0  0  0
   -3.1800   11.9830   17.7490 F   0  0  0  0  0  0  0  0  0  0  0  0
   -1.1840   12.6030   17.1490 F   0  0  0  0  0  0  0  0  0  0  0  0
  1  9  1  0  0  0  0
  2  1  1  0  0  0  0
  2  3  1  0  0  0  0
  3  4  1  0  0  0  0
  4  5  2  0  0  0  0
  5 13  1  0  0  0  0
  6  5  1  0  0  0  0
  6 15  1  0  0  0  0
  7  6  2  0  0  0  0
  8  3  2  0  0  0  0
  8  7  1  0  0  0  0
  9  4  1  0  0  0  0
  9 10  2  0  0  0  0
 11  2  1  0  0  0  0
 12  2  1  0  0  0  0
 14  7  1  0  0  0  0
 15 20  1  0  0  0  0
 15 21  1  0  0  0  0
 16 15  1  0  0  0  0
 16 17  1  0  0  0  0
 17 25  1  0  0  0  0
 17 18  1  0  0  0  0
 18 26  1  0  0  0  0
 18 27  1  0  0  0  0
 19 18  1  0  0  0  0
 19 29  1  0  0  0  0
 20 31  1  0  0  0  0
 20 19  1  0  0  0  0
 22 16  1  0  0  0  0
 23 16  1  0  0  0  0
 24 17  1  0  0  0  0
 28 19  1  0  0  0  0
 30 20  1  0  0  0  0
 32 37  1  0  0  0  0
 32 42  1  0  0  0  0
 33 32  2  0  0  0  0
 34 35  2  0  0  0  0
 34 33  1  0  0  0  0
 35 36  1  0  0  0  0
 36  1  1  0  0  0  0
 36 37  2  0  0  0  0
 37 41  1  0  0  0  0
 38 33  1  0  0  0  0
 39 34  1  0  0  0  0
 40 35  1  0  0  0  0
 42 43  1  1  0  0  0
 44 42  1  0  0  0  0
 44 47  1  0  0  0  0
 45 44  1  0  0  0  0
 46 44  1  0  0  0  0
 48 49  1  0  0  0  0
 48 42  1  0  0  0  0
 48 51  1  0  0  0  0
 50 48  1  0  0  0  0
 51 52  2  0  0  0  0
 52 53  1  0  0  0  0
 54 53  2  0  0  0  0
 55 51  1  0  0  0  0
 55 54  1  0  0  0  0
 56 54  1  0  0  0  0
 57 58  1  0  0  0  0
 57 55  1  0  0  0  0
 59 57  1  0  0  0  0
 60 57  1  0  0  0  0
 61  8  1  0  0  0  0
 62 61  1  0  0  0  0
 63 61  1  0  0  0  0
 64 61  1  0  0  0  0
M  END
>  <MODEL>
18

>  <REMARK>
 VINA RESULT:    -7.965      3.594      9.550
 INTER + INTRA:         -11.620
 INTER:                 -10.433
 INTRA:                  -1.186
 UNBOUND:                -0.395
  Name = 
  8 active torsions:
  status: ('A' for Active; 'I' for Inactive)
    1  A    between atoms: C_1  and  C_2
    2  A    between atoms: C_2  and  C_3
    3  A    between atoms: C_2  and  C_10
    4  A    between atoms: C_3  and  C_4
    5  A    between atoms: N_8  and  C_9
    6  A    between atoms: C_14  and  N_16
    7  A    between atoms: C_21  and  C_28
    8  A    between atoms: C_23  and  C_24
                            x       y       z     vdW  Elec       q    Type
                         _______ _______ _______ _____ _____    ______ ____

>  <TORSDO>
F 8

$$$$
=
 OpenBabel07192307433D

 64 68  0  0  1  0  0  0  0  0999 V2000
    1.3110    9.3530   19.6230 N   0  0  0  0  0  0  0  0  0  0  0  0
    1.0130   10.6160   18.9600 C   0  0  0  0  0  0  0  0  0  0  0  0
    0.2140   11.3670   19.9750 C   0  0  0  0  0  0  0  0  0  0  0  0
    0.0900   10.6020   21.1270 C   0  0  0  0  0  0  0  0  0  0  0  0
   -0.6060   11.0330   22.2430 C   0  0  0  0  0  0  0  0  0  0  0  0
   -1.2150   12.2950   22.1970 C   0  0  0  0  0  0  0  0  0  0  0  0
   -1.0810   13.0820   21.0260 C   0  0  0  0  0  0  0  0  0  0  0  0
   -0.3650   12.6300   19.8990 C   0  0  0  0  0  0  0  0  0  0  0  0
    0.7940    9.3310   20.9230 C   0  0  0  0  0  0  0  0  0  0  0  0
    0.8630    8.4880   21.8000 O   0  0  0  0  0  0  0  0  0  0  0  0
    0.4210   10.4280   18.0590 H   0  0  0  0  0  0  0  0  0  0  0  0
    1.9440   11.1440   18.7340 H   0  0  0  0  0  0  0  0  0  0  0  0
   -0.6750   10.3910   23.1170 H   0  0  0  0  0  0  0  0  0  0  0  0
   -1.5440   14.0690   20.9960 H   0  0  0  0  0  0  0  0  0  0  0  0
   -1.9970   12.7910   23.4030 C   0  0  0  0  0  0  0  0  0  0  0  0
   -3.5160   12.6450   23.2240 C   0  0  0  0  0  0  0  0  0  0  0  0
   -4.2730   12.9940   24.5100 C   0  0  0  0  0  0  0  0  0  0  0  0
   -3.5670   14.0450   25.3700 C   0  0  0  0  0  0  0  0  0  0  0  0
   -2.7120   14.9860   24.5320 C   0  0  0  0  0  0  0  0  0  0  0  0
   -1.6130   14.2400   23.7690 C   0  0  0  0  0  0  0  0  0  0  0  0
   -1.7240   12.1590   24.2600 H   0  0  0  0  0  0  0  0  0  0  0  0
   -3.8680   13.3060   22.4220 H   0  0  0  0  0  0  0  0  0  0  0  0
   -3.7780   11.6260   22.9160 H   0  0  0  0  0  0  0  0  0  0  0  0
   -5.2750   13.3470   24.2400 H   0  0  0  0  0  0  0  0  0  0  0  0
   -4.4190   12.0890   25.1120 H   0  0  0  0  0  0  0  0  0  0  0  0
   -4.3140   14.6130   25.9380 H   0  0  0  0  0  0  0  0  0  0  0  0
   -2.9290   13.5440   26.1110 H   0  0  0  0  0  0  0  0  0  0  0  0
   -3.3550   15.5140   23.8150 H   0  0  0  0  0  0  0  0  0  0  0  0
   -2.2590   15.7540   25.1690 H   0  0  0  0  0  0  0  0  0  0  0  0
   -1.3530   14.8320   22.8820 H   0  0  0  0  0  0  0  0  0  0  0  0
   -0.7000   14.2110   24.3800 H   0  0  0  0  0  0  0  0  0  0  0  0
    2.7420    5.9540   18.8660 C   0  0  0  0  0  0  0  0  0  0  0  0
    3.4150    6.2320   17.6690 C   0  0  0  0  0  0  0  0  0  0  0  0
    3.3840    7.5100   17.1210 C   0  0  0  0  0  0  0  0  0  0  0  0
    2.6850    8.5330   17.7670 C   0  0  0  0  0  0  0  0  0  0  0  0
    2.0090    8.2990   18.9730 C   0  0  0  0  0  0  0  0  0  0  0  0
    2.0480    7.0000   19.5020 C   0  0  0  0  0  0  0  0  0  0  0  0
    3.9630    5.4490   17.1500 H   0  0  0  0  0  0  0  0  0  0  0  0
    3.9020    7.7130   16.1870 H   0  0  0  0  0  0  0  0  0  0  0  0
    2.6960    9.5120   17.2980 H   0  0  0  0  0  0  0  0  0  0  0  0
    1.5290    6.7760   20.4290 H   0  0  0  0  0  0  0  0  0  0  0  0
    2.8110    4.5460   19.4430 C   0  0  2  0  0  0  0  0  0  0  0  0
    2.3550    3.8890   18.6860 H   0  0  0  0  0  0  0  0  0  0  0  0
    1.9500    4.3370   20.6980 C   0  0  0  0  0  0  0  0  0  0  0  0
    0.9000    4.5790   20.4940 H   0  0  0  0  0  0  0  0  0  0  0  0
    1.9950    3.2900   21.0190 H   0  0  0  0  0  0  0  0  0  0  0  0
    2.2730    4.9550   21.5420 H   0  0  0  0  0  0  0  0  0  0  0  0
    4.2640    4.0470   19.6080 C   0  0  0  0  0  0  0  0  0  0  0  0
    4.2820    3.0530   20.0710 H   0  0  0  0  0  0  0  0  0  0  0  0
    4.7700    4.7100   20.3250 H   0  0  0  0  0  0  0  0  0  0  0  0
    5.0800    4.0540   18.3580 C   0  0  0  0  0  0  0  0  0  0  0  0
    4.7480    3.4470   17.2320 N   0  0  0  0  0  0  0  0  0  0  0  0
    5.7310    3.6830   16.3020 N   0  0  0  0  0  0  0  0  0  0  0  0
    6.6410    4.4350   16.8760 C   0  0  0  0  0  0  0  0  0  0  0  0
    6.2650    4.7150   18.1570 N   0  0  0  0  0  0  0  0  0  0  0  0
    7.5510    4.7970   16.4190 H   0  0  0  0  0  0  0  0  0  0  0  0
    7.0020    5.5670   19.0510 C   0  0  0  0  0  0  0  0  0  0  0  0
    7.1730    5.0740   20.0070 H   0  0  0  0  0  0  0  0  0  0  0  0
    6.4170    6.4760   19.2160 H   0  0  0  0  0  0  0  0  0  0  0  0
    7.9570    5.8170   18.5850 H   0  0  0  0  0  0  0  0  0  0  0  0
   -0.2180   13.4770   18.6650 C   0  0  0  0  0  0  0  0  0  0  0  0
   -0.9360   12.9860   17.6170 F   0  0  0  0  0  0  0  0  0  0  0  0
   -0.6660   14.7510   18.8530 F   0  0  0  0  0  0  0  0  0  0  0  0
    1.0630   13.5910   18.2220 F   0  0  0  0  0  0  0  0  0  0  0  0
  1  9  1  0  0  0  0
  2  1  1  0  0  0  0
  2  3  1  0  0  0  0
  3  4  1  0  0  0  0
  4  5  2  0  0  0  0
  5 13  1  0  0  0  0
  6  5  1  0  0  0  0
  6 15  1  0  0  0  0
  7  6  2  0  0  0  0
  8  3  2  0  0  0  0
  8  7  1  0  0  0  0
  9  4  1  0  0  0  0
  9 10  2  0  0  0  0
 11  2  1  0  0  0  0
 12  2  1  0  0  0  0
 14  7  1  0  0  0  0
 15 20  1  0  0  0  0
 15 21  1  0  0  0  0
 16 15  1  0  0  0  0
 16 17  1  0  0  0  0
 17 25  1  0  0  0  0
 17 18  1  0  0  0  0
 18 26  1  0  0  0  0
 18 27  1  0  0  0  0
 19 29  1  0  0  0  0
 19 18  1  0  0  0  0
 20 31  1  0  0  0  0
 20 19  1  0  0  0  0
 22 16  1  0  0  0  0
 23 16  1  0  0  0  0
 24 17  1  0  0  0  0
 28 19  1  0  0  0  0
 30 20  1  0  0  0  0
 32 42  1  0  0  0  0
 32 37  1  0  0  0  0
 33 32  2  0  0  0  0
 34 33  1  0  0  0  0
 34 35  2  0  0  0  0
 35 36  1  0  0  0  0
 36 37  2  0  0  0  0
 36  1  1  0  0  0  0
 37 41  1  0  0  0  0
 38 33  1  0  0  0  0
 39 34  1  0  0  0  0
 40 35  1  0  0  0  0
 42 43  1  6  0  0  0
 42 48  1  0  0  0  0
 42 44  1  0  0  0  0
 44 46  1  0  0  0  0
 44 47  1  0  0  0  0
 45 44  1  0  0  0  0
 48 49  1  0  0  0  0
 48 50  1  0  0  0  0
 51 48  1  0  0  0  0
 52 51  2  0  0  0  0
 53 54  2  0  0  0  0
 53 52  1  0  0  0  0
 54 55  1  0  0  0  0
 55 51  1  0  0  0  0
 55 57  1  0  0  0  0
 56 54  1  0  0  0  0
 57 59  1  0  0  0  0
 57 58  1  0  0  0  0
 60 57  1  0  0  0  0
 61 63  1  0  0  0  0
 61  8  1  0  0  0  0
 62 61  1  0  0  0  0
 64 61  1  0  0  0  0
M  END
>  <MODEL>
19

>  <REMARK>
 VINA RESULT:    -7.923      4.124     10.087
 INTER + INTRA:         -11.561
 INTER:                 -11.565
 INTRA:                   0.004
 UNBOUND:                -0.395
  Name = 
  8 active torsions:
  status: ('A' for Active; 'I' for Inactive)
    1  A    between atoms: C_1  and  C_2
    2  A    between atoms: C_2  and  C_3
    3  A    between atoms: C_2  and  C_10
    4  A    between atoms: C_3  and  C_4
    5  A    between atoms: N_8  and  C_9
    6  A    between atoms: C_14  and  N_16
    7  A    between atoms: C_21  and  C_28
    8  A    between atoms: C_23  and  C_24
                            x       y       z     vdW  Elec       q    Type
                         _______ _______ _______ _____ _____    ______ ____

>  <TORSDO>
F 8

$$$$
=
 OpenBabel07192307433D

 64 68  0  0  1  0  0  0  0  0999 V2000
    1.0130    8.6960   19.9630 N   0  0  0  0  0  0  0  0  0  0  0  0
    0.2420    9.3690   18.9250 C   0  0  0  0  0  0  0  0  0  0  0  0
   -0.4960   10.4340   19.6700 C   0  0  0  0  0  0  0  0  0  0  0  0
   -0.1520   10.3830   21.0150 C   0  0  0  0  0  0  0  0  0  0  0  0
   -0.6840   11.2450   21.9580 C   0  0  0  0  0  0  0  0  0  0  0  0
   -1.6140   12.2040   21.5300 C   0  0  0  0  0  0  0  0  0  0  0  0
   -1.9580   12.2630   20.1570 C   0  0  0  0  0  0  0  0  0  0  0  0
   -1.4050   11.3800   19.2080 C   0  0  0  0  0  0  0  0  0  0  0  0
    0.8150    9.2980   21.2100 C   0  0  0  0  0  0  0  0  0  0  0  0
    1.3020    9.0610   22.3010 O   0  0  0  0  0  0  0  0  0  0  0  0
   -0.4550    8.6600   18.4660 H   0  0  0  0  0  0  0  0  0  0  0  0
    0.9190    9.8110   18.1890 H   0  0  0  0  0  0  0  0  0  0  0  0
   -0.3830   11.1590   22.9990 H   0  0  0  0  0  0  0  0  0  0  0  0
   -2.6720   13.0180   19.8230 H   0  0  0  0  0  0  0  0  0  0  0  0
   -2.2240   13.1570   22.5450 C   0  0  0  0  0  0  0  0  0  0  0  0
   -1.1910   13.6910   23.5500 C   0  0  0  0  0  0  0  0  0  0  0  0
   -1.7900   14.7730   24.4550 C   0  0  0  0  0  0  0  0  0  0  0  0
   -3.2880   14.5930   24.7170 C   0  0  0  0  0  0  0  0  0  0  0  0
   -3.7060   13.1300   24.6440 C   0  0  0  0  0  0  0  0  0  0  0  0
   -3.4300   12.5200   23.2670 C   0  0  0  0  0  0  0  0  0  0  0  0
   -2.6010   14.0310   21.9960 H   0  0  0  0  0  0  0  0  0  0  0  0
   -0.8200   12.8740   24.1820 H   0  0  0  0  0  0  0  0  0  0  0  0
   -0.3140   14.0980   23.0330 H   0  0  0  0  0  0  0  0  0  0  0  0
   -1.2450   14.7730   25.4070 H   0  0  0  0  0  0  0  0  0  0  0  0
   -1.6280   15.7610   24.0090 H   0  0  0  0  0  0  0  0  0  0  0  0
   -3.5390   15.0130   25.6980 H   0  0  0  0  0  0  0  0  0  0  0  0
   -3.8600   15.1680   23.9760 H   0  0  0  0  0  0  0  0  0  0  0  0
   -3.1610   12.5620   25.4080 H   0  0  0  0  0  0  0  0  0  0  0  0
   -4.7720   13.0300   24.8820 H   0  0  0  0  0  0  0  0  0  0  0  0
   -3.3060   11.4370   23.3940 H   0  0  0  0  0  0  0  0  0  0  0  0
   -4.3160   12.6410   22.6290 H   0  0  0  0  0  0  0  0  0  0  0  0
    3.3680    6.3180   18.2380 C   0  0  0  0  0  0  0  0  0  0  0  0
    3.3990    5.2790   19.1770 C   0  0  0  0  0  0  0  0  0  0  0  0
    2.6690    5.3710   20.3570 C   0  0  0  0  0  0  0  0  0  0  0  0
    1.8890    6.5000   20.6120 C   0  0  0  0  0  0  0  0  0  0  0  0
    1.8200    7.5570   19.6920 C   0  0  0  0  0  0  0  0  0  0  0  0
    2.5720    7.4450   18.5130 C   0  0  0  0  0  0  0  0  0  0  0  0
    4.0020    4.3910   18.9970 H   0  0  0  0  0  0  0  0  0  0  0  0
    2.7070    4.5630   21.0840 H   0  0  0  0  0  0  0  0  0  0  0  0
    1.3360    6.5200   21.5470 H   0  0  0  0  0  0  0  0  0  0  0  0
    2.5530    8.2460   17.7790 H   0  0  0  0  0  0  0  0  0  0  0  0
    4.1690    6.1750   16.9500 C   0  0  2  0  0  0  0  0  0  0  0  0
    3.5140    6.5490   16.1460 H   0  0  0  0  0  0  0  0  0  0  0  0
    4.4680    4.7220   16.5520 C   0  0  0  0  0  0  0  0  0  0  0  0
    5.0780    4.6860   15.6410 H   0  0  0  0  0  0  0  0  0  0  0  0
    5.0290    4.2180   17.3480 H   0  0  0  0  0  0  0  0  0  0  0  0
    3.5610    4.1380   16.3660 H   0  0  0  0  0  0  0  0  0  0  0  0
    5.4180    7.0850   16.9290 C   0  0  0  0  0  0  0  0  0  0  0  0
    5.1460    8.1220   17.1630 H   0  0  0  0  0  0  0  0  0  0  0  0
    5.7990    7.1110   15.8970 H   0  0  0  0  0  0  0  0  0  0  0  0
    6.5440    6.6330   17.7990 C   0  0  0  0  0  0  0  0  0  0  0  0
    6.6600    5.4250   18.3220 N   0  0  0  0  0  0  0  0  0  0  0  0
    7.8240    5.3760   19.0510 N   0  0  0  0  0  0  0  0  0  0  0  0
    8.3980    6.5510   18.9520 C   0  0  0  0  0  0  0  0  0  0  0  0
    7.6460    7.3650   18.1570 N   0  0  0  0  0  0  0  0  0  0  0  0
    9.3290    6.8470   19.4140 H   0  0  0  0  0  0  0  0  0  0  0  0
    8.0160    8.7050   17.7880 C   0  0  0  0  0  0  0  0  0  0  0  0
    8.0990    9.3430   18.6670 H   0  0  0  0  0  0  0  0  0  0  0  0
    7.2410    9.1030   17.1280 H   0  0  0  0  0  0  0  0  0  0  0  0
    8.9720    8.6700   17.2620 H   0  0  0  0  0  0  0  0  0  0  0  0
   -1.7680   11.4590   17.7500 C   0  0  0  0  0  0  0  0  0  0  0  0
   -3.0770   11.7800   17.5640 F   0  0  0  0  0  0  0  0  0  0  0  0
   -1.0570   12.4170   17.0890 F   0  0  0  0  0  0  0  0  0  0  0  0
   -1.5630   10.3020   17.0660 F   0  0  0  0  0  0  0  0  0  0  0  0
  1  9  1  0  0  0  0
  2  3  1  0  0  0  0
  2  1  1  0  0  0  0
  3  4  1  0  0  0  0
  4  9  1  0  0  0  0
  4  5  2  0  0  0  0
  5 13  1  0  0  0  0
  6  5  1  0  0  0  0
  6 15  1  0  0  0  0
  7  6  2  0  0  0  0
  8  3  2  0  0  0  0
  8  7  1  0  0  0  0
  9 10  2  0  0  0  0
 11  2  1  0  0  0  0
 12  2  1  0  0  0  0
 14  7  1  0  0  0  0
 15 20  1  0  0  0  0
 15 16  1  0  0  0  0
 16 22  1  0  0  0  0
 16 17  1  0  0  0  0
 17 18  1  0  0  0  0
 17 24  1  0  0  0  0
 18 26  1  0  0  0  0
 19 18  1  0  0  0  0
 19 29  1  0  0  0  0
 19 28  1  0  0  0  0
 20 30  1  0  0  0  0
 20 19  1  0  0  0  0
 21 15  1  0  0  0  0
 23 16  1  0  0  0  0
 25 17  1  0  0  0  0
 27 18  1  0  0  0  0
 31 20  1  0  0  0  0
 32 37  2  0  0  0  0
 32 33  1  0  0  0  0
 33 34  2  0  0  0  0
 34 35  1  0  0  0  0
 34 39  1  0  0  0  0
 35 40  1  0  0  0  0
 36  1  1  0  0  0  0
 36 35  2  0  0  0  0
 37 36  1  0  0  0  0
 38 33  1  0  0  0  0
 41 37  1  0  0  0  0
 42 43  1  6  0  0  0
 42 32  1  0  0  0  0
 44 42  1  0  0  0  0
 44 46  1  0  0  0  0
 45 44  1  0  0  0  0
 47 44  1  0  0  0  0
 48 42  1  0  0  0  0
 48 49  1  0  0  0  0
 48 51  1  0  0  0  0
 50 48  1  0  0  0  0
 51 55  1  0  0  0  0
 51 52  2  0  0  0  0
 52 53  1  0  0  0  0
 54 53  2  0  0  0  0
 54 56  1  0  0  0  0
 55 54  1  0  0  0  0
 57 55  1  0  0  0  0
 57 58  1  0  0  0  0
 59 57  1  0  0  0  0
 60 57  1  0  0  0  0
 61  8  1  0  0  0  0
 62 61  1  0  0  0  0
 63 61  1  0  0  0  0
 64 61  1  0  0  0  0
M  END
>  <MODEL>
20

>  <REMARK>
 VINA RESULT:    -7.844      3.780      9.915
 INTER + INTRA:         -11.450
 INTER:                 -11.168
 INTRA:                  -0.282
 UNBOUND:                -0.395
  Name = 
  8 active torsions:
  status: ('A' for Active; 'I' for Inactive)
    1  A    between atoms: C_1  and  C_2
    2  A    between atoms: C_2  and  C_3
    3  A    between atoms: C_2  and  C_10
    4  A    between atoms: C_3  and  C_4
    5  A    between atoms: N_8  and  C_9
    6  A    between atoms: C_14  and  N_16
    7  A    between atoms: C_21  and  C_28
    8  A    between atoms: C_23  and  C_24
                            x       y       z     vdW  Elec       q    Type
                         _______ _______ _______ _____ _____    ______ ____

>  <TORSDO>
F 8

$$$$
=
 OpenBabel07192307433D

 64 68  0  0  1  0  0  0  0  0999 V2000
    1.4210    8.8550   18.7950 N   0  0  0  0  0  0  0  0  0  0  0  0
    0.4150    9.5340   17.9880 C   0  0  0  0  0  0  0  0  0  0  0  0
   -0.4040   10.2740   18.9960 C   0  0  0  0  0  0  0  0  0  0  0  0
    0.1110   10.0510   20.2670 C   0  0  0  0  0  0  0  0  0  0  0  0
   -0.4440   10.6010   21.4080 C   0  0  0  0  0  0  0  0  0  0  0  0
   -1.5790   11.4130   21.2680 C   0  0  0  0  0  0  0  0  0  0  0  0
   -2.1000   11.6490   19.9720 C   0  0  0  0  0  0  0  0  0  0  0  0
   -1.5200   11.0840   18.8180 C   0  0  0  0  0  0  0  0  0  0  0  0
    1.2760    9.1670   20.1510 C   0  0  0  0  0  0  0  0  0  0  0  0
    1.9320    8.8400   21.1240 O   0  0  0  0  0  0  0  0  0  0  0  0
   -0.1940    8.7940   17.4590 H   0  0  0  0  0  0  0  0  0  0  0  0
    0.9020   10.2300   17.3000 H   0  0  0  0  0  0  0  0  0  0  0  0
   -0.0030   10.3900   22.3790 H   0  0  0  0  0  0  0  0  0  0  0  0
   -2.9760   12.2920   19.8620 H   0  0  0  0  0  0  0  0  0  0  0  0
   -2.2190   12.0220   22.5050 C   0  0  0  0  0  0  0  0  0  0  0  0
   -3.6320   12.5610   22.2360 C   0  0  0  0  0  0  0  0  0  0  0  0
   -4.3190   13.0170   23.5280 C   0  0  0  0  0  0  0  0  0  0  0  0
   -3.3460   13.5410   24.5870 C   0  0  0  0  0  0  0  0  0  0  0  0
   -2.0910   14.1350   23.9620 C   0  0  0  0  0  0  0  0  0  0  0  0
   -1.3180   13.1060   23.1330 C   0  0  0  0  0  0  0  0  0  0  0  0
   -2.3290   11.2230   23.2520 H   0  0  0  0  0  0  0  0  0  0  0  0
   -3.5890   13.4120   21.5450 H   0  0  0  0  0  0  0  0  0  0  0  0
   -4.2540   11.8020   21.7460 H   0  0  0  0  0  0  0  0  0  0  0  0
   -5.0500   13.7960   23.2780 H   0  0  0  0  0  0  0  0  0  0  0  0
   -4.8920   12.1860   23.9570 H   0  0  0  0  0  0  0  0  0  0  0  0
   -3.8530   14.2870   25.2100 H   0  0  0  0  0  0  0  0  0  0  0  0
   -3.0590   12.7190   25.2580 H   0  0  0  0  0  0  0  0  0  0  0  0
   -2.3750   14.9790   23.3200 H   0  0  0  0  0  0  0  0  0  0  0  0
   -1.4380   14.5430   24.7420 H   0  0  0  0  0  0  0  0  0  0  0  0
   -0.7390   13.6480   22.3740 H   0  0  0  0  0  0  0  0  0  0  0  0
   -0.5730   12.6090   23.7700 H   0  0  0  0  0  0  0  0  0  0  0  0
    3.2250    5.6990   17.8130 C   0  0  0  0  0  0  0  0  0  0  0  0
    4.3050    6.2440   17.1070 C   0  0  0  0  0  0  0  0  0  0  0  0
    4.4250    7.6210   16.9490 C   0  0  0  0  0  0  0  0  0  0  0  0
    3.4700    8.4750   17.5040 C   0  0  0  0  0  0  0  0  0  0  0  0
    2.3800    7.9710   18.2290 C   0  0  0  0  0  0  0  0  0  0  0  0
    2.2760    6.5780   18.3680 C   0  0  0  0  0  0  0  0  0  0  0  0
    5.0590    5.5950   16.6660 H   0  0  0  0  0  0  0  0  0  0  0  0
    5.2630    8.0330   16.3920 H   0  0  0  0  0  0  0  0  0  0  0  0
    3.6120    9.5410   17.3540 H   0  0  0  0  0  0  0  0  0  0  0  0
    1.4420    6.1480   18.9130 H   0  0  0  0  0  0  0  0  0  0  0  0
    3.1360    4.1880   17.9780 C   0  0  2  0  0  0  0  0  0  0  0  0
    3.8810    3.9250   18.7460 H   0  0  0  0  0  0  0  0  0  0  0  0
    3.5700    3.3930   16.7380 C   0  0  0  0  0  0  0  0  0  0  0  0
    2.9740    2.4770   16.6340 H   0  0  0  0  0  0  0  0  0  0  0  0
    3.4200    3.9900   15.8310 H   0  0  0  0  0  0  0  0  0  0  0  0
    4.6240    3.0980   16.7700 H   0  0  0  0  0  0  0  0  0  0  0  0
    1.7720    3.7360   18.5480 C   0  0  0  0  0  0  0  0  0  0  0  0
    1.3130    2.9790   17.9000 H   0  0  0  0  0  0  0  0  0  0  0  0
    1.0900    4.5990   18.5150 H   0  0  0  0  0  0  0  0  0  0  0  0
    1.8050    3.2600   19.9630 C   0  0  0  0  0  0  0  0  0  0  0  0
    0.7820    3.2970   20.7990 N   0  0  0  0  0  0  0  0  0  0  0  0
    1.1830    2.7650   22.0010 N   0  0  0  0  0  0  0  0  0  0  0  0
    2.4390    2.4070   21.8720 C   0  0  0  0  0  0  0  0  0  0  0  0
    2.8650    2.6740   20.6050 N   0  0  0  0  0  0  0  0  0  0  0  0
    3.0560    1.9590   22.6370 H   0  0  0  0  0  0  0  0  0  0  0  0
    4.1740    2.3500   20.1040 C   0  0  0  0  0  0  0  0  0  0  0  0
    4.2430    2.5470   19.0350 H   0  0  0  0  0  0  0  0  0  0  0  0
    4.3550    1.2870   20.2850 H   0  0  0  0  0  0  0  0  0  0  0  0
    4.9110    2.9500   20.6420 H   0  0  0  0  0  0  0  0  0  0  0  0
   -2.0730   11.3510   17.4440 C   0  0  0  0  0  0  0  0  0  0  0  0
   -2.0560   10.2390   16.6600 F   0  0  0  0  0  0  0  0  0  0  0  0
   -3.3740   11.7580   17.4780 F   0  0  0  0  0  0  0  0  0  0  0  0
   -1.3980   12.3090   16.7540 F   0  0  0  0  0  0  0  0  0  0  0  0
  1  9  1  0  0  0  0
  2  1  1  0  0  0  0
  2  3  1  0  0  0  0
  3  4  1  0  0  0  0
  4  5  2  0  0  0  0
  5 13  1  0  0  0  0
  6  5  1  0  0  0  0
  6 15  1  0  0  0  0
  7  6  2  0  0  0  0
  8  3  2  0  0  0  0
  8  7  1  0  0  0  0
  9  4  1  0  0  0  0
  9 10  2  0  0  0  0
 11  2  1  0  0  0  0
 12  2  1  0  0  0  0
 14  7  1  0  0  0  0
 15 20  1  0  0  0  0
 15 21  1  0  0  0  0
 16 15  1  0  0  0  0
 16 17  1  0  0  0  0
 17 25  1  0  0  0  0
 17 18  1  0  0  0  0
 18 26  1  0  0  0  0
 18 27  1  0  0  0  0
 19 18  1  0  0  0  0
 19 29  1  0  0  0  0
 20 31  1  0  0  0  0
 20 19  1  0  0  0  0
 22 16  1  0  0  0  0
 23 16  1  0  0  0  0
 24 17  1  0  0  0  0
 28 19  1  0  0  0  0
 30 20  1  0  0  0  0
 32 42  1  0  0  0  0
 32 37  1  0  0  0  0
 33 32  2  0  0  0  0
 34 33  1  0  0  0  0
 34 35  2  0  0  0  0
 35 36  1  0  0  0  0
 36 37  2  0  0  0  0
 36  1  1  0  0  0  0
 37 41  1  0  0  0  0
 38 33  1  0  0  0  0
 39 34  1  0  0  0  0
 40 35  1  0  0  0  0
 42 48  1  0  0  0  0
 42 43  1  1  0  0  0
 44 47  1  0  0  0  0
 44 42  1  0  0  0  0
 45 44  1  0  0  0  0
 46 44  1  0  0  0  0
 48 51  1  0  0  0  0
 49 48  1  0  0  0  0
 50 48  1  0  0  0  0
 51 55  1  0  0  0  0
 51 52  2  0  0  0  0
 52 53  1  0  0  0  0
 54 53  2  0  0  0  0
 54 56  1  0  0  0  0
 55 54  1  0  0  0  0
 57 59  1  0  0  0  0
 57 55  1  0  0  0  0
 57 60  1  0  0  0  0
 58 57  1  0  0  0  0
 61 63  1  0  0  0  0
 61  8  1  0  0  0  0
 62 61  1  0  0  0  0
 64 61  1  0  0  0  0
M  END
>  <MODEL>
21

>  <REMARK>
 VINA RESULT:    -7.830      3.567      9.666
 INTER + INTRA:         -11.429
 INTER:                 -10.597
 INTRA:                  -0.832
 UNBOUND:                -0.395
  Name = 
  8 active torsions:
  status: ('A' for Active; 'I' for Inactive)
    1  A    between atoms: C_1  and  C_2
    2  A    between atoms: C_2  and  C_3
    3  A    between atoms: C_2  and  C_10
    4  A    between atoms: C_3  and  C_4
    5  A    between atoms: N_8  and  C_9
    6  A    between atoms: C_14  and  N_16
    7  A    between atoms: C_21  and  C_28
    8  A    between atoms: C_23  and  C_24
                            x       y       z     vdW  Elec       q    Type
                         _______ _______ _______ _____ _____    ______ ____

>  <TORSDO>
F 8

$$$$
=
 OpenBabel07192307433D

 64 68  0  0  1  0  0  0  0  0999 V2000
    2.6330    6.9120   18.7850 N   0  0  0  0  0  0  0  0  0  0  0  0
    1.9660    7.1540   20.0580 C   0  0  0  0  0  0  0  0  0  0  0  0
    1.4510    8.5510   19.9250 C   0  0  0  0  0  0  0  0  0  0  0  0
    1.7800    9.0490   18.6710 C   0  0  0  0  0  0  0  0  0  0  0  0
    1.4420   10.3270   18.2600 C   0  0  0  0  0  0  0  0  0  0  0  0
    0.7420   11.1480   19.1550 C   0  0  0  0  0  0  0  0  0  0  0  0
    0.3970   10.6380   20.4320 C   0  0  0  0  0  0  0  0  0  0  0  0
    0.7460    9.3320   20.8350 C   0  0  0  0  0  0  0  0  0  0  0  0
    2.5140    8.0160   17.9340 C   0  0  0  0  0  0  0  0  0  0  0  0
    2.8920    8.1910   16.7890 O   0  0  0  0  0  0  0  0  0  0  0  0
    2.6910    7.0820   20.8740 H   0  0  0  0  0  0  0  0  0  0  0  0
    1.1390    6.4480   20.1820 H   0  0  0  0  0  0  0  0  0  0  0  0
    1.7280   10.6680   17.2680 H   0  0  0  0  0  0  0  0  0  0  0  0
   -0.1580   11.2730   21.1230 H   0  0  0  0  0  0  0  0  0  0  0  0
    0.3670   12.5600   18.7360 C   0  0  0  0  0  0  0  0  0  0  0  0
    1.5180   13.5590   18.9270 C   0  0  0  0  0  0  0  0  0  0  0  0
    1.1750   14.9350   18.3460 C   0  0  0  0  0  0  0  0  0  0  0  0
   -0.3190   15.2660   18.3960 C   0  0  0  0  0  0  0  0  0  0  0  0
   -1.0190   14.5650   19.5520 C   0  0  0  0  0  0  0  0  0  0  0  0
   -0.9150   13.0400   19.4480 C   0  0  0  0  0  0  0  0  0  0  0  0
    0.1490   12.5410   17.6590 H   0  0  0  0  0  0  0  0  0  0  0  0
    1.7440   13.6790   19.9950 H   0  0  0  0  0  0  0  0  0  0  0  0
    2.4390   13.1900   18.4610 H   0  0  0  0  0  0  0  0  0  0  0  0
    1.7420   15.6970   18.8930 H   0  0  0  0  0  0  0  0  0  0  0  0
    1.5120   14.9930   17.3030 H   0  0  0  0  0  0  0  0  0  0  0  0
   -0.4490   16.3520   18.4730 H   0  0  0  0  0  0  0  0  0  0  0  0
   -0.7930   14.9630   17.4520 H   0  0  0  0  0  0  0  0  0  0  0  0
   -0.5690   14.8950   20.4980 H   0  0  0  0  0  0  0  0  0  0  0  0
   -2.0740   14.8590   19.5890 H   0  0  0  0  0  0  0  0  0  0  0  0
   -1.0010   12.6250   20.4600 H   0  0  0  0  0  0  0  0  0  0  0  0
   -1.7820   12.6520   18.8970 H   0  0  0  0  0  0  0  0  0  0  0  0
    5.3130    4.5120   17.6740 C   0  0  0  0  0  0  0  0  0  0  0  0
    4.6860    3.2930   17.9640 C   0  0  0  0  0  0  0  0  0  0  0  0
    3.4130    3.2680   18.5250 C   0  0  0  0  0  0  0  0  0  0  0  0
    2.7440    4.4630   18.7970 C   0  0  0  0  0  0  0  0  0  0  0  0
    3.3310    5.7040   18.5100 C   0  0  0  0  0  0  0  0  0  0  0  0
    4.6190    5.7040   17.9520 C   0  0  0  0  0  0  0  0  0  0  0  0
    5.1920    2.3510   17.7610 H   0  0  0  0  0  0  0  0  0  0  0  0
    2.9390    2.3160   18.7540 H   0  0  0  0  0  0  0  0  0  0  0  0
    1.7520    4.3870   19.2320 H   0  0  0  0  0  0  0  0  0  0  0  0
    5.1130    6.6440   17.7250 H   0  0  0  0  0  0  0  0  0  0  0  0
    6.7010    4.4980   17.0470 C   0  0  2  0  0  0  0  0  0  0  0  0
    6.8810    3.4560   16.7390 H   0  0  0  0  0  0  0  0  0  0  0  0
    7.8400    4.8080   18.0300 C   0  0  0  0  0  0  0  0  0  0  0  0
    8.4310    3.9070   18.2360 H   0  0  0  0  0  0  0  0  0  0  0  0
    8.5150    5.5590   17.6050 H   0  0  0  0  0  0  0  0  0  0  0  0
    7.4790    5.1910   18.9890 H   0  0  0  0  0  0  0  0  0  0  0  0
    6.7690    5.3350   15.7490 C   0  0  0  0  0  0  0  0  0  0  0  0
    7.7490    5.8170   15.6500 H   0  0  0  0  0  0  0  0  0  0  0  0
    6.0480    6.1600   15.8410 H   0  0  0  0  0  0  0  0  0  0  0  0
    6.4250    4.5920   14.5000 C   0  0  0  0  0  0  0  0  0  0  0  0
    5.3850    3.7900   14.3570 N   0  0  0  0  0  0  0  0  0  0  0  0
    5.3870    3.2970   13.0740 N   0  0  0  0  0  0  0  0  0  0  0  0
    6.4240    3.8140   12.4580 C   0  0  0  0  0  0  0  0  0  0  0  0
    7.0900    4.6520   13.3030 N   0  0  0  0  0  0  0  0  0  0  0  0
    6.7160    3.6270   11.4350 H   0  0  0  0  0  0  0  0  0  0  0  0
    8.2400    5.4330   12.9310 C   0  0  0  0  0  0  0  0  0  0  0  0
    8.7370    5.0050   12.0610 H   0  0  0  0  0  0  0  0  0  0  0  0
    8.9350    5.4390   13.7750 H   0  0  0  0  0  0  0  0  0  0  0  0
    7.9130    6.4510   12.7100 H   0  0  0  0  0  0  0  0  0  0  0  0
    0.3640    8.7950   22.1870 C   0  0  0  0  0  0  0  0  0  0  0  0
    1.3960    8.1390   22.7870 F   0  0  0  0  0  0  0  0  0  0  0  0
    0.0010    9.7810   23.0540 F   0  0  0  0  0  0  0  0  0  0  0  0
   -0.6740    7.9170   22.1590 F   0  0  0  0  0  0  0  0  0  0  0  0
  1  2  1  0  0  0  0
  2 12  1  0  0  0  0
  2 11  1  0  0  0  0
  3  2  1  0  0  0  0
  3  8  1  0  0  0  0
  4  3  2  0  0  0  0
  5  4  1  0  0  0  0
  5  6  2  0  0  0  0
  6  7  1  0  0  0  0
  7  8  2  0  0  0  0
  7 14  1  0  0  0  0
  8 61  1  0  0  0  0
  9  4  1  0  0  0  0
  9  1  1  0  0  0  0
 10  9  2  0  0  0  0
 13  5  1  0  0  0  0
 15 16  1  0  0  0  0
 15  6  1  0  0  0  0
 15 20  1  0  0  0  0
 16 22  1  0  0  0  0
 17 18  1  0  0  0  0
 17 24  1  0  0  0  0
 17 16  1  0  0  0  0
 18 26  1  0  0  0  0
 18 19  1  0  0  0  0
 19 29  1  0  0  0  0
 19 28  1  0  0  0  0
 20 19  1  0  0  0  0
 20 30  1  0  0  0  0
 21 15  1  0  0  0  0
 23 16  1  0  0  0  0
 25 17  1  0  0  0  0
 27 18  1  0  0  0  0
 31 20  1  0  0  0  0
 32 37  2  0  0  0  0
 32 33  1  0  0  0  0
 33 34  2  0  0  0  0
 34 39  1  0  0  0  0
 34 35  1  0  0  0  0
 35 40  1  0  0  0  0
 36  1  1  0  0  0  0
 36 35  2  0  0  0  0
 37 36  1  0  0  0  0
 38 33  1  0  0  0  0
 41 37  1  0  0  0  0
 42 43  1  6  0  0  0
 42 32  1  0  0  0  0
 42 44  1  0  0  0  0
 44 45  1  0  0  0  0
 44 47  1  0  0  0  0
 46 44  1  0  0  0  0
 48 50  1  0  0  0  0
 48 42  1  0  0  0  0
 49 48  1  0  0  0  0
 51 48  1  0  0  0  0
 52 51  2  0  0  0  0
 53 52  1  0  0  0  0
 54 53  2  0  0  0  0
 54 55  1  0  0  0  0
 55 51  1  0  0  0  0
 56 54  1  0  0  0  0
 57 55  1  0  0  0  0
 57 59  1  0  0  0  0
 58 57  1  0  0  0  0
 60 57  1  0  0  0  0
 61 62  1  0  0  0  0
 61 63  1  0  0  0  0
 64 61  1  0  0  0  0
M  END
>  <MODEL>
22

>  <REMARK>
 VINA RESULT:    -7.569      3.592      9.212
 INTER + INTRA:         -11.062
 INTER:                  -9.877
 INTRA:                  -1.185
 UNBOUND:                -0.395
  Name = 
  8 active torsions:
  status: ('A' for Active; 'I' for Inactive)
    1  A    between atoms: C_1  and  C_2
    2  A    between atoms: C_2  and  C_3
    3  A    between atoms: C_2  and  C_10
    4  A    between atoms: C_3  and  C_4
    5  A    between atoms: N_8  and  C_9
    6  A    between atoms: C_14  and  N_16
    7  A    between atoms: C_21  and  C_28
    8  A    between atoms: C_23  and  C_24
                            x       y       z     vdW  Elec       q    Type
                         _______ _______ _______ _____ _____    ______ ____

>  <TORSDO>
F 8

$$$$
=
 OpenBabel07192307433D

 64 68  0  0  1  0  0  0  0  0999 V2000
    1.5890    9.1270   19.3730 N   0  0  0  0  0  0  0  0  0  0  0  0
    1.2190   10.3810   18.7290 C   0  0  0  0  0  0  0  0  0  0  0  0
    0.3560   11.0570   19.7460 C   0  0  0  0  0  0  0  0  0  0  0  0
    0.2670   10.2620   20.8810 C   0  0  0  0  0  0  0  0  0  0  0  0
   -0.4740   10.6230   21.9930 C   0  0  0  0  0  0  0  0  0  0  0  0
   -1.1640   11.8430   21.9620 C   0  0  0  0  0  0  0  0  0  0  0  0
   -1.0660   12.6600   20.8090 C   0  0  0  0  0  0  0  0  0  0  0  0
   -0.3040   12.2800   19.6850 C   0  0  0  0  0  0  0  0  0  0  0  0
    1.0560    9.0440   20.6640 C   0  0  0  0  0  0  0  0  0  0  0  0
    1.1680    8.1910   21.5250 O   0  0  0  0  0  0  0  0  0  0  0  0
    0.6530   10.1730   17.8160 H   0  0  0  0  0  0  0  0  0  0  0  0
    2.1160   10.9730   18.5290 H   0  0  0  0  0  0  0  0  0  0  0  0
   -0.5130    9.9600   22.8540 H   0  0  0  0  0  0  0  0  0  0  0  0
   -1.5930   13.6160   20.7910 H   0  0  0  0  0  0  0  0  0  0  0  0
   -1.9950   12.2620   23.1650 C   0  0  0  0  0  0  0  0  0  0  0  0
   -3.5000   12.2980   22.8600 C   0  0  0  0  0  0  0  0  0  0  0  0
   -4.3270   12.5580   24.1230 C   0  0  0  0  0  0  0  0  0  0  0  0
   -3.6010   13.4140   25.1650 C   0  0  0  0  0  0  0  0  0  0  0  0
   -2.5940   14.3590   24.5230 C   0  0  0  0  0  0  0  0  0  0  0  0
   -1.5100   13.6050   23.7480 C   0  0  0  0  0  0  0  0  0  0  0  0
   -1.8560   11.5010   23.9470 H   0  0  0  0  0  0  0  0  0  0  0  0
   -3.7200   13.0870   22.1300 H   0  0  0  0  0  0  0  0  0  0  0  0
   -3.8300   11.3580   22.4000 H   0  0  0  0  0  0  0  0  0  0  0  0
   -5.2650   13.0450   23.8320 H   0  0  0  0  0  0  0  0  0  0  0  0
   -4.6080   11.6050   24.5870 H   0  0  0  0  0  0  0  0  0  0  0  0
   -4.3370   13.9800   25.7480 H   0  0  0  0  0  0  0  0  0  0  0  0
   -3.0780   12.7600   25.8750 H   0  0  0  0  0  0  0  0  0  0  0  0
   -3.1220   15.0370   23.8390 H   0  0  0  0  0  0  0  0  0  0  0  0
   -2.1270   14.9900   25.2880 H   0  0  0  0  0  0  0  0  0  0  0  0
   -1.1220   14.2740   22.9690 H   0  0  0  0  0  0  0  0  0  0  0  0
   -0.6580   13.4050   24.4130 H   0  0  0  0  0  0  0  0  0  0  0  0
    3.7480    6.1020   18.7710 C   0  0  0  0  0  0  0  0  0  0  0  0
    3.9130    6.1900   17.3830 C   0  0  0  0  0  0  0  0  0  0  0  0
    3.3130    7.2190   16.6640 C   0  0  0  0  0  0  0  0  0  0  0  0
    2.5450    8.1800   17.3240 C   0  0  0  0  0  0  0  0  0  0  0  0
    2.3660    8.1350   18.7150 C   0  0  0  0  0  0  0  0  0  0  0  0
    2.9740    7.0830   19.4170 C   0  0  0  0  0  0  0  0  0  0  0  0
    4.5050    5.4490   16.8500 H   0  0  0  0  0  0  0  0  0  0  0  0
    3.4400    7.2730   15.5850 H   0  0  0  0  0  0  0  0  0  0  0  0
    2.1020    8.9630   16.7160 H   0  0  0  0  0  0  0  0  0  0  0  0
    2.8510    7.0070   20.4940 H   0  0  0  0  0  0  0  0  0  0  0  0
    4.4320    4.9690   19.5260 C   0  0  2  0  0  0  0  0  0  0  0  0
    4.0680    5.0380   20.5640 H   0  0  0  0  0  0  0  0  0  0  0  0
    5.9550    5.1220   19.6450 C   0  0  0  0  0  0  0  0  0  0  0  0
    6.4580    4.7170   18.7590 H   0  0  0  0  0  0  0  0  0  0  0  0
    6.2260    6.1810   19.7260 H   0  0  0  0  0  0  0  0  0  0  0  0
    6.3660    4.6080   20.5200 H   0  0  0  0  0  0  0  0  0  0  0  0
    3.9940    3.5760   19.0230 C   0  0  0  0  0  0  0  0  0  0  0  0
    4.5920    2.7870   19.4970 H   0  0  0  0  0  0  0  0  0  0  0  0
    4.2320    3.5140   17.9500 H   0  0  0  0  0  0  0  0  0  0  0  0
    2.5370    3.2810   19.1640 C   0  0  0  0  0  0  0  0  0  0  0  0
    1.7080    3.0590   18.1590 N   0  0  0  0  0  0  0  0  0  0  0  0
    0.4580    2.8130   18.6730 N   0  0  0  0  0  0  0  0  0  0  0  0
    0.5500    2.8840   19.9800 C   0  0  0  0  0  0  0  0  0  0  0  0
    1.8390    3.1500   20.3370 N   0  0  0  0  0  0  0  0  0  0  0  0
   -0.2570    2.7450   20.6850 H   0  0  0  0  0  0  0  0  0  0  0  0
    2.3050    3.2320   21.6950 C   0  0  0  0  0  0  0  0  0  0  0  0
    3.3890    3.1360   21.7420 H   0  0  0  0  0  0  0  0  0  0  0  0
    1.8470    2.4170   22.2620 H   0  0  0  0  0  0  0  0  0  0  0  0
    1.9980    4.1940   22.1100 H   0  0  0  0  0  0  0  0  0  0  0  0
   -0.1950   13.1600   18.4700 C   0  0  0  0  0  0  0  0  0  0  0  0
   -0.6230   14.4290   18.7160 F   0  0  0  0  0  0  0  0  0  0  0  0
    1.0900   13.2840   18.0320 F   0  0  0  0  0  0  0  0  0  0  0  0
   -0.9150   12.7200   17.4030 F   0  0  0  0  0  0  0  0  0  0  0  0
  1  9  1  0  0  0  0
  2  1  1  0  0  0  0
  2  3  1  0  0  0  0
  3  4  1  0  0  0  0
  4  5  2  0  0  0  0
  5 13  1  0  0  0  0
  6  5  1  0  0  0  0
  6 15  1  0  0  0  0
  7  6  2  0  0  0  0
  8  3  2  0  0  0  0
  8  7  1  0  0  0  0
  9  4  1  0  0  0  0
  9 10  2  0  0  0  0
 11  2  1  0  0  0  0
 12  2  1  0  0  0  0
 14  7  1  0  0  0  0
 15 20  1  0  0  0  0
 15 21  1  0  0  0  0
 16 15  1  0  0  0  0
 16 17  1  0  0  0  0
 17 25  1  0  0  0  0
 17 18  1  0  0  0  0
 18 26  1  0  0  0  0
 18 27  1  0  0  0  0
 19 18  1  0  0  0  0
 19 29  1  0  0  0  0
 20 31  1  0  0  0  0
 20 19  1  0  0  0  0
 22 16  1  0  0  0  0
 23 16  1  0  0  0  0
 24 17  1  0  0  0  0
 28 19  1  0  0  0  0
 30 20  1  0  0  0  0
 32 37  1  0  0  0  0
 32 42  1  0  0  0  0
 33 32  2  0  0  0  0
 34 35  2  0  0  0  0
 34 33  1  0  0  0  0
 35 36  1  0  0  0  0
 36  1  1  0  0  0  0
 36 37  2  0  0  0  0
 37 41  1  0  0  0  0
 38 33  1  0  0  0  0
 39 34  1  0  0  0  0
 40 35  1  0  0  0  0
 42 44  1  0  0  0  0
 42 43  1  1  0  0  0
 44 46  1  0  0  0  0
 44 47  1  0  0  0  0
 45 44  1  0  0  0  0
 48 51  1  0  0  0  0
 48 49  1  0  0  0  0
 48 42  1  0  0  0  0
 50 48  1  0  0  0  0
 51 55  1  0  0  0  0
 52 53  1  0  0  0  0
 52 51  2  0  0  0  0
 53 54  2  0  0  0  0
 54 55  1  0  0  0  0
 54 56  1  0  0  0  0
 55 57  1  0  0  0  0
 57 58  1  0  0  0  0
 57 60  1  0  0  0  0
 57 59  1  0  0  0  0
 61 62  1  0  0  0  0
 61  8  1  0  0  0  0
 63 61  1  0  0  0  0
 64 61  1  0  0  0  0
M  END
>  <MODEL>
23

>  <REMARK>
 VINA RESULT:    -7.553      3.979      9.681
 INTER + INTRA:         -11.039
 INTER:                  -9.918
 INTRA:                  -1.120
 UNBOUND:                -0.395
  Name = 
  8 active torsions:
  status: ('A' for Active; 'I' for Inactive)
    1  A    between atoms: C_1  and  C_2
    2  A    between atoms: C_2  and  C_3
    3  A    between atoms: C_2  and  C_10
    4  A    between atoms: C_3  and  C_4
    5  A    between atoms: N_8  and  C_9
    6  A    between atoms: C_14  and  N_16
    7  A    between atoms: C_21  and  C_28
    8  A    between atoms: C_23  and  C_24
                            x       y       z     vdW  Elec       q    Type
                         _______ _______ _______ _____ _____    ______ ____

>  <TORSDO>
F 8

$$$$
=
 OpenBabel07192307433D

 64 68  0  0  1  0  0  0  0  0999 V2000
    0.9860    8.5200   20.3870 N   0  0  0  0  0  0  0  0  0  0  0  0
    0.2340    9.1010   19.2810 C   0  0  0  0  0  0  0  0  0  0  0  0
   -0.4900   10.2460   19.9120 C   0  0  0  0  0  0  0  0  0  0  0  0
   -0.1570   10.3210   21.2580 C   0  0  0  0  0  0  0  0  0  0  0  0
   -0.6810   11.2800   22.1080 C   0  0  0  0  0  0  0  0  0  0  0  0
   -1.5900   12.2080   21.5800 C   0  0  0  0  0  0  0  0  0  0  0  0
   -1.9240   12.1380   20.2040 C   0  0  0  0  0  0  0  0  0  0  0  0
   -1.3790   11.1570   19.3510 C   0  0  0  0  0  0  0  0  0  0  0  0
    0.7890    9.2440   21.5680 C   0  0  0  0  0  0  0  0  0  0  0  0
    1.2630    9.1080   22.6810 O   0  0  0  0  0  0  0  0  0  0  0  0
   -0.4710    8.3620   18.8880 H   0  0  0  0  0  0  0  0  0  0  0  0
    0.9250    9.4570   18.5120 H   0  0  0  0  0  0  0  0  0  0  0  0
   -0.3890   11.2910   23.1540 H   0  0  0  0  0  0  0  0  0  0  0  0
   -2.6220   12.8690   19.7910 H   0  0  0  0  0  0  0  0  0  0  0  0
   -2.1910   13.2660   22.4910 C   0  0  0  0  0  0  0  0  0  0  0  0
   -1.1700   13.8380   23.4860 C   0  0  0  0  0  0  0  0  0  0  0  0
   -1.7500   15.0140   24.2780 C   0  0  0  0  0  0  0  0  0  0  0  0
   -3.2620   14.9190   24.4980 C   0  0  0  0  0  0  0  0  0  0  0  0
   -3.7420   13.4740   24.5290 C   0  0  0  0  0  0  0  0  0  0  0  0
   -3.4470   12.7410   23.2170 C   0  0  0  0  0  0  0  0  0  0  0  0
   -2.5110   14.1070   21.8590 H   0  0  0  0  0  0  0  0  0  0  0  0
   -0.8560   13.0610   24.1960 H   0  0  0  0  0  0  0  0  0  0  0  0
   -0.2590   14.1640   22.9700 H   0  0  0  0  0  0  0  0  0  0  0  0
   -1.2370   15.0700   25.2460 H   0  0  0  0  0  0  0  0  0  0  0  0
   -1.5290   15.9560   23.7600 H   0  0  0  0  0  0  0  0  0  0  0  0
   -3.5270   15.4290   25.4320 H   0  0  0  0  0  0  0  0  0  0  0  0
   -3.7830   15.4540   23.6930 H   0  0  0  0  0  0  0  0  0  0  0  0
   -3.2480   12.9490   25.3560 H   0  0  0  0  0  0  0  0  0  0  0  0
   -4.8180   13.4380   24.7350 H   0  0  0  0  0  0  0  0  0  0  0  0
   -3.3760   11.6690   23.4360 H   0  0  0  0  0  0  0  0  0  0  0  0
   -4.3060   12.8460   22.5390 H   0  0  0  0  0  0  0  0  0  0  0  0
    3.5240    6.0690   19.0720 C   0  0  0  0  0  0  0  0  0  0  0  0
    3.3120    5.0010   19.9540 C   0  0  0  0  0  0  0  0  0  0  0  0
    2.3630    5.0960   20.9660 C   0  0  0  0  0  0  0  0  0  0  0  0
    1.6030    6.2590   21.1060 C   0  0  0  0  0  0  0  0  0  0  0  0
    1.7740    7.3470   20.2360 C   0  0  0  0  0  0  0  0  0  0  0  0
    2.7440    7.2300   19.2290 C   0  0  0  0  0  0  0  0  0  0  0  0
    3.8960    4.0870   19.8620 H   0  0  0  0  0  0  0  0  0  0  0  0
    2.2130    4.2640   21.6500 H   0  0  0  0  0  0  0  0  0  0  0  0
    0.8730    6.2800   21.9100 H   0  0  0  0  0  0  0  0  0  0  0  0
    2.9140    8.0530   18.5410 H   0  0  0  0  0  0  0  0  0  0  0  0
    4.5620    5.9220   17.9680 C   0  0  2  0  0  0  0  0  0  0  0  0
    5.4310    5.4310   18.4360 H   0  0  0  0  0  0  0  0  0  0  0  0
    5.1160    7.2550   17.4430 C   0  0  0  0  0  0  0  0  0  0  0  0
    4.3020    7.9150   17.1190 H   0  0  0  0  0  0  0  0  0  0  0  0
    5.6710    7.7740   18.2330 H   0  0  0  0  0  0  0  0  0  0  0  0
    5.7940    7.1270   16.5930 H   0  0  0  0  0  0  0  0  0  0  0  0
    4.0980    4.9680   16.8450 C   0  0  0  0  0  0  0  0  0  0  0  0
    4.8880    4.8380   16.0950 H   0  0  0  0  0  0  0  0  0  0  0  0
    3.2690    5.4550   16.3090 H   0  0  0  0  0  0  0  0  0  0  0  0
    3.5970    3.6410   17.3100 C   0  0  0  0  0  0  0  0  0  0  0  0
    4.3630    2.6120   17.6320 N   0  0  0  0  0  0  0  0  0  0  0  0
    3.5540    1.5730   18.0230 N   0  0  0  0  0  0  0  0  0  0  0  0
    2.3120    1.9880   17.9380 C   0  0  0  0  0  0  0  0  0  0  0  0
    2.2890    3.2870   17.5200 N   0  0  0  0  0  0  0  0  0  0  0  0
    1.4290    1.4110   18.1700 H   0  0  0  0  0  0  0  0  0  0  0  0
    1.0930    4.0730   17.3790 C   0  0  0  0  0  0  0  0  0  0  0  0
    1.1130    4.6510   16.4560 H   0  0  0  0  0  0  0  0  0  0  0  0
    1.0330    4.7570   18.2300 H   0  0  0  0  0  0  0  0  0  0  0  0
    0.2330    3.4000   17.3790 H   0  0  0  0  0  0  0  0  0  0  0  0
   -1.7290   11.0990   17.8890 C   0  0  0  0  0  0  0  0  0  0  0  0
   -3.0660   10.9340   17.6880 F   0  0  0  0  0  0  0  0  0  0  0  0
   -1.3970   12.2450   17.2290 F   0  0  0  0  0  0  0  0  0  0  0  0
   -1.1200   10.0880   17.2150 F   0  0  0  0  0  0  0  0  0  0  0  0
  1  9  1  0  0  0  0
  2  3  1  0  0  0  0
  2  1  1  0  0  0  0
  3  4  1  0  0  0  0
  4  9  1  0  0  0  0
  4  5  2  0  0  0  0
  5 13  1  0  0  0  0
  6  5  1  0  0  0  0
  6 15  1  0  0  0  0
  7  6  2  0  0  0  0
  8  3  2  0  0  0  0
  8  7  1  0  0  0  0
  9 10  2  0  0  0  0
 11  2  1  0  0  0  0
 12  2  1  0  0  0  0
 14  7  1  0  0  0  0
 15 20  1  0  0  0  0
 15 16  1  0  0  0  0
 16 22  1  0  0  0  0
 16 17  1  0  0  0  0
 17 18  1  0  0  0  0
 17 24  1  0  0  0  0
 18 19  1  0  0  0  0
 18 26  1  0  0  0  0
 19 29  1  0  0  0  0
 19 28  1  0  0  0  0
 20 30  1  0  0  0  0
 20 19  1  0  0  0  0
 21 15  1  0  0  0  0
 23 16  1  0  0  0  0
 25 17  1  0  0  0  0
 27 18  1  0  0  0  0
 31 20  1  0  0  0  0
 32 37  2  0  0  0  0
 32 33  1  0  0  0  0
 33 34  2  0  0  0  0
 34 35  1  0  0  0  0
 34 39  1  0  0  0  0
 35 40  1  0  0  0  0
 36  1  1  0  0  0  0
 36 35  2  0  0  0  0
 37 36  1  0  0  0  0
 38 33  1  0  0  0  0
 41 37  1  0  0  0  0
 42 43  1  1  0  0  0
 42 32  1  0  0  0  0
 44 42  1  0  0  0  0
 44 46  1  0  0  0  0
 45 44  1  0  0  0  0
 47 44  1  0  0  0  0
 48 51  1  0  0  0  0
 48 42  1  0  0  0  0
 49 48  1  0  0  0  0
 50 48  1  0  0  0  0
 51 55  1  0  0  0  0
 51 52  2  0  0  0  0
 52 53  1  0  0  0  0
 54 53  2  0  0  0  0
 54 56  1  0  0  0  0
 55 54  1  0  0  0  0
 57 60  1  0  0  0  0
 57 55  1  0  0  0  0
 57 59  1  0  0  0  0
 58 57  1  0  0  0  0
 61  8  1  0  0  0  0
 62 61  1  0  0  0  0
 63 61  1  0  0  0  0
 64 61  1  0  0  0  0
M  END
>  <MODEL>
24

>  <REMARK>
 VINA RESULT:    -7.434      3.696      9.530
 INTER + INTRA:         -10.872
 INTER:                 -10.652
 INTRA:                  -0.219
 UNBOUND:                -0.395
  Name = 
  8 active torsions:
  status: ('A' for Active; 'I' for Inactive)
    1  A    between atoms: C_1  and  C_2
    2  A    between atoms: C_2  and  C_3
    3  A    between atoms: C_2  and  C_10
    4  A    between atoms: C_3  and  C_4
    5  A    between atoms: N_8  and  C_9
    6  A    between atoms: C_14  and  N_16
    7  A    between atoms: C_21  and  C_28
    8  A    between atoms: C_23  and  C_24
                            x       y       z     vdW  Elec       q    Type
                         _______ _______ _______ _____ _____    ______ ____

>  <TORSDO>
F 8

$$$$
=
 OpenBabel07192307433D

 64 68  0  0  1  0  0  0  0  0999 V2000
    1.7670    8.5810   19.0770 N   0  0  0  0  0  0  0  0  0  0  0  0
    1.4310    8.5230   20.4940 C   0  0  0  0  0  0  0  0  0  0  0  0
    0.4400    9.6290   20.6660 C   0  0  0  0  0  0  0  0  0  0  0  0
    0.2160   10.2450   19.4420 C   0  0  0  0  0  0  0  0  0  0  0  0
   -0.6500   11.3130   19.2880 C   0  0  0  0  0  0  0  0  0  0  0  0
   -1.3230   11.7910   20.4220 C   0  0  0  0  0  0  0  0  0  0  0  0
   -1.1030   11.1560   21.6700 C   0  0  0  0  0  0  0  0  0  0  0  0
   -0.2190   10.0670   21.8100 C   0  0  0  0  0  0  0  0  0  0  0  0
    1.0380    9.5800   18.4250 C   0  0  0  0  0  0  0  0  0  0  0  0
    1.0020    9.9130   17.2540 O   0  0  0  0  0  0  0  0  0  0  0  0
    2.3290    8.7080   21.0930 H   0  0  0  0  0  0  0  0  0  0  0  0
    0.9760    7.5560   20.7270 H   0  0  0  0  0  0  0  0  0  0  0  0
   -0.7860   11.7610   18.3070 H   0  0  0  0  0  0  0  0  0  0  0  0
   -1.6360   11.5200   22.5500 H   0  0  0  0  0  0  0  0  0  0  0  0
   -2.2720   12.9690   20.2860 C   0  0  0  0  0  0  0  0  0  0  0  0
   -2.1770   13.9450   21.4690 C   0  0  0  0  0  0  0  0  0  0  0  0
   -3.0170   15.2050   21.2320 C   0  0  0  0  0  0  0  0  0  0  0  0
   -4.2560   14.9610   20.3680 C   0  0  0  0  0  0  0  0  0  0  0  0
   -4.7700   13.5330   20.5000 C   0  0  0  0  0  0  0  0  0  0  0  0
   -3.7260   12.5030   20.0620 C   0  0  0  0  0  0  0  0  0  0  0  0
   -1.9740   13.5360   19.3920 H   0  0  0  0  0  0  0  0  0  0  0  0
   -2.5270   13.4610   22.3890 H   0  0  0  0  0  0  0  0  0  0  0  0
   -1.1360   14.2360   21.6550 H   0  0  0  0  0  0  0  0  0  0  0  0
   -3.3170   15.6120   22.2050 H   0  0  0  0  0  0  0  0  0  0  0  0
   -2.4020   15.9770   20.7540 H   0  0  0  0  0  0  0  0  0  0  0  0
   -5.0410   15.6760   20.6450 H   0  0  0  0  0  0  0  0  0  0  0  0
   -4.0130   15.1590   19.3150 H   0  0  0  0  0  0  0  0  0  0  0  0
   -5.0470   13.3470   21.5450 H   0  0  0  0  0  0  0  0  0  0  0  0
   -5.6840   13.4040   19.9070 H   0  0  0  0  0  0  0  0  0  0  0  0
   -3.9390   11.5610   20.5840 H   0  0  0  0  0  0  0  0  0  0  0  0
   -3.8560   12.2820   18.9930 H   0  0  0  0  0  0  0  0  0  0  0  0
    4.3230    5.8500   18.6450 C   0  0  0  0  0  0  0  0  0  0  0  0
    4.6900    6.0660   17.3100 C   0  0  0  0  0  0  0  0  0  0  0  0
    4.0950    7.0810   16.5690 C   0  0  0  0  0  0  0  0  0  0  0  0
    3.1300    7.9030   17.1550 C   0  0  0  0  0  0  0  0  0  0  0  0
    2.7440    7.7290   18.4930 C   0  0  0  0  0  0  0  0  0  0  0  0
    3.3520    6.6930   19.2170 C   0  0  0  0  0  0  0  0  0  0  0  0
    5.4380    5.4350   16.8350 H   0  0  0  0  0  0  0  0  0  0  0  0
    4.3800    7.2350   15.5310 H   0  0  0  0  0  0  0  0  0  0  0  0
    2.7000    8.6830   16.5340 H   0  0  0  0  0  0  0  0  0  0  0  0
    3.0740    6.5180   20.2520 H   0  0  0  0  0  0  0  0  0  0  0  0
    5.0070    4.7380   19.4290 C   0  0  2  0  0  0  0  0  0  0  0  0
    4.8240    4.9630   20.4920 H   0  0  0  0  0  0  0  0  0  0  0  0
    6.5380    4.7250   19.3010 C   0  0  0  0  0  0  0  0  0  0  0  0
    6.9010    5.6730   18.8850 H   0  0  0  0  0  0  0  0  0  0  0  0
    7.0010    4.5940   20.2850 H   0  0  0  0  0  0  0  0  0  0  0  0
    6.9030    3.9210   18.6540 H   0  0  0  0  0  0  0  0  0  0  0  0
    4.3610    3.3570   19.1780 C   0  0  0  0  0  0  0  0  0  0  0  0
    5.0790    2.5510   19.3790 H   0  0  0  0  0  0  0  0  0  0  0  0
    4.1340    3.2800   18.1050 H   0  0  0  0  0  0  0  0  0  0  0  0
    3.0850    3.1130   19.9130 C   0  0  0  0  0  0  0  0  0  0  0  0
    2.9990    2.7320   21.1760 N   0  0  0  0  0  0  0  0  0  0  0  0
    1.6700    2.6210   21.5080 N   0  0  0  0  0  0  0  0  0  0  0  0
    0.9720    2.9420   20.4440 C   0  0  0  0  0  0  0  0  0  0  0  0
    1.8150    3.2830   19.4270 N   0  0  0  0  0  0  0  0  0  0  0  0
   -0.1060    2.9530   20.3670 H   0  0  0  0  0  0  0  0  0  0  0  0
    1.3820    3.7460   18.1360 C   0  0  0  0  0  0  0  0  0  0  0  0
    2.0500    3.3930   17.3510 H   0  0  0  0  0  0  0  0  0  0  0  0
    1.3870    4.8390   18.1470 H   0  0  0  0  0  0  0  0  0  0  0  0
    0.3700    3.3790   17.9550 H   0  0  0  0  0  0  0  0  0  0  0  0
   -0.0010    9.3910   23.1370 C   0  0  0  0  0  0  0  0  0  0  0  0
   -0.6550   10.0270   24.1480 F   0  0  0  0  0  0  0  0  0  0  0  0
   -0.4630    8.1090   23.1490 F   0  0  0  0  0  0  0  0  0  0  0  0
    1.3030    9.3250   23.5150 F   0  0  0  0  0  0  0  0  0  0  0  0
  1  2  1  0  0  0  0
  2  3  1  0  0  0  0
  2 12  1  0  0  0  0
  2 11  1  0  0  0  0
  3  8  1  0  0  0  0
  4  3  2  0  0  0  0
  5  4  1  0  0  0  0
  5  6  2  0  0  0  0
  6  7  1  0  0  0  0
  7  8  2  0  0  0  0
  7 14  1  0  0  0  0
  8 61  1  0  0  0  0
  9  1  1  0  0  0  0
  9  4  1  0  0  0  0
 10  9  2  0  0  0  0
 13  5  1  0  0  0  0
 15  6  1  0  0  0  0
 15 16  1  0  0  0  0
 16 23  1  0  0  0  0
 16 22  1  0  0  0  0
 17 16  1  0  0  0  0
 17 24  1  0  0  0  0
 18 19  1  0  0  0  0
 18 26  1  0  0  0  0
 18 17  1  0  0  0  0
 19 28  1  0  0  0  0
 20 15  1  0  0  0  0
 20 19  1  0  0  0  0
 20 30  1  0  0  0  0
 21 15  1  0  0  0  0
 25 17  1  0  0  0  0
 27 18  1  0  0  0  0
 29 19  1  0  0  0  0
 31 20  1  0  0  0  0
 32 37  1  0  0  0  0
 32 42  1  0  0  0  0
 33 32  2  0  0  0  0
 34 35  2  0  0  0  0
 34 33  1  0  0  0  0
 35 36  1  0  0  0  0
 36  1  1  0  0  0  0
 36 37  2  0  0  0  0
 37 41  1  0  0  0  0
 38 33  1  0  0  0  0
 39 34  1  0  0  0  0
 40 35  1  0  0  0  0
 42 43  1  1  0  0  0
 44 42  1  0  0  0  0
 44 46  1  0  0  0  0
 45 44  1  0  0  0  0
 47 44  1  0  0  0  0
 48 49  1  0  0  0  0
 48 42  1  0  0  0  0
 48 51  1  0  0  0  0
 50 48  1  0  0  0  0
 51 52  2  0  0  0  0
 52 53  1  0  0  0  0
 54 53  2  0  0  0  0
 55 51  1  0  0  0  0
 55 54  1  0  0  0  0
 56 54  1  0  0  0  0
 57 59  1  0  0  0  0
 57 55  1  0  0  0  0
 58 57  1  0  0  0  0
 60 57  1  0  0  0  0
 61 63  1  0  0  0  0
 61 64  1  0  0  0  0
 61 62  1  0  0  0  0
M  END
>  <MODEL>
25

>  <REMARK>
 VINA RESULT:    -7.182      2.891      9.159
 INTER + INTRA:         -10.516
 INTER:                  -9.155
 INTRA:                  -1.361
 UNBOUND:                -0.395
  Name = 
  8 active torsions:
  status: ('A' for Active; 'I' for Inactive)
    1  A    between atoms: C_1  and  C_2
    2  A    between atoms: C_2  and  C_3
    3  A    between atoms: C_2  and  C_10
    4  A    between atoms: C_3  and  C_4
    5  A    between atoms: N_8  and  C_9
    6  A    between atoms: C_14  and  N_16
    7  A    between atoms: C_21  and  C_28
    8  A    between atoms: C_23  and  C_24
                            x       y       z     vdW  Elec       q    Type
                         _______ _______ _______ _____ _____    ______ ____

>  <TORSDO>
F 8

$$$$
=
 OpenBabel07192307433D

 64 68  0  0  1  0  0  0  0  0999 V2000
    2.1260    7.7980   19.0010 N   0  0  0  0  0  0  0  0  0  0  0  0
    2.3400    9.1350   18.4610 C   0  0  0  0  0  0  0  0  0  0  0  0
    1.4690   10.0010   19.3130 C   0  0  0  0  0  0  0  0  0  0  0  0
    0.8330    9.2210   20.2710 C   0  0  0  0  0  0  0  0  0  0  0  0
   -0.0470    9.7460   21.2010 C   0  0  0  0  0  0  0  0  0  0  0  0
   -0.3070   11.1230   21.1650 C   0  0  0  0  0  0  0  0  0  0  0  0
    0.3480   11.9220   20.1950 C   0  0  0  0  0  0  0  0  0  0  0  0
    1.2450   11.3730   19.2550 C   0  0  0  0  0  0  0  0  0  0  0  0
    1.2540    7.8270   20.0940 C   0  0  0  0  0  0  0  0  0  0  0  0
    0.8620    6.9410   20.8320 O   0  0  0  0  0  0  0  0  0  0  0  0
    2.0170    9.1660   17.4160 H   0  0  0  0  0  0  0  0  0  0  0  0
    3.3910    9.4160   18.5740 H   0  0  0  0  0  0  0  0  0  0  0  0
   -0.5190    9.0890   21.9270 H   0  0  0  0  0  0  0  0  0  0  0  0
    0.1550   12.9950   20.1750 H   0  0  0  0  0  0  0  0  0  0  0  0
   -1.2770   11.7270   22.1670 C   0  0  0  0  0  0  0  0  0  0  0  0
   -2.6280   12.0930   21.5350 C   0  0  0  0  0  0  0  0  0  0  0  0
   -3.6440   12.5420   22.5910 C   0  0  0  0  0  0  0  0  0  0  0  0
   -3.0050   13.2250   23.8030 C   0  0  0  0  0  0  0  0  0  0  0  0
   -1.6970   13.9170   23.4430 C   0  0  0  0  0  0  0  0  0  0  0  0
   -0.6560   12.9340   22.9000 C   0  0  0  0  0  0  0  0  0  0  0  0
   -1.4890   10.9620   22.9280 H   0  0  0  0  0  0  0  0  0  0  0  0
   -2.4990   12.9050   20.8080 H   0  0  0  0  0  0  0  0  0  0  0  0
   -3.0420   11.2460   20.9740 H   0  0  0  0  0  0  0  0  0  0  0  0
   -4.3620   13.2230   22.1180 H   0  0  0  0  0  0  0  0  0  0  0  0
   -4.2240   11.6790   22.9390 H   0  0  0  0  0  0  0  0  0  0  0  0
   -3.7130   13.9450   24.2310 H   0  0  0  0  0  0  0  0  0  0  0  0
   -2.8130   12.4770   24.5850 H   0  0  0  0  0  0  0  0  0  0  0  0
   -1.8950   14.6890   22.6880 H   0  0  0  0  0  0  0  0  0  0  0  0
   -1.2900   14.4350   24.3200 H   0  0  0  0  0  0  0  0  0  0  0  0
    0.0350   13.4930   22.2570 H   0  0  0  0  0  0  0  0  0  0  0  0
   -0.0430   12.5560   23.7300 H   0  0  0  0  0  0  0  0  0  0  0  0
    4.6400    5.5150   17.3740 C   0  0  0  0  0  0  0  0  0  0  0  0
    3.8820    4.3400   17.2850 C   0  0  0  0  0  0  0  0  0  0  0  0
    2.5780    4.3020   17.7650 C   0  0  0  0  0  0  0  0  0  0  0  0
    2.0060    5.4420   18.3330 C   0  0  0  0  0  0  0  0  0  0  0  0
    2.7260    6.6430   18.4290 C   0  0  0  0  0  0  0  0  0  0  0  0
    4.0440    6.6540   17.9460 C   0  0  0  0  0  0  0  0  0  0  0  0
    4.3110    3.4400   16.8480 H   0  0  0  0  0  0  0  0  0  0  0  0
    2.0010    3.3820   17.7000 H   0  0  0  0  0  0  0  0  0  0  0  0
    0.9840    5.3590   18.6890 H   0  0  0  0  0  0  0  0  0  0  0  0
    4.6370    7.5610   18.0100 H   0  0  0  0  0  0  0  0  0  0  0  0
    6.0600    5.5230   16.8240 C   0  0  2  0  0  0  0  0  0  0  0  0
    6.3620    4.4650   16.7570 H   0  0  0  0  0  0  0  0  0  0  0  0
    7.0970    6.1550   17.7660 C   0  0  0  0  0  0  0  0  0  0  0  0
    6.6920    6.2520   18.7810 H   0  0  0  0  0  0  0  0  0  0  0  0
    7.9920    5.5250   17.8230 H   0  0  0  0  0  0  0  0  0  0  0  0
    7.4130    7.1510   17.4400 H   0  0  0  0  0  0  0  0  0  0  0  0
    6.1310    6.0690   15.3810 C   0  0  0  0  0  0  0  0  0  0  0  0
    6.9670    6.7720   15.2730 H   0  0  0  0  0  0  0  0  0  0  0  0
    5.2260    6.6670   15.2010 H   0  0  0  0  0  0  0  0  0  0  0  0
    6.1860    5.0280   14.3120 C   0  0  0  0  0  0  0  0  0  0  0  0
    5.2700    4.0950   14.1160 N   0  0  0  0  0  0  0  0  0  0  0  0
    5.6530    3.3290   13.0410 N   0  0  0  0  0  0  0  0  0  0  0  0
    6.7900    3.8130   12.5990 C   0  0  0  0  0  0  0  0  0  0  0  0
    7.1510    4.8940   13.3480 N   0  0  0  0  0  0  0  0  0  0  0  0
    7.3620    3.4350   11.7650 H   0  0  0  0  0  0  0  0  0  0  0  0
    8.3140    5.7020   13.0980 C   0  0  0  0  0  0  0  0  0  0  0  0
    8.9300    5.7870   13.9920 H   0  0  0  0  0  0  0  0  0  0  0  0
    7.9790    6.6980   12.7970 H   0  0  0  0  0  0  0  0  0  0  0  0
    8.8900    5.2430   12.2920 H   0  0  0  0  0  0  0  0  0  0  0  0
    1.9460   12.2300   18.2370 C   0  0  0  0  0  0  0  0  0  0  0  0
    1.1470   13.2310   17.7740 F   0  0  0  0  0  0  0  0  0  0  0  0
    3.0490   12.8470   18.7480 F   0  0  0  0  0  0  0  0  0  0  0  0
    2.3700   11.5490   17.1390 F   0  0  0  0  0  0  0  0  0  0  0  0
  1  9  1  0  0  0  0
  2 12  1  0  0  0  0
  2  1  1  0  0  0  0
  2  3  1  0  0  0  0
  3  4  1  0  0  0  0
  4  5  2  0  0  0  0
  5 13  1  0  0  0  0
  6  5  1  0  0  0  0
  6 15  1  0  0  0  0
  7  6  2  0  0  0  0
  8  3  2  0  0  0  0
  8  7  1  0  0  0  0
  9  4  1  0  0  0  0
  9 10  2  0  0  0  0
 11  2  1  0  0  0  0
 14  7  1  0  0  0  0
 15 20  1  0  0  0  0
 15 21  1  0  0  0  0
 16 15  1  0  0  0  0
 16 17  1  0  0  0  0
 17 25  1  0  0  0  0
 17 18  1  0  0  0  0
 18 26  1  0  0  0  0
 18 27  1  0  0  0  0
 19 18  1  0  0  0  0
 19 29  1  0  0  0  0
 20 19  1  0  0  0  0
 20 31  1  0  0  0  0
 22 16  1  0  0  0  0
 23 16  1  0  0  0  0
 24 17  1  0  0  0  0
 28 19  1  0  0  0  0
 30 20  1  0  0  0  0
 32 37  1  0  0  0  0
 33 32  2  0  0  0  0
 33 34  1  0  0  0  0
 34 35  2  0  0  0  0
 35 36  1  0  0  0  0
 35 40  1  0  0  0  0
 36  1  1  0  0  0  0
 37 41  1  0  0  0  0
 37 36  2  0  0  0  0
 38 33  1  0  0  0  0
 39 34  1  0  0  0  0
 42 43  1  6  0  0  0
 42 32  1  0  0  0  0
 42 44  1  0  0  0  0
 44 46  1  0  0  0  0
 44 45  1  0  0  0  0
 47 44  1  0  0  0  0
 48 42  1  0  0  0  0
 49 48  1  0  0  0  0
 50 48  1  0  0  0  0
 51 48  1  0  0  0  0
 52 51  2  0  0  0  0
 53 52  1  0  0  0  0
 54 53  2  0  0  0  0
 54 55  1  0  0  0  0
 55 51  1  0  0  0  0
 56 54  1  0  0  0  0
 57 55  1  0  0  0  0
 57 58  1  0  0  0  0
 59 57  1  0  0  0  0
 60 57  1  0  0  0  0
 61 63  1  0  0  0  0
 61  8  1  0  0  0  0
 62 61  1  0  0  0  0
 64 61  1  0  0  0  0
M  END
>  <MODEL>
26

>  <REMARK>
 VINA RESULT:    -6.987      4.199      9.851
 INTER + INTRA:         -10.242
 INTER:                  -9.374
 INTRA:                  -0.867
 UNBOUND:                -0.395
  Name = 
  8 active torsions:
  status: ('A' for Active; 'I' for Inactive)
    1  A    between atoms: C_1  and  C_2
    2  A    between atoms: C_2  and  C_3
    3  A    between atoms: C_2  and  C_10
    4  A    between atoms: C_3  and  C_4
    5  A    between atoms: N_8  and  C_9
    6  A    between atoms: C_14  and  N_16
    7  A    between atoms: C_21  and  C_28
    8  A    between atoms: C_23  and  C_24
                            x       y       z     vdW  Elec       q    Type
                         _______ _______ _______ _____ _____    ______ ____

>  <TORSDO>
F 8

$$$$
=
 OpenBabel07192307433D

 64 68  0  0  1  0  0  0  0  0999 V2000
    1.5180    8.9410   19.7250 N   0  0  0  0  0  0  0  0  0  0  0  0
    1.7970   10.2880   19.2440 C   0  0  0  0  0  0  0  0  0  0  0  0
    0.9780   11.1580   20.1410 C   0  0  0  0  0  0  0  0  0  0  0  0
    0.3090   10.3700   21.0690 C   0  0  0  0  0  0  0  0  0  0  0  0
   -0.5360   10.8970   22.0300 C   0  0  0  0  0  0  0  0  0  0  0  0
   -0.7240   12.2860   22.0580 C   0  0  0  0  0  0  0  0  0  0  0  0
   -0.0350   13.0930   21.1190 C   0  0  0  0  0  0  0  0  0  0  0  0
    0.8260   12.5410   20.1480 C   0  0  0  0  0  0  0  0  0  0  0  0
    0.6550    8.9650   20.8260 C   0  0  0  0  0  0  0  0  0  0  0  0
    0.2220    8.0680   21.5260 O   0  0  0  0  0  0  0  0  0  0  0  0
    1.4700   10.3830   18.2040 H   0  0  0  0  0  0  0  0  0  0  0  0
    2.8620   10.5080   19.3590 H   0  0  0  0  0  0  0  0  0  0  0  0
   -1.0380   10.2330   22.7290 H   0  0  0  0  0  0  0  0  0  0  0  0
   -0.1710   14.1750   21.1500 H   0  0  0  0  0  0  0  0  0  0  0  0
   -1.6550   12.8930   23.0950 C   0  0  0  0  0  0  0  0  0  0  0  0
   -2.9560   12.0920   23.2630 C   0  0  0  0  0  0  0  0  0  0  0  0
   -3.8010   12.6230   24.4250 C   0  0  0  0  0  0  0  0  0  0  0  0
   -3.6340   14.1250   24.6670 C   0  0  0  0  0  0  0  0  0  0  0  0
   -3.2690   14.8710   23.3900 C   0  0  0  0  0  0  0  0  0  0  0  0
   -1.9470   14.3770   22.7940 C   0  0  0  0  0  0  0  0  0  0  0  0
   -1.1420   12.8550   24.0660 H   0  0  0  0  0  0  0  0  0  0  0  0
   -3.5540   12.1440   22.3440 H   0  0  0  0  0  0  0  0  0  0  0  0
   -2.7430   11.0290   23.4280 H   0  0  0  0  0  0  0  0  0  0  0  0
   -4.8540   12.3940   24.2230 H   0  0  0  0  0  0  0  0  0  0  0  0
   -3.5430   12.0880   25.3470 H   0  0  0  0  0  0  0  0  0  0  0  0
   -4.5600   14.5310   25.0940 H   0  0  0  0  0  0  0  0  0  0  0  0
   -2.8490   14.2900   25.4170 H   0  0  0  0  0  0  0  0  0  0  0  0
   -4.0710   14.7350   22.6530 H   0  0  0  0  0  0  0  0  0  0  0  0
   -3.2040   15.9470   23.5860 H   0  0  0  0  0  0  0  0  0  0  0  0
   -1.9640   14.5810   21.7160 H   0  0  0  0  0  0  0  0  0  0  0  0
   -1.1190   14.9800   23.1930 H   0  0  0  0  0  0  0  0  0  0  0  0
    3.5900    5.8650   19.0780 C   0  0  0  0  0  0  0  0  0  0  0  0
    3.1020    5.5010   17.8160 C   0  0  0  0  0  0  0  0  0  0  0  0
    2.1020    6.2480   17.2020 C   0  0  0  0  0  0  0  0  0  0  0  0
    1.5820    7.3770   17.8380 C   0  0  0  0  0  0  0  0  0  0  0  0
    2.0520    7.7830   19.0950 C   0  0  0  0  0  0  0  0  0  0  0  0
    3.0550    7.0080   19.6990 C   0  0  0  0  0  0  0  0  0  0  0  0
    3.4940    4.6230   17.3060 H   0  0  0  0  0  0  0  0  0  0  0  0
    1.7240    5.9510   16.2270 H   0  0  0  0  0  0  0  0  0  0  0  0
    0.8050    7.9260   17.3130 H   0  0  0  0  0  0  0  0  0  0  0  0
    3.4390    7.2840   20.6760 H   0  0  0  0  0  0  0  0  0  0  0  0
    4.6960    5.0300   19.7120 C   0  0  2  0  0  0  0  0  0  0  0  0
    4.7030    5.3040   20.7800 H   0  0  0  0  0  0  0  0  0  0  0  0
    6.1080    5.3770   19.2200 C   0  0  0  0  0  0  0  0  0  0  0  0
    6.5730    6.1290   19.8700 H   0  0  0  0  0  0  0  0  0  0  0  0
    6.7460    4.4860   19.2340 H   0  0  0  0  0  0  0  0  0  0  0  0
    6.1170    5.7740   18.2000 H   0  0  0  0  0  0  0  0  0  0  0  0
    4.3880    3.5160   19.6710 C   0  0  0  0  0  0  0  0  0  0  0  0
    5.1890    2.9450   20.1580 H   0  0  0  0  0  0  0  0  0  0  0  0
    4.4030    3.1970   18.6190 H   0  0  0  0  0  0  0  0  0  0  0  0
    3.0590    3.1260   20.2280 C   0  0  0  0  0  0  0  0  0  0  0  0
    2.6720    3.3240   21.4760 N   0  0  0  0  0  0  0  0  0  0  0  0
    1.3910    2.8470   21.6150 N   0  0  0  0  0  0  0  0  0  0  0  0
    1.0190    2.3740   20.4490 C   0  0  0  0  0  0  0  0  0  0  0  0
    2.0220    2.5490   19.5410 N   0  0  0  0  0  0  0  0  0  0  0  0
    0.0660    1.9200   20.2190 H   0  0  0  0  0  0  0  0  0  0  0  0
    1.9260    2.1990   18.1490 C   0  0  0  0  0  0  0  0  0  0  0  0
    2.8410    1.7190   17.8040 H   0  0  0  0  0  0  0  0  0  0  0  0
    1.7650    3.1170   17.5770 H   0  0  0  0  0  0  0  0  0  0  0  0
    1.0790    1.5240   18.0180 H   0  0  0  0  0  0  0  0  0  0  0  0
    1.5640   13.4070   19.1630 C   0  0  0  0  0  0  0  0  0  0  0  0
    2.9130   13.2530   19.2560 F   0  0  0  0  0  0  0  0  0  0  0  0
    1.2480   13.1090   17.8710 F   0  0  0  0  0  0  0  0  0  0  0  0
    1.3250   14.7380   19.3110 F   0  0  0  0  0  0  0  0  0  0  0  0
  1  9  1  0  0  0  0
  2 12  1  0  0  0  0
  2  1  1  0  0  0  0
  2  3  1  0  0  0  0
  3  8  2  0  0  0  0
  3  4  1  0  0  0  0
  4  5  2  0  0  0  0
  5  6  1  0  0  0  0
  5 13  1  0  0  0  0
  6 15  1  0  0  0  0
  7 14  1  0  0  0  0
  7  6  2  0  0  0  0
  8  7  1  0  0  0  0
  9  4  1  0  0  0  0
  9 10  2  0  0  0  0
 11  2  1  0  0  0  0
 15 16  1  0  0  0  0
 15 21  1  0  0  0  0
 16 23  1  0  0  0  0
 16 17  1  0  0  0  0
 17 18  1  0  0  0  0
 17 25  1  0  0  0  0
 18 26  1  0  0  0  0
 18 27  1  0  0  0  0
 19 29  1  0  0  0  0
 19 18  1  0  0  0  0
 20 15  1  0  0  0  0
 20 31  1  0  0  0  0
 20 19  1  0  0  0  0
 22 16  1  0  0  0  0
 24 17  1  0  0  0  0
 28 19  1  0  0  0  0
 30 20  1  0  0  0  0
 32 37  1  0  0  0  0
 32 42  1  0  0  0  0
 33 32  2  0  0  0  0
 34 33  1  0  0  0  0
 34 35  2  0  0  0  0
 35 36  1  0  0  0  0
 36 37  2  0  0  0  0
 36  1  1  0  0  0  0
 37 41  1  0  0  0  0
 38 33  1  0  0  0  0
 39 34  1  0  0  0  0
 40 35  1  0  0  0  0
 42 43  1  1  0  0  0
 44 46  1  0  0  0  0
 44 42  1  0  0  0  0
 44 45  1  0  0  0  0
 47 44  1  0  0  0  0
 48 42  1  0  0  0  0
 48 49  1  0  0  0  0
 48 51  1  0  0  0  0
 50 48  1  0  0  0  0
 51 52  2  0  0  0  0
 52 53  1  0  0  0  0
 54 53  2  0  0  0  0
 55 51  1  0  0  0  0
 55 54  1  0  0  0  0
 56 54  1  0  0  0  0
 57 55  1  0  0  0  0
 58 57  1  0  0  0  0
 59 57  1  0  0  0  0
 60 57  1  0  0  0  0
 61 62  1  0  0  0  0
 61 64  1  0  0  0  0
 61  8  1  0  0  0  0
 63 61  1  0  0  0  0
M  END
>  <MODEL>
27

>  <REMARK>
 VINA RESULT:    -6.923      4.125      9.777
 INTER + INTRA:         -10.151
 INTER:                  -8.714
 INTRA:                  -1.437
 UNBOUND:                -0.395
  Name = 
  8 active torsions:
  status: ('A' for Active; 'I' for Inactive)
    1  A    between atoms: C_1  and  C_2
    2  A    between atoms: C_2  and  C_3
    3  A    between atoms: C_2  and  C_10
    4  A    between atoms: C_3  and  C_4
    5  A    between atoms: N_8  and  C_9
    6  A    between atoms: C_14  and  N_16
    7  A    between atoms: C_21  and  C_28
    8  A    between atoms: C_23  and  C_24
                            x       y       z     vdW  Elec       q    Type
                         _______ _______ _______ _____ _____    ______ ____

>  <TORSDO>
F 8

$$$$
=
 OpenBabel07192307433D

 64 68  0  0  1  0  0  0  0  0999 V2000
    2.0630    9.7170   18.5540 N   0  0  0  0  0  0  0  0  0  0  0  0
    3.0410    9.1150   17.6570 C   0  0  0  0  0  0  0  0  0  0  0  0
    3.0740    7.6830   18.0830 C   0  0  0  0  0  0  0  0  0  0  0  0
    2.1720    7.4860   19.1210 C   0  0  0  0  0  0  0  0  0  0  0  0
    1.9860    6.2580   19.7300 C   0  0  0  0  0  0  0  0  0  0  0  0
    2.7500    5.1710   19.2790 C   0  0  0  0  0  0  0  0  0  0  0  0
    3.6640    5.3680   18.2140 C   0  0  0  0  0  0  0  0  0  0  0  0
    3.8390    6.6260   17.6010 C   0  0  0  0  0  0  0  0  0  0  0  0
    1.5140    8.7630   19.4180 C   0  0  0  0  0  0  0  0  0  0  0  0
    0.6510    8.8560   20.2720 O   0  0  0  0  0  0  0  0  0  0  0  0
    4.0170    9.5880   17.8040 H   0  0  0  0  0  0  0  0  0  0  0  0
    2.6960    9.2020   16.6220 H   0  0  0  0  0  0  0  0  0  0  0  0
    1.2690    6.1610   20.5410 H   0  0  0  0  0  0  0  0  0  0  0  0
    4.2480    4.5190   17.8550 H   0  0  0  0  0  0  0  0  0  0  0  0
    2.5760    3.8120   19.9370 C   0  0  0  0  0  0  0  0  0  0  0  0
    1.9380    3.9070   21.3310 C   0  0  0  0  0  0  0  0  0  0  0  0
    1.6200    2.5210   21.9030 C   0  0  0  0  0  0  0  0  0  0  0  0
    2.5800    1.4270   21.4270 C   0  0  0  0  0  0  0  0  0  0  0  0
    3.9590    1.9840   21.0980 C   0  0  0  0  0  0  0  0  0  0  0  0
    3.9050    3.0310   19.9820 C   0  0  0  0  0  0  0  0  0  0  0  0
    1.8800    3.2290   19.3170 H   0  0  0  0  0  0  0  0  0  0  0  0
    2.6150    4.4230   22.0230 H   0  0  0  0  0  0  0  0  0  0  0  0
    1.0190    4.5050   21.3020 H   0  0  0  0  0  0  0  0  0  0  0  0
    1.6410    2.5830   22.9980 H   0  0  0  0  0  0  0  0  0  0  0  0
    0.5970    2.2330   21.6310 H   0  0  0  0  0  0  0  0  0  0  0  0
    2.6560    0.6500   22.1970 H   0  0  0  0  0  0  0  0  0  0  0  0
    2.1660    0.9410   20.5340 H   0  0  0  0  0  0  0  0  0  0  0  0
    4.3870    2.4390   22.0010 H   0  0  0  0  0  0  0  0  0  0  0  0
    4.6340    1.1710   20.8070 H   0  0  0  0  0  0  0  0  0  0  0  0
    4.7690    3.6980   20.1000 H   0  0  0  0  0  0  0  0  0  0  0  0
    4.0480    2.5360   19.0110 H   0  0  0  0  0  0  0  0  0  0  0  0
    0.2360   12.9850   18.9470 C   0  0  0  0  0  0  0  0  0  0  0  0
    1.2120   13.8710   18.4730 C   0  0  0  0  0  0  0  0  0  0  0  0
    2.4490   13.3980   18.0480 C   0  0  0  0  0  0  0  0  0  0  0  0
    2.7250   12.0300   18.0810 C   0  0  0  0  0  0  0  0  0  0  0  0
    1.7700   11.1080   18.5360 C   0  0  0  0  0  0  0  0  0  0  0  0
    0.5330   11.6100   18.9680 C   0  0  0  0  0  0  0  0  0  0  0  0
    1.0170   14.9410   18.4420 H   0  0  0  0  0  0  0  0  0  0  0  0
    3.2030   14.0950   17.6900 H   0  0  0  0  0  0  0  0  0  0  0  0
    3.7040   11.7130   17.7340 H   0  0  0  0  0  0  0  0  0  0  0  0
   -0.2300   10.9310   19.3370 H   0  0  0  0  0  0  0  0  0  0  0  0
   -1.1120   13.5390   19.3910 C   0  0  2  0  0  0  0  0  0  0  0  0
   -1.6160   13.8760   18.4710 H   0  0  0  0  0  0  0  0  0  0  0  0
   -1.0190   14.8030   20.2590 C   0  0  0  0  0  0  0  0  0  0  0  0
   -0.1280   14.7720   20.8970 H   0  0  0  0  0  0  0  0  0  0  0  0
   -0.9440   15.6940   19.6250 H   0  0  0  0  0  0  0  0  0  0  0  0
   -1.8880   14.9340   20.9120 H   0  0  0  0  0  0  0  0  0  0  0  0
   -2.0270   12.4500   19.9940 C   0  0  0  0  0  0  0  0  0  0  0  0
   -2.4030   12.7600   20.9770 H   0  0  0  0  0  0  0  0  0  0  0  0
   -1.4110   11.5590   20.1870 H   0  0  0  0  0  0  0  0  0  0  0  0
   -3.1570   12.0170   19.1180 C   0  0  0  0  0  0  0  0  0  0  0  0
   -3.0260   11.3240   18.0010 N   0  0  0  0  0  0  0  0  0  0  0  0
   -4.2780   11.1030   17.4770 N   0  0  0  0  0  0  0  0  0  0  0  0
   -5.1460   11.6600   18.2870 C   0  0  0  0  0  0  0  0  0  0  0  0
   -4.4930   12.2230   19.3440 N   0  0  0  0  0  0  0  0  0  0  0  0
   -6.2190   11.6720   18.1620 H   0  0  0  0  0  0  0  0  0  0  0  0
   -5.1470   12.8650   20.4530 C   0  0  0  0  0  0  0  0  0  0  0  0
   -5.4090   13.8940   20.2090 H   0  0  0  0  0  0  0  0  0  0  0  0
   -4.4590   12.8620   21.3030 H   0  0  0  0  0  0  0  0  0  0  0  0
   -6.0480   12.3000   20.7000 H   0  0  0  0  0  0  0  0  0  0  0  0
    4.8020    6.8220   16.4620 C   0  0  0  0  0  0  0  0  0  0  0  0
    5.8510    7.6160   16.8100 F   0  0  0  0  0  0  0  0  0  0  0  0
    5.3530    5.6480   16.0400 F   0  0  0  0  0  0  0  0  0  0  0  0
    4.2460    7.3930   15.3610 F   0  0  0  0  0  0  0  0  0  0  0  0
  1  9  1  0  0  0  0
  2 11  1  0  0  0  0
  2  3  1  0  0  0  0
  2  1  1  0  0  0  0
  3  4  1  0  0  0  0
  4  9  1  0  0  0  0
  4  5  2  0  0  0  0
  5 13  1  0  0  0  0
  6  5  1  0  0  0  0
  6 15  1  0  0  0  0
  7  6  2  0  0  0  0
  8  3  2  0  0  0  0
  8  7  1  0  0  0  0
  9 10  2  0  0  0  0
 12  2  1  0  0  0  0
 14  7  1  0  0  0  0
 15 20  1  0  0  0  0
 15 16  1  0  0  0  0
 16 17  1  0  0  0  0
 16 22  1  0  0  0  0
 17 24  1  0  0  0  0
 18 17  1  0  0  0  0
 18 26  1  0  0  0  0
 19 18  1  0  0  0  0
 19 28  1  0  0  0  0
 20 30  1  0  0  0  0
 20 19  1  0  0  0  0
 21 15  1  0  0  0  0
 23 16  1  0  0  0  0
 25 17  1  0  0  0  0
 27 18  1  0  0  0  0
 29 19  1  0  0  0  0
 31 20  1  0  0  0  0
 32 37  1  0  0  0  0
 32 42  1  0  0  0  0
 33 32  2  0  0  0  0
 34 35  2  0  0  0  0
 34 33  1  0  0  0  0
 35 36  1  0  0  0  0
 36  1  1  0  0  0  0
 36 37  2  0  0  0  0
 37 41  1  0  0  0  0
 38 33  1  0  0  0  0
 39 34  1  0  0  0  0
 40 35  1  0  0  0  0
 42 43  1  6  0  0  0
 42 48  1  0  0  0  0
 42 44  1  0  0  0  0
 44 45  1  0  0  0  0
 44 47  1  0  0  0  0
 46 44  1  0  0  0  0
 48 50  1  0  0  0  0
 48 49  1  0  0  0  0
 51 55  1  0  0  0  0
 51 48  1  0  0  0  0
 52 51  2  0  0  0  0
 53 52  1  0  0  0  0
 53 54  2  0  0  0  0
 54 55  1  0  0  0  0
 55 57  1  0  0  0  0
 56 54  1  0  0  0  0
 57 60  1  0  0  0  0
 57 59  1  0  0  0  0
 58 57  1  0  0  0  0
 61 62  1  0  0  0  0
 61  8  1  0  0  0  0
 63 61  1  0  0  0  0
 64 61  1  0  0  0  0
M  END
>  <MODEL>
28

>  <REMARK>
 VINA RESULT:    -6.860      2.678      4.366
 INTER + INTRA:         -10.063
 INTER:                  -8.799
 INTRA:                  -1.264
 UNBOUND:                -0.395
  Name = 
  8 active torsions:
  status: ('A' for Active; 'I' for Inactive)
    1  A    between atoms: C_1  and  C_2
    2  A    between atoms: C_2  and  C_3
    3  A    between atoms: C_2  and  C_10
    4  A    between atoms: C_3  and  C_4
    5  A    between atoms: N_8  and  C_9
    6  A    between atoms: C_14  and  N_16
    7  A    between atoms: C_21  and  C_28
    8  A    between atoms: C_23  and  C_24
                            x       y       z     vdW  Elec       q    Type
                         _______ _______ _______ _____ _____    ______ ____

>  <TORSDO>
F 8

$$$$
=
 OpenBabel07192307433D

 64 68  0  0  1  0  0  0  0  0999 V2000
    1.9800    9.7960   18.5320 N   0  0  0  0  0  0  0  0  0  0  0  0
    2.9750    9.2110   17.6410 C   0  0  0  0  0  0  0  0  0  0  0  0
    3.0280    7.7790   18.0660 C   0  0  0  0  0  0  0  0  0  0  0  0
    2.1210    7.5660   19.0960 C   0  0  0  0  0  0  0  0  0  0  0  0
    1.9510    6.3330   19.7020 C   0  0  0  0  0  0  0  0  0  0  0  0
    2.7350    5.2610   19.2550 C   0  0  0  0  0  0  0  0  0  0  0  0
    3.6540    5.4740   18.1970 C   0  0  0  0  0  0  0  0  0  0  0  0
    3.8140    6.7350   17.5870 C   0  0  0  0  0  0  0  0  0  0  0  0
    1.4400    8.8310   19.3900 C   0  0  0  0  0  0  0  0  0  0  0  0
    0.5690    8.9090   20.2370 O   0  0  0  0  0  0  0  0  0  0  0  0
    3.9410    9.7000   17.7970 H   0  0  0  0  0  0  0  0  0  0  0  0
    2.6370    9.2940   16.6040 H   0  0  0  0  0  0  0  0  0  0  0  0
    1.2290    6.2230   20.5070 H   0  0  0  0  0  0  0  0  0  0  0  0
    4.2550    4.6350   17.8410 H   0  0  0  0  0  0  0  0  0  0  0  0
    2.5790    3.8970   19.9090 C   0  0  0  0  0  0  0  0  0  0  0  0
    2.0280    3.9880   21.3400 C   0  0  0  0  0  0  0  0  0  0  0  0
    1.7220    2.6020   21.9180 C   0  0  0  0  0  0  0  0  0  0  0  0
    2.6320    1.4980   21.3740 C   0  0  0  0  0  0  0  0  0  0  0  0
    3.9980    2.0350   20.9670 C   0  0  0  0  0  0  0  0  0  0  0  0
    3.8950    3.0940   19.8650 C   0  0  0  0  0  0  0  0  0  0  0  0
    1.8360    3.3320   19.3270 H   0  0  0  0  0  0  0  0  0  0  0  0
    2.7550    4.4860   21.9950 H   0  0  0  0  0  0  0  0  0  0  0  0
    1.1190    4.6010   21.3730 H   0  0  0  0  0  0  0  0  0  0  0  0
    1.8100    2.6510   23.0090 H   0  0  0  0  0  0  0  0  0  0  0  0
    0.6800    2.3330   21.7060 H   0  0  0  0  0  0  0  0  0  0  0  0
    2.7420    0.7110   22.1300 H   0  0  0  0  0  0  0  0  0  0  0  0
    2.1570    1.0270   20.5030 H   0  0  0  0  0  0  0  0  0  0  0  0
    4.4880    2.4730   21.8460 H   0  0  0  0  0  0  0  0  0  0  0  0
    4.6410    1.2140   20.6270 H   0  0  0  0  0  0  0  0  0  0  0  0
    4.7750    3.7450   19.9380 H   0  0  0  0  0  0  0  0  0  0  0  0
    3.9700    2.6070   18.8830 H   0  0  0  0  0  0  0  0  0  0  0  0
    0.0970   13.0330   18.9170 C   0  0  0  0  0  0  0  0  0  0  0  0
    1.0620   13.9350   18.4510 C   0  0  0  0  0  0  0  0  0  0  0  0
    2.3090   13.4830   18.0330 C   0  0  0  0  0  0  0  0  0  0  0  0
    2.6070   12.1190   18.0660 C   0  0  0  0  0  0  0  0  0  0  0  0
    1.6650   11.1820   18.5130 C   0  0  0  0  0  0  0  0  0  0  0  0
    0.4170   11.6630   18.9380 C   0  0  0  0  0  0  0  0  0  0  0  0
    0.8500   15.0020   18.4190 H   0  0  0  0  0  0  0  0  0  0  0  0
    3.0540   14.1930   17.6810 H   0  0  0  0  0  0  0  0  0  0  0  0
    3.5940   11.8200   17.7250 H   0  0  0  0  0  0  0  0  0  0  0  0
   -0.3370   10.9710   19.3010 H   0  0  0  0  0  0  0  0  0  0  0  0
   -1.2620   13.5640   19.3530 C   0  0  2  0  0  0  0  0  0  0  0  0
   -1.7010   14.0350   18.4590 H   0  0  0  0  0  0  0  0  0  0  0  0
   -1.1940   14.6980   20.3870 C   0  0  0  0  0  0  0  0  0  0  0  0
   -1.9450   15.4680   20.1700 H   0  0  0  0  0  0  0  0  0  0  0  0
   -1.3950   14.3100   21.3910 H   0  0  0  0  0  0  0  0  0  0  0  0
   -0.2160   15.1900   20.4120 H   0  0  0  0  0  0  0  0  0  0  0  0
   -2.2370   12.4330   19.7500 C   0  0  0  0  0  0  0  0  0  0  0  0
   -1.7970   11.4500   19.5400 H   0  0  0  0  0  0  0  0  0  0  0  0
   -3.1190   12.5010   19.0960 H   0  0  0  0  0  0  0  0  0  0  0  0
   -2.7340   12.4910   21.1570 C   0  0  0  0  0  0  0  0  0  0  0  0
   -3.9030   12.9830   21.5290 N   0  0  0  0  0  0  0  0  0  0  0  0
   -4.0150   12.8570   22.8920 N   0  0  0  0  0  0  0  0  0  0  0  0
   -2.9160   12.2850   23.3250 C   0  0  0  0  0  0  0  0  0  0  0  0
   -2.0940   12.0130   22.2710 N   0  0  0  0  0  0  0  0  0  0  0  0
   -2.6830   12.0460   24.3530 H   0  0  0  0  0  0  0  0  0  0  0  0
   -0.8320   11.3320   22.3820 C   0  0  0  0  0  0  0  0  0  0  0  0
   -0.0820   11.7940   21.7420 H   0  0  0  0  0  0  0  0  0  0  0  0
   -0.9770   10.2930   22.0730 H   0  0  0  0  0  0  0  0  0  0  0  0
   -0.5070   11.3690   23.4230 H   0  0  0  0  0  0  0  0  0  0  0  0
    4.7830    6.9490   16.4570 C   0  0  0  0  0  0  0  0  0  0  0  0
    5.8330    7.7340   16.8230 F   0  0  0  0  0  0  0  0  0  0  0  0
    5.3320    5.7820   16.0160 F   0  0  0  0  0  0  0  0  0  0  0  0
    4.2330    7.5420   15.3630 F   0  0  0  0  0  0  0  0  0  0  0  0
  1  9  1  0  0  0  0
  2 11  1  0  0  0  0
  2  3  1  0  0  0  0
  2  1  1  0  0  0  0
  3  4  1  0  0  0  0
  4  9  1  0  0  0  0
  4  5  2  0  0  0  0
  5 13  1  0  0  0  0
  6  5  1  0  0  0  0
  6 15  1  0  0  0  0
  7  6  2  0  0  0  0
  8  3  2  0  0  0  0
  8  7  1  0  0  0  0
  9 10  2  0  0  0  0
 12  2  1  0  0  0  0
 14  7  1  0  0  0  0
 15 16  1  0  0  0  0
 16 23  1  0  0  0  0
 16 17  1  0  0  0  0
 16 22  1  0  0  0  0
 17 24  1  0  0  0  0
 18 17  1  0  0  0  0
 18 26  1  0  0  0  0
 19 18  1  0  0  0  0
 19 28  1  0  0  0  0
 20 15  1  0  0  0  0
 20 30  1  0  0  0  0
 20 19  1  0  0  0  0
 21 15  1  0  0  0  0
 25 17  1  0  0  0  0
 27 18  1  0  0  0  0
 29 19  1  0  0  0  0
 31 20  1  0  0  0  0
 32 37  1  0  0  0  0
 32 42  1  0  0  0  0
 33 32  2  0  0  0  0
 34 35  2  0  0  0  0
 34 33  1  0  0  0  0
 35 36  1  0  0  0  0
 36  1  1  0  0  0  0
 36 37  2  0  0  0  0
 37 41  1  0  0  0  0
 38 33  1  0  0  0  0
 39 34  1  0  0  0  0
 40 35  1  0  0  0  0
 42 43  1  6  0  0  0
 42 48  1  0  0  0  0
 42 44  1  0  0  0  0
 44 47  1  0  0  0  0
 44 46  1  0  0  0  0
 45 44  1  0  0  0  0
 48 51  1  0  0  0  0
 49 48  1  0  0  0  0
 50 48  1  0  0  0  0
 51 52  2  0  0  0  0
 51 55  1  0  0  0  0
 52 53  1  0  0  0  0
 53 54  2  0  0  0  0
 54 56  1  0  0  0  0
 55 57  1  0  0  0  0
 55 54  1  0  0  0  0
 57 60  1  0  0  0  0
 58 57  1  0  0  0  0
 59 57  1  0  0  0  0
 61 62  1  0  0  0  0
 61  8  1  0  0  0  0
 63 61  1  0  0  0  0
 64 61  1  0  0  0  0
M  END
>  <MODEL>
29

>  <REMARK>
 VINA RESULT:    -6.859      3.023      4.854
 INTER + INTRA:         -10.061
 INTER:                  -8.793
 INTRA:                  -1.269
 UNBOUND:                -0.395
  Name = 
  8 active torsions:
  status: ('A' for Active; 'I' for Inactive)
    1  A    between atoms: C_1  and  C_2
    2  A    between atoms: C_2  and  C_3
    3  A    between atoms: C_2  and  C_10
    4  A    between atoms: C_3  and  C_4
    5  A    between atoms: N_8  and  C_9
    6  A    between atoms: C_14  and  N_16
    7  A    between atoms: C_21  and  C_28
    8  A    between atoms: C_23  and  C_24
                            x       y       z     vdW  Elec       q    Type
                         _______ _______ _______ _____ _____    ______ ____

>  <TORSDO>
F 8

$$$$
=
 OpenBabel07192307433D

 64 68  0  0  1  0  0  0  0  0999 V2000
    2.6560    6.9820   18.5200 N   0  0  0  0  0  0  0  0  0  0  0  0
    2.0000    7.0960   19.8170 C   0  0  0  0  0  0  0  0  0  0  0  0
    1.4560    8.4880   19.8140 C   0  0  0  0  0  0  0  0  0  0  0  0
    1.7590    9.1030   18.6050 C   0  0  0  0  0  0  0  0  0  0  0  0
    1.3900   10.4040   18.3130 C   0  0  0  0  0  0  0  0  0  0  0  0
    0.6860   11.1280   19.2850 C   0  0  0  0  0  0  0  0  0  0  0  0
    0.3670   10.4990   20.5150 C   0  0  0  0  0  0  0  0  0  0  0  0
    0.7470    9.1710   20.7970 C   0  0  0  0  0  0  0  0  0  0  0  0
    2.5040    8.1540   17.7710 C   0  0  0  0  0  0  0  0  0  0  0  0
    2.8640    8.4370   16.6430 O   0  0  0  0  0  0  0  0  0  0  0  0
    2.7380    6.9680   20.6150 H   0  0  0  0  0  0  0  0  0  0  0  0
    1.1900    6.3650   19.8870 H   0  0  0  0  0  0  0  0  0  0  0  0
    1.6560   10.8370   17.3520 H   0  0  0  0  0  0  0  0  0  0  0  0
   -0.1920   11.0590   21.2660 H   0  0  0  0  0  0  0  0  0  0  0  0
    0.2770   12.5630   18.9970 C   0  0  0  0  0  0  0  0  0  0  0  0
    1.3820   13.5730   19.3410 C   0  0  0  0  0  0  0  0  0  0  0  0
    1.0130   14.9910   18.8890 C   0  0  0  0  0  0  0  0  0  0  0  0
   -0.4920   15.2670   18.9060 C   0  0  0  0  0  0  0  0  0  0  0  0
   -1.2130   14.4270   19.9520 C   0  0  0  0  0  0  0  0  0  0  0  0
   -1.0500   12.9250   19.6970 C   0  0  0  0  0  0  0  0  0  0  0  0
    0.1040   12.6500   17.9150 H   0  0  0  0  0  0  0  0  0  0  0  0
    1.5590   13.5880   20.4240 H   0  0  0  0  0  0  0  0  0  0  0  0
    2.3340   13.2850   18.8810 H   0  0  0  0  0  0  0  0  0  0  0  0
    1.5290   15.7090   19.5370 H   0  0  0  0  0  0  0  0  0  0  0  0
    1.3910   15.1670   17.8750 H   0  0  0  0  0  0  0  0  0  0  0  0
   -0.6650   16.3340   19.0890 H   0  0  0  0  0  0  0  0  0  0  0  0
   -0.9160   15.0490   17.9160 H   0  0  0  0  0  0  0  0  0  0  0  0
   -0.8150   14.6700   20.9450 H   0  0  0  0  0  0  0  0  0  0  0  0
   -2.2790   14.6810   19.9720 H   0  0  0  0  0  0  0  0  0  0  0  0
   -1.1630   12.4040   20.6560 H   0  0  0  0  0  0  0  0  0  0  0  0
   -1.8790   12.5690   19.0700 H   0  0  0  0  0  0  0  0  0  0  0  0
    4.9270    4.6580   16.6180 C   0  0  0  0  0  0  0  0  0  0  0  0
    4.7770    3.4910   17.3780 C   0  0  0  0  0  0  0  0  0  0  0  0
    3.9540    3.4790   18.5000 C   0  0  0  0  0  0  0  0  0  0  0  0
    3.2620    4.6330   18.8730 C   0  0  0  0  0  0  0  0  0  0  0  0
    3.3750    5.8180   18.1320 C   0  0  0  0  0  0  0  0  0  0  0  0
    4.2170    5.8080   17.0090 C   0  0  0  0  0  0  0  0  0  0  0  0
    5.3090    2.5820   17.1050 H   0  0  0  0  0  0  0  0  0  0  0  0
    3.8510    2.5700   19.0880 H   0  0  0  0  0  0  0  0  0  0  0  0
    2.6310    4.5680   19.7550 H   0  0  0  0  0  0  0  0  0  0  0  0
    4.3390    6.7080   16.4140 H   0  0  0  0  0  0  0  0  0  0  0  0
    5.8250    4.6280   15.3880 C   0  0  2  0  0  0  0  0  0  0  0  0
    5.3430    5.2880   14.6480 H   0  0  0  0  0  0  0  0  0  0  0  0
    5.8940    3.2610   14.6910 C   0  0  0  0  0  0  0  0  0  0  0  0
    6.6410    2.6170   15.1700 H   0  0  0  0  0  0  0  0  0  0  0  0
    4.9250    2.7520   14.7560 H   0  0  0  0  0  0  0  0  0  0  0  0
    6.1570    3.3380   13.6310 H   0  0  0  0  0  0  0  0  0  0  0  0
    7.2140    5.2480   15.6570 C   0  0  0  0  0  0  0  0  0  0  0  0
    7.3230    6.2020   15.1240 H   0  0  0  0  0  0  0  0  0  0  0  0
    7.9720    4.5830   15.2180 H   0  0  0  0  0  0  0  0  0  0  0  0
    7.5630    5.4150   17.0990 C   0  0  0  0  0  0  0  0  0  0  0  0
    7.9570    4.4410   17.9010 N   0  0  0  0  0  0  0  0  0  0  0  0
    8.1980    4.9720   19.1450 N   0  0  0  0  0  0  0  0  0  0  0  0
    7.9540    6.2600   19.0760 C   0  0  0  0  0  0  0  0  0  0  0  0
    7.5780    6.5890   17.8070 N   0  0  0  0  0  0  0  0  0  0  0  0
    8.0420    6.9700   19.8860 H   0  0  0  0  0  0  0  0  0  0  0  0
    7.2960    7.9290   17.3670 C   0  0  0  0  0  0  0  0  0  0  0  0
    7.3670    8.0060   16.2820 H   0  0  0  0  0  0  0  0  0  0  0  0
    8.0300    8.5990   17.8220 H   0  0  0  0  0  0  0  0  0  0  0  0
    6.2900    8.1980   17.6940 H   0  0  0  0  0  0  0  0  0  0  0  0
    0.3940    8.5080   22.1000 C   0  0  0  0  0  0  0  0  0  0  0  0
    1.0620    7.3350   22.2760 F   0  0  0  0  0  0  0  0  0  0  0  0
    0.7130    9.2790   23.1780 F   0  0  0  0  0  0  0  0  0  0  0  0
   -0.9270    8.2110   22.2280 F   0  0  0  0  0  0  0  0  0  0  0  0
  1  2  1  0  0  0  0
  2 12  1  0  0  0  0
  2 11  1  0  0  0  0
  3  2  1  0  0  0  0
  3  8  1  0  0  0  0
  4  3  2  0  0  0  0
  5  4  1  0  0  0  0
  5  6  2  0  0  0  0
  6  7  1  0  0  0  0
  7  8  2  0  0  0  0
  7 14  1  0  0  0  0
  8 61  1  0  0  0  0
  9  1  1  0  0  0  0
  9  4  1  0  0  0  0
 10  9  2  0  0  0  0
 13  5  1  0  0  0  0
 15  6  1  0  0  0  0
 15 16  1  0  0  0  0
 15 20  1  0  0  0  0
 16 22  1  0  0  0  0
 17 18  1  0  0  0  0
 17 16  1  0  0  0  0
 17 24  1  0  0  0  0
 18 26  1  0  0  0  0
 18 19  1  0  0  0  0
 19 29  1  0  0  0  0
 19 28  1  0  0  0  0
 20 19  1  0  0  0  0
 20 30  1  0  0  0  0
 21 15  1  0  0  0  0
 23 16  1  0  0  0  0
 25 17  1  0  0  0  0
 27 18  1  0  0  0  0
 31 20  1  0  0  0  0
 32 37  2  0  0  0  0
 32 33  1  0  0  0  0
 33 34  2  0  0  0  0
 34 35  1  0  0  0  0
 34 39  1  0  0  0  0
 35 40  1  0  0  0  0
 36  1  1  0  0  0  0
 36 35  2  0  0  0  0
 37 36  1  0  0  0  0
 38 33  1  0  0  0  0
 41 37  1  0  0  0  0
 42 43  1  6  0  0  0
 42 48  1  0  0  0  0
 42 32  1  0  0  0  0
 44 46  1  0  0  0  0
 44 45  1  0  0  0  0
 44 42  1  0  0  0  0
 47 44  1  0  0  0  0
 48 51  1  0  0  0  0
 49 48  1  0  0  0  0
 50 48  1  0  0  0  0
 51 55  1  0  0  0  0
 51 52  2  0  0  0  0
 52 53  1  0  0  0  0
 54 53  2  0  0  0  0
 54 56  1  0  0  0  0
 55 54  1  0  0  0  0
 57 60  1  0  0  0  0
 57 55  1  0  0  0  0
 57 59  1  0  0  0  0
 58 57  1  0  0  0  0
 61 64  1  0  0  0  0
 61 62  1  0  0  0  0
 61 63  1  0  0  0  0
M  END
>  <MODEL>
30

>  <REMARK>
 VINA RESULT:    -6.752      3.094      9.211
 INTER + INTRA:          -9.910
 INTER:                  -9.472
 INTRA:                  -0.437
 UNBOUND:                -0.395
  Name = 
  8 active torsions:
  status: ('A' for Active; 'I' for Inactive)
    1  A    between atoms: C_1  and  C_2
    2  A    between atoms: C_2  and  C_3
    3  A    between atoms: C_2  and  C_10
    4  A    between atoms: C_3  and  C_4
    5  A    between atoms: N_8  and  C_9
    6  A    between atoms: C_14  and  N_16
    7  A    between atoms: C_21  and  C_28
    8  A    between atoms: C_23  and  C_24
                            x       y       z     vdW  Elec       q    Type
                         _______ _______ _______ _____ _____    ______ ____

>  <TORSDO>
F 8

$$$$
