=
 OpenBabel07192307433D

 40 43  0  0  0  0  0  0  0  0999 V2000
    1.3670    9.2860   18.2550 N   0  0  0  0  0  0  0  0  0  0  0  0
    1.7750    8.3490   19.1960 C   0  0  0  0  0  0  0  0  0  0  0  0
    1.5730    8.4510   20.4030 O   0  0  0  0  0  0  0  0  0  0  0  0
    1.6250    9.1130   17.2950 H   0  0  0  0  0  0  0  0  0  0  0  0
    2.4920    7.2100   18.6320 C   0  0  0  0  0  0  0  0  0  0  0  0
    3.5340    7.0850   17.7120 C   0  0  0  0  0  0  0  0  0  0  0  0
    3.7810    5.7040   17.5780 C   0  0  0  0  0  0  0  0  0  0  0  0
    4.6770    4.8870   16.8320 C   0  0  0  0  0  0  0  0  0  0  0  0
    4.6120    3.5450   16.9690 C   0  0  0  0  0  0  0  0  0  0  0  0
    3.6140    2.9030   17.8930 C   0  0  0  0  0  0  0  0  0  0  0  0
    3.5780    1.6830   17.9990 O   0  0  0  0  0  0  0  0  0  0  0  0
    2.7730    3.7360   18.5910 N   0  0  0  0  0  0  0  0  0  0  0  0
    2.8920    5.0760   18.4040 C   0  0  0  0  0  0  0  0  0  0  0  0
    2.1040    5.9510   19.0510 O   0  0  0  0  0  0  0  0  0  0  0  0
    4.0440    7.8920   17.2040 H   0  0  0  0  0  0  0  0  0  0  0  0
    5.2630    2.8620   16.4340 H   0  0  0  0  0  0  0  0  0  0  0  0
    2.0820    3.3570   19.2250 H   0  0  0  0  0  0  0  0  0  0  0  0
    5.6420    5.5890   15.9350 C   0  0  0  0  0  0  0  0  0  0  0  0
    5.0270    6.4290   15.0630 F   0  0  0  0  0  0  0  0  0  0  0  0
    6.5350    6.3380   16.6330 F   0  0  0  0  0  0  0  0  0  0  0  0
    6.3670    4.7150   15.1880 F   0  0  0  0  0  0  0  0  0  0  0  0
   -1.5460   11.5780   18.3330 C   0  0  0  0  0  0  0  0  0  0  0  0
   -0.9840   12.7350   18.8810 C   0  0  0  0  0  0  0  0  0  0  0  0
    0.3730   12.7690   19.2050 C   0  0  0  0  0  0  0  0  0  0  0  0
    1.1790   11.6470   18.9990 C   0  0  0  0  0  0  0  0  0  0  0  0
    0.6360   10.4730   18.4770 C   0  0  0  0  0  0  0  0  0  0  0  0
   -0.7280   10.4500   18.1530 C   0  0  0  0  0  0  0  0  0  0  0  0
   -1.5890   13.6130   19.0890 H   0  0  0  0  0  0  0  0  0  0  0  0
    0.8080   13.6700   19.6350 H   0  0  0  0  0  0  0  0  0  0  0  0
    2.2260   11.7230   19.2750 H   0  0  0  0  0  0  0  0  0  0  0  0
   -1.1780    9.5420   17.7500 H   0  0  0  0  0  0  0  0  0  0  0  0
   -3.4930   11.2070   16.7450 N   0  0  0  0  0  0  0  0  0  0  0  0
   -4.8350   11.2120   16.8090 N   0  0  0  0  0  0  0  0  0  0  0  0
   -5.1200   11.4620   18.0770 N   0  0  0  0  0  0  0  0  0  0  0  0
   -3.9760   11.6180   18.8150 N   0  0  0  0  0  0  0  0  0  0  0  0
   -2.9600   11.4900   17.9780 C   0  0  0  0  0  0  0  0  0  0  0  0
   -2.8410   10.8520   15.5160 C   0  0  0  0  0  0  0  0  0  0  0  0
   -1.9650   11.4900   15.3730 H   0  0  0  0  0  0  0  0  0  0  0  0
   -3.5290   11.0010   14.6800 H   0  0  0  0  0  0  0  0  0  0  0  0
   -2.5310    9.8060   15.5800 H   0  0  0  0  0  0  0  0  0  0  0  0
  1 26  1  0  0  0  0
  1  2  1  0  0  0  0
  2  3  2  0  0  0  0
  4  1  1  0  0  0  0
  5 14  1  0  0  0  0
  5  2  1  0  0  0  0
  6  5  2  0  0  0  0
  7  6  1  0  0  0  0
  7 13  2  0  0  0  0
  8  9  2  0  0  0  0
  8  7  1  0  0  0  0
  9 10  1  0  0  0  0
 10 11  2  0  0  0  0
 10 12  1  0  0  0  0
 12 17  1  0  0  0  0
 13 12  1  0  0  0  0
 13 14  1  0  0  0  0
 15  6  1  0  0  0  0
 16  9  1  0  0  0  0
 18 20  1  0  0  0  0
 18  8  1  0  0  0  0
 19 18  1  0  0  0  0
 21 18  1  0  0  0  0
 22 23  1  0  0  0  0
 23 28  1  0  0  0  0
 23 24  2  0  0  0  0
 24 29  1  0  0  0  0
 25 24  1  0  0  0  0
 25 30  1  0  0  0  0
 26 25  2  0  0  0  0
 27 22  2  0  0  0  0
 27 26  1  0  0  0  0
 31 27  1  0  0  0  0
 32 33  1  0  0  0  0
 32 36  1  0  0  0  0
 33 34  2  0  0  0  0
 34 35  1  0  0  0  0
 36 22  1  0  0  0  0
 36 35  2  0  0  0  0
 37 40  1  0  0  0  0
 37 32  1  0  0  0  0
 38 37  1  0  0  0  0
 39 37  1  0  0  0  0
M  END
>  <MODEL>
1

>  <REMARK>
 VINA RESULT:    -8.878      0.000      0.000
 INTER + INTRA:         -11.699
 INTER:                 -11.133
 INTRA:                  -0.566
 UNBOUND:                -0.486
  Name = 
  5 active torsions:
  status: ('A' for Active; 'I' for Inactive)
    1  A    between atoms: C_1  and  N_2
    2  A    between atoms: C_6  and  C_7
    3  A    between atoms: C_11  and  N_12
    4  A    between atoms: C_13  and  C_15
    5  A    between atoms: C_18  and  C_19
                            x       y       z     vdW  Elec       q    Type
                         _______ _______ _______ _____ _____    ______ ____

>  <TORSDO>
F 5

$$$$
=
 OpenBabel07192307433D

 40 43  0  0  0  0  0  0  0  0999 V2000
    1.4270    9.2020   18.1310 N   0  0  0  0  0  0  0  0  0  0  0  0
    1.8350    8.2540   19.0610 C   0  0  0  0  0  0  0  0  0  0  0  0
    1.6270    8.3370   20.2680 O   0  0  0  0  0  0  0  0  0  0  0  0
    1.6900    9.0440   17.1700 H   0  0  0  0  0  0  0  0  0  0  0  0
    2.5590    7.1260   18.4830 C   0  0  0  0  0  0  0  0  0  0  0  0
    2.4220    5.7400   18.5780 C   0  0  0  0  0  0  0  0  0  0  0  0
    3.4410    5.1850   17.7780 C   0  0  0  0  0  0  0  0  0  0  0  0
    3.8740    3.8750   17.4280 C   0  0  0  0  0  0  0  0  0  0  0  0
    4.9340    3.7320   16.6030 C   0  0  0  0  0  0  0  0  0  0  0  0
    5.6590    4.9290   16.0510 C   0  0  0  0  0  0  0  0  0  0  0  0
    6.6170    4.7700   15.3040 O   0  0  0  0  0  0  0  0  0  0  0  0
    5.2000    6.1710   16.4190 N   0  0  0  0  0  0  0  0  0  0  0  0
    4.1300    6.2410   17.2530 C   0  0  0  0  0  0  0  0  0  0  0  0
    3.6270    7.4190   17.6560 O   0  0  0  0  0  0  0  0  0  0  0  0
    1.6810    5.2050   19.1570 H   0  0  0  0  0  0  0  0  0  0  0  0
    5.3190    2.7670   16.2930 H   0  0  0  0  0  0  0  0  0  0  0  0
    5.6520    7.0080   16.0780 H   0  0  0  0  0  0  0  0  0  0  0  0
    3.1100    2.7330   18.0100 C   0  0  0  0  0  0  0  0  0  0  0  0
    3.1430    2.7210   19.3670 F   0  0  0  0  0  0  0  0  0  0  0  0
    1.7990    2.7620   17.6530 F   0  0  0  0  0  0  0  0  0  0  0  0
    3.5990    1.5330   17.5990 F   0  0  0  0  0  0  0  0  0  0  0  0
   -1.4960   11.4810   18.2300 C   0  0  0  0  0  0  0  0  0  0  0  0
   -0.9410   12.6320   18.7960 C   0  0  0  0  0  0  0  0  0  0  0  0
    0.4140   12.6680   19.1270 C   0  0  0  0  0  0  0  0  0  0  0  0
    1.2260   11.5510   18.9070 C   0  0  0  0  0  0  0  0  0  0  0  0
    0.6910   10.3830   18.3670 C   0  0  0  0  0  0  0  0  0  0  0  0
   -0.6720   10.3590   18.0370 C   0  0  0  0  0  0  0  0  0  0  0  0
   -1.5500   13.5050   19.0150 H   0  0  0  0  0  0  0  0  0  0  0  0
    0.8440   13.5640   19.5710 H   0  0  0  0  0  0  0  0  0  0  0  0
    2.2720   11.6280   19.1900 H   0  0  0  0  0  0  0  0  0  0  0  0
   -1.1170    9.4560   17.6190 H   0  0  0  0  0  0  0  0  0  0  0  0
   -3.4350   11.1160   16.6300 N   0  0  0  0  0  0  0  0  0  0  0  0
   -4.7770   11.1180   16.6880 N   0  0  0  0  0  0  0  0  0  0  0  0
   -5.0690   11.3590   17.9560 N   0  0  0  0  0  0  0  0  0  0  0  0
   -3.9280   11.5120   18.7010 N   0  0  0  0  0  0  0  0  0  0  0  0
   -2.9080   11.3920   17.8680 C   0  0  0  0  0  0  0  0  0  0  0  0
   -2.7760   10.7710   15.4020 C   0  0  0  0  0  0  0  0  0  0  0  0
   -1.8730   10.1970   15.6240 H   0  0  0  0  0  0  0  0  0  0  0  0
   -2.4960   11.6820   14.8680 H   0  0  0  0  0  0  0  0  0  0  0  0
   -3.4620   10.1670   14.8020 H   0  0  0  0  0  0  0  0  0  0  0  0
  1 26  1  0  0  0  0
  1  2  1  0  0  0  0
  2  3  2  0  0  0  0
  4  1  1  0  0  0  0
  5  6  2  0  0  0  0
  5  2  1  0  0  0  0
  6 15  1  0  0  0  0
  7  6  1  0  0  0  0
  8  7  1  0  0  0  0
  8 18  1  0  0  0  0
  9  8  2  0  0  0  0
 10 12  1  0  0  0  0
 10  9  1  0  0  0  0
 11 10  2  0  0  0  0
 12 13  1  0  0  0  0
 13 14  1  0  0  0  0
 13  7  2  0  0  0  0
 14  5  1  0  0  0  0
 16  9  1  0  0  0  0
 17 12  1  0  0  0  0
 18 19  1  0  0  0  0
 20 18  1  0  0  0  0
 21 18  1  0  0  0  0
 22 23  1  0  0  0  0
 23 28  1  0  0  0  0
 23 24  2  0  0  0  0
 24 29  1  0  0  0  0
 25 24  1  0  0  0  0
 25 30  1  0  0  0  0
 26 25  2  0  0  0  0
 27 22  2  0  0  0  0
 27 26  1  0  0  0  0
 31 27  1  0  0  0  0
 32 33  1  0  0  0  0
 32 36  1  0  0  0  0
 33 34  2  0  0  0  0
 34 35  1  0  0  0  0
 36 22  1  0  0  0  0
 36 35  2  0  0  0  0
 37 38  1  0  0  0  0
 37 32  1  0  0  0  0
 39 37  1  0  0  0  0
 40 37  1  0  0  0  0
M  END
>  <MODEL>
2

>  <REMARK>
 VINA RESULT:    -8.844      2.201      2.535
 INTER + INTRA:         -11.657
 INTER:                 -11.086
 INTRA:                  -0.571
 UNBOUND:                -0.486
  Name = 
  5 active torsions:
  status: ('A' for Active; 'I' for Inactive)
    1  A    between atoms: C_1  and  N_2
    2  A    between atoms: C_6  and  C_7
    3  A    between atoms: C_11  and  N_12
    4  A    between atoms: C_13  and  C_15
    5  A    between atoms: C_18  and  C_19
                            x       y       z     vdW  Elec       q    Type
                         _______ _______ _______ _____ _____    ______ ____

>  <TORSDO>
F 5

$$$$
=
 OpenBabel07192307433D

 40 43  0  0  0  0  0  0  0  0999 V2000
    1.3820    9.2670   18.3060 N   0  0  0  0  0  0  0  0  0  0  0  0
    1.7750    8.3280   19.2510 C   0  0  0  0  0  0  0  0  0  0  0  0
    1.5650    8.4340   20.4560 O   0  0  0  0  0  0  0  0  0  0  0  0
    1.6450    9.0900   17.3480 H   0  0  0  0  0  0  0  0  0  0  0  0
    2.4870    7.1820   18.6940 C   0  0  0  0  0  0  0  0  0  0  0  0
    3.5180    7.0460   17.7640 C   0  0  0  0  0  0  0  0  0  0  0  0
    3.7650    5.6630   17.6450 C   0  0  0  0  0  0  0  0  0  0  0  0
    4.6530    4.8380   16.9000 C   0  0  0  0  0  0  0  0  0  0  0  0
    4.5910    3.4970   17.0550 C   0  0  0  0  0  0  0  0  0  0  0  0
    3.6040    2.8670   17.9990 C   0  0  0  0  0  0  0  0  0  0  0  0
    3.5700    1.6480   18.1210 O   0  0  0  0  0  0  0  0  0  0  0  0
    2.7700    3.7080   18.6950 N   0  0  0  0  0  0  0  0  0  0  0  0
    2.8860    5.0460   18.4900 C   0  0  0  0  0  0  0  0  0  0  0  0
    2.1050    5.9280   19.1330 O   0  0  0  0  0  0  0  0  0  0  0  0
    4.0220    7.8470   17.2400 H   0  0  0  0  0  0  0  0  0  0  0  0
    5.2360    2.8070   16.5220 H   0  0  0  0  0  0  0  0  0  0  0  0
    2.0870    3.3370   19.3410 H   0  0  0  0  0  0  0  0  0  0  0  0
    5.6080    5.5280   15.9830 C   0  0  0  0  0  0  0  0  0  0  0  0
    4.9870    6.3930   15.1400 F   0  0  0  0  0  0  0  0  0  0  0  0
    6.5370    6.2480   16.6630 F   0  0  0  0  0  0  0  0  0  0  0  0
    6.2900    4.6480   15.2040 F   0  0  0  0  0  0  0  0  0  0  0  0
   -1.5100   11.5860   18.3500 C   0  0  0  0  0  0  0  0  0  0  0  0
   -0.9450   12.7370   18.9080 C   0  0  0  0  0  0  0  0  0  0  0  0
    0.4080   12.7580   19.2510 C   0  0  0  0  0  0  0  0  0  0  0  0
    1.2060   11.6280   19.0520 C   0  0  0  0  0  0  0  0  0  0  0  0
    0.6600   10.4610   18.5200 C   0  0  0  0  0  0  0  0  0  0  0  0
   -0.7000   10.4510   18.1780 C   0  0  0  0  0  0  0  0  0  0  0  0
   -1.5440   13.6200   19.1100 H   0  0  0  0  0  0  0  0  0  0  0  0
    0.8460   13.6530   19.6880 H   0  0  0  0  0  0  0  0  0  0  0  0
    2.2500   11.6930   19.3430 H   0  0  0  0  0  0  0  0  0  0  0  0
   -1.1530    9.5490   17.7670 H   0  0  0  0  0  0  0  0  0  0  0  0
   -4.0030   11.8840   18.7340 N   0  0  0  0  0  0  0  0  0  0  0  0
   -5.1400   11.6720   18.0500 N   0  0  0  0  0  0  0  0  0  0  0  0
   -4.7540   11.2080   16.8720 N   0  0  0  0  0  0  0  0  0  0  0  0
   -3.3880   11.1210   16.8030 N   0  0  0  0  0  0  0  0  0  0  0  0
   -2.9200   11.5130   17.9760 C   0  0  0  0  0  0  0  0  0  0  0  0
   -4.0570   12.4990   20.0300 C   0  0  0  0  0  0  0  0  0  0  0  0
   -5.0960   12.5420   20.3680 H   0  0  0  0  0  0  0  0  0  0  0  0
   -3.6610   13.5160   19.9690 H   0  0  0  0  0  0  0  0  0  0  0  0
   -3.4660   11.8950   20.7220 H   0  0  0  0  0  0  0  0  0  0  0  0
  1 26  1  0  0  0  0
  1  2  1  0  0  0  0
  2  3  2  0  0  0  0
  4  1  1  0  0  0  0
  5 14  1  0  0  0  0
  5  2  1  0  0  0  0
  6  5  2  0  0  0  0
  7  6  1  0  0  0  0
  7 13  2  0  0  0  0
  8  9  2  0  0  0  0
  8  7  1  0  0  0  0
  9 10  1  0  0  0  0
 10 11  2  0  0  0  0
 10 12  1  0  0  0  0
 12 17  1  0  0  0  0
 13 12  1  0  0  0  0
 13 14  1  0  0  0  0
 15  6  1  0  0  0  0
 16  9  1  0  0  0  0
 18 20  1  0  0  0  0
 18  8  1  0  0  0  0
 19 18  1  0  0  0  0
 21 18  1  0  0  0  0
 22 23  1  0  0  0  0
 23 28  1  0  0  0  0
 23 24  2  0  0  0  0
 24 29  1  0  0  0  0
 25 24  1  0  0  0  0
 25 30  1  0  0  0  0
 26 25  2  0  0  0  0
 27 22  2  0  0  0  0
 27 26  1  0  0  0  0
 31 27  1  0  0  0  0
 32 37  1  0  0  0  0
 33 32  1  0  0  0  0
 34 33  2  0  0  0  0
 35 34  1  0  0  0  0
 35 36  2  0  0  0  0
 36 22  1  0  0  0  0
 36 32  1  0  0  0  0
 37 38  1  0  0  0  0
 37 40  1  0  0  0  0
 39 37  1  0  0  0  0
M  END
>  <MODEL>
3

>  <REMARK>
 VINA RESULT:    -8.563      0.484      1.138
 INTER + INTRA:         -11.301
 INTER:                 -10.824
 INTRA:                  -0.478
 UNBOUND:                -0.486
  Name = 
  5 active torsions:
  status: ('A' for Active; 'I' for Inactive)
    1  A    between atoms: C_1  and  N_2
    2  A    between atoms: C_6  and  C_7
    3  A    between atoms: C_11  and  N_12
    4  A    between atoms: C_13  and  C_15
    5  A    between atoms: C_18  and  C_19
                            x       y       z     vdW  Elec       q    Type
                         _______ _______ _______ _____ _____    ______ ____

>  <TORSDO>
F 5

$$$$
=
 OpenBabel07192307433D

 40 43  0  0  0  0  0  0  0  0999 V2000
    1.2880    9.1920   18.6150 N   0  0  0  0  0  0  0  0  0  0  0  0
    1.5810    8.4260   19.7360 C   0  0  0  0  0  0  0  0  0  0  0  0
    1.3460    8.7730   20.8890 O   0  0  0  0  0  0  0  0  0  0  0  0
    1.5640    8.8190   17.7190 H   0  0  0  0  0  0  0  0  0  0  0  0
    2.2180    7.1480   19.4340 C   0  0  0  0  0  0  0  0  0  0  0  0
    2.2430    5.9070   20.0730 C   0  0  0  0  0  0  0  0  0  0  0  0
    3.0460    5.0670   19.2760 C   0  0  0  0  0  0  0  0  0  0  0  0
    3.4850    3.7140   19.3270 C   0  0  0  0  0  0  0  0  0  0  0  0
    4.2810    3.2440   18.3420 C   0  0  0  0  0  0  0  0  0  0  0  0
    4.7080    4.1220   17.1990 C   0  0  0  0  0  0  0  0  0  0  0  0
    5.4300    3.6690   16.3180 O   0  0  0  0  0  0  0  0  0  0  0  0
    4.2560    5.4200   17.1960 N   0  0  0  0  0  0  0  0  0  0  0  0
    3.4590    5.8270   18.2180 C   0  0  0  0  0  0  0  0  0  0  0  0
    2.9800    7.0800   18.2830 O   0  0  0  0  0  0  0  0  0  0  0  0
    1.7460    5.6500   20.9990 H   0  0  0  0  0  0  0  0  0  0  0  0
    4.6530    2.2250   18.3150 H   0  0  0  0  0  0  0  0  0  0  0  0
    4.5140    6.0530   16.4520 H   0  0  0  0  0  0  0  0  0  0  0  0
    3.0240    2.8980   20.4880 C   0  0  0  0  0  0  0  0  0  0  0  0
    1.9630    2.1070   20.1810 F   0  0  0  0  0  0  0  0  0  0  0  0
    4.0010    2.0750   20.9520 F   0  0  0  0  0  0  0  0  0  0  0  0
    2.6400    3.6750   21.5340 F   0  0  0  0  0  0  0  0  0  0  0  0
   -1.4510   11.6630   18.2340 C   0  0  0  0  0  0  0  0  0  0  0  0
   -0.7830   12.8680   18.4760 C   0  0  0  0  0  0  0  0  0  0  0  0
    0.5860   12.8690   18.7440 C   0  0  0  0  0  0  0  0  0  0  0  0
    1.3010   11.6690   18.7850 C   0  0  0  0  0  0  0  0  0  0  0  0
    0.6530   10.4530   18.5710 C   0  0  0  0  0  0  0  0  0  0  0  0
   -0.7230   10.4630   18.3020 C   0  0  0  0  0  0  0  0  0  0  0  0
   -1.3140   13.8160   18.4890 H   0  0  0  0  0  0  0  0  0  0  0  0
    1.1040   13.8080   18.9360 H   0  0  0  0  0  0  0  0  0  0  0  0
    2.3630   11.7240   19.0050 H   0  0  0  0  0  0  0  0  0  0  0  0
   -1.2540    9.5250   18.1380 H   0  0  0  0  0  0  0  0  0  0  0  0
   -3.4850   11.2560   16.7690 N   0  0  0  0  0  0  0  0  0  0  0  0
   -4.8210   11.3210   16.8940 N   0  0  0  0  0  0  0  0  0  0  0  0
   -5.0350   11.6760   18.1510 N   0  0  0  0  0  0  0  0  0  0  0  0
   -3.8510   11.8390   18.8220 N   0  0  0  0  0  0  0  0  0  0  0  0
   -2.8820   11.6080   17.9520 C   0  0  0  0  0  0  0  0  0  0  0  0
   -2.9070   10.7840   15.5420 C   0  0  0  0  0  0  0  0  0  0  0  0
   -1.9030   10.3980   15.7390 H   0  0  0  0  0  0  0  0  0  0  0  0
   -2.8360   11.6090   14.8300 H   0  0  0  0  0  0  0  0  0  0  0  0
   -3.5400    9.9850   15.1480 H   0  0  0  0  0  0  0  0  0  0  0  0
  1  2  1  0  0  0  0
  2  3  2  0  0  0  0
  4  1  1  0  0  0  0
  5  2  1  0  0  0  0
  5  6  2  0  0  0  0
  6 15  1  0  0  0  0
  7  8  1  0  0  0  0
  7  6  1  0  0  0  0
  8 18  1  0  0  0  0
  9  8  2  0  0  0  0
 10  9  1  0  0  0  0
 11 10  2  0  0  0  0
 12 10  1  0  0  0  0
 12 13  1  0  0  0  0
 13 14  1  0  0  0  0
 13  7  2  0  0  0  0
 14  5  1  0  0  0  0
 16  9  1  0  0  0  0
 17 12  1  0  0  0  0
 18 20  1  0  0  0  0
 18 21  1  0  0  0  0
 19 18  1  0  0  0  0
 22 27  2  0  0  0  0
 22 23  1  0  0  0  0
 23 28  1  0  0  0  0
 23 24  2  0  0  0  0
 24 25  1  0  0  0  0
 24 29  1  0  0  0  0
 25 30  1  0  0  0  0
 26  1  1  0  0  0  0
 26 25  2  0  0  0  0
 27 26  1  0  0  0  0
 31 27  1  0  0  0  0
 32 33  1  0  0  0  0
 32 36  1  0  0  0  0
 33 34  2  0  0  0  0
 34 35  1  0  0  0  0
 36 22  1  0  0  0  0
 36 35  2  0  0  0  0
 37 38  1  0  0  0  0
 37 32  1  0  0  0  0
 39 37  1  0  0  0  0
 40 37  1  0  0  0  0
M  END
>  <MODEL>
4

>  <REMARK>
 VINA RESULT:    -8.471      2.484      2.861
 INTER + INTRA:         -11.185
 INTER:                 -10.881
 INTRA:                  -0.304
 UNBOUND:                -0.486
  Name = 
  5 active torsions:
  status: ('A' for Active; 'I' for Inactive)
    1  A    between atoms: C_1  and  N_2
    2  A    between atoms: C_6  and  C_7
    3  A    between atoms: C_11  and  N_12
    4  A    between atoms: C_13  and  C_15
    5  A    between atoms: C_18  and  C_19
                            x       y       z     vdW  Elec       q    Type
                         _______ _______ _______ _____ _____    ______ ____

>  <TORSDO>
F 5

$$$$
=
 OpenBabel07192307433D

 40 43  0  0  0  0  0  0  0  0999 V2000
    2.2300    6.3450   18.9950 N   0  0  0  0  0  0  0  0  0  0  0  0
    2.3640    7.6350   18.4950 C   0  0  0  0  0  0  0  0  0  0  0  0
    3.0000    7.9190   17.4850 O   0  0  0  0  0  0  0  0  0  0  0  0
    1.7150    6.2390   19.8570 H   0  0  0  0  0  0  0  0  0  0  0  0
    1.6840    8.6550   19.2870 C   0  0  0  0  0  0  0  0  0  0  0  0
    1.0510    8.6480   20.5310 C   0  0  0  0  0  0  0  0  0  0  0  0
    0.5840    9.9600   20.7450 C   0  0  0  0  0  0  0  0  0  0  0  0
   -0.1260   10.6440   21.7720 C   0  0  0  0  0  0  0  0  0  0  0  0
   -0.4070   11.9560   21.6160 C   0  0  0  0  0  0  0  0  0  0  0  0
    0.0170   12.7020   20.3800 C   0  0  0  0  0  0  0  0  0  0  0  0
   -0.2490   13.8920   20.2650 O   0  0  0  0  0  0  0  0  0  0  0  0
    0.7010   11.9960   19.4190 N   0  0  0  0  0  0  0  0  0  0  0  0
    0.9490   10.6790   19.6420 C   0  0  0  0  0  0  0  0  0  0  0  0
    1.6090    9.9250   18.7480 O   0  0  0  0  0  0  0  0  0  0  0  0
    0.9410    7.7990   21.1920 H   0  0  0  0  0  0  0  0  0  0  0  0
   -0.9420   12.5410   22.3560 H   0  0  0  0  0  0  0  0  0  0  0  0
    1.0080   12.4480   18.5690 H   0  0  0  0  0  0  0  0  0  0  0  0
   -0.5160    9.8450   22.9710 C   0  0  0  0  0  0  0  0  0  0  0  0
    0.5370    9.5810   23.7870 F   0  0  0  0  0  0  0  0  0  0  0  0
   -1.4450   10.4840   23.7290 F   0  0  0  0  0  0  0  0  0  0  0  0
   -1.0520    8.6440   22.6280 F   0  0  0  0  0  0  0  0  0  0  0  0
    4.3820    4.1400   16.9330 C   0  0  0  0  0  0  0  0  0  0  0  0
    3.9100    2.8710   17.2840 C   0  0  0  0  0  0  0  0  0  0  0  0
    2.8570    2.7410   18.1900 C   0  0  0  0  0  0  0  0  0  0  0  0
    2.2730    3.8740   18.7640 C   0  0  0  0  0  0  0  0  0  0  0  0
    2.7420    5.1480   18.4490 C   0  0  0  0  0  0  0  0  0  0  0  0
    3.8000    5.2680   17.5360 C   0  0  0  0  0  0  0  0  0  0  0  0
    4.3640    1.9690   16.8860 H   0  0  0  0  0  0  0  0  0  0  0  0
    2.4920    1.7530   18.4650 H   0  0  0  0  0  0  0  0  0  0  0  0
    1.4620    3.7180   19.4700 H   0  0  0  0  0  0  0  0  0  0  0  0
    4.1900    6.2520   17.2780 H   0  0  0  0  0  0  0  0  0  0  0  0
    6.7990    4.5810   16.2880 N   0  0  0  0  0  0  0  0  0  0  0  0
    7.5150    4.6920   15.1570 N   0  0  0  0  0  0  0  0  0  0  0  0
    6.6510    4.4770   14.1780 N   0  0  0  0  0  0  0  0  0  0  0  0
    5.3970    4.2340   14.6750 N   0  0  0  0  0  0  0  0  0  0  0  0
    5.4820    4.3290   15.9920 C   0  0  0  0  0  0  0  0  0  0  0  0
    7.4630    4.6480   17.5600 C   0  0  0  0  0  0  0  0  0  0  0  0
    7.0100    3.9250   18.2440 H   0  0  0  0  0  0  0  0  0  0  0  0
    7.3500    5.6510   17.9790 H   0  0  0  0  0  0  0  0  0  0  0  0
    8.5180    4.4080   17.4110 H   0  0  0  0  0  0  0  0  0  0  0  0
  1  4  1  0  0  0  0
  2  1  1  0  0  0  0
  2  5  1  0  0  0  0
  3  2  2  0  0  0  0
  5  6  2  0  0  0  0
  6  7  1  0  0  0  0
  6 15  1  0  0  0  0
  7  8  1  0  0  0  0
  8 18  1  0  0  0  0
  9  8  2  0  0  0  0
  9 16  1  0  0  0  0
 10  9  1  0  0  0  0
 11 10  2  0  0  0  0
 12 13  1  0  0  0  0
 12 10  1  0  0  0  0
 13  7  2  0  0  0  0
 14  5  1  0  0  0  0
 14 13  1  0  0  0  0
 17 12  1  0  0  0  0
 18 20  1  0  0  0  0
 18 19  1  0  0  0  0
 21 18  1  0  0  0  0
 22 23  2  0  0  0  0
 22 27  1  0  0  0  0
 23 24  1  0  0  0  0
 24 29  1  0  0  0  0
 24 25  2  0  0  0  0
 25 30  1  0  0  0  0
 26 25  1  0  0  0  0
 26  1  1  0  0  0  0
 27 26  2  0  0  0  0
 28 23  1  0  0  0  0
 31 27  1  0  0  0  0
 32 37  1  0  0  0  0
 33 32  1  0  0  0  0
 34 35  1  0  0  0  0
 34 33  2  0  0  0  0
 35 36  2  0  0  0  0
 36 32  1  0  0  0  0
 36 22  1  0  0  0  0
 37 39  1  0  0  0  0
 37 38  1  0  0  0  0
 40 37  1  0  0  0  0
M  END
>  <MODEL>
5

>  <REMARK>
 VINA RESULT:    -8.328      4.497      9.484
 INTER + INTRA:         -11.004
 INTER:                 -10.947
 INTRA:                  -0.057
 UNBOUND:                -0.486
  Name = 
  5 active torsions:
  status: ('A' for Active; 'I' for Inactive)
    1  A    between atoms: C_1  and  N_2
    2  A    between atoms: C_6  and  C_7
    3  A    between atoms: C_11  and  N_12
    4  A    between atoms: C_13  and  C_15
    5  A    between atoms: C_18  and  C_19
                            x       y       z     vdW  Elec       q    Type
                         _______ _______ _______ _____ _____    ______ ____

>  <TORSDO>
F 5

$$$$
=
 OpenBabel07192307433D

 40 43  0  0  0  0  0  0  0  0999 V2000
    4.4480    6.7990   17.9630 N   0  0  0  0  0  0  0  0  0  0  0  0
    3.1290    6.4560   18.2360 C   0  0  0  0  0  0  0  0  0  0  0  0
    2.6600    5.3350   18.0640 O   0  0  0  0  0  0  0  0  0  0  0  0
    4.7090    7.7630   18.1080 H   0  0  0  0  0  0  0  0  0  0  0  0
    2.3190    7.5580   18.7440 C   0  0  0  0  0  0  0  0  0  0  0  0
    1.7240    7.8310   19.9760 C   0  0  0  0  0  0  0  0  0  0  0  0
    1.0650    9.0680   19.8330 C   0  0  0  0  0  0  0  0  0  0  0  0
    0.2820    9.9180   20.6650 C   0  0  0  0  0  0  0  0  0  0  0  0
   -0.2020   11.0710   20.1560 C   0  0  0  0  0  0  0  0  0  0  0  0
    0.0720   11.4700   18.7320 C   0  0  0  0  0  0  0  0  0  0  0  0
   -0.3790   12.5220   18.2950 O   0  0  0  0  0  0  0  0  0  0  0  0
    0.8330   10.6150   17.9710 N   0  0  0  0  0  0  0  0  0  0  0  0
    1.2870    9.4710   18.5470 C   0  0  0  0  0  0  0  0  0  0  0  0
    2.0350    8.5880   17.8660 O   0  0  0  0  0  0  0  0  0  0  0  0
    1.7630    7.2090   20.8600 H   0  0  0  0  0  0  0  0  0  0  0  0
   -0.8040   11.7670   20.7300 H   0  0  0  0  0  0  0  0  0  0  0  0
    1.0460   10.8340   17.0080 H   0  0  0  0  0  0  0  0  0  0  0  0
    0.0500    9.4630   22.0670 C   0  0  0  0  0  0  0  0  0  0  0  0
   -0.7160    8.3430   22.1320 F   0  0  0  0  0  0  0  0  0  0  0  0
    1.2130    9.1760   22.7090 F   0  0  0  0  0  0  0  0  0  0  0  0
   -0.5820   10.4090   22.8100 F   0  0  0  0  0  0  0  0  0  0  0  0
    6.3840    4.7220   15.5790 C   0  0  0  0  0  0  0  0  0  0  0  0
    7.4650    4.3150   16.3670 C   0  0  0  0  0  0  0  0  0  0  0  0
    7.5450    4.7090   17.7040 C   0  0  0  0  0  0  0  0  0  0  0  0
    6.5550    5.5210   18.2630 C   0  0  0  0  0  0  0  0  0  0  0  0
    5.4800    5.9600   17.4910 C   0  0  0  0  0  0  0  0  0  0  0  0
    5.4090    5.5580   16.1490 C   0  0  0  0  0  0  0  0  0  0  0  0
    8.2710    3.7150   15.9550 H   0  0  0  0  0  0  0  0  0  0  0  0
    8.3880    4.3940   18.3160 H   0  0  0  0  0  0  0  0  0  0  0  0
    6.6680    5.8050   19.3050 H   0  0  0  0  0  0  0  0  0  0  0  0
    4.5830    5.8930   15.5220 H   0  0  0  0  0  0  0  0  0  0  0  0
    7.0580    4.7240   13.1300 N   0  0  0  0  0  0  0  0  0  0  0  0
    6.6270    4.1660   11.9870 N   0  0  0  0  0  0  0  0  0  0  0  0
    5.5910    3.4200   12.3340 N   0  0  0  0  0  0  0  0  0  0  0  0
    5.3590    3.5010   13.6830 N   0  0  0  0  0  0  0  0  0  0  0  0
    6.2550    4.3400   14.1760 C   0  0  0  0  0  0  0  0  0  0  0  0
    8.2550    5.5180   13.1270 C   0  0  0  0  0  0  0  0  0  0  0  0
    8.3990    5.9530   12.1350 H   0  0  0  0  0  0  0  0  0  0  0  0
    9.1130    4.8860   13.3660 H   0  0  0  0  0  0  0  0  0  0  0  0
    8.1410    6.3130   13.8680 H   0  0  0  0  0  0  0  0  0  0  0  0
  1  4  1  0  0  0  0
  1  2  1  0  0  0  0
  2  5  1  0  0  0  0
  3  2  2  0  0  0  0
  5  6  2  0  0  0  0
  6 15  1  0  0  0  0
  7  6  1  0  0  0  0
  7  8  1  0  0  0  0
  8 18  1  0  0  0  0
  9  8  2  0  0  0  0
  9 16  1  0  0  0  0
 10  9  1  0  0  0  0
 11 10  2  0  0  0  0
 12 13  1  0  0  0  0
 12 10  1  0  0  0  0
 13  7  2  0  0  0  0
 14 13  1  0  0  0  0
 14  5  1  0  0  0  0
 17 12  1  0  0  0  0
 18 19  1  0  0  0  0
 18 20  1  0  0  0  0
 18 21  1  0  0  0  0
 22 27  2  0  0  0  0
 22 23  1  0  0  0  0
 23 24  2  0  0  0  0
 24 25  1  0  0  0  0
 24 29  1  0  0  0  0
 25 30  1  0  0  0  0
 26  1  1  0  0  0  0
 26 25  2  0  0  0  0
 27 26  1  0  0  0  0
 28 23  1  0  0  0  0
 31 27  1  0  0  0  0
 32 36  1  0  0  0  0
 33 34  2  0  0  0  0
 33 32  1  0  0  0  0
 34 35  1  0  0  0  0
 35 36  2  0  0  0  0
 36 22  1  0  0  0  0
 37 32  1  0  0  0  0
 37 39  1  0  0  0  0
 37 40  1  0  0  0  0
 38 37  1  0  0  0  0
M  END
>  <MODEL>
6

>  <REMARK>
 VINA RESULT:    -8.318      4.427      9.354
 INTER + INTRA:         -10.992
 INTER:                 -10.409
 INTRA:                  -0.583
 UNBOUND:                -0.486
  Name = 
  5 active torsions:
  status: ('A' for Active; 'I' for Inactive)
    1  A    between atoms: C_1  and  N_2
    2  A    between atoms: C_6  and  C_7
    3  A    between atoms: C_11  and  N_12
    4  A    between atoms: C_13  and  C_15
    5  A    between atoms: C_18  and  C_19
                            x       y       z     vdW  Elec       q    Type
                         _______ _______ _______ _____ _____    ______ ____

>  <TORSDO>
F 5

$$$$
=
 OpenBabel07192307433D

 40 43  0  0  0  0  0  0  0  0999 V2000
    0.9130    8.9110   18.9970 N   0  0  0  0  0  0  0  0  0  0  0  0
    2.0320    8.3830   18.3670 C   0  0  0  0  0  0  0  0  0  0  0  0
    2.7460    9.0100   17.5900 O   0  0  0  0  0  0  0  0  0  0  0  0
    0.3810    8.2870   19.5850 H   0  0  0  0  0  0  0  0  0  0  0  0
    2.2980    6.9860   18.6950 C   0  0  0  0  0  0  0  0  0  0  0  0
    2.8240    5.9090   17.9800 C   0  0  0  0  0  0  0  0  0  0  0  0
    2.8230    4.8090   18.8610 C   0  0  0  0  0  0  0  0  0  0  0  0
    3.2100    3.4410   18.7970 C   0  0  0  0  0  0  0  0  0  0  0  0
    3.0510    2.6610   19.8890 C   0  0  0  0  0  0  0  0  0  0  0  0
    2.4750    3.2130   21.1630 C   0  0  0  0  0  0  0  0  0  0  0  0
    2.3430    2.4840   22.1390 O   0  0  0  0  0  0  0  0  0  0  0  0
    2.1180    4.5410   21.1730 N   0  0  0  0  0  0  0  0  0  0  0  0
    2.3050    5.2660   20.0390 C   0  0  0  0  0  0  0  0  0  0  0  0
    1.9800    6.5670   19.9740 O   0  0  0  0  0  0  0  0  0  0  0  0
    3.1590    5.9230   16.9510 H   0  0  0  0  0  0  0  0  0  0  0  0
    3.3240    1.6120   19.9130 H   0  0  0  0  0  0  0  0  0  0  0  0
    1.7260    4.9620   22.0030 H   0  0  0  0  0  0  0  0  0  0  0  0
    3.7750    2.9580   17.5020 C   0  0  0  0  0  0  0  0  0  0  0  0
    3.9890    1.6170   17.4940 F   0  0  0  0  0  0  0  0  0  0  0  0
    2.9510    3.2270   16.4560 F   0  0  0  0  0  0  0  0  0  0  0  0
    4.9680    3.5440   17.2200 F   0  0  0  0  0  0  0  0  0  0  0  0
   -1.5430   11.6360   18.4540 C   0  0  0  0  0  0  0  0  0  0  0  0
   -0.7710   12.7720   18.7180 C   0  0  0  0  0  0  0  0  0  0  0  0
    0.5770   12.6410   19.0540 C   0  0  0  0  0  0  0  0  0  0  0  0
    1.1650   11.3760   19.1430 C   0  0  0  0  0  0  0  0  0  0  0  0
    0.4110   10.2280   18.9090 C   0  0  0  0  0  0  0  0  0  0  0  0
   -0.9430   10.3700   18.5700 C   0  0  0  0  0  0  0  0  0  0  0  0
   -1.2040   13.7670   18.6940 H   0  0  0  0  0  0  0  0  0  0  0  0
    1.1760   13.5260   19.2630 H   0  0  0  0  0  0  0  0  0  0  0  0
    2.2150   11.3290   19.4160 H   0  0  0  0  0  0  0  0  0  0  0  0
   -1.5560    9.4880   18.3890 H   0  0  0  0  0  0  0  0  0  0  0  0
   -3.5290   11.4360   16.8840 N   0  0  0  0  0  0  0  0  0  0  0  0
   -4.8570   11.6260   16.9430 N   0  0  0  0  0  0  0  0  0  0  0  0
   -5.1010   11.9880   18.1930 N   0  0  0  0  0  0  0  0  0  0  0  0
   -3.9420   12.0320   18.9240 N   0  0  0  0  0  0  0  0  0  0  0  0
   -2.9560   11.7180   18.1000 C   0  0  0  0  0  0  0  0  0  0  0  0
   -2.9360   10.9240   15.6810 C   0  0  0  0  0  0  0  0  0  0  0  0
   -3.1060    9.8450   15.6240 H   0  0  0  0  0  0  0  0  0  0  0  0
   -1.8600   11.1140   15.6930 H   0  0  0  0  0  0  0  0  0  0  0  0
   -3.4060   11.4190   14.8270 H   0  0  0  0  0  0  0  0  0  0  0  0
  1  4  1  0  0  0  0
  2  5  1  0  0  0  0
  2  1  1  0  0  0  0
  3  2  2  0  0  0  0
  5 14  1  0  0  0  0
  6  5  2  0  0  0  0
  6  7  1  0  0  0  0
  7 13  2  0  0  0  0
  8  7  1  0  0  0  0
  8  9  2  0  0  0  0
  9 16  1  0  0  0  0
  9 10  1  0  0  0  0
 10 12  1  0  0  0  0
 10 11  2  0  0  0  0
 12 17  1  0  0  0  0
 13 12  1  0  0  0  0
 14 13  1  0  0  0  0
 15  6  1  0  0  0  0
 18  8  1  0  0  0  0
 19 18  1  0  0  0  0
 20 18  1  0  0  0  0
 21 18  1  0  0  0  0
 22 27  2  0  0  0  0
 22 23  1  0  0  0  0
 23 24  2  0  0  0  0
 24 25  1  0  0  0  0
 24 29  1  0  0  0  0
 25 30  1  0  0  0  0
 26  1  1  0  0  0  0
 26 25  2  0  0  0  0
 27 26  1  0  0  0  0
 28 23  1  0  0  0  0
 31 27  1  0  0  0  0
 32 33  1  0  0  0  0
 32 36  1  0  0  0  0
 33 34  2  0  0  0  0
 34 35  1  0  0  0  0
 36 22  1  0  0  0  0
 36 35  2  0  0  0  0
 37 39  1  0  0  0  0
 37 32  1  0  0  0  0
 38 37  1  0  0  0  0
 40 37  1  0  0  0  0
M  END
>  <MODEL>
7

>  <REMARK>
 VINA RESULT:    -8.225      1.913      2.309
 INTER + INTRA:         -10.875
 INTER:                 -10.368
 INTRA:                  -0.507
 UNBOUND:                -0.486
  Name = 
  5 active torsions:
  status: ('A' for Active; 'I' for Inactive)
    1  A    between atoms: C_1  and  N_2
    2  A    between atoms: C_6  and  C_7
    3  A    between atoms: C_11  and  N_12
    4  A    between atoms: C_13  and  C_15
    5  A    between atoms: C_18  and  C_19
                            x       y       z     vdW  Elec       q    Type
                         _______ _______ _______ _____ _____    ______ ____

>  <TORSDO>
F 5

$$$$
=
 OpenBabel07192307433D

 40 43  0  0  0  0  0  0  0  0999 V2000
    1.9750    9.3060   18.1170 N   0  0  0  0  0  0  0  0  0  0  0  0
    2.0050    8.2640   19.0340 C   0  0  0  0  0  0  0  0  0  0  0  0
    1.5670    8.3390   20.1780 O   0  0  0  0  0  0  0  0  0  0  0  0
    2.4020    9.1380   17.2170 H   0  0  0  0  0  0  0  0  0  0  0  0
    2.6240    7.0420   18.5280 C   0  0  0  0  0  0  0  0  0  0  0  0
    2.3710    5.6830   18.7180 C   0  0  0  0  0  0  0  0  0  0  0  0
    3.3290    4.9910   17.9500 C   0  0  0  0  0  0  0  0  0  0  0  0
    3.6450    3.6280   17.6850 C   0  0  0  0  0  0  0  0  0  0  0  0
    4.6790    3.3410   16.8640 C   0  0  0  0  0  0  0  0  0  0  0  0
    5.4950    4.4320   16.2280 C   0  0  0  0  0  0  0  0  0  0  0  0
    6.4270    4.1430   15.4860 O   0  0  0  0  0  0  0  0  0  0  0  0
    5.1480    5.7310   16.5150 N   0  0  0  0  0  0  0  0  0  0  0  0
    4.0980    5.9470   17.3490 C   0  0  0  0  0  0  0  0  0  0  0  0
    3.7020    7.1880   17.6760 O   0  0  0  0  0  0  0  0  0  0  0  0
    1.5950    5.2530   19.3360 H   0  0  0  0  0  0  0  0  0  0  0  0
    4.9770    2.3280   16.6170 H   0  0  0  0  0  0  0  0  0  0  0  0
    5.6650    6.5020   16.1150 H   0  0  0  0  0  0  0  0  0  0  0  0
    2.7950    2.5970   18.3480 C   0  0  0  0  0  0  0  0  0  0  0  0
    2.8050    2.7040   19.7020 F   0  0  0  0  0  0  0  0  0  0  0  0
    1.4950    2.6830   17.9610 F   0  0  0  0  0  0  0  0  0  0  0  0
    3.2060    1.3350   18.0550 F   0  0  0  0  0  0  0  0  0  0  0  0
   -0.6140   11.9100   18.6340 C   0  0  0  0  0  0  0  0  0  0  0  0
    0.1590   13.0750   18.6790 C   0  0  0  0  0  0  0  0  0  0  0  0
    1.5420   13.0060   18.5130 C   0  0  0  0  0  0  0  0  0  0  0  0
    2.1710   11.7730   18.3140 C   0  0  0  0  0  0  0  0  0  0  0  0
    1.4260   10.5960   18.2900 C   0  0  0  0  0  0  0  0  0  0  0  0
    0.0350   10.6760   18.4560 C   0  0  0  0  0  0  0  0  0  0  0  0
   -0.2920   14.0450   18.8690 H   0  0  0  0  0  0  0  0  0  0  0  0
    2.1430   13.9130   18.5520 H   0  0  0  0  0  0  0  0  0  0  0  0
    3.2500   11.7730   18.1980 H   0  0  0  0  0  0  0  0  0  0  0  0
   -0.5690    9.7700   18.4480 H   0  0  0  0  0  0  0  0  0  0  0  0
   -2.7670   12.3050   19.9210 N   0  0  0  0  0  0  0  0  0  0  0  0
   -4.0870   12.1910   19.6970 N   0  0  0  0  0  0  0  0  0  0  0  0
   -4.1910   11.7820   18.4430 N   0  0  0  0  0  0  0  0  0  0  0  0
   -2.9540   11.6330   17.8720 N   0  0  0  0  0  0  0  0  0  0  0  0
   -2.0630   11.9290   18.8040 C   0  0  0  0  0  0  0  0  0  0  0  0
   -2.3010   12.8420   21.1690 C   0  0  0  0  0  0  0  0  0  0  0  0
   -2.4330   12.0960   21.9560 H   0  0  0  0  0  0  0  0  0  0  0  0
   -2.8800   13.7330   21.4230 H   0  0  0  0  0  0  0  0  0  0  0  0
   -1.2410   13.0870   21.0640 H   0  0  0  0  0  0  0  0  0  0  0  0
  1 26  1  0  0  0  0
  1  2  1  0  0  0  0
  2  3  2  0  0  0  0
  4  1  1  0  0  0  0
  5  6  2  0  0  0  0
  5  2  1  0  0  0  0
  6 15  1  0  0  0  0
  7  6  1  0  0  0  0
  8  7  1  0  0  0  0
  8 18  1  0  0  0  0
  9  8  2  0  0  0  0
 10 12  1  0  0  0  0
 10  9  1  0  0  0  0
 11 10  2  0  0  0  0
 12 13  1  0  0  0  0
 13 14  1  0  0  0  0
 13  7  2  0  0  0  0
 14  5  1  0  0  0  0
 16  9  1  0  0  0  0
 17 12  1  0  0  0  0
 18 19  1  0  0  0  0
 20 18  1  0  0  0  0
 21 18  1  0  0  0  0
 22 23  1  0  0  0  0
 22 36  1  0  0  0  0
 23 28  1  0  0  0  0
 24 29  1  0  0  0  0
 24 23  2  0  0  0  0
 25 24  1  0  0  0  0
 26 25  2  0  0  0  0
 26 27  1  0  0  0  0
 27 22  2  0  0  0  0
 30 25  1  0  0  0  0
 31 27  1  0  0  0  0
 32 37  1  0  0  0  0
 33 32  1  0  0  0  0
 34 33  2  0  0  0  0
 35 34  1  0  0  0  0
 35 36  2  0  0  0  0
 36 32  1  0  0  0  0
 37 39  1  0  0  0  0
 37 38  1  0  0  0  0
 40 37  1  0  0  0  0
M  END
>  <MODEL>
8

>  <REMARK>
 VINA RESULT:    -8.202      2.440      3.022
 INTER + INTRA:         -10.845
 INTER:                 -10.300
 INTRA:                  -0.545
 UNBOUND:                -0.486
  Name = 
  5 active torsions:
  status: ('A' for Active; 'I' for Inactive)
    1  A    between atoms: C_1  and  N_2
    2  A    between atoms: C_6  and  C_7
    3  A    between atoms: C_11  and  N_12
    4  A    between atoms: C_13  and  C_15
    5  A    between atoms: C_18  and  C_19
                            x       y       z     vdW  Elec       q    Type
                         _______ _______ _______ _____ _____    ______ ____

>  <TORSDO>
F 5

$$$$
=
 OpenBabel07192307433D

 40 43  0  0  0  0  0  0  0  0999 V2000
    0.9610    8.9570   19.1200 N   0  0  0  0  0  0  0  0  0  0  0  0
    2.0310    8.9850   18.2330 C   0  0  0  0  0  0  0  0  0  0  0  0
    2.4220    9.9960   17.6580 O   0  0  0  0  0  0  0  0  0  0  0  0
    0.7070    8.0580   19.5020 H   0  0  0  0  0  0  0  0  0  0  0  0
    2.6640    7.6880   18.0210 C   0  0  0  0  0  0  0  0  0  0  0  0
    2.2860    6.3730   18.2960 C   0  0  0  0  0  0  0  0  0  0  0  0
    3.3440    5.5550   17.8500 C   0  0  0  0  0  0  0  0  0  0  0  0
    3.6200    4.1580   17.8170 C   0  0  0  0  0  0  0  0  0  0  0  0
    4.7890    3.7320   17.2920 C   0  0  0  0  0  0  0  0  0  0  0  0
    5.7980    4.7040   16.7440 C   0  0  0  0  0  0  0  0  0  0  0  0
    6.8500    4.2900   16.2730 O   0  0  0  0  0  0  0  0  0  0  0  0
    5.4820    6.0410   16.7990 N   0  0  0  0  0  0  0  0  0  0  0  0
    4.2890    6.3990   17.3410 C   0  0  0  0  0  0  0  0  0  0  0  0
    3.9130    7.6850   17.4290 O   0  0  0  0  0  0  0  0  0  0  0  0
    1.3640    6.0530   18.7630 H   0  0  0  0  0  0  0  0  0  0  0  0
    5.0670    2.6850   17.2340 H   0  0  0  0  0  0  0  0  0  0  0  0
    6.1250    6.7360   16.4460 H   0  0  0  0  0  0  0  0  0  0  0  0
    2.5760    3.2500   18.3770 C   0  0  0  0  0  0  0  0  0  0  0  0
    2.4660    3.3510   19.7260 F   0  0  0  0  0  0  0  0  0  0  0  0
    1.3440    3.5130   17.8660 F   0  0  0  0  0  0  0  0  0  0  0  0
    2.8400    1.9450   18.1040 F   0  0  0  0  0  0  0  0  0  0  0  0
   -1.8880   11.3290   19.1920 C   0  0  0  0  0  0  0  0  0  0  0  0
   -1.5600   12.1350   20.2870 C   0  0  0  0  0  0  0  0  0  0  0  0
   -0.3780   11.9110   20.9930 C   0  0  0  0  0  0  0  0  0  0  0  0
    0.4830   10.8730   20.6230 C   0  0  0  0  0  0  0  0  0  0  0  0
    0.1660   10.0410   19.5510 C   0  0  0  0  0  0  0  0  0  0  0  0
   -1.0240   10.2760   18.8460 C   0  0  0  0  0  0  0  0  0  0  0  0
   -2.2230   12.9260   20.6250 H   0  0  0  0  0  0  0  0  0  0  0  0
   -0.1260   12.5360   21.8480 H   0  0  0  0  0  0  0  0  0  0  0  0
    1.3850   10.7360   21.2110 H   0  0  0  0  0  0  0  0  0  0  0  0
   -1.2980    9.6350   18.0080 H   0  0  0  0  0  0  0  0  0  0  0  0
   -3.3130   11.2410   17.0920 N   0  0  0  0  0  0  0  0  0  0  0  0
   -4.5720   11.5490   16.7390 N   0  0  0  0  0  0  0  0  0  0  0  0
   -5.1470   11.9820   17.8500 N   0  0  0  0  0  0  0  0  0  0  0  0
   -4.2670   11.9540   18.9000 N   0  0  0  0  0  0  0  0  0  0  0  0
   -3.1120   11.5210   18.4210 C   0  0  0  0  0  0  0  0  0  0  0  0
   -2.4350   10.6280   16.1340 C   0  0  0  0  0  0  0  0  0  0  0  0
   -2.5410   11.1340   15.1710 H   0  0  0  0  0  0  0  0  0  0  0  0
   -2.7020    9.5750   16.0140 H   0  0  0  0  0  0  0  0  0  0  0  0
   -1.4090   10.7290   16.4950 H   0  0  0  0  0  0  0  0  0  0  0  0
  1  4  1  0  0  0  0
  1 26  1  0  0  0  0
  2  1  1  0  0  0  0
  3  2  2  0  0  0  0
  5  2  1  0  0  0  0
  5  6  2  0  0  0  0
  6 15  1  0  0  0  0
  7  6  1  0  0  0  0
  8  7  1  0  0  0  0
  8 18  1  0  0  0  0
  9  8  2  0  0  0  0
 10 12  1  0  0  0  0
 10  9  1  0  0  0  0
 11 10  2  0  0  0  0
 12 13  1  0  0  0  0
 13 14  1  0  0  0  0
 13  7  2  0  0  0  0
 14  5  1  0  0  0  0
 16  9  1  0  0  0  0
 17 12  1  0  0  0  0
 18 19  1  0  0  0  0
 20 18  1  0  0  0  0
 21 18  1  0  0  0  0
 22 23  1  0  0  0  0
 23 28  1  0  0  0  0
 23 24  2  0  0  0  0
 24 29  1  0  0  0  0
 25 24  1  0  0  0  0
 25 30  1  0  0  0  0
 26 25  2  0  0  0  0
 27 22  2  0  0  0  0
 27 26  1  0  0  0  0
 31 27  1  0  0  0  0
 32 36  1  0  0  0  0
 33 32  1  0  0  0  0
 33 34  2  0  0  0  0
 34 35  1  0  0  0  0
 36 35  2  0  0  0  0
 36 22  1  0  0  0  0
 37 40  1  0  0  0  0
 37 32  1  0  0  0  0
 38 37  1  0  0  0  0
 39 37  1  0  0  0  0
M  END
>  <MODEL>
9

>  <REMARK>
 VINA RESULT:    -8.199      2.455      2.741
 INTER + INTRA:         -10.841
 INTER:                 -10.596
 INTRA:                  -0.246
 UNBOUND:                -0.486
  Name = 
  5 active torsions:
  status: ('A' for Active; 'I' for Inactive)
    1  A    between atoms: C_1  and  N_2
    2  A    between atoms: C_6  and  C_7
    3  A    between atoms: C_11  and  N_12
    4  A    between atoms: C_13  and  C_15
    5  A    between atoms: C_18  and  C_19
                            x       y       z     vdW  Elec       q    Type
                         _______ _______ _______ _____ _____    ______ ____

>  <TORSDO>
F 5

$$$$
=
 OpenBabel07192307433D

 40 43  0  0  0  0  0  0  0  0999 V2000
    1.6310    8.2090   19.9870 N   0  0  0  0  0  0  0  0  0  0  0  0
    1.9720    8.2920   18.6420 C   0  0  0  0  0  0  0  0  0  0  0  0
    1.6630    9.2270   17.9090 O   0  0  0  0  0  0  0  0  0  0  0  0
    1.9080    7.3730   20.4790 H   0  0  0  0  0  0  0  0  0  0  0  0
    2.7340    7.1490   18.1490 C   0  0  0  0  0  0  0  0  0  0  0  0
    2.5910    5.7670   18.2740 C   0  0  0  0  0  0  0  0  0  0  0  0
    3.6630    5.1910   17.5630 C   0  0  0  0  0  0  0  0  0  0  0  0
    4.1190    3.8720   17.2810 C   0  0  0  0  0  0  0  0  0  0  0  0
    5.2340    3.7080   16.5360 C   0  0  0  0  0  0  0  0  0  0  0  0
    5.9950    4.8900   16.0010 C   0  0  0  0  0  0  0  0  0  0  0  0
    7.0020    4.7120   15.3270 O   0  0  0  0  0  0  0  0  0  0  0  0
    5.5120    6.1410   16.3010 N   0  0  0  0  0  0  0  0  0  0  0  0
    4.3860    6.2330   17.0560 C   0  0  0  0  0  0  0  0  0  0  0  0
    3.8570    7.4210   17.3900 O   0  0  0  0  0  0  0  0  0  0  0  0
    1.8110    5.2470   18.8150 H   0  0  0  0  0  0  0  0  0  0  0  0
    5.6390    2.7350   16.2810 H   0  0  0  0  0  0  0  0  0  0  0  0
    5.9860    6.9690   15.9680 H   0  0  0  0  0  0  0  0  0  0  0  0
    3.3170    2.7460   17.8420 C   0  0  0  0  0  0  0  0  0  0  0  0
    3.1850    2.8200   19.1910 F   0  0  0  0  0  0  0  0  0  0  0  0
    2.0580    2.7120   17.3300 F   0  0  0  0  0  0  0  0  0  0  0  0
    3.8790    1.5390   17.5720 F   0  0  0  0  0  0  0  0  0  0  0  0
    0.1650   11.4790   20.9390 C   0  0  0  0  0  0  0  0  0  0  0  0
   -0.4660   11.1680   22.1470 C   0  0  0  0  0  0  0  0  0  0  0  0
   -0.3870    9.8750   22.6660 C   0  0  0  0  0  0  0  0  0  0  0  0
    0.3100    8.8770   21.9790 C   0  0  0  0  0  0  0  0  0  0  0  0
    0.9260    9.1570   20.7600 C   0  0  0  0  0  0  0  0  0  0  0  0
    0.8420   10.4600   20.2480 C   0  0  0  0  0  0  0  0  0  0  0  0
   -1.0470   11.9090   22.6890 H   0  0  0  0  0  0  0  0  0  0  0  0
   -0.8820    9.6330   23.6050 H   0  0  0  0  0  0  0  0  0  0  0  0
    0.3330    7.8860   22.4220 H   0  0  0  0  0  0  0  0  0  0  0  0
    1.3100   10.7020   19.2940 H   0  0  0  0  0  0  0  0  0  0  0  0
   -0.4800   13.1830   19.1690 N   0  0  0  0  0  0  0  0  0  0  0  0
   -0.3250   14.5020   18.9660 N   0  0  0  0  0  0  0  0  0  0  0  0
    0.3250   14.9430   20.0310 N   0  0  0  0  0  0  0  0  0  0  0  0
    0.5860   13.9200   20.9040 N   0  0  0  0  0  0  0  0  0  0  0  0
    0.1120   12.8150   20.3530 C   0  0  0  0  0  0  0  0  0  0  0  0
   -1.2530   12.4060   18.2420 C   0  0  0  0  0  0  0  0  0  0  0  0
   -0.7750   11.4330   18.0980 H   0  0  0  0  0  0  0  0  0  0  0  0
   -1.3010   12.9240   17.2810 H   0  0  0  0  0  0  0  0  0  0  0  0
   -2.2540   12.2690   18.6590 H   0  0  0  0  0  0  0  0  0  0  0  0
  1  4  1  0  0  0  0
  1 26  1  0  0  0  0
  2  1  1  0  0  0  0
  3  2  2  0  0  0  0
  5  6  2  0  0  0  0
  5  2  1  0  0  0  0
  6 15  1  0  0  0  0
  7  6  1  0  0  0  0
  8  7  1  0  0  0  0
  8 18  1  0  0  0  0
  9  8  2  0  0  0  0
 10 12  1  0  0  0  0
 10  9  1  0  0  0  0
 11 10  2  0  0  0  0
 12 13  1  0  0  0  0
 13 14  1  0  0  0  0
 13  7  2  0  0  0  0
 14  5  1  0  0  0  0
 16  9  1  0  0  0  0
 17 12  1  0  0  0  0
 18 19  1  0  0  0  0
 20 18  1  0  0  0  0
 21 18  1  0  0  0  0
 22 23  1  0  0  0  0
 23 24  2  0  0  0  0
 23 28  1  0  0  0  0
 24 29  1  0  0  0  0
 25 30  1  0  0  0  0
 25 24  1  0  0  0  0
 26 25  2  0  0  0  0
 27 26  1  0  0  0  0
 27 22  2  0  0  0  0
 31 27  1  0  0  0  0
 32 36  1  0  0  0  0
 33 32  1  0  0  0  0
 33 34  2  0  0  0  0
 34 35  1  0  0  0  0
 36 35  2  0  0  0  0
 36 22  1  0  0  0  0
 37 40  1  0  0  0  0
 37 32  1  0  0  0  0
 38 37  1  0  0  0  0
 39 37  1  0  0  0  0
M  END
>  <MODEL>
10

>  <REMARK>
 VINA RESULT:    -8.123      3.216      3.858
 INTER + INTRA:         -10.745
 INTER:                 -10.705
 INTRA:                  -0.040
 UNBOUND:                -0.486
  Name = 
  5 active torsions:
  status: ('A' for Active; 'I' for Inactive)
    1  A    between atoms: C_1  and  N_2
    2  A    between atoms: C_6  and  C_7
    3  A    between atoms: C_11  and  N_12
    4  A    between atoms: C_13  and  C_15
    5  A    between atoms: C_18  and  C_19
                            x       y       z     vdW  Elec       q    Type
                         _______ _______ _______ _____ _____    ______ ____

>  <TORSDO>
F 5

$$$$
=
 OpenBabel07192307433D

 40 43  0  0  0  0  0  0  0  0999 V2000
    1.4170    8.9670   18.2230 N   0  0  0  0  0  0  0  0  0  0  0  0
    1.9140    8.0540   19.1440 C   0  0  0  0  0  0  0  0  0  0  0  0
    1.7640    8.1490   20.3590 O   0  0  0  0  0  0  0  0  0  0  0  0
    1.6370    8.8050   17.2520 H   0  0  0  0  0  0  0  0  0  0  0  0
    2.6570    6.9490   18.5470 C   0  0  0  0  0  0  0  0  0  0  0  0
    2.5300    5.5600   18.5990 C   0  0  0  0  0  0  0  0  0  0  0  0
    3.5670    5.0370   17.8010 C   0  0  0  0  0  0  0  0  0  0  0  0
    4.0180    3.7410   17.4200 C   0  0  0  0  0  0  0  0  0  0  0  0
    5.0930    3.6310   16.6090 C   0  0  0  0  0  0  0  0  0  0  0  0
    5.8170    4.8490   16.1060 C   0  0  0  0  0  0  0  0  0  0  0  0
    6.7890    4.7200   15.3700 O   0  0  0  0  0  0  0  0  0  0  0  0
    5.3410    6.0760   16.5020 N   0  0  0  0  0  0  0  0  0  0  0  0
    4.2560    6.1140   17.3190 C   0  0  0  0  0  0  0  0  0  0  0  0
    3.7370    7.2750   17.7470 O   0  0  0  0  0  0  0  0  0  0  0  0
    1.7840    5.0030   19.1480 H   0  0  0  0  0  0  0  0  0  0  0  0
    5.4910    2.6780   16.2780 H   0  0  0  0  0  0  0  0  0  0  0  0
    5.7920    6.9270   16.1930 H   0  0  0  0  0  0  0  0  0  0  0  0
    3.2530    2.5760   17.9550 C   0  0  0  0  0  0  0  0  0  0  0  0
    1.9740    2.5400   17.5010 F   0  0  0  0  0  0  0  0  0  0  0  0
    3.8220    1.3920   17.6090 F   0  0  0  0  0  0  0  0  0  0  0  0
    3.1840    2.5940   19.3120 F   0  0  0  0  0  0  0  0  0  0  0  0
    0.6080   12.3870   19.4070 C   0  0  0  0  0  0  0  0  0  0  0  0
   -0.7360   12.5050   19.0390 C   0  0  0  0  0  0  0  0  0  0  0  0
   -1.3890   11.4410   18.4180 C   0  0  0  0  0  0  0  0  0  0  0  0
   -0.7060   10.2520   18.1450 C   0  0  0  0  0  0  0  0  0  0  0  0
    0.6410   10.1190   18.4790 C   0  0  0  0  0  0  0  0  0  0  0  0
    1.2880   11.1950   19.1050 C   0  0  0  0  0  0  0  0  0  0  0  0
   -1.2880   13.4270   19.2020 H   0  0  0  0  0  0  0  0  0  0  0  0
   -2.4350   11.5360   18.1290 H   0  0  0  0  0  0  0  0  0  0  0  0
   -1.2580    9.4580   17.6520 H   0  0  0  0  0  0  0  0  0  0  0  0
    2.3420   11.1180   19.3710 H   0  0  0  0  0  0  0  0  0  0  0  0
    2.2850   14.2920   19.4980 N   0  0  0  0  0  0  0  0  0  0  0  0
    2.7300   15.1730   20.4090 N   0  0  0  0  0  0  0  0  0  0  0  0
    2.0350   14.9180   21.5060 N   0  0  0  0  0  0  0  0  0  0  0  0
    1.1590   13.8840   21.3020 N   0  0  0  0  0  0  0  0  0  0  0  0
    1.3370   13.4710   20.0580 C   0  0  0  0  0  0  0  0  0  0  0  0
    2.7580   14.3680   18.1440 C   0  0  0  0  0  0  0  0  0  0  0  0
    2.2810   15.2120   17.6410 H   0  0  0  0  0  0  0  0  0  0  0  0
    2.5010   13.4470   17.6150 H   0  0  0  0  0  0  0  0  0  0  0  0
    3.8410   14.5120   18.1660 H   0  0  0  0  0  0  0  0  0  0  0  0
  1 26  1  0  0  0  0
  1  2  1  0  0  0  0
  2  3  2  0  0  0  0
  4  1  1  0  0  0  0
  5  6  2  0  0  0  0
  5  2  1  0  0  0  0
  6 15  1  0  0  0  0
  7  6  1  0  0  0  0
  8  7  1  0  0  0  0
  8 18  1  0  0  0  0
  9  8  2  0  0  0  0
 10 12  1  0  0  0  0
 10  9  1  0  0  0  0
 11 10  2  0  0  0  0
 12 13  1  0  0  0  0
 13 14  1  0  0  0  0
 13  7  2  0  0  0  0
 14  5  1  0  0  0  0
 16  9  1  0  0  0  0
 17 12  1  0  0  0  0
 18 21  1  0  0  0  0
 19 18  1  0  0  0  0
 20 18  1  0  0  0  0
 22 36  1  0  0  0  0
 23 28  1  0  0  0  0
 23 22  2  0  0  0  0
 24 23  1  0  0  0  0
 25 24  2  0  0  0  0
 25 26  1  0  0  0  0
 26 27  2  0  0  0  0
 27 31  1  0  0  0  0
 27 22  1  0  0  0  0
 29 24  1  0  0  0  0
 30 25  1  0  0  0  0
 32 36  1  0  0  0  0
 32 33  1  0  0  0  0
 33 34  2  0  0  0  0
 35 34  1  0  0  0  0
 36 35  2  0  0  0  0
 37 40  1  0  0  0  0
 37 32  1  0  0  0  0
 38 37  1  0  0  0  0
 39 37  1  0  0  0  0
M  END
>  <MODEL>
11

>  <REMARK>
 VINA RESULT:    -8.092      3.313      4.301
 INTER + INTRA:         -10.706
 INTER:                 -10.081
 INTRA:                  -0.625
 UNBOUND:                -0.486
  Name = 
  5 active torsions:
  status: ('A' for Active; 'I' for Inactive)
    1  A    between atoms: C_1  and  N_2
    2  A    between atoms: C_6  and  C_7
    3  A    between atoms: C_11  and  N_12
    4  A    between atoms: C_13  and  C_15
    5  A    between atoms: C_18  and  C_19
                            x       y       z     vdW  Elec       q    Type
                         _______ _______ _______ _____ _____    ______ ____

>  <TORSDO>
F 5

$$$$
=
 OpenBabel07192307433D

 40 43  0  0  0  0  0  0  0  0999 V2000
    0.9140    9.7390   19.9800 N   0  0  0  0  0  0  0  0  0  0  0  0
    1.2430    8.7790   20.9280 C   0  0  0  0  0  0  0  0  0  0  0  0
    1.1980    8.9630   22.1410 O   0  0  0  0  0  0  0  0  0  0  0  0
    1.0280    9.4840   19.0110 H   0  0  0  0  0  0  0  0  0  0  0  0
    1.6700    7.5030   20.3620 C   0  0  0  0  0  0  0  0  0  0  0  0
    1.4940    6.1720   20.7400 C   0  0  0  0  0  0  0  0  0  0  0  0
    2.1580    5.3930   19.7710 C   0  0  0  0  0  0  0  0  0  0  0  0
    2.3750    4.0050   19.5400 C   0  0  0  0  0  0  0  0  0  0  0  0
    3.0930    3.6230   18.4610 C   0  0  0  0  0  0  0  0  0  0  0  0
    3.6610    4.6350   17.5050 C   0  0  0  0  0  0  0  0  0  0  0  0
    4.3070    4.2600   16.5330 O   0  0  0  0  0  0  0  0  0  0  0  0
    3.4210    5.9620   17.7720 N   0  0  0  0  0  0  0  0  0  0  0  0
    2.6930    6.2750   18.8750 C   0  0  0  0  0  0  0  0  0  0  0  0
    2.4190    7.5490   19.2010 O   0  0  0  0  0  0  0  0  0  0  0  0
    0.9560    5.8160   21.6090 H   0  0  0  0  0  0  0  0  0  0  0  0
    3.2980    2.5850   18.2220 H   0  0  0  0  0  0  0  0  0  0  0  0
    3.7810    6.6830   17.1630 H   0  0  0  0  0  0  0  0  0  0  0  0
    1.7830    3.0550   20.5270 C   0  0  0  0  0  0  0  0  0  0  0  0
    0.4520    3.2560   20.7100 F   0  0  0  0  0  0  0  0  0  0  0  0
    1.9320    1.7610   20.1420 F   0  0  0  0  0  0  0  0  0  0  0  0
    2.3640    3.1670   21.7500 F   0  0  0  0  0  0  0  0  0  0  0  0
   -1.4960   12.4630   20.7010 C   0  0  0  0  0  0  0  0  0  0  0  0
   -0.6630   13.5860   20.7090 C   0  0  0  0  0  0  0  0  0  0  0  0
    0.7010   13.4490   20.4500 C   0  0  0  0  0  0  0  0  0  0  0  0
    1.2500   12.1900   20.1940 C   0  0  0  0  0  0  0  0  0  0  0  0
    0.4450   11.0520   20.2060 C   0  0  0  0  0  0  0  0  0  0  0  0
   -0.9260   11.2010   20.4650 C   0  0  0  0  0  0  0  0  0  0  0  0
   -1.0500   14.5750   20.9400 H   0  0  0  0  0  0  0  0  0  0  0  0
    1.3490   14.3240   20.4600 H   0  0  0  0  0  0  0  0  0  0  0  0
    2.3180   12.1360   20.0070 H   0  0  0  0  0  0  0  0  0  0  0  0
   -1.5760   10.3260   20.4860 H   0  0  0  0  0  0  0  0  0  0  0  0
   -3.5500   12.5690   22.1920 N   0  0  0  0  0  0  0  0  0  0  0  0
   -4.8800   12.6640   22.0350 N   0  0  0  0  0  0  0  0  0  0  0  0
   -5.0710   12.7400   20.7270 N   0  0  0  0  0  0  0  0  0  0  0  0
   -3.8770   12.6910   20.0550 N   0  0  0  0  0  0  0  0  0  0  0  0
   -2.9290   12.5530   20.9670 C   0  0  0  0  0  0  0  0  0  0  0  0
   -2.9870   12.5810   23.5130 C   0  0  0  0  0  0  0  0  0  0  0  0
   -3.7860   12.7180   24.2460 H   0  0  0  0  0  0  0  0  0  0  0  0
   -2.2790   13.4090   23.6010 H   0  0  0  0  0  0  0  0  0  0  0  0
   -2.4870   11.6250   23.6830 H   0  0  0  0  0  0  0  0  0  0  0  0
  1 26  1  0  0  0  0
  1  2  1  0  0  0  0
  2  3  2  0  0  0  0
  4  1  1  0  0  0  0
  5  6  2  0  0  0  0
  5  2  1  0  0  0  0
  6 15  1  0  0  0  0
  7  6  1  0  0  0  0
  8  7  1  0  0  0  0
  8 18  1  0  0  0  0
  9  8  2  0  0  0  0
 10 12  1  0  0  0  0
 10  9  1  0  0  0  0
 11 10  2  0  0  0  0
 12 13  1  0  0  0  0
 13 14  1  0  0  0  0
 13  7  2  0  0  0  0
 14  5  1  0  0  0  0
 16  9  1  0  0  0  0
 17 12  1  0  0  0  0
 18 19  1  0  0  0  0
 18 21  1  0  0  0  0
 20 18  1  0  0  0  0
 22 23  1  0  0  0  0
 22 36  1  0  0  0  0
 23 28  1  0  0  0  0
 24 29  1  0  0  0  0
 24 23  2  0  0  0  0
 25 26  2  0  0  0  0
 25 24  1  0  0  0  0
 26 27  1  0  0  0  0
 27 31  1  0  0  0  0
 27 22  2  0  0  0  0
 30 25  1  0  0  0  0
 32 37  1  0  0  0  0
 33 32  1  0  0  0  0
 34 33  2  0  0  0  0
 35 34  1  0  0  0  0
 35 36  2  0  0  0  0
 36 32  1  0  0  0  0
 37 39  1  0  0  0  0
 37 40  1  0  0  0  0
 37 38  1  0  0  0  0
M  END
>  <MODEL>
12

>  <REMARK>
 VINA RESULT:    -8.016      3.273      4.029
 INTER + INTRA:         -10.610
 INTER:                  -9.894
 INTRA:                  -0.716
 UNBOUND:                -0.486
  Name = 
  5 active torsions:
  status: ('A' for Active; 'I' for Inactive)
    1  A    between atoms: C_1  and  N_2
    2  A    between atoms: C_6  and  C_7
    3  A    between atoms: C_11  and  N_12
    4  A    between atoms: C_13  and  C_15
    5  A    between atoms: C_18  and  C_19
                            x       y       z     vdW  Elec       q    Type
                         _______ _______ _______ _____ _____    ______ ____

>  <TORSDO>
F 5

$$$$
=
 OpenBabel07192307433D

 40 43  0  0  0  0  0  0  0  0999 V2000
    1.3710    8.4410   20.3990 N   0  0  0  0  0  0  0  0  0  0  0  0
    1.6330    8.4870   19.0360 C   0  0  0  0  0  0  0  0  0  0  0  0
    1.2490    9.3840   18.2900 O   0  0  0  0  0  0  0  0  0  0  0  0
    1.7060    7.6320   20.9030 H   0  0  0  0  0  0  0  0  0  0  0  0
    2.4080    7.3550   18.5380 C   0  0  0  0  0  0  0  0  0  0  0  0
    3.4820    7.2340   17.6560 C   0  0  0  0  0  0  0  0  0  0  0  0
    3.7830    5.8590   17.5840 C   0  0  0  0  0  0  0  0  0  0  0  0
    4.7320    5.0490   16.8980 C   0  0  0  0  0  0  0  0  0  0  0  0
    4.7120    3.7110   17.0860 C   0  0  0  0  0  0  0  0  0  0  0  0
    3.7100    3.0690   18.0050 C   0  0  0  0  0  0  0  0  0  0  0  0
    3.7150    1.8530   18.1580 O   0  0  0  0  0  0  0  0  0  0  0  0
    2.8170    3.8950   18.6440 N   0  0  0  0  0  0  0  0  0  0  0  0
    2.8930    5.2310   18.4080 C   0  0  0  0  0  0  0  0  0  0  0  0
    2.0540    6.0990   18.9950 O   0  0  0  0  0  0  0  0  0  0  0  0
    3.9780    8.0400   17.1310 H   0  0  0  0  0  0  0  0  0  0  0  0
    5.4040    3.0330   16.5980 H   0  0  0  0  0  0  0  0  0  0  0  0
    2.1220    3.5150   19.2710 H   0  0  0  0  0  0  0  0  0  0  0  0
    5.6980    5.7510   16.0030 C   0  0  0  0  0  0  0  0  0  0  0  0
    6.5150    6.5980   16.6800 F   0  0  0  0  0  0  0  0  0  0  0  0
    6.5030    4.8810   15.3390 F   0  0  0  0  0  0  0  0  0  0  0  0
    5.0660    6.4950   15.0570 F   0  0  0  0  0  0  0  0  0  0  0  0
    0.1230   11.7570   21.4920 C   0  0  0  0  0  0  0  0  0  0  0  0
   -0.6670   11.4150   22.5940 C   0  0  0  0  0  0  0  0  0  0  0  0
   -0.7710   10.0830   22.9960 C   0  0  0  0  0  0  0  0  0  0  0  0
   -0.0980    9.0770   22.2960 C   0  0  0  0  0  0  0  0  0  0  0  0
    0.6760    9.3900   21.1800 C   0  0  0  0  0  0  0  0  0  0  0  0
    0.7750   10.7320   20.7850 C   0  0  0  0  0  0  0  0  0  0  0  0
   -1.2330   12.1660   23.1380 H   0  0  0  0  0  0  0  0  0  0  0  0
   -1.3900    9.8180   23.8520 H   0  0  0  0  0  0  0  0  0  0  0  0
   -0.2190    8.0560   22.6450 H   0  0  0  0  0  0  0  0  0  0  0  0
    1.3680   11.0020   19.9110 H   0  0  0  0  0  0  0  0  0  0  0  0
   -0.0800   13.6400   19.8000 N   0  0  0  0  0  0  0  0  0  0  0  0
    0.1950   14.9540   19.7480 N   0  0  0  0  0  0  0  0  0  0  0  0
    0.6690   15.2570   20.9460 N   0  0  0  0  0  0  0  0  0  0  0  0
    0.7010   14.1510   21.7540 N   0  0  0  0  0  0  0  0  0  0  0  0
    0.2630   13.1350   21.0300 C   0  0  0  0  0  0  0  0  0  0  0  0
   -0.7220   13.0020   18.6850 C   0  0  0  0  0  0  0  0  0  0  0  0
   -1.1900   12.0730   19.0200 H   0  0  0  0  0  0  0  0  0  0  0  0
    0.0220   12.7690   17.9190 H   0  0  0  0  0  0  0  0  0  0  0  0
   -1.4830   13.6810   18.2920 H   0  0  0  0  0  0  0  0  0  0  0  0
  1  4  1  0  0  0  0
  1 26  1  0  0  0  0
  2  1  1  0  0  0  0
  3  2  2  0  0  0  0
  5 14  1  0  0  0  0
  5  2  1  0  0  0  0
  6  5  2  0  0  0  0
  7  6  1  0  0  0  0
  7 13  2  0  0  0  0
  8  9  2  0  0  0  0
  8  7  1  0  0  0  0
  9 10  1  0  0  0  0
 10 11  2  0  0  0  0
 10 12  1  0  0  0  0
 12 17  1  0  0  0  0
 13 12  1  0  0  0  0
 13 14  1  0  0  0  0
 15  6  1  0  0  0  0
 16  9  1  0  0  0  0
 18 19  1  0  0  0  0
 18  8  1  0  0  0  0
 20 18  1  0  0  0  0
 21 18  1  0  0  0  0
 22 23  1  0  0  0  0
 23 24  2  0  0  0  0
 23 28  1  0  0  0  0
 24 29  1  0  0  0  0
 25 30  1  0  0  0  0
 25 24  1  0  0  0  0
 26 25  2  0  0  0  0
 27 26  1  0  0  0  0
 27 22  2  0  0  0  0
 31 27  1  0  0  0  0
 32 36  1  0  0  0  0
 33 32  1  0  0  0  0
 33 34  2  0  0  0  0
 34 35  1  0  0  0  0
 36 22  1  0  0  0  0
 36 35  2  0  0  0  0
 37 38  1  0  0  0  0
 37 32  1  0  0  0  0
 39 37  1  0  0  0  0
 40 37  1  0  0  0  0
M  END
>  <MODEL>
13

>  <REMARK>
 VINA RESULT:    -7.993      2.674      3.334
 INTER + INTRA:         -10.581
 INTER:                 -10.443
 INTRA:                  -0.138
 UNBOUND:                -0.486
  Name = 
  5 active torsions:
  status: ('A' for Active; 'I' for Inactive)
    1  A    between atoms: C_1  and  N_2
    2  A    between atoms: C_6  and  C_7
    3  A    between atoms: C_11  and  N_12
    4  A    between atoms: C_13  and  C_15
    5  A    between atoms: C_18  and  C_19
                            x       y       z     vdW  Elec       q    Type
                         _______ _______ _______ _____ _____    ______ ____

>  <TORSDO>
F 5

$$$$
=
 OpenBabel07192307433D

 40 43  0  0  0  0  0  0  0  0999 V2000
    2.1130    6.5560   18.7950 N   0  0  0  0  0  0  0  0  0  0  0  0
    2.3510    7.8280   18.2910 C   0  0  0  0  0  0  0  0  0  0  0  0
    3.1370    8.0730   17.3800 O   0  0  0  0  0  0  0  0  0  0  0  0
    1.4730    6.4830   19.5720 H   0  0  0  0  0  0  0  0  0  0  0  0
    1.5870    8.8830   18.9490 C   0  0  0  0  0  0  0  0  0  0  0  0
    1.1160   10.1310   18.5410 C   0  0  0  0  0  0  0  0  0  0  0  0
    0.4410   10.6820   19.6490 C   0  0  0  0  0  0  0  0  0  0  0  0
   -0.2600   11.8890   19.9300 C   0  0  0  0  0  0  0  0  0  0  0  0
   -0.7920   12.0690   21.1590 C   0  0  0  0  0  0  0  0  0  0  0  0
   -0.6570   11.0200   22.2280 C   0  0  0  0  0  0  0  0  0  0  0  0
   -1.1500   11.2090   23.3340 O   0  0  0  0  0  0  0  0  0  0  0  0
    0.0290    9.8730   21.9050 N   0  0  0  0  0  0  0  0  0  0  0  0
    0.5380    9.7580   20.6510 C   0  0  0  0  0  0  0  0  0  0  0  0
    1.2200    8.6680   20.2640 O   0  0  0  0  0  0  0  0  0  0  0  0
    1.2500   10.5820   17.5670 H   0  0  0  0  0  0  0  0  0  0  0  0
   -1.3390   12.9610   21.4440 H   0  0  0  0  0  0  0  0  0  0  0  0
    0.1500    9.1370   22.5870 H   0  0  0  0  0  0  0  0  0  0  0  0
   -0.3580   12.8860   18.8240 C   0  0  0  0  0  0  0  0  0  0  0  0
    0.8550   13.2150   18.3100 F   0  0  0  0  0  0  0  0  0  0  0  0
   -1.1080   12.4270   17.7880 F   0  0  0  0  0  0  0  0  0  0  0  0
   -0.9330   14.0470   19.2370 F   0  0  0  0  0  0  0  0  0  0  0  0
    4.3830    4.2550   16.9760 C   0  0  0  0  0  0  0  0  0  0  0  0
    3.9290    3.0060   17.4100 C   0  0  0  0  0  0  0  0  0  0  0  0
    2.8510    2.9180   18.2910 C   0  0  0  0  0  0  0  0  0  0  0  0
    2.2220    4.0760   18.7570 C   0  0  0  0  0  0  0  0  0  0  0  0
    2.6710    5.3340   18.3590 C   0  0  0  0  0  0  0  0  0  0  0  0
    3.7550    5.4110   17.4720 C   0  0  0  0  0  0  0  0  0  0  0  0
    4.4180    2.0870   17.0970 H   0  0  0  0  0  0  0  0  0  0  0  0
    2.5010    1.9450   18.6300 H   0  0  0  0  0  0  0  0  0  0  0  0
    1.3920    3.9530   19.4470 H   0  0  0  0  0  0  0  0  0  0  0  0
    4.1290    6.3820   17.1510 H   0  0  0  0  0  0  0  0  0  0  0  0
    6.8260    4.6080   16.3800 N   0  0  0  0  0  0  0  0  0  0  0  0
    7.5680    4.6870   15.2640 N   0  0  0  0  0  0  0  0  0  0  0  0
    6.7180    4.4980   14.2670 N   0  0  0  0  0  0  0  0  0  0  0  0
    5.4460    4.3010   14.7400 N   0  0  0  0  0  0  0  0  0  0  0  0
    5.5070    4.4010   16.0570 C   0  0  0  0  0  0  0  0  0  0  0  0
    7.4650    4.6590   17.6650 C   0  0  0  0  0  0  0  0  0  0  0  0
    6.8190    4.1890   18.4100 H   0  0  0  0  0  0  0  0  0  0  0  0
    7.6350    5.7010   17.9480 H   0  0  0  0  0  0  0  0  0  0  0  0
    8.4120    4.1170   17.6000 H   0  0  0  0  0  0  0  0  0  0  0  0
  1  4  1  0  0  0  0
  2  1  1  0  0  0  0
  2  5  1  0  0  0  0
  3  2  2  0  0  0  0
  5 14  1  0  0  0  0
  6  5  2  0  0  0  0
  6  7  1  0  0  0  0
  7  8  1  0  0  0  0
  7 13  2  0  0  0  0
  8  9  2  0  0  0  0
  9 16  1  0  0  0  0
  9 10  1  0  0  0  0
 10 11  2  0  0  0  0
 12 10  1  0  0  0  0
 12 17  1  0  0  0  0
 13 12  1  0  0  0  0
 14 13  1  0  0  0  0
 15  6  1  0  0  0  0
 18 21  1  0  0  0  0
 18  8  1  0  0  0  0
 19 18  1  0  0  0  0
 20 18  1  0  0  0  0
 22 23  2  0  0  0  0
 22 27  1  0  0  0  0
 23 24  1  0  0  0  0
 24 29  1  0  0  0  0
 24 25  2  0  0  0  0
 25 30  1  0  0  0  0
 26 25  1  0  0  0  0
 26  1  1  0  0  0  0
 27 26  2  0  0  0  0
 28 23  1  0  0  0  0
 31 27  1  0  0  0  0
 32 37  1  0  0  0  0
 33 32  1  0  0  0  0
 34 35  1  0  0  0  0
 34 33  2  0  0  0  0
 35 36  2  0  0  0  0
 36 32  1  0  0  0  0
 36 22  1  0  0  0  0
 37 39  1  0  0  0  0
 37 38  1  0  0  0  0
 40 37  1  0  0  0  0
M  END
>  <MODEL>
14

>  <REMARK>
 VINA RESULT:    -7.991      4.344      9.263
 INTER + INTRA:         -10.579
 INTER:                 -10.508
 INTRA:                  -0.071
 UNBOUND:                -0.486
  Name = 
  5 active torsions:
  status: ('A' for Active; 'I' for Inactive)
    1  A    between atoms: C_1  and  N_2
    2  A    between atoms: C_6  and  C_7
    3  A    between atoms: C_11  and  N_12
    4  A    between atoms: C_13  and  C_15
    5  A    between atoms: C_18  and  C_19
                            x       y       z     vdW  Elec       q    Type
                         _______ _______ _______ _____ _____    ______ ____

>  <TORSDO>
F 5

$$$$
=
 OpenBabel07192307433D

 40 43  0  0  0  0  0  0  0  0999 V2000
    1.3040    9.0420   18.3200 N   0  0  0  0  0  0  0  0  0  0  0  0
    1.7630    8.1400   19.2720 C   0  0  0  0  0  0  0  0  0  0  0  0
    1.6030    8.2750   20.4810 O   0  0  0  0  0  0  0  0  0  0  0  0
    1.5290    8.8450   17.3560 H   0  0  0  0  0  0  0  0  0  0  0  0
    2.4780    6.9970   18.7140 C   0  0  0  0  0  0  0  0  0  0  0  0
    3.5120    6.8640   17.7870 C   0  0  0  0  0  0  0  0  0  0  0  0
    3.7610    5.4820   17.6660 C   0  0  0  0  0  0  0  0  0  0  0  0
    4.6530    4.6600   16.9210 C   0  0  0  0  0  0  0  0  0  0  0  0
    4.5930    3.3190   17.0740 C   0  0  0  0  0  0  0  0  0  0  0  0
    3.6040    2.6850   18.0130 C   0  0  0  0  0  0  0  0  0  0  0  0
    3.5720    1.4660   18.1330 O   0  0  0  0  0  0  0  0  0  0  0  0
    2.7660    3.5240   18.7090 N   0  0  0  0  0  0  0  0  0  0  0  0
    2.8810    4.8620   18.5070 C   0  0  0  0  0  0  0  0  0  0  0  0
    2.0960    5.7420   19.1500 O   0  0  0  0  0  0  0  0  0  0  0  0
    4.0150    7.6670   17.2650 H   0  0  0  0  0  0  0  0  0  0  0  0
    5.2410    2.6310   16.5410 H   0  0  0  0  0  0  0  0  0  0  0  0
    2.0820    3.1500   19.3520 H   0  0  0  0  0  0  0  0  0  0  0  0
    5.6090    5.3530   16.0080 C   0  0  0  0  0  0  0  0  0  0  0  0
    4.9810    6.1470   15.1030 F   0  0  0  0  0  0  0  0  0  0  0  0
    6.4760    6.1490   16.6880 F   0  0  0  0  0  0  0  0  0  0  0  0
    6.3620    4.4730   15.2980 F   0  0  0  0  0  0  0  0  0  0  0  0
    0.5820   12.5090   19.4200 C   0  0  0  0  0  0  0  0  0  0  0  0
   -0.7470   12.6650   19.0150 C   0  0  0  0  0  0  0  0  0  0  0  0
   -1.4200   11.6120   18.3950 C   0  0  0  0  0  0  0  0  0  0  0  0
   -0.7700   10.3970   18.1620 C   0  0  0  0  0  0  0  0  0  0  0  0
    0.5610   10.2240   18.5340 C   0  0  0  0  0  0  0  0  0  0  0  0
    1.2280   11.2880   19.1580 C   0  0  0  0  0  0  0  0  0  0  0  0
   -1.2710   13.6080   19.1460 H   0  0  0  0  0  0  0  0  0  0  0  0
   -2.4530   11.7370   18.0760 H   0  0  0  0  0  0  0  0  0  0  0  0
   -1.3360    9.6120   17.6680 H   0  0  0  0  0  0  0  0  0  0  0  0
    2.2720   11.1810   19.4540 H   0  0  0  0  0  0  0  0  0  0  0  0
    2.2770   14.3980   19.5060 N   0  0  0  0  0  0  0  0  0  0  0  0
    2.7430   15.2660   20.4190 N   0  0  0  0  0  0  0  0  0  0  0  0
    2.0630   15.0050   21.5240 N   0  0  0  0  0  0  0  0  0  0  0  0
    1.1750   13.9800   21.3220 N   0  0  0  0  0  0  0  0  0  0  0  0
    1.3300   13.5800   20.0710 C   0  0  0  0  0  0  0  0  0  0  0  0
    2.7290   14.4850   18.1460 C   0  0  0  0  0  0  0  0  0  0  0  0
    2.1540   13.7900   17.5280 H   0  0  0  0  0  0  0  0  0  0  0  0
    3.7860   14.2140   18.0930 H   0  0  0  0  0  0  0  0  0  0  0  0
    2.5740   15.5080   17.7960 H   0  0  0  0  0  0  0  0  0  0  0  0
  1 26  1  0  0  0  0
  1  2  1  0  0  0  0
  2  3  2  0  0  0  0
  4  1  1  0  0  0  0
  5 14  1  0  0  0  0
  5  2  1  0  0  0  0
  6  5  2  0  0  0  0
  7  6  1  0  0  0  0
  7 13  2  0  0  0  0
  8  9  2  0  0  0  0
  8  7  1  0  0  0  0
  9 10  1  0  0  0  0
 10 11  2  0  0  0  0
 10 12  1  0  0  0  0
 12 17  1  0  0  0  0
 13 12  1  0  0  0  0
 13 14  1  0  0  0  0
 15  6  1  0  0  0  0
 16  9  1  0  0  0  0
 18 20  1  0  0  0  0
 18  8  1  0  0  0  0
 19 18  1  0  0  0  0
 21 18  1  0  0  0  0
 22 36  1  0  0  0  0
 23 28  1  0  0  0  0
 23 22  2  0  0  0  0
 24 23  1  0  0  0  0
 25 24  2  0  0  0  0
 25 26  1  0  0  0  0
 26 27  2  0  0  0  0
 27 22  1  0  0  0  0
 27 31  1  0  0  0  0
 29 24  1  0  0  0  0
 30 25  1  0  0  0  0
 32 36  1  0  0  0  0
 32 33  1  0  0  0  0
 33 34  2  0  0  0  0
 35 34  1  0  0  0  0
 36 35  2  0  0  0  0
 37 32  1  0  0  0  0
 38 37  1  0  0  0  0
 39 37  1  0  0  0  0
 40 37  1  0  0  0  0
M  END
>  <MODEL>
15

>  <REMARK>
 VINA RESULT:    -7.925      2.433      3.500
 INTER + INTRA:         -10.496
 INTER:                  -9.844
 INTRA:                  -0.652
 UNBOUND:                -0.486
  Name = 
  5 active torsions:
  status: ('A' for Active; 'I' for Inactive)
    1  A    between atoms: C_1  and  N_2
    2  A    between atoms: C_6  and  C_7
    3  A    between atoms: C_11  and  N_12
    4  A    between atoms: C_13  and  C_15
    5  A    between atoms: C_18  and  C_19
                            x       y       z     vdW  Elec       q    Type
                         _______ _______ _______ _____ _____    ______ ____

>  <TORSDO>
F 5

$$$$
=
 OpenBabel07192307433D

 40 43  0  0  0  0  0  0  0  0999 V2000
    1.1210    8.5540   18.7670 N   0  0  0  0  0  0  0  0  0  0  0  0
    2.2740    7.9920   18.2330 C   0  0  0  0  0  0  0  0  0  0  0  0
    3.0790    8.6030   17.5350 O   0  0  0  0  0  0  0  0  0  0  0  0
    0.5150    7.9420   19.2930 H   0  0  0  0  0  0  0  0  0  0  0  0
    2.4580    6.5820   18.5600 C   0  0  0  0  0  0  0  0  0  0  0  0
    2.1340    5.7990   19.6690 C   0  0  0  0  0  0  0  0  0  0  0  0
    2.5800    4.4940   19.3760 C   0  0  0  0  0  0  0  0  0  0  0  0
    2.5760    3.2330   20.0370 C   0  0  0  0  0  0  0  0  0  0  0  0
    3.1200    2.1640   19.4170 C   0  0  0  0  0  0  0  0  0  0  0  0
    3.7260    2.2830   18.0460 C   0  0  0  0  0  0  0  0  0  0  0  0
    4.2120    1.2960   17.5060 O   0  0  0  0  0  0  0  0  0  0  0  0
    3.7040    3.5220   17.4510 N   0  0  0  0  0  0  0  0  0  0  0  0
    3.1420    4.5540   18.1320 C   0  0  0  0  0  0  0  0  0  0  0  0
    3.0850    5.7920   17.6150 O   0  0  0  0  0  0  0  0  0  0  0  0
    1.6420    6.1340   20.5720 H   0  0  0  0  0  0  0  0  0  0  0  0
    3.1510    1.1740   19.8590 H   0  0  0  0  0  0  0  0  0  0  0  0
    4.0990    3.6580   16.5310 H   0  0  0  0  0  0  0  0  0  0  0  0
    1.9570    3.1850   21.3950 C   0  0  0  0  0  0  0  0  0  0  0  0
    2.1210    1.9800   22.0000 F   0  0  0  0  0  0  0  0  0  0  0  0
    2.4900    4.1150   22.2310 F   0  0  0  0  0  0  0  0  0  0  0  0
    0.6200    3.4210   21.3520 F   0  0  0  0  0  0  0  0  0  0  0  0
   -1.2300   11.3750   18.2560 C   0  0  0  0  0  0  0  0  0  0  0  0
   -0.3920   12.4800   18.4310 C   0  0  0  0  0  0  0  0  0  0  0  0
    0.9660   12.2950   18.6970 C   0  0  0  0  0  0  0  0  0  0  0  0
    1.4980   11.0070   18.8020 C   0  0  0  0  0  0  0  0  0  0  0  0
    0.6780    9.8900   18.6550 C   0  0  0  0  0  0  0  0  0  0  0  0
   -0.6850   10.0860   18.3880 C   0  0  0  0  0  0  0  0  0  0  0  0
   -0.7780   13.4950   18.3930 H   0  0  0  0  0  0  0  0  0  0  0  0
    1.6160   13.1570   18.8370 H   0  0  0  0  0  0  0  0  0  0  0  0
    2.5580   10.9180   19.0170 H   0  0  0  0  0  0  0  0  0  0  0  0
   -1.3490    9.2290   18.2760 H   0  0  0  0  0  0  0  0  0  0  0  0
   -3.3000   11.2850   16.7870 N   0  0  0  0  0  0  0  0  0  0  0  0
   -4.6170   11.5170   16.9210 N   0  0  0  0  0  0  0  0  0  0  0  0
   -4.7830   11.8520   18.1900 N   0  0  0  0  0  0  0  0  0  0  0  0
   -3.5870   11.8370   18.8610 N   0  0  0  0  0  0  0  0  0  0  0  0
   -2.6570   11.5140   17.9790 C   0  0  0  0  0  0  0  0  0  0  0  0
   -2.7880   10.7870   15.5420 C   0  0  0  0  0  0  0  0  0  0  0  0
   -2.9980    9.7160   15.4660 H   0  0  0  0  0  0  0  0  0  0  0  0
   -1.7070   10.9400   15.5030 H   0  0  0  0  0  0  0  0  0  0  0  0
   -3.2850   11.3200   14.7280 H   0  0  0  0  0  0  0  0  0  0  0  0
  1  4  1  0  0  0  0
  2  5  1  0  0  0  0
  2  1  1  0  0  0  0
  3  2  2  0  0  0  0
  5  6  2  0  0  0  0
  6 15  1  0  0  0  0
  7  6  1  0  0  0  0
  7  8  1  0  0  0  0
  8 18  1  0  0  0  0
  9 16  1  0  0  0  0
  9  8  2  0  0  0  0
 10  9  1  0  0  0  0
 11 10  2  0  0  0  0
 12 10  1  0  0  0  0
 12 13  1  0  0  0  0
 13  7  2  0  0  0  0
 14 13  1  0  0  0  0
 14  5  1  0  0  0  0
 17 12  1  0  0  0  0
 18 19  1  0  0  0  0
 18 20  1  0  0  0  0
 21 18  1  0  0  0  0
 22 27  2  0  0  0  0
 22 23  1  0  0  0  0
 23 24  2  0  0  0  0
 24 25  1  0  0  0  0
 24 29  1  0  0  0  0
 25 30  1  0  0  0  0
 26  1  1  0  0  0  0
 26 25  2  0  0  0  0
 27 26  1  0  0  0  0
 28 23  1  0  0  0  0
 31 27  1  0  0  0  0
 32 33  1  0  0  0  0
 32 36  1  0  0  0  0
 33 34  2  0  0  0  0
 34 35  1  0  0  0  0
 36 22  1  0  0  0  0
 36 35  2  0  0  0  0
 37 32  1  0  0  0  0
 38 37  1  0  0  0  0
 39 37  1  0  0  0  0
 40 37  1  0  0  0  0
M  END
>  <MODEL>
16

>  <REMARK>
 VINA RESULT:    -7.920      2.844      3.298
 INTER + INTRA:         -10.489
 INTER:                 -10.030
 INTRA:                  -0.458
 UNBOUND:                -0.486
  Name = 
  5 active torsions:
  status: ('A' for Active; 'I' for Inactive)
    1  A    between atoms: C_1  and  N_2
    2  A    between atoms: C_6  and  C_7
    3  A    between atoms: C_11  and  N_12
    4  A    between atoms: C_13  and  C_15
    5  A    between atoms: C_18  and  C_19
                            x       y       z     vdW  Elec       q    Type
                         _______ _______ _______ _____ _____    ______ ____

>  <TORSDO>
F 5

$$$$
=
 OpenBabel07192307433D

 40 43  0  0  0  0  0  0  0  0999 V2000
    0.5880    9.1750   18.6770 N   0  0  0  0  0  0  0  0  0  0  0  0
    1.8800    9.3020   18.1800 C   0  0  0  0  0  0  0  0  0  0  0  0
    2.3580   10.3540   17.7650 O   0  0  0  0  0  0  0  0  0  0  0  0
    0.2930    8.2500   18.9530 H   0  0  0  0  0  0  0  0  0  0  0  0
    2.6430    8.0580   18.1770 C   0  0  0  0  0  0  0  0  0  0  0  0
    3.6840    7.5670   17.3890 C   0  0  0  0  0  0  0  0  0  0  0  0
    3.9910    6.2860   17.8900 C   0  0  0  0  0  0  0  0  0  0  0  0
    4.9180    5.2530   17.5740 C   0  0  0  0  0  0  0  0  0  0  0  0
    4.9130    4.1190   18.3070 C   0  0  0  0  0  0  0  0  0  0  0  0
    3.9500    3.9310   19.4460 C   0  0  0  0  0  0  0  0  0  0  0  0
    3.9680    2.8920   20.0960 O   0  0  0  0  0  0  0  0  0  0  0  0
    3.0760    4.9590   19.7110 N   0  0  0  0  0  0  0  0  0  0  0  0
    3.1350    6.0710   18.9330 C   0  0  0  0  0  0  0  0  0  0  0  0
    2.3130    7.1140   19.1310 O   0  0  0  0  0  0  0  0  0  0  0  0
    4.1550    8.0730   16.5570 H   0  0  0  0  0  0  0  0  0  0  0  0
    5.5900    3.2910   18.1250 H   0  0  0  0  0  0  0  0  0  0  0  0
    2.4060    4.8840   20.4640 H   0  0  0  0  0  0  0  0  0  0  0  0
    5.8460    5.5050   16.4330 C   0  0  0  0  0  0  0  0  0  0  0  0
    5.1900    5.8340   15.2900 F   0  0  0  0  0  0  0  0  0  0  0  0
    6.7090    6.5220   16.6930 F   0  0  0  0  0  0  0  0  0  0  0  0
    6.6050    4.4140   16.1450 F   0  0  0  0  0  0  0  0  0  0  0  0
   -1.1230   12.1080   20.1650 C   0  0  0  0  0  0  0  0  0  0  0  0
   -2.1970   12.2870   19.2880 C   0  0  0  0  0  0  0  0  0  0  0  0
   -2.3740   11.4180   18.2100 C   0  0  0  0  0  0  0  0  0  0  0  0
   -1.4750   10.3720   17.9890 C   0  0  0  0  0  0  0  0  0  0  0  0
   -0.3820   10.1880   18.8350 C   0  0  0  0  0  0  0  0  0  0  0  0
   -0.2140   11.0660   19.9160 C   0  0  0  0  0  0  0  0  0  0  0  0
   -2.8940   13.1110   19.4080 H   0  0  0  0  0  0  0  0  0  0  0  0
   -3.2090   11.5610   17.5260 H   0  0  0  0  0  0  0  0  0  0  0  0
   -1.6530    9.7290   17.1320 H   0  0  0  0  0  0  0  0  0  0  0  0
    0.6360   10.9480   20.5880 H   0  0  0  0  0  0  0  0  0  0  0  0
   -1.4850   12.9240   22.5430 N   0  0  0  0  0  0  0  0  0  0  0  0
   -1.0160   13.9040   23.3330 N   0  0  0  0  0  0  0  0  0  0  0  0
   -0.1200   14.5430   22.5980 N   0  0  0  0  0  0  0  0  0  0  0  0
   -0.0180   13.9810   21.3520 N   0  0  0  0  0  0  0  0  0  0  0  0
   -0.8920   12.9900   21.3060 C   0  0  0  0  0  0  0  0  0  0  0  0
   -2.4060   11.9600   23.0750 C   0  0  0  0  0  0  0  0  0  0  0  0
   -2.4000   11.0660   22.4450 H   0  0  0  0  0  0  0  0  0  0  0  0
   -3.4140   12.3820   23.0830 H   0  0  0  0  0  0  0  0  0  0  0  0
   -2.0880   11.7020   24.0880 H   0  0  0  0  0  0  0  0  0  0  0  0
  1 26  1  0  0  0  0
  1  4  1  0  0  0  0
  2  1  1  0  0  0  0
  3  2  2  0  0  0  0
  5  2  1  0  0  0  0
  5 14  1  0  0  0  0
  6  7  1  0  0  0  0
  6  5  2  0  0  0  0
  7 13  2  0  0  0  0
  8  7  1  0  0  0  0
  8  9  2  0  0  0  0
  9 10  1  0  0  0  0
 10 12  1  0  0  0  0
 10 11  2  0  0  0  0
 12 17  1  0  0  0  0
 13 14  1  0  0  0  0
 13 12  1  0  0  0  0
 15  6  1  0  0  0  0
 16  9  1  0  0  0  0
 18 20  1  0  0  0  0
 18  8  1  0  0  0  0
 19 18  1  0  0  0  0
 21 18  1  0  0  0  0
 22 36  1  0  0  0  0
 23 28  1  0  0  0  0
 23 22  2  0  0  0  0
 24 23  1  0  0  0  0
 25 24  2  0  0  0  0
 25 26  1  0  0  0  0
 26 27  2  0  0  0  0
 27 22  1  0  0  0  0
 27 31  1  0  0  0  0
 29 24  1  0  0  0  0
 30 25  1  0  0  0  0
 32 37  1  0  0  0  0
 32 33  1  0  0  0  0
 34 33  2  0  0  0  0
 35 34  1  0  0  0  0
 36 35  2  0  0  0  0
 36 32  1  0  0  0  0
 37 39  1  0  0  0  0
 37 40  1  0  0  0  0
 38 37  1  0  0  0  0
M  END
>  <MODEL>
17

>  <REMARK>
 VINA RESULT:    -7.917      2.574      3.374
 INTER + INTRA:         -10.486
 INTER:                  -9.784
 INTRA:                  -0.701
 UNBOUND:                -0.486
  Name = 
  5 active torsions:
  status: ('A' for Active; 'I' for Inactive)
    1  A    between atoms: C_1  and  N_2
    2  A    between atoms: C_6  and  C_7
    3  A    between atoms: C_11  and  N_12
    4  A    between atoms: C_13  and  C_15
    5  A    between atoms: C_18  and  C_19
                            x       y       z     vdW  Elec       q    Type
                         _______ _______ _______ _____ _____    ______ ____

>  <TORSDO>
F 5

$$$$
=
 OpenBabel07192307433D

 40 43  0  0  0  0  0  0  0  0999 V2000
    2.1820    7.0810   19.8830 N   0  0  0  0  0  0  0  0  0  0  0  0
    2.0150    8.0570   18.9100 C   0  0  0  0  0  0  0  0  0  0  0  0
    2.4060    7.9490   17.7510 O   0  0  0  0  0  0  0  0  0  0  0  0
    1.8530    7.2990   20.8120 H   0  0  0  0  0  0  0  0  0  0  0  0
    1.3330    9.2590   19.3800 C   0  0  0  0  0  0  0  0  0  0  0  0
    0.9940   10.4730   18.7830 C   0  0  0  0  0  0  0  0  0  0  0  0
    0.3400   11.2330   19.7730 C   0  0  0  0  0  0  0  0  0  0  0  0
   -0.2530   12.5250   19.8520 C   0  0  0  0  0  0  0  0  0  0  0  0
   -0.8030   12.9250   21.0190 C   0  0  0  0  0  0  0  0  0  0  0  0
   -0.8000   12.0320   22.2290 C   0  0  0  0  0  0  0  0  0  0  0  0
   -1.3070   12.4190   23.2740 O   0  0  0  0  0  0  0  0  0  0  0  0
   -0.2160   10.7940   22.0990 N   0  0  0  0  0  0  0  0  0  0  0  0
    0.3190   10.4570   20.8960 C   0  0  0  0  0  0  0  0  0  0  0  0
    0.9070    9.2670   20.6960 O   0  0  0  0  0  0  0  0  0  0  0  0
    1.2000   10.7670   17.7620 H   0  0  0  0  0  0  0  0  0  0  0  0
   -1.2730   13.8940   21.1530 H   0  0  0  0  0  0  0  0  0  0  0  0
   -0.1850   10.1550   22.8810 H   0  0  0  0  0  0  0  0  0  0  0  0
   -0.2220   13.3600   18.6150 C   0  0  0  0  0  0  0  0  0  0  0  0
   -1.0000   12.8520   17.6240 F   0  0  0  0  0  0  0  0  0  0  0  0
   -0.6610   14.6250   18.8430 F   0  0  0  0  0  0  0  0  0  0  0  0
    1.0330   13.4680   18.1060 F   0  0  0  0  0  0  0  0  0  0  0  0
    4.3780    4.4360   18.4930 C   0  0  0  0  0  0  0  0  0  0  0  0
    4.0800    3.3520   19.3240 C   0  0  0  0  0  0  0  0  0  0  0  0
    3.1290    3.4850   20.3360 C   0  0  0  0  0  0  0  0  0  0  0  0
    2.4760    4.7040   20.5380 C   0  0  0  0  0  0  0  0  0  0  0  0
    2.7740    5.8070   19.7390 C   0  0  0  0  0  0  0  0  0  0  0  0
    3.7300    5.6620   18.7230 C   0  0  0  0  0  0  0  0  0  0  0  0
    4.5950    2.4010   19.2190 H   0  0  0  0  0  0  0  0  0  0  0  0
    2.9010    2.6410   20.9850 H   0  0  0  0  0  0  0  0  0  0  0  0
    1.7510    4.7580   21.3450 H   0  0  0  0  0  0  0  0  0  0  0  0
    3.9850    6.5100   18.0890 H   0  0  0  0  0  0  0  0  0  0  0  0
    6.6710    4.7740   17.4540 N   0  0  0  0  0  0  0  0  0  0  0  0
    7.2690    4.5210   16.2780 N   0  0  0  0  0  0  0  0  0  0  0  0
    6.3490    3.9170   15.5430 N   0  0  0  0  0  0  0  0  0  0  0  0
    5.1750    3.7860   16.2390 N   0  0  0  0  0  0  0  0  0  0  0  0
    5.3650    4.3490   17.4210 C   0  0  0  0  0  0  0  0  0  0  0  0
    7.4340    5.3330   18.5340 C   0  0  0  0  0  0  0  0  0  0  0  0
    8.1650    6.0400   18.1340 H   0  0  0  0  0  0  0  0  0  0  0  0
    7.9630    4.5340   19.0600 H   0  0  0  0  0  0  0  0  0  0  0  0
    6.7470    5.8510   19.2080 H   0  0  0  0  0  0  0  0  0  0  0  0
  1  4  1  0  0  0  0
  2  5  1  0  0  0  0
  2  1  1  0  0  0  0
  3  2  2  0  0  0  0
  5 14  1  0  0  0  0
  6  5  2  0  0  0  0
  6  7  1  0  0  0  0
  7  8  1  0  0  0  0
  7 13  2  0  0  0  0
  8  9  2  0  0  0  0
  9 16  1  0  0  0  0
  9 10  1  0  0  0  0
 10 11  2  0  0  0  0
 12 10  1  0  0  0  0
 12 17  1  0  0  0  0
 13 12  1  0  0  0  0
 14 13  1  0  0  0  0
 15  6  1  0  0  0  0
 18 20  1  0  0  0  0
 18  8  1  0  0  0  0
 19 18  1  0  0  0  0
 21 18  1  0  0  0  0
 22 27  2  0  0  0  0
 22 23  1  0  0  0  0
 23 24  2  0  0  0  0
 24 25  1  0  0  0  0
 24 29  1  0  0  0  0
 25 30  1  0  0  0  0
 26  1  1  0  0  0  0
 26 25  2  0  0  0  0
 27 26  1  0  0  0  0
 28 23  1  0  0  0  0
 31 27  1  0  0  0  0
 32 37  1  0  0  0  0
 33 32  1  0  0  0  0
 34 35  1  0  0  0  0
 34 33  2  0  0  0  0
 35 36  2  0  0  0  0
 36 32  1  0  0  0  0
 36 22  1  0  0  0  0
 37 39  1  0  0  0  0
 37 40  1  0  0  0  0
 38 37  1  0  0  0  0
M  END
>  <MODEL>
18

>  <REMARK>
 VINA RESULT:    -7.822      4.377      9.328
 INTER + INTRA:         -10.365
 INTER:                 -10.209
 INTRA:                  -0.156
 UNBOUND:                -0.486
  Name = 
  5 active torsions:
  status: ('A' for Active; 'I' for Inactive)
    1  A    between atoms: C_1  and  N_2
    2  A    between atoms: C_6  and  C_7
    3  A    between atoms: C_11  and  N_12
    4  A    between atoms: C_13  and  C_15
    5  A    between atoms: C_18  and  C_19
                            x       y       z     vdW  Elec       q    Type
                         _______ _______ _______ _____ _____    ______ ____

>  <TORSDO>
F 5

$$$$
=
 OpenBabel07192307433D

 40 43  0  0  0  0  0  0  0  0999 V2000
    1.2140    9.1590   19.3740 N   0  0  0  0  0  0  0  0  0  0  0  0
    1.9940    8.5040   18.4300 C   0  0  0  0  0  0  0  0  0  0  0  0
    2.4210    9.0280   17.4060 O   0  0  0  0  0  0  0  0  0  0  0  0
    0.8880    8.6130   20.1580 H   0  0  0  0  0  0  0  0  0  0  0  0
    2.2650    7.1050   18.7470 C   0  0  0  0  0  0  0  0  0  0  0  0
    2.7540    6.0260   18.0100 C   0  0  0  0  0  0  0  0  0  0  0  0
    2.7840    4.9260   18.8910 C   0  0  0  0  0  0  0  0  0  0  0  0
    3.1610    3.5550   18.8110 C   0  0  0  0  0  0  0  0  0  0  0  0
    3.0430    2.7760   19.9080 C   0  0  0  0  0  0  0  0  0  0  0  0
    2.5240    3.3320   21.2060 C   0  0  0  0  0  0  0  0  0  0  0  0
    2.4290    2.6030   22.1870 O   0  0  0  0  0  0  0  0  0  0  0  0
    2.1760    4.6610   21.2300 N   0  0  0  0  0  0  0  0  0  0  0  0
    2.3190    5.3860   20.0900 C   0  0  0  0  0  0  0  0  0  0  0  0
    1.9980    6.6880   20.0380 O   0  0  0  0  0  0  0  0  0  0  0  0
    3.0470    6.0380   16.9690 H   0  0  0  0  0  0  0  0  0  0  0  0
    3.3110    1.7250   19.9220 H   0  0  0  0  0  0  0  0  0  0  0  0
    1.8200    5.0840   22.0760 H   0  0  0  0  0  0  0  0  0  0  0  0
    3.6690    3.0700   17.4940 C   0  0  0  0  0  0  0  0  0  0  0  0
    2.7770    3.2640   16.4880 F   0  0  0  0  0  0  0  0  0  0  0  0
    4.8150    3.7000   17.1260 F   0  0  0  0  0  0  0  0  0  0  0  0
    3.9460    1.7390   17.5160 F   0  0  0  0  0  0  0  0  0  0  0  0
   -0.9610   12.1030   19.9660 C   0  0  0  0  0  0  0  0  0  0  0  0
   -0.1670   13.1460   19.4790 C   0  0  0  0  0  0  0  0  0  0  0  0
    1.0860   12.8750   18.9280 C   0  0  0  0  0  0  0  0  0  0  0  0
    1.5650   11.5640   18.8690 C   0  0  0  0  0  0  0  0  0  0  0  0
    0.8030   10.5100   19.3710 C   0  0  0  0  0  0  0  0  0  0  0  0
   -0.4560   10.7930   19.9210 C   0  0  0  0  0  0  0  0  0  0  0  0
   -0.4920   14.1810   19.5420 H   0  0  0  0  0  0  0  0  0  0  0  0
    1.7050   13.6890   18.5530 H   0  0  0  0  0  0  0  0  0  0  0  0
    2.5500   11.4080   18.4390 H   0  0  0  0  0  0  0  0  0  0  0  0
   -1.0680    9.9870   20.3260 H   0  0  0  0  0  0  0  0  0  0  0  0
   -2.5990   12.3790   21.8870 N   0  0  0  0  0  0  0  0  0  0  0  0
   -3.9130   12.6160   22.0380 N   0  0  0  0  0  0  0  0  0  0  0  0
   -4.3850   12.7490   20.8090 N   0  0  0  0  0  0  0  0  0  0  0  0
   -3.3870   12.5960   19.8820 N   0  0  0  0  0  0  0  0  0  0  0  0
   -2.2780   12.3340   20.5520 C   0  0  0  0  0  0  0  0  0  0  0  0
   -1.7530   12.2940   23.0440 C   0  0  0  0  0  0  0  0  0  0  0  0
   -1.0520   11.4640   22.9210 H   0  0  0  0  0  0  0  0  0  0  0  0
   -2.3640   12.1140   23.9320 H   0  0  0  0  0  0  0  0  0  0  0  0
   -1.2030   13.2340   23.1380 H   0  0  0  0  0  0  0  0  0  0  0  0
  1  4  1  0  0  0  0
  2  5  1  0  0  0  0
  2  1  1  0  0  0  0
  3  2  2  0  0  0  0
  5 14  1  0  0  0  0
  6  5  2  0  0  0  0
  6  7  1  0  0  0  0
  7 13  2  0  0  0  0
  8  7  1  0  0  0  0
  8  9  2  0  0  0  0
  9 16  1  0  0  0  0
  9 10  1  0  0  0  0
 10 12  1  0  0  0  0
 10 11  2  0  0  0  0
 12 17  1  0  0  0  0
 13 12  1  0  0  0  0
 14 13  1  0  0  0  0
 15  6  1  0  0  0  0
 18 21  1  0  0  0  0
 18  8  1  0  0  0  0
 19 18  1  0  0  0  0
 20 18  1  0  0  0  0
 22 36  1  0  0  0  0
 23 28  1  0  0  0  0
 23 22  2  0  0  0  0
 24 23  1  0  0  0  0
 25 24  2  0  0  0  0
 25 26  1  0  0  0  0
 26  1  1  0  0  0  0
 26 27  2  0  0  0  0
 27 22  1  0  0  0  0
 27 31  1  0  0  0  0
 29 24  1  0  0  0  0
 30 25  1  0  0  0  0
 32 33  1  0  0  0  0
 32 37  1  0  0  0  0
 34 33  2  0  0  0  0
 35 36  2  0  0  0  0
 35 34  1  0  0  0  0
 36 32  1  0  0  0  0
 37 40  1  0  0  0  0
 37 39  1  0  0  0  0
 38 37  1  0  0  0  0
M  END
>  <MODEL>
19

>  <REMARK>
 VINA RESULT:    -7.773      2.408      3.162
 INTER + INTRA:         -10.303
 INTER:                  -9.888
 INTRA:                  -0.415
 UNBOUND:                -0.486
  Name = 
  5 active torsions:
  status: ('A' for Active; 'I' for Inactive)
    1  A    between atoms: C_1  and  N_2
    2  A    between atoms: C_6  and  C_7
    3  A    between atoms: C_11  and  N_12
    4  A    between atoms: C_13  and  C_15
    5  A    between atoms: C_18  and  C_19
                            x       y       z     vdW  Elec       q    Type
                         _______ _______ _______ _____ _____    ______ ____

>  <TORSDO>
F 5

$$$$
=
 OpenBabel07192307433D

 40 43  0  0  0  0  0  0  0  0999 V2000
    1.8470    7.5890   20.0250 N   0  0  0  0  0  0  0  0  0  0  0  0
    1.6000    8.5040   19.0100 C   0  0  0  0  0  0  0  0  0  0  0  0
    1.8560    8.3070   17.8260 O   0  0  0  0  0  0  0  0  0  0  0  0
    1.6300    7.8790   20.9670 H   0  0  0  0  0  0  0  0  0  0  0  0
    1.0090    9.7580   19.4690 C   0  0  0  0  0  0  0  0  0  0  0  0
    0.3480   10.1430   20.6360 C   0  0  0  0  0  0  0  0  0  0  0  0
    0.0130   11.5020   20.4720 C   0  0  0  0  0  0  0  0  0  0  0  0
   -0.6480   12.4980   21.2440 C   0  0  0  0  0  0  0  0  0  0  0  0
   -0.7880   13.7410   20.7330 C   0  0  0  0  0  0  0  0  0  0  0  0
   -0.2590   14.0860   19.3680 C   0  0  0  0  0  0  0  0  0  0  0  0
   -0.3990   15.2210   18.9290 O   0  0  0  0  0  0  0  0  0  0  0  0
    0.3720   13.0880   18.6630 N   0  0  0  0  0  0  0  0  0  0  0  0
    0.4770   11.8620   19.2380 C   0  0  0  0  0  0  0  0  0  0  0  0
    1.0790   10.8390   18.6100 O   0  0  0  0  0  0  0  0  0  0  0  0
    0.1350    9.5160   21.4910 H   0  0  0  0  0  0  0  0  0  0  0  0
   -1.2790   14.5490   21.2640 H   0  0  0  0  0  0  0  0  0  0  0  0
    0.7440   13.2660   17.7410 H   0  0  0  0  0  0  0  0  0  0  0  0
   -1.1470   12.0890   22.5900 C   0  0  0  0  0  0  0  0  0  0  0  0
   -0.4790   11.0170   23.0890 F   0  0  0  0  0  0  0  0  0  0  0  0
   -1.0210   13.0860   23.5050 F   0  0  0  0  0  0  0  0  0  0  0  0
   -2.4620   11.7490   22.5620 F   0  0  0  0  0  0  0  0  0  0  0  0
    4.2720    4.9260   19.1430 C   0  0  0  0  0  0  0  0  0  0  0  0
    3.6200    3.7800   19.6100 C   0  0  0  0  0  0  0  0  0  0  0  0
    2.3600    3.8830   20.2000 C   0  0  0  0  0  0  0  0  0  0  0  0
    1.7430    5.1290   20.3410 C   0  0  0  0  0  0  0  0  0  0  0  0
    2.3830    6.2880   19.9050 C   0  0  0  0  0  0  0  0  0  0  0  0
    3.6490    6.1740   19.3120 C   0  0  0  0  0  0  0  0  0  0  0  0
    4.0870    2.8010   19.5510 H   0  0  0  0  0  0  0  0  0  0  0  0
    1.8550    2.9900   20.5670 H   0  0  0  0  0  0  0  0  0  0  0  0
    0.7660    5.1540   20.8140 H   0  0  0  0  0  0  0  0  0  0  0  0
    4.1730    7.0660   18.9690 H   0  0  0  0  0  0  0  0  0  0  0  0
    5.8920    4.4960   17.2340 N   0  0  0  0  0  0  0  0  0  0  0  0
    7.2160    4.5790   17.0250 N   0  0  0  0  0  0  0  0  0  0  0  0
    7.7180    5.0350   18.1610 N   0  0  0  0  0  0  0  0  0  0  0  0
    6.7290    5.2390   19.0880 N   0  0  0  0  0  0  0  0  0  0  0  0
    5.5920    4.8730   18.5200 C   0  0  0  0  0  0  0  0  0  0  0  0
    5.0220    4.1340   16.1510 C   0  0  0  0  0  0  0  0  0  0  0  0
    4.0280    4.5530   16.3290 H   0  0  0  0  0  0  0  0  0  0  0  0
    4.9420    3.0460   16.0920 H   0  0  0  0  0  0  0  0  0  0  0  0
    5.4360    4.5420   15.2260 H   0  0  0  0  0  0  0  0  0  0  0  0
  1  4  1  0  0  0  0
  2  5  1  0  0  0  0
  2  1  1  0  0  0  0
  3  2  2  0  0  0  0
  5  6  2  0  0  0  0
  6 15  1  0  0  0  0
  7  6  1  0  0  0  0
  7  8  1  0  0  0  0
  8 18  1  0  0  0  0
  9  8  2  0  0  0  0
  9 16  1  0  0  0  0
 10  9  1  0  0  0  0
 11 10  2  0  0  0  0
 12 13  1  0  0  0  0
 12 10  1  0  0  0  0
 13  7  2  0  0  0  0
 14 13  1  0  0  0  0
 14  5  1  0  0  0  0
 17 12  1  0  0  0  0
 18 19  1  0  0  0  0
 18 20  1  0  0  0  0
 21 18  1  0  0  0  0
 22 27  2  0  0  0  0
 22 23  1  0  0  0  0
 23 24  2  0  0  0  0
 24 25  1  0  0  0  0
 24 29  1  0  0  0  0
 25 30  1  0  0  0  0
 26  1  1  0  0  0  0
 26 25  2  0  0  0  0
 27 26  1  0  0  0  0
 28 23  1  0  0  0  0
 31 27  1  0  0  0  0
 32 36  1  0  0  0  0
 33 32  1  0  0  0  0
 33 34  2  0  0  0  0
 34 35  1  0  0  0  0
 36 35  2  0  0  0  0
 36 22  1  0  0  0  0
 37 38  1  0  0  0  0
 37 32  1  0  0  0  0
 39 37  1  0  0  0  0
 40 37  1  0  0  0  0
M  END
>  <MODEL>
20

>  <REMARK>
 VINA RESULT:    -7.744      4.706      9.706
 INTER + INTRA:         -10.266
 INTER:                 -10.022
 INTRA:                  -0.244
 UNBOUND:                -0.486
  Name = 
  5 active torsions:
  status: ('A' for Active; 'I' for Inactive)
    1  A    between atoms: C_1  and  N_2
    2  A    between atoms: C_6  and  C_7
    3  A    between atoms: C_11  and  N_12
    4  A    between atoms: C_13  and  C_15
    5  A    between atoms: C_18  and  C_19
                            x       y       z     vdW  Elec       q    Type
                         _______ _______ _______ _____ _____    ______ ____

>  <TORSDO>
F 5

$$$$
=
 OpenBabel07192307433D

 40 43  0  0  0  0  0  0  0  0999 V2000
    0.4700    9.1700   18.8500 N   0  0  0  0  0  0  0  0  0  0  0  0
    1.7240    9.1930   18.2510 C   0  0  0  0  0  0  0  0  0  0  0  0
    2.2010   10.1740   17.6890 O   0  0  0  0  0  0  0  0  0  0  0  0
    0.1690    8.2920   19.2470 H   0  0  0  0  0  0  0  0  0  0  0  0
    2.4460    7.9270   18.3310 C   0  0  0  0  0  0  0  0  0  0  0  0
    2.2410    6.7420   19.0380 C   0  0  0  0  0  0  0  0  0  0  0  0
    3.3010    5.8820   18.6880 C   0  0  0  0  0  0  0  0  0  0  0  0
    3.7060    4.5590   19.0230 C   0  0  0  0  0  0  0  0  0  0  0  0
    4.8280    4.0540   18.4660 C   0  0  0  0  0  0  0  0  0  0  0  0
    5.6510    4.8620   17.5010 C   0  0  0  0  0  0  0  0  0  0  0  0
    6.6630    4.3790   17.0090 O   0  0  0  0  0  0  0  0  0  0  0  0
    5.2160    6.1330   17.2090 N   0  0  0  0  0  0  0  0  0  0  0  0
    4.0800    6.5780   17.8070 C   0  0  0  0  0  0  0  0  0  0  0  0
    3.5950    7.8080   17.5720 O   0  0  0  0  0  0  0  0  0  0  0  0
    1.4280    6.5330   19.7210 H   0  0  0  0  0  0  0  0  0  0  0  0
    5.1960    3.0550   18.6740 H   0  0  0  0  0  0  0  0  0  0  0  0
    5.7320    6.7200   16.5680 H   0  0  0  0  0  0  0  0  0  0  0  0
    2.8440    3.8130   19.9860 C   0  0  0  0  0  0  0  0  0  0  0  0
    2.6460    4.4930   21.1450 F   0  0  0  0  0  0  0  0  0  0  0  0
    1.6130    3.5540   19.4730 F   0  0  0  0  0  0  0  0  0  0  0  0
    3.3840    2.6130   20.3270 F   0  0  0  0  0  0  0  0  0  0  0  0
   -1.1770   12.1700   20.2770 C   0  0  0  0  0  0  0  0  0  0  0  0
   -2.1820   12.4170   19.3370 C   0  0  0  0  0  0  0  0  0  0  0  0
   -2.3350   11.5740   18.2350 C   0  0  0  0  0  0  0  0  0  0  0  0
   -1.4790   10.4840   18.0540 C   0  0  0  0  0  0  0  0  0  0  0  0
   -0.4540   10.2310   18.9630 C   0  0  0  0  0  0  0  0  0  0  0  0
   -0.3100   11.0840   20.0680 C   0  0  0  0  0  0  0  0  0  0  0  0
   -2.8410   13.2760   19.4270 H   0  0  0  0  0  0  0  0  0  0  0  0
   -3.1160   11.7700   17.5030 H   0  0  0  0  0  0  0  0  0  0  0  0
   -1.6350    9.8640   17.1760 H   0  0  0  0  0  0  0  0  0  0  0  0
    0.4880   10.9110   20.7900 H   0  0  0  0  0  0  0  0  0  0  0  0
   -1.5400   12.8800   22.6880 N   0  0  0  0  0  0  0  0  0  0  0  0
   -1.1110   13.8560   23.5050 N   0  0  0  0  0  0  0  0  0  0  0  0
   -0.2640   14.5690   22.7790 N   0  0  0  0  0  0  0  0  0  0  0  0
   -0.1540   14.0570   21.5120 N   0  0  0  0  0  0  0  0  0  0  0  0
   -0.9740   13.0220   21.4440 C   0  0  0  0  0  0  0  0  0  0  0  0
   -2.3990   11.8500   23.1990 C   0  0  0  0  0  0  0  0  0  0  0  0
   -1.8820   11.3100   23.9970 H   0  0  0  0  0  0  0  0  0  0  0  0
   -2.6470   11.1490   22.3990 H   0  0  0  0  0  0  0  0  0  0  0  0
   -3.3030   12.3200   23.5950 H   0  0  0  0  0  0  0  0  0  0  0  0
  1 26  1  0  0  0  0
  1  4  1  0  0  0  0
  2  5  1  0  0  0  0
  2  1  1  0  0  0  0
  3  2  2  0  0  0  0
  5  6  2  0  0  0  0
  6 15  1  0  0  0  0
  7  8  1  0  0  0  0
  7  6  1  0  0  0  0
  8 18  1  0  0  0  0
  9 16  1  0  0  0  0
  9  8  2  0  0  0  0
 10  9  1  0  0  0  0
 11 10  2  0  0  0  0
 12 10  1  0  0  0  0
 12 13  1  0  0  0  0
 13  7  2  0  0  0  0
 14 13  1  0  0  0  0
 14  5  1  0  0  0  0
 17 12  1  0  0  0  0
 18 21  1  0  0  0  0
 18 19  1  0  0  0  0
 20 18  1  0  0  0  0
 22 36  1  0  0  0  0
 23 28  1  0  0  0  0
 23 22  2  0  0  0  0
 24 23  1  0  0  0  0
 25 24  2  0  0  0  0
 25 26  1  0  0  0  0
 26 27  2  0  0  0  0
 27 22  1  0  0  0  0
 27 31  1  0  0  0  0
 29 24  1  0  0  0  0
 30 25  1  0  0  0  0
 32 37  1  0  0  0  0
 32 33  1  0  0  0  0
 34 33  2  0  0  0  0
 35 34  1  0  0  0  0
 36 35  2  0  0  0  0
 36 32  1  0  0  0  0
 37 40  1  0  0  0  0
 37 38  1  0  0  0  0
 39 37  1  0  0  0  0
M  END
>  <MODEL>
21

>  <REMARK>
 VINA RESULT:    -7.708      3.433      4.286
 INTER + INTRA:         -10.222
 INTER:                  -9.476
 INTRA:                  -0.746
 UNBOUND:                -0.486
  Name = 
  5 active torsions:
  status: ('A' for Active; 'I' for Inactive)
    1  A    between atoms: C_1  and  N_2
    2  A    between atoms: C_6  and  C_7
    3  A    between atoms: C_11  and  N_12
    4  A    between atoms: C_13  and  C_15
    5  A    between atoms: C_18  and  C_19
                            x       y       z     vdW  Elec       q    Type
                         _______ _______ _______ _____ _____    ______ ____

>  <TORSDO>
F 5

$$$$
=
 OpenBabel07192307433D

 40 43  0  0  0  0  0  0  0  0999 V2000
    1.9120    6.9560   19.0210 N   0  0  0  0  0  0  0  0  0  0  0  0
    2.1700    8.1750   18.4060 C   0  0  0  0  0  0  0  0  0  0  0  0
    3.1900    8.4230   17.7690 O   0  0  0  0  0  0  0  0  0  0  0  0
    1.0550    6.8820   19.5500 H   0  0  0  0  0  0  0  0  0  0  0  0
    1.1170    9.1690   18.5860 C   0  0  0  0  0  0  0  0  0  0  0  0
   -0.0620    9.4620   17.8990 C   0  0  0  0  0  0  0  0  0  0  0  0
   -0.6520   10.5510   18.5710 C   0  0  0  0  0  0  0  0  0  0  0  0
   -1.8300   11.3360   18.4190 C   0  0  0  0  0  0  0  0  0  0  0  0
   -2.0680   12.3390   19.2930 C   0  0  0  0  0  0  0  0  0  0  0  0
   -1.1160   12.6350   20.4180 C   0  0  0  0  0  0  0  0  0  0  0  0
   -1.3570   13.5490   21.1970 O   0  0  0  0  0  0  0  0  0  0  0  0
    0.0050   11.8460   20.5210 N   0  0  0  0  0  0  0  0  0  0  0  0
    0.1830   10.8560   19.6080 C   0  0  0  0  0  0  0  0  0  0  0  0
    1.2540   10.0470   19.6450 O   0  0  0  0  0  0  0  0  0  0  0  0
   -0.4390    8.9520   17.0220 H   0  0  0  0  0  0  0  0  0  0  0  0
   -2.9440   12.9770   19.2390 H   0  0  0  0  0  0  0  0  0  0  0  0
    0.6790   12.0030   21.2580 H   0  0  0  0  0  0  0  0  0  0  0  0
   -2.7320   10.9880   17.2820 C   0  0  0  0  0  0  0  0  0  0  0  0
   -2.1340   11.1510   16.0730 F   0  0  0  0  0  0  0  0  0  0  0  0
   -3.1480    9.6960   17.3390 F   0  0  0  0  0  0  0  0  0  0  0  0
   -3.8520   11.7580   17.2680 F   0  0  0  0  0  0  0  0  0  0  0  0
    4.4400    4.5230   17.8230 C   0  0  0  0  0  0  0  0  0  0  0  0
    4.4120    3.5600   18.8360 C   0  0  0  0  0  0  0  0  0  0  0  0
    3.5340    3.7000   19.9120 C   0  0  0  0  0  0  0  0  0  0  0  0
    2.6870    4.8080   19.9940 C   0  0  0  0  0  0  0  0  0  0  0  0
    2.7140    5.7940   19.0100 C   0  0  0  0  0  0  0  0  0  0  0  0
    3.5980    5.6430   17.9320 C   0  0  0  0  0  0  0  0  0  0  0  0
    5.0820    2.7060   18.8230 H   0  0  0  0  0  0  0  0  0  0  0  0
    3.5160    2.9510   20.7020 H   0  0  0  0  0  0  0  0  0  0  0  0
    2.0290    4.8740   20.8560 H   0  0  0  0  0  0  0  0  0  0  0  0
    3.6440    6.4030   17.1520 H   0  0  0  0  0  0  0  0  0  0  0  0
    6.7070    4.5560   16.6780 N   0  0  0  0  0  0  0  0  0  0  0  0
    7.1870    4.3970   15.4340 N   0  0  0  0  0  0  0  0  0  0  0  0
    6.1280    4.1350   14.6840 N   0  0  0  0  0  0  0  0  0  0  0  0
    4.9840    4.1300   15.4380 N   0  0  0  0  0  0  0  0  0  0  0  0
    5.3400    4.4240   16.6780 C   0  0  0  0  0  0  0  0  0  0  0  0
    7.6170    4.7440   17.7730 C   0  0  0  0  0  0  0  0  0  0  0  0
    8.5170    4.1480   17.6030 H   0  0  0  0  0  0  0  0  0  0  0  0
    7.1440    4.4170   18.7020 H   0  0  0  0  0  0  0  0  0  0  0  0
    7.8780    5.8040   17.8250 H   0  0  0  0  0  0  0  0  0  0  0  0
  1  4  1  0  0  0  0
  2  5  1  0  0  0  0
  2  1  1  0  0  0  0
  3  2  2  0  0  0  0
  5 14  1  0  0  0  0
  6  7  1  0  0  0  0
  6  5  2  0  0  0  0
  7 13  2  0  0  0  0
  8  7  1  0  0  0  0
  8  9  2  0  0  0  0
  9 10  1  0  0  0  0
 10 12  1  0  0  0  0
 10 11  2  0  0  0  0
 12 17  1  0  0  0  0
 13 14  1  0  0  0  0
 13 12  1  0  0  0  0
 15  6  1  0  0  0  0
 16  9  1  0  0  0  0
 18 20  1  0  0  0  0
 18  8  1  0  0  0  0
 19 18  1  0  0  0  0
 21 18  1  0  0  0  0
 22 27  2  0  0  0  0
 22 23  1  0  0  0  0
 23 24  2  0  0  0  0
 24 25  1  0  0  0  0
 24 29  1  0  0  0  0
 25 30  1  0  0  0  0
 26  1  1  0  0  0  0
 26 25  2  0  0  0  0
 27 26  1  0  0  0  0
 28 23  1  0  0  0  0
 31 27  1  0  0  0  0
 32 37  1  0  0  0  0
 33 32  1  0  0  0  0
 34 33  2  0  0  0  0
 34 35  1  0  0  0  0
 35 36  2  0  0  0  0
 36 32  1  0  0  0  0
 36 22  1  0  0  0  0
 37 40  1  0  0  0  0
 37 39  1  0  0  0  0
 38 37  1  0  0  0  0
M  END
>  <MODEL>
22

>  <REMARK>
 VINA RESULT:    -7.644      4.165      9.355
 INTER + INTRA:         -10.141
 INTER:                 -10.009
 INTRA:                  -0.131
 UNBOUND:                -0.486
  Name = 
  5 active torsions:
  status: ('A' for Active; 'I' for Inactive)
    1  A    between atoms: C_1  and  N_2
    2  A    between atoms: C_6  and  C_7
    3  A    between atoms: C_11  and  N_12
    4  A    between atoms: C_13  and  C_15
    5  A    between atoms: C_18  and  C_19
                            x       y       z     vdW  Elec       q    Type
                         _______ _______ _______ _____ _____    ______ ____

>  <TORSDO>
F 5

$$$$
=
 OpenBabel07192307433D

 40 43  0  0  0  0  0  0  0  0999 V2000
    0.9690    9.1480   19.0890 N   0  0  0  0  0  0  0  0  0  0  0  0
    1.9960    8.5540   18.3670 C   0  0  0  0  0  0  0  0  0  0  0  0
    2.6550    9.1290   17.5060 O   0  0  0  0  0  0  0  0  0  0  0  0
    0.4720    8.5630   19.7450 H   0  0  0  0  0  0  0  0  0  0  0  0
    2.2320    7.1540   18.7060 C   0  0  0  0  0  0  0  0  0  0  0  0
    2.6550    6.0420   17.9770 C   0  0  0  0  0  0  0  0  0  0  0  0
    2.6820    4.9620   18.8820 C   0  0  0  0  0  0  0  0  0  0  0  0
    3.0080    3.5770   18.8200 C   0  0  0  0  0  0  0  0  0  0  0  0
    2.9080    2.8280   19.9400 C   0  0  0  0  0  0  0  0  0  0  0  0
    2.4600    3.4300   21.2430 C   0  0  0  0  0  0  0  0  0  0  0  0
    2.3790    2.7280   22.2430 O   0  0  0  0  0  0  0  0  0  0  0  0
    2.1580    4.7720   21.2490 N   0  0  0  0  0  0  0  0  0  0  0  0
    2.2810    5.4650   20.0860 C   0  0  0  0  0  0  0  0  0  0  0  0
    2.0020    6.7760   20.0160 O   0  0  0  0  0  0  0  0  0  0  0  0
    2.9060    6.0210   16.9250 H   0  0  0  0  0  0  0  0  0  0  0  0
    3.1400    1.7690   19.9680 H   0  0  0  0  0  0  0  0  0  0  0  0
    1.8510    5.2260   22.0970 H   0  0  0  0  0  0  0  0  0  0  0  0
    3.4460    3.0450   17.4960 C   0  0  0  0  0  0  0  0  0  0  0  0
    4.6110    3.5990   17.0710 F   0  0  0  0  0  0  0  0  0  0  0  0
    3.6440    1.7010   17.5280 F   0  0  0  0  0  0  0  0  0  0  0  0
    2.5260    3.2810   16.5250 F   0  0  0  0  0  0  0  0  0  0  0  0
    0.9700   12.8210   19.5980 C   0  0  0  0  0  0  0  0  0  0  0  0
   -0.2020   13.2010   18.9360 C   0  0  0  0  0  0  0  0  0  0  0  0
   -1.0130   12.2360   18.3370 C   0  0  0  0  0  0  0  0  0  0  0  0
   -0.6570   10.8850   18.3810 C   0  0  0  0  0  0  0  0  0  0  0  0
    0.5190   10.4840   19.0140 C   0  0  0  0  0  0  0  0  0  0  0  0
    1.3260   11.4620   19.6150 C   0  0  0  0  0  0  0  0  0  0  0  0
   -0.4900   14.2450   18.8500 H   0  0  0  0  0  0  0  0  0  0  0  0
   -1.9220   12.5330   17.8180 H   0  0  0  0  0  0  0  0  0  0  0  0
   -1.3180   10.1760   17.8930 H   0  0  0  0  0  0  0  0  0  0  0  0
    2.2530   11.1750   20.1100 H   0  0  0  0  0  0  0  0  0  0  0  0
    2.9180   14.4480   19.6760 N   0  0  0  0  0  0  0  0  0  0  0  0
    3.4870   15.2650   20.5770 N   0  0  0  0  0  0  0  0  0  0  0  0
    2.7560   15.1360   21.6730 N   0  0  0  0  0  0  0  0  0  0  0  0
    1.7330   14.2450   21.4760 N   0  0  0  0  0  0  0  0  0  0  0  0
    1.8520   13.7910   20.2400 C   0  0  0  0  0  0  0  0  0  0  0  0
    3.4050   14.4300   18.3250 C   0  0  0  0  0  0  0  0  0  0  0  0
    4.3960   14.8900   18.2900 H   0  0  0  0  0  0  0  0  0  0  0  0
    2.7270   15.0000   17.6840 H   0  0  0  0  0  0  0  0  0  0  0  0
    3.4660   13.3900   17.9950 H   0  0  0  0  0  0  0  0  0  0  0  0
  1  4  1  0  0  0  0
  2  5  1  0  0  0  0
  2  1  1  0  0  0  0
  3  2  2  0  0  0  0
  5 14  1  0  0  0  0
  6  5  2  0  0  0  0
  6  7  1  0  0  0  0
  7 13  2  0  0  0  0
  8  7  1  0  0  0  0
  8  9  2  0  0  0  0
  9 16  1  0  0  0  0
  9 10  1  0  0  0  0
 10 12  1  0  0  0  0
 10 11  2  0  0  0  0
 12 17  1  0  0  0  0
 13 12  1  0  0  0  0
 14 13  1  0  0  0  0
 15  6  1  0  0  0  0
 18 20  1  0  0  0  0
 18  8  1  0  0  0  0
 19 18  1  0  0  0  0
 21 18  1  0  0  0  0
 22 27  1  0  0  0  0
 22 36  1  0  0  0  0
 23 22  2  0  0  0  0
 24 25  2  0  0  0  0
 24 23  1  0  0  0  0
 25 26  1  0  0  0  0
 26  1  1  0  0  0  0
 26 27  2  0  0  0  0
 27 31  1  0  0  0  0
 28 23  1  0  0  0  0
 29 24  1  0  0  0  0
 30 25  1  0  0  0  0
 32 36  1  0  0  0  0
 32 33  1  0  0  0  0
 33 34  2  0  0  0  0
 35 34  1  0  0  0  0
 36 35  2  0  0  0  0
 37 32  1  0  0  0  0
 38 37  1  0  0  0  0
 39 37  1  0  0  0  0
 40 37  1  0  0  0  0
M  END
>  <MODEL>
23

>  <REMARK>
 VINA RESULT:    -7.576      3.174      4.447
 INTER + INTRA:         -10.055
 INTER:                  -9.353
 INTRA:                  -0.702
 UNBOUND:                -0.486
  Name = 
  5 active torsions:
  status: ('A' for Active; 'I' for Inactive)
    1  A    between atoms: C_1  and  N_2
    2  A    between atoms: C_6  and  C_7
    3  A    between atoms: C_11  and  N_12
    4  A    between atoms: C_13  and  C_15
    5  A    between atoms: C_18  and  C_19
                            x       y       z     vdW  Elec       q    Type
                         _______ _______ _______ _____ _____    ______ ____

>  <TORSDO>
F 5

$$$$
=
 OpenBabel07192307433D

 40 43  0  0  0  0  0  0  0  0999 V2000
    1.7260   10.1980   19.0610 N   0  0  0  0  0  0  0  0  0  0  0  0
    1.3840    9.1900   18.1690 C   0  0  0  0  0  0  0  0  0  0  0  0
    0.3950    9.2180   17.4430 O   0  0  0  0  0  0  0  0  0  0  0  0
    2.5420   10.0460   19.6350 H   0  0  0  0  0  0  0  0  0  0  0  0
    2.3060    8.0580   18.1670 C   0  0  0  0  0  0  0  0  0  0  0  0
    3.4490    7.7460   17.4300 C   0  0  0  0  0  0  0  0  0  0  0  0
    3.8940    6.4940   17.9000 C   0  0  0  0  0  0  0  0  0  0  0  0
    4.9690    5.6080   17.6050 C   0  0  0  0  0  0  0  0  0  0  0  0
    5.0730    4.4490   18.2920 C   0  0  0  0  0  0  0  0  0  0  0  0
    4.0770    4.0830   19.3580 C   0  0  0  0  0  0  0  0  0  0  0  0
    4.1950    3.0260   19.9660 O   0  0  0  0  0  0  0  0  0  0  0  0
    3.0590    4.9740   19.6050 N   0  0  0  0  0  0  0  0  0  0  0  0
    3.0150    6.1200   18.8760 C   0  0  0  0  0  0  0  0  0  0  0  0
    2.0500    7.0350   19.0610 O   0  0  0  0  0  0  0  0  0  0  0  0
    3.8960    8.3480   16.6510 H   0  0  0  0  0  0  0  0  0  0  0  0
    5.8640    3.7270   18.1220 H   0  0  0  0  0  0  0  0  0  0  0  0
    2.3620    4.7760   20.3090 H   0  0  0  0  0  0  0  0  0  0  0  0
    5.9210    6.0330   16.5370 C   0  0  0  0  0  0  0  0  0  0  0  0
    6.5570    7.1950   16.8380 F   0  0  0  0  0  0  0  0  0  0  0  0
    6.8890    5.1050   16.3190 F   0  0  0  0  0  0  0  0  0  0  0  0
    5.2940    6.2290   15.3470 F   0  0  0  0  0  0  0  0  0  0  0  0
   -0.6920   12.5940   20.5330 C   0  0  0  0  0  0  0  0  0  0  0  0
   -0.3590   13.7790   19.8690 C   0  0  0  0  0  0  0  0  0  0  0  0
    0.6540   13.7840   18.9100 C   0  0  0  0  0  0  0  0  0  0  0  0
    1.3540   12.6120   18.6130 C   0  0  0  0  0  0  0  0  0  0  0  0
    1.0580   11.4240   19.2790 C   0  0  0  0  0  0  0  0  0  0  0  0
    0.0370   11.4280   20.2400 C   0  0  0  0  0  0  0  0  0  0  0  0
   -0.8570   14.7160   20.1020 H   0  0  0  0  0  0  0  0  0  0  0  0
    0.9150   14.7080   18.3970 H   0  0  0  0  0  0  0  0  0  0  0  0
    2.1390   12.6720   17.8650 H   0  0  0  0  0  0  0  0  0  0  0  0
   -0.2100   10.5140   20.7800 H   0  0  0  0  0  0  0  0  0  0  0  0
   -3.0990   12.6110   21.3440 N   0  0  0  0  0  0  0  0  0  0  0  0
   -3.7460   12.5170   22.5170 N   0  0  0  0  0  0  0  0  0  0  0  0
   -2.7980   12.3510   23.4240 N   0  0  0  0  0  0  0  0  0  0  0  0
   -1.5580   12.3410   22.8400 N   0  0  0  0  0  0  0  0  0  0  0  0
   -1.7420   12.5350   21.5450 C   0  0  0  0  0  0  0  0  0  0  0  0
   -3.8480   12.6870   20.1210 C   0  0  0  0  0  0  0  0  0  0  0  0
   -4.9150   12.6070   20.3450 H   0  0  0  0  0  0  0  0  0  0  0  0
   -3.5600   11.8640   19.4630 H   0  0  0  0  0  0  0  0  0  0  0  0
   -3.6390   13.6510   19.6490 H   0  0  0  0  0  0  0  0  0  0  0  0
  1 26  1  0  0  0  0
  1  4  1  0  0  0  0
  2  1  1  0  0  0  0
  3  2  2  0  0  0  0
  5  2  1  0  0  0  0
  5 14  1  0  0  0  0
  6  7  1  0  0  0  0
  6  5  2  0  0  0  0
  7 13  2  0  0  0  0
  8  7  1  0  0  0  0
  8  9  2  0  0  0  0
  9 10  1  0  0  0  0
 10 12  1  0  0  0  0
 10 11  2  0  0  0  0
 12 17  1  0  0  0  0
 13 14  1  0  0  0  0
 13 12  1  0  0  0  0
 15  6  1  0  0  0  0
 16  9  1  0  0  0  0
 18 19  1  0  0  0  0
 18  8  1  0  0  0  0
 20 18  1  0  0  0  0
 21 18  1  0  0  0  0
 22 36  1  0  0  0  0
 23 28  1  0  0  0  0
 23 22  2  0  0  0  0
 24 23  1  0  0  0  0
 25 24  2  0  0  0  0
 25 26  1  0  0  0  0
 26 27  2  0  0  0  0
 27 22  1  0  0  0  0
 27 31  1  0  0  0  0
 29 24  1  0  0  0  0
 30 25  1  0  0  0  0
 32 36  1  0  0  0  0
 32 33  1  0  0  0  0
 33 34  2  0  0  0  0
 35 34  1  0  0  0  0
 36 35  2  0  0  0  0
 37 38  1  0  0  0  0
 37 32  1  0  0  0  0
 39 37  1  0  0  0  0
 40 37  1  0  0  0  0
M  END
>  <MODEL>
24

>  <REMARK>
 VINA RESULT:    -7.450      2.305      2.775
 INTER + INTRA:          -9.895
 INTER:                  -9.182
 INTRA:                  -0.714
 UNBOUND:                -0.486
  Name = 
  5 active torsions:
  status: ('A' for Active; 'I' for Inactive)
    1  A    between atoms: C_1  and  N_2
    2  A    between atoms: C_6  and  C_7
    3  A    between atoms: C_11  and  N_12
    4  A    between atoms: C_13  and  C_15
    5  A    between atoms: C_18  and  C_19
                            x       y       z     vdW  Elec       q    Type
                         _______ _______ _______ _____ _____    ______ ____

>  <TORSDO>
F 5

$$$$
=
 OpenBabel07192307433D

 40 43  0  0  0  0  0  0  0  0999 V2000
    2.1430    8.4730   18.6980 N   0  0  0  0  0  0  0  0  0  0  0  0
    1.5470    8.6090   19.9450 C   0  0  0  0  0  0  0  0  0  0  0  0
    1.5080    7.7200   20.7910 O   0  0  0  0  0  0  0  0  0  0  0  0
    2.0780    9.2610   18.0710 H   0  0  0  0  0  0  0  0  0  0  0  0
    0.9440    9.9170   20.1790 C   0  0  0  0  0  0  0  0  0  0  0  0
    0.7670   11.0540   19.3880 C   0  0  0  0  0  0  0  0  0  0  0  0
    0.1100   12.0020   20.1970 C   0  0  0  0  0  0  0  0  0  0  0  0
   -0.3660   13.3340   20.0400 C   0  0  0  0  0  0  0  0  0  0  0  0
   -0.9680   13.9440   21.0840 C   0  0  0  0  0  0  0  0  0  0  0  0
   -1.1440   13.2420   22.4020 C   0  0  0  0  0  0  0  0  0  0  0  0
   -1.6950   13.8180   23.3320 O   0  0  0  0  0  0  0  0  0  0  0  0
   -0.6680   11.9560   22.5010 N   0  0  0  0  0  0  0  0  0  0  0  0
   -0.0720   11.4040   21.4120 C   0  0  0  0  0  0  0  0  0  0  0  0
    0.4170   10.1530   21.4350 O   0  0  0  0  0  0  0  0  0  0  0  0
    1.0800   11.1770   18.3600 H   0  0  0  0  0  0  0  0  0  0  0  0
   -1.3550   14.9570   21.0370 H   0  0  0  0  0  0  0  0  0  0  0  0
   -0.7590   11.4390   23.3650 H   0  0  0  0  0  0  0  0  0  0  0  0
   -0.1600   13.9720   18.7070 C   0  0  0  0  0  0  0  0  0  0  0  0
   -0.7860   13.3010   17.7060 F   0  0  0  0  0  0  0  0  0  0  0  0
   -0.6300   15.2460   18.6730 F   0  0  0  0  0  0  0  0  0  0  0  0
    1.1550   14.0330   18.3710 F   0  0  0  0  0  0  0  0  0  0  0  0
    2.9300    4.9050   18.0680 C   0  0  0  0  0  0  0  0  0  0  0  0
    4.0430    5.0030   17.2270 C   0  0  0  0  0  0  0  0  0  0  0  0
    4.5540    6.2550   16.8830 C   0  0  0  0  0  0  0  0  0  0  0  0
    3.9530    7.4210   17.3640 C   0  0  0  0  0  0  0  0  0  0  0  0
    2.8280    7.3510   18.1840 C   0  0  0  0  0  0  0  0  0  0  0  0
    2.3230    6.0870   18.5250 C   0  0  0  0  0  0  0  0  0  0  0  0
    4.5120    4.1190   16.8050 H   0  0  0  0  0  0  0  0  0  0  0  0
    5.4180    6.3300   16.2250 H   0  0  0  0  0  0  0  0  0  0  0  0
    4.3850    8.3700   17.0600 H   0  0  0  0  0  0  0  0  0  0  0  0
    1.4410    6.0050   19.1590 H   0  0  0  0  0  0  0  0  0  0  0  0
    2.9610    2.6230   19.1820 N   0  0  0  0  0  0  0  0  0  0  0  0
    2.1160    1.5910   19.3420 N   0  0  0  0  0  0  0  0  0  0  0  0
    0.9940    1.9660   18.7490 N   0  0  0  0  0  0  0  0  0  0  0  0
    1.1190    3.2220   18.2140 N   0  0  0  0  0  0  0  0  0  0  0  0
    2.3570    3.6200   18.4560 C   0  0  0  0  0  0  0  0  0  0  0  0
    4.2520    2.5900   19.8100 C   0  0  0  0  0  0  0  0  0  0  0  0
    4.7090    1.6110   19.6480 H   0  0  0  0  0  0  0  0  0  0  0  0
    4.1400    2.7560   20.8850 H   0  0  0  0  0  0  0  0  0  0  0  0
    4.8730    3.3690   19.3610 H   0  0  0  0  0  0  0  0  0  0  0  0
  1  2  1  0  0  0  0
  2  5  1  0  0  0  0
  2  3  2  0  0  0  0
  4  1  1  0  0  0  0
  5 14  1  0  0  0  0
  6  5  2  0  0  0  0
  6  7  1  0  0  0  0
  7 13  2  0  0  0  0
  8  7  1  0  0  0  0
  8  9  2  0  0  0  0
  9 10  1  0  0  0  0
 10 12  1  0  0  0  0
 10 11  2  0  0  0  0
 12 17  1  0  0  0  0
 13 14  1  0  0  0  0
 13 12  1  0  0  0  0
 15  6  1  0  0  0  0
 16  9  1  0  0  0  0
 18  8  1  0  0  0  0
 19 18  1  0  0  0  0
 20 18  1  0  0  0  0
 21 18  1  0  0  0  0
 22 36  1  0  0  0  0
 22 27  1  0  0  0  0
 23 22  2  0  0  0  0
 24 23  1  0  0  0  0
 24 25  2  0  0  0  0
 25 26  1  0  0  0  0
 26 27  2  0  0  0  0
 26  1  1  0  0  0  0
 27 31  1  0  0  0  0
 28 23  1  0  0  0  0
 29 24  1  0  0  0  0
 30 25  1  0  0  0  0
 32 33  1  0  0  0  0
 32 37  1  0  0  0  0
 34 33  2  0  0  0  0
 35 36  2  0  0  0  0
 35 34  1  0  0  0  0
 36 32  1  0  0  0  0
 37 39  1  0  0  0  0
 38 37  1  0  0  0  0
 40 37  1  0  0  0  0
M  END
>  <MODEL>
25

>  <REMARK>
 VINA RESULT:    -7.447      4.479      9.031
 INTER + INTRA:          -9.891
 INTER:                  -9.646
 INTRA:                  -0.245
 UNBOUND:                -0.486
  Name = 
  5 active torsions:
  status: ('A' for Active; 'I' for Inactive)
    1  A    between atoms: C_1  and  N_2
    2  A    between atoms: C_6  and  C_7
    3  A    between atoms: C_11  and  N_12
    4  A    between atoms: C_13  and  C_15
    5  A    between atoms: C_18  and  C_19
                            x       y       z     vdW  Elec       q    Type
                         _______ _______ _______ _____ _____    ______ ____

>  <TORSDO>
F 5

$$$$
=
 OpenBabel07192307433D

 40 43  0  0  0  0  0  0  0  0999 V2000
    2.1320    6.8700   19.0650 N   0  0  0  0  0  0  0  0  0  0  0  0
    2.2940    8.1050   18.4500 C   0  0  0  0  0  0  0  0  0  0  0  0
    3.2660    8.4110   17.7650 O   0  0  0  0  0  0  0  0  0  0  0  0
    1.3090    6.7470   19.6360 H   0  0  0  0  0  0  0  0  0  0  0  0
    1.2010    9.0410   18.6940 C   0  0  0  0  0  0  0  0  0  0  0  0
    0.8360    9.8350   19.7810 C   0  0  0  0  0  0  0  0  0  0  0  0
   -0.3330   10.5220   19.3950 C   0  0  0  0  0  0  0  0  0  0  0  0
   -1.2140   11.4670   19.9920 C   0  0  0  0  0  0  0  0  0  0  0  0
   -2.2750   11.9150   19.2840 C   0  0  0  0  0  0  0  0  0  0  0  0
   -2.5360   11.4340   17.8840 C   0  0  0  0  0  0  0  0  0  0  0  0
   -3.5050   11.8570   17.2640 O   0  0  0  0  0  0  0  0  0  0  0  0
   -1.6550   10.5220   17.3540 N   0  0  0  0  0  0  0  0  0  0  0  0
   -0.6110   10.1140   18.1210 C   0  0  0  0  0  0  0  0  0  0  0  0
    0.2900    9.2250   17.6710 O   0  0  0  0  0  0  0  0  0  0  0  0
    1.3500    9.9030   20.7300 H   0  0  0  0  0  0  0  0  0  0  0  0
   -2.9870   12.6350   19.6730 H   0  0  0  0  0  0  0  0  0  0  0  0
   -1.7850   10.1650   16.4170 H   0  0  0  0  0  0  0  0  0  0  0  0
   -0.8960   11.9030   21.3830 C   0  0  0  0  0  0  0  0  0  0  0  0
   -0.8910   10.8700   22.2650 F   0  0  0  0  0  0  0  0  0  0  0  0
    0.3270   12.4900   21.4660 F   0  0  0  0  0  0  0  0  0  0  0  0
   -1.7950   12.8090   21.8500 F   0  0  0  0  0  0  0  0  0  0  0  0
    4.7320    4.5920   17.7240 C   0  0  0  0  0  0  0  0  0  0  0  0
    4.7950    3.6130   18.7210 C   0  0  0  0  0  0  0  0  0  0  0  0
    3.9570    3.6900   19.8330 C   0  0  0  0  0  0  0  0  0  0  0  0
    3.0570    4.7510   19.9690 C   0  0  0  0  0  0  0  0  0  0  0  0
    2.9920    5.7520   19.0020 C   0  0  0  0  0  0  0  0  0  0  0  0
    3.8380    5.6640   17.8860 C   0  0  0  0  0  0  0  0  0  0  0  0
    5.5080    2.7950   18.6660 H   0  0  0  0  0  0  0  0  0  0  0  0
    4.0100    2.9300   20.6100 H   0  0  0  0  0  0  0  0  0  0  0  0
    2.4330    4.7690   20.8580 H   0  0  0  0  0  0  0  0  0  0  0  0
    3.8120    6.4370   17.1190 H   0  0  0  0  0  0  0  0  0  0  0  0
    6.6540    5.3760   16.2600 N   0  0  0  0  0  0  0  0  0  0  0  0
    7.1980    5.0380   15.0800 N   0  0  0  0  0  0  0  0  0  0  0  0
    6.4930    4.0000   14.6580 N   0  0  0  0  0  0  0  0  0  0  0  0
    5.5090    3.6790   15.5560 N   0  0  0  0  0  0  0  0  0  0  0  0
    5.5880    4.5570   16.5420 C   0  0  0  0  0  0  0  0  0  0  0  0
    7.2580    6.4110   17.0520 C   0  0  0  0  0  0  0  0  0  0  0  0
    6.5590    6.7250   17.8320 H   0  0  0  0  0  0  0  0  0  0  0  0
    7.4920    7.2690   16.4170 H   0  0  0  0  0  0  0  0  0  0  0  0
    8.1660    6.0090   17.5080 H   0  0  0  0  0  0  0  0  0  0  0  0
  1  4  1  0  0  0  0
  2  5  1  0  0  0  0
  2  1  1  0  0  0  0
  3  2  2  0  0  0  0
  5  6  2  0  0  0  0
  6 15  1  0  0  0  0
  7  6  1  0  0  0  0
  7  8  1  0  0  0  0
  8 18  1  0  0  0  0
  9 16  1  0  0  0  0
  9  8  2  0  0  0  0
 10  9  1  0  0  0  0
 11 10  2  0  0  0  0
 12 10  1  0  0  0  0
 12 13  1  0  0  0  0
 13  7  2  0  0  0  0
 14 13  1  0  0  0  0
 14  5  1  0  0  0  0
 17 12  1  0  0  0  0
 18 20  1  0  0  0  0
 18 21  1  0  0  0  0
 18 19  1  0  0  0  0
 22 27  2  0  0  0  0
 22 23  1  0  0  0  0
 23 24  2  0  0  0  0
 24 25  1  0  0  0  0
 24 29  1  0  0  0  0
 25 30  1  0  0  0  0
 26  1  1  0  0  0  0
 26 25  2  0  0  0  0
 27 26  1  0  0  0  0
 28 23  1  0  0  0  0
 31 27  1  0  0  0  0
 32 36  1  0  0  0  0
 32 37  1  0  0  0  0
 33 32  1  0  0  0  0
 34 33  2  0  0  0  0
 34 35  1  0  0  0  0
 35 36  2  0  0  0  0
 36 22  1  0  0  0  0
 37 40  1  0  0  0  0
 37 38  1  0  0  0  0
 39 37  1  0  0  0  0
M  END
>  <MODEL>
26

>  <REMARK>
 VINA RESULT:    -7.436      4.372      9.355
 INTER + INTRA:          -9.878
 INTER:                  -9.735
 INTRA:                  -0.143
 UNBOUND:                -0.486
  Name = 
  5 active torsions:
  status: ('A' for Active; 'I' for Inactive)
    1  A    between atoms: C_1  and  N_2
    2  A    between atoms: C_6  and  C_7
    3  A    between atoms: C_11  and  N_12
    4  A    between atoms: C_13  and  C_15
    5  A    between atoms: C_18  and  C_19
                            x       y       z     vdW  Elec       q    Type
                         _______ _______ _______ _____ _____    ______ ____

>  <TORSDO>
F 5

$$$$
=
 OpenBabel07192307433D

 40 43  0  0  0  0  0  0  0  0999 V2000
    1.3750    8.5840   18.8830 N   0  0  0  0  0  0  0  0  0  0  0  0
    1.2550    9.9280   18.5510 C   0  0  0  0  0  0  0  0  0  0  0  0
    1.9910   10.5110   17.7600 O   0  0  0  0  0  0  0  0  0  0  0  0
    0.7350    8.2240   19.5760 H   0  0  0  0  0  0  0  0  0  0  0  0
    0.1660   10.6170   19.2370 C   0  0  0  0  0  0  0  0  0  0  0  0
   -0.0280   11.0450   20.5510 C   0  0  0  0  0  0  0  0  0  0  0  0
   -1.3010   11.6500   20.5860 C   0  0  0  0  0  0  0  0  0  0  0  0
   -2.1110   12.2840   21.5710 C   0  0  0  0  0  0  0  0  0  0  0  0
   -3.3250   12.7590   21.2160 C   0  0  0  0  0  0  0  0  0  0  0  0
   -3.8300   12.6300   19.8060 C   0  0  0  0  0  0  0  0  0  0  0  0
   -4.9350   13.0710   19.5120 O   0  0  0  0  0  0  0  0  0  0  0  0
   -3.0090   12.0120   18.8940 N   0  0  0  0  0  0  0  0  0  0  0  0
   -1.8010   11.5570   19.3190 C   0  0  0  0  0  0  0  0  0  0  0  0
   -0.9470   10.9420   18.4850 O   0  0  0  0  0  0  0  0  0  0  0  0
    0.6630   10.9280   21.3740 H   0  0  0  0  0  0  0  0  0  0  0  0
   -3.9950   13.2520   21.9120 H   0  0  0  0  0  0  0  0  0  0  0  0
   -3.3010   11.8980   17.9330 H   0  0  0  0  0  0  0  0  0  0  0  0
   -1.5480   12.3780   22.9500 C   0  0  0  0  0  0  0  0  0  0  0  0
   -2.4290   12.9070   23.8370 F   0  0  0  0  0  0  0  0  0  0  0  0
   -1.1880   11.1620   23.4380 F   0  0  0  0  0  0  0  0  0  0  0  0
   -0.4370   13.1590   22.9920 F   0  0  0  0  0  0  0  0  0  0  0  0
    2.8740    5.2770   18.1330 C   0  0  0  0  0  0  0  0  0  0  0  0
    4.0160    5.6380   17.4110 C   0  0  0  0  0  0  0  0  0  0  0  0
    4.3080    6.9850   17.1900 C   0  0  0  0  0  0  0  0  0  0  0  0
    3.4590    7.9830   17.6750 C   0  0  0  0  0  0  0  0  0  0  0  0
    2.3020    7.6470   18.3760 C   0  0  0  0  0  0  0  0  0  0  0  0
    2.0180    6.2910   18.5940 C   0  0  0  0  0  0  0  0  0  0  0  0
    4.6780    4.8890   16.9880 H   0  0  0  0  0  0  0  0  0  0  0  0
    5.1960    7.2650   16.6250 H   0  0  0  0  0  0  0  0  0  0  0  0
    3.7270    9.0150   17.4690 H   0  0  0  0  0  0  0  0  0  0  0  0
    1.1160    6.0020   19.1340 H   0  0  0  0  0  0  0  0  0  0  0  0
    3.3020    2.9250   18.9900 N   0  0  0  0  0  0  0  0  0  0  0  0
    2.6360    1.7600   19.0540 N   0  0  0  0  0  0  0  0  0  0  0  0
    1.4470    2.0120   18.5290 N   0  0  0  0  0  0  0  0  0  0  0  0
    1.3540    3.3210   18.1320 N   0  0  0  0  0  0  0  0  0  0  0  0
    2.5230    3.8830   18.3900 C   0  0  0  0  0  0  0  0  0  0  0  0
    4.6050    3.0320   19.5840 C   0  0  0  0  0  0  0  0  0  0  0  0
    4.6010    3.8370   20.3230 H   0  0  0  0  0  0  0  0  0  0  0  0
    5.3420    3.2630   18.8110 H   0  0  0  0  0  0  0  0  0  0  0  0
    4.8410    2.0820   20.0710 H   0  0  0  0  0  0  0  0  0  0  0  0
  1  4  1  0  0  0  0
  2  1  1  0  0  0  0
  2  5  1  0  0  0  0
  3  2  2  0  0  0  0
  5  6  2  0  0  0  0
  6  7  1  0  0  0  0
  6 15  1  0  0  0  0
  7  8  1  0  0  0  0
  8 18  1  0  0  0  0
  9  8  2  0  0  0  0
  9 16  1  0  0  0  0
 10  9  1  0  0  0  0
 11 10  2  0  0  0  0
 12 13  1  0  0  0  0
 12 10  1  0  0  0  0
 13  7  2  0  0  0  0
 14  5  1  0  0  0  0
 14 13  1  0  0  0  0
 17 12  1  0  0  0  0
 18 21  1  0  0  0  0
 18 20  1  0  0  0  0
 18 19  1  0  0  0  0
 22 36  1  0  0  0  0
 22 27  1  0  0  0  0
 23 22  2  0  0  0  0
 24 23  1  0  0  0  0
 24 25  2  0  0  0  0
 25 26  1  0  0  0  0
 26 27  2  0  0  0  0
 26  1  1  0  0  0  0
 27 31  1  0  0  0  0
 28 23  1  0  0  0  0
 29 24  1  0  0  0  0
 30 25  1  0  0  0  0
 32 33  1  0  0  0  0
 32 37  1  0  0  0  0
 34 33  2  0  0  0  0
 35 36  2  0  0  0  0
 35 34  1  0  0  0  0
 36 32  1  0  0  0  0
 37 40  1  0  0  0  0
 37 38  1  0  0  0  0
 39 37  1  0  0  0  0
M  END
>  <MODEL>
27

>  <REMARK>
 VINA RESULT:    -7.384      4.594      9.441
 INTER + INTRA:          -9.812
 INTER:                  -9.679
 INTRA:                  -0.133
 UNBOUND:                -0.486
  Name = 
  5 active torsions:
  status: ('A' for Active; 'I' for Inactive)
    1  A    between atoms: C_1  and  N_2
    2  A    between atoms: C_6  and  C_7
    3  A    between atoms: C_11  and  N_12
    4  A    between atoms: C_13  and  C_15
    5  A    between atoms: C_18  and  C_19
                            x       y       z     vdW  Elec       q    Type
                         _______ _______ _______ _____ _____    ______ ____

>  <TORSDO>
F 5

$$$$
=
 OpenBabel07192307433D

 40 43  0  0  0  0  0  0  0  0999 V2000
    0.9530    9.6030   19.8570 N   0  0  0  0  0  0  0  0  0  0  0  0
    1.4000    8.7250   20.8360 C   0  0  0  0  0  0  0  0  0  0  0  0
    1.4360    8.9890   22.0340 O   0  0  0  0  0  0  0  0  0  0  0  0
    1.0060    9.2880   18.8990 H   0  0  0  0  0  0  0  0  0  0  0  0
    1.8470    7.4340   20.3200 C   0  0  0  0  0  0  0  0  0  0  0  0
    2.8060    7.0490   19.3830 C   0  0  0  0  0  0  0  0  0  0  0  0
    2.7590    5.6420   19.3230 C   0  0  0  0  0  0  0  0  0  0  0  0
    3.4410    4.6210   18.6030 C   0  0  0  0  0  0  0  0  0  0  0  0
    3.1080    3.3300   18.8190 C   0  0  0  0  0  0  0  0  0  0  0  0
    2.0340    2.9570   19.8040 C   0  0  0  0  0  0  0  0  0  0  0  0
    1.7530    1.7770   19.9820 O   0  0  0  0  0  0  0  0  0  0  0  0
    1.4070    3.9800   20.4740 N   0  0  0  0  0  0  0  0  0  0  0  0
    1.7920    5.2560   20.2070 C   0  0  0  0  0  0  0  0  0  0  0  0
    1.2240    6.3060   20.8210 O   0  0  0  0  0  0  0  0  0  0  0  0
    3.4510    7.7070   18.8160 H   0  0  0  0  0  0  0  0  0  0  0  0
    3.5840    2.5000   18.3080 H   0  0  0  0  0  0  0  0  0  0  0  0
    0.6780    3.7850   21.1460 H   0  0  0  0  0  0  0  0  0  0  0  0
    4.4960    5.0600   17.6430 C   0  0  0  0  0  0  0  0  0  0  0  0
    5.0270    4.0250   16.9420 F   0  0  0  0  0  0  0  0  0  0  0  0
    4.0160    5.9430   16.7280 F   0  0  0  0  0  0  0  0  0  0  0  0
    5.5310    5.6760   18.2720 F   0  0  0  0  0  0  0  0  0  0  0  0
   -1.2380   12.2960   21.1580 C   0  0  0  0  0  0  0  0  0  0  0  0
   -0.7030   13.4270   20.5330 C   0  0  0  0  0  0  0  0  0  0  0  0
    0.3750   13.2980   19.6560 C   0  0  0  0  0  0  0  0  0  0  0  0
    0.9370   12.0440   19.4030 C   0  0  0  0  0  0  0  0  0  0  0  0
    0.4360   10.9050   20.0330 C   0  0  0  0  0  0  0  0  0  0  0  0
   -0.6480   11.0450   20.9120 C   0  0  0  0  0  0  0  0  0  0  0  0
   -1.0900   14.4210   20.7350 H   0  0  0  0  0  0  0  0  0  0  0  0
    0.7930   14.1800   19.1730 H   0  0  0  0  0  0  0  0  0  0  0  0
    1.7790   11.9990   18.7190 H   0  0  0  0  0  0  0  0  0  0  0  0
   -1.0530   10.1720   21.4220 H   0  0  0  0  0  0  0  0  0  0  0  0
   -3.6660   12.6960   21.7890 N   0  0  0  0  0  0  0  0  0  0  0  0
   -4.4150   12.6650   22.9030 N   0  0  0  0  0  0  0  0  0  0  0  0
   -3.5860   12.2970   23.8680 N   0  0  0  0  0  0  0  0  0  0  0  0
   -2.3220   12.0980   23.3770 N   0  0  0  0  0  0  0  0  0  0  0  0
   -2.3630   12.3770   22.0850 C   0  0  0  0  0  0  0  0  0  0  0  0
   -4.2880   12.9550   20.5200 C   0  0  0  0  0  0  0  0  0  0  0  0
   -4.1750   12.0790   19.8760 H   0  0  0  0  0  0  0  0  0  0  0  0
   -3.8050   13.8110   20.0430 H   0  0  0  0  0  0  0  0  0  0  0  0
   -5.3490   13.1550   20.6920 H   0  0  0  0  0  0  0  0  0  0  0  0
  1 26  1  0  0  0  0
  1  2  1  0  0  0  0
  2  3  2  0  0  0  0
  4  1  1  0  0  0  0
  5 14  1  0  0  0  0
  5  2  1  0  0  0  0
  6  5  2  0  0  0  0
  7  6  1  0  0  0  0
  7 13  2  0  0  0  0
  8  9  2  0  0  0  0
  8  7  1  0  0  0  0
  9 10  1  0  0  0  0
 10 11  2  0  0  0  0
 10 12  1  0  0  0  0
 12 17  1  0  0  0  0
 13 12  1  0  0  0  0
 13 14  1  0  0  0  0
 15  6  1  0  0  0  0
 16  9  1  0  0  0  0
 18 21  1  0  0  0  0
 18  8  1  0  0  0  0
 19 18  1  0  0  0  0
 20 18  1  0  0  0  0
 22 36  1  0  0  0  0
 23 28  1  0  0  0  0
 23 22  2  0  0  0  0
 24 23  1  0  0  0  0
 25 24  2  0  0  0  0
 25 26  1  0  0  0  0
 26 27  2  0  0  0  0
 27 22  1  0  0  0  0
 27 31  1  0  0  0  0
 29 24  1  0  0  0  0
 30 25  1  0  0  0  0
 32 36  1  0  0  0  0
 32 33  1  0  0  0  0
 33 34  2  0  0  0  0
 35 34  1  0  0  0  0
 36 35  2  0  0  0  0
 37 40  1  0  0  0  0
 37 32  1  0  0  0  0
 38 37  1  0  0  0  0
 39 37  1  0  0  0  0
M  END
>  <MODEL>
28

>  <REMARK>
 VINA RESULT:    -7.345      2.602      3.158
 INTER + INTRA:          -9.762
 INTER:                  -9.286
 INTRA:                  -0.477
 UNBOUND:                -0.486
  Name = 
  5 active torsions:
  status: ('A' for Active; 'I' for Inactive)
    1  A    between atoms: C_1  and  N_2
    2  A    between atoms: C_6  and  C_7
    3  A    between atoms: C_11  and  N_12
    4  A    between atoms: C_13  and  C_15
    5  A    between atoms: C_18  and  C_19
                            x       y       z     vdW  Elec       q    Type
                         _______ _______ _______ _____ _____    ______ ____

>  <TORSDO>
F 5

$$$$
=
 OpenBabel07192307433D

 40 43  0  0  0  0  0  0  0  0999 V2000
    1.9300    8.1670   18.1350 N   0  0  0  0  0  0  0  0  0  0  0  0
    1.4890    8.5910   19.3820 C   0  0  0  0  0  0  0  0  0  0  0  0
    1.9750    8.2220   20.4470 O   0  0  0  0  0  0  0  0  0  0  0  0
    1.4270    8.5100   17.3300 H   0  0  0  0  0  0  0  0  0  0  0  0
    0.3680    9.5240   19.3320 C   0  0  0  0  0  0  0  0  0  0  0  0
   -0.6230    9.7920   18.3880 C   0  0  0  0  0  0  0  0  0  0  0  0
   -1.4210   10.8190   18.9310 C   0  0  0  0  0  0  0  0  0  0  0  0
   -2.5700   11.5540   18.5210 C   0  0  0  0  0  0  0  0  0  0  0  0
   -3.0710   12.5010   19.3440 C   0  0  0  0  0  0  0  0  0  0  0  0
   -2.4390   12.7900   20.6770 C   0  0  0  0  0  0  0  0  0  0  0  0
   -2.9150   13.6540   21.4040 O   0  0  0  0  0  0  0  0  0  0  0  0
   -1.3330   12.0510   21.0250 N   0  0  0  0  0  0  0  0  0  0  0  0
   -0.8820   11.1150   20.1500 C   0  0  0  0  0  0  0  0  0  0  0  0
    0.1930   10.3570   20.4210 O   0  0  0  0  0  0  0  0  0  0  0  0
   -0.7460    9.3070   17.4290 H   0  0  0  0  0  0  0  0  0  0  0  0
   -3.9420   13.0990   19.0990 H   0  0  0  0  0  0  0  0  0  0  0  0
   -0.8690   12.2060   21.9100 H   0  0  0  0  0  0  0  0  0  0  0  0
   -3.1470   11.2170   17.1870 C   0  0  0  0  0  0  0  0  0  0  0  0
   -2.2690   11.4230   16.1720 F   0  0  0  0  0  0  0  0  0  0  0  0
   -3.5300    9.9150   17.1120 F   0  0  0  0  0  0  0  0  0  0  0  0
   -4.2480   11.9630   16.9070 F   0  0  0  0  0  0  0  0  0  0  0  0
    3.8470    4.9970   17.9690 C   0  0  0  0  0  0  0  0  0  0  0  0
    5.0180    5.4050   17.3230 C   0  0  0  0  0  0  0  0  0  0  0  0
    5.1890    6.7420   16.9600 C   0  0  0  0  0  0  0  0  0  0  0  0
    4.1890    7.6810   17.2260 C   0  0  0  0  0  0  0  0  0  0  0  0
    3.0020    7.2940   17.8470 C   0  0  0  0  0  0  0  0  0  0  0  0
    2.8410    5.9490   18.2090 C   0  0  0  0  0  0  0  0  0  0  0  0
    5.8000    4.6960   17.0680 H   0  0  0  0  0  0  0  0  0  0  0  0
    6.1000    7.0580   16.4540 H   0  0  0  0  0  0  0  0  0  0  0  0
    4.3680    8.7060   16.9160 H   0  0  0  0  0  0  0  0  0  0  0  0
    1.9200    5.6190   18.6890 H   0  0  0  0  0  0  0  0  0  0  0  0
    3.0980    3.1610   19.5560 N   0  0  0  0  0  0  0  0  0  0  0  0
    3.0370    1.8190   19.5550 N   0  0  0  0  0  0  0  0  0  0  0  0
    3.4840    1.4520   18.3640 N   0  0  0  0  0  0  0  0  0  0  0  0
    3.8300    2.5460   17.6130 N   0  0  0  0  0  0  0  0  0  0  0  0
    3.6190    3.6110   18.3670 C   0  0  0  0  0  0  0  0  0  0  0  0
    2.5760    3.8960   20.6730 C   0  0  0  0  0  0  0  0  0  0  0  0
    2.7180    4.9660   20.5010 H   0  0  0  0  0  0  0  0  0  0  0  0
    3.1090    3.6090   21.5820 H   0  0  0  0  0  0  0  0  0  0  0  0
    1.5100    3.6730   20.7630 H   0  0  0  0  0  0  0  0  0  0  0  0
  1  2  1  0  0  0  0
  2  3  2  0  0  0  0
  4  1  1  0  0  0  0
  5  2  1  0  0  0  0
  5 14  1  0  0  0  0
  6  7  1  0  0  0  0
  6  5  2  0  0  0  0
  7 13  2  0  0  0  0
  8  7  1  0  0  0  0
  8  9  2  0  0  0  0
  9 10  1  0  0  0  0
 10 12  1  0  0  0  0
 10 11  2  0  0  0  0
 12 17  1  0  0  0  0
 13 14  1  0  0  0  0
 13 12  1  0  0  0  0
 15  6  1  0  0  0  0
 16  9  1  0  0  0  0
 18  8  1  0  0  0  0
 19 18  1  0  0  0  0
 20 18  1  0  0  0  0
 21 18  1  0  0  0  0
 22 27  1  0  0  0  0
 22 36  1  0  0  0  0
 23 22  2  0  0  0  0
 24 25  2  0  0  0  0
 24 23  1  0  0  0  0
 25 26  1  0  0  0  0
 26  1  1  0  0  0  0
 26 27  2  0  0  0  0
 27 31  1  0  0  0  0
 28 23  1  0  0  0  0
 29 24  1  0  0  0  0
 30 25  1  0  0  0  0
 32 37  1  0  0  0  0
 33 32  1  0  0  0  0
 34 33  2  0  0  0  0
 35 34  1  0  0  0  0
 35 36  2  0  0  0  0
 36 32  1  0  0  0  0
 37 40  1  0  0  0  0
 37 39  1  0  0  0  0
 38 37  1  0  0  0  0
M  END
>  <MODEL>
29

>  <REMARK>
 VINA RESULT:    -7.331      4.092      9.151
 INTER + INTRA:          -9.746
 INTER:                  -9.400
 INTRA:                  -0.346
 UNBOUND:                -0.486
  Name = 
  5 active torsions:
  status: ('A' for Active; 'I' for Inactive)
    1  A    between atoms: C_1  and  N_2
    2  A    between atoms: C_6  and  C_7
    3  A    between atoms: C_11  and  N_12
    4  A    between atoms: C_13  and  C_15
    5  A    between atoms: C_18  and  C_19
                            x       y       z     vdW  Elec       q    Type
                         _______ _______ _______ _____ _____    ______ ____

>  <TORSDO>
F 5

$$$$
=
 OpenBabel07192307433D

 40 43  0  0  0  0  0  0  0  0999 V2000
    2.1290    8.4500   18.6060 N   0  0  0  0  0  0  0  0  0  0  0  0
    1.6030    8.6630   19.8750 C   0  0  0  0  0  0  0  0  0  0  0  0
    1.6590    7.8470   20.7900 O   0  0  0  0  0  0  0  0  0  0  0  0
    1.9870    9.1790   17.9230 H   0  0  0  0  0  0  0  0  0  0  0  0
    0.9500    9.9580   20.0390 C   0  0  0  0  0  0  0  0  0  0  0  0
    0.0930   10.4910   21.0030 C   0  0  0  0  0  0  0  0  0  0  0  0
   -0.1960   11.8080   20.5920 C   0  0  0  0  0  0  0  0  0  0  0  0
   -0.9760   12.8910   21.0870 C   0  0  0  0  0  0  0  0  0  0  0  0
   -1.0130   14.0470   20.3880 C   0  0  0  0  0  0  0  0  0  0  0  0
   -0.2450   14.2070   19.1050 C   0  0  0  0  0  0  0  0  0  0  0  0
   -0.2950   15.2670   18.4930 O   0  0  0  0  0  0  0  0  0  0  0  0
    0.4940   13.1310   18.6720 N   0  0  0  0  0  0  0  0  0  0  0  0
    0.4850   11.9990   19.4240 C   0  0  0  0  0  0  0  0  0  0  0  0
    1.1810   10.9090   19.0630 O   0  0  0  0  0  0  0  0  0  0  0  0
   -0.2750    9.9860   21.8870 H   0  0  0  0  0  0  0  0  0  0  0  0
   -1.5840   14.9130   20.7040 H   0  0  0  0  0  0  0  0  0  0  0  0
    1.0270   13.1850   17.8160 H   0  0  0  0  0  0  0  0  0  0  0  0
   -1.7120   12.6650   22.3650 C   0  0  0  0  0  0  0  0  0  0  0  0
   -2.8890   12.0130   22.1810 F   0  0  0  0  0  0  0  0  0  0  0  0
   -0.9900   11.9220   23.2450 F   0  0  0  0  0  0  0  0  0  0  0  0
   -2.0090   13.8330   22.9930 F   0  0  0  0  0  0  0  0  0  0  0  0
    2.9560    4.8730   18.0840 C   0  0  0  0  0  0  0  0  0  0  0  0
    4.0970    4.9590   17.2810 C   0  0  0  0  0  0  0  0  0  0  0  0
    4.6140    6.2060   16.9280 C   0  0  0  0  0  0  0  0  0  0  0  0
    3.9910    7.3790   17.3620 C   0  0  0  0  0  0  0  0  0  0  0  0
    2.8380    7.3200   18.1420 C   0  0  0  0  0  0  0  0  0  0  0  0
    2.3270    6.0620   18.4930 C   0  0  0  0  0  0  0  0  0  0  0  0
    4.5850    4.0680   16.8960 H   0  0  0  0  0  0  0  0  0  0  0  0
    5.5010    6.2710   16.3000 H   0  0  0  0  0  0  0  0  0  0  0  0
    4.4280    8.3240   17.0520 H   0  0  0  0  0  0  0  0  0  0  0  0
    1.4230    5.9880   19.0970 H   0  0  0  0  0  0  0  0  0  0  0  0
    2.9780    2.5910   19.1980 N   0  0  0  0  0  0  0  0  0  0  0  0
    2.1260    1.5670   19.3690 N   0  0  0  0  0  0  0  0  0  0  0  0
    1.0000    1.9530   18.7910 N   0  0  0  0  0  0  0  0  0  0  0  0
    1.1300    3.2080   18.2530 N   0  0  0  0  0  0  0  0  0  0  0  0
    2.3750    3.5940   18.4800 C   0  0  0  0  0  0  0  0  0  0  0  0
    4.2770    2.5460   19.8100 C   0  0  0  0  0  0  0  0  0  0  0  0
    4.7600    1.5970   19.5650 H   0  0  0  0  0  0  0  0  0  0  0  0
    4.1730    2.6210   20.8950 H   0  0  0  0  0  0  0  0  0  0  0  0
    4.8700    3.3770   19.4200 H   0  0  0  0  0  0  0  0  0  0  0  0
  1  2  1  0  0  0  0
  2  5  1  0  0  0  0
  2  3  2  0  0  0  0
  4  1  1  0  0  0  0
  5  6  2  0  0  0  0
  6 15  1  0  0  0  0
  7  6  1  0  0  0  0
  7  8  1  0  0  0  0
  8 18  1  0  0  0  0
  9 16  1  0  0  0  0
  9  8  2  0  0  0  0
 10  9  1  0  0  0  0
 11 10  2  0  0  0  0
 12 10  1  0  0  0  0
 12 13  1  0  0  0  0
 13  7  2  0  0  0  0
 14 13  1  0  0  0  0
 14  5  1  0  0  0  0
 17 12  1  0  0  0  0
 18 21  1  0  0  0  0
 18 20  1  0  0  0  0
 19 18  1  0  0  0  0
 22 36  1  0  0  0  0
 22 27  1  0  0  0  0
 23 22  2  0  0  0  0
 24 23  1  0  0  0  0
 24 25  2  0  0  0  0
 25 26  1  0  0  0  0
 26 27  2  0  0  0  0
 26  1  1  0  0  0  0
 27 31  1  0  0  0  0
 28 23  1  0  0  0  0
 29 24  1  0  0  0  0
 30 25  1  0  0  0  0
 32 33  1  0  0  0  0
 32 37  1  0  0  0  0
 34 33  2  0  0  0  0
 35 36  2  0  0  0  0
 35 34  1  0  0  0  0
 36 32  1  0  0  0  0
 37 39  1  0  0  0  0
 38 37  1  0  0  0  0
 40 37  1  0  0  0  0
M  END
>  <MODEL>
30

>  <REMARK>
 VINA RESULT:    -7.283      4.847      9.376
 INTER + INTRA:          -9.684
 INTER:                  -9.562
 INTRA:                  -0.122
 UNBOUND:                -0.486
  Name = 
  5 active torsions:
  status: ('A' for Active; 'I' for Inactive)
    1  A    between atoms: C_1  and  N_2
    2  A    between atoms: C_6  and  C_7
    3  A    between atoms: C_11  and  N_12
    4  A    between atoms: C_13  and  C_15
    5  A    between atoms: C_18  and  C_19
                            x       y       z     vdW  Elec       q    Type
                         _______ _______ _______ _____ _____    ______ ____

>  <TORSDO>
F 5

$$$$
=
 OpenBabel07192307433D

 40 43  0  0  0  0  0  0  0  0999 V2000
    2.0480    7.4450   18.4520 N   0  0  0  0  0  0  0  0  0  0  0  0
    1.6370    8.0060   19.6540 C   0  0  0  0  0  0  0  0  0  0  0  0
    1.6390    7.4120   20.7280 O   0  0  0  0  0  0  0  0  0  0  0  0
    1.9640    8.0190   17.6260 H   0  0  0  0  0  0  0  0  0  0  0  0
    1.1780    9.3870   19.5410 C   0  0  0  0  0  0  0  0  0  0  0  0
   -0.0200   10.0340   19.8460 C   0  0  0  0  0  0  0  0  0  0  0  0
    0.1630   11.3890   19.5030 C   0  0  0  0  0  0  0  0  0  0  0  0
   -0.6230   12.5750   19.5470 C   0  0  0  0  0  0  0  0  0  0  0  0
   -0.0850   13.7360   19.1120 C   0  0  0  0  0  0  0  0  0  0  0  0
    1.3220   13.7930   18.5850 C   0  0  0  0  0  0  0  0  0  0  0  0
    1.7850   14.8600   18.1970 O   0  0  0  0  0  0  0  0  0  0  0  0
    2.0380   12.6200   18.5640 N   0  0  0  0  0  0  0  0  0  0  0  0
    1.4350   11.4900   19.0160 C   0  0  0  0  0  0  0  0  0  0  0  0
    2.0710   10.3070   19.0250 O   0  0  0  0  0  0  0  0  0  0  0  0
   -0.9100    9.5780   20.2590 H   0  0  0  0  0  0  0  0  0  0  0  0
   -0.6240   14.6770   19.1170 H   0  0  0  0  0  0  0  0  0  0  0  0
    2.9870   12.6030   18.2180 H   0  0  0  0  0  0  0  0  0  0  0  0
   -2.0100   12.4470   20.0830 C   0  0  0  0  0  0  0  0  0  0  0  0
   -2.7980   11.6600   19.3060 F   0  0  0  0  0  0  0  0  0  0  0  0
   -2.0280   11.9060   21.3290 F   0  0  0  0  0  0  0  0  0  0  0  0
   -2.6330   13.6520   20.1720 F   0  0  0  0  0  0  0  0  0  0  0  0
    4.2650    4.8000   17.0960 C   0  0  0  0  0  0  0  0  0  0  0  0
    3.7480    3.6540   17.7070 C   0  0  0  0  0  0  0  0  0  0  0  0
    2.6450    3.7490   18.5560 C   0  0  0  0  0  0  0  0  0  0  0  0
    2.0530    4.9890   18.8120 C   0  0  0  0  0  0  0  0  0  0  0  0
    2.5650    6.1490   18.2330 C   0  0  0  0  0  0  0  0  0  0  0  0
    3.6740    6.0420   17.3810 C   0  0  0  0  0  0  0  0  0  0  0  0
    4.2060    2.6790   17.5600 H   0  0  0  0  0  0  0  0  0  0  0  0
    2.2460    2.8560   19.0340 H   0  0  0  0  0  0  0  0  0  0  0  0
    1.2020    5.0090   19.4860 H   0  0  0  0  0  0  0  0  0  0  0  0
    4.0970    6.9350   16.9220 H   0  0  0  0  0  0  0  0  0  0  0  0
    6.7460    4.7740   16.5530 N   0  0  0  0  0  0  0  0  0  0  0  0
    7.5160    4.7140   15.4530 N   0  0  0  0  0  0  0  0  0  0  0  0
    6.6680    4.6240   14.4410 N   0  0  0  0  0  0  0  0  0  0  0  0
    5.3710    4.6290   14.8860 N   0  0  0  0  0  0  0  0  0  0  0  0
    5.4180    4.7540   16.2020 C   0  0  0  0  0  0  0  0  0  0  0  0
    7.3580    4.7660   17.8510 C   0  0  0  0  0  0  0  0  0  0  0  0
    8.4270    4.9720   17.7500 H   0  0  0  0  0  0  0  0  0  0  0  0
    7.2290    3.7830   18.3110 H   0  0  0  0  0  0  0  0  0  0  0  0
    6.8870    5.5420   18.4590 H   0  0  0  0  0  0  0  0  0  0  0  0
  1  2  1  0  0  0  0
  2  3  2  0  0  0  0
  4  1  1  0  0  0  0
  5  2  1  0  0  0  0
  5  6  2  0  0  0  0
  6 15  1  0  0  0  0
  7  8  1  0  0  0  0
  7  6  1  0  0  0  0
  8 18  1  0  0  0  0
  9 16  1  0  0  0  0
  9  8  2  0  0  0  0
 10  9  1  0  0  0  0
 11 10  2  0  0  0  0
 12 10  1  0  0  0  0
 12 13  1  0  0  0  0
 13 14  1  0  0  0  0
 13  7  2  0  0  0  0
 14  5  1  0  0  0  0
 17 12  1  0  0  0  0
 18 21  1  0  0  0  0
 18 20  1  0  0  0  0
 19 18  1  0  0  0  0
 22 27  2  0  0  0  0
 22 23  1  0  0  0  0
 23 24  2  0  0  0  0
 24 25  1  0  0  0  0
 24 29  1  0  0  0  0
 25 30  1  0  0  0  0
 26  1  1  0  0  0  0
 26 25  2  0  0  0  0
 27 26  1  0  0  0  0
 28 23  1  0  0  0  0
 31 27  1  0  0  0  0
 32 37  1  0  0  0  0
 33 32  1  0  0  0  0
 34 35  1  0  0  0  0
 34 33  2  0  0  0  0
 35 36  2  0  0  0  0
 36 32  1  0  0  0  0
 36 22  1  0  0  0  0
 37 39  1  0  0  0  0
 37 40  1  0  0  0  0
 38 37  1  0  0  0  0
M  END
>  <MODEL>
31

>  <REMARK>
 VINA RESULT:    -7.248      4.817      9.537
 INTER + INTRA:          -9.640
 INTER:                  -9.154
 INTRA:                  -0.486
 UNBOUND:                -0.486
  Name = 
  5 active torsions:
  status: ('A' for Active; 'I' for Inactive)
    1  A    between atoms: C_1  and  N_2
    2  A    between atoms: C_6  and  C_7
    3  A    between atoms: C_11  and  N_12
    4  A    between atoms: C_13  and  C_15
    5  A    between atoms: C_18  and  C_19
                            x       y       z     vdW  Elec       q    Type
                         _______ _______ _______ _____ _____    ______ ____

>  <TORSDO>
F 5

$$$$
=
 OpenBabel07192307433D

 40 43  0  0  0  0  0  0  0  0999 V2000
    1.6950    7.1010   19.6980 N   0  0  0  0  0  0  0  0  0  0  0  0
    1.9100    8.1980   18.8730 C   0  0  0  0  0  0  0  0  0  0  0  0
    2.8190    8.2750   18.0520 O   0  0  0  0  0  0  0  0  0  0  0  0
    0.9380    7.1680   20.3620 H   0  0  0  0  0  0  0  0  0  0  0  0
    0.9570    9.2860   19.0680 C   0  0  0  0  0  0  0  0  0  0  0  0
   -0.2270    9.6580   18.4300 C   0  0  0  0  0  0  0  0  0  0  0  0
   -0.6850   10.8160   19.0890 C   0  0  0  0  0  0  0  0  0  0  0  0
   -1.7970   11.6970   18.9660 C   0  0  0  0  0  0  0  0  0  0  0  0
   -1.9030   12.7440   19.8130 C   0  0  0  0  0  0  0  0  0  0  0  0
   -0.8700   12.9930   20.8780 C   0  0  0  0  0  0  0  0  0  0  0  0
   -0.9910   13.9500   21.6330 O   0  0  0  0  0  0  0  0  0  0  0  0
    0.1830   12.1120   20.9550 N   0  0  0  0  0  0  0  0  0  0  0  0
    0.2260   11.0810   20.0710 C   0  0  0  0  0  0  0  0  0  0  0  0
    1.2240   10.1830   20.0850 O   0  0  0  0  0  0  0  0  0  0  0  0
   -0.6920    9.1550   17.5930 H   0  0  0  0  0  0  0  0  0  0  0  0
   -2.7210   13.4550   19.7790 H   0  0  0  0  0  0  0  0  0  0  0  0
    0.9050   12.2340   21.6510 H   0  0  0  0  0  0  0  0  0  0  0  0
   -2.7850   11.3920   17.8890 C   0  0  0  0  0  0  0  0  0  0  0  0
   -3.8820   12.1910   17.9470 F   0  0  0  0  0  0  0  0  0  0  0  0
   -2.2520   11.5520   16.6500 F   0  0  0  0  0  0  0  0  0  0  0  0
   -3.2320   10.1110   17.9590 F   0  0  0  0  0  0  0  0  0  0  0  0
    4.5440    4.7730   19.2350 C   0  0  0  0  0  0  0  0  0  0  0  0
    4.0270    3.5830   19.7540 C   0  0  0  0  0  0  0  0  0  0  0  0
    2.7200    3.5390   20.2400 C   0  0  0  0  0  0  0  0  0  0  0  0
    1.9200    4.6850   20.2240 C   0  0  0  0  0  0  0  0  0  0  0  0
    2.4210    5.8900   19.7330 C   0  0  0  0  0  0  0  0  0  0  0  0
    3.7360    5.9230   19.2460 C   0  0  0  0  0  0  0  0  0  0  0  0
    4.6330    2.6830   19.8170 H   0  0  0  0  0  0  0  0  0  0  0  0
    2.3200    2.6120   20.6480 H   0  0  0  0  0  0  0  0  0  0  0  0
    0.9130    4.6000   20.6210 H   0  0  0  0  0  0  0  0  0  0  0  0
    4.1530    6.8540   18.8640 H   0  0  0  0  0  0  0  0  0  0  0  0
    6.3470    4.5220   17.4640 N   0  0  0  0  0  0  0  0  0  0  0  0
    7.6650    4.7590   17.3550 N   0  0  0  0  0  0  0  0  0  0  0  0
    8.0200    5.2810   18.5190 N   0  0  0  0  0  0  0  0  0  0  0  0
    6.9440    5.3740   19.3620 N   0  0  0  0  0  0  0  0  0  0  0  0
    5.9050    4.8720   18.7160 C   0  0  0  0  0  0  0  0  0  0  0  0
    5.6130    4.0510   16.3230 C   0  0  0  0  0  0  0  0  0  0  0  0
    5.2440    3.0420   16.5210 H   0  0  0  0  0  0  0  0  0  0  0  0
    6.2700    4.0250   15.4500 H   0  0  0  0  0  0  0  0  0  0  0  0
    4.7710    4.7270   16.1530 H   0  0  0  0  0  0  0  0  0  0  0  0
  1 26  1  0  0  0  0
  1  4  1  0  0  0  0
  2  5  1  0  0  0  0
  2  1  1  0  0  0  0
  3  2  2  0  0  0  0
  5 14  1  0  0  0  0
  6  5  2  0  0  0  0
  6  7  1  0  0  0  0
  7 13  2  0  0  0  0
  8  7  1  0  0  0  0
  8  9  2  0  0  0  0
  9 10  1  0  0  0  0
 10 12  1  0  0  0  0
 10 11  2  0  0  0  0
 12 17  1  0  0  0  0
 13 14  1  0  0  0  0
 13 12  1  0  0  0  0
 15  6  1  0  0  0  0
 16  9  1  0  0  0  0
 18 19  1  0  0  0  0
 18 21  1  0  0  0  0
 18  8  1  0  0  0  0
 20 18  1  0  0  0  0
 22 27  2  0  0  0  0
 22 23  1  0  0  0  0
 23 28  1  0  0  0  0
 23 24  2  0  0  0  0
 24 29  1  0  0  0  0
 25 24  1  0  0  0  0
 25 30  1  0  0  0  0
 26 25  2  0  0  0  0
 27 26  1  0  0  0  0
 31 27  1  0  0  0  0
 32 36  1  0  0  0  0
 33 32  1  0  0  0  0
 33 34  2  0  0  0  0
 34 35  1  0  0  0  0
 36 22  1  0  0  0  0
 36 35  2  0  0  0  0
 37 38  1  0  0  0  0
 37 32  1  0  0  0  0
 39 37  1  0  0  0  0
 40 37  1  0  0  0  0
M  END
>  <MODEL>
32

>  <REMARK>
 VINA RESULT:    -7.232      4.375      9.468
 INTER + INTRA:          -9.620
 INTER:                  -9.491
 INTRA:                  -0.129
 UNBOUND:                -0.486
  Name = 
  5 active torsions:
  status: ('A' for Active; 'I' for Inactive)
    1  A    between atoms: C_1  and  N_2
    2  A    between atoms: C_6  and  C_7
    3  A    between atoms: C_11  and  N_12
    4  A    between atoms: C_13  and  C_15
    5  A    between atoms: C_18  and  C_19
                            x       y       z     vdW  Elec       q    Type
                         _______ _______ _______ _____ _____    ______ ____

>  <TORSDO>
F 5

$$$$
=
 OpenBabel07192307433D

 40 43  0  0  0  0  0  0  0  0999 V2000
    2.1490    7.4590   18.5110 N   0  0  0  0  0  0  0  0  0  0  0  0
    1.6740    7.9820   19.7070 C   0  0  0  0  0  0  0  0  0  0  0  0
    1.6140    7.3520   20.7590 O   0  0  0  0  0  0  0  0  0  0  0  0
    2.1140    8.0610   17.7020 H   0  0  0  0  0  0  0  0  0  0  0  0
    1.2290    9.3690   19.6170 C   0  0  0  0  0  0  0  0  0  0  0  0
    1.8160   10.5420   19.1420 C   0  0  0  0  0  0  0  0  0  0  0  0
    0.8680   11.5660   19.3340 C   0  0  0  0  0  0  0  0  0  0  0  0
    0.8020   12.9660   19.0850 C   0  0  0  0  0  0  0  0  0  0  0  0
   -0.3190   13.6410   19.4200 C   0  0  0  0  0  0  0  0  0  0  0  0
   -1.4920   12.9410   20.0480 C   0  0  0  0  0  0  0  0  0  0  0  0
   -2.4970   13.5780   20.3420 O   0  0  0  0  0  0  0  0  0  0  0  0
   -1.3780   11.5890   20.2670 N   0  0  0  0  0  0  0  0  0  0  0  0
   -0.2220   10.9730   19.9060 C   0  0  0  0  0  0  0  0  0  0  0  0
   -0.0380    9.6560   20.0900 O   0  0  0  0  0  0  0  0  0  0  0  0
    2.8060   10.6390   18.7160 H   0  0  0  0  0  0  0  0  0  0  0  0
   -0.4410   14.7070   19.2590 H   0  0  0  0  0  0  0  0  0  0  0  0
   -2.1360   11.0700   20.6880 H   0  0  0  0  0  0  0  0  0  0  0  0
    2.0000   13.5980   18.4580 C   0  0  0  0  0  0  0  0  0  0  0  0
    2.3550   13.0000   17.2910 F   0  0  0  0  0  0  0  0  0  0  0  0
    1.7950   14.9110   18.1760 F   0  0  0  0  0  0  0  0  0  0  0  0
    3.0880   13.5400   19.2710 F   0  0  0  0  0  0  0  0  0  0  0  0
    4.3560    4.8360   17.0970 C   0  0  0  0  0  0  0  0  0  0  0  0
    3.8630    3.6840   17.7190 C   0  0  0  0  0  0  0  0  0  0  0  0
    2.7790    3.7680   18.5930 C   0  0  0  0  0  0  0  0  0  0  0  0
    2.1840    5.0020   18.8660 C   0  0  0  0  0  0  0  0  0  0  0  0
    2.6720    6.1680   18.2780 C   0  0  0  0  0  0  0  0  0  0  0  0
    3.7610    6.0720   17.4000 C   0  0  0  0  0  0  0  0  0  0  0  0
    4.3250    2.7140   17.5590 H   0  0  0  0  0  0  0  0  0  0  0  0
    2.4000    2.8700   19.0790 H   0  0  0  0  0  0  0  0  0  0  0  0
    1.3480    5.0140   19.5600 H   0  0  0  0  0  0  0  0  0  0  0  0
    4.1650    6.9700   16.9320 H   0  0  0  0  0  0  0  0  0  0  0  0
    6.8230    4.8010   16.4970 N   0  0  0  0  0  0  0  0  0  0  0  0
    7.5670    4.7610   15.3790 N   0  0  0  0  0  0  0  0  0  0  0  0
    6.6950    4.7030   14.3850 N   0  0  0  0  0  0  0  0  0  0  0  0
    5.4090    4.7080   14.8590 N   0  0  0  0  0  0  0  0  0  0  0  0
    5.4880    4.8020   16.1760 C   0  0  0  0  0  0  0  0  0  0  0  0
    7.4650    4.7560   17.7810 C   0  0  0  0  0  0  0  0  0  0  0  0
    7.3290    5.7160   18.2870 H   0  0  0  0  0  0  0  0  0  0  0  0
    8.5340    4.5720   17.6490 H   0  0  0  0  0  0  0  0  0  0  0  0
    7.0040    3.9580   18.3680 H   0  0  0  0  0  0  0  0  0  0  0  0
  1  2  1  0  0  0  0
  2  3  2  0  0  0  0
  4  1  1  0  0  0  0
  5  2  1  0  0  0  0
  5 14  1  0  0  0  0
  6  7  1  0  0  0  0
  6  5  2  0  0  0  0
  7 13  2  0  0  0  0
  8  7  1  0  0  0  0
  8  9  2  0  0  0  0
  9 10  1  0  0  0  0
 10 12  1  0  0  0  0
 10 11  2  0  0  0  0
 12 17  1  0  0  0  0
 13 14  1  0  0  0  0
 13 12  1  0  0  0  0
 15  6  1  0  0  0  0
 16  9  1  0  0  0  0
 18  8  1  0  0  0  0
 18 21  1  0  0  0  0
 19 18  1  0  0  0  0
 20 18  1  0  0  0  0
 22 27  2  0  0  0  0
 22 23  1  0  0  0  0
 23 24  2  0  0  0  0
 24 25  1  0  0  0  0
 24 29  1  0  0  0  0
 25 30  1  0  0  0  0
 26  1  1  0  0  0  0
 26 25  2  0  0  0  0
 27 26  1  0  0  0  0
 28 23  1  0  0  0  0
 31 27  1  0  0  0  0
 32 37  1  0  0  0  0
 33 32  1  0  0  0  0
 34 35  1  0  0  0  0
 34 33  2  0  0  0  0
 35 36  2  0  0  0  0
 36 32  1  0  0  0  0
 36 22  1  0  0  0  0
 37 38  1  0  0  0  0
 37 40  1  0  0  0  0
 39 37  1  0  0  0  0
M  END
>  <MODEL>
33

>  <REMARK>
 VINA RESULT:    -7.200      3.797      9.184
 INTER + INTRA:          -9.580
 INTER:                  -9.139
 INTRA:                  -0.441
 UNBOUND:                -0.486
  Name = 
  5 active torsions:
  status: ('A' for Active; 'I' for Inactive)
    1  A    between atoms: C_1  and  N_2
    2  A    between atoms: C_6  and  C_7
    3  A    between atoms: C_11  and  N_12
    4  A    between atoms: C_13  and  C_15
    5  A    between atoms: C_18  and  C_19
                            x       y       z     vdW  Elec       q    Type
                         _______ _______ _______ _____ _____    ______ ____

>  <TORSDO>
F 5

$$$$
