=
 OpenBabel07192307433D

 69 73  0  0  1  0  0  0  0  0999 V2000
    1.9480    5.6620   19.9240 C   0  0  0  0  0  0  0  0  0  0  0  0
    2.8080    5.4180   18.8480 C   0  0  0  0  0  0  0  0  0  0  0  0
    3.1950    6.4780   18.0480 C   0  0  0  0  0  0  0  0  0  0  0  0
    4.0600    6.3690   16.9610 N   0  0  0  0  0  0  0  0  0  0  0  0
    4.7870    5.2830   16.5570 C   0  0  0  0  0  0  0  0  0  0  0  0
    4.8250    4.1890   17.1070 O   0  0  0  0  0  0  0  0  0  0  0  0
    5.5210    5.5740   15.4240 N   0  0  0  0  0  0  0  0  0  0  0  0
    2.7600    7.7340   18.2510 N   0  0  0  0  0  0  0  0  0  0  0  0
    1.9340    7.9950   19.2820 C   0  0  0  0  0  0  0  0  0  0  0  0
    1.5190    6.9790   20.1420 C   0  0  0  0  0  0  0  0  0  0  0  0
    3.1590    4.4130   18.6550 H   0  0  0  0  0  0  0  0  0  0  0  0
    4.2440    7.2660   16.5360 H   0  0  0  0  0  0  0  0  0  0  0  0
    5.1470    6.3100   14.8430 H   0  0  0  0  0  0  0  0  0  0  0  0
    0.8690    7.1890   20.9820 H   0  0  0  0  0  0  0  0  0  0  0  0
    6.3220    4.5550   14.7550 C   0  0  0  0  0  0  0  0  0  0  0  0
    7.6660    5.1490   14.2980 C   0  0  0  0  0  0  0  0  0  0  0  0
    7.6110    5.6410   12.8570 C   0  0  0  0  0  0  0  0  0  0  0  0
    7.2850    4.5070   11.8830 C   0  0  0  0  0  0  0  0  0  0  0  0
    6.4380    3.3930   12.5020 C   0  0  0  0  0  0  0  0  0  0  0  0
    5.5250    3.9200   13.6010 C   0  0  0  0  0  0  0  0  0  0  0  0
    6.5410    3.7780   15.5010 H   0  0  0  0  0  0  0  0  0  0  0  0
    7.9800    5.9630   14.9610 H   0  0  0  0  0  0  0  0  0  0  0  0
    8.4400    4.3730   14.3690 H   0  0  0  0  0  0  0  0  0  0  0  0
    8.5640    6.1030   12.5770 H   0  0  0  0  0  0  0  0  0  0  0  0
    6.8480    6.4240   12.7700 H   0  0  0  0  0  0  0  0  0  0  0  0
    6.7690    4.9290   11.0120 H   0  0  0  0  0  0  0  0  0  0  0  0
    8.2160    4.0680   11.5020 H   0  0  0  0  0  0  0  0  0  0  0  0
    7.0980    2.6240   12.9220 H   0  0  0  0  0  0  0  0  0  0  0  0
    5.8490    2.9020   11.7190 H   0  0  0  0  0  0  0  0  0  0  0  0
    4.8340    4.6540   13.1630 H   0  0  0  0  0  0  0  0  0  0  0  0
    4.9000    3.1070   13.9890 H   0  0  0  0  0  0  0  0  0  0  0  0
    1.5030    9.3250   19.4720 N   0  0  0  0  0  0  0  0  0  0  0  0
    0.7180    9.7540   20.6140 C   0  0  0  0  0  0  0  0  0  0  0  0
    0.5140   11.2130   20.3620 C   0  0  0  0  0  0  0  0  0  0  0  0
    1.1380   11.5710   19.1710 C   0  0  0  0  0  0  0  0  0  0  0  0
    1.1190   12.8620   18.6770 C   0  0  0  0  0  0  0  0  0  0  0  0
    0.4420   13.8260   19.4240 C   0  0  0  0  0  0  0  0  0  0  0  0
   -0.1940   13.4810   20.6320 C   0  0  0  0  0  0  0  0  0  0  0  0
   -0.1670   12.1620   21.1220 C   0  0  0  0  0  0  0  0  0  0  0  0
    1.7740   10.3760   18.5960 C   0  0  0  0  0  0  0  0  0  0  0  0
    2.3930   10.4260   17.5490 O   0  0  0  0  0  0  0  0  0  0  0  0
    1.2880    9.5950   21.5350 H   0  0  0  0  0  0  0  0  0  0  0  0
   -0.2390    9.2230   20.6270 H   0  0  0  0  0  0  0  0  0  0  0  0
    1.6160   13.1090   17.7440 H   0  0  0  0  0  0  0  0  0  0  0  0
    0.4060   14.8550   19.0680 H   0  0  0  0  0  0  0  0  0  0  0  0
   -0.7110   14.2610   21.1910 H   0  0  0  0  0  0  0  0  0  0  0  0
   -0.8320   11.7840   22.4170 C   0  0  0  0  0  0  0  0  0  0  0  0
   -0.2290   10.7530   23.0670 F   0  0  0  0  0  0  0  0  0  0  0  0
   -2.1290   11.4100   22.2350 F   0  0  0  0  0  0  0  0  0  0  0  0
   -0.8680   12.8200   23.2980 F   0  0  0  0  0  0  0  0  0  0  0  0
    1.5500    4.5110   20.8370 C   0  0  2  0  0  0  0  0  0  0  0  0
    0.5890    4.7720   21.3010 H   0  0  0  0  0  0  0  0  0  0  0  0
    2.5420    4.3200   21.9930 C   0  0  0  0  0  0  0  0  0  0  0  0
    2.6570    5.2460   22.5660 H   0  0  0  0  0  0  0  0  0  0  0  0
    2.1910    3.5480   22.6860 H   0  0  0  0  0  0  0  0  0  0  0  0
    3.5320    4.0190   21.6390 H   0  0  0  0  0  0  0  0  0  0  0  0
    1.3650    3.2280   20.0010 C   0  0  0  0  0  0  0  0  0  0  0  0
    0.6390    2.5600   20.4810 H   0  0  0  0  0  0  0  0  0  0  0  0
    0.9390    3.4750   19.0190 H   0  0  0  0  0  0  0  0  0  0  0  0
    2.6450    2.4930   19.8000 C   0  0  0  0  0  0  0  0  0  0  0  0
    3.5590    2.2540   20.7210 N   0  0  0  0  0  0  0  0  0  0  0  0
    4.5790    1.5430   20.1360 N   0  0  0  0  0  0  0  0  0  0  0  0
    4.2710    1.3710   18.8720 C   0  0  0  0  0  0  0  0  0  0  0  0
    3.0680    1.9500   18.6140 N   0  0  0  0  0  0  0  0  0  0  0  0
    4.8700    0.8520   18.1360 H   0  0  0  0  0  0  0  0  0  0  0  0
    2.3920    1.9780   17.3440 C   0  0  0  0  0  0  0  0  0  0  0  0
    3.1400    2.0100   16.5480 H   0  0  0  0  0  0  0  0  0  0  0  0
    1.7590    2.8680   17.2870 H   0  0  0  0  0  0  0  0  0  0  0  0
    1.7760    1.0800   17.2590 H   0  0  0  0  0  0  0  0  0  0  0  0
  1 10  1  0  0  0  0
  1 51  1  0  0  0  0
  2  1  2  0  0  0  0
  3  8  2  0  0  0  0
  3  2  1  0  0  0  0
  4  3  1  0  0  0  0
  5  4  1  0  0  0  0
  5  6  2  0  0  0  0
  7  5  1  0  0  0  0
  8  9  1  0  0  0  0
  9 32  1  0  0  0  0
  9 10  2  0  0  0  0
 10 14  1  0  0  0  0
 11  2  1  0  0  0  0
 12  4  1  0  0  0  0
 13  7  1  0  0  0  0
 15  7  1  0  0  0  0
 15 21  1  0  0  0  0
 16 23  1  0  0  0  0
 16 15  1  0  0  0  0
 16 22  1  0  0  0  0
 17 16  1  0  0  0  0
 18 19  1  0  0  0  0
 18 17  1  0  0  0  0
 19 28  1  0  0  0  0
 19 20  1  0  0  0  0
 20 31  1  0  0  0  0
 20 15  1  0  0  0  0
 24 17  1  0  0  0  0
 25 17  1  0  0  0  0
 26 18  1  0  0  0  0
 27 18  1  0  0  0  0
 29 19  1  0  0  0  0
 30 20  1  0  0  0  0
 32 33  1  0  0  0  0
 33 43  1  0  0  0  0
 33 42  1  0  0  0  0
 34 33  1  0  0  0  0
 34 39  1  0  0  0  0
 35 34  2  0  0  0  0
 36 35  1  0  0  0  0
 36 37  2  0  0  0  0
 37 38  1  0  0  0  0
 38 39  2  0  0  0  0
 38 46  1  0  0  0  0
 39 47  1  0  0  0  0
 40 35  1  0  0  0  0
 40 32  1  0  0  0  0
 41 40  2  0  0  0  0
 44 36  1  0  0  0  0
 45 37  1  0  0  0  0
 47 48  1  0  0  0  0
 47 50  1  0  0  0  0
 49 47  1  0  0  0  0
 51 52  1  1  0  0  0
 51 53  1  0  0  0  0
 53 54  1  0  0  0  0
 53 55  1  0  0  0  0
 56 53  1  0  0  0  0
 57 58  1  0  0  0  0
 57 51  1  0  0  0  0
 59 57  1  0  0  0  0
 60 57  1  0  0  0  0
 60 61  2  0  0  0  0
 62 61  1  0  0  0  0
 63 62  2  0  0  0  0
 64 63  1  0  0  0  0
 64 60  1  0  0  0  0
 65 63  1  0  0  0  0
 66 64  1  0  0  0  0
 67 66  1  0  0  0  0
 68 66  1  0  0  0  0
 69 66  1  0  0  0  0
M  END
>  <MODEL>
1

>  <REMARK>
 VINA RESULT:    -8.244      0.000      0.000
 INTER + INTRA:         -10.657
 INTER:                 -11.366
 INTRA:                   0.709
 UNBOUND:                 0.961
  Name = 
  8 active torsions:
  status: ('A' for Active; 'I' for Inactive)
    1  A    between atoms: C_1  and  C_2
    2  A    between atoms: C_2  and  C_3
    3  A    between atoms: C_2  and  C_10
    4  A    between atoms: C_3  and  C_4
    5  A    between atoms: N_8  and  C_9
    6  A    between atoms: N_16  and  C_17
    7  A    between atoms: C_24  and  N_26
    8  A    between atoms: C_33  and  C_34
                            x       y       z     vdW  Elec       q    Type
                         _______ _______ _______ _____ _____    ______ ____

>  <TORSDO>
F 8

$$$$
=
 OpenBabel07192307433D

 69 73  0  0  1  0  0  0  0  0999 V2000
    1.9970    6.7340   19.6960 C   0  0  0  0  0  0  0  0  0  0  0  0
    2.8440    6.3120   18.6650 C   0  0  0  0  0  0  0  0  0  0  0  0
    3.2420    7.2300   17.7100 C   0  0  0  0  0  0  0  0  0  0  0  0
    4.0960    6.9410   16.6480 N   0  0  0  0  0  0  0  0  0  0  0  0
    4.8000    5.7920   16.4090 C   0  0  0  0  0  0  0  0  0  0  0  0
    4.8240    4.7940   17.1190 O   0  0  0  0  0  0  0  0  0  0  0  0
    5.5290    5.8940   15.2410 N   0  0  0  0  0  0  0  0  0  0  0  0
    2.8320    8.5110   17.7220 N   0  0  0  0  0  0  0  0  0  0  0  0
    2.0200    8.9410   18.7060 C   0  0  0  0  0  0  0  0  0  0  0  0
    1.5940    8.0760   19.7130 C   0  0  0  0  0  0  0  0  0  0  0  0
    3.1750    5.2830   18.6260 H   0  0  0  0  0  0  0  0  0  0  0  0
    4.2920    7.7590   16.0900 H   0  0  0  0  0  0  0  0  0  0  0  0
    5.1630    6.5400   14.5570 H   0  0  0  0  0  0  0  0  0  0  0  0
    0.9550    8.4230   20.5160 H   0  0  0  0  0  0  0  0  0  0  0  0
    6.3060    4.7700   14.7310 C   0  0  0  0  0  0  0  0  0  0  0  0
    7.6620    5.2600   14.1930 C   0  0  0  0  0  0  0  0  0  0  0  0
    7.6150    5.5360   12.6950 C   0  0  0  0  0  0  0  0  0  0  0  0
    7.2620    4.2770   11.8980 C   0  0  0  0  0  0  0  0  0  0  0  0
    6.3920    3.2860   12.6740 C   0  0  0  0  0  0  0  0  0  0  0  0
    5.4930    3.9900   13.6820 C   0  0  0  0  0  0  0  0  0  0  0  0
    6.5090    4.1070   15.5830 H   0  0  0  0  0  0  0  0  0  0  0  0
    7.9960    6.1560   14.7290 H   0  0  0  0  0  0  0  0  0  0  0  0
    8.4190    4.4860   14.3780 H   0  0  0  0  0  0  0  0  0  0  0  0
    8.5780    5.9300   12.3510 H   0  0  0  0  0  0  0  0  0  0  0  0
    6.8690    6.3140   12.4930 H   0  0  0  0  0  0  0  0  0  0  0  0
    6.7530    4.5790   10.9740 H   0  0  0  0  0  0  0  0  0  0  0  0
    8.1830    3.7670   11.5870 H   0  0  0  0  0  0  0  0  0  0  0  0
    7.0360    2.5730   13.2030 H   0  0  0  0  0  0  0  0  0  0  0  0
    5.7910    2.6990   11.9700 H   0  0  0  0  0  0  0  0  0  0  0  0
    4.8180    4.6660   13.1400 H   0  0  0  0  0  0  0  0  0  0  0  0
    4.8510    3.2570   14.1850 H   0  0  0  0  0  0  0  0  0  0  0  0
    1.6140   10.2930   18.6940 N   0  0  0  0  0  0  0  0  0  0  0  0
    2.5240   11.3970   18.4580 C   0  0  0  0  0  0  0  0  0  0  0  0
    1.6390   12.5980   18.5480 C   0  0  0  0  0  0  0  0  0  0  0  0
    0.3340   12.1940   18.8130 C   0  0  0  0  0  0  0  0  0  0  0  0
   -0.7100   13.0890   18.9500 C   0  0  0  0  0  0  0  0  0  0  0  0
   -0.4170   14.4460   18.8110 C   0  0  0  0  0  0  0  0  0  0  0  0
    0.8980   14.8710   18.5410 C   0  0  0  0  0  0  0  0  0  0  0  0
    1.9520   13.9480   18.4050 C   0  0  0  0  0  0  0  0  0  0  0  0
    0.3050   10.7270   18.9050 C   0  0  0  0  0  0  0  0  0  0  0  0
   -0.7280   10.1230   19.1270 O   0  0  0  0  0  0  0  0  0  0  0  0
    2.9610   11.3090   17.4580 H   0  0  0  0  0  0  0  0  0  0  0  0
    3.2910   11.4190   19.2390 H   0  0  0  0  0  0  0  0  0  0  0  0
   -1.7180   12.7420   19.1570 H   0  0  0  0  0  0  0  0  0  0  0  0
   -1.2140   15.1820   18.9110 H   0  0  0  0  0  0  0  0  0  0  0  0
    1.0900   15.9390   18.4360 H   0  0  0  0  0  0  0  0  0  0  0  0
    3.3580   14.3890   18.1060 C   0  0  0  0  0  0  0  0  0  0  0  0
    4.2000   13.3710   17.7850 F   0  0  0  0  0  0  0  0  0  0  0  0
    3.9270   15.0340   19.1620 F   0  0  0  0  0  0  0  0  0  0  0  0
    3.4110   15.2670   17.0660 F   0  0  0  0  0  0  0  0  0  0  0  0
    1.5870    5.7420   20.7760 C   0  0  2  0  0  0  0  0  0  0  0  0
    1.1120    6.3120   21.5870 H   0  0  0  0  0  0  0  0  0  0  0  0
    2.7980    5.0380   21.4050 C   0  0  0  0  0  0  0  0  0  0  0  0
    3.3970    4.5330   20.6400 H   0  0  0  0  0  0  0  0  0  0  0  0
    3.4510    5.7590   21.9080 H   0  0  0  0  0  0  0  0  0  0  0  0
    2.5010    4.2910   22.1460 H   0  0  0  0  0  0  0  0  0  0  0  0
    0.5600    4.7460   20.2010 C   0  0  0  0  0  0  0  0  0  0  0  0
   -0.0960    4.3710   20.9970 H   0  0  0  0  0  0  0  0  0  0  0  0
   -0.1010    5.2560   19.4860 H   0  0  0  0  0  0  0  0  0  0  0  0
    1.2100    3.5920   19.5200 C   0  0  0  0  0  0  0  0  0  0  0  0
    1.4380    3.4780   18.2260 N   0  0  0  0  0  0  0  0  0  0  0  0
    2.0620    2.2740   18.0060 N   0  0  0  0  0  0  0  0  0  0  0  0
    2.1940    1.6760   19.1660 C   0  0  0  0  0  0  0  0  0  0  0  0
    1.6730    2.4630   20.1460 N   0  0  0  0  0  0  0  0  0  0  0  0
    2.6440    0.7070   19.3350 H   0  0  0  0  0  0  0  0  0  0  0  0
    1.6260    2.1550   21.5500 C   0  0  0  0  0  0  0  0  0  0  0  0
    1.3790    1.0960   21.6700 H   0  0  0  0  0  0  0  0  0  0  0  0
    0.8590    2.7660   22.0330 H   0  0  0  0  0  0  0  0  0  0  0  0
    2.6030    2.3740   21.9870 H   0  0  0  0  0  0  0  0  0  0  0  0
  1 10  1  0  0  0  0
  1 51  1  0  0  0  0
  2  1  2  0  0  0  0
  3  8  2  0  0  0  0
  3  2  1  0  0  0  0
  4  3  1  0  0  0  0
  5  4  1  0  0  0  0
  5  6  2  0  0  0  0
  7  5  1  0  0  0  0
  8  9  1  0  0  0  0
  9 10  2  0  0  0  0
 10 14  1  0  0  0  0
 11  2  1  0  0  0  0
 12  4  1  0  0  0  0
 13  7  1  0  0  0  0
 15  7  1  0  0  0  0
 15 21  1  0  0  0  0
 16 23  1  0  0  0  0
 16 22  1  0  0  0  0
 16 15  1  0  0  0  0
 17 16  1  0  0  0  0
 18 19  1  0  0  0  0
 18 17  1  0  0  0  0
 19 28  1  0  0  0  0
 19 20  1  0  0  0  0
 20 31  1  0  0  0  0
 20 15  1  0  0  0  0
 24 17  1  0  0  0  0
 25 17  1  0  0  0  0
 26 18  1  0  0  0  0
 27 18  1  0  0  0  0
 29 19  1  0  0  0  0
 30 20  1  0  0  0  0
 32  9  1  0  0  0  0
 32 40  1  0  0  0  0
 33 34  1  0  0  0  0
 33 32  1  0  0  0  0
 33 43  1  0  0  0  0
 34 35  1  0  0  0  0
 35 40  1  0  0  0  0
 35 36  2  0  0  0  0
 36 44  1  0  0  0  0
 37 45  1  0  0  0  0
 37 36  1  0  0  0  0
 38 37  2  0  0  0  0
 39 38  1  0  0  0  0
 39 34  2  0  0  0  0
 40 41  2  0  0  0  0
 42 33  1  0  0  0  0
 46 38  1  0  0  0  0
 47 39  1  0  0  0  0
 47 49  1  0  0  0  0
 48 47  1  0  0  0  0
 50 47  1  0  0  0  0
 51 53  1  0  0  0  0
 51 52  1  1  0  0  0
 53 55  1  0  0  0  0
 53 56  1  0  0  0  0
 54 53  1  0  0  0  0
 57 51  1  0  0  0  0
 57 58  1  0  0  0  0
 59 57  1  0  0  0  0
 60 64  1  0  0  0  0
 60 57  1  0  0  0  0
 61 60  2  0  0  0  0
 62 61  1  0  0  0  0
 62 63  2  0  0  0  0
 63 65  1  0  0  0  0
 63 64  1  0  0  0  0
 64 66  1  0  0  0  0
 66 67  1  0  0  0  0
 66 69  1  0  0  0  0
 66 68  1  0  0  0  0
M  END
>  <MODEL>
2

>  <REMARK>
 VINA RESULT:    -8.110      2.453      2.992
 INTER + INTRA:         -10.468
 INTER:                 -10.810
 INTRA:                   0.342
 UNBOUND:                 0.961
  Name = 
  8 active torsions:
  status: ('A' for Active; 'I' for Inactive)
    1  A    between atoms: C_1  and  C_2
    2  A    between atoms: C_2  and  C_3
    3  A    between atoms: C_2  and  C_10
    4  A    between atoms: C_3  and  C_4
    5  A    between atoms: N_8  and  C_9
    6  A    between atoms: N_16  and  C_17
    7  A    between atoms: C_24  and  N_26
    8  A    between atoms: C_33  and  C_34
                            x       y       z     vdW  Elec       q    Type
                         _______ _______ _______ _____ _____    ______ ____

>  <TORSDO>
F 8

$$$$
=
 OpenBabel07192307433D

 69 73  0  0  1  0  0  0  0  0999 V2000
    2.0030    6.4960   19.7140 C   0  0  0  0  0  0  0  0  0  0  0  0
    2.8670    6.1360   18.6740 C   0  0  0  0  0  0  0  0  0  0  0  0
    3.2350    7.0950   17.7470 C   0  0  0  0  0  0  0  0  0  0  0  0
    4.1020    6.8680   16.6810 N   0  0  0  0  0  0  0  0  0  0  0  0
    4.8480    5.7520   16.4120 C   0  0  0  0  0  0  0  0  0  0  0  0
    4.9050    4.7350   17.0930 O   0  0  0  0  0  0  0  0  0  0  0  0
    5.5760    5.9130   15.2500 N   0  0  0  0  0  0  0  0  0  0  0  0
    2.7790    8.3590   17.7950 N   0  0  0  0  0  0  0  0  0  0  0  0
    1.9490    8.7310   18.7880 C   0  0  0  0  0  0  0  0  0  0  0  0
    1.5520    7.8220   19.7680 C   0  0  0  0  0  0  0  0  0  0  0  0
    3.2360    5.1210   18.6060 H   0  0  0  0  0  0  0  0  0  0  0  0
    4.2710    7.7080   16.1470 H   0  0  0  0  0  0  0  0  0  0  0  0
    5.1890    6.5650   14.5830 H   0  0  0  0  0  0  0  0  0  0  0  0
    0.8990    8.1230   20.5770 H   0  0  0  0  0  0  0  0  0  0  0  0
    6.3950    4.8340   14.7100 C   0  0  0  0  0  0  0  0  0  0  0  0
    7.7040    5.3960   14.1310 C   0  0  0  0  0  0  0  0  0  0  0  0
    7.5940    5.6720   12.6360 C   0  0  0  0  0  0  0  0  0  0  0  0
    7.2830    4.3990   11.8460 C   0  0  0  0  0  0  0  0  0  0  0  0
    6.4920    3.3610   12.6460 C   0  0  0  0  0  0  0  0  0  0  0  0
    5.5900    4.0140   13.6850 C   0  0  0  0  0  0  0  0  0  0  0  0
    6.6600    4.1800   15.5530 H   0  0  0  0  0  0  0  0  0  0  0  0
    8.0070    6.3070   14.6600 H   0  0  0  0  0  0  0  0  0  0  0  0
    8.5070    4.6630   14.2880 H   0  0  0  0  0  0  0  0  0  0  0  0
    8.5230    6.1180   12.2630 H   0  0  0  0  0  0  0  0  0  0  0  0
    6.8020    6.4100   12.4610 H   0  0  0  0  0  0  0  0  0  0  0  0
    6.7290    4.6740   10.9400 H   0  0  0  0  0  0  0  0  0  0  0  0
    8.2180    3.9390   11.5030 H   0  0  0  0  0  0  0  0  0  0  0  0
    7.1890    2.6820   13.1510 H   0  0  0  0  0  0  0  0  0  0  0  0
    5.9000    2.7440   11.9600 H   0  0  0  0  0  0  0  0  0  0  0  0
    4.8630    4.6540   13.1680 H   0  0  0  0  0  0  0  0  0  0  0  0
    5.0040    3.2470   14.2050 H   0  0  0  0  0  0  0  0  0  0  0  0
    1.4950   10.0670   18.8130 N   0  0  0  0  0  0  0  0  0  0  0  0
    0.2390   10.4720   19.4140 C   0  0  0  0  0  0  0  0  0  0  0  0
    0.2080   11.9480   19.1850 C   0  0  0  0  0  0  0  0  0  0  0  0
    1.3600   12.3380   18.5090 C   0  0  0  0  0  0  0  0  0  0  0  0
    1.6110   13.6510   18.1590 C   0  0  0  0  0  0  0  0  0  0  0  0
    0.6550   14.6050   18.5100 C   0  0  0  0  0  0  0  0  0  0  0  0
   -0.5150   14.2280   19.1960 C   0  0  0  0  0  0  0  0  0  0  0  0
   -0.7580   12.8860   19.5460 C   0  0  0  0  0  0  0  0  0  0  0  0
    2.1890   11.1480   18.2680 C   0  0  0  0  0  0  0  0  0  0  0  0
    3.2600   11.2230   17.6940 O   0  0  0  0  0  0  0  0  0  0  0  0
    0.2500   10.2440   20.4840 H   0  0  0  0  0  0  0  0  0  0  0  0
   -0.5930    9.9800   18.8990 H   0  0  0  0  0  0  0  0  0  0  0  0
    2.5200   13.9230   17.6310 H   0  0  0  0  0  0  0  0  0  0  0  0
    0.8180   15.6500   18.2520 H   0  0  0  0  0  0  0  0  0  0  0  0
   -1.2390   15.0000   19.4570 H   0  0  0  0  0  0  0  0  0  0  0  0
   -1.9990   12.4720   20.2880 C   0  0  0  0  0  0  0  0  0  0  0  0
   -1.7530   11.8200   21.4560 F   0  0  0  0  0  0  0  0  0  0  0  0
   -2.7840   11.6420   19.5470 F   0  0  0  0  0  0  0  0  0  0  0  0
   -2.7860   13.5370   20.6060 F   0  0  0  0  0  0  0  0  0  0  0  0
    1.6260    5.4600   20.7620 C   0  0  2  0  0  0  0  0  0  0  0  0
    1.0920    5.9830   21.5680 H   0  0  0  0  0  0  0  0  0  0  0  0
    2.8610    4.8230   21.4160 C   0  0  0  0  0  0  0  0  0  0  0  0
    2.8470    3.7340   21.2990 H   0  0  0  0  0  0  0  0  0  0  0  0
    3.7820    5.1910   20.9530 H   0  0  0  0  0  0  0  0  0  0  0  0
    2.9210    5.0440   22.4860 H   0  0  0  0  0  0  0  0  0  0  0  0
    0.6830    4.4120   20.1390 C   0  0  0  0  0  0  0  0  0  0  0  0
    0.0780    3.9300   20.9170 H   0  0  0  0  0  0  0  0  0  0  0  0
   -0.0340    4.9020   19.4660 H   0  0  0  0  0  0  0  0  0  0  0  0
    1.4220    3.3660   19.3780 C   0  0  0  0  0  0  0  0  0  0  0  0
    1.6120    3.3390   18.0740 N   0  0  0  0  0  0  0  0  0  0  0  0
    2.3480    2.2180   17.7720 N   0  0  0  0  0  0  0  0  0  0  0  0
    2.5850    1.5820   18.8950 C   0  0  0  0  0  0  0  0  0  0  0  0
    2.0230    2.2640   19.9300 N   0  0  0  0  0  0  0  0  0  0  0  0
    3.1380    0.6590   18.9990 H   0  0  0  0  0  0  0  0  0  0  0  0
    2.0610    1.8850   21.3170 C   0  0  0  0  0  0  0  0  0  0  0  0
    1.7120    2.7260   21.9220 H   0  0  0  0  0  0  0  0  0  0  0  0
    3.0880    1.6340   21.5990 H   0  0  0  0  0  0  0  0  0  0  0  0
    1.4160    1.0140   21.4580 H   0  0  0  0  0  0  0  0  0  0  0  0
  1 10  1  0  0  0  0
  1 51  1  0  0  0  0
  2  1  2  0  0  0  0
  3  8  2  0  0  0  0
  3  2  1  0  0  0  0
  4  3  1  0  0  0  0
  5  4  1  0  0  0  0
  5  6  2  0  0  0  0
  7  5  1  0  0  0  0
  8  9  1  0  0  0  0
  9 32  1  0  0  0  0
  9 10  2  0  0  0  0
 10 14  1  0  0  0  0
 11  2  1  0  0  0  0
 12  4  1  0  0  0  0
 13  7  1  0  0  0  0
 15  7  1  0  0  0  0
 15 21  1  0  0  0  0
 16 23  1  0  0  0  0
 16 22  1  0  0  0  0
 16 15  1  0  0  0  0
 17 16  1  0  0  0  0
 18 17  1  0  0  0  0
 18 19  1  0  0  0  0
 19 28  1  0  0  0  0
 19 20  1  0  0  0  0
 20 31  1  0  0  0  0
 20 15  1  0  0  0  0
 24 17  1  0  0  0  0
 25 17  1  0  0  0  0
 26 18  1  0  0  0  0
 27 18  1  0  0  0  0
 29 19  1  0  0  0  0
 30 20  1  0  0  0  0
 32 33  1  0  0  0  0
 33 42  1  0  0  0  0
 34 33  1  0  0  0  0
 34 39  1  0  0  0  0
 35 34  2  0  0  0  0
 36 35  1  0  0  0  0
 36 37  2  0  0  0  0
 37 38  1  0  0  0  0
 38 46  1  0  0  0  0
 38 39  2  0  0  0  0
 39 47  1  0  0  0  0
 40 35  1  0  0  0  0
 40 32  1  0  0  0  0
 41 40  2  0  0  0  0
 43 33  1  0  0  0  0
 44 36  1  0  0  0  0
 45 37  1  0  0  0  0
 47 50  1  0  0  0  0
 47 48  1  0  0  0  0
 49 47  1  0  0  0  0
 51 53  1  0  0  0  0
 51 52  1  1  0  0  0
 53 56  1  0  0  0  0
 54 53  1  0  0  0  0
 55 53  1  0  0  0  0
 57 51  1  0  0  0  0
 57 58  1  0  0  0  0
 59 57  1  0  0  0  0
 60 64  1  0  0  0  0
 60 57  1  0  0  0  0
 61 60  2  0  0  0  0
 62 61  1  0  0  0  0
 62 63  2  0  0  0  0
 63 65  1  0  0  0  0
 63 64  1  0  0  0  0
 64 66  1  0  0  0  0
 66 69  1  0  0  0  0
 66 68  1  0  0  0  0
 66 67  1  0  0  0  0
M  END
>  <MODEL>
3

>  <REMARK>
 VINA RESULT:    -7.690      1.225      1.639
 INTER + INTRA:          -9.876
 INTER:                 -10.116
 INTRA:                   0.240
 UNBOUND:                 0.961
  Name = 
  8 active torsions:
  status: ('A' for Active; 'I' for Inactive)
    1  A    between atoms: C_1  and  C_2
    2  A    between atoms: C_2  and  C_3
    3  A    between atoms: C_2  and  C_10
    4  A    between atoms: C_3  and  C_4
    5  A    between atoms: N_8  and  C_9
    6  A    between atoms: N_16  and  C_17
    7  A    between atoms: C_24  and  N_26
    8  A    between atoms: C_33  and  C_34
                            x       y       z     vdW  Elec       q    Type
                         _______ _______ _______ _____ _____    ______ ____

>  <TORSDO>
F 8

$$$$
=
 OpenBabel07192307433D

 69 73  0  0  1  0  0  0  0  0999 V2000
    0.9740   12.1740   19.0870 C   0  0  0  0  0  0  0  0  0  0  0  0
   -0.0070   12.2810   20.0790 C   0  0  0  0  0  0  0  0  0  0  0  0
   -0.3310   11.1610   20.8220 C   0  0  0  0  0  0  0  0  0  0  0  0
   -1.2730   11.1430   21.8490 N   0  0  0  0  0  0  0  0  0  0  0  0
   -1.9420   12.1970   22.4100 C   0  0  0  0  0  0  0  0  0  0  0  0
   -1.8110   13.3790   22.1170 O   0  0  0  0  0  0  0  0  0  0  0  0
   -2.8020   11.7640   23.3990 N   0  0  0  0  0  0  0  0  0  0  0  0
    0.2470    9.9640   20.6160 N   0  0  0  0  0  0  0  0  0  0  0  0
    1.1950    9.8360   19.6690 C   0  0  0  0  0  0  0  0  0  0  0  0
    1.5860   10.9280   18.8960 C   0  0  0  0  0  0  0  0  0  0  0  0
   -0.4960   13.2310   20.2530 H   0  0  0  0  0  0  0  0  0  0  0  0
   -1.3310   10.2370   22.2900 H   0  0  0  0  0  0  0  0  0  0  0  0
   -3.1290   10.8130   23.3050 H   0  0  0  0  0  0  0  0  0  0  0  0
    2.3620   10.8320   18.1450 H   0  0  0  0  0  0  0  0  0  0  0  0
   -3.6840   12.6920   24.0980 C   0  0  0  0  0  0  0  0  0  0  0  0
   -5.0550   12.7510   23.4030 C   0  0  0  0  0  0  0  0  0  0  0  0
   -5.1330   13.8890   22.3920 C   0  0  0  0  0  0  0  0  0  0  0  0
   -4.9260   15.2520   23.0560 C   0  0  0  0  0  0  0  0  0  0  0  0
   -4.0430   15.1960   24.3040 C   0  0  0  0  0  0  0  0  0  0  0  0
   -3.0170   14.0740   24.2220 C   0  0  0  0  0  0  0  0  0  0  0  0
   -3.8430   12.2860   25.1070 H   0  0  0  0  0  0  0  0  0  0  0  0
   -5.2880   11.7970   22.9140 H   0  0  0  0  0  0  0  0  0  0  0  0
   -5.8330   12.9090   24.1620 H   0  0  0  0  0  0  0  0  0  0  0  0
   -6.1010   13.8740   21.8780 H   0  0  0  0  0  0  0  0  0  0  0  0
   -4.3680   13.7410   21.6200 H   0  0  0  0  0  0  0  0  0  0  0  0
   -4.4900   15.9380   22.3200 H   0  0  0  0  0  0  0  0  0  0  0  0
   -5.8980   15.6790   23.3330 H   0  0  0  0  0  0  0  0  0  0  0  0
   -4.6730   15.0420   25.1900 H   0  0  0  0  0  0  0  0  0  0  0  0
   -3.5440   16.1610   24.4430 H   0  0  0  0  0  0  0  0  0  0  0  0
   -2.3590   14.2610   23.3620 H   0  0  0  0  0  0  0  0  0  0  0  0
   -2.3710   14.0930   25.1090 H   0  0  0  0  0  0  0  0  0  0  0  0
    1.7860    8.5680   19.4840 N   0  0  0  0  0  0  0  0  0  0  0  0
    2.7080    8.2680   18.4040 C   0  0  0  0  0  0  0  0  0  0  0  0
    3.0430    6.8290   18.6290 C   0  0  0  0  0  0  0  0  0  0  0  0
    2.3610    6.3630   19.7490 C   0  0  0  0  0  0  0  0  0  0  0  0
    2.4750    5.0620   20.2030 C   0  0  0  0  0  0  0  0  0  0  0  0
    3.3150    4.2030   19.4940 C   0  0  0  0  0  0  0  0  0  0  0  0
    4.0130    4.6600   18.3590 C   0  0  0  0  0  0  0  0  0  0  0  0
    3.8870    5.9870   17.9080 C   0  0  0  0  0  0  0  0  0  0  0  0
    1.5590    7.4630   20.3040 C   0  0  0  0  0  0  0  0  0  0  0  0
    0.8700    7.3120   21.2950 O   0  0  0  0  0  0  0  0  0  0  0  0
    3.6010    8.8940   18.4960 H   0  0  0  0  0  0  0  0  0  0  0  0
    2.2070    8.4060   17.4410 H   0  0  0  0  0  0  0  0  0  0  0  0
    1.9290    4.7290   21.0810 H   0  0  0  0  0  0  0  0  0  0  0  0
    3.4320    3.1720   19.8220 H   0  0  0  0  0  0  0  0  0  0  0  0
    4.6630    3.9630   17.8310 H   0  0  0  0  0  0  0  0  0  0  0  0
    4.6370    6.4900   16.7040 C   0  0  0  0  0  0  0  0  0  0  0  0
    3.9440    7.3930   15.9600 F   0  0  0  0  0  0  0  0  0  0  0  0
    4.9760    5.4800   15.8560 F   0  0  0  0  0  0  0  0  0  0  0  0
    5.8070    7.0950   17.0440 F   0  0  0  0  0  0  0  0  0  0  0  0
    1.3690   13.4110   18.2920 C   0  0  2  0  0  0  0  0  0  0  0  0
    0.6420   13.5260   17.4750 H   0  0  0  0  0  0  0  0  0  0  0  0
    2.7400   13.2520   17.6200 C   0  0  0  0  0  0  0  0  0  0  0  0
    2.6600   13.3760   16.5340 H   0  0  0  0  0  0  0  0  0  0  0  0
    3.4440   14.0080   17.9840 H   0  0  0  0  0  0  0  0  0  0  0  0
    3.1830   12.2710   17.8140 H   0  0  0  0  0  0  0  0  0  0  0  0
    1.2980   14.6550   19.2000 C   0  0  0  0  0  0  0  0  0  0  0  0
    1.3010   15.5710   18.5960 H   0  0  0  0  0  0  0  0  0  0  0  0
    0.3480   14.6660   19.7520 H   0  0  0  0  0  0  0  0  0  0  0  0
    2.4230   14.7090   20.1750 C   0  0  0  0  0  0  0  0  0  0  0  0
    3.6980   14.5120   19.9040 N   0  0  0  0  0  0  0  0  0  0  0  0
    4.4110   14.6600   21.0700 N   0  0  0  0  0  0  0  0  0  0  0  0
    3.5560   14.9360   22.0270 C   0  0  0  0  0  0  0  0  0  0  0  0
    2.2970   14.9760   21.5140 N   0  0  0  0  0  0  0  0  0  0  0  0
    3.7980   15.1070   23.0670 H   0  0  0  0  0  0  0  0  0  0  0  0
    1.0880   15.2440   22.2470 C   0  0  0  0  0  0  0  0  0  0  0  0
    1.2860   15.1100   23.3140 H   0  0  0  0  0  0  0  0  0  0  0  0
    0.3060   14.5480   21.9300 H   0  0  0  0  0  0  0  0  0  0  0  0
    0.7760   16.2700   22.0380 H   0  0  0  0  0  0  0  0  0  0  0  0
  1  2  1  0  0  0  0
  2 11  1  0  0  0  0
  2  3  2  0  0  0  0
  3  4  1  0  0  0  0
  4 12  1  0  0  0  0
  4  5  1  0  0  0  0
  5  7  1  0  0  0  0
  6  5  2  0  0  0  0
  7 15  1  0  0  0  0
  8  3  1  0  0  0  0
  9  8  2  0  0  0  0
 10  1  2  0  0  0  0
 10  9  1  0  0  0  0
 13  7  1  0  0  0  0
 14 10  1  0  0  0  0
 15 20  1  0  0  0  0
 15 21  1  0  0  0  0
 16 15  1  0  0  0  0
 16 23  1  0  0  0  0
 17 18  1  0  0  0  0
 17 16  1  0  0  0  0
 18 27  1  0  0  0  0
 18 19  1  0  0  0  0
 19 29  1  0  0  0  0
 19 28  1  0  0  0  0
 20 19  1  0  0  0  0
 20 31  1  0  0  0  0
 22 16  1  0  0  0  0
 24 17  1  0  0  0  0
 25 17  1  0  0  0  0
 26 18  1  0  0  0  0
 30 20  1  0  0  0  0
 32  9  1  0  0  0  0
 32 40  1  0  0  0  0
 33 42  1  0  0  0  0
 33 34  1  0  0  0  0
 33 32  1  0  0  0  0
 34 35  1  0  0  0  0
 35 36  2  0  0  0  0
 35 40  1  0  0  0  0
 36 44  1  0  0  0  0
 37 45  1  0  0  0  0
 37 36  1  0  0  0  0
 38 37  2  0  0  0  0
 39 38  1  0  0  0  0
 39 34  2  0  0  0  0
 40 41  2  0  0  0  0
 43 33  1  0  0  0  0
 46 38  1  0  0  0  0
 47 50  1  0  0  0  0
 47 39  1  0  0  0  0
 48 47  1  0  0  0  0
 49 47  1  0  0  0  0
 51 52  1  6  0  0  0
 51  1  1  0  0  0  0
 51 57  1  0  0  0  0
 53 56  1  0  0  0  0
 53 55  1  0  0  0  0
 53 51  1  0  0  0  0
 54 53  1  0  0  0  0
 57 59  1  0  0  0  0
 57 60  1  0  0  0  0
 58 57  1  0  0  0  0
 60 64  1  0  0  0  0
 61 60  2  0  0  0  0
 61 62  1  0  0  0  0
 62 63  2  0  0  0  0
 63 65  1  0  0  0  0
 64 63  1  0  0  0  0
 64 66  1  0  0  0  0
 66 67  1  0  0  0  0
 68 66  1  0  0  0  0
 69 66  1  0  0  0  0
M  END
>  <MODEL>
4

>  <REMARK>
 VINA RESULT:    -7.477      4.347     11.171
 INTER + INTRA:          -9.576
 INTER:                 -10.271
 INTRA:                   0.696
 UNBOUND:                 0.961
  Name = 
  8 active torsions:
  status: ('A' for Active; 'I' for Inactive)
    1  A    between atoms: C_1  and  C_2
    2  A    between atoms: C_2  and  C_3
    3  A    between atoms: C_2  and  C_10
    4  A    between atoms: C_3  and  C_4
    5  A    between atoms: N_8  and  C_9
    6  A    between atoms: N_16  and  C_17
    7  A    between atoms: C_24  and  N_26
    8  A    between atoms: C_33  and  C_34
                            x       y       z     vdW  Elec       q    Type
                         _______ _______ _______ _____ _____    ______ ____

>  <TORSDO>
F 8

$$$$
=
 OpenBabel07192307433D

 69 73  0  0  1  0  0  0  0  0999 V2000
    1.5110    5.8510   20.5270 C   0  0  0  0  0  0  0  0  0  0  0  0
    2.4310    5.9650   19.4800 C   0  0  0  0  0  0  0  0  0  0  0  0
    2.6690    7.2120   18.9310 C   0  0  0  0  0  0  0  0  0  0  0  0
    3.5740    7.4590   17.9000 N   0  0  0  0  0  0  0  0  0  0  0  0
    4.4760    6.6000   17.3340 C   0  0  0  0  0  0  0  0  0  0  0  0
    4.6700    5.4340   17.6580 O   0  0  0  0  0  0  0  0  0  0  0  0
    5.1890    7.2240   16.3300 N   0  0  0  0  0  0  0  0  0  0  0  0
    2.0350    8.3200   19.3520 N   0  0  0  0  0  0  0  0  0  0  0  0
    1.1470    8.2370   20.3610 C   0  0  0  0  0  0  0  0  0  0  0  0
    0.8730    7.0160   20.9750 C   0  0  0  0  0  0  0  0  0  0  0  0
    2.9440    5.0840   19.1140 H   0  0  0  0  0  0  0  0  0  0  0  0
    3.6260    8.4410   17.6740 H   0  0  0  0  0  0  0  0  0  0  0  0
    4.7210    7.9990   15.8840 H   0  0  0  0  0  0  0  0  0  0  0  0
    0.1720    6.9490   21.7980 H   0  0  0  0  0  0  0  0  0  0  0  0
    6.1610    6.4950   15.5230 C   0  0  0  0  0  0  0  0  0  0  0  0
    5.4570    5.7760   14.3600 C   0  0  0  0  0  0  0  0  0  0  0  0
    5.1010    4.3370   14.7120 C   0  0  0  0  0  0  0  0  0  0  0  0
    6.3460    3.5100   15.0420 C   0  0  0  0  0  0  0  0  0  0  0  0
    7.4930    4.3370   15.6260 C   0  0  0  0  0  0  0  0  0  0  0  0
    6.9820    5.5400   16.4080 C   0  0  0  0  0  0  0  0  0  0  0  0
    6.8400    7.2420   15.0880 H   0  0  0  0  0  0  0  0  0  0  0  0
    4.5580    6.3200   14.0500 H   0  0  0  0  0  0  0  0  0  0  0  0
    6.1280    5.7630   13.4910 H   0  0  0  0  0  0  0  0  0  0  0  0
    4.5570    3.8670   13.8840 H   0  0  0  0  0  0  0  0  0  0  0  0
    4.4230    4.3310   15.5740 H   0  0  0  0  0  0  0  0  0  0  0  0
    6.0630    2.7150   15.7430 H   0  0  0  0  0  0  0  0  0  0  0  0
    6.7040    3.0040   14.1360 H   0  0  0  0  0  0  0  0  0  0  0  0
    8.1410    4.6870   14.8120 H   0  0  0  0  0  0  0  0  0  0  0  0
    8.1150    3.7010   16.2660 H   0  0  0  0  0  0  0  0  0  0  0  0
    6.3750    5.1800   17.2500 H   0  0  0  0  0  0  0  0  0  0  0  0
    7.8260    6.0820   16.8520 H   0  0  0  0  0  0  0  0  0  0  0  0
    0.5050    9.4210   20.7840 N   0  0  0  0  0  0  0  0  0  0  0  0
    0.4030   10.6110   19.9600 C   0  0  0  0  0  0  0  0  0  0  0  0
   -0.3420   11.5690   20.8330 C   0  0  0  0  0  0  0  0  0  0  0  0
   -0.6330   10.9600   22.0490 C   0  0  0  0  0  0  0  0  0  0  0  0
   -1.3190   11.6060   23.0610 C   0  0  0  0  0  0  0  0  0  0  0  0
   -1.7250   12.9200   22.8270 C   0  0  0  0  0  0  0  0  0  0  0  0
   -1.4390   13.5500   21.6010 C   0  0  0  0  0  0  0  0  0  0  0  0
   -0.7400   12.8800   20.5790 C   0  0  0  0  0  0  0  0  0  0  0  0
   -0.1010    9.5900   22.0290 C   0  0  0  0  0  0  0  0  0  0  0  0
   -0.2300    8.8420   22.9800 O   0  0  0  0  0  0  0  0  0  0  0  0
   -0.1690   10.3850   19.0540 H   0  0  0  0  0  0  0  0  0  0  0  0
    1.4030   10.9900   19.7300 H   0  0  0  0  0  0  0  0  0  0  0  0
   -1.5300   11.1020   24.0000 H   0  0  0  0  0  0  0  0  0  0  0  0
   -2.2680   13.4610   23.6000 H   0  0  0  0  0  0  0  0  0  0  0  0
   -1.7740   14.5770   21.4510 H   0  0  0  0  0  0  0  0  0  0  0  0
   -0.4390   13.5400   19.2610 C   0  0  0  0  0  0  0  0  0  0  0  0
   -1.0270   12.9350   18.1950 F   0  0  0  0  0  0  0  0  0  0  0  0
    0.8970   13.5630   18.9950 F   0  0  0  0  0  0  0  0  0  0  0  0
   -0.8440   14.8390   19.2320 F   0  0  0  0  0  0  0  0  0  0  0  0
    1.2730    4.4910   21.1670 C   0  0  2  0  0  0  0  0  0  0  0  0
    0.5750    4.6350   22.0030 H   0  0  0  0  0  0  0  0  0  0  0  0
    2.5550    3.9080   21.7800 C   0  0  0  0  0  0  0  0  0  0  0  0
    2.3210    3.2450   22.6200 H   0  0  0  0  0  0  0  0  0  0  0  0
    3.1080    3.3180   21.0420 H   0  0  0  0  0  0  0  0  0  0  0  0
    3.2280    4.6890   22.1470 H   0  0  0  0  0  0  0  0  0  0  0  0
    0.6280    3.5410   20.1380 C   0  0  0  0  0  0  0  0  0  0  0  0
   -0.0120    2.8060   20.6440 H   0  0  0  0  0  0  0  0  0  0  0  0
   -0.0370    4.1040   19.4690 H   0  0  0  0  0  0  0  0  0  0  0  0
    1.6420    2.8210   19.3180 C   0  0  0  0  0  0  0  0  0  0  0  0
    2.4000    1.8190   19.7190 N   0  0  0  0  0  0  0  0  0  0  0  0
    3.1910    1.4320   18.6640 N   0  0  0  0  0  0  0  0  0  0  0  0
    2.9040    2.2090   17.6450 C   0  0  0  0  0  0  0  0  0  0  0  0
    1.9390    3.0960   18.0080 N   0  0  0  0  0  0  0  0  0  0  0  0
    3.3560    2.1640   16.6640 H   0  0  0  0  0  0  0  0  0  0  0  0
    1.3620    4.1140   17.1710 C   0  0  0  0  0  0  0  0  0  0  0  0
    1.9930    5.0050   17.2130 H   0  0  0  0  0  0  0  0  0  0  0  0
    0.3590    4.3580   17.5320 H   0  0  0  0  0  0  0  0  0  0  0  0
    1.3030    3.7300   16.1490 H   0  0  0  0  0  0  0  0  0  0  0  0
  1 10  1  0  0  0  0
  1 51  1  0  0  0  0
  2  1  2  0  0  0  0
  3  8  2  0  0  0  0
  3  2  1  0  0  0  0
  4  3  1  0  0  0  0
  5  6  2  0  0  0  0
  5  4  1  0  0  0  0
  7  5  1  0  0  0  0
  8  9  1  0  0  0  0
  9 32  1  0  0  0  0
  9 10  2  0  0  0  0
 10 14  1  0  0  0  0
 11  2  1  0  0  0  0
 12  4  1  0  0  0  0
 13  7  1  0  0  0  0
 15  7  1  0  0  0  0
 15 20  1  0  0  0  0
 16 17  1  0  0  0  0
 16 15  1  0  0  0  0
 17 18  1  0  0  0  0
 17 25  1  0  0  0  0
 18 19  1  0  0  0  0
 18 26  1  0  0  0  0
 19 29  1  0  0  0  0
 19 20  1  0  0  0  0
 20 31  1  0  0  0  0
 20 30  1  0  0  0  0
 21 15  1  0  0  0  0
 22 16  1  0  0  0  0
 23 16  1  0  0  0  0
 24 17  1  0  0  0  0
 27 18  1  0  0  0  0
 28 19  1  0  0  0  0
 32 40  1  0  0  0  0
 33 32  1  0  0  0  0
 33 34  1  0  0  0  0
 34 35  1  0  0  0  0
 35 36  2  0  0  0  0
 36 44  1  0  0  0  0
 37 36  1  0  0  0  0
 37 45  1  0  0  0  0
 38 37  2  0  0  0  0
 39 34  2  0  0  0  0
 39 38  1  0  0  0  0
 40 35  1  0  0  0  0
 40 41  2  0  0  0  0
 42 33  1  0  0  0  0
 43 33  1  0  0  0  0
 46 38  1  0  0  0  0
 47 39  1  0  0  0  0
 48 47  1  0  0  0  0
 49 47  1  0  0  0  0
 50 47  1  0  0  0  0
 51 53  1  0  0  0  0
 51 52  1  1  0  0  0
 53 56  1  0  0  0  0
 53 54  1  0  0  0  0
 55 53  1  0  0  0  0
 57 58  1  0  0  0  0
 57 51  1  0  0  0  0
 59 57  1  0  0  0  0
 60 61  2  0  0  0  0
 60 57  1  0  0  0  0
 62 61  1  0  0  0  0
 63 64  1  0  0  0  0
 63 62  2  0  0  0  0
 64 60  1  0  0  0  0
 65 63  1  0  0  0  0
 66 67  1  0  0  0  0
 66 68  1  0  0  0  0
 66 64  1  0  0  0  0
 69 66  1  0  0  0  0
M  END
>  <MODEL>
5

>  <REMARK>
 VINA RESULT:    -7.268      2.095      2.791
 INTER + INTRA:          -9.281
 INTER:                 -10.056
 INTRA:                   0.775
 UNBOUND:                 0.961
  Name = 
  8 active torsions:
  status: ('A' for Active; 'I' for Inactive)
    1  A    between atoms: C_1  and  C_2
    2  A    between atoms: C_2  and  C_3
    3  A    between atoms: C_2  and  C_10
    4  A    between atoms: C_3  and  C_4
    5  A    between atoms: N_8  and  C_9
    6  A    between atoms: N_16  and  C_17
    7  A    between atoms: C_24  and  N_26
    8  A    between atoms: C_33  and  C_34
                            x       y       z     vdW  Elec       q    Type
                         _______ _______ _______ _____ _____    ______ ____

>  <TORSDO>
F 8

$$$$
=
 OpenBabel07192307433D

 69 73  0  0  1  0  0  0  0  0999 V2000
    1.1610   12.1030   19.0150 C   0  0  0  0  0  0  0  0  0  0  0  0
    0.1840   12.1870   20.0130 C   0  0  0  0  0  0  0  0  0  0  0  0
   -0.1830   11.0380   20.6890 C   0  0  0  0  0  0  0  0  0  0  0  0
   -1.1260   10.9940   21.7130 N   0  0  0  0  0  0  0  0  0  0  0  0
   -1.7550   12.0370   22.3380 C   0  0  0  0  0  0  0  0  0  0  0  0
   -1.5790   13.2280   22.1160 O   0  0  0  0  0  0  0  0  0  0  0  0
   -2.6320   11.5790   23.3000 N   0  0  0  0  0  0  0  0  0  0  0  0
    0.3480    9.8340   20.4100 N   0  0  0  0  0  0  0  0  0  0  0  0
    1.2920    9.7270   19.4560 C   0  0  0  0  0  0  0  0  0  0  0  0
    1.7260   10.8480   18.7490 C   0  0  0  0  0  0  0  0  0  0  0  0
   -0.2680   13.1430   20.2450 H   0  0  0  0  0  0  0  0  0  0  0  0
   -1.2190   10.0660   22.0990 H   0  0  0  0  0  0  0  0  0  0  0  0
   -2.9950   10.6480   23.1490 H   0  0  0  0  0  0  0  0  0  0  0  0
    2.4980   10.7680   17.9930 H   0  0  0  0  0  0  0  0  0  0  0  0
   -3.4790   12.4960   24.0550 C   0  0  0  0  0  0  0  0  0  0  0  0
   -4.8370   12.6670   23.3530 C   0  0  0  0  0  0  0  0  0  0  0  0
   -4.8500   13.8750   22.4240 C   0  0  0  0  0  0  0  0  0  0  0  0
   -4.5890   15.1770   23.1840 C   0  0  0  0  0  0  0  0  0  0  0  0
   -3.7240   14.9930   24.4330 C   0  0  0  0  0  0  0  0  0  0  0  0
   -2.7500   13.8330   24.2820 C   0  0  0  0  0  0  0  0  0  0  0  0
   -3.6680   12.0290   25.0310 H   0  0  0  0  0  0  0  0  0  0  0  0
   -5.1070   11.7620   22.7970 H   0  0  0  0  0  0  0  0  0  0  0  0
   -5.6160   12.8090   24.1140 H   0  0  0  0  0  0  0  0  0  0  0  0
   -5.8120   13.9420   21.9020 H   0  0  0  0  0  0  0  0  0  0  0  0
   -4.0830   13.7460   21.6500 H   0  0  0  0  0  0  0  0  0  0  0  0
   -4.1130   15.8920   22.5020 H   0  0  0  0  0  0  0  0  0  0  0  0
   -5.5430   15.6300   23.4820 H   0  0  0  0  0  0  0  0  0  0  0  0
   -4.3710   14.8080   25.3000 H   0  0  0  0  0  0  0  0  0  0  0  0
   -3.1820   15.9220   24.6430 H   0  0  0  0  0  0  0  0  0  0  0  0
   -2.0740   14.0480   23.4430 H   0  0  0  0  0  0  0  0  0  0  0  0
   -2.1150   13.7590   25.1730 H   0  0  0  0  0  0  0  0  0  0  0  0
    1.8350    8.4510   19.1940 N   0  0  0  0  0  0  0  0  0  0  0  0
    1.5710    7.2870   20.0180 C   0  0  0  0  0  0  0  0  0  0  0  0
    2.3570    6.2070   19.3480 C   0  0  0  0  0  0  0  0  0  0  0  0
    3.0080    6.7280   18.2350 C   0  0  0  0  0  0  0  0  0  0  0  0
    3.8130    5.9600   17.4150 C   0  0  0  0  0  0  0  0  0  0  0  0
    3.9600    4.6100   17.7380 C   0  0  0  0  0  0  0  0  0  0  0  0
    3.3060    4.0670   18.8600 C   0  0  0  0  0  0  0  0  0  0  0  0
    2.4890    4.8610   19.6860 C   0  0  0  0  0  0  0  0  0  0  0  0
    2.6820    8.1570   18.1250 C   0  0  0  0  0  0  0  0  0  0  0  0
    3.1270    8.8450   17.2250 O   0  0  0  0  0  0  0  0  0  0  0  0
    0.5000    7.0580   20.0010 H   0  0  0  0  0  0  0  0  0  0  0  0
    1.9360    7.4620   21.0350 H   0  0  0  0  0  0  0  0  0  0  0  0
    4.3090    6.3970   16.5530 H   0  0  0  0  0  0  0  0  0  0  0  0
    4.5850    3.9730   17.1140 H   0  0  0  0  0  0  0  0  0  0  0  0
    3.4400    3.0080   19.0810 H   0  0  0  0  0  0  0  0  0  0  0  0
    1.7760    4.2900   20.8820 C   0  0  0  0  0  0  0  0  0  0  0  0
    0.4360    4.5210   20.8880 F   0  0  0  0  0  0  0  0  0  0  0  0
    2.2550    4.7960   22.0520 F   0  0  0  0  0  0  0  0  0  0  0  0
    1.9290    2.9400   20.9740 F   0  0  0  0  0  0  0  0  0  0  0  0
    1.6040   13.3690   18.2960 C   0  0  2  0  0  0  0  0  0  0  0  0
    0.9530   13.4980   17.4200 H   0  0  0  0  0  0  0  0  0  0  0  0
    3.0340   13.2530   17.7480 C   0  0  0  0  0  0  0  0  0  0  0  0
    3.2460   12.2280   17.4230 H   0  0  0  0  0  0  0  0  0  0  0  0
    3.1750   13.9070   16.8820 H   0  0  0  0  0  0  0  0  0  0  0  0
    3.7840   13.5300   18.4950 H   0  0  0  0  0  0  0  0  0  0  0  0
    1.4270   14.5840   19.2290 C   0  0  0  0  0  0  0  0  0  0  0  0
    1.4060   15.5140   18.6470 H   0  0  0  0  0  0  0  0  0  0  0  0
    0.4560   14.5290   19.7400 H   0  0  0  0  0  0  0  0  0  0  0  0
    2.5070   14.6740   20.2520 C   0  0  0  0  0  0  0  0  0  0  0  0
    3.7930   14.4750   20.0460 N   0  0  0  0  0  0  0  0  0  0  0  0
    4.4510   14.6620   21.2390 N   0  0  0  0  0  0  0  0  0  0  0  0
    3.5530   14.9620   22.1470 C   0  0  0  0  0  0  0  0  0  0  0  0
    2.3180   14.9800   21.5750 N   0  0  0  0  0  0  0  0  0  0  0  0
    3.7460   15.1660   23.1910 H   0  0  0  0  0  0  0  0  0  0  0  0
    1.0760   15.2640   22.2440 C   0  0  0  0  0  0  0  0  0  0  0  0
    0.3040   14.5990   21.8510 H   0  0  0  0  0  0  0  0  0  0  0  0
    0.7910   16.3040   22.0590 H   0  0  0  0  0  0  0  0  0  0  0  0
    1.2140   15.1040   23.3160 H   0  0  0  0  0  0  0  0  0  0  0  0
  1  2  1  0  0  0  0
  2 11  1  0  0  0  0
  2  3  2  0  0  0  0
  3  4  1  0  0  0  0
  4 12  1  0  0  0  0
  4  5  1  0  0  0  0
  5  7  1  0  0  0  0
  6  5  2  0  0  0  0
  7 15  1  0  0  0  0
  8  3  1  0  0  0  0
  9  8  2  0  0  0  0
 10  1  2  0  0  0  0
 10  9  1  0  0  0  0
 13  7  1  0  0  0  0
 14 10  1  0  0  0  0
 15 20  1  0  0  0  0
 15 21  1  0  0  0  0
 16 15  1  0  0  0  0
 16 23  1  0  0  0  0
 17 18  1  0  0  0  0
 17 16  1  0  0  0  0
 18 27  1  0  0  0  0
 18 19  1  0  0  0  0
 19 29  1  0  0  0  0
 19 28  1  0  0  0  0
 20 19  1  0  0  0  0
 20 31  1  0  0  0  0
 22 16  1  0  0  0  0
 24 17  1  0  0  0  0
 25 17  1  0  0  0  0
 26 18  1  0  0  0  0
 30 20  1  0  0  0  0
 32  9  1  0  0  0  0
 32 33  1  0  0  0  0
 33 43  1  0  0  0  0
 34 39  1  0  0  0  0
 34 33  1  0  0  0  0
 35 34  2  0  0  0  0
 36 37  2  0  0  0  0
 36 35  1  0  0  0  0
 37 38  1  0  0  0  0
 38 46  1  0  0  0  0
 38 39  2  0  0  0  0
 39 47  1  0  0  0  0
 40 35  1  0  0  0  0
 40 32  1  0  0  0  0
 41 40  2  0  0  0  0
 42 33  1  0  0  0  0
 44 36  1  0  0  0  0
 45 37  1  0  0  0  0
 47 48  1  0  0  0  0
 47 50  1  0  0  0  0
 47 49  1  0  0  0  0
 51 52  1  6  0  0  0
 51  1  1  0  0  0  0
 51 57  1  0  0  0  0
 53 51  1  0  0  0  0
 53 56  1  0  0  0  0
 54 53  1  0  0  0  0
 55 53  1  0  0  0  0
 57 59  1  0  0  0  0
 57 60  1  0  0  0  0
 58 57  1  0  0  0  0
 60 64  1  0  0  0  0
 61 60  2  0  0  0  0
 61 62  1  0  0  0  0
 62 63  2  0  0  0  0
 63 65  1  0  0  0  0
 64 63  1  0  0  0  0
 64 66  1  0  0  0  0
 66 69  1  0  0  0  0
 67 66  1  0  0  0  0
 68 66  1  0  0  0  0
M  END
>  <MODEL>
6

>  <REMARK>
 VINA RESULT:    -7.144      3.964     10.881
 INTER + INTRA:          -9.106
 INTER:                  -9.862
 INTRA:                   0.756
 UNBOUND:                 0.961
  Name = 
  8 active torsions:
  status: ('A' for Active; 'I' for Inactive)
    1  A    between atoms: C_1  and  C_2
    2  A    between atoms: C_2  and  C_3
    3  A    between atoms: C_2  and  C_10
    4  A    between atoms: C_3  and  C_4
    5  A    between atoms: N_8  and  C_9
    6  A    between atoms: N_16  and  C_17
    7  A    between atoms: C_24  and  N_26
    8  A    between atoms: C_33  and  C_34
                            x       y       z     vdW  Elec       q    Type
                         _______ _______ _______ _____ _____    ______ ____

>  <TORSDO>
F 8

$$$$
=
 OpenBabel07192307433D

 69 73  0  0  1  0  0  0  0  0999 V2000
    1.1780   11.7630   19.0150 C   0  0  0  0  0  0  0  0  0  0  0  0
    0.2130   11.9540   20.0100 C   0  0  0  0  0  0  0  0  0  0  0  0
   -0.1490   10.8820   20.8050 C   0  0  0  0  0  0  0  0  0  0  0  0
   -1.0800   10.9470   21.8390 N   0  0  0  0  0  0  0  0  0  0  0  0
   -1.6990   12.0520   22.3600 C   0  0  0  0  0  0  0  0  0  0  0  0
   -1.5210   13.2140   22.0150 O   0  0  0  0  0  0  0  0  0  0  0  0
   -2.5650   11.6990   23.3750 N   0  0  0  0  0  0  0  0  0  0  0  0
    0.3750    9.6530   20.6450 N   0  0  0  0  0  0  0  0  0  0  0  0
    1.3070    9.4450   19.6970 C   0  0  0  0  0  0  0  0  0  0  0  0
    1.7350   10.4850   18.8730 C   0  0  0  0  0  0  0  0  0  0  0  0
   -0.2340   12.9300   20.1470 H   0  0  0  0  0  0  0  0  0  0  0  0
   -1.1710   10.0650   22.3200 H   0  0  0  0  0  0  0  0  0  0  0  0
   -2.9330   10.7600   23.3250 H   0  0  0  0  0  0  0  0  0  0  0  0
    2.4980   10.3240   18.1200 H   0  0  0  0  0  0  0  0  0  0  0  0
   -3.4000   12.6930   24.0410 C   0  0  0  0  0  0  0  0  0  0  0  0
   -4.7710   12.7860   23.3510 C   0  0  0  0  0  0  0  0  0  0  0  0
   -4.8060   13.8850   22.2950 C   0  0  0  0  0  0  0  0  0  0  0  0
   -4.5330   15.2630   22.9030 C   0  0  0  0  0  0  0  0  0  0  0  0
   -3.6450   15.2170   24.1490 C   0  0  0  0  0  0  0  0  0  0  0  0
   -2.6700   14.0470   24.1060 C   0  0  0  0  0  0  0  0  0  0  0  0
   -3.5700   12.3350   25.0660 H   0  0  0  0  0  0  0  0  0  0  0  0
   -5.0500   11.8250   22.9010 H   0  0  0  0  0  0  0  0  0  0  0  0
   -5.5360   13.0090   24.1060 H   0  0  0  0  0  0  0  0  0  0  0  0
   -5.7760   13.8940   21.7870 H   0  0  0  0  0  0  0  0  0  0  0  0
   -4.0530   13.6730   21.5260 H   0  0  0  0  0  0  0  0  0  0  0  0
   -4.0720   15.8990   22.1380 H   0  0  0  0  0  0  0  0  0  0  0  0
   -5.4830   15.7440   23.1680 H   0  0  0  0  0  0  0  0  0  0  0  0
   -4.2750   15.1270   25.0420 H   0  0  0  0  0  0  0  0  0  0  0  0
   -3.1020   16.1640   24.2460 H   0  0  0  0  0  0  0  0  0  0  0  0
   -2.0110   14.1700   23.2360 H   0  0  0  0  0  0  0  0  0  0  0  0
   -2.0190   14.0720   24.9880 H   0  0  0  0  0  0  0  0  0  0  0  0
    1.8430    8.1460   19.5610 N   0  0  0  0  0  0  0  0  0  0  0  0
    2.7880    7.7770   18.5250 C   0  0  0  0  0  0  0  0  0  0  0  0
    3.0440    6.3290   18.7930 C   0  0  0  0  0  0  0  0  0  0  0  0
    2.2990    5.9220   19.8960 C   0  0  0  0  0  0  0  0  0  0  0  0
    2.3330    4.6290   20.3820 C   0  0  0  0  0  0  0  0  0  0  0  0
    3.1560    3.7150   19.7240 C   0  0  0  0  0  0  0  0  0  0  0  0
    3.9180    4.1110   18.6080 C   0  0  0  0  0  0  0  0  0  0  0  0
    3.8730    5.4320   18.1230 C   0  0  0  0  0  0  0  0  0  0  0  0
    1.5320    7.0720   20.3960 C   0  0  0  0  0  0  0  0  0  0  0  0
    0.7990    6.9770   21.3630 O   0  0  0  0  0  0  0  0  0  0  0  0
    3.7060    8.3620   18.6370 H   0  0  0  0  0  0  0  0  0  0  0  0
    2.3310    7.9160   17.5400 H   0  0  0  0  0  0  0  0  0  0  0  0
    1.7400    4.3420   21.2460 H   0  0  0  0  0  0  0  0  0  0  0  0
    3.2110    2.6870   20.0790 H   0  0  0  0  0  0  0  0  0  0  0  0
    4.5520    3.3710   18.1200 H   0  0  0  0  0  0  0  0  0  0  0  0
    4.6900    5.8690   16.9380 C   0  0  0  0  0  0  0  0  0  0  0  0
    4.1390    6.8960   16.2370 F   0  0  0  0  0  0  0  0  0  0  0  0
    4.8800    4.8580   16.0470 F   0  0  0  0  0  0  0  0  0  0  0  0
    5.9370    6.2820   17.2980 F   0  0  0  0  0  0  0  0  0  0  0  0
    1.6150   12.9460   18.1630 C   0  0  2  0  0  0  0  0  0  0  0  0
    0.8720   13.0710   17.3630 H   0  0  0  0  0  0  0  0  0  0  0  0
    2.9560   12.6880   17.4610 C   0  0  0  0  0  0  0  0  0  0  0  0
    2.7990   12.3690   16.4250 H   0  0  0  0  0  0  0  0  0  0  0  0
    3.5650   13.5970   17.4350 H   0  0  0  0  0  0  0  0  0  0  0  0
    3.5430   11.9140   17.9650 H   0  0  0  0  0  0  0  0  0  0  0  0
    1.6380   14.2240   19.0250 C   0  0  0  0  0  0  0  0  0  0  0  0
    1.6050   15.1170   18.3870 H   0  0  0  0  0  0  0  0  0  0  0  0
    0.7370   14.2730   19.6520 H   0  0  0  0  0  0  0  0  0  0  0  0
    2.8410   14.2950   19.9020 C   0  0  0  0  0  0  0  0  0  0  0  0
    2.9060   13.9280   21.1660 N   0  0  0  0  0  0  0  0  0  0  0  0
    4.1890   14.1430   21.6090 N   0  0  0  0  0  0  0  0  0  0  0  0
    4.8770   14.6420   20.6090 C   0  0  0  0  0  0  0  0  0  0  0  0
    4.0730   14.7570   19.5170 N   0  0  0  0  0  0  0  0  0  0  0  0
    5.9200   14.9250   20.6320 H   0  0  0  0  0  0  0  0  0  0  0  0
    4.4580   15.2670   18.2280 C   0  0  0  0  0  0  0  0  0  0  0  0
    5.4110   14.8160   17.9410 H   0  0  0  0  0  0  0  0  0  0  0  0
    4.5690   16.3530   18.2820 H   0  0  0  0  0  0  0  0  0  0  0  0
    3.6780   15.0110   17.5060 H   0  0  0  0  0  0  0  0  0  0  0  0
  1  2  1  0  0  0  0
  2 11  1  0  0  0  0
  2  3  2  0  0  0  0
  3  4  1  0  0  0  0
  4 12  1  0  0  0  0
  4  5  1  0  0  0  0
  5  7  1  0  0  0  0
  6  5  2  0  0  0  0
  7 15  1  0  0  0  0
  8  3  1  0  0  0  0
  9  8  2  0  0  0  0
 10  1  2  0  0  0  0
 10  9  1  0  0  0  0
 13  7  1  0  0  0  0
 14 10  1  0  0  0  0
 15 20  1  0  0  0  0
 15 21  1  0  0  0  0
 16 15  1  0  0  0  0
 16 23  1  0  0  0  0
 17 18  1  0  0  0  0
 17 16  1  0  0  0  0
 18 27  1  0  0  0  0
 18 19  1  0  0  0  0
 19 29  1  0  0  0  0
 19 28  1  0  0  0  0
 20 19  1  0  0  0  0
 20 31  1  0  0  0  0
 22 16  1  0  0  0  0
 24 17  1  0  0  0  0
 25 17  1  0  0  0  0
 26 18  1  0  0  0  0
 30 20  1  0  0  0  0
 32  9  1  0  0  0  0
 32 40  1  0  0  0  0
 33 42  1  0  0  0  0
 33 34  1  0  0  0  0
 33 32  1  0  0  0  0
 34 35  1  0  0  0  0
 35 36  2  0  0  0  0
 35 40  1  0  0  0  0
 36 44  1  0  0  0  0
 37 45  1  0  0  0  0
 37 36  1  0  0  0  0
 38 37  2  0  0  0  0
 39 38  1  0  0  0  0
 39 34  2  0  0  0  0
 40 41  2  0  0  0  0
 43 33  1  0  0  0  0
 46 38  1  0  0  0  0
 47 50  1  0  0  0  0
 47 39  1  0  0  0  0
 48 47  1  0  0  0  0
 49 47  1  0  0  0  0
 51 52  1  6  0  0  0
 51  1  1  0  0  0  0
 51 57  1  0  0  0  0
 53 56  1  0  0  0  0
 53 51  1  0  0  0  0
 54 53  1  0  0  0  0
 55 53  1  0  0  0  0
 57 59  1  0  0  0  0
 57 60  1  0  0  0  0
 58 57  1  0  0  0  0
 60 61  2  0  0  0  0
 61 62  1  0  0  0  0
 63 65  1  0  0  0  0
 63 62  2  0  0  0  0
 64 60  1  0  0  0  0
 64 63  1  0  0  0  0
 66 68  1  0  0  0  0
 66 64  1  0  0  0  0
 67 66  1  0  0  0  0
 69 66  1  0  0  0  0
M  END
>  <MODEL>
7

>  <REMARK>
 VINA RESULT:    -7.135      4.272     11.005
 INTER + INTRA:          -9.094
 INTER:                  -9.983
 INTRA:                   0.889
 UNBOUND:                 0.961
  Name = 
  8 active torsions:
  status: ('A' for Active; 'I' for Inactive)
    1  A    between atoms: C_1  and  C_2
    2  A    between atoms: C_2  and  C_3
    3  A    between atoms: C_2  and  C_10
    4  A    between atoms: C_3  and  C_4
    5  A    between atoms: N_8  and  C_9
    6  A    between atoms: N_16  and  C_17
    7  A    between atoms: C_24  and  N_26
    8  A    between atoms: C_33  and  C_34
                            x       y       z     vdW  Elec       q    Type
                         _______ _______ _______ _____ _____    ______ ____

>  <TORSDO>
F 8

$$$$
=
 OpenBabel07192307433D

 69 73  0  0  1  0  0  0  0  0999 V2000
    1.8090   12.5290   18.4940 C   0  0  0  0  0  0  0  0  0  0  0  0
    0.5900   12.6880   19.1620 C   0  0  0  0  0  0  0  0  0  0  0  0
   -0.0420   11.5700   19.6750 C   0  0  0  0  0  0  0  0  0  0  0  0
   -1.2460   11.5980   20.3760 N   0  0  0  0  0  0  0  0  0  0  0  0
   -1.9540   12.6860   20.8100 C   0  0  0  0  0  0  0  0  0  0  0  0
   -1.6340   13.8610   20.6750 O   0  0  0  0  0  0  0  0  0  0  0  0
   -3.1070   12.2970   21.4620 N   0  0  0  0  0  0  0  0  0  0  0  0
    0.4590   10.3290   19.5400 N   0  0  0  0  0  0  0  0  0  0  0  0
    1.6320   10.1510   18.9030 C   0  0  0  0  0  0  0  0  0  0  0  0
    2.3340   11.2350   18.3790 C   0  0  0  0  0  0  0  0  0  0  0  0
    0.1590   13.6750   19.2710 H   0  0  0  0  0  0  0  0  0  0  0  0
   -1.5160   10.6810   20.6980 H   0  0  0  0  0  0  0  0  0  0  0  0
   -3.4750   11.3960   21.1910 H   0  0  0  0  0  0  0  0  0  0  0  0
    3.2870   11.0960   17.8810 H   0  0  0  0  0  0  0  0  0  0  0  0
   -4.0690   13.2760   21.9540 C   0  0  0  0  0  0  0  0  0  0  0  0
   -3.4080   14.6600   22.0730 C   0  0  0  0  0  0  0  0  0  0  0  0
   -2.8680   14.9140   23.4760 C   0  0  0  0  0  0  0  0  0  0  0  0
   -3.9800   14.8740   24.5270 C   0  0  0  0  0  0  0  0  0  0  0  0
   -5.1470   13.9590   24.1470 C   0  0  0  0  0  0  0  0  0  0  0  0
   -4.6940   12.7960   23.2760 C   0  0  0  0  0  0  0  0  0  0  0  0
   -4.8630   13.3540   21.1970 H   0  0  0  0  0  0  0  0  0  0  0  0
   -2.6060   14.7760   21.3350 H   0  0  0  0  0  0  0  0  0  0  0  0
   -4.1550   15.4320   21.8460 H   0  0  0  0  0  0  0  0  0  0  0  0
   -2.3590   15.8840   23.5170 H   0  0  0  0  0  0  0  0  0  0  0  0
   -2.1130   14.1560   23.7170 H   0  0  0  0  0  0  0  0  0  0  0  0
   -3.5480   14.5510   25.4820 H   0  0  0  0  0  0  0  0  0  0  0  0
   -4.3680   15.8870   24.6940 H   0  0  0  0  0  0  0  0  0  0  0  0
   -5.9040   14.5410   23.6060 H   0  0  0  0  0  0  0  0  0  0  0  0
   -5.6320   13.5890   25.0570 H   0  0  0  0  0  0  0  0  0  0  0  0
   -3.9740   12.1900   23.8430 H   0  0  0  0  0  0  0  0  0  0  0  0
   -5.5440   12.1360   23.0630 H   0  0  0  0  0  0  0  0  0  0  0  0
    2.1340    8.8370   18.7850 N   0  0  0  0  0  0  0  0  0  0  0  0
    3.0560    8.4250   17.7440 C   0  0  0  0  0  0  0  0  0  0  0  0
    3.2800    6.9770   18.0360 C   0  0  0  0  0  0  0  0  0  0  0  0
    2.5410    6.6090   19.1560 C   0  0  0  0  0  0  0  0  0  0  0  0
    2.5500    5.3240   19.6660 C   0  0  0  0  0  0  0  0  0  0  0  0
    3.3410    4.3780   19.0140 C   0  0  0  0  0  0  0  0  0  0  0  0
    4.0970    4.7350   17.8810 C   0  0  0  0  0  0  0  0  0  0  0  0
    4.0780    6.0470   17.3720 C   0  0  0  0  0  0  0  0  0  0  0  0
    1.8080    7.7870   19.6440 C   0  0  0  0  0  0  0  0  0  0  0  0
    1.0870    7.7280   20.6230 O   0  0  0  0  0  0  0  0  0  0  0  0
    3.9900    8.9900   17.8320 H   0  0  0  0  0  0  0  0  0  0  0  0
    2.5890    8.5570   16.7630 H   0  0  0  0  0  0  0  0  0  0  0  0
    1.9610    5.0690   20.5420 H   0  0  0  0  0  0  0  0  0  0  0  0
    3.3750    3.3560   19.3870 H   0  0  0  0  0  0  0  0  0  0  0  0
    4.7060    3.9710   17.3980 H   0  0  0  0  0  0  0  0  0  0  0  0
    4.8890    6.4430   16.1680 C   0  0  0  0  0  0  0  0  0  0  0  0
    6.0990    6.9830   16.4720 F   0  0  0  0  0  0  0  0  0  0  0  0
    4.2450    7.3620   15.3980 F   0  0  0  0  0  0  0  0  0  0  0  0
    5.1410    5.3860   15.3490 F   0  0  0  0  0  0  0  0  0  0  0  0
    2.5340   13.7570   17.9630 C   0  0  2  0  0  0  0  0  0  0  0  0
    2.1370   13.9700   16.9610 H   0  0  0  0  0  0  0  0  0  0  0  0
    4.0380   13.5060   17.7790 C   0  0  0  0  0  0  0  0  0  0  0  0
    4.3200   12.5220   18.1700 H   0  0  0  0  0  0  0  0  0  0  0  0
    4.3110   13.5270   16.7190 H   0  0  0  0  0  0  0  0  0  0  0  0
    4.6460   14.2570   18.2900 H   0  0  0  0  0  0  0  0  0  0  0  0
    2.2460   14.9640   18.8780 C   0  0  0  0  0  0  0  0  0  0  0  0
    2.3350   15.9020   18.3150 H   0  0  0  0  0  0  0  0  0  0  0  0
    1.2080   14.9280   19.2350 H   0  0  0  0  0  0  0  0  0  0  0  0
    3.1600   15.0140   20.0540 C   0  0  0  0  0  0  0  0  0  0  0  0
    4.4730   15.1190   20.0170 N   0  0  0  0  0  0  0  0  0  0  0  0
    4.9380   15.1400   21.3100 N   0  0  0  0  0  0  0  0  0  0  0  0
    3.9000   15.0410   22.1080 C   0  0  0  0  0  0  0  0  0  0  0  0
    2.7630   14.9570   21.3660 N   0  0  0  0  0  0  0  0  0  0  0  0
    3.9280   15.0250   23.1880 H   0  0  0  0  0  0  0  0  0  0  0  0
    1.4230   14.8330   21.8750 C   0  0  0  0  0  0  0  0  0  0  0  0
    1.1750   13.7720   21.9600 H   0  0  0  0  0  0  0  0  0  0  0  0
    0.7250   15.3180   21.1870 H   0  0  0  0  0  0  0  0  0  0  0  0
    1.3770   15.3200   22.8520 H   0  0  0  0  0  0  0  0  0  0  0  0
  1  2  1  0  0  0  0
  2 11  1  0  0  0  0
  2  3  2  0  0  0  0
  3  4  1  0  0  0  0
  4 12  1  0  0  0  0
  4  5  1  0  0  0  0
  5  7  1  0  0  0  0
  6  5  2  0  0  0  0
  7 15  1  0  0  0  0
  8  3  1  0  0  0  0
  9  8  2  0  0  0  0
 10  1  2  0  0  0  0
 10  9  1  0  0  0  0
 13  7  1  0  0  0  0
 14 10  1  0  0  0  0
 15 16  1  0  0  0  0
 15 20  1  0  0  0  0
 16 17  1  0  0  0  0
 17 24  1  0  0  0  0
 17 25  1  0  0  0  0
 17 18  1  0  0  0  0
 18 27  1  0  0  0  0
 18 26  1  0  0  0  0
 19 18  1  0  0  0  0
 19 29  1  0  0  0  0
 20 30  1  0  0  0  0
 20 19  1  0  0  0  0
 21 15  1  0  0  0  0
 22 16  1  0  0  0  0
 23 16  1  0  0  0  0
 28 19  1  0  0  0  0
 31 20  1  0  0  0  0
 32  9  1  0  0  0  0
 32 40  1  0  0  0  0
 33 42  1  0  0  0  0
 33 34  1  0  0  0  0
 33 32  1  0  0  0  0
 34 35  1  0  0  0  0
 35 40  1  0  0  0  0
 35 36  2  0  0  0  0
 36 44  1  0  0  0  0
 37 45  1  0  0  0  0
 37 36  1  0  0  0  0
 38 37  2  0  0  0  0
 39 38  1  0  0  0  0
 39 34  2  0  0  0  0
 40 41  2  0  0  0  0
 43 33  1  0  0  0  0
 46 38  1  0  0  0  0
 47 48  1  0  0  0  0
 47 39  1  0  0  0  0
 49 47  1  0  0  0  0
 50 47  1  0  0  0  0
 51 52  1  6  0  0  0
 51  1  1  0  0  0  0
 51 57  1  0  0  0  0
 53 51  1  0  0  0  0
 53 54  1  0  0  0  0
 53 56  1  0  0  0  0
 55 53  1  0  0  0  0
 57 59  1  0  0  0  0
 57 60  1  0  0  0  0
 58 57  1  0  0  0  0
 60 64  1  0  0  0  0
 61 60  2  0  0  0  0
 61 62  1  0  0  0  0
 62 63  2  0  0  0  0
 63 65  1  0  0  0  0
 64 66  1  0  0  0  0
 64 63  1  0  0  0  0
 66 67  1  0  0  0  0
 66 69  1  0  0  0  0
 68 66  1  0  0  0  0
M  END
>  <MODEL>
8

>  <REMARK>
 VINA RESULT:    -6.376      4.374     11.144
 INTER + INTRA:          -8.025
 INTER:                  -9.102
 INTRA:                   1.077
 UNBOUND:                 0.961
  Name = 
  8 active torsions:
  status: ('A' for Active; 'I' for Inactive)
    1  A    between atoms: C_1  and  C_2
    2  A    between atoms: C_2  and  C_3
    3  A    between atoms: C_2  and  C_10
    4  A    between atoms: C_3  and  C_4
    5  A    between atoms: N_8  and  C_9
    6  A    between atoms: N_16  and  C_17
    7  A    between atoms: C_24  and  N_26
    8  A    between atoms: C_33  and  C_34
                            x       y       z     vdW  Elec       q    Type
                         _______ _______ _______ _____ _____    ______ ____

>  <TORSDO>
F 8

$$$$
=
 OpenBabel07192307433D

 69 73  0  0  1  0  0  0  0  0999 V2000
    1.8340    5.3540   20.1870 C   0  0  0  0  0  0  0  0  0  0  0  0
    2.7000    5.1690   19.1040 C   0  0  0  0  0  0  0  0  0  0  0  0
    2.9470    6.2340   18.2570 C   0  0  0  0  0  0  0  0  0  0  0  0
    3.8030    6.1840   17.1580 N   0  0  0  0  0  0  0  0  0  0  0  0
    4.6470    5.1750   16.7810 C   0  0  0  0  0  0  0  0  0  0  0  0
    4.8220    4.1160   17.3720 O   0  0  0  0  0  0  0  0  0  0  0  0
    5.3240    5.5040   15.6240 N   0  0  0  0  0  0  0  0  0  0  0  0
    2.3700    7.4380   18.4210 N   0  0  0  0  0  0  0  0  0  0  0  0
    1.5350    7.6410   19.4570 C   0  0  0  0  0  0  0  0  0  0  0  0
    1.2560    6.6190   20.3630 C   0  0  0  0  0  0  0  0  0  0  0  0
    3.1650    4.2050   18.9430 H   0  0  0  0  0  0  0  0  0  0  0  0
    3.8740    7.0780   16.6950 H   0  0  0  0  0  0  0  0  0  0  0  0
    4.8570    6.1680   15.0220 H   0  0  0  0  0  0  0  0  0  0  0  0
    0.5980    6.7840   21.2070 H   0  0  0  0  0  0  0  0  0  0  0  0
    6.2300    4.5600   14.9790 C   0  0  0  0  0  0  0  0  0  0  0  0
    7.5770    5.2370   14.6750 C   0  0  0  0  0  0  0  0  0  0  0  0
    7.6250    5.8050   13.2620 C   0  0  0  0  0  0  0  0  0  0  0  0
    7.4410    4.7130   12.2060 C   0  0  0  0  0  0  0  0  0  0  0  0
    6.5990    3.5300   12.6890 C   0  0  0  0  0  0  0  0  0  0  0  0
    5.5690    3.9560   13.7260 C   0  0  0  0  0  0  0  0  0  0  0  0
    6.4200    3.7540   15.7000 H   0  0  0  0  0  0  0  0  0  0  0  0
    7.7920    6.0270   15.4050 H   0  0  0  0  0  0  0  0  0  0  0  0
    8.3800    4.4940   14.7750 H   0  0  0  0  0  0  0  0  0  0  0  0
    8.5750    6.3240   13.0930 H   0  0  0  0  0  0  0  0  0  0  0  0
    6.8340    6.5580   13.1470 H   0  0  0  0  0  0  0  0  0  0  0  0
    6.9830    5.1600   11.3150 H   0  0  0  0  0  0  0  0  0  0  0  0
    8.4230    4.3380   11.8880 H   0  0  0  0  0  0  0  0  0  0  0  0
    7.2570    2.7690   13.1270 H   0  0  0  0  0  0  0  0  0  0  0  0
    6.1060    3.0580   11.8320 H   0  0  0  0  0  0  0  0  0  0  0  0
    4.8840    4.6810   13.2660 H   0  0  0  0  0  0  0  0  0  0  0  0
    4.9520    3.0960   14.0150 H   0  0  0  0  0  0  0  0  0  0  0  0
    0.9530    8.9180   19.6040 N   0  0  0  0  0  0  0  0  0  0  0  0
   -0.0480    9.4480   18.6990 C   0  0  0  0  0  0  0  0  0  0  0  0
   -0.3380   10.8020   19.2610 C   0  0  0  0  0  0  0  0  0  0  0  0
    0.4410   11.0110   20.3940 C   0  0  0  0  0  0  0  0  0  0  0  0
    0.3880   12.1790   21.1310 C   0  0  0  0  0  0  0  0  0  0  0  0
   -0.4920   13.1720   20.7000 C   0  0  0  0  0  0  0  0  0  0  0  0
   -1.2900   12.9760   19.5560 C   0  0  0  0  0  0  0  0  0  0  0  0
   -1.2240   11.7800   18.8150 C   0  0  0  0  0  0  0  0  0  0  0  0
    1.2670    9.8160   20.6250 C   0  0  0  0  0  0  0  0  0  0  0  0
    2.0380    9.7460   21.5640 O   0  0  0  0  0  0  0  0  0  0  0  0
   -0.9420    8.8160   18.7250 H   0  0  0  0  0  0  0  0  0  0  0  0
    0.3680    9.5260   17.6900 H   0  0  0  0  0  0  0  0  0  0  0  0
    1.0100   12.3120   22.0110 H   0  0  0  0  0  0  0  0  0  0  0  0
   -0.5630   14.1060   21.2550 H   0  0  0  0  0  0  0  0  0  0  0  0
   -1.9690   13.7720   19.2500 H   0  0  0  0  0  0  0  0  0  0  0  0
   -2.0790   11.5550   17.5980 C   0  0  0  0  0  0  0  0  0  0  0  0
   -2.2930   10.2430   17.3100 F   0  0  0  0  0  0  0  0  0  0  0  0
   -1.5310   12.1050   16.4800 F   0  0  0  0  0  0  0  0  0  0  0  0
   -3.3100   12.1220   17.7230 F   0  0  0  0  0  0  0  0  0  0  0  0
    1.5880    4.2010   21.1510 C   0  0  2  0  0  0  0  0  0  0  0  0
    0.6550    4.4130   21.6910 H   0  0  0  0  0  0  0  0  0  0  0  0
    2.6850    4.0990   22.2210 C   0  0  0  0  0  0  0  0  0  0  0  0
    2.5950    3.1640   22.7850 H   0  0  0  0  0  0  0  0  0  0  0  0
    3.6800    4.1110   21.7640 H   0  0  0  0  0  0  0  0  0  0  0  0
    2.6420    4.9270   22.9340 H   0  0  0  0  0  0  0  0  0  0  0  0
    1.4160    2.8900   20.3570 C   0  0  0  0  0  0  0  0  0  0  0  0
    0.8110    2.1740   20.9270 H   0  0  0  0  0  0  0  0  0  0  0  0
    0.8580    3.0810   19.4300 H   0  0  0  0  0  0  0  0  0  0  0  0
    2.7220    2.2610   20.0130 C   0  0  0  0  0  0  0  0  0  0  0  0
    3.7190    2.0320   20.8440 N   0  0  0  0  0  0  0  0  0  0  0  0
    4.7340    1.4300   20.1390 N   0  0  0  0  0  0  0  0  0  0  0  0
    4.3380    1.3120   18.8940 C   0  0  0  0  0  0  0  0  0  0  0  0
    3.0830    1.8200   18.7660 N   0  0  0  0  0  0  0  0  0  0  0  0
    4.9090    0.8810   18.0830 H   0  0  0  0  0  0  0  0  0  0  0  0
    2.3080    1.8760   17.5550 C   0  0  0  0  0  0  0  0  0  0  0  0
    2.7330    1.1750   16.8320 H   0  0  0  0  0  0  0  0  0  0  0  0
    2.3420    2.8900   17.1450 H   0  0  0  0  0  0  0  0  0  0  0  0
    1.2750    1.6080   17.7910 H   0  0  0  0  0  0  0  0  0  0  0  0
  1 10  1  0  0  0  0
  1 51  1  0  0  0  0
  2  1  2  0  0  0  0
  3  8  2  0  0  0  0
  3  2  1  0  0  0  0
  4  3  1  0  0  0  0
  5  4  1  0  0  0  0
  5  6  2  0  0  0  0
  7  5  1  0  0  0  0
  8  9  1  0  0  0  0
  9 32  1  0  0  0  0
  9 10  2  0  0  0  0
 10 14  1  0  0  0  0
 11  2  1  0  0  0  0
 12  4  1  0  0  0  0
 13  7  1  0  0  0  0
 15  7  1  0  0  0  0
 15 21  1  0  0  0  0
 16 23  1  0  0  0  0
 16 15  1  0  0  0  0
 16 22  1  0  0  0  0
 17 16  1  0  0  0  0
 18 19  1  0  0  0  0
 18 17  1  0  0  0  0
 19 28  1  0  0  0  0
 19 20  1  0  0  0  0
 20 31  1  0  0  0  0
 20 15  1  0  0  0  0
 24 17  1  0  0  0  0
 25 17  1  0  0  0  0
 26 18  1  0  0  0  0
 27 18  1  0  0  0  0
 29 19  1  0  0  0  0
 30 20  1  0  0  0  0
 32 40  1  0  0  0  0
 33 42  1  0  0  0  0
 33 34  1  0  0  0  0
 33 32  1  0  0  0  0
 34 35  1  0  0  0  0
 35 40  1  0  0  0  0
 35 36  2  0  0  0  0
 36 44  1  0  0  0  0
 37 36  1  0  0  0  0
 37 45  1  0  0  0  0
 38 37  2  0  0  0  0
 39 34  2  0  0  0  0
 39 38  1  0  0  0  0
 40 41  2  0  0  0  0
 43 33  1  0  0  0  0
 46 38  1  0  0  0  0
 47 50  1  0  0  0  0
 47 39  1  0  0  0  0
 48 47  1  0  0  0  0
 49 47  1  0  0  0  0
 51 52  1  1  0  0  0
 51 53  1  0  0  0  0
 53 54  1  0  0  0  0
 53 56  1  0  0  0  0
 55 53  1  0  0  0  0
 57 58  1  0  0  0  0
 57 51  1  0  0  0  0
 59 57  1  0  0  0  0
 60 57  1  0  0  0  0
 60 61  2  0  0  0  0
 62 61  1  0  0  0  0
 63 62  2  0  0  0  0
 64 63  1  0  0  0  0
 64 60  1  0  0  0  0
 65 63  1  0  0  0  0
 66 69  1  0  0  0  0
 66 64  1  0  0  0  0
 67 66  1  0  0  0  0
 68 66  1  0  0  0  0
M  END
>  <MODEL>
9

>  <REMARK>
 VINA RESULT:    -6.354      1.882      2.190
 INTER + INTRA:          -7.994
 INTER:                  -8.373
 INTRA:                   0.379
 UNBOUND:                 0.961
  Name = 
  8 active torsions:
  status: ('A' for Active; 'I' for Inactive)
    1  A    between atoms: C_1  and  C_2
    2  A    between atoms: C_2  and  C_3
    3  A    between atoms: C_2  and  C_10
    4  A    between atoms: C_3  and  C_4
    5  A    between atoms: N_8  and  C_9
    6  A    between atoms: N_16  and  C_17
    7  A    between atoms: C_24  and  N_26
    8  A    between atoms: C_33  and  C_34
                            x       y       z     vdW  Elec       q    Type
                         _______ _______ _______ _____ _____    ______ ____

>  <TORSDO>
F 8

$$$$
=
 OpenBabel07192307433D

 69 73  0  0  1  0  0  0  0  0999 V2000
    1.5950   11.2270   18.9380 C   0  0  0  0  0  0  0  0  0  0  0  0
    0.6370   11.3990   19.9430 C   0  0  0  0  0  0  0  0  0  0  0  0
    0.2130   10.2950   20.6590 C   0  0  0  0  0  0  0  0  0  0  0  0
   -0.7190   10.3380   21.6940 N   0  0  0  0  0  0  0  0  0  0  0  0
   -1.2800   11.4340   22.2900 C   0  0  0  0  0  0  0  0  0  0  0  0
   -1.0400   12.6060   22.0280 O   0  0  0  0  0  0  0  0  0  0  0  0
   -2.1710   11.0590   23.2760 N   0  0  0  0  0  0  0  0  0  0  0  0
    0.6730    9.0540   20.4150 N   0  0  0  0  0  0  0  0  0  0  0  0
    1.5980    8.8630   19.4560 C   0  0  0  0  0  0  0  0  0  0  0  0
    2.0850    9.9340   18.7080 C   0  0  0  0  0  0  0  0  0  0  0  0
    0.2410   12.3860   20.1480 H   0  0  0  0  0  0  0  0  0  0  0  0
   -0.8590    9.4300   22.1120 H   0  0  0  0  0  0  0  0  0  0  0  0
   -2.5870   10.1460   23.1600 H   0  0  0  0  0  0  0  0  0  0  0  0
    2.8420    9.7860   17.9470 H   0  0  0  0  0  0  0  0  0  0  0  0
   -2.9550   12.0470   24.0080 C   0  0  0  0  0  0  0  0  0  0  0  0
   -4.3140   12.2630   23.3220 C   0  0  0  0  0  0  0  0  0  0  0  0
   -4.2810   13.4350   22.3480 C   0  0  0  0  0  0  0  0  0  0  0  0
   -3.9390   14.7490   23.0540 C   0  0  0  0  0  0  0  0  0  0  0  0
   -3.0630   14.5660   24.2960 C   0  0  0  0  0  0  0  0  0  0  0  0
   -2.1530   13.3510   24.1730 C   0  0  0  0  0  0  0  0  0  0  0  0
   -3.1510   11.6260   25.0050 H   0  0  0  0  0  0  0  0  0  0  0  0
   -4.6410   11.3540   22.8040 H   0  0  0  0  0  0  0  0  0  0  0  0
   -5.0710   12.4740   24.0890 H   0  0  0  0  0  0  0  0  0  0  0  0
   -5.2460   13.5330   21.8380 H   0  0  0  0  0  0  0  0  0  0  0  0
   -3.5350   13.2370   21.5680 H   0  0  0  0  0  0  0  0  0  0  0  0
   -3.4380   15.4120   22.3380 H   0  0  0  0  0  0  0  0  0  0  0  0
   -4.8630   15.2610   23.3490 H   0  0  0  0  0  0  0  0  0  0  0  0
   -3.7040   14.4470   25.1790 H   0  0  0  0  0  0  0  0  0  0  0  0
   -2.4700   15.4720   24.4620 H   0  0  0  0  0  0  0  0  0  0  0  0
   -1.4820   13.4990   23.3170 H   0  0  0  0  0  0  0  0  0  0  0  0
   -1.5080   13.2770   25.0570 H   0  0  0  0  0  0  0  0  0  0  0  0
    2.0640    7.5510   19.2310 N   0  0  0  0  0  0  0  0  0  0  0  0
    1.7660    6.4360   20.1100 C   0  0  0  0  0  0  0  0  0  0  0  0
    2.4730    5.2890   19.4630 C   0  0  0  0  0  0  0  0  0  0  0  0
    3.1150    5.7300   18.3100 C   0  0  0  0  0  0  0  0  0  0  0  0
    3.8530    4.8880   17.5000 C   0  0  0  0  0  0  0  0  0  0  0  0
    3.9390    3.5470   17.8730 C   0  0  0  0  0  0  0  0  0  0  0  0
    3.2930    3.0840   19.0360 C   0  0  0  0  0  0  0  0  0  0  0  0
    2.5450    3.9530   19.8520 C   0  0  0  0  0  0  0  0  0  0  0  0
    2.8600    7.1690   18.1510 C   0  0  0  0  0  0  0  0  0  0  0  0
    3.3130    7.7960   17.2110 O   0  0  0  0  0  0  0  0  0  0  0  0
    0.6850    6.2640   20.1340 H   0  0  0  0  0  0  0  0  0  0  0  0
    2.1720    6.6320   21.1080 H   0  0  0  0  0  0  0  0  0  0  0  0
    4.3430    5.2640   16.6060 H   0  0  0  0  0  0  0  0  0  0  0  0
    4.5100    2.8520   17.2580 H   0  0  0  0  0  0  0  0  0  0  0  0
    3.3790    2.0290   19.2960 H   0  0  0  0  0  0  0  0  0  0  0  0
    1.8420    3.4680   21.0910 C   0  0  0  0  0  0  0  0  0  0  0  0
    1.9050    2.1220   21.2700 F   0  0  0  0  0  0  0  0  0  0  0  0
    0.5180    3.7890   21.0850 F   0  0  0  0  0  0  0  0  0  0  0  0
    2.3510    4.0260   22.2230 F   0  0  0  0  0  0  0  0  0  0  0  0
    2.1000   12.4420   18.1730 C   0  0  2  0  0  0  0  0  0  0  0  0
    1.3360   12.7050   17.4280 H   0  0  0  0  0  0  0  0  0  0  0  0
    3.3790   12.1350   17.3800 C   0  0  0  0  0  0  0  0  0  0  0  0
    3.2100   12.2560   16.3040 H   0  0  0  0  0  0  0  0  0  0  0  0
    4.1870   12.8170   17.6630 H   0  0  0  0  0  0  0  0  0  0  0  0
    3.7340   11.1150   17.5510 H   0  0  0  0  0  0  0  0  0  0  0  0
    2.2780   13.6270   19.1420 C   0  0  0  0  0  0  0  0  0  0  0  0
    2.7850   13.3000   20.0590 H   0  0  0  0  0  0  0  0  0  0  0  0
    2.9340   14.3860   18.6940 H   0  0  0  0  0  0  0  0  0  0  0  0
    0.9800   14.2640   19.5040 C   0  0  0  0  0  0  0  0  0  0  0  0
   -0.0660   14.4030   18.7140 N   0  0  0  0  0  0  0  0  0  0  0  0
   -1.0600   15.0290   19.4260 N   0  0  0  0  0  0  0  0  0  0  0  0
   -0.5980   15.2660   20.6310 C   0  0  0  0  0  0  0  0  0  0  0  0
    0.6790   14.8040   20.7270 N   0  0  0  0  0  0  0  0  0  0  0  0
   -1.1340   15.7510   21.4350 H   0  0  0  0  0  0  0  0  0  0  0  0
    1.5250   14.8800   21.8880 C   0  0  0  0  0  0  0  0  0  0  0  0
    2.5690   14.8270   21.5670 H   0  0  0  0  0  0  0  0  0  0  0  0
    1.3050   14.0430   22.5560 H   0  0  0  0  0  0  0  0  0  0  0  0
    1.3270   15.8240   22.4010 H   0  0  0  0  0  0  0  0  0  0  0  0
  1  2  1  0  0  0  0
  2 11  1  0  0  0  0
  2  3  2  0  0  0  0
  3  4  1  0  0  0  0
  4 12  1  0  0  0  0
  4  5  1  0  0  0  0
  5  7  1  0  0  0  0
  6  5  2  0  0  0  0
  7 15  1  0  0  0  0
  8  3  1  0  0  0  0
  9  8  2  0  0  0  0
 10  1  2  0  0  0  0
 10  9  1  0  0  0  0
 13  7  1  0  0  0  0
 14 10  1  0  0  0  0
 15 20  1  0  0  0  0
 15 21  1  0  0  0  0
 16 15  1  0  0  0  0
 16 23  1  0  0  0  0
 17 18  1  0  0  0  0
 17 16  1  0  0  0  0
 18 27  1  0  0  0  0
 18 19  1  0  0  0  0
 19 29  1  0  0  0  0
 19 28  1  0  0  0  0
 20 19  1  0  0  0  0
 20 31  1  0  0  0  0
 22 16  1  0  0  0  0
 24 17  1  0  0  0  0
 25 17  1  0  0  0  0
 26 18  1  0  0  0  0
 30 20  1  0  0  0  0
 32  9  1  0  0  0  0
 32 33  1  0  0  0  0
 33 42  1  0  0  0  0
 33 43  1  0  0  0  0
 34 39  1  0  0  0  0
 34 33  1  0  0  0  0
 35 34  2  0  0  0  0
 36 37  2  0  0  0  0
 36 35  1  0  0  0  0
 37 38  1  0  0  0  0
 38 46  1  0  0  0  0
 38 39  2  0  0  0  0
 39 47  1  0  0  0  0
 40 35  1  0  0  0  0
 40 32  1  0  0  0  0
 41 40  2  0  0  0  0
 44 36  1  0  0  0  0
 45 37  1  0  0  0  0
 47 48  1  0  0  0  0
 47 50  1  0  0  0  0
 49 47  1  0  0  0  0
 51 52  1  6  0  0  0
 51  1  1  0  0  0  0
 51 57  1  0  0  0  0
 53 56  1  0  0  0  0
 53 55  1  0  0  0  0
 53 51  1  0  0  0  0
 54 53  1  0  0  0  0
 57 60  1  0  0  0  0
 57 58  1  0  0  0  0
 59 57  1  0  0  0  0
 60 64  1  0  0  0  0
 61 62  1  0  0  0  0
 61 60  2  0  0  0  0
 62 63  2  0  0  0  0
 63 64  1  0  0  0  0
 63 65  1  0  0  0  0
 64 66  1  0  0  0  0
 66 69  1  0  0  0  0
 66 68  1  0  0  0  0
 67 66  1  0  0  0  0
M  END
>  <MODEL>
10

>  <REMARK>
 VINA RESULT:    -6.051      3.868     10.776
 INTER + INTRA:          -7.566
 INTER:                  -8.476
 INTRA:                   0.910
 UNBOUND:                 0.961
  Name = 
  8 active torsions:
  status: ('A' for Active; 'I' for Inactive)
    1  A    between atoms: C_1  and  C_2
    2  A    between atoms: C_2  and  C_3
    3  A    between atoms: C_2  and  C_10
    4  A    between atoms: C_3  and  C_4
    5  A    between atoms: N_8  and  C_9
    6  A    between atoms: N_16  and  C_17
    7  A    between atoms: C_24  and  N_26
    8  A    between atoms: C_33  and  C_34
                            x       y       z     vdW  Elec       q    Type
                         _______ _______ _______ _____ _____    ______ ____

>  <TORSDO>
F 8

$$$$
=
 OpenBabel07192307433D

 69 73  0  0  1  0  0  0  0  0999 V2000
    2.3020   12.2640   18.2650 C   0  0  0  0  0  0  0  0  0  0  0  0
    2.5150   10.8810   18.2340 C   0  0  0  0  0  0  0  0  0  0  0  0
    1.5740   10.0460   18.8080 C   0  0  0  0  0  0  0  0  0  0  0  0
    1.6610    8.6560   18.8250 N   0  0  0  0  0  0  0  0  0  0  0  0
    2.5680    7.8510   18.1910 C   0  0  0  0  0  0  0  0  0  0  0  0
    3.4770    8.2190   17.4570 O   0  0  0  0  0  0  0  0  0  0  0  0
    2.3230    6.5200   18.4640 N   0  0  0  0  0  0  0  0  0  0  0  0
    0.4680   10.5120   19.4150 N   0  0  0  0  0  0  0  0  0  0  0  0
    0.2380   11.8380   19.4550 C   0  0  0  0  0  0  0  0  0  0  0  0
    1.1340   12.7380   18.8790 C   0  0  0  0  0  0  0  0  0  0  0  0
    3.4060   10.4830   17.7640 H   0  0  0  0  0  0  0  0  0  0  0  0
    0.8520    8.2340   19.2570 H   0  0  0  0  0  0  0  0  0  0  0  0
    1.8480    6.3370   19.3360 H   0  0  0  0  0  0  0  0  0  0  0  0
    0.9440   13.8040   18.8950 H   0  0  0  0  0  0  0  0  0  0  0  0
    3.2000    5.4680   17.9630 C   0  0  0  0  0  0  0  0  0  0  0  0
    2.3720    4.2500   17.5190 C   0  0  0  0  0  0  0  0  0  0  0  0
    2.2400    3.2140   18.6290 C   0  0  0  0  0  0  0  0  0  0  0  0
    3.6050    2.6740   19.0640 C   0  0  0  0  0  0  0  0  0  0  0  0
    4.7470    3.6760   18.8780 C   0  0  0  0  0  0  0  0  0  0  0  0
    4.2670    5.1140   19.0160 C   0  0  0  0  0  0  0  0  0  0  0  0
    3.7040    5.8670   17.0720 H   0  0  0  0  0  0  0  0  0  0  0  0
    1.3780    4.5570   17.1730 H   0  0  0  0  0  0  0  0  0  0  0  0
    2.8670    3.7760   16.6620 H   0  0  0  0  0  0  0  0  0  0  0  0
    1.6050    2.3840   18.3010 H   0  0  0  0  0  0  0  0  0  0  0  0
    1.7380    3.6690   19.4920 H   0  0  0  0  0  0  0  0  0  0  0  0
    3.5420    2.3710   20.1170 H   0  0  0  0  0  0  0  0  0  0  0  0
    3.8400    1.7640   18.4980 H   0  0  0  0  0  0  0  0  0  0  0  0
    5.1920    3.5390   17.8840 H   0  0  0  0  0  0  0  0  0  0  0  0
    5.5400    3.4660   19.6040 H   0  0  0  0  0  0  0  0  0  0  0  0
    3.8670    5.2570   20.0290 H   0  0  0  0  0  0  0  0  0  0  0  0
    5.1160    5.8020   18.9240 H   0  0  0  0  0  0  0  0  0  0  0  0
   -0.9360   12.2930   20.0920 N   0  0  0  0  0  0  0  0  0  0  0  0
   -0.9430   12.9080   21.4060 C   0  0  0  0  0  0  0  0  0  0  0  0
   -2.3900   13.2040   21.6390 C   0  0  0  0  0  0  0  0  0  0  0  0
   -3.1320   12.7870   20.5380 C   0  0  0  0  0  0  0  0  0  0  0  0
   -4.5040   12.9330   20.4660 C   0  0  0  0  0  0  0  0  0  0  0  0
   -5.1470   13.5260   21.5530 C   0  0  0  0  0  0  0  0  0  0  0  0
   -4.4100   13.9550   22.6740 C   0  0  0  0  0  0  0  0  0  0  0  0
   -3.0120   13.7990   22.7340 C   0  0  0  0  0  0  0  0  0  0  0  0
   -2.2160   12.2080   19.5450 C   0  0  0  0  0  0  0  0  0  0  0  0
   -2.6210   11.7710   18.4830 O   0  0  0  0  0  0  0  0  0  0  0  0
   -0.3550   13.8310   21.3860 H   0  0  0  0  0  0  0  0  0  0  0  0
   -0.5660   12.1980   22.1490 H   0  0  0  0  0  0  0  0  0  0  0  0
   -5.0550   12.5970   19.5920 H   0  0  0  0  0  0  0  0  0  0  0  0
   -6.2280   13.6590   21.5330 H   0  0  0  0  0  0  0  0  0  0  0  0
   -4.9440   14.4160   23.5050 H   0  0  0  0  0  0  0  0  0  0  0  0
   -2.2130   14.2630   23.9210 C   0  0  0  0  0  0  0  0  0  0  0  0
   -1.4660   13.2850   24.4990 F   0  0  0  0  0  0  0  0  0  0  0  0
   -3.0070   14.7680   24.9060 F   0  0  0  0  0  0  0  0  0  0  0  0
   -1.3470   15.2620   23.5980 F   0  0  0  0  0  0  0  0  0  0  0  0
    3.3100   13.1890   17.5990 C   0  0  2  0  0  0  0  0  0  0  0  0
    3.0840   13.2070   16.5240 H   0  0  0  0  0  0  0  0  0  0  0  0
    4.7470   12.6630   17.7220 C   0  0  0  0  0  0  0  0  0  0  0  0
    5.2000   12.5280   16.7340 H   0  0  0  0  0  0  0  0  0  0  0  0
    5.3750   13.3680   18.2770 H   0  0  0  0  0  0  0  0  0  0  0  0
    4.7910   11.7030   18.2460 H   0  0  0  0  0  0  0  0  0  0  0  0
    3.1540   14.6160   18.1630 C   0  0  0  0  0  0  0  0  0  0  0  0
    3.3550   15.3600   17.3820 H   0  0  0  0  0  0  0  0  0  0  0  0
    2.1160   14.7860   18.4780 H   0  0  0  0  0  0  0  0  0  0  0  0
    4.0580   14.8690   19.3210 C   0  0  0  0  0  0  0  0  0  0  0  0
    5.3610   15.0580   19.2650 N   0  0  0  0  0  0  0  0  0  0  0  0
    5.8180   15.2670   20.5450 N   0  0  0  0  0  0  0  0  0  0  0  0
    4.7870   15.1930   21.3530 C   0  0  0  0  0  0  0  0  0  0  0  0
    3.6610   14.9440   20.6310 N   0  0  0  0  0  0  0  0  0  0  0  0
    4.8110   15.3100   22.4270 H   0  0  0  0  0  0  0  0  0  0  0  0
    2.3300   14.7910   21.1570 C   0  0  0  0  0  0  0  0  0  0  0  0
    2.3920   14.3070   22.1350 H   0  0  0  0  0  0  0  0  0  0  0  0
    1.7380   14.1710   20.4790 H   0  0  0  0  0  0  0  0  0  0  0  0
    1.8760   15.7810   21.2450 H   0  0  0  0  0  0  0  0  0  0  0  0
  1 10  1  0  0  0  0
  2  1  2  0  0  0  0
  2  3  1  0  0  0  0
  3  4  1  0  0  0  0
  3  8  2  0  0  0  0
  4 12  1  0  0  0  0
  5  7  1  0  0  0  0
  5  4  1  0  0  0  0
  6  5  2  0  0  0  0
  7 13  1  0  0  0  0
  8  9  1  0  0  0  0
  9 32  1  0  0  0  0
 10 14  1  0  0  0  0
 10  9  2  0  0  0  0
 11  2  1  0  0  0  0
 15  7  1  0  0  0  0
 15 20  1  0  0  0  0
 16 15  1  0  0  0  0
 16 17  1  0  0  0  0
 17 18  1  0  0  0  0
 17 25  1  0  0  0  0
 18 26  1  0  0  0  0
 19 20  1  0  0  0  0
 19 18  1  0  0  0  0
 19 29  1  0  0  0  0
 20 30  1  0  0  0  0
 21 15  1  0  0  0  0
 22 16  1  0  0  0  0
 23 16  1  0  0  0  0
 24 17  1  0  0  0  0
 27 18  1  0  0  0  0
 28 19  1  0  0  0  0
 31 20  1  0  0  0  0
 32 33  1  0  0  0  0
 33 34  1  0  0  0  0
 33 43  1  0  0  0  0
 34 39  1  0  0  0  0
 35 34  2  0  0  0  0
 36 35  1  0  0  0  0
 36 37  2  0  0  0  0
 37 38  1  0  0  0  0
 38 39  2  0  0  0  0
 38 46  1  0  0  0  0
 39 47  1  0  0  0  0
 40 32  1  0  0  0  0
 40 35  1  0  0  0  0
 41 40  2  0  0  0  0
 42 33  1  0  0  0  0
 44 36  1  0  0  0  0
 45 37  1  0  0  0  0
 47 48  1  0  0  0  0
 47 49  1  0  0  0  0
 50 47  1  0  0  0  0
 51 52  1  6  0  0  0
 51 53  1  0  0  0  0
 51 57  1  0  0  0  0
 51  1  1  0  0  0  0
 53 56  1  0  0  0  0
 53 55  1  0  0  0  0
 54 53  1  0  0  0  0
 57 59  1  0  0  0  0
 57 60  1  0  0  0  0
 58 57  1  0  0  0  0
 60 64  1  0  0  0  0
 61 60  2  0  0  0  0
 61 62  1  0  0  0  0
 62 63  2  0  0  0  0
 63 65  1  0  0  0  0
 64 66  1  0  0  0  0
 64 63  1  0  0  0  0
 66 69  1  0  0  0  0
 66 67  1  0  0  0  0
 68 66  1  0  0  0  0
M  END
>  <MODEL>
11

>  <REMARK>
 VINA RESULT:    -6.028      3.337      7.417
 INTER + INTRA:          -7.535
 INTER:                  -6.683
 INTRA:                  -0.852
 UNBOUND:                 0.961
  Name = 
  8 active torsions:
  status: ('A' for Active; 'I' for Inactive)
    1  A    between atoms: C_1  and  C_2
    2  A    between atoms: C_2  and  C_3
    3  A    between atoms: C_2  and  C_10
    4  A    between atoms: C_3  and  C_4
    5  A    between atoms: N_8  and  C_9
    6  A    between atoms: N_16  and  C_17
    7  A    between atoms: C_24  and  N_26
    8  A    between atoms: C_33  and  C_34
                            x       y       z     vdW  Elec       q    Type
                         _______ _______ _______ _____ _____    ______ ____

>  <TORSDO>
F 8

$$$$
=
 OpenBabel07192307433D

 69 73  0  0  1  0  0  0  0  0999 V2000
    0.2840   11.3800   18.8630 C   0  0  0  0  0  0  0  0  0  0  0  0
   -0.4670   11.6330   20.0160 C   0  0  0  0  0  0  0  0  0  0  0  0
   -0.4810   10.6880   21.0250 C   0  0  0  0  0  0  0  0  0  0  0  0
   -1.1720   10.8290   22.2270 N   0  0  0  0  0  0  0  0  0  0  0  0
   -1.8320   11.9290   22.7060 C   0  0  0  0  0  0  0  0  0  0  0  0
   -1.9160   13.0210   22.1580 O   0  0  0  0  0  0  0  0  0  0  0  0
   -2.3990   11.6660   23.9370 N   0  0  0  0  0  0  0  0  0  0  0  0
    0.1840    9.5220   20.9340 N   0  0  0  0  0  0  0  0  0  0  0  0
    0.9170    9.2570   19.8360 C   0  0  0  0  0  0  0  0  0  0  0  0
    0.9930   10.1730   18.7880 C   0  0  0  0  0  0  0  0  0  0  0  0
   -1.0220   12.5580   20.1050 H   0  0  0  0  0  0  0  0  0  0  0  0
   -1.0200   10.0450   22.8430 H   0  0  0  0  0  0  0  0  0  0  0  0
   -2.6170   10.6960   24.1160 H   0  0  0  0  0  0  0  0  0  0  0  0
    1.5950    9.9700   17.9110 H   0  0  0  0  0  0  0  0  0  0  0  0
   -3.2200   12.6580   24.6220 C   0  0  0  0  0  0  0  0  0  0  0  0
   -4.7050   12.4490   24.2790 C   0  0  0  0  0  0  0  0  0  0  0  0
   -5.1470   13.3160   23.1060 C   0  0  0  0  0  0  0  0  0  0  0  0
   -4.9780   14.8070   23.4070 C   0  0  0  0  0  0  0  0  0  0  0  0
   -3.8450   15.1070   24.3910 C   0  0  0  0  0  0  0  0  0  0  0  0
   -2.7250   14.0790   24.2970 C   0  0  0  0  0  0  0  0  0  0  0  0
   -3.1020   12.4830   25.7000 H   0  0  0  0  0  0  0  0  0  0  0  0
   -4.9140   11.3940   24.0660 H   0  0  0  0  0  0  0  0  0  0  0  0
   -5.3130   12.7160   25.1530 H   0  0  0  0  0  0  0  0  0  0  0  0
   -6.1930   13.1090   22.8530 H   0  0  0  0  0  0  0  0  0  0  0  0
   -4.5550   13.0560   22.2190 H   0  0  0  0  0  0  0  0  0  0  0  0
   -4.8040   15.3380   22.4640 H   0  0  0  0  0  0  0  0  0  0  0  0
   -5.9130   15.2090   23.8160 H   0  0  0  0  0  0  0  0  0  0  0  0
   -4.2420   15.1120   25.4140 H   0  0  0  0  0  0  0  0  0  0  0  0
   -3.4560   16.1140   24.2050 H   0  0  0  0  0  0  0  0  0  0  0  0
   -2.2990   14.1150   23.2840 H   0  0  0  0  0  0  0  0  0  0  0  0
   -1.9100   14.3500   24.9790 H   0  0  0  0  0  0  0  0  0  0  0  0
    1.6090    8.0290   19.7760 N   0  0  0  0  0  0  0  0  0  0  0  0
    2.6440    7.7430   18.8020 C   0  0  0  0  0  0  0  0  0  0  0  0
    3.0560    6.3460   19.1370 C   0  0  0  0  0  0  0  0  0  0  0  0
    2.3070    5.8870   20.2170 C   0  0  0  0  0  0  0  0  0  0  0  0
    2.4680    4.6240   20.7530 C   0  0  0  0  0  0  0  0  0  0  0  0
    3.4270    3.7950   20.1710 C   0  0  0  0  0  0  0  0  0  0  0  0
    4.1950    4.2440   19.0780 C   0  0  0  0  0  0  0  0  0  0  0  0
    4.0190    5.5340   18.5430 C   0  0  0  0  0  0  0  0  0  0  0  0
    1.3830    6.9520   20.6340 C   0  0  0  0  0  0  0  0  0  0  0  0
    0.6170    6.8000   21.5680 O   0  0  0  0  0  0  0  0  0  0  0  0
    3.4800    8.4370   18.9360 H   0  0  0  0  0  0  0  0  0  0  0  0
    2.2270    7.7950   17.7910 H   0  0  0  0  0  0  0  0  0  0  0  0
    1.8680    4.2950   21.5960 H   0  0  0  0  0  0  0  0  0  0  0  0
    3.5840    2.7920   20.5660 H   0  0  0  0  0  0  0  0  0  0  0  0
    4.9370    3.5710   18.6500 H   0  0  0  0  0  0  0  0  0  0  0  0
    4.8410    6.0290   17.3830 C   0  0  0  0  0  0  0  0  0  0  0  0
    4.1360    6.7630   16.4820 F   0  0  0  0  0  0  0  0  0  0  0  0
    5.4040    5.0060   16.6830 F   0  0  0  0  0  0  0  0  0  0  0  0
    5.8760    6.8140   17.7860 F   0  0  0  0  0  0  0  0  0  0  0  0
    0.3420   12.4320   17.7640 C   0  0  2  0  0  0  0  0  0  0  0  0
    0.7870   11.9610   16.8770 H   0  0  0  0  0  0  0  0  0  0  0  0
    1.2650   13.6020   18.1320 C   0  0  0  0  0  0  0  0  0  0  0  0
    1.8330   13.9410   17.2590 H   0  0  0  0  0  0  0  0  0  0  0  0
    0.6870   14.4570   18.4970 H   0  0  0  0  0  0  0  0  0  0  0  0
    1.9810   13.3320   18.9140 H   0  0  0  0  0  0  0  0  0  0  0  0
   -1.0870   12.8960   17.4160 C   0  0  0  0  0  0  0  0  0  0  0  0
   -1.4750   13.5610   18.1990 H   0  0  0  0  0  0  0  0  0  0  0  0
   -1.0760   13.4940   16.4950 H   0  0  0  0  0  0  0  0  0  0  0  0
   -2.0270   11.7530   17.2390 C   0  0  0  0  0  0  0  0  0  0  0  0
   -1.9370   10.8050   16.3270 N   0  0  0  0  0  0  0  0  0  0  0  0
   -2.9880    9.9380   16.5060 N   0  0  0  0  0  0  0  0  0  0  0  0
   -3.6990   10.3780   17.5170 C   0  0  0  0  0  0  0  0  0  0  0  0
   -3.1360   11.5150   18.0090 N   0  0  0  0  0  0  0  0  0  0  0  0
   -4.5960    9.9200   17.9110 H   0  0  0  0  0  0  0  0  0  0  0  0
   -3.6240   12.2960   19.1140 C   0  0  0  0  0  0  0  0  0  0  0  0
   -3.7610   13.3280   18.7830 H   0  0  0  0  0  0  0  0  0  0  0  0
   -2.8970   12.2670   19.9310 H   0  0  0  0  0  0  0  0  0  0  0  0
   -4.5720   11.8690   19.4490 H   0  0  0  0  0  0  0  0  0  0  0  0
  1  2  1  0  0  0  0
  2 11  1  0  0  0  0
  2  3  2  0  0  0  0
  3  4  1  0  0  0  0
  4  5  1  0  0  0  0
  4 12  1  0  0  0  0
  5  7  1  0  0  0  0
  6  5  2  0  0  0  0
  7 13  1  0  0  0  0
  7 15  1  0  0  0  0
  8  3  1  0  0  0  0
  9  8  2  0  0  0  0
 10  1  2  0  0  0  0
 10  9  1  0  0  0  0
 14 10  1  0  0  0  0
 15 21  1  0  0  0  0
 16 15  1  0  0  0  0
 16 23  1  0  0  0  0
 17 18  1  0  0  0  0
 17 16  1  0  0  0  0
 18 27  1  0  0  0  0
 18 19  1  0  0  0  0
 19 28  1  0  0  0  0
 20 19  1  0  0  0  0
 20 15  1  0  0  0  0
 20 31  1  0  0  0  0
 22 16  1  0  0  0  0
 24 17  1  0  0  0  0
 25 17  1  0  0  0  0
 26 18  1  0  0  0  0
 29 19  1  0  0  0  0
 30 20  1  0  0  0  0
 32  9  1  0  0  0  0
 32 40  1  0  0  0  0
 33 42  1  0  0  0  0
 33 34  1  0  0  0  0
 33 32  1  0  0  0  0
 34 35  1  0  0  0  0
 35 40  1  0  0  0  0
 35 36  2  0  0  0  0
 36 44  1  0  0  0  0
 37 45  1  0  0  0  0
 37 36  1  0  0  0  0
 38 37  2  0  0  0  0
 39 38  1  0  0  0  0
 39 34  2  0  0  0  0
 40 41  2  0  0  0  0
 43 33  1  0  0  0  0
 46 38  1  0  0  0  0
 47 50  1  0  0  0  0
 47 39  1  0  0  0  0
 48 47  1  0  0  0  0
 49 47  1  0  0  0  0
 51 52  1  6  0  0  0
 51 53  1  0  0  0  0
 51  1  1  0  0  0  0
 53 55  1  0  0  0  0
 53 56  1  0  0  0  0
 54 53  1  0  0  0  0
 57 51  1  0  0  0  0
 57 58  1  0  0  0  0
 59 57  1  0  0  0  0
 60 57  1  0  0  0  0
 60 64  1  0  0  0  0
 61 62  1  0  0  0  0
 61 60  2  0  0  0  0
 62 63  2  0  0  0  0
 63 65  1  0  0  0  0
 63 64  1  0  0  0  0
 64 66  1  0  0  0  0
 66 69  1  0  0  0  0
 66 68  1  0  0  0  0
 67 66  1  0  0  0  0
M  END
>  <MODEL>
12

>  <REMARK>
 VINA RESULT:    -5.928      4.370     10.869
 INTER + INTRA:          -7.393
 INTER:                  -7.697
 INTRA:                   0.304
 UNBOUND:                 0.961
  Name = 
  8 active torsions:
  status: ('A' for Active; 'I' for Inactive)
    1  A    between atoms: C_1  and  C_2
    2  A    between atoms: C_2  and  C_3
    3  A    between atoms: C_2  and  C_10
    4  A    between atoms: C_3  and  C_4
    5  A    between atoms: N_8  and  C_9
    6  A    between atoms: N_16  and  C_17
    7  A    between atoms: C_24  and  N_26
    8  A    between atoms: C_33  and  C_34
                            x       y       z     vdW  Elec       q    Type
                         _______ _______ _______ _____ _____    ______ ____

>  <TORSDO>
F 8

$$$$
=
 OpenBabel07192307433D

 69 73  0  0  1  0  0  0  0  0999 V2000
    1.4880   12.1090   18.8030 C   0  0  0  0  0  0  0  0  0  0  0  0
    1.6990   10.7630   19.1240 C   0  0  0  0  0  0  0  0  0  0  0  0
    0.8290   10.1400   20.0000 C   0  0  0  0  0  0  0  0  0  0  0  0
    0.9190    8.8040   20.3830 N   0  0  0  0  0  0  0  0  0  0  0  0
    1.7520    7.8330   19.8960 C   0  0  0  0  0  0  0  0  0  0  0  0
    2.5720    7.9640   18.9960 O   0  0  0  0  0  0  0  0  0  0  0  0
    1.5410    6.6320   20.5430 N   0  0  0  0  0  0  0  0  0  0  0  0
   -0.2030   10.7840   20.5740 N   0  0  0  0  0  0  0  0  0  0  0  0
   -0.4290   12.0780   20.2790 C   0  0  0  0  0  0  0  0  0  0  0  0
    0.3960   12.7630   19.3880 C   0  0  0  0  0  0  0  0  0  0  0  0
    2.5320   10.2280   18.6860 H   0  0  0  0  0  0  0  0  0  0  0  0
    0.1650    8.5370   20.9980 H   0  0  0  0  0  0  0  0  0  0  0  0
    1.1670    6.7030   21.4790 H   0  0  0  0  0  0  0  0  0  0  0  0
    0.2070   13.8000   19.1360 H   0  0  0  0  0  0  0  0  0  0  0  0
    2.3580    5.4590   20.2540 C   0  0  0  0  0  0  0  0  0  0  0  0
    1.9010    4.8020   18.9400 C   0  0  0  0  0  0  0  0  0  0  0  0
    0.8940    3.6840   19.1820 C   0  0  0  0  0  0  0  0  0  0  0  0
    1.4860    2.5650   20.0420 C   0  0  0  0  0  0  0  0  0  0  0  0
    2.5690    3.0450   21.0100 C   0  0  0  0  0  0  0  0  0  0  0  0
    2.3400    4.4860   21.4470 C   0  0  0  0  0  0  0  0  0  0  0  0
    3.3870    5.8140   20.1050 H   0  0  0  0  0  0  0  0  0  0  0  0
    1.4780    5.5470   18.2560 H   0  0  0  0  0  0  0  0  0  0  0  0
    2.7760    4.3740   18.4330 H   0  0  0  0  0  0  0  0  0  0  0  0
    0.5500    3.2690   18.2270 H   0  0  0  0  0  0  0  0  0  0  0  0
    0.0080    4.0950   19.6810 H   0  0  0  0  0  0  0  0  0  0  0  0
    0.6730    2.0840   20.6000 H   0  0  0  0  0  0  0  0  0  0  0  0
    1.9130    1.7880   19.3960 H   0  0  0  0  0  0  0  0  0  0  0  0
    3.5510    2.9690   20.5250 H   0  0  0  0  0  0  0  0  0  0  0  0
    2.6020    2.3820   21.8820 H   0  0  0  0  0  0  0  0  0  0  0  0
    1.3780    4.5450   21.9750 H   0  0  0  0  0  0  0  0  0  0  0  0
    3.1050    4.7820   22.1750 H   0  0  0  0  0  0  0  0  0  0  0  0
   -1.5250   12.7210   20.8930 N   0  0  0  0  0  0  0  0  0  0  0  0
   -2.0560   12.3330   22.1860 C   0  0  0  0  0  0  0  0  0  0  0  0
   -3.1880   13.2870   22.3930 C   0  0  0  0  0  0  0  0  0  0  0  0
   -3.2800   14.1430   21.2990 C   0  0  0  0  0  0  0  0  0  0  0  0
   -4.2370   15.1360   21.2080 C   0  0  0  0  0  0  0  0  0  0  0  0
   -5.1320   15.2670   22.2700 C   0  0  0  0  0  0  0  0  0  0  0  0
   -5.0510   14.4100   23.3850 C   0  0  0  0  0  0  0  0  0  0  0  0
   -4.0710   13.4020   23.4640 C   0  0  0  0  0  0  0  0  0  0  0  0
   -2.2240   13.7930   20.3370 C   0  0  0  0  0  0  0  0  0  0  0  0
   -2.0880   14.4000   19.2920 O   0  0  0  0  0  0  0  0  0  0  0  0
   -1.2890   12.4670   22.9550 H   0  0  0  0  0  0  0  0  0  0  0  0
   -2.4190   11.3020   22.1430 H   0  0  0  0  0  0  0  0  0  0  0  0
   -4.2830   15.7880   20.3410 H   0  0  0  0  0  0  0  0  0  0  0  0
   -5.8990   16.0390   22.2350 H   0  0  0  0  0  0  0  0  0  0  0  0
   -5.7650   14.5430   24.1980 H   0  0  0  0  0  0  0  0  0  0  0  0
   -3.9680   12.4890   24.6540 C   0  0  0  0  0  0  0  0  0  0  0  0
   -3.0380   11.5070   24.5170 F   0  0  0  0  0  0  0  0  0  0  0  0
   -5.1470   11.8620   24.9210 F   0  0  0  0  0  0  0  0  0  0  0  0
   -3.6440   13.1630   25.7920 F   0  0  0  0  0  0  0  0  0  0  0  0
    2.4140   12.7920   17.8070 C   0  0  2  0  0  0  0  0  0  0  0  0
    1.9670   12.6820   16.8090 H   0  0  0  0  0  0  0  0  0  0  0  0
    3.7880   12.1100   17.7330 C   0  0  0  0  0  0  0  0  0  0  0  0
    4.1630   11.8770   18.7360 H   0  0  0  0  0  0  0  0  0  0  0  0
    3.7270   11.1670   17.1800 H   0  0  0  0  0  0  0  0  0  0  0  0
    4.5320   12.7370   17.2330 H   0  0  0  0  0  0  0  0  0  0  0  0
    2.5190   14.2930   18.1430 C   0  0  0  0  0  0  0  0  0  0  0  0
    2.3520   14.8990   17.2430 H   0  0  0  0  0  0  0  0  0  0  0  0
    1.7250   14.5790   18.8460 H   0  0  0  0  0  0  0  0  0  0  0  0
    3.8390   14.6510   18.7340 C   0  0  0  0  0  0  0  0  0  0  0  0
    4.9450   14.9130   18.0670 N   0  0  0  0  0  0  0  0  0  0  0  0
    5.9330   15.2060   18.9760 N   0  0  0  0  0  0  0  0  0  0  0  0
    5.4120   15.1090   20.1760 C   0  0  0  0  0  0  0  0  0  0  0  0
    4.1000   14.7610   20.0750 N   0  0  0  0  0  0  0  0  0  0  0  0
    5.9300   15.2750   21.1110 H   0  0  0  0  0  0  0  0  0  0  0  0
    3.1890   14.5540   21.1690 C   0  0  0  0  0  0  0  0  0  0  0  0
    3.6060   15.0170   22.0670 H   0  0  0  0  0  0  0  0  0  0  0  0
    3.0580   13.4810   21.3380 H   0  0  0  0  0  0  0  0  0  0  0  0
    2.2290   15.0080   20.9110 H   0  0  0  0  0  0  0  0  0  0  0  0
  1  2  2  0  0  0  0
  1 10  1  0  0  0  0
  2  3  1  0  0  0  0
  3  4  1  0  0  0  0
  3  8  2  0  0  0  0
  4 12  1  0  0  0  0
  5  4  1  0  0  0  0
  5  7  1  0  0  0  0
  6  5  2  0  0  0  0
  7 13  1  0  0  0  0
  9  8  1  0  0  0  0
  9 32  1  0  0  0  0
 10  9  2  0  0  0  0
 11  2  1  0  0  0  0
 14 10  1  0  0  0  0
 15  7  1  0  0  0  0
 15 20  1  0  0  0  0
 16 17  1  0  0  0  0
 16 15  1  0  0  0  0
 17 25  1  0  0  0  0
 17 18  1  0  0  0  0
 18 26  1  0  0  0  0
 18 19  1  0  0  0  0
 19 20  1  0  0  0  0
 19 29  1  0  0  0  0
 20 30  1  0  0  0  0
 20 31  1  0  0  0  0
 21 15  1  0  0  0  0
 22 16  1  0  0  0  0
 23 16  1  0  0  0  0
 24 17  1  0  0  0  0
 27 18  1  0  0  0  0
 28 19  1  0  0  0  0
 32 33  1  0  0  0  0
 33 34  1  0  0  0  0
 33 42  1  0  0  0  0
 34 39  1  0  0  0  0
 35 34  2  0  0  0  0
 36 35  1  0  0  0  0
 36 37  2  0  0  0  0
 37 38  1  0  0  0  0
 38 39  2  0  0  0  0
 38 46  1  0  0  0  0
 39 47  1  0  0  0  0
 40 32  1  0  0  0  0
 40 35  1  0  0  0  0
 41 40  2  0  0  0  0
 43 33  1  0  0  0  0
 44 36  1  0  0  0  0
 45 37  1  0  0  0  0
 47 49  1  0  0  0  0
 47 50  1  0  0  0  0
 48 47  1  0  0  0  0
 51 52  1  6  0  0  0
 51 57  1  0  0  0  0
 51  1  1  0  0  0  0
 53 51  1  0  0  0  0
 53 54  1  0  0  0  0
 55 53  1  0  0  0  0
 56 53  1  0  0  0  0
 57 60  1  0  0  0  0
 57 59  1  0  0  0  0
 58 57  1  0  0  0  0
 60 64  1  0  0  0  0
 61 60  2  0  0  0  0
 61 62  1  0  0  0  0
 62 63  2  0  0  0  0
 63 65  1  0  0  0  0
 64 63  1  0  0  0  0
 64 66  1  0  0  0  0
 66 68  1  0  0  0  0
 66 67  1  0  0  0  0
 69 66  1  0  0  0  0
M  END
>  <MODEL>
13

>  <REMARK>
 VINA RESULT:    -5.831      3.972      7.901
 INTER + INTRA:          -7.256
 INTER:                  -7.070
 INTRA:                  -0.186
 UNBOUND:                 0.961
  Name = 
  8 active torsions:
  status: ('A' for Active; 'I' for Inactive)
    1  A    between atoms: C_1  and  C_2
    2  A    between atoms: C_2  and  C_3
    3  A    between atoms: C_2  and  C_10
    4  A    between atoms: C_3  and  C_4
    5  A    between atoms: N_8  and  C_9
    6  A    between atoms: N_16  and  C_17
    7  A    between atoms: C_24  and  N_26
    8  A    between atoms: C_33  and  C_34
                            x       y       z     vdW  Elec       q    Type
                         _______ _______ _______ _____ _____    ______ ____

>  <TORSDO>
F 8

$$$$
=
 OpenBabel07192307433D

 69 73  0  0  1  0  0  0  0  0999 V2000
    1.7490   11.9680   18.5560 C   0  0  0  0  0  0  0  0  0  0  0  0
    0.6480   12.1410   19.4010 C   0  0  0  0  0  0  0  0  0  0  0  0
    0.0930   11.0320   20.0140 C   0  0  0  0  0  0  0  0  0  0  0  0
   -0.9890   11.0750   20.8900 N   0  0  0  0  0  0  0  0  0  0  0  0
   -1.6150   12.1720   21.4170 C   0  0  0  0  0  0  0  0  0  0  0  0
   -1.3120   13.3430   21.2260 O   0  0  0  0  0  0  0  0  0  0  0  0
   -2.6580   11.7970   22.2410 N   0  0  0  0  0  0  0  0  0  0  0  0
    0.5600    9.7870   19.8140 N   0  0  0  0  0  0  0  0  0  0  0  0
    1.6210    9.5940   19.0080 C   0  0  0  0  0  0  0  0  0  0  0  0
    2.2420   10.6680   18.3730 C   0  0  0  0  0  0  0  0  0  0  0  0
    0.2450   13.1330   19.5660 H   0  0  0  0  0  0  0  0  0  0  0  0
   -1.2130   10.1620   21.2570 H   0  0  0  0  0  0  0  0  0  0  0  0
   -3.0690   10.8970   22.0370 H   0  0  0  0  0  0  0  0  0  0  0  0
    3.1070   10.5180   17.7380 H   0  0  0  0  0  0  0  0  0  0  0  0
   -3.5280   12.7870   22.8650 C   0  0  0  0  0  0  0  0  0  0  0  0
   -2.8460   14.1660   22.8720 C   0  0  0  0  0  0  0  0  0  0  0  0
   -2.0970   14.4250   24.1750 C   0  0  0  0  0  0  0  0  0  0  0  0
   -3.0370   14.4010   25.3820 C   0  0  0  0  0  0  0  0  0  0  0  0
   -4.2550   13.4940   25.1910 C   0  0  0  0  0  0  0  0  0  0  0  0
   -3.9480   12.3200   24.2700 C   0  0  0  0  0  0  0  0  0  0  0  0
   -4.4260   12.8670   22.2370 H   0  0  0  0  0  0  0  0  0  0  0  0
   -2.1630   14.2710   22.0200 H   0  0  0  0  0  0  0  0  0  0  0  0
   -3.6120   14.9430   22.7550 H   0  0  0  0  0  0  0  0  0  0  0  0
   -1.5810   15.3910   24.1310 H   0  0  0  0  0  0  0  0  0  0  0  0
   -1.3200   13.6620   24.3040 H   0  0  0  0  0  0  0  0  0  0  0  0
   -2.4680   14.0810   26.2640 H   0  0  0  0  0  0  0  0  0  0  0  0
   -3.3880   15.4180   25.5980 H   0  0  0  0  0  0  0  0  0  0  0  0
   -5.0810   14.0780   24.7660 H   0  0  0  0  0  0  0  0  0  0  0  0
   -4.6000   13.1340   26.1670 H   0  0  0  0  0  0  0  0  0  0  0  0
   -3.1550   11.7130   24.7260 H   0  0  0  0  0  0  0  0  0  0  0  0
   -4.8260   11.6670   24.1930 H   0  0  0  0  0  0  0  0  0  0  0  0
    2.0900    8.2750   18.8260 N   0  0  0  0  0  0  0  0  0  0  0  0
    1.7350    7.1740   19.7010 C   0  0  0  0  0  0  0  0  0  0  0  0
    2.4690    6.0150   19.1090 C   0  0  0  0  0  0  0  0  0  0  0  0
    3.1780    6.4370   17.9890 C   0  0  0  0  0  0  0  0  0  0  0  0
    3.9540    5.5790   17.2310 C   0  0  0  0  0  0  0  0  0  0  0  0
    4.0090    4.2420   17.6260 C   0  0  0  0  0  0  0  0  0  0  0  0
    3.2960    3.7990   18.7560 C   0  0  0  0  0  0  0  0  0  0  0  0
    2.5100    4.6840   19.5190 C   0  0  0  0  0  0  0  0  0  0  0  0
    2.9420    7.8750   17.7970 C   0  0  0  0  0  0  0  0  0  0  0  0
    3.4510    8.4860   16.8760 O   0  0  0  0  0  0  0  0  0  0  0  0
    0.6530    7.0090   19.6670 H   0  0  0  0  0  0  0  0  0  0  0  0
    2.0860    7.3800   20.7170 H   0  0  0  0  0  0  0  0  0  0  0  0
    4.4960    5.9400   16.3620 H   0  0  0  0  0  0  0  0  0  0  0  0
    4.6090    3.5360   17.0530 H   0  0  0  0  0  0  0  0  0  0  0  0
    3.3590    2.7470   19.0340 H   0  0  0  0  0  0  0  0  0  0  0  0
    1.7350    4.2190   20.7220 C   0  0  0  0  0  0  0  0  0  0  0  0
    2.2960    4.5710   21.9090 F   0  0  0  0  0  0  0  0  0  0  0  0
    1.6010    2.8640   20.7510 F   0  0  0  0  0  0  0  0  0  0  0  0
    0.4670    4.7160   20.7390 F   0  0  0  0  0  0  0  0  0  0  0  0
    2.3940   13.1860   17.9110 C   0  0  2  0  0  0  0  0  0  0  0  0
    1.9760   13.2860   16.8990 H   0  0  0  0  0  0  0  0  0  0  0  0
    3.9080   13.0100   17.7290 C   0  0  0  0  0  0  0  0  0  0  0  0
    4.1380   12.0370   17.2820 H   0  0  0  0  0  0  0  0  0  0  0  0
    4.3140   13.7800   17.0640 H   0  0  0  0  0  0  0  0  0  0  0  0
    4.4480   13.0800   18.6780 H   0  0  0  0  0  0  0  0  0  0  0  0
    2.0400   14.4490   18.7220 C   0  0  0  0  0  0  0  0  0  0  0  0
    1.9170   15.3110   18.0530 H   0  0  0  0  0  0  0  0  0  0  0  0
    1.0710   14.3180   19.2210 H   0  0  0  0  0  0  0  0  0  0  0  0
    3.0720   14.7710   19.7470 C   0  0  0  0  0  0  0  0  0  0  0  0
    4.3550   14.9760   19.5240 N   0  0  0  0  0  0  0  0  0  0  0  0
    4.9600   15.2530   20.7260 N   0  0  0  0  0  0  0  0  0  0  0  0
    4.0360   15.2040   21.6570 C   0  0  0  0  0  0  0  0  0  0  0  0
    2.8360   14.9040   21.0910 N   0  0  0  0  0  0  0  0  0  0  0  0
    4.1880   15.3730   22.7140 H   0  0  0  0  0  0  0  0  0  0  0  0
    1.5830   14.7580   21.7830 C   0  0  0  0  0  0  0  0  0  0  0  0
    0.7850   14.6350   21.0450 H   0  0  0  0  0  0  0  0  0  0  0  0
    1.3910   15.6520   22.3830 H   0  0  0  0  0  0  0  0  0  0  0  0
    1.6450   13.8820   22.4330 H   0  0  0  0  0  0  0  0  0  0  0  0
  1  2  1  0  0  0  0
  2 11  1  0  0  0  0
  2  3  2  0  0  0  0
  3  4  1  0  0  0  0
  4 12  1  0  0  0  0
  4  5  1  0  0  0  0
  5  7  1  0  0  0  0
  6  5  2  0  0  0  0
  7 15  1  0  0  0  0
  8  3  1  0  0  0  0
  9  8  2  0  0  0  0
 10  1  2  0  0  0  0
 10  9  1  0  0  0  0
 13  7  1  0  0  0  0
 14 10  1  0  0  0  0
 15 16  1  0  0  0  0
 15 20  1  0  0  0  0
 16 17  1  0  0  0  0
 17 25  1  0  0  0  0
 17 18  1  0  0  0  0
 18 27  1  0  0  0  0
 18 26  1  0  0  0  0
 19 18  1  0  0  0  0
 19 29  1  0  0  0  0
 20 30  1  0  0  0  0
 20 19  1  0  0  0  0
 21 15  1  0  0  0  0
 22 16  1  0  0  0  0
 23 16  1  0  0  0  0
 24 17  1  0  0  0  0
 28 19  1  0  0  0  0
 31 20  1  0  0  0  0
 32  9  1  0  0  0  0
 32 33  1  0  0  0  0
 33 43  1  0  0  0  0
 34 39  1  0  0  0  0
 34 33  1  0  0  0  0
 35 34  2  0  0  0  0
 36 37  2  0  0  0  0
 36 35  1  0  0  0  0
 37 38  1  0  0  0  0
 38 46  1  0  0  0  0
 38 39  2  0  0  0  0
 39 47  1  0  0  0  0
 40 35  1  0  0  0  0
 40 32  1  0  0  0  0
 41 40  2  0  0  0  0
 42 33  1  0  0  0  0
 44 36  1  0  0  0  0
 45 37  1  0  0  0  0
 47 50  1  0  0  0  0
 47 49  1  0  0  0  0
 47 48  1  0  0  0  0
 51 52  1  6  0  0  0
 51  1  1  0  0  0  0
 51 57  1  0  0  0  0
 53 51  1  0  0  0  0
 53 56  1  0  0  0  0
 54 53  1  0  0  0  0
 55 53  1  0  0  0  0
 57 59  1  0  0  0  0
 57 60  1  0  0  0  0
 58 57  1  0  0  0  0
 60 64  1  0  0  0  0
 61 60  2  0  0  0  0
 61 62  1  0  0  0  0
 62 63  2  0  0  0  0
 63 65  1  0  0  0  0
 64 63  1  0  0  0  0
 64 66  1  0  0  0  0
 66 68  1  0  0  0  0
 66 69  1  0  0  0  0
 67 66  1  0  0  0  0
M  END
>  <MODEL>
14

>  <REMARK>
 VINA RESULT:    -5.809      3.843     10.784
 INTER + INTRA:          -7.225
 INTER:                  -8.526
 INTRA:                   1.301
 UNBOUND:                 0.961
  Name = 
  8 active torsions:
  status: ('A' for Active; 'I' for Inactive)
    1  A    between atoms: C_1  and  C_2
    2  A    between atoms: C_2  and  C_3
    3  A    between atoms: C_2  and  C_10
    4  A    between atoms: C_3  and  C_4
    5  A    between atoms: N_8  and  C_9
    6  A    between atoms: N_16  and  C_17
    7  A    between atoms: C_24  and  N_26
    8  A    between atoms: C_33  and  C_34
                            x       y       z     vdW  Elec       q    Type
                         _______ _______ _______ _____ _____    ______ ____

>  <TORSDO>
F 8

$$$$
=
 OpenBabel07192307433D

 69 73  0  0  1  0  0  0  0  0999 V2000
    2.2890    5.7040   19.2510 C   0  0  0  0  0  0  0  0  0  0  0  0
    1.9120    7.0510   19.2900 C   0  0  0  0  0  0  0  0  0  0  0  0
    2.4710    7.9290   18.3790 C   0  0  0  0  0  0  0  0  0  0  0  0
    2.1640    9.2860   18.3030 N   0  0  0  0  0  0  0  0  0  0  0  0
    1.1950    9.9790   18.9760 C   0  0  0  0  0  0  0  0  0  0  0  0
    0.3880    9.5130   19.7710 O   0  0  0  0  0  0  0  0  0  0  0  0
    1.2150   11.3160   18.6300 N   0  0  0  0  0  0  0  0  0  0  0  0
    3.3800    7.5420   17.4670 N   0  0  0  0  0  0  0  0  0  0  0  0
    3.7570    6.2510   17.4070 C   0  0  0  0  0  0  0  0  0  0  0  0
    3.2190    5.3070   18.2810 C   0  0  0  0  0  0  0  0  0  0  0  0
    1.1920    7.3890   20.0250 H   0  0  0  0  0  0  0  0  0  0  0  0
    2.6510    9.7390   17.5440 H   0  0  0  0  0  0  0  0  0  0  0  0
    2.1040   11.6670   18.3070 H   0  0  0  0  0  0  0  0  0  0  0  0
    3.5080    4.2640   18.2240 H   0  0  0  0  0  0  0  0  0  0  0  0
    0.3250   12.2790   19.2690 C   0  0  0  0  0  0  0  0  0  0  0  0
    0.1740   13.5310   18.3890 C   0  0  0  0  0  0  0  0  0  0  0  0
    1.1640   14.6230   18.7760 C   0  0  0  0  0  0  0  0  0  0  0  0
    0.9620   15.0840   20.2210 C   0  0  0  0  0  0  0  0  0  0  0  0
    0.3950   13.9960   21.1360 C   0  0  0  0  0  0  0  0  0  0  0  0
    0.8200   12.6030   20.6910 C   0  0  0  0  0  0  0  0  0  0  0  0
   -0.6640   11.8040   19.3410 H   0  0  0  0  0  0  0  0  0  0  0  0
    0.2880   13.2800   17.3270 H   0  0  0  0  0  0  0  0  0  0  0  0
   -0.8430   13.9290   18.5070 H   0  0  0  0  0  0  0  0  0  0  0  0
    1.0670   15.4810   18.1000 H   0  0  0  0  0  0  0  0  0  0  0  0
    2.1870   14.2450   18.6550 H   0  0  0  0  0  0  0  0  0  0  0  0
    1.9230   15.4390   20.6130 H   0  0  0  0  0  0  0  0  0  0  0  0
    0.2860   15.9480   20.2430 H   0  0  0  0  0  0  0  0  0  0  0  0
   -0.7000   14.0550   21.1370 H   0  0  0  0  0  0  0  0  0  0  0  0
    0.7160   14.1820   22.1670 H   0  0  0  0  0  0  0  0  0  0  0  0
    1.9150   12.5360   20.7400 H   0  0  0  0  0  0  0  0  0  0  0  0
    0.4370   11.8530   21.3940 H   0  0  0  0  0  0  0  0  0  0  0  0
    4.7080    5.8780   16.4330 N   0  0  0  0  0  0  0  0  0  0  0  0
    4.3980    5.0230   15.3030 C   0  0  0  0  0  0  0  0  0  0  0  0
    5.7040    4.9190   14.5830 C   0  0  0  0  0  0  0  0  0  0  0  0
    6.6670    5.6610   15.2590 C   0  0  0  0  0  0  0  0  0  0  0  0
    7.9770    5.7530   14.8260 C   0  0  0  0  0  0  0  0  0  0  0  0
    8.3190    5.0680   13.6600 C   0  0  0  0  0  0  0  0  0  0  0  0
    7.3550    4.3140   12.9630 C   0  0  0  0  0  0  0  0  0  0  0  0
    6.0250    4.2290   13.4160 C   0  0  0  0  0  0  0  0  0  0  0  0
    6.0440    6.2780   16.4390 C   0  0  0  0  0  0  0  0  0  0  0  0
    6.6800    6.9850   17.1980 O   0  0  0  0  0  0  0  0  0  0  0  0
    3.6430    5.5020   14.6720 H   0  0  0  0  0  0  0  0  0  0  0  0
    4.0710    4.0410   15.6600 H   0  0  0  0  0  0  0  0  0  0  0  0
    8.7060    6.3400   15.3770 H   0  0  0  0  0  0  0  0  0  0  0  0
    9.3410    5.1180   13.2870 H   0  0  0  0  0  0  0  0  0  0  0  0
    7.6570    3.7940   12.0540 H   0  0  0  0  0  0  0  0  0  0  0  0
    4.9840    3.4360   12.6740 C   0  0  0  0  0  0  0  0  0  0  0  0
    4.2760    4.1650   11.7700 F   0  0  0  0  0  0  0  0  0  0  0  0
    4.0690    2.8810   13.5150 F   0  0  0  0  0  0  0  0  0  0  0  0
    5.5270    2.3970   11.9820 F   0  0  0  0  0  0  0  0  0  0  0  0
    1.6480    4.7220   20.2210 C   0  0  2  0  0  0  0  0  0  0  0  0
    0.6110    5.0480   20.3870 H   0  0  0  0  0  0  0  0  0  0  0  0
    2.3250    4.7440   21.5980 C   0  0  0  0  0  0  0  0  0  0  0  0
    1.9900    5.6060   22.1850 H   0  0  0  0  0  0  0  0  0  0  0  0
    2.0780    3.8430   22.1700 H   0  0  0  0  0  0  0  0  0  0  0  0
    3.4150    4.7940   21.5200 H   0  0  0  0  0  0  0  0  0  0  0  0
    1.6310    3.3130   19.5950 C   0  0  0  0  0  0  0  0  0  0  0  0
    0.7840    2.7320   19.9810 H   0  0  0  0  0  0  0  0  0  0  0  0
    1.4740    3.3830   18.5100 H   0  0  0  0  0  0  0  0  0  0  0  0
    2.8930    2.5640   19.8520 C   0  0  0  0  0  0  0  0  0  0  0  0
    3.4730    2.3940   21.0240 N   0  0  0  0  0  0  0  0  0  0  0  0
    4.6070    1.6400   20.8350 N   0  0  0  0  0  0  0  0  0  0  0  0
    4.6980    1.3730   19.5530 C   0  0  0  0  0  0  0  0  0  0  0  0
    3.6460    1.9320   18.8960 N   0  0  0  0  0  0  0  0  0  0  0  0
    5.4810    0.7990   19.0770 H   0  0  0  0  0  0  0  0  0  0  0  0
    3.3950    1.8650   17.4810 C   0  0  0  0  0  0  0  0  0  0  0  0
    4.3520    1.8400   16.9540 H   0  0  0  0  0  0  0  0  0  0  0  0
    2.8280    2.7460   17.1680 H   0  0  0  0  0  0  0  0  0  0  0  0
    2.8170    0.9610   17.2740 H   0  0  0  0  0  0  0  0  0  0  0  0
  1  2  1  0  0  0  0
  1 51  1  0  0  0  0
  2 11  1  0  0  0  0
  3  2  2  0  0  0  0
  4  3  1  0  0  0  0
  4  5  1  0  0  0  0
  5  6  2  0  0  0  0
  7  5  1  0  0  0  0
  7 15  1  0  0  0  0
  8  3  1  0  0  0  0
  9  8  2  0  0  0  0
  9 10  1  0  0  0  0
 10  1  2  0  0  0  0
 12  4  1  0  0  0  0
 13  7  1  0  0  0  0
 14 10  1  0  0  0  0
 15 21  1  0  0  0  0
 15 20  1  0  0  0  0
 16 23  1  0  0  0  0
 16 17  1  0  0  0  0
 16 15  1  0  0  0  0
 17 18  1  0  0  0  0
 18 27  1  0  0  0  0
 18 26  1  0  0  0  0
 18 19  1  0  0  0  0
 19 28  1  0  0  0  0
 19 29  1  0  0  0  0
 20 30  1  0  0  0  0
 20 19  1  0  0  0  0
 20 31  1  0  0  0  0
 22 16  1  0  0  0  0
 24 17  1  0  0  0  0
 25 17  1  0  0  0  0
 32 40  1  0  0  0  0
 32  9  1  0  0  0  0
 33 43  1  0  0  0  0
 33 32  1  0  0  0  0
 34 35  1  0  0  0  0
 34 33  1  0  0  0  0
 35 40  1  0  0  0  0
 36 35  2  0  0  0  0
 36 44  1  0  0  0  0
 37 36  1  0  0  0  0
 38 39  1  0  0  0  0
 38 37  2  0  0  0  0
 39 34  2  0  0  0  0
 40 41  2  0  0  0  0
 42 33  1  0  0  0  0
 45 37  1  0  0  0  0
 46 38  1  0  0  0  0
 47 39  1  0  0  0  0
 47 49  1  0  0  0  0
 48 47  1  0  0  0  0
 50 47  1  0  0  0  0
 51 52  1  1  0  0  0
 51 53  1  0  0  0  0
 53 55  1  0  0  0  0
 53 54  1  0  0  0  0
 56 53  1  0  0  0  0
 57 60  1  0  0  0  0
 57 58  1  0  0  0  0
 57 51  1  0  0  0  0
 59 57  1  0  0  0  0
 60 61  2  0  0  0  0
 62 61  1  0  0  0  0
 63 62  2  0  0  0  0
 64 63  1  0  0  0  0
 64 60  1  0  0  0  0
 65 63  1  0  0  0  0
 66 64  1  0  0  0  0
 67 66  1  0  0  0  0
 68 66  1  0  0  0  0
 69 66  1  0  0  0  0
M  END
>  <MODEL>
15

>  <REMARK>
 VINA RESULT:    -5.776      4.071      8.854
 INTER + INTRA:          -7.179
 INTER:                  -7.288
 INTRA:                   0.109
 UNBOUND:                 0.961
  Name = 
  8 active torsions:
  status: ('A' for Active; 'I' for Inactive)
    1  A    between atoms: C_1  and  C_2
    2  A    between atoms: C_2  and  C_3
    3  A    between atoms: C_2  and  C_10
    4  A    between atoms: C_3  and  C_4
    5  A    between atoms: N_8  and  C_9
    6  A    between atoms: N_16  and  C_17
    7  A    between atoms: C_24  and  N_26
    8  A    between atoms: C_33  and  C_34
                            x       y       z     vdW  Elec       q    Type
                         _______ _______ _______ _____ _____    ______ ____

>  <TORSDO>
F 8

$$$$
=
 OpenBabel07192307433D

 69 73  0  0  1  0  0  0  0  0999 V2000
   -0.5760   10.0110   17.9210 C   0  0  0  0  0  0  0  0  0  0  0  0
   -0.8530   10.5960   19.1610 C   0  0  0  0  0  0  0  0  0  0  0  0
   -0.1290   10.1920   20.2680 C   0  0  0  0  0  0  0  0  0  0  0  0
   -0.2950   10.7110   21.5500 N   0  0  0  0  0  0  0  0  0  0  0  0
   -1.0640   11.7720   21.9460 C   0  0  0  0  0  0  0  0  0  0  0  0
   -1.7440   12.4870   21.2210 O   0  0  0  0  0  0  0  0  0  0  0  0
   -0.9690   11.9680   23.3100 N   0  0  0  0  0  0  0  0  0  0  0  0
    0.8200    9.2410   20.2030 N   0  0  0  0  0  0  0  0  0  0  0  0
    1.1060    8.6650   19.0210 C   0  0  0  0  0  0  0  0  0  0  0  0
    0.4300    9.0370   17.8600 C   0  0  0  0  0  0  0  0  0  0  0  0
   -1.6230   11.3540   19.2400 H   0  0  0  0  0  0  0  0  0  0  0  0
    0.3580   10.3100   22.2060 H   0  0  0  0  0  0  0  0  0  0  0  0
   -0.7320   11.1480   23.8500 H   0  0  0  0  0  0  0  0  0  0  0  0
    0.6710    8.5880   16.9040 H   0  0  0  0  0  0  0  0  0  0  0  0
   -1.7540   12.9940   23.9860 C   0  0  0  0  0  0  0  0  0  0  0  0
   -3.2140   12.5330   24.1390 C   0  0  0  0  0  0  0  0  0  0  0  0
   -4.0900   13.0260   22.9930 C   0  0  0  0  0  0  0  0  0  0  0  0
   -4.1240   14.5550   22.9230 C   0  0  0  0  0  0  0  0  0  0  0  0
   -2.8520   15.2190   23.4540 C   0  0  0  0  0  0  0  0  0  0  0  0
   -1.6250   14.3400   23.2500 C   0  0  0  0  0  0  0  0  0  0  0  0
   -1.3360   13.1040   24.9960 H   0  0  0  0  0  0  0  0  0  0  0  0
   -3.2740   11.4410   24.2140 H   0  0  0  0  0  0  0  0  0  0  0  0
   -3.6180   12.9330   25.0780 H   0  0  0  0  0  0  0  0  0  0  0  0
   -5.1100   12.6410   23.1020 H   0  0  0  0  0  0  0  0  0  0  0  0
   -3.7060   12.6280   22.0450 H   0  0  0  0  0  0  0  0  0  0  0  0
   -4.2950   14.8540   21.8820 H   0  0  0  0  0  0  0  0  0  0  0  0
   -4.9810   14.9320   23.4950 H   0  0  0  0  0  0  0  0  0  0  0  0
   -2.9690   15.4280   24.5250 H   0  0  0  0  0  0  0  0  0  0  0  0
   -2.7130   16.1890   22.9620 H   0  0  0  0  0  0  0  0  0  0  0  0
   -1.4850   14.1750   22.1730 H   0  0  0  0  0  0  0  0  0  0  0  0
   -0.7270   14.8650   23.5970 H   0  0  0  0  0  0  0  0  0  0  0  0
    2.1130    7.6760   18.9870 N   0  0  0  0  0  0  0  0  0  0  0  0
    3.2060    7.6830   18.0340 C   0  0  0  0  0  0  0  0  0  0  0  0
    3.9820    6.4560   18.3930 C   0  0  0  0  0  0  0  0  0  0  0  0
    3.3680    5.8150   19.4640 C   0  0  0  0  0  0  0  0  0  0  0  0
    3.8620    4.6490   20.0170 C   0  0  0  0  0  0  0  0  0  0  0  0
    5.0250    4.1140   19.4610 C   0  0  0  0  0  0  0  0  0  0  0  0
    5.6590    4.7520   18.3780 C   0  0  0  0  0  0  0  0  0  0  0  0
    5.1440    5.9390   17.8240 C   0  0  0  0  0  0  0  0  0  0  0  0
    2.1770    6.5840   19.8530 C   0  0  0  0  0  0  0  0  0  0  0  0
    1.4650    6.2320   20.7750 O   0  0  0  0  0  0  0  0  0  0  0  0
    3.8140    8.5820   18.1750 H   0  0  0  0  0  0  0  0  0  0  0  0
    2.8110    7.6100   17.0160 H   0  0  0  0  0  0  0  0  0  0  0  0
    3.3590    4.1720   20.8530 H   0  0  0  0  0  0  0  0  0  0  0  0
    5.4450    3.1970   19.8710 H   0  0  0  0  0  0  0  0  0  0  0  0
    6.5680    4.3080   17.9700 H   0  0  0  0  0  0  0  0  0  0  0  0
    5.8190    6.6360   16.6740 C   0  0  0  0  0  0  0  0  0  0  0  0
    4.9780    6.9610   15.6560 F   0  0  0  0  0  0  0  0  0  0  0  0
    6.8060    5.8740   16.1240 F   0  0  0  0  0  0  0  0  0  0  0  0
    6.4190    7.7960   17.0560 F   0  0  0  0  0  0  0  0  0  0  0  0
   -1.3370   10.4790   16.6880 C   0  0  2  0  0  0  0  0  0  0  0  0
   -0.6130   10.5730   15.8670 H   0  0  0  0  0  0  0  0  0  0  0  0
   -1.9460   11.8750   16.8800 C   0  0  0  0  0  0  0  0  0  0  0  0
   -3.0120   11.8750   16.6320 H   0  0  0  0  0  0  0  0  0  0  0  0
   -1.8530   12.2020   17.9210 H   0  0  0  0  0  0  0  0  0  0  0  0
   -1.4560   12.6270   16.2550 H   0  0  0  0  0  0  0  0  0  0  0  0
   -2.3940    9.4240   16.3010 C   0  0  0  0  0  0  0  0  0  0  0  0
   -1.9540    8.4190   16.3140 H   0  0  0  0  0  0  0  0  0  0  0  0
   -3.2010    9.4060   17.0460 H   0  0  0  0  0  0  0  0  0  0  0  0
   -2.9830    9.6810   14.9560 C   0  0  0  0  0  0  0  0  0  0  0  0
   -2.5190    9.2380   13.8050 N   0  0  0  0  0  0  0  0  0  0  0  0
   -3.3510    9.6860   12.8070 N   0  0  0  0  0  0  0  0  0  0  0  0
   -4.2990   10.3980   13.3690 C   0  0  0  0  0  0  0  0  0  0  0  0
   -4.1100   10.4240   14.7170 N   0  0  0  0  0  0  0  0  0  0  0  0
   -5.1120   10.8940   12.8570 H   0  0  0  0  0  0  0  0  0  0  0  0
   -4.9370   11.1030   15.6780 C   0  0  0  0  0  0  0  0  0  0  0  0
   -5.6810   10.4010   16.0620 H   0  0  0  0  0  0  0  0  0  0  0  0
   -5.4430   11.9440   15.1960 H   0  0  0  0  0  0  0  0  0  0  0  0
   -4.3000   11.4700   16.4870 H   0  0  0  0  0  0  0  0  0  0  0  0
  1  2  1  0  0  0  0
  2 11  1  0  0  0  0
  2  3  2  0  0  0  0
  3  4  1  0  0  0  0
  4  5  1  0  0  0  0
  4 12  1  0  0  0  0
  5  7  1  0  0  0  0
  6  5  2  0  0  0  0
  7 13  1  0  0  0  0
  7 15  1  0  0  0  0
  8  3  1  0  0  0  0
  9  8  2  0  0  0  0
 10  1  2  0  0  0  0
 10  9  1  0  0  0  0
 14 10  1  0  0  0  0
 15 16  1  0  0  0  0
 15 21  1  0  0  0  0
 16 22  1  0  0  0  0
 16 23  1  0  0  0  0
 17 24  1  0  0  0  0
 17 16  1  0  0  0  0
 18 17  1  0  0  0  0
 18 19  1  0  0  0  0
 18 27  1  0  0  0  0
 19 28  1  0  0  0  0
 20 19  1  0  0  0  0
 20 31  1  0  0  0  0
 20 15  1  0  0  0  0
 25 17  1  0  0  0  0
 26 18  1  0  0  0  0
 29 19  1  0  0  0  0
 30 20  1  0  0  0  0
 32  9  1  0  0  0  0
 32 40  1  0  0  0  0
 33 42  1  0  0  0  0
 33 34  1  0  0  0  0
 33 32  1  0  0  0  0
 34 35  1  0  0  0  0
 35 40  1  0  0  0  0
 35 36  2  0  0  0  0
 36 44  1  0  0  0  0
 37 45  1  0  0  0  0
 37 36  1  0  0  0  0
 38 37  2  0  0  0  0
 39 38  1  0  0  0  0
 39 34  2  0  0  0  0
 40 41  2  0  0  0  0
 43 33  1  0  0  0  0
 46 38  1  0  0  0  0
 47 50  1  0  0  0  0
 47 39  1  0  0  0  0
 48 47  1  0  0  0  0
 49 47  1  0  0  0  0
 51 52  1  6  0  0  0
 51 53  1  0  0  0  0
 51  1  1  0  0  0  0
 53 55  1  0  0  0  0
 54 53  1  0  0  0  0
 56 53  1  0  0  0  0
 57 58  1  0  0  0  0
 57 51  1  0  0  0  0
 57 59  1  0  0  0  0
 60 57  1  0  0  0  0
 61 60  2  0  0  0  0
 62 63  2  0  0  0  0
 62 61  1  0  0  0  0
 63 64  1  0  0  0  0
 64 60  1  0  0  0  0
 64 66  1  0  0  0  0
 65 63  1  0  0  0  0
 66 67  1  0  0  0  0
 66 69  1  0  0  0  0
 68 66  1  0  0  0  0
M  END
>  <MODEL>
16

>  <REMARK>
 VINA RESULT:    -5.754      4.779     10.631
 INTER + INTRA:          -7.148
 INTER:                  -7.350
 INTRA:                   0.202
 UNBOUND:                 0.961
  Name = 
  8 active torsions:
  status: ('A' for Active; 'I' for Inactive)
    1  A    between atoms: C_1  and  C_2
    2  A    between atoms: C_2  and  C_3
    3  A    between atoms: C_2  and  C_10
    4  A    between atoms: C_3  and  C_4
    5  A    between atoms: N_8  and  C_9
    6  A    between atoms: N_16  and  C_17
    7  A    between atoms: C_24  and  N_26
    8  A    between atoms: C_33  and  C_34
                            x       y       z     vdW  Elec       q    Type
                         _______ _______ _______ _____ _____    ______ ____

>  <TORSDO>
F 8

$$$$
=
 OpenBabel07192307433D

 69 73  0  0  1  0  0  0  0  0999 V2000
    0.6160   11.1560   18.7740 C   0  0  0  0  0  0  0  0  0  0  0  0
   -0.1520   11.3450   19.9280 C   0  0  0  0  0  0  0  0  0  0  0  0
   -0.1910   10.3410   20.8780 C   0  0  0  0  0  0  0  0  0  0  0  0
   -0.9000   10.4160   22.0750 N   0  0  0  0  0  0  0  0  0  0  0  0
   -1.5590   11.4900   22.6090 C   0  0  0  0  0  0  0  0  0  0  0  0
   -1.6260   12.6140   22.1270 O   0  0  0  0  0  0  0  0  0  0  0  0
   -2.1490   11.1580   23.8120 N   0  0  0  0  0  0  0  0  0  0  0  0
    0.4670    9.1770   20.7270 N   0  0  0  0  0  0  0  0  0  0  0  0
    1.2150    8.9730   19.6270 C   0  0  0  0  0  0  0  0  0  0  0  0
    1.3160    9.9500   18.6380 C   0  0  0  0  0  0  0  0  0  0  0  0
   -0.7020   12.2680   20.0650 H   0  0  0  0  0  0  0  0  0  0  0  0
   -0.7640    9.5940   22.6450 H   0  0  0  0  0  0  0  0  0  0  0  0
   -2.3770   10.1820   23.9290 H   0  0  0  0  0  0  0  0  0  0  0  0
    1.9320    9.7940   17.7600 H   0  0  0  0  0  0  0  0  0  0  0  0
   -2.9740   12.1140   24.5430 C   0  0  0  0  0  0  0  0  0  0  0  0
   -4.4500   11.9620   24.1390 C   0  0  0  0  0  0  0  0  0  0  0  0
   -4.8370   12.9220   23.0200 C   0  0  0  0  0  0  0  0  0  0  0  0
   -4.6500   14.3830   23.4370 C   0  0  0  0  0  0  0  0  0  0  0  0
   -3.5450   14.5860   24.4760 C   0  0  0  0  0  0  0  0  0  0  0  0
   -2.4420   13.5450   24.3400 C   0  0  0  0  0  0  0  0  0  0  0  0
   -2.8950   11.8580   25.6080 H   0  0  0  0  0  0  0  0  0  0  0  0
   -4.6710   10.9310   23.8420 H   0  0  0  0  0  0  0  0  0  0  0  0
   -5.0820   12.1770   25.0110 H   0  0  0  0  0  0  0  0  0  0  0  0
   -5.8780   12.7560   22.7200 H   0  0  0  0  0  0  0  0  0  0  0  0
   -4.2210   12.7160   22.1360 H   0  0  0  0  0  0  0  0  0  0  0  0
   -4.4350   14.9790   22.5410 H   0  0  0  0  0  0  0  0  0  0  0  0
   -5.5910   14.7740   23.8450 H   0  0  0  0  0  0  0  0  0  0  0  0
   -3.9760   14.5240   25.4830 H   0  0  0  0  0  0  0  0  0  0  0  0
   -3.1310   15.5960   24.3770 H   0  0  0  0  0  0  0  0  0  0  0  0
   -1.9820   13.6460   23.3470 H   0  0  0  0  0  0  0  0  0  0  0  0
   -1.6450   13.7480   25.0660 H   0  0  0  0  0  0  0  0  0  0  0  0
    1.8990    7.7440   19.5040 N   0  0  0  0  0  0  0  0  0  0  0  0
    1.6920    6.6230   20.4010 C   0  0  0  0  0  0  0  0  0  0  0  0
    2.6270    5.5830   19.8730 C   0  0  0  0  0  0  0  0  0  0  0  0
    3.3030    6.0860   18.7650 C   0  0  0  0  0  0  0  0  0  0  0  0
    4.2370    5.3480   18.0630 C   0  0  0  0  0  0  0  0  0  0  0  0
    4.4920    4.0480   18.5020 C   0  0  0  0  0  0  0  0  0  0  0  0
    3.8150    3.5240   19.6200 C   0  0  0  0  0  0  0  0  0  0  0  0
    2.8670    4.2880   20.3260 C   0  0  0  0  0  0  0  0  0  0  0  0
    2.8450    7.4620   18.5190 C   0  0  0  0  0  0  0  0  0  0  0  0
    3.2850    8.1240   17.5970 O   0  0  0  0  0  0  0  0  0  0  0  0
    0.6540    6.2820   20.3340 H   0  0  0  0  0  0  0  0  0  0  0  0
    1.9640    6.9090   21.4220 H   0  0  0  0  0  0  0  0  0  0  0  0
    4.7480    5.7690   17.2030 H   0  0  0  0  0  0  0  0  0  0  0  0
    5.2200    3.4350   17.9740 H   0  0  0  0  0  0  0  0  0  0  0  0
    4.0370    2.5040   19.9340 H   0  0  0  0  0  0  0  0  0  0  0  0
    2.1290    3.7340   21.5150 C   0  0  0  0  0  0  0  0  0  0  0  0
    0.7840    3.6450   21.3370 F   0  0  0  0  0  0  0  0  0  0  0  0
    2.3160    4.4940   22.6300 F   0  0  0  0  0  0  0  0  0  0  0  0
    2.5530    2.4840   21.8460 F   0  0  0  0  0  0  0  0  0  0  0  0
    0.7000   12.2720   17.7430 C   0  0  2  0  0  0  0  0  0  0  0  0
    1.0290   11.8240   16.7950 H   0  0  0  0  0  0  0  0  0  0  0  0
    1.7620   13.3190   18.1080 C   0  0  0  0  0  0  0  0  0  0  0  0
    2.2960   13.6610   17.2160 H   0  0  0  0  0  0  0  0  0  0  0  0
    1.3020   14.1970   18.5710 H   0  0  0  0  0  0  0  0  0  0  0  0
    2.5010   12.9260   18.8120 H   0  0  0  0  0  0  0  0  0  0  0  0
   -0.6960   12.8950   17.5390 C   0  0  0  0  0  0  0  0  0  0  0  0
   -0.9570   13.5370   18.3910 H   0  0  0  0  0  0  0  0  0  0  0  0
   -0.6910   13.5540   16.6600 H   0  0  0  0  0  0  0  0  0  0  0  0
   -1.7570   11.8630   17.3640 C   0  0  0  0  0  0  0  0  0  0  0  0
   -1.7810   10.9200   16.4430 N   0  0  0  0  0  0  0  0  0  0  0  0
   -2.9190   10.1720   16.6280 N   0  0  0  0  0  0  0  0  0  0  0  0
   -3.5680   10.6780   17.6500 C   0  0  0  0  0  0  0  0  0  0  0  0
   -2.8780   11.7420   18.1440 N   0  0  0  0  0  0  0  0  0  0  0  0
   -4.5050   10.3180   18.0500 H   0  0  0  0  0  0  0  0  0  0  0  0
   -3.2660   12.5620   19.2600 C   0  0  0  0  0  0  0  0  0  0  0  0
   -3.0610   12.0170   20.1860 H   0  0  0  0  0  0  0  0  0  0  0  0
   -4.3340   12.7850   19.1970 H   0  0  0  0  0  0  0  0  0  0  0  0
   -2.6920   13.4910   19.2250 H   0  0  0  0  0  0  0  0  0  0  0  0
  1  2  1  0  0  0  0
  2 11  1  0  0  0  0
  2  3  2  0  0  0  0
  3  4  1  0  0  0  0
  4  5  1  0  0  0  0
  4 12  1  0  0  0  0
  5  7  1  0  0  0  0
  6  5  2  0  0  0  0
  7 13  1  0  0  0  0
  7 15  1  0  0  0  0
  8  3  1  0  0  0  0
  9  8  2  0  0  0  0
 10  1  2  0  0  0  0
 10  9  1  0  0  0  0
 14 10  1  0  0  0  0
 15 21  1  0  0  0  0
 16 15  1  0  0  0  0
 16 23  1  0  0  0  0
 17 18  1  0  0  0  0
 17 16  1  0  0  0  0
 18 27  1  0  0  0  0
 18 19  1  0  0  0  0
 19 28  1  0  0  0  0
 20 19  1  0  0  0  0
 20 15  1  0  0  0  0
 20 31  1  0  0  0  0
 22 16  1  0  0  0  0
 24 17  1  0  0  0  0
 25 17  1  0  0  0  0
 26 18  1  0  0  0  0
 29 19  1  0  0  0  0
 30 20  1  0  0  0  0
 32  9  1  0  0  0  0
 32 33  1  0  0  0  0
 33 43  1  0  0  0  0
 34 39  1  0  0  0  0
 34 33  1  0  0  0  0
 35 34  2  0  0  0  0
 36 37  2  0  0  0  0
 36 35  1  0  0  0  0
 37 38  1  0  0  0  0
 38 46  1  0  0  0  0
 38 39  2  0  0  0  0
 39 47  1  0  0  0  0
 40 35  1  0  0  0  0
 40 32  1  0  0  0  0
 41 40  2  0  0  0  0
 42 33  1  0  0  0  0
 44 36  1  0  0  0  0
 45 37  1  0  0  0  0
 47 50  1  0  0  0  0
 47 49  1  0  0  0  0
 48 47  1  0  0  0  0
 51 52  1  6  0  0  0
 51 53  1  0  0  0  0
 51  1  1  0  0  0  0
 53 55  1  0  0  0  0
 53 56  1  0  0  0  0
 54 53  1  0  0  0  0
 57 51  1  0  0  0  0
 57 58  1  0  0  0  0
 59 57  1  0  0  0  0
 60 57  1  0  0  0  0
 60 64  1  0  0  0  0
 61 62  1  0  0  0  0
 61 60  2  0  0  0  0
 62 63  2  0  0  0  0
 63 65  1  0  0  0  0
 63 64  1  0  0  0  0
 64 66  1  0  0  0  0
 66 67  1  0  0  0  0
 68 66  1  0  0  0  0
 69 66  1  0  0  0  0
M  END
>  <MODEL>
17

>  <REMARK>
 VINA RESULT:    -5.406      3.995     10.545
 INTER + INTRA:          -6.657
 INTER:                  -7.137
 INTRA:                   0.480
 UNBOUND:                 0.961
  Name = 
  8 active torsions:
  status: ('A' for Active; 'I' for Inactive)
    1  A    between atoms: C_1  and  C_2
    2  A    between atoms: C_2  and  C_3
    3  A    between atoms: C_2  and  C_10
    4  A    between atoms: C_3  and  C_4
    5  A    between atoms: N_8  and  C_9
    6  A    between atoms: N_16  and  C_17
    7  A    between atoms: C_24  and  N_26
    8  A    between atoms: C_33  and  C_34
                            x       y       z     vdW  Elec       q    Type
                         _______ _______ _______ _____ _____    ______ ____

>  <TORSDO>
F 8

$$$$
=
 OpenBabel07192307433D

 69 73  0  0  1  0  0  0  0  0999 V2000
   -0.2950   10.2840   17.9400 C   0  0  0  0  0  0  0  0  0  0  0  0
   -0.6830   10.7560   19.1980 C   0  0  0  0  0  0  0  0  0  0  0  0
   -0.1190   10.1910   20.3270 C   0  0  0  0  0  0  0  0  0  0  0  0
   -0.4070   10.5840   21.6330 N   0  0  0  0  0  0  0  0  0  0  0  0
   -1.1570   11.6470   22.0560 C   0  0  0  0  0  0  0  0  0  0  0  0
   -1.7060   12.4790   21.3430 O   0  0  0  0  0  0  0  0  0  0  0  0
   -1.2130   11.6940   23.4350 N   0  0  0  0  0  0  0  0  0  0  0  0
    0.7770    9.1890   20.2650 N   0  0  0  0  0  0  0  0  0  0  0  0
    1.1690    8.7210   19.0650 C   0  0  0  0  0  0  0  0  0  0  0  0
    0.6570    9.2570   17.8850 C   0  0  0  0  0  0  0  0  0  0  0  0
   -1.4140   11.5510   19.2750 H   0  0  0  0  0  0  0  0  0  0  0  0
    0.1410   10.0730   22.3090 H   0  0  0  0  0  0  0  0  0  0  0  0
   -1.0880   10.8090   23.9040 H   0  0  0  0  0  0  0  0  0  0  0  0
    0.9830    8.8930   16.9170 H   0  0  0  0  0  0  0  0  0  0  0  0
   -2.0150   12.6950   24.1290 C   0  0  0  0  0  0  0  0  0  0  0  0
   -3.4930   12.2690   24.1540 C   0  0  0  0  0  0  0  0  0  0  0  0
   -4.2780   12.8650   22.9920 C   0  0  0  0  0  0  0  0  0  0  0  0
   -4.2680   14.3950   23.0260 C   0  0  0  0  0  0  0  0  0  0  0  0
   -3.0170   14.9840   23.6830 C   0  0  0  0  0  0  0  0  0  0  0  0
   -1.8030   14.0830   23.4980 C   0  0  0  0  0  0  0  0  0  0  0  0
   -1.6620   12.7240   25.1700 H   0  0  0  0  0  0  0  0  0  0  0  0
   -3.5870   11.1770   24.1500 H   0  0  0  0  0  0  0  0  0  0  0  0
   -3.9480   12.6170   25.0920 H   0  0  0  0  0  0  0  0  0  0  0  0
   -5.3130   12.5050   23.0080 H   0  0  0  0  0  0  0  0  0  0  0  0
   -3.8420   12.5210   22.0460 H   0  0  0  0  0  0  0  0  0  0  0  0
   -4.3620   14.7700   22.0000 H   0  0  0  0  0  0  0  0  0  0  0  0
   -5.1510   14.7580   23.5660 H   0  0  0  0  0  0  0  0  0  0  0  0
   -3.2010   15.1230   24.7560 H   0  0  0  0  0  0  0  0  0  0  0  0
   -2.8210   15.9790   23.2700 H   0  0  0  0  0  0  0  0  0  0  0  0
   -1.5960   13.9880   22.4230 H   0  0  0  0  0  0  0  0  0  0  0  0
   -0.9170   14.5560   23.9380 H   0  0  0  0  0  0  0  0  0  0  0  0
    2.1160    7.6750   19.0340 N   0  0  0  0  0  0  0  0  0  0  0  0
    3.2480    7.6500   18.1280 C   0  0  0  0  0  0  0  0  0  0  0  0
    3.9340    6.3670   18.4700 C   0  0  0  0  0  0  0  0  0  0  0  0
    3.2380    5.7250   19.4900 C   0  0  0  0  0  0  0  0  0  0  0  0
    3.6380    4.5120   20.0170 C   0  0  0  0  0  0  0  0  0  0  0  0
    4.7900    3.9290   19.4890 C   0  0  0  0  0  0  0  0  0  0  0  0
    5.5070    4.5660   18.4580 C   0  0  0  0  0  0  0  0  0  0  0  0
    5.0870    5.8020   17.9310 C   0  0  0  0  0  0  0  0  0  0  0  0
    2.0780    6.5510   19.8590 C   0  0  0  0  0  0  0  0  0  0  0  0
    1.3070    6.2090   20.7370 O   0  0  0  0  0  0  0  0  0  0  0  0
    3.9010    8.5050   18.3290 H   0  0  0  0  0  0  0  0  0  0  0  0
    2.8940    7.6390   17.0930 H   0  0  0  0  0  0  0  0  0  0  0  0
    3.0720    4.0370   20.8130 H   0  0  0  0  0  0  0  0  0  0  0  0
    5.1380    2.9740   19.8800 H   0  0  0  0  0  0  0  0  0  0  0  0
    6.4050    4.0840   18.0710 H   0  0  0  0  0  0  0  0  0  0  0  0
    5.8510    6.4970   16.8370 C   0  0  0  0  0  0  0  0  0  0  0  0
    5.1060    6.7740   15.7340 F   0  0  0  0  0  0  0  0  0  0  0  0
    6.9100    5.7580   16.4040 F   0  0  0  0  0  0  0  0  0  0  0  0
    6.3740    7.6840   17.2500 F   0  0  0  0  0  0  0  0  0  0  0  0
   -0.8780   10.9280   16.6900 C   0  0  2  0  0  0  0  0  0  0  0  0
   -0.1130   10.8750   15.9020 H   0  0  0  0  0  0  0  0  0  0  0  0
   -1.1740   12.4210   16.8930 C   0  0  0  0  0  0  0  0  0  0  0  0
   -1.6080   12.8600   15.9880 H   0  0  0  0  0  0  0  0  0  0  0  0
   -1.8930   12.5690   17.7060 H   0  0  0  0  0  0  0  0  0  0  0  0
   -0.2740   12.9890   17.1440 H   0  0  0  0  0  0  0  0  0  0  0  0
   -2.1200   10.1380   16.2310 C   0  0  0  0  0  0  0  0  0  0  0  0
   -2.1990   10.1500   15.1360 H   0  0  0  0  0  0  0  0  0  0  0  0
   -2.0180    9.0800   16.5100 H   0  0  0  0  0  0  0  0  0  0  0  0
   -3.3800   10.6730   16.8170 C   0  0  0  0  0  0  0  0  0  0  0  0
   -4.0340   11.7440   16.4130 N   0  0  0  0  0  0  0  0  0  0  0  0
   -5.1470   11.8910   17.2060 N   0  0  0  0  0  0  0  0  0  0  0  0
   -5.1450   10.9130   18.0800 C   0  0  0  0  0  0  0  0  0  0  0  0
   -4.0550   10.1240   17.8770 N   0  0  0  0  0  0  0  0  0  0  0  0
   -5.8850   10.7460   18.8500 H   0  0  0  0  0  0  0  0  0  0  0  0
   -3.7000    8.9540   18.6340 C   0  0  0  0  0  0  0  0  0  0  0  0
   -2.7040    8.6240   18.3270 H   0  0  0  0  0  0  0  0  0  0  0  0
   -4.4240    8.1580   18.4390 H   0  0  0  0  0  0  0  0  0  0  0  0
   -3.7110    9.2110   19.6960 H   0  0  0  0  0  0  0  0  0  0  0  0
  1  2  1  0  0  0  0
  2 11  1  0  0  0  0
  2  3  2  0  0  0  0
  3  4  1  0  0  0  0
  4  5  1  0  0  0  0
  4 12  1  0  0  0  0
  5  7  1  0  0  0  0
  6  5  2  0  0  0  0
  7 13  1  0  0  0  0
  7 15  1  0  0  0  0
  8  3  1  0  0  0  0
  9  8  2  0  0  0  0
 10  1  2  0  0  0  0
 10  9  1  0  0  0  0
 14 10  1  0  0  0  0
 15 16  1  0  0  0  0
 15 21  1  0  0  0  0
 16 23  1  0  0  0  0
 17 24  1  0  0  0  0
 17 18  1  0  0  0  0
 17 16  1  0  0  0  0
 18 27  1  0  0  0  0
 18 19  1  0  0  0  0
 19 28  1  0  0  0  0
 20 19  1  0  0  0  0
 20 31  1  0  0  0  0
 20 15  1  0  0  0  0
 22 16  1  0  0  0  0
 25 17  1  0  0  0  0
 26 18  1  0  0  0  0
 29 19  1  0  0  0  0
 30 20  1  0  0  0  0
 32  9  1  0  0  0  0
 32 40  1  0  0  0  0
 33 42  1  0  0  0  0
 33 34  1  0  0  0  0
 33 32  1  0  0  0  0
 34 35  1  0  0  0  0
 35 40  1  0  0  0  0
 35 36  2  0  0  0  0
 36 44  1  0  0  0  0
 37 45  1  0  0  0  0
 37 36  1  0  0  0  0
 38 37  2  0  0  0  0
 39 38  1  0  0  0  0
 39 34  2  0  0  0  0
 40 41  2  0  0  0  0
 43 33  1  0  0  0  0
 46 38  1  0  0  0  0
 47 50  1  0  0  0  0
 47 39  1  0  0  0  0
 48 47  1  0  0  0  0
 49 47  1  0  0  0  0
 51 52  1  6  0  0  0
 51 53  1  0  0  0  0
 51  1  1  0  0  0  0
 53 56  1  0  0  0  0
 53 55  1  0  0  0  0
 54 53  1  0  0  0  0
 57 59  1  0  0  0  0
 57 51  1  0  0  0  0
 57 60  1  0  0  0  0
 58 57  1  0  0  0  0
 60 64  1  0  0  0  0
 61 60  2  0  0  0  0
 61 62  1  0  0  0  0
 62 63  2  0  0  0  0
 63 65  1  0  0  0  0
 64 63  1  0  0  0  0
 64 66  1  0  0  0  0
 66 69  1  0  0  0  0
 67 66  1  0  0  0  0
 68 66  1  0  0  0  0
M  END
>  <MODEL>
18

>  <REMARK>
 VINA RESULT:    -5.344      4.473     10.661
 INTER + INTRA:          -6.570
 INTER:                  -6.532
 INTRA:                  -0.038
 UNBOUND:                 0.961
  Name = 
  8 active torsions:
  status: ('A' for Active; 'I' for Inactive)
    1  A    between atoms: C_1  and  C_2
    2  A    between atoms: C_2  and  C_3
    3  A    between atoms: C_2  and  C_10
    4  A    between atoms: C_3  and  C_4
    5  A    between atoms: N_8  and  C_9
    6  A    between atoms: N_16  and  C_17
    7  A    between atoms: C_24  and  N_26
    8  A    between atoms: C_33  and  C_34
                            x       y       z     vdW  Elec       q    Type
                         _______ _______ _______ _____ _____    ______ ____

>  <TORSDO>
F 8

$$$$
