=
 OpenBabel07192307433D

 35 39  0  0  0  0  0  0  0  0999 V2000
    1.9750   10.3600   17.7650 O   0  0  0  0  0  0  0  0  0  0  0  0
    2.1390    9.2640   18.2890 C   0  0  0  0  0  0  0  0  0  0  0  0
    2.8730    8.2630   17.6710 O   0  0  0  0  0  0  0  0  0  0  0  0
    3.0710    6.9740   18.2660 C   0  0  0  0  0  0  0  0  0  0  0  0
    2.5720    6.6150   19.4760 C   0  0  0  0  0  0  0  0  0  0  0  0
    1.8340    7.6530   20.0960 C   0  0  0  0  0  0  0  0  0  0  0  0
    1.2440    7.5600   21.3210 N   0  0  0  0  0  0  0  0  0  0  0  0
    0.6100    8.7530   21.6150 C   0  0  0  0  0  0  0  0  0  0  0  0
   -0.1250    9.1270   22.7470 C   0  0  0  0  0  0  0  0  0  0  0  0
   -0.6580   10.4180   22.7760 C   0  0  0  0  0  0  0  0  0  0  0  0
   -0.4640   11.3010   21.7170 C   0  0  0  0  0  0  0  0  0  0  0  0
    0.2740   10.9150   20.5930 C   0  0  0  0  0  0  0  0  0  0  0  0
    0.8220    9.6190   20.5360 C   0  0  0  0  0  0  0  0  0  0  0  0
    1.6020    8.9070   19.5850 C   0  0  0  0  0  0  0  0  0  0  0  0
    2.8340    5.2330   20.0290 C   0  0  0  0  0  0  0  0  0  0  0  0
    3.0380    4.1750   18.9390 C   0  0  0  0  0  0  0  0  0  0  0  0
    3.9090    4.6700   17.8150 C   0  0  0  0  0  0  0  0  0  0  0  0
    4.6720    3.7660   17.0630 C   0  0  0  0  0  0  0  0  0  0  0  0
    5.4360    4.2170   15.9880 C   0  0  0  0  0  0  0  0  0  0  0  0
    5.4340    5.5690   15.6510 C   0  0  0  0  0  0  0  0  0  0  0  0
    4.6660    6.4730   16.3870 C   0  0  0  0  0  0  0  0  0  0  0  0
    3.8950    6.0380   17.4750 C   0  0  0  0  0  0  0  0  0  0  0  0
    1.2550    6.7570   21.9330 H   0  0  0  0  0  0  0  0  0  0  0  0
   -0.2810    8.4430   23.5760 H   0  0  0  0  0  0  0  0  0  0  0  0
   -1.2350   10.7390   23.6410 H   0  0  0  0  0  0  0  0  0  0  0  0
   -0.8870   12.3020   21.7610 H   0  0  0  0  0  0  0  0  0  0  0  0
    0.4220   11.6110   19.7700 H   0  0  0  0  0  0  0  0  0  0  0  0
    2.0020    4.9080   20.6650 H   0  0  0  0  0  0  0  0  0  0  0  0
    3.7240    5.2840   20.6690 H   0  0  0  0  0  0  0  0  0  0  0  0
    2.0670    3.8880   18.5160 H   0  0  0  0  0  0  0  0  0  0  0  0
    3.4730    3.2780   19.3960 H   0  0  0  0  0  0  0  0  0  0  0  0
    4.6700    2.7070   17.3070 H   0  0  0  0  0  0  0  0  0  0  0  0
    6.0300    3.5140   15.4090 H   0  0  0  0  0  0  0  0  0  0  0  0
    6.0270    5.9210   14.8110 H   0  0  0  0  0  0  0  0  0  0  0  0
    4.6790    7.5220   16.1010 H   0  0  0  0  0  0  0  0  0  0  0  0
  1  2  2  0  0  0  0
  2 14  1  0  0  0  0
  3  4  1  0  0  0  0
  3  2  1  0  0  0  0
  4  5  2  0  0  0  0
  5 15  1  0  0  0  0
  5  6  1  0  0  0  0
  6  7  1  0  0  0  0
  7  8  1  0  0  0  0
  7 23  1  0  0  0  0
  8  9  1  0  0  0  0
  9 10  2  0  0  0  0
  9 24  1  0  0  0  0
 10 25  1  0  0  0  0
 11 26  1  0  0  0  0
 11 10  1  0  0  0  0
 12 11  2  0  0  0  0
 13 12  1  0  0  0  0
 13  8  2  0  0  0  0
 14  6  2  0  0  0  0
 14 13  1  0  0  0  0
 15 28  1  0  0  0  0
 15 29  1  0  0  0  0
 16 31  1  0  0  0  0
 16 15  1  0  0  0  0
 17 16  1  0  0  0  0
 18 32  1  0  0  0  0
 18 17  2  0  0  0  0
 19 18  1  0  0  0  0
 20 19  2  0  0  0  0
 20 21  1  0  0  0  0
 21 22  2  0  0  0  0
 22 17  1  0  0  0  0
 22  4  1  0  0  0  0
 27 12  1  0  0  0  0
 30 16  1  0  0  0  0
 33 19  1  0  0  0  0
 34 20  1  0  0  0  0
 35 21  1  0  0  0  0
M  END
>  <MODEL>
1

>  <REMARK>
 VINA RESULT:    -9.053      0.000      0.000
 INTER + INTRA:          -9.053
 INTER:                  -9.053
 INTRA:                   0.000
 UNBOUND:                 0.000
  Name = 
  0 active torsions:
  status: ('A' for Active; 'I' for Inactive)
                            x       y       z     vdW  Elec       q    Type
                         _______ _______ _______ _____ _____    ______ ____

>  <TORSDO>
F 0

$$$$
=
 OpenBabel07192307433D

 35 39  0  0  0  0  0  0  0  0999 V2000
    2.4700    4.8030   20.7260 O   0  0  0  0  0  0  0  0  0  0  0  0
    2.3480    5.9080   20.2070 C   0  0  0  0  0  0  0  0  0  0  0  0
    1.5790    6.9050   20.7890 O   0  0  0  0  0  0  0  0  0  0  0  0
    1.4210    8.2010   20.1960 C   0  0  0  0  0  0  0  0  0  0  0  0
    2.0040    8.5740   19.0290 C   0  0  0  0  0  0  0  0  0  0  0  0
    2.7930    7.5470   18.4550 C   0  0  0  0  0  0  0  0  0  0  0  0
    3.4990    7.6670   17.2950 N   0  0  0  0  0  0  0  0  0  0  0  0
    4.1510    6.4770   17.0310 C   0  0  0  0  0  0  0  0  0  0  0  0
    4.9840    6.1250   15.9620 C   0  0  0  0  0  0  0  0  0  0  0  0
    5.5170    4.8330   15.9540 C   0  0  0  0  0  0  0  0  0  0  0  0
    5.2290    3.9300   16.9740 C   0  0  0  0  0  0  0  0  0  0  0  0
    4.3960    4.2950   18.0370 C   0  0  0  0  0  0  0  0  0  0  0  0
    3.8440    5.5900   18.0700 C   0  0  0  0  0  0  0  0  0  0  0  0
    2.9870    6.2850   18.9640 C   0  0  0  0  0  0  0  0  0  0  0  0
    1.7850    9.9640   18.4780 C   0  0  0  0  0  0  0  0  0  0  0  0
    0.4420   10.5740   18.8940 C   0  0  0  0  0  0  0  0  0  0  0  0
    0.1230   10.3230   20.3450 C   0  0  0  0  0  0  0  0  0  0  0  0
   -0.6890   11.2190   21.0540 C   0  0  0  0  0  0  0  0  0  0  0  0
   -1.0290   10.9590   22.3800 C   0  0  0  0  0  0  0  0  0  0  0  0
   -0.5710    9.8000   23.0010 C   0  0  0  0  0  0  0  0  0  0  0  0
    0.2260    8.8960   22.2970 C   0  0  0  0  0  0  0  0  0  0  0  0
    0.5830    9.1430   20.9640 C   0  0  0  0  0  0  0  0  0  0  0  0
    3.5500    8.4860   16.7060 H   0  0  0  0  0  0  0  0  0  0  0  0
    5.2130    6.8250   15.1650 H   0  0  0  0  0  0  0  0  0  0  0  0
    6.1680    4.5290   15.1370 H   0  0  0  0  0  0  0  0  0  0  0  0
    5.6550    2.9290   16.9480 H   0  0  0  0  0  0  0  0  0  0  0  0
    4.1770    3.5830   18.8300 H   0  0  0  0  0  0  0  0  0  0  0  0
    1.8290    9.9570   17.3830 H   0  0  0  0  0  0  0  0  0  0  0  0
    2.6070   10.6030   18.8260 H   0  0  0  0  0  0  0  0  0  0  0  0
   -0.3640   10.1410   18.2880 H   0  0  0  0  0  0  0  0  0  0  0  0
    0.4650   11.6510   18.6870 H   0  0  0  0  0  0  0  0  0  0  0  0
   -1.0640   12.1200   20.5750 H   0  0  0  0  0  0  0  0  0  0  0  0
   -1.6560   11.6580   22.9290 H   0  0  0  0  0  0  0  0  0  0  0  0
   -0.8390    9.5940   24.0350 H   0  0  0  0  0  0  0  0  0  0  0  0
    0.5670    7.9950   22.8040 H   0  0  0  0  0  0  0  0  0  0  0  0
  2  1  2  0  0  0  0
  2  3  1  0  0  0  0
  4  3  1  0  0  0  0
  4 22  1  0  0  0  0
  5  4  2  0  0  0  0
  6 14  2  0  0  0  0
  6  5  1  0  0  0  0
  7  6  1  0  0  0  0
  8  7  1  0  0  0  0
  8 13  1  0  0  0  0
  9  8  2  0  0  0  0
 10  9  1  0  0  0  0
 10 11  2  0  0  0  0
 11 12  1  0  0  0  0
 12 13  2  0  0  0  0
 12 27  1  0  0  0  0
 13 14  1  0  0  0  0
 14  2  1  0  0  0  0
 15 29  1  0  0  0  0
 15 16  1  0  0  0  0
 15  5  1  0  0  0  0
 16 17  1  0  0  0  0
 17 22  2  0  0  0  0
 17 18  1  0  0  0  0
 18 19  2  0  0  0  0
 19 33  1  0  0  0  0
 19 20  1  0  0  0  0
 20 34  1  0  0  0  0
 21 35  1  0  0  0  0
 21 20  2  0  0  0  0
 22 21  1  0  0  0  0
 23  7  1  0  0  0  0
 24  9  1  0  0  0  0
 25 10  1  0  0  0  0
 26 11  1  0  0  0  0
 28 15  1  0  0  0  0
 30 16  1  0  0  0  0
 31 16  1  0  0  0  0
 32 18  1  0  0  0  0
M  END
>  <MODEL>
2

>  <REMARK>
 VINA RESULT:    -8.428      1.756      7.117
 INTER + INTRA:          -8.428
 INTER:                  -8.428
 INTRA:                   0.000
 UNBOUND:                 0.000
  Name = 
  0 active torsions:
  status: ('A' for Active; 'I' for Inactive)
                            x       y       z     vdW  Elec       q    Type
                         _______ _______ _______ _____ _____    ______ ____

>  <TORSDO>
F 0

$$$$
=
 OpenBabel07192307433D

 35 39  0  0  0  0  0  0  0  0999 V2000
    1.8750    4.7770   20.9630 O   0  0  0  0  0  0  0  0  0  0  0  0
    1.8900    5.8870   20.4420 C   0  0  0  0  0  0  0  0  0  0  0  0
    1.1970    6.9570   20.9880 O   0  0  0  0  0  0  0  0  0  0  0  0
    1.1990    8.2610   20.3910 C   0  0  0  0  0  0  0  0  0  0  0  0
    1.8730    8.5710   19.2550 C   0  0  0  0  0  0  0  0  0  0  0  0
    2.5820    7.4690   18.7180 C   0  0  0  0  0  0  0  0  0  0  0  0
    3.3530    7.5150   17.5950 N   0  0  0  0  0  0  0  0  0  0  0  0
    3.8960    6.2660   17.3600 C   0  0  0  0  0  0  0  0  0  0  0  0
    4.7410    5.8300   16.3330 C   0  0  0  0  0  0  0  0  0  0  0  0
    5.1420    4.4910   16.3470 C   0  0  0  0  0  0  0  0  0  0  0  0
    4.7150    3.6230   17.3490 C   0  0  0  0  0  0  0  0  0  0  0  0
    3.8720    4.0720   18.3710 C   0  0  0  0  0  0  0  0  0  0  0  0
    3.4510    5.4160   18.3800 C   0  0  0  0  0  0  0  0  0  0  0  0
    2.6240    6.1950   19.2330 C   0  0  0  0  0  0  0  0  0  0  0  0
    1.8210    9.9750   18.6980 C   0  0  0  0  0  0  0  0  0  0  0  0
    0.5270   10.7170   19.0490 C   0  0  0  0  0  0  0  0  0  0  0  0
    0.1130   10.5020   20.4810 C   0  0  0  0  0  0  0  0  0  0  0  0
   -0.6390   11.4770   21.1520 C   0  0  0  0  0  0  0  0  0  0  0  0
   -1.0680   11.2550   22.4590 C   0  0  0  0  0  0  0  0  0  0  0  0
   -0.7600   10.0570   23.0990 C   0  0  0  0  0  0  0  0  0  0  0  0
   -0.0230    9.0760   22.4320 C   0  0  0  0  0  0  0  0  0  0  0  0
    0.4210    9.2840   21.1190 C   0  0  0  0  0  0  0  0  0  0  0  0
    3.5150    8.3240   17.0110 H   0  0  0  0  0  0  0  0  0  0  0  0
    5.0780    6.5010   15.5490 H   0  0  0  0  0  0  0  0  0  0  0  0
    5.7990    4.1220   15.5630 H   0  0  0  0  0  0  0  0  0  0  0  0
    5.0400    2.5850   17.3410 H   0  0  0  0  0  0  0  0  0  0  0  0
    3.5430    3.3880   19.1500 H   0  0  0  0  0  0  0  0  0  0  0  0
    1.9180    9.9610   17.6060 H   0  0  0  0  0  0  0  0  0  0  0  0
    2.6850   10.5290   19.0870 H   0  0  0  0  0  0  0  0  0  0  0  0
   -0.2870   10.3650   18.4030 H   0  0  0  0  0  0  0  0  0  0  0  0
    0.6670   11.7850   18.8450 H   0  0  0  0  0  0  0  0  0  0  0  0
   -0.8990   12.4100   20.6570 H   0  0  0  0  0  0  0  0  0  0  0  0
   -1.6490   12.0140   22.9780 H   0  0  0  0  0  0  0  0  0  0  0  0
   -1.0980    9.8820   24.1170 H   0  0  0  0  0  0  0  0  0  0  0  0
    0.2010    8.1480   22.9530 H   0  0  0  0  0  0  0  0  0  0  0  0
  2  1  2  0  0  0  0
  2  3  1  0  0  0  0
  4  3  1  0  0  0  0
  4 22  1  0  0  0  0
  5  4  2  0  0  0  0
  6 14  2  0  0  0  0
  6  5  1  0  0  0  0
  7  6  1  0  0  0  0
  8  7  1  0  0  0  0
  8 13  1  0  0  0  0
  9 10  1  0  0  0  0
  9  8  2  0  0  0  0
 10 11  2  0  0  0  0
 11 12  1  0  0  0  0
 12 13  2  0  0  0  0
 12 27  1  0  0  0  0
 13 14  1  0  0  0  0
 14  2  1  0  0  0  0
 15 16  1  0  0  0  0
 15 29  1  0  0  0  0
 15  5  1  0  0  0  0
 16 17  1  0  0  0  0
 17 22  2  0  0  0  0
 17 18  1  0  0  0  0
 18 19  2  0  0  0  0
 19 33  1  0  0  0  0
 19 20  1  0  0  0  0
 20 34  1  0  0  0  0
 21 35  1  0  0  0  0
 21 20  2  0  0  0  0
 22 21  1  0  0  0  0
 23  7  1  0  0  0  0
 24  9  1  0  0  0  0
 25 10  1  0  0  0  0
 26 11  1  0  0  0  0
 28 15  1  0  0  0  0
 30 16  1  0  0  0  0
 31 16  1  0  0  0  0
 32 18  1  0  0  0  0
M  END
>  <MODEL>
3

>  <REMARK>
 VINA RESULT:    -8.395      1.780      7.133
 INTER + INTRA:          -8.395
 INTER:                  -8.395
 INTRA:                   0.000
 UNBOUND:                 0.000
  Name = 
  0 active torsions:
  status: ('A' for Active; 'I' for Inactive)
                            x       y       z     vdW  Elec       q    Type
                         _______ _______ _______ _____ _____    ______ ____

>  <TORSDO>
F 0

$$$$
=
 OpenBabel07192307433D

 35 39  0  0  0  0  0  0  0  0999 V2000
    2.1220    9.8450   17.4240 O   0  0  0  0  0  0  0  0  0  0  0  0
    1.6580    9.5320   18.5160 C   0  0  0  0  0  0  0  0  0  0  0  0
    0.8100   10.3760   19.2170 O   0  0  0  0  0  0  0  0  0  0  0  0
    0.2630   10.0290   20.4960 C   0  0  0  0  0  0  0  0  0  0  0  0
    0.5130    8.8560   21.1320 C   0  0  0  0  0  0  0  0  0  0  0  0
    1.3720    8.0040   20.3970 C   0  0  0  0  0  0  0  0  0  0  0  0
    1.7660    6.7630   20.8000 N   0  0  0  0  0  0  0  0  0  0  0  0
    2.6000    6.2140   19.8450 C   0  0  0  0  0  0  0  0  0  0  0  0
    3.2470    4.9720   19.8210 C   0  0  0  0  0  0  0  0  0  0  0  0
    4.0390    4.6760   18.7090 C   0  0  0  0  0  0  0  0  0  0  0  0
    4.1780    5.5830   17.6620 C   0  0  0  0  0  0  0  0  0  0  0  0
    3.5250    6.8200   17.6970 C   0  0  0  0  0  0  0  0  0  0  0  0
    2.7210    7.1460   18.8070 C   0  0  0  0  0  0  0  0  0  0  0  0
    1.9340    8.2710   19.1710 C   0  0  0  0  0  0  0  0  0  0  0  0
   -0.1110    8.5730   22.4790 C   0  0  0  0  0  0  0  0  0  0  0  0
   -0.3980    9.8400   23.2910 C   0  0  0  0  0  0  0  0  0  0  0  0
   -0.9900   10.9390   22.4490 C   0  0  0  0  0  0  0  0  0  0  0  0
   -1.8270   11.9010   23.0310 C   0  0  0  0  0  0  0  0  0  0  0  0
   -2.3310   12.9500   22.2630 C   0  0  0  0  0  0  0  0  0  0  0  0
   -1.9930   13.0510   20.9160 C   0  0  0  0  0  0  0  0  0  0  0  0
   -1.1480   12.1050   20.3330 C   0  0  0  0  0  0  0  0  0  0  0  0
   -0.6360   11.0400   21.0880 C   0  0  0  0  0  0  0  0  0  0  0  0
    1.5030    6.3000   21.6590 H   0  0  0  0  0  0  0  0  0  0  0  0
    3.1430    4.2610   20.6340 H   0  0  0  0  0  0  0  0  0  0  0  0
    4.5550    3.7190   18.6600 H   0  0  0  0  0  0  0  0  0  0  0  0
    4.7990    5.3310   16.8050 H   0  0  0  0  0  0  0  0  0  0  0  0
    3.6380    7.5230   16.8750 H   0  0  0  0  0  0  0  0  0  0  0  0
    0.5410    7.9260   23.0780 H   0  0  0  0  0  0  0  0  0  0  0  0
   -1.0440    8.0180   22.3140 H   0  0  0  0  0  0  0  0  0  0  0  0
    0.5340   10.2140   23.7340 H   0  0  0  0  0  0  0  0  0  0  0  0
   -1.0720    9.5840   24.1170 H   0  0  0  0  0  0  0  0  0  0  0  0
   -2.0860   11.8410   24.0850 H   0  0  0  0  0  0  0  0  0  0  0  0
   -2.9830   13.6920   22.7170 H   0  0  0  0  0  0  0  0  0  0  0  0
   -2.3820   13.8700   20.3180 H   0  0  0  0  0  0  0  0  0  0  0  0
   -0.8960   12.2090   19.2790 H   0  0  0  0  0  0  0  0  0  0  0  0
  1  2  2  0  0  0  0
  2 14  1  0  0  0  0
  2  3  1  0  0  0  0
  3  4  1  0  0  0  0
  4 22  1  0  0  0  0
  4  5  2  0  0  0  0
  5 15  1  0  0  0  0
  6  7  1  0  0  0  0
  6  5  1  0  0  0  0
  7 23  1  0  0  0  0
  8  7  1  0  0  0  0
  9  8  1  0  0  0  0
  9 24  1  0  0  0  0
 10  9  2  0  0  0  0
 11 12  2  0  0  0  0
 11 10  1  0  0  0  0
 12 13  1  0  0  0  0
 13 14  1  0  0  0  0
 13  8  2  0  0  0  0
 14  6  2  0  0  0  0
 15 28  1  0  0  0  0
 15 16  1  0  0  0  0
 16 30  1  0  0  0  0
 16 31  1  0  0  0  0
 17 18  1  0  0  0  0
 17 16  1  0  0  0  0
 18 32  1  0  0  0  0
 19 33  1  0  0  0  0
 19 18  2  0  0  0  0
 20 19  1  0  0  0  0
 21 20  2  0  0  0  0
 21 22  1  0  0  0  0
 22 17  2  0  0  0  0
 25 10  1  0  0  0  0
 26 11  1  0  0  0  0
 27 12  1  0  0  0  0
 29 15  1  0  0  0  0
 34 20  1  0  0  0  0
 35 21  1  0  0  0  0
M  END
>  <MODEL>
4

>  <REMARK>
 VINA RESULT:    -8.109      1.191      6.947
 INTER + INTRA:          -8.109
 INTER:                  -8.109
 INTRA:                   0.000
 UNBOUND:                 0.000
  Name = 
  0 active torsions:
  status: ('A' for Active; 'I' for Inactive)
                            x       y       z     vdW  Elec       q    Type
                         _______ _______ _______ _____ _____    ______ ____

>  <TORSDO>
F 0

$$$$
=
 OpenBabel07192307433D

 35 39  0  0  0  0  0  0  0  0999 V2000
    2.1670    9.7030   17.3930 O   0  0  0  0  0  0  0  0  0  0  0  0
    1.7160    9.4010   18.4930 C   0  0  0  0  0  0  0  0  0  0  0  0
    0.8760   10.2520   19.1940 O   0  0  0  0  0  0  0  0  0  0  0  0
    0.3430    9.9190   20.4830 C   0  0  0  0  0  0  0  0  0  0  0  0
    0.6010    8.7540   21.1290 C   0  0  0  0  0  0  0  0  0  0  0  0
    1.4520    7.8940   20.3930 C   0  0  0  0  0  0  0  0  0  0  0  0
    1.8520    6.6580   20.8060 N   0  0  0  0  0  0  0  0  0  0  0  0
    2.6760    6.0990   19.8470 C   0  0  0  0  0  0  0  0  0  0  0  0
    3.3240    4.8580   19.8300 C   0  0  0  0  0  0  0  0  0  0  0  0
    4.1040    4.5490   18.7120 C   0  0  0  0  0  0  0  0  0  0  0  0
    4.2300    5.4450   17.6540 C   0  0  0  0  0  0  0  0  0  0  0  0
    3.5760    6.6810   17.6830 C   0  0  0  0  0  0  0  0  0  0  0  0
    2.7850    7.0190   18.7980 C   0  0  0  0  0  0  0  0  0  0  0  0
    2.0010    8.1480   19.1590 C   0  0  0  0  0  0  0  0  0  0  0  0
   -0.0070    8.4850   22.4860 C   0  0  0  0  0  0  0  0  0  0  0  0
   -0.2860    9.7600   23.2870 C   0  0  0  0  0  0  0  0  0  0  0  0
   -0.8880   10.8500   22.4390 C   0  0  0  0  0  0  0  0  0  0  0  0
   -1.7200   11.8170   23.0200 C   0  0  0  0  0  0  0  0  0  0  0  0
   -2.2330   12.8570   22.2470 C   0  0  0  0  0  0  0  0  0  0  0  0
   -1.9110   12.9430   20.8950 C   0  0  0  0  0  0  0  0  0  0  0  0
   -1.0720   11.9910   20.3120 C   0  0  0  0  0  0  0  0  0  0  0  0
   -0.5500   10.9360   21.0740 C   0  0  0  0  0  0  0  0  0  0  0  0
    1.5990    6.2040   21.6730 H   0  0  0  0  0  0  0  0  0  0  0  0
    3.2300    4.1550   20.6520 H   0  0  0  0  0  0  0  0  0  0  0  0
    4.6200    3.5930   18.6680 H   0  0  0  0  0  0  0  0  0  0  0  0
    4.8410    5.1840   16.7930 H   0  0  0  0  0  0  0  0  0  0  0  0
    3.6790    7.3750   16.8520 H   0  0  0  0  0  0  0  0  0  0  0  0
    0.6520    7.8450   23.0850 H   0  0  0  0  0  0  0  0  0  0  0  0
   -0.9410    7.9270   22.3370 H   0  0  0  0  0  0  0  0  0  0  0  0
    0.6510   10.1400   23.7150 H   0  0  0  0  0  0  0  0  0  0  0  0
   -0.9510    9.5130   24.1230 H   0  0  0  0  0  0  0  0  0  0  0  0
   -1.9670   11.7690   24.0780 H   0  0  0  0  0  0  0  0  0  0  0  0
   -2.8810   13.6040   22.6990 H   0  0  0  0  0  0  0  0  0  0  0  0
   -2.3080   13.7560   20.2920 H   0  0  0  0  0  0  0  0  0  0  0  0
   -0.8320   12.0840   19.2550 H   0  0  0  0  0  0  0  0  0  0  0  0
  1  2  2  0  0  0  0
  2 14  1  0  0  0  0
  2  3  1  0  0  0  0
  3  4  1  0  0  0  0
  4 22  1  0  0  0  0
  4  5  2  0  0  0  0
  5 15  1  0  0  0  0
  6  7  1  0  0  0  0
  6  5  1  0  0  0  0
  7 23  1  0  0  0  0
  8  7  1  0  0  0  0
  9  8  1  0  0  0  0
  9 24  1  0  0  0  0
 10  9  2  0  0  0  0
 11 12  2  0  0  0  0
 11 10  1  0  0  0  0
 12 13  1  0  0  0  0
 13 14  1  0  0  0  0
 13  8  2  0  0  0  0
 14  6  2  0  0  0  0
 15 28  1  0  0  0  0
 15 16  1  0  0  0  0
 16 30  1  0  0  0  0
 16 31  1  0  0  0  0
 17 18  1  0  0  0  0
 17 16  1  0  0  0  0
 18 32  1  0  0  0  0
 19 33  1  0  0  0  0
 19 18  2  0  0  0  0
 20 19  1  0  0  0  0
 21 20  2  0  0  0  0
 21 22  1  0  0  0  0
 22 17  2  0  0  0  0
 25 10  1  0  0  0  0
 26 11  1  0  0  0  0
 27 12  1  0  0  0  0
 29 15  1  0  0  0  0
 34 20  1  0  0  0  0
 35 21  1  0  0  0  0
M  END
>  <MODEL>
5

>  <REMARK>
 VINA RESULT:    -8.088      1.172      6.908
 INTER + INTRA:          -8.088
 INTER:                  -8.088
 INTRA:                   0.000
 UNBOUND:                 0.000
  Name = 
  0 active torsions:
  status: ('A' for Active; 'I' for Inactive)
                            x       y       z     vdW  Elec       q    Type
                         _______ _______ _______ _____ _____    ______ ____

>  <TORSDO>
F 0

$$$$
=
 OpenBabel07192307433D

 35 39  0  0  0  0  0  0  0  0999 V2000
   -0.0090    8.9440   22.4490 O   0  0  0  0  0  0  0  0  0  0  0  0
    0.5530    8.7770   21.3720 C   0  0  0  0  0  0  0  0  0  0  0  0
    1.2170    7.5970   21.0720 O   0  0  0  0  0  0  0  0  0  0  0  0
    1.8830    7.3840   19.8200 C   0  0  0  0  0  0  0  0  0  0  0  0
    1.9240    8.3010   18.8210 C   0  0  0  0  0  0  0  0  0  0  0  0
    1.2330    9.4950   19.1410 C   0  0  0  0  0  0  0  0  0  0  0  0
    1.1050   10.5660   18.3070 N   0  0  0  0  0  0  0  0  0  0  0  0
    0.3730   11.5530   18.9390 C   0  0  0  0  0  0  0  0  0  0  0  0
   -0.0080   12.8210   18.4840 C   0  0  0  0  0  0  0  0  0  0  0  0
   -0.7610   13.6210   19.3480 C   0  0  0  0  0  0  0  0  0  0  0  0
   -1.1190   13.1700   20.6160 C   0  0  0  0  0  0  0  0  0  0  0  0
   -0.7340   11.9000   21.0570 C   0  0  0  0  0  0  0  0  0  0  0  0
    0.0270   11.0740   20.2080 C   0  0  0  0  0  0  0  0  0  0  0  0
    0.5760    9.7680   20.3170 C   0  0  0  0  0  0  0  0  0  0  0  0
    2.6490    7.9900   17.5310 C   0  0  0  0  0  0  0  0  0  0  0  0
    3.8040    7.0000   17.7110 C   0  0  0  0  0  0  0  0  0  0  0  0
    3.4410    5.8540   18.6190 C   0  0  0  0  0  0  0  0  0  0  0  0
    4.0690    4.6100   18.4700 C   0  0  0  0  0  0  0  0  0  0  0  0
    3.7730    3.5650   19.3440 C   0  0  0  0  0  0  0  0  0  0  0  0
    2.8600    3.7600   20.3770 C   0  0  0  0  0  0  0  0  0  0  0  0
    2.2400    5.0010   20.5400 C   0  0  0  0  0  0  0  0  0  0  0  0
    2.5220    6.0610   19.6670 C   0  0  0  0  0  0  0  0  0  0  0  0
    1.4800   10.6460   17.3720 H   0  0  0  0  0  0  0  0  0  0  0  0
    0.2680   13.1790   17.4970 H   0  0  0  0  0  0  0  0  0  0  0  0
   -1.0730   14.6120   19.0240 H   0  0  0  0  0  0  0  0  0  0  0  0
   -1.7070   13.8090   21.2720 H   0  0  0  0  0  0  0  0  0  0  0  0
   -1.0180   11.5550   22.0490 H   0  0  0  0  0  0  0  0  0  0  0  0
    3.0540    8.9060   17.0860 H   0  0  0  0  0  0  0  0  0  0  0  0
    1.9190    7.5850   16.8180 H   0  0  0  0  0  0  0  0  0  0  0  0
    4.6690    7.5160   18.1440 H   0  0  0  0  0  0  0  0  0  0  0  0
    4.1050    6.6270   16.7240 H   0  0  0  0  0  0  0  0  0  0  0  0
    4.7950    4.4500   17.6770 H   0  0  0  0  0  0  0  0  0  0  0  0
    4.2590    2.6000   19.2240 H   0  0  0  0  0  0  0  0  0  0  0  0
    2.6310    2.9470   21.0620 H   0  0  0  0  0  0  0  0  0  0  0  0
    1.5340    5.1280   21.3580 H   0  0  0  0  0  0  0  0  0  0  0  0
  2  1  2  0  0  0  0
  3  2  1  0  0  0  0
  4  3  1  0  0  0  0
  5  6  1  0  0  0  0
  5  4  2  0  0  0  0
  6 14  2  0  0  0  0
  7  8  1  0  0  0  0
  7  6  1  0  0  0  0
  8 13  1  0  0  0  0
  9  8  2  0  0  0  0
  9 10  1  0  0  0  0
 10 11  2  0  0  0  0
 11 12  1  0  0  0  0
 11 26  1  0  0  0  0
 12 27  1  0  0  0  0
 13 14  1  0  0  0  0
 13 12  2  0  0  0  0
 14  2  1  0  0  0  0
 15 16  1  0  0  0  0
 15  5  1  0  0  0  0
 16 30  1  0  0  0  0
 16 17  1  0  0  0  0
 17 22  1  0  0  0  0
 18 17  2  0  0  0  0
 18 19  1  0  0  0  0
 19 20  2  0  0  0  0
 20 21  1  0  0  0  0
 20 34  1  0  0  0  0
 21 35  1  0  0  0  0
 22  4  1  0  0  0  0
 22 21  2  0  0  0  0
 23  7  1  0  0  0  0
 24  9  1  0  0  0  0
 25 10  1  0  0  0  0
 28 15  1  0  0  0  0
 29 15  1  0  0  0  0
 31 16  1  0  0  0  0
 32 18  1  0  0  0  0
 33 19  1  0  0  0  0
M  END
>  <MODEL>
6

>  <REMARK>
 VINA RESULT:    -8.025      2.124      3.534
 INTER + INTRA:          -8.025
 INTER:                  -8.025
 INTRA:                   0.000
 UNBOUND:                 0.000
  Name = 
  0 active torsions:
  status: ('A' for Active; 'I' for Inactive)
                            x       y       z     vdW  Elec       q    Type
                         _______ _______ _______ _____ _____    ______ ____

>  <TORSDO>
F 0

$$$$
=
 OpenBabel07192307433D

 35 39  0  0  0  0  0  0  0  0999 V2000
    0.1120    9.2910   23.6540 O   0  0  0  0  0  0  0  0  0  0  0  0
    0.3310    9.3360   22.4480 C   0  0  0  0  0  0  0  0  0  0  0  0
    1.0150    8.3230   21.7930 O   0  0  0  0  0  0  0  0  0  0  0  0
    1.2840    8.3600   20.3860 C   0  0  0  0  0  0  0  0  0  0  0  0
    0.8980    9.3730   19.5690 C   0  0  0  0  0  0  0  0  0  0  0  0
    0.1940   10.3920   20.2530 C   0  0  0  0  0  0  0  0  0  0  0  0
   -0.3200   11.5100   19.6650 N   0  0  0  0  0  0  0  0  0  0  0  0
   -0.9420   12.2880   20.6230 C   0  0  0  0  0  0  0  0  0  0  0  0
   -1.6020   13.5160   20.4970 C   0  0  0  0  0  0  0  0  0  0  0  0
   -2.1470   14.0810   21.6520 C   0  0  0  0  0  0  0  0  0  0  0  0
   -2.0370   13.4430   22.8850 C   0  0  0  0  0  0  0  0  0  0  0  0
   -1.3760   12.2160   22.9980 C   0  0  0  0  0  0  0  0  0  0  0  0
   -0.8160   11.6240   21.8500 C   0  0  0  0  0  0  0  0  0  0  0  0
   -0.0980   10.4250   21.5960 C   0  0  0  0  0  0  0  0  0  0  0  0
    1.2240    9.3270   18.0930 C   0  0  0  0  0  0  0  0  0  0  0  0
    2.4940    8.5300   17.7790 C   0  0  0  0  0  0  0  0  0  0  0  0
    2.5770    7.2490   18.5670 C   0  0  0  0  0  0  0  0  0  0  0  0
    3.2820    6.1500   18.0560 C   0  0  0  0  0  0  0  0  0  0  0  0
    3.4050    4.9840   18.8090 C   0  0  0  0  0  0  0  0  0  0  0  0
    2.8370    4.9120   20.0780 C   0  0  0  0  0  0  0  0  0  0  0  0
    2.1460    6.0070   20.6000 C   0  0  0  0  0  0  0  0  0  0  0  0
    2.0070    7.1860   19.8550 C   0  0  0  0  0  0  0  0  0  0  0  0
   -0.2640   11.7510   18.6850 H   0  0  0  0  0  0  0  0  0  0  0  0
   -1.6910   14.0180   19.5380 H   0  0  0  0  0  0  0  0  0  0  0  0
   -2.6670   15.0350   21.5870 H   0  0  0  0  0  0  0  0  0  0  0  0
   -2.4700   13.9010   23.7720 H   0  0  0  0  0  0  0  0  0  0  0  0
   -1.2950   11.7240   23.9650 H   0  0  0  0  0  0  0  0  0  0  0  0
    1.3520   10.3400   17.6950 H   0  0  0  0  0  0  0  0  0  0  0  0
    0.3670    8.8850   17.5680 H   0  0  0  0  0  0  0  0  0  0  0  0
    3.3780    9.1350   18.0180 H   0  0  0  0  0  0  0  0  0  0  0  0
    2.5210    8.3210   16.7030 H   0  0  0  0  0  0  0  0  0  0  0  0
    3.7420    6.2000   17.0720 H   0  0  0  0  0  0  0  0  0  0  0  0
    3.9490    4.1320   18.4080 H   0  0  0  0  0  0  0  0  0  0  0  0
    2.9360    4.0030   20.6670 H   0  0  0  0  0  0  0  0  0  0  0  0
    1.7150    5.9260   21.5960 H   0  0  0  0  0  0  0  0  0  0  0  0
  2  1  2  0  0  0  0
  3  2  1  0  0  0  0
  4  3  1  0  0  0  0
  5  6  1  0  0  0  0
  5  4  2  0  0  0  0
  6 14  2  0  0  0  0
  7  6  1  0  0  0  0
  7  8  1  0  0  0  0
  8 13  1  0  0  0  0
  9  8  2  0  0  0  0
  9 10  1  0  0  0  0
 10 11  2  0  0  0  0
 11 12  1  0  0  0  0
 11 26  1  0  0  0  0
 12 27  1  0  0  0  0
 13 12  2  0  0  0  0
 14 13  1  0  0  0  0
 14  2  1  0  0  0  0
 15  5  1  0  0  0  0
 16 30  1  0  0  0  0
 16 15  1  0  0  0  0
 16 17  1  0  0  0  0
 17 22  1  0  0  0  0
 18 17  2  0  0  0  0
 18 19  1  0  0  0  0
 19 20  2  0  0  0  0
 20 21  1  0  0  0  0
 20 34  1  0  0  0  0
 21 35  1  0  0  0  0
 22  4  1  0  0  0  0
 22 21  2  0  0  0  0
 23  7  1  0  0  0  0
 24  9  1  0  0  0  0
 25 10  1  0  0  0  0
 28 15  1  0  0  0  0
 29 15  1  0  0  0  0
 31 16  1  0  0  0  0
 32 18  1  0  0  0  0
 33 19  1  0  0  0  0
M  END
>  <MODEL>
7

>  <REMARK>
 VINA RESULT:    -7.978      2.355      4.060
 INTER + INTRA:          -7.978
 INTER:                  -7.978
 INTRA:                   0.000
 UNBOUND:                 0.000
  Name = 
  0 active torsions:
  status: ('A' for Active; 'I' for Inactive)
                            x       y       z     vdW  Elec       q    Type
                         _______ _______ _______ _____ _____    ______ ____

>  <TORSDO>
F 0

$$$$
=
 OpenBabel07192307433D

 35 39  0  0  0  0  0  0  0  0999 V2000
    3.5510    7.4100   17.1130 O   0  0  0  0  0  0  0  0  0  0  0  0
    2.8860    7.5480   18.1350 C   0  0  0  0  0  0  0  0  0  0  0  0
    2.2540    8.7450   18.4360 O   0  0  0  0  0  0  0  0  0  0  0  0
    1.4760    8.9270   19.6270 C   0  0  0  0  0  0  0  0  0  0  0  0
    1.2830    7.9580   20.5580 C   0  0  0  0  0  0  0  0  0  0  0  0
    1.9270    6.7420   20.2280 C   0  0  0  0  0  0  0  0  0  0  0  0
    1.8770    5.6070   20.9830 N   0  0  0  0  0  0  0  0  0  0  0  0
    2.6160    4.6140   20.3670 C   0  0  0  0  0  0  0  0  0  0  0  0
    2.8570    3.2940   20.7640 C   0  0  0  0  0  0  0  0  0  0  0  0
    3.6510    2.5010   19.9320 C   0  0  0  0  0  0  0  0  0  0  0  0
    4.1820    3.0080   18.7490 C   0  0  0  0  0  0  0  0  0  0  0  0
    3.9330    4.3290   18.3630 C   0  0  0  0  0  0  0  0  0  0  0  0
    3.1370    5.1510   19.1840 C   0  0  0  0  0  0  0  0  0  0  0  0
    2.6880    6.4970   19.1100 C   0  0  0  0  0  0  0  0  0  0  0  0
    0.4440    8.2380   21.7840 C   0  0  0  0  0  0  0  0  0  0  0  0
    0.4560    9.7120   22.2020 C   0  0  0  0  0  0  0  0  0  0  0  0
    0.3300   10.6430   21.0240 C   0  0  0  0  0  0  0  0  0  0  0  0
   -0.2420   11.9120   21.1860 C   0  0  0  0  0  0  0  0  0  0  0  0
   -0.3100   12.7940   20.1090 C   0  0  0  0  0  0  0  0  0  0  0  0
    0.2030   12.4200   18.8700 C   0  0  0  0  0  0  0  0  0  0  0  0
    0.7880   11.1630   18.7050 C   0  0  0  0  0  0  0  0  0  0  0  0
    0.8600   10.2600   19.7750 C   0  0  0  0  0  0  0  0  0  0  0  0
    1.3840    5.4900   21.8570 H   0  0  0  0  0  0  0  0  0  0  0  0
    2.4450    2.8920   21.6850 H   0  0  0  0  0  0  0  0  0  0  0  0
    3.8560    1.4700   20.2130 H   0  0  0  0  0  0  0  0  0  0  0  0
    4.7980    2.3730   18.1150 H   0  0  0  0  0  0  0  0  0  0  0  0
    4.3520    4.7170   17.4370 H   0  0  0  0  0  0  0  0  0  0  0  0
    0.7930    7.6410   22.6350 H   0  0  0  0  0  0  0  0  0  0  0  0
   -0.5860    7.9190   21.5730 H   0  0  0  0  0  0  0  0  0  0  0  0
    1.3970    9.9410   22.7180 H   0  0  0  0  0  0  0  0  0  0  0  0
   -0.3590    9.8820   22.9150 H   0  0  0  0  0  0  0  0  0  0  0  0
   -0.6330   12.2210   22.1530 H   0  0  0  0  0  0  0  0  0  0  0  0
   -0.7580   13.7760   20.2370 H   0  0  0  0  0  0  0  0  0  0  0  0
    0.1550   13.1090   18.0310 H   0  0  0  0  0  0  0  0  0  0  0  0
    1.1850   10.8960   17.7270 H   0  0  0  0  0  0  0  0  0  0  0  0
  1  2  2  0  0  0  0
  2  3  1  0  0  0  0
  2 14  1  0  0  0  0
  3  4  1  0  0  0  0
  4 22  1  0  0  0  0
  4  5  2  0  0  0  0
  5 15  1  0  0  0  0
  6  5  1  0  0  0  0
  6  7  1  0  0  0  0
  7 23  1  0  0  0  0
  8  9  1  0  0  0  0
  8  7  1  0  0  0  0
  9 24  1  0  0  0  0
 10 25  1  0  0  0  0
 10  9  2  0  0  0  0
 11 10  1  0  0  0  0
 12 11  2  0  0  0  0
 12 13  1  0  0  0  0
 13  8  2  0  0  0  0
 14 13  1  0  0  0  0
 14  6  2  0  0  0  0
 15 16  1  0  0  0  0
 15 28  1  0  0  0  0
 16 30  1  0  0  0  0
 16 31  1  0  0  0  0
 17 18  1  0  0  0  0
 17 16  1  0  0  0  0
 18 32  1  0  0  0  0
 19 33  1  0  0  0  0
 19 18  2  0  0  0  0
 20 19  1  0  0  0  0
 21 20  2  0  0  0  0
 21 22  1  0  0  0  0
 22 17  2  0  0  0  0
 26 11  1  0  0  0  0
 27 12  1  0  0  0  0
 29 15  1  0  0  0  0
 34 20  1  0  0  0  0
 35 21  1  0  0  0  0
M  END
>  <MODEL>
8

>  <REMARK>
 VINA RESULT:    -7.600      1.540      6.409
 INTER + INTRA:          -7.600
 INTER:                  -7.600
 INTRA:                   0.000
 UNBOUND:                 0.000
  Name = 
  0 active torsions:
  status: ('A' for Active; 'I' for Inactive)
                            x       y       z     vdW  Elec       q    Type
                         _______ _______ _______ _____ _____    ______ ____

>  <TORSDO>
F 0

$$$$
=
 OpenBabel07192307433D

 35 39  0  0  0  0  0  0  0  0999 V2000
    6.7400    6.7990   17.0280 O   0  0  0  0  0  0  0  0  0  0  0  0
    5.9600    5.8570   16.9370 C   0  0  0  0  0  0  0  0  0  0  0  0
    5.0770    5.5410   17.9590 O   0  0  0  0  0  0  0  0  0  0  0  0
    4.1610    4.4410   17.8740 C   0  0  0  0  0  0  0  0  0  0  0  0
    4.0690    3.6180   16.7990 C   0  0  0  0  0  0  0  0  0  0  0  0
    4.9700    3.9610   15.7630 C   0  0  0  0  0  0  0  0  0  0  0  0
    5.0680    3.3070   14.5710 N   0  0  0  0  0  0  0  0  0  0  0  0
    6.0470    3.9060   13.8000 C   0  0  0  0  0  0  0  0  0  0  0  0
    6.5020    3.5850   12.5150 C   0  0  0  0  0  0  0  0  0  0  0  0
    7.5170    4.3750   11.9700 C   0  0  0  0  0  0  0  0  0  0  0  0
    8.0560    5.4440   12.6820 C   0  0  0  0  0  0  0  0  0  0  0  0
    7.5920    5.7540   13.9650 C   0  0  0  0  0  0  0  0  0  0  0  0
    6.5700    4.9730   14.5380 C   0  0  0  0  0  0  0  0  0  0  0  0
    5.8740    4.9960   15.7770 C   0  0  0  0  0  0  0  0  0  0  0  0
    3.0700    2.4820   16.7950 C   0  0  0  0  0  0  0  0  0  0  0  0
    2.7490    1.9540   18.1960 C   0  0  0  0  0  0  0  0  0  0  0  0
    2.5630    3.0630   19.1980 C   0  0  0  0  0  0  0  0  0  0  0  0
    1.7380    2.8730   20.3160 C   0  0  0  0  0  0  0  0  0  0  0  0
    1.6080    3.8790   21.2710 C   0  0  0  0  0  0  0  0  0  0  0  0
    2.3090    5.0730   21.1240 C   0  0  0  0  0  0  0  0  0  0  0  0
    3.1430    5.2640   20.0210 C   0  0  0  0  0  0  0  0  0  0  0  0
    3.2820    4.2660   19.0470 C   0  0  0  0  0  0  0  0  0  0  0  0
    4.5220    2.5100   14.2770 H   0  0  0  0  0  0  0  0  0  0  0  0
    6.0850    2.7530   11.9540 H   0  0  0  0  0  0  0  0  0  0  0  0
    7.8920    4.1520   10.9740 H   0  0  0  0  0  0  0  0  0  0  0  0
    8.8460    6.0470   12.2390 H   0  0  0  0  0  0  0  0  0  0  0  0
    8.0180    6.5910   14.5140 H   0  0  0  0  0  0  0  0  0  0  0  0
    3.4420    1.6440   16.1930 H   0  0  0  0  0  0  0  0  0  0  0  0
    2.1510    2.8380   16.3110 H   0  0  0  0  0  0  0  0  0  0  0  0
    3.5690    1.3130   18.5460 H   0  0  0  0  0  0  0  0  0  0  0  0
    1.8480    1.3320   18.1400 H   0  0  0  0  0  0  0  0  0  0  0  0
    1.1970    1.9390   20.4490 H   0  0  0  0  0  0  0  0  0  0  0  0
    0.9650    3.7300   22.1350 H   0  0  0  0  0  0  0  0  0  0  0  0
    2.2110    5.8570   21.8710 H   0  0  0  0  0  0  0  0  0  0  0  0
    3.6830    6.2050   19.9310 H   0  0  0  0  0  0  0  0  0  0  0  0
  2  1  2  0  0  0  0
  2  3  1  0  0  0  0
  4  3  1  0  0  0  0
  4 22  1  0  0  0  0
  5  4  2  0  0  0  0
  6 14  2  0  0  0  0
  6  5  1  0  0  0  0
  7  6  1  0  0  0  0
  8 13  1  0  0  0  0
  8  7  1  0  0  0  0
  9  8  2  0  0  0  0
 10  9  1  0  0  0  0
 10 11  2  0  0  0  0
 11 12  1  0  0  0  0
 12 27  1  0  0  0  0
 12 13  2  0  0  0  0
 13 14  1  0  0  0  0
 14  2  1  0  0  0  0
 15  5  1  0  0  0  0
 15 16  1  0  0  0  0
 16 30  1  0  0  0  0
 16 17  1  0  0  0  0
 17 18  1  0  0  0  0
 18 32  1  0  0  0  0
 18 19  2  0  0  0  0
 19 33  1  0  0  0  0
 20 19  1  0  0  0  0
 20 34  1  0  0  0  0
 21 20  2  0  0  0  0
 22 17  2  0  0  0  0
 22 21  1  0  0  0  0
 23  7  1  0  0  0  0
 24  9  1  0  0  0  0
 25 10  1  0  0  0  0
 26 11  1  0  0  0  0
 28 15  1  0  0  0  0
 29 15  1  0  0  0  0
 31 16  1  0  0  0  0
 35 21  1  0  0  0  0
M  END
>  <MODEL>
9

>  <REMARK>
 VINA RESULT:    -7.439      4.114      7.814
 INTER + INTRA:          -7.439
 INTER:                  -7.439
 INTRA:                   0.000
 UNBOUND:                 0.000
  Name = 
  0 active torsions:
  status: ('A' for Active; 'I' for Inactive)
                            x       y       z     vdW  Elec       q    Type
                         _______ _______ _______ _____ _____    ______ ____

>  <TORSDO>
F 0

$$$$
=
 OpenBabel07192307433D

 35 39  0  0  0  0  0  0  0  0999 V2000
   -0.9180   12.4270   18.1220 O   0  0  0  0  0  0  0  0  0  0  0  0
   -0.5360   11.6130   18.9570 C   0  0  0  0  0  0  0  0  0  0  0  0
    0.3350   10.5860   18.6270 O   0  0  0  0  0  0  0  0  0  0  0  0
    0.7890    9.6230   19.5870 C   0  0  0  0  0  0  0  0  0  0  0  0
    0.4190    9.6260   20.8930 C   0  0  0  0  0  0  0  0  0  0  0  0
   -0.4630   10.6860   21.2120 C   0  0  0  0  0  0  0  0  0  0  0  0
   -0.9690   10.9270   22.4550 N   0  0  0  0  0  0  0  0  0  0  0  0
   -1.7920   12.0370   22.4070 C   0  0  0  0  0  0  0  0  0  0  0  0
   -2.5280   12.6560   23.4240 C   0  0  0  0  0  0  0  0  0  0  0  0
   -3.2820   13.7830   23.0850 C   0  0  0  0  0  0  0  0  0  0  0  0
   -3.2980   14.2710   21.7810 C   0  0  0  0  0  0  0  0  0  0  0  0
   -2.5570   13.6440   20.7740 C   0  0  0  0  0  0  0  0  0  0  0  0
   -1.7890   12.5060   21.0880 C   0  0  0  0  0  0  0  0  0  0  0  0
   -0.9390   11.6410   20.3460 C   0  0  0  0  0  0  0  0  0  0  0  0
    0.9500    8.5700   21.8360 C   0  0  0  0  0  0  0  0  0  0  0  0
    1.2880    7.2500   21.1380 C   0  0  0  0  0  0  0  0  0  0  0  0
    2.0040    7.4600   19.8290 C   0  0  0  0  0  0  0  0  0  0  0  0
    2.8800    6.4820   19.3380 C   0  0  0  0  0  0  0  0  0  0  0  0
    3.5000    6.6520   18.1020 C   0  0  0  0  0  0  0  0  0  0  0  0
    3.2400    7.7910   17.3440 C   0  0  0  0  0  0  0  0  0  0  0  0
    2.3580    8.7630   17.8190 C   0  0  0  0  0  0  0  0  0  0  0  0
    1.7290    8.6110   19.0630 C   0  0  0  0  0  0  0  0  0  0  0  0
   -0.7860   10.3910   23.2910 H   0  0  0  0  0  0  0  0  0  0  0  0
   -2.5200   12.2800   24.4430 H   0  0  0  0  0  0  0  0  0  0  0  0
   -3.8650   14.2870   23.8530 H   0  0  0  0  0  0  0  0  0  0  0  0
   -3.8910   15.1510   21.5390 H   0  0  0  0  0  0  0  0  0  0  0  0
   -2.5740   14.0330   19.7590 H   0  0  0  0  0  0  0  0  0  0  0  0
    0.2200    8.3590   22.6270 H   0  0  0  0  0  0  0  0  0  0  0  0
    1.8450    8.9720   22.3280 H   0  0  0  0  0  0  0  0  0  0  0  0
    0.3650    6.6920   20.9350 H   0  0  0  0  0  0  0  0  0  0  0  0
    1.8980    6.6400   21.8150 H   0  0  0  0  0  0  0  0  0  0  0  0
    3.0790    5.5820   19.9140 H   0  0  0  0  0  0  0  0  0  0  0  0
    4.1810    5.8930   17.7260 H   0  0  0  0  0  0  0  0  0  0  0  0
    3.7200    7.9220   16.3770 H   0  0  0  0  0  0  0  0  0  0  0  0
    2.1690    9.6410   17.2060 H   0  0  0  0  0  0  0  0  0  0  0  0
  1  2  2  0  0  0  0
  2 14  1  0  0  0  0
  3  2  1  0  0  0  0
  3  4  1  0  0  0  0
  4  5  2  0  0  0  0
  5  6  1  0  0  0  0
  5 15  1  0  0  0  0
  6  7  1  0  0  0  0
  7 23  1  0  0  0  0
  8  7  1  0  0  0  0
  8  9  1  0  0  0  0
  9 24  1  0  0  0  0
 10  9  2  0  0  0  0
 10 25  1  0  0  0  0
 11 10  1  0  0  0  0
 12 13  1  0  0  0  0
 12 11  2  0  0  0  0
 13  8  2  0  0  0  0
 14 13  1  0  0  0  0
 14  6  2  0  0  0  0
 15 29  1  0  0  0  0
 15 28  1  0  0  0  0
 16 31  1  0  0  0  0
 16 15  1  0  0  0  0
 17 16  1  0  0  0  0
 18 17  1  0  0  0  0
 18 32  1  0  0  0  0
 19 18  2  0  0  0  0
 20 21  2  0  0  0  0
 20 19  1  0  0  0  0
 21 22  1  0  0  0  0
 22  4  1  0  0  0  0
 22 17  2  0  0  0  0
 26 11  1  0  0  0  0
 27 12  1  0  0  0  0
 30 16  1  0  0  0  0
 33 19  1  0  0  0  0
 34 20  1  0  0  0  0
 35 21  1  0  0  0  0
M  END
>  <MODEL>
10

>  <REMARK>
 VINA RESULT:    -7.122      2.186      3.919
 INTER + INTRA:          -7.122
 INTER:                  -7.122
 INTRA:                   0.000
 UNBOUND:                 0.000
  Name = 
  0 active torsions:
  status: ('A' for Active; 'I' for Inactive)
                            x       y       z     vdW  Elec       q    Type
                         _______ _______ _______ _____ _____    ______ ____

>  <TORSDO>
F 0

$$$$
=
 OpenBabel07192307433D

 35 39  0  0  0  0  0  0  0  0999 V2000
    0.1530    9.2640   23.4550 O   0  0  0  0  0  0  0  0  0  0  0  0
   -0.3460   10.0450   22.6510 C   0  0  0  0  0  0  0  0  0  0  0  0
   -1.2310   11.0350   23.0500 O   0  0  0  0  0  0  0  0  0  0  0  0
   -1.8270   11.9540   22.1240 C   0  0  0  0  0  0  0  0  0  0  0  0
   -1.5830   11.9460   20.7890 C   0  0  0  0  0  0  0  0  0  0  0  0
   -0.6700   10.9360   20.4030 C   0  0  0  0  0  0  0  0  0  0  0  0
   -0.2410   10.7240   19.1270 N   0  0  0  0  0  0  0  0  0  0  0  0
    0.6420    9.6600   19.1110 C   0  0  0  0  0  0  0  0  0  0  0  0
    1.3320    9.0790   18.0400 C   0  0  0  0  0  0  0  0  0  0  0  0
    2.1740    8.0000   18.3200 C   0  0  0  0  0  0  0  0  0  0  0  0
    2.3210    7.5210   19.6200 C   0  0  0  0  0  0  0  0  0  0  0  0
    1.6280    8.1120   20.6810 C   0  0  0  0  0  0  0  0  0  0  0  0
    0.7710    9.2010   20.4270 C   0  0  0  0  0  0  0  0  0  0  0  0
   -0.0630   10.0220   21.2320 C   0  0  0  0  0  0  0  0  0  0  0  0
   -2.2550   12.9560   19.8870 C   0  0  0  0  0  0  0  0  0  0  0  0
   -3.6120   13.4300   20.4150 C   0  0  0  0  0  0  0  0  0  0  0  0
   -3.5870   13.7030   21.8960 C   0  0  0  0  0  0  0  0  0  0  0  0
   -4.4640   14.6430   22.4550 C   0  0  0  0  0  0  0  0  0  0  0  0
   -4.4790   14.8570   23.8320 C   0  0  0  0  0  0  0  0  0  0  0  0
   -3.6300   14.1260   24.6590 C   0  0  0  0  0  0  0  0  0  0  0  0
   -2.7640   13.1780   24.1110 C   0  0  0  0  0  0  0  0  0  0  0  0
   -2.7310   12.9530   22.7280 C   0  0  0  0  0  0  0  0  0  0  0  0
   -0.5130   11.2490   18.3070 H   0  0  0  0  0  0  0  0  0  0  0  0
    1.2210    9.4470   17.0240 H   0  0  0  0  0  0  0  0  0  0  0  0
    2.7240    7.5260   17.5100 H   0  0  0  0  0  0  0  0  0  0  0  0
    2.9830    6.6800   19.8160 H   0  0  0  0  0  0  0  0  0  0  0  0
    1.7490    7.7330   21.6930 H   0  0  0  0  0  0  0  0  0  0  0  0
   -2.4080   12.5360   18.8860 H   0  0  0  0  0  0  0  0  0  0  0  0
   -1.5800   13.8140   19.7720 H   0  0  0  0  0  0  0  0  0  0  0  0
   -4.3720   12.6620   20.2230 H   0  0  0  0  0  0  0  0  0  0  0  0
   -3.9100   14.3300   19.8640 H   0  0  0  0  0  0  0  0  0  0  0  0
   -5.1430   15.2090   21.8210 H   0  0  0  0  0  0  0  0  0  0  0  0
   -5.1580   15.5890   24.2620 H   0  0  0  0  0  0  0  0  0  0  0  0
   -3.6440   14.2890   25.7340 H   0  0  0  0  0  0  0  0  0  0  0  0
   -2.1130   12.6180   24.7800 H   0  0  0  0  0  0  0  0  0  0  0  0
  2  3  1  0  0  0  0
  2  1  2  0  0  0  0
  4 22  1  0  0  0  0
  4  3  1  0  0  0  0
  5  4  2  0  0  0  0
  6  5  1  0  0  0  0
  6 14  2  0  0  0  0
  7  6  1  0  0  0  0
  8  7  1  0  0  0  0
  8 13  1  0  0  0  0
  9 10  1  0  0  0  0
  9  8  2  0  0  0  0
 10 11  2  0  0  0  0
 11 26  1  0  0  0  0
 11 12  1  0  0  0  0
 12 27  1  0  0  0  0
 13 12  2  0  0  0  0
 13 14  1  0  0  0  0
 14  2  1  0  0  0  0
 15 16  1  0  0  0  0
 15  5  1  0  0  0  0
 16 17  1  0  0  0  0
 17 18  2  0  0  0  0
 17 22  1  0  0  0  0
 18 19  1  0  0  0  0
 19 33  1  0  0  0  0
 19 20  2  0  0  0  0
 20 34  1  0  0  0  0
 21 20  1  0  0  0  0
 21 35  1  0  0  0  0
 22 21  2  0  0  0  0
 23  7  1  0  0  0  0
 24  9  1  0  0  0  0
 25 10  1  0  0  0  0
 28 15  1  0  0  0  0
 29 15  1  0  0  0  0
 30 16  1  0  0  0  0
 31 16  1  0  0  0  0
 32 18  1  0  0  0  0
M  END
>  <MODEL>
11

>  <REMARK>
 VINA RESULT:    -6.898      3.413      8.947
 INTER + INTRA:          -6.898
 INTER:                  -6.898
 INTRA:                   0.000
 UNBOUND:                 0.000
  Name = 
  0 active torsions:
  status: ('A' for Active; 'I' for Inactive)
                            x       y       z     vdW  Elec       q    Type
                         _______ _______ _______ _____ _____    ______ ____

>  <TORSDO>
F 0

$$$$
=
 OpenBabel07192307433D

 35 39  0  0  0  0  0  0  0  0999 V2000
   -0.1620   10.9960   19.8930 O   0  0  0  0  0  0  0  0  0  0  0  0
   -1.1950   11.6210   20.1130 C   0  0  0  0  0  0  0  0  0  0  0  0
   -1.3650   12.3630   21.2710 O   0  0  0  0  0  0  0  0  0  0  0  0
   -2.5660   13.0950   21.5480 C   0  0  0  0  0  0  0  0  0  0  0  0
   -3.6360   13.1350   20.7130 C   0  0  0  0  0  0  0  0  0  0  0  0
   -3.4410   12.3790   19.5330 C   0  0  0  0  0  0  0  0  0  0  0  0
   -4.3500   12.2670   18.5230 N   0  0  0  0  0  0  0  0  0  0  0  0
   -3.8340   11.4560   17.5300 C   0  0  0  0  0  0  0  0  0  0  0  0
   -4.3980   11.0530   16.3130 C   0  0  0  0  0  0  0  0  0  0  0  0
   -3.6360   10.2200   15.4900 C   0  0  0  0  0  0  0  0  0  0  0  0
   -2.3610    9.8070   15.8670 C   0  0  0  0  0  0  0  0  0  0  0  0
   -1.8090   10.2180   17.0850 C   0  0  0  0  0  0  0  0  0  0  0  0
   -2.5550   11.0570   17.9350 C   0  0  0  0  0  0  0  0  0  0  0  0
   -2.3210   11.6540   19.2030 C   0  0  0  0  0  0  0  0  0  0  0  0
   -4.8620   13.9370   21.0860 C   0  0  0  0  0  0  0  0  0  0  0  0
   -5.0650   14.0640   22.5990 C   0  0  0  0  0  0  0  0  0  0  0  0
   -3.7780   14.3510   23.3280 C   0  0  0  0  0  0  0  0  0  0  0  0
   -3.7960   15.0490   24.5430 C   0  0  0  0  0  0  0  0  0  0  0  0
   -2.6110   15.2670   25.2440 C   0  0  0  0  0  0  0  0  0  0  0  0
   -1.4070   14.7790   24.7440 C   0  0  0  0  0  0  0  0  0  0  0  0
   -1.3830   14.0700   23.5420 C   0  0  0  0  0  0  0  0  0  0  0  0
   -2.5640   13.8460   22.8200 C   0  0  0  0  0  0  0  0  0  0  0  0
   -5.2620   12.6990   18.4870 H   0  0  0  0  0  0  0  0  0  0  0  0
   -5.3920   11.3710   16.0130 H   0  0  0  0  0  0  0  0  0  0  0  0
   -4.0460    9.8890   14.5380 H   0  0  0  0  0  0  0  0  0  0  0  0
   -1.7850    9.1590   15.2110 H   0  0  0  0  0  0  0  0  0  0  0  0
   -0.8110    9.8920   17.3720 H   0  0  0  0  0  0  0  0  0  0  0  0
   -5.7640   13.4820   20.6600 H   0  0  0  0  0  0  0  0  0  0  0  0
   -4.7670   14.9340   20.6380 H   0  0  0  0  0  0  0  0  0  0  0  0
   -5.4800   13.1290   22.9960 H   0  0  0  0  0  0  0  0  0  0  0  0
   -5.7990   14.8560   22.7900 H   0  0  0  0  0  0  0  0  0  0  0  0
   -4.7320   15.4220   24.9510 H   0  0  0  0  0  0  0  0  0  0  0  0
   -2.6280   15.8120   26.1850 H   0  0  0  0  0  0  0  0  0  0  0  0
   -0.4830   14.9450   25.2930 H   0  0  0  0  0  0  0  0  0  0  0  0
   -0.4290   13.6950   23.1750 H   0  0  0  0  0  0  0  0  0  0  0  0
  1  2  2  0  0  0  0
  2  3  1  0  0  0  0
  3  4  1  0  0  0  0
  4 22  1  0  0  0  0
  5 15  1  0  0  0  0
  5  4  2  0  0  0  0
  6  5  1  0  0  0  0
  7  6  1  0  0  0  0
  8 13  1  0  0  0  0
  8  7  1  0  0  0  0
  9  8  2  0  0  0  0
 10 11  2  0  0  0  0
 10  9  1  0  0  0  0
 11 12  1  0  0  0  0
 12 27  1  0  0  0  0
 12 13  2  0  0  0  0
 13 14  1  0  0  0  0
 14  6  2  0  0  0  0
 14  2  1  0  0  0  0
 15 16  1  0  0  0  0
 16 31  1  0  0  0  0
 16 30  1  0  0  0  0
 16 17  1  0  0  0  0
 17 18  1  0  0  0  0
 18 32  1  0  0  0  0
 18 19  2  0  0  0  0
 19 33  1  0  0  0  0
 20 19  1  0  0  0  0
 20 34  1  0  0  0  0
 21 20  2  0  0  0  0
 22 17  2  0  0  0  0
 22 21  1  0  0  0  0
 23  7  1  0  0  0  0
 24  9  1  0  0  0  0
 25 10  1  0  0  0  0
 26 11  1  0  0  0  0
 28 15  1  0  0  0  0
 29 15  1  0  0  0  0
 35 21  1  0  0  0  0
M  END
>  <MODEL>
12

>  <REMARK>
 VINA RESULT:    -6.706      6.083      9.853
 INTER + INTRA:          -6.706
 INTER:                  -6.706
 INTRA:                   0.000
 UNBOUND:                 0.000
  Name = 
  0 active torsions:
  status: ('A' for Active; 'I' for Inactive)
                            x       y       z     vdW  Elec       q    Type
                         _______ _______ _______ _____ _____    ______ ____

>  <TORSDO>
F 0

$$$$
=
 OpenBabel07192307433D

 35 39  0  0  0  0  0  0  0  0999 V2000
    1.9150    4.9340   21.1440 O   0  0  0  0  0  0  0  0  0  0  0  0
    2.3020    5.5750   20.1720 C   0  0  0  0  0  0  0  0  0  0  0  0
    3.1160    5.0090   19.2020 O   0  0  0  0  0  0  0  0  0  0  0  0
    3.5810    5.7440   18.0630 C   0  0  0  0  0  0  0  0  0  0  0  0
    3.2710    7.0440   17.8240 C   0  0  0  0  0  0  0  0  0  0  0  0
    2.4320    7.6010   18.8180 C   0  0  0  0  0  0  0  0  0  0  0  0
    1.9600    8.8800   18.8090 N   0  0  0  0  0  0  0  0  0  0  0  0
    1.1740    9.0870   19.9270 C   0  0  0  0  0  0  0  0  0  0  0  0
    0.4860   10.2320   20.3440 C   0  0  0  0  0  0  0  0  0  0  0  0
   -0.2430   10.1540   21.5340 C   0  0  0  0  0  0  0  0  0  0  0  0
   -0.2820    8.9760   22.2770 C   0  0  0  0  0  0  0  0  0  0  0  0
    0.4100    7.8390   21.8480 C   0  0  0  0  0  0  0  0  0  0  0  0
    1.1530    7.8900   20.6530 C   0  0  0  0  0  0  0  0  0  0  0  0
    1.9510    6.9600   19.9350 C   0  0  0  0  0  0  0  0  0  0  0  0
    3.8050    7.7400   16.5920 C   0  0  0  0  0  0  0  0  0  0  0  0
    5.1400    7.1670   16.1060 C   0  0  0  0  0  0  0  0  0  0  0  0
    5.1660    5.6620   16.1410 C   0  0  0  0  0  0  0  0  0  0  0  0
    5.9840    4.9490   15.2530 C   0  0  0  0  0  0  0  0  0  0  0  0
    6.0490    3.5590   15.3220 C   0  0  0  0  0  0  0  0  0  0  0  0
    5.3100    2.8740   16.2830 C   0  0  0  0  0  0  0  0  0  0  0  0
    4.5050    3.5780   17.1800 C   0  0  0  0  0  0  0  0  0  0  0  0
    4.4220    4.9760   17.1230 C   0  0  0  0  0  0  0  0  0  0  0  0
    2.1430    9.5810   18.1050 H   0  0  0  0  0  0  0  0  0  0  0  0
    0.5120   11.1530   19.7700 H   0  0  0  0  0  0  0  0  0  0  0  0
   -0.7890   11.0270   21.8850 H   0  0  0  0  0  0  0  0  0  0  0  0
   -0.8560    8.9370   23.2000 H   0  0  0  0  0  0  0  0  0  0  0  0
    0.3730    6.9230   22.4340 H   0  0  0  0  0  0  0  0  0  0  0  0
    3.9440    8.8100   16.7840 H   0  0  0  0  0  0  0  0  0  0  0  0
    3.0520    7.6540   15.7980 H   0  0  0  0  0  0  0  0  0  0  0  0
    5.9540    7.5370   16.7430 H   0  0  0  0  0  0  0  0  0  0  0  0
    5.3300    7.5310   15.0890 H   0  0  0  0  0  0  0  0  0  0  0  0
    6.5770    5.4740   14.5080 H   0  0  0  0  0  0  0  0  0  0  0  0
    6.6810    3.0080   14.6300 H   0  0  0  0  0  0  0  0  0  0  0  0
    5.3640    1.7890   16.3400 H   0  0  0  0  0  0  0  0  0  0  0  0
    3.9400    3.0190   17.9240 H   0  0  0  0  0  0  0  0  0  0  0  0
  2  1  2  0  0  0  0
  3  2  1  0  0  0  0
  4  3  1  0  0  0  0
  5  4  2  0  0  0  0
  5  6  1  0  0  0  0
  6 14  2  0  0  0  0
  7  6  1  0  0  0  0
  7  8  1  0  0  0  0
  8  9  2  0  0  0  0
  8 13  1  0  0  0  0
  9 10  1  0  0  0  0
 10 25  1  0  0  0  0
 10 11  2  0  0  0  0
 11 26  1  0  0  0  0
 12 11  1  0  0  0  0
 12 27  1  0  0  0  0
 13 12  2  0  0  0  0
 14  2  1  0  0  0  0
 14 13  1  0  0  0  0
 15 28  1  0  0  0  0
 15  5  1  0  0  0  0
 16 17  1  0  0  0  0
 16 15  1  0  0  0  0
 16 30  1  0  0  0  0
 17 22  1  0  0  0  0
 18 19  1  0  0  0  0
 18 17  2  0  0  0  0
 19 20  2  0  0  0  0
 20 34  1  0  0  0  0
 20 21  1  0  0  0  0
 21 35  1  0  0  0  0
 22 21  2  0  0  0  0
 22  4  1  0  0  0  0
 23  7  1  0  0  0  0
 24  9  1  0  0  0  0
 29 15  1  0  0  0  0
 31 16  1  0  0  0  0
 32 18  1  0  0  0  0
 33 19  1  0  0  0  0
M  END
>  <MODEL>
13

>  <REMARK>
 VINA RESULT:    -6.446      1.806      2.976
 INTER + INTRA:          -6.446
 INTER:                  -6.446
 INTRA:                   0.000
 UNBOUND:                 0.000
  Name = 
  0 active torsions:
  status: ('A' for Active; 'I' for Inactive)
                            x       y       z     vdW  Elec       q    Type
                         _______ _______ _______ _____ _____    ______ ____

>  <TORSDO>
F 0

$$$$
=
 OpenBabel07192307433D

 35 39  0  0  0  0  0  0  0  0999 V2000
    0.0840   12.5720   21.4330 O   0  0  0  0  0  0  0  0  0  0  0  0
   -1.0620   12.5510   20.9960 C   0  0  0  0  0  0  0  0  0  0  0  0
   -1.3720   11.9340   19.7940 O   0  0  0  0  0  0  0  0  0  0  0  0
   -2.7050   11.9030   19.2650 C   0  0  0  0  0  0  0  0  0  0  0  0
   -3.7750   12.4630   19.8830 C   0  0  0  0  0  0  0  0  0  0  0  0
   -3.4410   13.0800   21.1120 C   0  0  0  0  0  0  0  0  0  0  0  0
   -4.3320   13.6990   21.9380 N   0  0  0  0  0  0  0  0  0  0  0  0
   -3.6660   14.1890   23.0460 C   0  0  0  0  0  0  0  0  0  0  0  0
   -4.1560   14.8930   24.1520 C   0  0  0  0  0  0  0  0  0  0  0  0
   -3.2410   15.2670   25.1400 C   0  0  0  0  0  0  0  0  0  0  0  0
   -1.8900   14.9480   25.0260 C   0  0  0  0  0  0  0  0  0  0  0  0
   -1.4140   14.2430   23.9170 C   0  0  0  0  0  0  0  0  0  0  0  0
   -2.3140   13.8550   22.9050 C   0  0  0  0  0  0  0  0  0  0  0  0
   -2.1900   13.1500   21.6770 C   0  0  0  0  0  0  0  0  0  0  0  0
   -5.1470   12.3800   19.2520 C   0  0  0  0  0  0  0  0  0  0  0  0
   -5.1050   12.2870   17.7230 C   0  0  0  0  0  0  0  0  0  0  0  0
   -4.0380   11.3420   17.2360 C   0  0  0  0  0  0  0  0  0  0  0  0
   -4.1870   10.6820   16.0090 C   0  0  0  0  0  0  0  0  0  0  0  0
   -3.1760    9.8500   15.5310 C   0  0  0  0  0  0  0  0  0  0  0  0
   -2.0070    9.6820   16.2690 C   0  0  0  0  0  0  0  0  0  0  0  0
   -1.8450   10.3480   17.4860 C   0  0  0  0  0  0  0  0  0  0  0  0
   -2.8530   11.1850   17.9840 C   0  0  0  0  0  0  0  0  0  0  0  0
   -5.3260   13.7960   21.7830 H   0  0  0  0  0  0  0  0  0  0  0  0
   -5.2080   15.1450   24.2460 H   0  0  0  0  0  0  0  0  0  0  0  0
   -3.5910   15.8150   26.0120 H   0  0  0  0  0  0  0  0  0  0  0  0
   -1.1950   15.2480   25.8080 H   0  0  0  0  0  0  0  0  0  0  0  0
   -0.3570   13.9970   23.8360 H   0  0  0  0  0  0  0  0  0  0  0  0
   -5.7490   13.2560   19.5220 H   0  0  0  0  0  0  0  0  0  0  0  0
   -5.6600   11.5020   19.6650 H   0  0  0  0  0  0  0  0  0  0  0  0
   -4.9020   13.2780   17.2980 H   0  0  0  0  0  0  0  0  0  0  0  0
   -6.0910   11.9710   17.3630 H   0  0  0  0  0  0  0  0  0  0  0  0
   -5.0890   10.8160   15.4170 H   0  0  0  0  0  0  0  0  0  0  0  0
   -3.2970    9.3360   14.5810 H   0  0  0  0  0  0  0  0  0  0  0  0
   -1.2160    9.0360   15.8960 H   0  0  0  0  0  0  0  0  0  0  0  0
   -0.9200   10.2030   18.0410 H   0  0  0  0  0  0  0  0  0  0  0  0
  2  1  2  0  0  0  0
  2 14  1  0  0  0  0
  3  2  1  0  0  0  0
  4  3  1  0  0  0  0
  4  5  2  0  0  0  0
  5  6  1  0  0  0  0
  6 14  2  0  0  0  0
  6  7  1  0  0  0  0
  7  8  1  0  0  0  0
  8  9  1  0  0  0  0
  9 24  1  0  0  0  0
  9 10  2  0  0  0  0
 10 25  1  0  0  0  0
 11 10  1  0  0  0  0
 11 26  1  0  0  0  0
 12 11  2  0  0  0  0
 13  8  2  0  0  0  0
 13 12  1  0  0  0  0
 14 13  1  0  0  0  0
 15 28  1  0  0  0  0
 15 29  1  0  0  0  0
 15  5  1  0  0  0  0
 16 15  1  0  0  0  0
 17 16  1  0  0  0  0
 17 22  1  0  0  0  0
 18 17  2  0  0  0  0
 19 18  1  0  0  0  0
 19 20  2  0  0  0  0
 20 21  1  0  0  0  0
 21 22  2  0  0  0  0
 21 35  1  0  0  0  0
 22  4  1  0  0  0  0
 23  7  1  0  0  0  0
 27 12  1  0  0  0  0
 30 16  1  0  0  0  0
 31 16  1  0  0  0  0
 32 18  1  0  0  0  0
 33 19  1  0  0  0  0
 34 20  1  0  0  0  0
M  END
>  <MODEL>
14

>  <REMARK>
 VINA RESULT:    -6.359      6.192      7.976
 INTER + INTRA:          -6.359
 INTER:                  -6.359
 INTRA:                   0.000
 UNBOUND:                 0.000
  Name = 
  0 active torsions:
  status: ('A' for Active; 'I' for Inactive)
                            x       y       z     vdW  Elec       q    Type
                         _______ _______ _______ _____ _____    ______ ____

>  <TORSDO>
F 0

$$$$
=
 OpenBabel07192307433D

 35 39  0  0  0  0  0  0  0  0999 V2000
   -1.3940   11.7680   17.4190 O   0  0  0  0  0  0  0  0  0  0  0  0
   -1.4100   11.6930   18.6430 C   0  0  0  0  0  0  0  0  0  0  0  0
   -2.2450   12.4890   19.4110 O   0  0  0  0  0  0  0  0  0  0  0  0
   -2.2740   12.4180   20.8430 C   0  0  0  0  0  0  0  0  0  0  0  0
   -1.5020   11.5750   21.5730 C   0  0  0  0  0  0  0  0  0  0  0  0
   -0.6630   10.7630   20.7720 C   0  0  0  0  0  0  0  0  0  0  0  0
    0.1960    9.8200   21.2530 N   0  0  0  0  0  0  0  0  0  0  0  0
    0.8550    9.2200   20.1970 C   0  0  0  0  0  0  0  0  0  0  0  0
    1.8230    8.2080   20.1990 C   0  0  0  0  0  0  0  0  0  0  0  0
    2.3220    7.7860   18.9640 C   0  0  0  0  0  0  0  0  0  0  0  0
    1.8700    8.3520   17.7740 C   0  0  0  0  0  0  0  0  0  0  0  0
    0.9010    9.3610   17.7860 C   0  0  0  0  0  0  0  0  0  0  0  0
    0.3820    9.8070   19.0170 C   0  0  0  0  0  0  0  0  0  0  0  0
   -0.5810   10.7790   19.4000 C   0  0  0  0  0  0  0  0  0  0  0  0
   -1.6010   11.5660   23.0820 C   0  0  0  0  0  0  0  0  0  0  0  0
   -2.0280   12.9150   23.6680 C   0  0  0  0  0  0  0  0  0  0  0  0
   -3.1450   13.5520   22.8840 C   0  0  0  0  0  0  0  0  0  0  0  0
   -4.0420   14.4250   23.5160 C   0  0  0  0  0  0  0  0  0  0  0  0
   -5.0420   15.0580   22.7800 C   0  0  0  0  0  0  0  0  0  0  0  0
   -5.1460   14.8320   21.4100 C   0  0  0  0  0  0  0  0  0  0  0  0
   -4.2480   13.9750   20.7710 C   0  0  0  0  0  0  0  0  0  0  0  0
   -3.2390   13.3260   21.4960 C   0  0  0  0  0  0  0  0  0  0  0  0
    0.3430    9.5830   22.2240 H   0  0  0  0  0  0  0  0  0  0  0  0
    2.1800    7.7630   21.1220 H   0  0  0  0  0  0  0  0  0  0  0  0
    3.0750    7.0020   18.9310 H   0  0  0  0  0  0  0  0  0  0  0  0
    2.2710    8.0070   16.8230 H   0  0  0  0  0  0  0  0  0  0  0  0
    0.5520    9.7970   16.8530 H   0  0  0  0  0  0  0  0  0  0  0  0
   -0.6380   11.2910   23.5300 H   0  0  0  0  0  0  0  0  0  0  0  0
   -2.3200   10.7890   23.3730 H   0  0  0  0  0  0  0  0  0  0  0  0
   -1.1750   13.6050   23.6670 H   0  0  0  0  0  0  0  0  0  0  0  0
   -2.3270   12.7670   24.7120 H   0  0  0  0  0  0  0  0  0  0  0  0
   -3.9610   14.6210   24.5830 H   0  0  0  0  0  0  0  0  0  0  0  0
   -5.7380   15.7310   23.2740 H   0  0  0  0  0  0  0  0  0  0  0  0
   -5.9240   15.3280   20.8340 H   0  0  0  0  0  0  0  0  0  0  0  0
   -4.3480   13.8190   19.6990 H   0  0  0  0  0  0  0  0  0  0  0  0
  1  2  2  0  0  0  0
  2 14  1  0  0  0  0
  2  3  1  0  0  0  0
  3  4  1  0  0  0  0
  4 22  1  0  0  0  0
  4  5  2  0  0  0  0
  5 15  1  0  0  0  0
  6  7  1  0  0  0  0
  6  5  1  0  0  0  0
  7 23  1  0  0  0  0
  8  9  1  0  0  0  0
  8  7  1  0  0  0  0
  9 24  1  0  0  0  0
 10  9  2  0  0  0  0
 11 12  2  0  0  0  0
 11 10  1  0  0  0  0
 12 13  1  0  0  0  0
 13 14  1  0  0  0  0
 13  8  2  0  0  0  0
 14  6  2  0  0  0  0
 15 29  1  0  0  0  0
 15 28  1  0  0  0  0
 15 16  1  0  0  0  0
 16 31  1  0  0  0  0
 17 18  1  0  0  0  0
 17 16  1  0  0  0  0
 18 32  1  0  0  0  0
 19 33  1  0  0  0  0
 19 18  2  0  0  0  0
 20 19  1  0  0  0  0
 21 20  2  0  0  0  0
 21 22  1  0  0  0  0
 22 17  2  0  0  0  0
 25 10  1  0  0  0  0
 26 11  1  0  0  0  0
 27 12  1  0  0  0  0
 30 16  1  0  0  0  0
 34 20  1  0  0  0  0
 35 21  1  0  0  0  0
M  END
>  <MODEL>
15

>  <REMARK>
 VINA RESULT:    -6.218      3.196      8.701
 INTER + INTRA:          -6.218
 INTER:                  -6.218
 INTRA:                   0.000
 UNBOUND:                 0.000
  Name = 
  0 active torsions:
  status: ('A' for Active; 'I' for Inactive)
                            x       y       z     vdW  Elec       q    Type
                         _______ _______ _______ _____ _____    ______ ____

>  <TORSDO>
F 0

$$$$
=
 OpenBabel07192307433D

 35 39  0  0  0  0  0  0  0  0999 V2000
    0.4880    8.1280   22.2170 O   0  0  0  0  0  0  0  0  0  0  0  0
    0.5340    9.0410   21.4000 C   0  0  0  0  0  0  0  0  0  0  0  0
   -0.0680   10.2670   21.6430 O   0  0  0  0  0  0  0  0  0  0  0  0
   -0.0290   11.3450   20.6990 C   0  0  0  0  0  0  0  0  0  0  0  0
    0.5950   11.2730   19.4950 C   0  0  0  0  0  0  0  0  0  0  0  0
    1.2110   10.0190   19.2690 C   0  0  0  0  0  0  0  0  0  0  0  0
    1.9170    9.6910   18.1500 N   0  0  0  0  0  0  0  0  0  0  0  0
    2.3770    8.3920   18.2620 C   0  0  0  0  0  0  0  0  0  0  0  0
    3.1370    7.6260   17.3700 C   0  0  0  0  0  0  0  0  0  0  0  0
    3.4640    6.3220   17.7510 C   0  0  0  0  0  0  0  0  0  0  0  0
    3.0490    5.8050   18.9760 C   0  0  0  0  0  0  0  0  0  0  0  0
    2.2910    6.5820   19.8580 C   0  0  0  0  0  0  0  0  0  0  0  0
    1.9450    7.8990   19.4990 C   0  0  0  0  0  0  0  0  0  0  0  0
    1.2120    8.9430   20.1250 C   0  0  0  0  0  0  0  0  0  0  0  0
    0.5870   12.4620   18.5620 C   0  0  0  0  0  0  0  0  0  0  0  0
   -0.6420   13.3600   18.7370 C   0  0  0  0  0  0  0  0  0  0  0  0
   -0.9830   13.5890   20.1850 C   0  0  0  0  0  0  0  0  0  0  0  0
   -1.6420   14.7630   20.5780 C   0  0  0  0  0  0  0  0  0  0  0  0
   -2.0060   14.9510   21.9100 C   0  0  0  0  0  0  0  0  0  0  0  0
   -1.7280   13.9650   22.8530 C   0  0  0  0  0  0  0  0  0  0  0  0
   -1.0850   12.7870   22.4670 C   0  0  0  0  0  0  0  0  0  0  0  0
   -0.7060   12.5830   21.1330 C   0  0  0  0  0  0  0  0  0  0  0  0
    2.0890   10.2880   17.3530 H   0  0  0  0  0  0  0  0  0  0  0  0
    3.4640    8.0230   16.4140 H   0  0  0  0  0  0  0  0  0  0  0  0
    4.0540    5.7010   17.0800 H   0  0  0  0  0  0  0  0  0  0  0  0
    3.3160    4.7880   19.2530 H   0  0  0  0  0  0  0  0  0  0  0  0
    1.9710    6.1710   20.8130 H   0  0  0  0  0  0  0  0  0  0  0  0
    0.6210   12.1320   17.5170 H   0  0  0  0  0  0  0  0  0  0  0  0
    1.5010   13.0430   18.7420 H   0  0  0  0  0  0  0  0  0  0  0  0
   -1.5100   12.8960   18.2510 H   0  0  0  0  0  0  0  0  0  0  0  0
   -0.4550   14.3150   18.2300 H   0  0  0  0  0  0  0  0  0  0  0  0
   -1.8780   15.5330   19.8480 H   0  0  0  0  0  0  0  0  0  0  0  0
   -2.5140   15.8640   22.2120 H   0  0  0  0  0  0  0  0  0  0  0  0
   -2.0150   14.1090   23.8920 H   0  0  0  0  0  0  0  0  0  0  0  0
   -0.8830   12.0310   23.2230 H   0  0  0  0  0  0  0  0  0  0  0  0
  2  3  1  0  0  0  0
  2  1  2  0  0  0  0
  4 22  1  0  0  0  0
  4  3  1  0  0  0  0
  5  4  2  0  0  0  0
  6  5  1  0  0  0  0
  6 14  2  0  0  0  0
  7  8  1  0  0  0  0
  7  6  1  0  0  0  0
  8 13  1  0  0  0  0
  9 10  1  0  0  0  0
  9  8  2  0  0  0  0
 10 11  2  0  0  0  0
 11 26  1  0  0  0  0
 11 12  1  0  0  0  0
 12 27  1  0  0  0  0
 13 12  2  0  0  0  0
 13 14  1  0  0  0  0
 14  2  1  0  0  0  0
 15 16  1  0  0  0  0
 15 29  1  0  0  0  0
 15  5  1  0  0  0  0
 16 17  1  0  0  0  0
 17 18  2  0  0  0  0
 17 22  1  0  0  0  0
 18 19  1  0  0  0  0
 19 33  1  0  0  0  0
 19 20  2  0  0  0  0
 20 34  1  0  0  0  0
 21 20  1  0  0  0  0
 21 35  1  0  0  0  0
 22 21  2  0  0  0  0
 23  7  1  0  0  0  0
 24  9  1  0  0  0  0
 25 10  1  0  0  0  0
 28 15  1  0  0  0  0
 30 16  1  0  0  0  0
 31 16  1  0  0  0  0
 32 18  1  0  0  0  0
M  END
>  <MODEL>
16

>  <REMARK>
 VINA RESULT:    -6.055      2.513      7.835
 INTER + INTRA:          -6.055
 INTER:                  -6.055
 INTRA:                   0.000
 UNBOUND:                 0.000
  Name = 
  0 active torsions:
  status: ('A' for Active; 'I' for Inactive)
                            x       y       z     vdW  Elec       q    Type
                         _______ _______ _______ _____ _____    ______ ____

>  <TORSDO>
F 0

$$$$
