=
 OpenBabel07192307433D

 43 46  0  0  0  0  0  0  0  0999 V2000
    2.3250    5.2760   20.4980 C   0  0  0  0  0  0  0  0  0  0  0  0
    1.9820    4.0940   21.1420 C   0  0  0  0  0  0  0  0  0  0  0  0
    2.6150    2.9160   20.7610 C   0  0  0  0  0  0  0  0  0  0  0  0
    3.5760    2.9540   19.7560 C   0  0  0  0  0  0  0  0  0  0  0  0
    3.8880    4.1730   19.1590 C   0  0  0  0  0  0  0  0  0  0  0  0
    3.2570    5.3150   19.5320 N   0  0  0  0  0  0  0  0  0  0  0  0
    1.2280    4.0740   21.9220 H   0  0  0  0  0  0  0  0  0  0  0  0
    2.3570    1.9750   21.2400 H   0  0  0  0  0  0  0  0  0  0  0  0
    4.0530    2.0310   19.4460 H   0  0  0  0  0  0  0  0  0  0  0  0
    4.8990    4.3260   18.0820 C   0  0  0  0  0  0  0  0  0  0  0  0
    6.2370    4.6790   18.4050 C   0  0  0  0  0  0  0  0  0  0  0  0
    7.2260    4.8360   17.4250 C   0  0  0  0  0  0  0  0  0  0  0  0
    6.8650    4.6420   16.1140 C   0  0  0  0  0  0  0  0  0  0  0  0
    5.5770    4.2840   15.7600 C   0  0  0  0  0  0  0  0  0  0  0  0
    4.5900    4.1130   16.7220 C   0  0  0  0  0  0  0  0  0  0  0  0
    5.5190    4.0610   14.2990 C   0  0  0  0  0  0  0  0  0  0  0  0
    6.8400    4.7230   13.9010 C   0  0  0  0  0  0  0  0  0  0  0  0
    7.7210    4.7480   15.0480 O   0  0  0  0  0  0  0  0  0  0  0  0
    6.5160    4.8260   19.4500 H   0  0  0  0  0  0  0  0  0  0  0  0
    8.2420    5.0990   17.6960 H   0  0  0  0  0  0  0  0  0  0  0  0
    3.6020    3.7940   16.4090 H   0  0  0  0  0  0  0  0  0  0  0  0
    4.6630    4.5350   13.8110 H   0  0  0  0  0  0  0  0  0  0  0  0
    5.5320    2.9890   14.0770 H   0  0  0  0  0  0  0  0  0  0  0  0
    7.3270    4.1870   13.0810 H   0  0  0  0  0  0  0  0  0  0  0  0
    6.6800    5.7610   13.5800 H   0  0  0  0  0  0  0  0  0  0  0  0
    1.6940    7.6550   20.2560 C   0  0  0  0  0  0  0  0  0  0  0  0
    2.2990    7.9180   19.2210 O   0  0  0  0  0  0  0  0  0  0  0  0
    1.6560    6.4380   20.8980 N   0  0  0  0  0  0  0  0  0  0  0  0
    1.0880    6.3670   21.7390 H   0  0  0  0  0  0  0  0  0  0  0  0
   -0.6060   10.6790   22.3420 C   0  0  0  0  0  0  0  0  0  0  0  0
    0.0230    9.6950   23.0000 C   0  0  0  0  0  0  0  0  0  0  0  0
    0.7820    8.7020   22.2750 C   0  0  0  0  0  0  0  0  0  0  0  0
    0.8870    8.7250   20.9330 C   0  0  0  0  0  0  0  0  0  0  0  0
    0.1840    9.8240   20.2030 C   0  0  0  0  0  0  0  0  0  0  0  0
    0.2260    9.9220   18.9780 O   0  0  0  0  0  0  0  0  0  0  0  0
   -0.5170   10.7270   20.9700 N   0  0  0  0  0  0  0  0  0  0  0  0
   -0.0160    9.6120   24.0830 H   0  0  0  0  0  0  0  0  0  0  0  0
    1.2700    7.9270   22.8640 H   0  0  0  0  0  0  0  0  0  0  0  0
   -0.9870   11.4660   20.4590 H   0  0  0  0  0  0  0  0  0  0  0  0
   -1.4130   11.7460   23.0140 C   0  0  0  0  0  0  0  0  0  0  0  0
   -1.1630   11.8010   24.0780 H   0  0  0  0  0  0  0  0  0  0  0  0
   -1.2300   12.7320   22.5750 H   0  0  0  0  0  0  0  0  0  0  0  0
   -2.4840   11.5310   22.9200 H   0  0  0  0  0  0  0  0  0  0  0  0
  1 28  1  0  0  0  0
  1  2  1  0  0  0  0
  2  7  1  0  0  0  0
  3  2  2  0  0  0  0
  3  8  1  0  0  0  0
  4  3  1  0  0  0  0
  5  6  1  0  0  0  0
  5  4  2  0  0  0  0
  6  1  2  0  0  0  0
  9  4  1  0  0  0  0
 10 11  1  0  0  0  0
 10  5  1  0  0  0  0
 11 19  1  0  0  0  0
 12 20  1  0  0  0  0
 12 11  2  0  0  0  0
 13 12  1  0  0  0  0
 14 13  2  0  0  0  0
 14 15  1  0  0  0  0
 15 10  2  0  0  0  0
 16 14  1  0  0  0  0
 17 16  1  0  0  0  0
 17 18  1  0  0  0  0
 18 13  1  0  0  0  0
 21 15  1  0  0  0  0
 22 16  1  0  0  0  0
 23 16  1  0  0  0  0
 24 17  1  0  0  0  0
 25 17  1  0  0  0  0
 26 28  1  0  0  0  0
 26 33  1  0  0  0  0
 27 26  2  0  0  0  0
 28 29  1  0  0  0  0
 30 31  2  0  0  0  0
 30 40  1  0  0  0  0
 31 37  1  0  0  0  0
 32 38  1  0  0  0  0
 32 31  1  0  0  0  0
 33 32  2  0  0  0  0
 34 33  1  0  0  0  0
 34 36  1  0  0  0  0
 35 34  2  0  0  0  0
 36 30  1  0  0  0  0
 39 36  1  0  0  0  0
 40 41  1  0  0  0  0
 42 40  1  0  0  0  0
 43 40  1  0  0  0  0
M  END
>  <MODEL>
1

>  <REMARK>
 VINA RESULT:    -8.847      0.000      0.000
 INTER + INTRA:         -11.200
 INTER:                 -11.158
 INTRA:                  -0.041
 UNBOUND:                -0.542
  Name = 
  4 active torsions:
  status: ('A' for Active; 'I' for Inactive)
    1  A    between atoms: C_1  and  C_2
    2  A    between atoms: C_5  and  C_6
    3  A    between atoms: N_8  and  C_9
    4  A    between atoms: C_13  and  C_14
                            x       y       z     vdW  Elec       q    Type
                         _______ _______ _______ _____ _____    ______ ____

>  <TORSDO>
F 4

$$$$
=
 OpenBabel07192307433D

 43 46  0  0  0  0  0  0  0  0999 V2000
    3.0470    5.5460   18.9110 C   0  0  0  0  0  0  0  0  0  0  0  0
    2.8320    4.4110   19.6820 C   0  0  0  0  0  0  0  0  0  0  0  0
    2.0210    4.5100   20.8070 C   0  0  0  0  0  0  0  0  0  0  0  0
    1.4410    5.7340   21.1230 C   0  0  0  0  0  0  0  0  0  0  0  0
    1.6820    6.8330   20.3020 C   0  0  0  0  0  0  0  0  0  0  0  0
    2.4830    6.7270   19.2120 N   0  0  0  0  0  0  0  0  0  0  0  0
    3.2910    3.4610   19.4290 H   0  0  0  0  0  0  0  0  0  0  0  0
    1.8450    3.6400   21.4340 H   0  0  0  0  0  0  0  0  0  0  0  0
    0.8260    5.8140   22.0120 H   0  0  0  0  0  0  0  0  0  0  0  0
    1.1120    8.1820   20.5450 C   0  0  0  0  0  0  0  0  0  0  0  0
    1.2330    9.1970   19.5580 C   0  0  0  0  0  0  0  0  0  0  0  0
    0.7130   10.4840   19.7410 C   0  0  0  0  0  0  0  0  0  0  0  0
    0.0720   10.7540   20.9260 C   0  0  0  0  0  0  0  0  0  0  0  0
   -0.0800    9.7900   21.9060 C   0  0  0  0  0  0  0  0  0  0  0  0
    0.4210    8.5060   21.7320 C   0  0  0  0  0  0  0  0  0  0  0  0
   -0.8830   10.3470   23.0150 C   0  0  0  0  0  0  0  0  0  0  0  0
   -0.7950   11.8320   22.6550 C   0  0  0  0  0  0  0  0  0  0  0  0
   -0.4970   11.9600   21.2450 O   0  0  0  0  0  0  0  0  0  0  0  0
    1.7400    8.9720   18.6180 H   0  0  0  0  0  0  0  0  0  0  0  0
    0.8130   11.2410   18.9700 H   0  0  0  0  0  0  0  0  0  0  0  0
    0.2480    7.7670   22.5060 H   0  0  0  0  0  0  0  0  0  0  0  0
   -0.4710   10.1440   24.0070 H   0  0  0  0  0  0  0  0  0  0  0  0
   -1.9150    9.9870   22.9550 H   0  0  0  0  0  0  0  0  0  0  0  0
   -1.7300   12.3560   22.8770 H   0  0  0  0  0  0  0  0  0  0  0  0
    0.0110   12.3260   23.2120 H   0  0  0  0  0  0  0  0  0  0  0  0
    5.1450    4.8670   17.7910 C   0  0  0  0  0  0  0  0  0  0  0  0
    5.7410    4.3930   18.7540 O   0  0  0  0  0  0  0  0  0  0  0  0
    3.8810    5.4110   17.7960 N   0  0  0  0  0  0  0  0  0  0  0  0
    3.5090    5.7430   16.9090 H   0  0  0  0  0  0  0  0  0  0  0  0
    6.9500    4.7840   13.8510 C   0  0  0  0  0  0  0  0  0  0  0  0
    5.8590    4.0600   14.1420 C   0  0  0  0  0  0  0  0  0  0  0  0
    5.2810    4.1100   15.4650 C   0  0  0  0  0  0  0  0  0  0  0  0
    5.8060    4.8730   16.4430 C   0  0  0  0  0  0  0  0  0  0  0  0
    7.0210    5.6780   16.1150 C   0  0  0  0  0  0  0  0  0  0  0  0
    7.5650    6.4020   16.9470 O   0  0  0  0  0  0  0  0  0  0  0  0
    7.5070    5.5720   14.8320 N   0  0  0  0  0  0  0  0  0  0  0  0
    5.3800    3.4220   13.4030 H   0  0  0  0  0  0  0  0  0  0  0  0
    4.3960    3.5000   15.6410 H   0  0  0  0  0  0  0  0  0  0  0  0
    8.3310    6.1250   14.6270 H   0  0  0  0  0  0  0  0  0  0  0  0
    7.6110    4.7900   12.5090 C   0  0  0  0  0  0  0  0  0  0  0  0
    6.8690    4.9340   11.7170 H   0  0  0  0  0  0  0  0  0  0  0  0
    8.3530    5.5910   12.4230 H   0  0  0  0  0  0  0  0  0  0  0  0
    8.1250    3.8380   12.3320 H   0  0  0  0  0  0  0  0  0  0  0  0
  1  6  2  0  0  0  0
  1  2  1  0  0  0  0
  2  3  2  0  0  0  0
  3  4  1  0  0  0  0
  3  8  1  0  0  0  0
  4  9  1  0  0  0  0
  5 10  1  0  0  0  0
  5  4  2  0  0  0  0
  6  5  1  0  0  0  0
  7  2  1  0  0  0  0
 10 15  1  0  0  0  0
 11 12  1  0  0  0  0
 11 10  2  0  0  0  0
 12 13  2  0  0  0  0
 13 18  1  0  0  0  0
 13 14  1  0  0  0  0
 14 16  1  0  0  0  0
 15 14  2  0  0  0  0
 15 21  1  0  0  0  0
 16 22  1  0  0  0  0
 17 24  1  0  0  0  0
 17 16  1  0  0  0  0
 17 25  1  0  0  0  0
 18 17  1  0  0  0  0
 19 11  1  0  0  0  0
 20 12  1  0  0  0  0
 23 16  1  0  0  0  0
 26 28  1  0  0  0  0
 26 27  2  0  0  0  0
 28  1  1  0  0  0  0
 29 28  1  0  0  0  0
 30 31  2  0  0  0  0
 30 36  1  0  0  0  0
 31 32  1  0  0  0  0
 32 38  1  0  0  0  0
 32 33  2  0  0  0  0
 33 26  1  0  0  0  0
 34 33  1  0  0  0  0
 34 35  2  0  0  0  0
 36 34  1  0  0  0  0
 37 31  1  0  0  0  0
 39 36  1  0  0  0  0
 40 30  1  0  0  0  0
 41 40  1  0  0  0  0
 42 40  1  0  0  0  0
 43 40  1  0  0  0  0
M  END
>  <MODEL>
2

>  <REMARK>
 VINA RESULT:    -8.406      1.957      8.793
 INTER + INTRA:         -10.667
 INTER:                 -10.225
 INTRA:                  -0.443
 UNBOUND:                -0.542
  Name = 
  4 active torsions:
  status: ('A' for Active; 'I' for Inactive)
    1  A    between atoms: C_1  and  C_2
    2  A    between atoms: C_5  and  C_6
    3  A    between atoms: N_8  and  C_9
    4  A    between atoms: C_13  and  C_14
                            x       y       z     vdW  Elec       q    Type
                         _______ _______ _______ _____ _____    ______ ____

>  <TORSDO>
F 4

$$$$
=
 OpenBabel07192307433D

 43 46  0  0  0  0  0  0  0  0999 V2000
    2.2740    5.6660   20.4240 C   0  0  0  0  0  0  0  0  0  0  0  0
    1.9210    4.5290   21.1400 C   0  0  0  0  0  0  0  0  0  0  0  0
    2.5540    3.3280   20.8440 C   0  0  0  0  0  0  0  0  0  0  0  0
    3.5260    3.2970   19.8490 C   0  0  0  0  0  0  0  0  0  0  0  0
    3.8490    4.4740   19.1770 C   0  0  0  0  0  0  0  0  0  0  0  0
    3.2170    5.6390   19.4680 N   0  0  0  0  0  0  0  0  0  0  0  0
    1.1600    4.5620   21.9120 H   0  0  0  0  0  0  0  0  0  0  0  0
    2.2890    2.4210   21.3800 H   0  0  0  0  0  0  0  0  0  0  0  0
    4.0030    2.3550   19.6050 H   0  0  0  0  0  0  0  0  0  0  0  0
    4.8710    4.5540   18.1040 C   0  0  0  0  0  0  0  0  0  0  0  0
    6.2240    4.8430   18.4270 C   0  0  0  0  0  0  0  0  0  0  0  0
    7.2250    4.9300   17.4510 C   0  0  0  0  0  0  0  0  0  0  0  0
    6.8610    4.7300   16.1410 C   0  0  0  0  0  0  0  0  0  0  0  0
    5.5580    4.4320   15.7860 C   0  0  0  0  0  0  0  0  0  0  0  0
    4.5590    4.3320   16.7460 C   0  0  0  0  0  0  0  0  0  0  0  0
    5.4950    4.1850   14.3290 C   0  0  0  0  0  0  0  0  0  0  0  0
    6.8510    4.7700   13.9270 C   0  0  0  0  0  0  0  0  0  0  0  0
    7.7260    4.7720   15.0790 O   0  0  0  0  0  0  0  0  0  0  0  0
    6.5050    4.9960   19.4710 H   0  0  0  0  0  0  0  0  0  0  0  0
    8.2520    5.1460   17.7230 H   0  0  0  0  0  0  0  0  0  0  0  0
    3.5570    4.0580   16.4330 H   0  0  0  0  0  0  0  0  0  0  0  0
    4.6670    4.6930   13.8280 H   0  0  0  0  0  0  0  0  0  0  0  0
    5.4540    3.1090   14.1280 H   0  0  0  0  0  0  0  0  0  0  0  0
    7.3140    4.1940   13.1200 H   0  0  0  0  0  0  0  0  0  0  0  0
    6.7470    5.8080   13.5860 H   0  0  0  0  0  0  0  0  0  0  0  0
    1.5970    8.0030   19.9840 C   0  0  0  0  0  0  0  0  0  0  0  0
    2.1540    8.1730   18.9030 O   0  0  0  0  0  0  0  0  0  0  0  0
    1.6060    6.8530   20.7410 N   0  0  0  0  0  0  0  0  0  0  0  0
    1.0740    6.8570   21.6070 H   0  0  0  0  0  0  0  0  0  0  0  0
   -0.7530   11.2700   21.5950 C   0  0  0  0  0  0  0  0  0  0  0  0
   -0.8030   10.9400   20.2960 C   0  0  0  0  0  0  0  0  0  0  0  0
   -0.0070    9.8450   19.7910 C   0  0  0  0  0  0  0  0  0  0  0  0
    0.8030    9.1240   20.5900 C   0  0  0  0  0  0  0  0  0  0  0  0
    0.8550    9.4950   22.0370 C   0  0  0  0  0  0  0  0  0  0  0  0
    1.5660    8.8910   22.8370 O   0  0  0  0  0  0  0  0  0  0  0  0
    0.0670   10.5500   22.4350 N   0  0  0  0  0  0  0  0  0  0  0  0
   -1.4330   11.4760   19.5920 H   0  0  0  0  0  0  0  0  0  0  0  0
   -0.0900    9.6250   18.7280 H   0  0  0  0  0  0  0  0  0  0  0  0
    0.1140   10.7880   23.4190 H   0  0  0  0  0  0  0  0  0  0  0  0
   -1.5420   12.3880   22.2010 C   0  0  0  0  0  0  0  0  0  0  0  0
   -1.8810   13.0820   21.4240 H   0  0  0  0  0  0  0  0  0  0  0  0
   -2.4280   12.0210   22.7310 H   0  0  0  0  0  0  0  0  0  0  0  0
   -0.9290   12.9440   22.9180 H   0  0  0  0  0  0  0  0  0  0  0  0
  1 28  1  0  0  0  0
  1  2  1  0  0  0  0
  2  7  1  0  0  0  0
  3  2  2  0  0  0  0
  3  8  1  0  0  0  0
  4  3  1  0  0  0  0
  5  6  1  0  0  0  0
  5  4  2  0  0  0  0
  6  1  2  0  0  0  0
  9  4  1  0  0  0  0
 10 11  1  0  0  0  0
 10  5  1  0  0  0  0
 11 19  1  0  0  0  0
 12 20  1  0  0  0  0
 12 11  2  0  0  0  0
 13 12  1  0  0  0  0
 14 13  2  0  0  0  0
 14 15  1  0  0  0  0
 15 10  2  0  0  0  0
 16 14  1  0  0  0  0
 17 16  1  0  0  0  0
 17 18  1  0  0  0  0
 18 13  1  0  0  0  0
 21 15  1  0  0  0  0
 22 16  1  0  0  0  0
 23 16  1  0  0  0  0
 24 17  1  0  0  0  0
 25 17  1  0  0  0  0
 26 33  1  0  0  0  0
 26 28  1  0  0  0  0
 27 26  2  0  0  0  0
 28 29  1  0  0  0  0
 30 40  1  0  0  0  0
 30 36  1  0  0  0  0
 31 30  2  0  0  0  0
 32 31  1  0  0  0  0
 32 33  2  0  0  0  0
 33 34  1  0  0  0  0
 34 36  1  0  0  0  0
 34 35  2  0  0  0  0
 36 39  1  0  0  0  0
 37 31  1  0  0  0  0
 38 32  1  0  0  0  0
 40 42  1  0  0  0  0
 40 43  1  0  0  0  0
 41 40  1  0  0  0  0
M  END
>  <MODEL>
3

>  <REMARK>
 VINA RESULT:    -8.322      0.964      1.327
 INTER + INTRA:         -10.566
 INTER:                 -10.105
 INTRA:                  -0.461
 UNBOUND:                -0.542
  Name = 
  4 active torsions:
  status: ('A' for Active; 'I' for Inactive)
    1  A    between atoms: C_1  and  C_2
    2  A    between atoms: C_5  and  C_6
    3  A    between atoms: N_8  and  C_9
    4  A    between atoms: C_13  and  C_14
                            x       y       z     vdW  Elec       q    Type
                         _______ _______ _______ _____ _____    ______ ____

>  <TORSDO>
F 4

$$$$
=
 OpenBabel07192307433D

 43 46  0  0  0  0  0  0  0  0999 V2000
    3.0240    5.5800   18.8950 C   0  0  0  0  0  0  0  0  0  0  0  0
    2.7300    4.4350   19.6230 C   0  0  0  0  0  0  0  0  0  0  0  0
    1.9100    4.5440   20.7410 C   0  0  0  0  0  0  0  0  0  0  0  0
    1.4010    5.7900   21.0930 C   0  0  0  0  0  0  0  0  0  0  0  0
    1.7200    6.9000   20.3130 C   0  0  0  0  0  0  0  0  0  0  0  0
    2.5290    6.7830   19.2310 N   0  0  0  0  0  0  0  0  0  0  0  0
    3.1340    3.4680   19.3430 H   0  0  0  0  0  0  0  0  0  0  0  0
    1.6730    3.6660   21.3350 H   0  0  0  0  0  0  0  0  0  0  0  0
    0.7800    5.8760   21.9760 H   0  0  0  0  0  0  0  0  0  0  0  0
    1.2290    8.2720   20.5970 C   0  0  0  0  0  0  0  0  0  0  0  0
    0.7730    8.6120   21.9000 C   0  0  0  0  0  0  0  0  0  0  0  0
    0.3010    9.8910   22.2160 C   0  0  0  0  0  0  0  0  0  0  0  0
    0.2810   10.8330   21.2160 C   0  0  0  0  0  0  0  0  0  0  0  0
    0.7280   10.5460   19.9390 C   0  0  0  0  0  0  0  0  0  0  0  0
    1.2110    9.2850   19.6150 C   0  0  0  0  0  0  0  0  0  0  0  0
    0.6680   11.7730   19.1160 C   0  0  0  0  0  0  0  0  0  0  0  0
   -0.2260   12.6260   20.0190 C   0  0  0  0  0  0  0  0  0  0  0  0
   -0.1420   12.1270   21.3750 O   0  0  0  0  0  0  0  0  0  0  0  0
    0.7970    7.8590   22.6890 H   0  0  0  0  0  0  0  0  0  0  0  0
   -0.0360   10.1290   23.2190 H   0  0  0  0  0  0  0  0  0  0  0  0
    1.5890    9.1100   18.6140 H   0  0  0  0  0  0  0  0  0  0  0  0
    0.2240   11.6240   18.1280 H   0  0  0  0  0  0  0  0  0  0  0  0
    1.6650   12.2150   19.0180 H   0  0  0  0  0  0  0  0  0  0  0  0
    0.0710   13.6790   20.0010 H   0  0  0  0  0  0  0  0  0  0  0  0
   -1.2760   12.5650   19.7060 H   0  0  0  0  0  0  0  0  0  0  0  0
    5.1280    4.8880   17.7950 C   0  0  0  0  0  0  0  0  0  0  0  0
    5.7180    4.4240   18.7660 O   0  0  0  0  0  0  0  0  0  0  0  0
    3.8640    5.4330   17.7860 N   0  0  0  0  0  0  0  0  0  0  0  0
    3.4980    5.7560   16.8940 H   0  0  0  0  0  0  0  0  0  0  0  0
    6.9560    4.7610   13.8670 C   0  0  0  0  0  0  0  0  0  0  0  0
    5.8710    4.0300   14.1620 C   0  0  0  0  0  0  0  0  0  0  0  0
    5.2850    4.0960   15.4820 C   0  0  0  0  0  0  0  0  0  0  0  0
    5.7960    4.8790   16.4500 C   0  0  0  0  0  0  0  0  0  0  0  0
    7.0060    5.6920   16.1160 C   0  0  0  0  0  0  0  0  0  0  0  0
    7.5370    6.4350   16.9390 O   0  0  0  0  0  0  0  0  0  0  0  0
    7.5000    5.5710   14.8380 N   0  0  0  0  0  0  0  0  0  0  0  0
    5.4040    3.3760   13.4320 H   0  0  0  0  0  0  0  0  0  0  0  0
    4.4060    3.4790   15.6620 H   0  0  0  0  0  0  0  0  0  0  0  0
    8.3190    6.1290   14.6290 H   0  0  0  0  0  0  0  0  0  0  0  0
    7.6260    4.7530   12.5280 C   0  0  0  0  0  0  0  0  0  0  0  0
    8.3360    3.9220   12.4610 H   0  0  0  0  0  0  0  0  0  0  0  0
    6.9040    4.6430   11.7120 H   0  0  0  0  0  0  0  0  0  0  0  0
    8.1720    5.6890   12.3680 H   0  0  0  0  0  0  0  0  0  0  0  0
  1  6  2  0  0  0  0
  1  2  1  0  0  0  0
  2  3  2  0  0  0  0
  3  4  1  0  0  0  0
  3  8  1  0  0  0  0
  4  9  1  0  0  0  0
  5 10  1  0  0  0  0
  5  4  2  0  0  0  0
  6  5  1  0  0  0  0
  7  2  1  0  0  0  0
 10 11  1  0  0  0  0
 11 12  2  0  0  0  0
 11 19  1  0  0  0  0
 12 20  1  0  0  0  0
 13 18  1  0  0  0  0
 13 12  1  0  0  0  0
 14 13  2  0  0  0  0
 15 14  1  0  0  0  0
 15 10  2  0  0  0  0
 16 14  1  0  0  0  0
 16 17  1  0  0  0  0
 17 18  1  0  0  0  0
 21 15  1  0  0  0  0
 22 16  1  0  0  0  0
 23 16  1  0  0  0  0
 24 17  1  0  0  0  0
 25 17  1  0  0  0  0
 26 27  2  0  0  0  0
 28 26  1  0  0  0  0
 28  1  1  0  0  0  0
 29 28  1  0  0  0  0
 30 31  2  0  0  0  0
 30 36  1  0  0  0  0
 31 32  1  0  0  0  0
 32 38  1  0  0  0  0
 32 33  2  0  0  0  0
 33 26  1  0  0  0  0
 34 33  1  0  0  0  0
 34 35  2  0  0  0  0
 36 34  1  0  0  0  0
 37 31  1  0  0  0  0
 39 36  1  0  0  0  0
 40 30  1  0  0  0  0
 41 40  1  0  0  0  0
 42 40  1  0  0  0  0
 43 40  1  0  0  0  0
M  END
>  <MODEL>
4

>  <REMARK>
 VINA RESULT:    -8.221      2.083      8.583
 INTER + INTRA:         -10.445
 INTER:                  -9.942
 INTRA:                  -0.503
 UNBOUND:                -0.542
  Name = 
  4 active torsions:
  status: ('A' for Active; 'I' for Inactive)
    1  A    between atoms: C_1  and  C_2
    2  A    between atoms: C_5  and  C_6
    3  A    between atoms: N_8  and  C_9
    4  A    between atoms: C_13  and  C_14
                            x       y       z     vdW  Elec       q    Type
                         _______ _______ _______ _____ _____    ______ ____

>  <TORSDO>
F 4

$$$$
=
 OpenBabel07192307433D

 43 46  0  0  0  0  0  0  0  0999 V2000
    2.0750    7.1890   19.9120 C   0  0  0  0  0  0  0  0  0  0  0  0
    1.5390    6.2520   20.7870 C   0  0  0  0  0  0  0  0  0  0  0  0
    2.0370    4.9550   20.7680 C   0  0  0  0  0  0  0  0  0  0  0  0
    3.0620    4.6320   19.8840 C   0  0  0  0  0  0  0  0  0  0  0  0
    3.5690    5.6190   19.0410 C   0  0  0  0  0  0  0  0  0  0  0  0
    3.0680    6.8790   19.0620 N   0  0  0  0  0  0  0  0  0  0  0  0
    0.7380    6.5130   21.4710 H   0  0  0  0  0  0  0  0  0  0  0  0
    1.6280    4.2000   21.4330 H   0  0  0  0  0  0  0  0  0  0  0  0
    3.4340    3.6150   19.8550 H   0  0  0  0  0  0  0  0  0  0  0  0
    4.6620    5.3830   18.0650 C   0  0  0  0  0  0  0  0  0  0  0  0
    6.0190    5.5220   18.4640 C   0  0  0  0  0  0  0  0  0  0  0  0
    7.0840    5.3110   17.5800 C   0  0  0  0  0  0  0  0  0  0  0  0
    6.7830    4.9640   16.2850 C   0  0  0  0  0  0  0  0  0  0  0  0
    5.4770    4.8060   15.8610 C   0  0  0  0  0  0  0  0  0  0  0  0
    4.4120    5.0000   16.7300 C   0  0  0  0  0  0  0  0  0  0  0  0
    5.4760    4.3460   14.4540 C   0  0  0  0  0  0  0  0  0  0  0  0
    6.9300    4.6610   14.0970 C   0  0  0  0  0  0  0  0  0  0  0  0
    7.7150    4.7160   15.3110 O   0  0  0  0  0  0  0  0  0  0  0  0
    6.2480    5.7930   19.4960 H   0  0  0  0  0  0  0  0  0  0  0  0
    8.1120    5.4170   17.9100 H   0  0  0  0  0  0  0  0  0  0  0  0
    3.4030    4.8280   16.3700 H   0  0  0  0  0  0  0  0  0  0  0  0
    4.7730    4.8840   13.8130 H   0  0  0  0  0  0  0  0  0  0  0  0
    5.2810    3.2700   14.4070 H   0  0  0  0  0  0  0  0  0  0  0  0
    7.3510    3.9060   13.4260 H   0  0  0  0  0  0  0  0  0  0  0  0
    7.0120    5.6370   13.6020 H   0  0  0  0  0  0  0  0  0  0  0  0
    1.2410    9.2650   18.8590 C   0  0  0  0  0  0  0  0  0  0  0  0
    1.3780    8.9590   17.6780 O   0  0  0  0  0  0  0  0  0  0  0  0
    1.5380    8.4790   19.9500 N   0  0  0  0  0  0  0  0  0  0  0  0
    1.3460    8.8630   20.8710 H   0  0  0  0  0  0  0  0  0  0  0  0
   -0.4690   13.0950   19.9500 C   0  0  0  0  0  0  0  0  0  0  0  0
   -1.0490   11.9390   20.3030 C   0  0  0  0  0  0  0  0  0  0  0  0
   -0.4530   10.6790   19.9240 C   0  0  0  0  0  0  0  0  0  0  0  0
    0.6890   10.6160   19.2130 C   0  0  0  0  0  0  0  0  0  0  0  0
    1.3320   11.9070   18.8220 C   0  0  0  0  0  0  0  0  0  0  0  0
    2.3770   11.9430   18.1740 O   0  0  0  0  0  0  0  0  0  0  0  0
    0.6990   13.0610   19.2230 N   0  0  0  0  0  0  0  0  0  0  0  0
   -1.9710   11.9120   20.8770 H   0  0  0  0  0  0  0  0  0  0  0  0
   -0.9700    9.7740   20.2390 H   0  0  0  0  0  0  0  0  0  0  0  0
    1.1500   13.9270   18.9500 H   0  0  0  0  0  0  0  0  0  0  0  0
   -1.0180   14.4430   20.3010 C   0  0  0  0  0  0  0  0  0  0  0  0
   -0.8390   15.1530   19.4860 H   0  0  0  0  0  0  0  0  0  0  0  0
   -2.0970   14.4080   20.4830 H   0  0  0  0  0  0  0  0  0  0  0  0
   -0.5370   14.8280   21.2070 H   0  0  0  0  0  0  0  0  0  0  0  0
  1 28  1  0  0  0  0
  1  2  1  0  0  0  0
  2  7  1  0  0  0  0
  3  2  2  0  0  0  0
  3  8  1  0  0  0  0
  4  3  1  0  0  0  0
  5  6  1  0  0  0  0
  5  4  2  0  0  0  0
  6  1  2  0  0  0  0
  9  4  1  0  0  0  0
 10 11  1  0  0  0  0
 10  5  1  0  0  0  0
 11 19  1  0  0  0  0
 12 20  1  0  0  0  0
 12 11  2  0  0  0  0
 13 12  1  0  0  0  0
 14 13  2  0  0  0  0
 14 15  1  0  0  0  0
 15 10  2  0  0  0  0
 16 14  1  0  0  0  0
 17 16  1  0  0  0  0
 17 18  1  0  0  0  0
 18 13  1  0  0  0  0
 21 15  1  0  0  0  0
 22 16  1  0  0  0  0
 23 16  1  0  0  0  0
 24 17  1  0  0  0  0
 25 17  1  0  0  0  0
 26 33  1  0  0  0  0
 26 28  1  0  0  0  0
 27 26  2  0  0  0  0
 28 29  1  0  0  0  0
 30 40  1  0  0  0  0
 30 31  2  0  0  0  0
 31 37  1  0  0  0  0
 32 38  1  0  0  0  0
 32 31  1  0  0  0  0
 33 32  2  0  0  0  0
 34 33  1  0  0  0  0
 34 36  1  0  0  0  0
 35 34  2  0  0  0  0
 36 30  1  0  0  0  0
 39 36  1  0  0  0  0
 40 42  1  0  0  0  0
 40 43  1  0  0  0  0
 41 40  1  0  0  0  0
M  END
>  <MODEL>
5

>  <REMARK>
 VINA RESULT:    -7.827      1.824      2.181
 INTER + INTRA:          -9.970
 INTER:                  -9.493
 INTRA:                  -0.478
 UNBOUND:                -0.542
  Name = 
  4 active torsions:
  status: ('A' for Active; 'I' for Inactive)
    1  A    between atoms: C_1  and  C_2
    2  A    between atoms: C_5  and  C_6
    3  A    between atoms: N_8  and  C_9
    4  A    between atoms: C_13  and  C_14
                            x       y       z     vdW  Elec       q    Type
                         _______ _______ _______ _____ _____    ______ ____

>  <TORSDO>
F 4

$$$$
=
 OpenBabel07192307433D

 43 46  0  0  0  0  0  0  0  0999 V2000
    2.2660    7.6270   19.2440 C   0  0  0  0  0  0  0  0  0  0  0  0
    2.5480    8.1450   17.9860 C   0  0  0  0  0  0  0  0  0  0  0  0
    1.9830    9.3610   17.6210 C   0  0  0  0  0  0  0  0  0  0  0  0
    1.1620   10.0300   18.5240 C   0  0  0  0  0  0  0  0  0  0  0  0
    0.9300    9.4670   19.7770 C   0  0  0  0  0  0  0  0  0  0  0  0
    1.4790    8.2750   20.1190 N   0  0  0  0  0  0  0  0  0  0  0  0
    3.1870    7.6150   17.2880 H   0  0  0  0  0  0  0  0  0  0  0  0
    2.1770    9.7830   16.6390 H   0  0  0  0  0  0  0  0  0  0  0  0
    0.7060   10.9670   18.2290 H   0  0  0  0  0  0  0  0  0  0  0  0
    0.0750   10.0970   20.8150 C   0  0  0  0  0  0  0  0  0  0  0  0
    0.0480    9.5680   22.1340 C   0  0  0  0  0  0  0  0  0  0  0  0
   -0.7420   10.1260   23.1470 C   0  0  0  0  0  0  0  0  0  0  0  0
   -1.5130   11.2190   22.8300 C   0  0  0  0  0  0  0  0  0  0  0  0
   -1.5040   11.7710   21.5620 C   0  0  0  0  0  0  0  0  0  0  0  0
   -0.7160   11.2350   20.5520 C   0  0  0  0  0  0  0  0  0  0  0  0
   -2.3570   12.9790   21.5530 C   0  0  0  0  0  0  0  0  0  0  0  0
   -3.1070   12.7550   22.8680 C   0  0  0  0  0  0  0  0  0  0  0  0
   -2.3270   11.8780   23.7140 O   0  0  0  0  0  0  0  0  0  0  0  0
    0.6670    8.7030   22.3770 H   0  0  0  0  0  0  0  0  0  0  0  0
   -0.7420    9.7090   24.1470 H   0  0  0  0  0  0  0  0  0  0  0  0
   -0.7060   11.7200   19.5820 H   0  0  0  0  0  0  0  0  0  0  0  0
   -3.0390   13.0340   20.7000 H   0  0  0  0  0  0  0  0  0  0  0  0
   -1.7390   13.8820   21.6000 H   0  0  0  0  0  0  0  0  0  0  0  0
   -3.2890   13.6980   23.3920 H   0  0  0  0  0  0  0  0  0  0  0  0
   -4.0770   12.2730   22.6920 H   0  0  0  0  0  0  0  0  0  0  0  0
    2.4780    5.1710   19.0550 C   0  0  0  0  0  0  0  0  0  0  0  0
    1.6100    4.9590   18.2130 O   0  0  0  0  0  0  0  0  0  0  0  0
    2.8410    6.3950   19.5710 N   0  0  0  0  0  0  0  0  0  0  0  0
    3.6000    6.4130   20.2470 H   0  0  0  0  0  0  0  0  0  0  0  0
    4.6390    1.8190   20.7530 C   0  0  0  0  0  0  0  0  0  0  0  0
    3.4190    2.1640   21.1890 C   0  0  0  0  0  0  0  0  0  0  0  0
    2.7250    3.2870   20.6010 C   0  0  0  0  0  0  0  0  0  0  0  0
    3.2660    4.0190   19.6090 C   0  0  0  0  0  0  0  0  0  0  0  0
    4.6260    3.6310   19.1260 C   0  0  0  0  0  0  0  0  0  0  0  0
    5.1950    4.2440   18.2240 O   0  0  0  0  0  0  0  0  0  0  0  0
    5.2170    2.5510   19.7400 N   0  0  0  0  0  0  0  0  0  0  0  0
    2.9190    1.6190   21.9850 H   0  0  0  0  0  0  0  0  0  0  0  0
    1.7380    3.5180   20.9970 H   0  0  0  0  0  0  0  0  0  0  0  0
    6.1390    2.3010   19.4000 H   0  0  0  0  0  0  0  0  0  0  0  0
    5.4270    0.6730   21.3050 C   0  0  0  0  0  0  0  0  0  0  0  0
    6.1570    1.0290   22.0400 H   0  0  0  0  0  0  0  0  0  0  0  0
    4.7850   -0.0620   21.8010 H   0  0  0  0  0  0  0  0  0  0  0  0
    5.9670    0.1580   20.5020 H   0  0  0  0  0  0  0  0  0  0  0  0
  1 28  1  0  0  0  0
  1  6  1  0  0  0  0
  2  1  2  0  0  0  0
  3  2  1  0  0  0  0
  3  4  2  0  0  0  0
  4  5  1  0  0  0  0
  5  6  2  0  0  0  0
  5 10  1  0  0  0  0
  7  2  1  0  0  0  0
  8  3  1  0  0  0  0
  9  4  1  0  0  0  0
 10 11  1  0  0  0  0
 11 19  1  0  0  0  0
 11 12  2  0  0  0  0
 12 20  1  0  0  0  0
 13 12  1  0  0  0  0
 13 18  1  0  0  0  0
 14 13  2  0  0  0  0
 15 10  2  0  0  0  0
 15 14  1  0  0  0  0
 16 14  1  0  0  0  0
 16 23  1  0  0  0  0
 16 17  1  0  0  0  0
 17 24  1  0  0  0  0
 17 18  1  0  0  0  0
 21 15  1  0  0  0  0
 22 16  1  0  0  0  0
 25 17  1  0  0  0  0
 26 28  1  0  0  0  0
 26 33  1  0  0  0  0
 27 26  2  0  0  0  0
 28 29  1  0  0  0  0
 30 31  2  0  0  0  0
 30 40  1  0  0  0  0
 31 37  1  0  0  0  0
 32 38  1  0  0  0  0
 32 31  1  0  0  0  0
 33 32  2  0  0  0  0
 34 33  1  0  0  0  0
 34 36  1  0  0  0  0
 35 34  2  0  0  0  0
 36 30  1  0  0  0  0
 39 36  1  0  0  0  0
 40 42  1  0  0  0  0
 40 41  1  0  0  0  0
 43 40  1  0  0  0  0
M  END
>  <MODEL>
6

>  <REMARK>
 VINA RESULT:    -7.776      2.707      9.138
 INTER + INTRA:          -9.908
 INTER:                  -9.243
 INTRA:                  -0.665
 UNBOUND:                -0.542
  Name = 
  4 active torsions:
  status: ('A' for Active; 'I' for Inactive)
    1  A    between atoms: C_1  and  C_2
    2  A    between atoms: C_5  and  C_6
    3  A    between atoms: N_8  and  C_9
    4  A    between atoms: C_13  and  C_14
                            x       y       z     vdW  Elec       q    Type
                         _______ _______ _______ _____ _____    ______ ____

>  <TORSDO>
F 4

$$$$
=
 OpenBabel07192307433D

 43 46  0  0  0  0  0  0  0  0999 V2000
    0.7770    9.6400   19.6420 C   0  0  0  0  0  0  0  0  0  0  0  0
    1.2860   10.2960   18.5280 C   0  0  0  0  0  0  0  0  0  0  0  0
    2.2040    9.6320   17.7230 C   0  0  0  0  0  0  0  0  0  0  0  0
    2.5800    8.3330   18.0470 C   0  0  0  0  0  0  0  0  0  0  0  0
    2.0220    7.7220   19.1680 C   0  0  0  0  0  0  0  0  0  0  0  0
    1.1340    8.3830   19.9520 N   0  0  0  0  0  0  0  0  0  0  0  0
    0.9890   11.3100   18.2860 H   0  0  0  0  0  0  0  0  0  0  0  0
    2.6270   10.1260   16.8520 H   0  0  0  0  0  0  0  0  0  0  0  0
    3.3120    7.8250   17.4290 H   0  0  0  0  0  0  0  0  0  0  0  0
    2.3500    6.3410   19.6000 C   0  0  0  0  0  0  0  0  0  0  0  0
    1.6550    5.7500   20.6900 C   0  0  0  0  0  0  0  0  0  0  0  0
    1.9290    4.4510   21.1360 C   0  0  0  0  0  0  0  0  0  0  0  0
    2.9110    3.7440   20.4850 C   0  0  0  0  0  0  0  0  0  0  0  0
    3.6010    4.2780   19.4120 C   0  0  0  0  0  0  0  0  0  0  0  0
    3.3310    5.5600   18.9530 C   0  0  0  0  0  0  0  0  0  0  0  0
    4.5230    3.2560   18.8700 C   0  0  0  0  0  0  0  0  0  0  0  0
    4.4970    2.2650   20.0360 C   0  0  0  0  0  0  0  0  0  0  0  0
    3.2830    2.4620   20.7980 O   0  0  0  0  0  0  0  0  0  0  0  0
    0.8730    6.3170   21.1970 H   0  0  0  0  0  0  0  0  0  0  0  0
    1.3800    4.0190   21.9650 H   0  0  0  0  0  0  0  0  0  0  0  0
    3.8660    5.9290   18.0840 H   0  0  0  0  0  0  0  0  0  0  0  0
    5.5320    3.6270   18.6740 H   0  0  0  0  0  0  0  0  0  0  0  0
    4.1030    2.8080   17.9630 H   0  0  0  0  0  0  0  0  0  0  0  0
    4.5420    1.2300   19.6860 H   0  0  0  0  0  0  0  0  0  0  0  0
    5.3450    2.4300   20.7130 H   0  0  0  0  0  0  0  0  0  0  0  0
    0.0640   11.5950   20.9780 C   0  0  0  0  0  0  0  0  0  0  0  0
    1.0550   12.3060   20.8390 O   0  0  0  0  0  0  0  0  0  0  0  0
   -0.1330   10.3450   20.4370 N   0  0  0  0  0  0  0  0  0  0  0  0
   -1.0220    9.8870   20.6220 H   0  0  0  0  0  0  0  0  0  0  0  0
   -3.2710   13.1460   23.2720 C   0  0  0  0  0  0  0  0  0  0  0  0
   -2.7840   13.8000   22.2080 C   0  0  0  0  0  0  0  0  0  0  0  0
   -1.6710   13.2560   21.4640 C   0  0  0  0  0  0  0  0  0  0  0  0
   -1.0890   12.0900   21.8030 C   0  0  0  0  0  0  0  0  0  0  0  0
   -1.6360   11.3640   22.9900 C   0  0  0  0  0  0  0  0  0  0  0  0
   -1.1660   10.2930   23.3690 O   0  0  0  0  0  0  0  0  0  0  0  0
   -2.6950   11.9520   23.6420 N   0  0  0  0  0  0  0  0  0  0  0  0
   -3.2020   14.7460   21.8750 H   0  0  0  0  0  0  0  0  0  0  0  0
   -1.3190   13.8330   20.6100 H   0  0  0  0  0  0  0  0  0  0  0  0
   -3.0540   11.4450   24.4430 H   0  0  0  0  0  0  0  0  0  0  0  0
   -4.4190   13.6380   24.0980 C   0  0  0  0  0  0  0  0  0  0  0  0
   -5.3530   13.1690   23.7710 H   0  0  0  0  0  0  0  0  0  0  0  0
   -4.2840   13.4100   25.1600 H   0  0  0  0  0  0  0  0  0  0  0  0
   -4.5230   14.7240   23.9990 H   0  0  0  0  0  0  0  0  0  0  0  0
  1  6  1  0  0  0  0
  1 28  1  0  0  0  0
  2  1  2  0  0  0  0
  3  4  2  0  0  0  0
  3  2  1  0  0  0  0
  4  5  1  0  0  0  0
  5 10  1  0  0  0  0
  5  6  2  0  0  0  0
  7  2  1  0  0  0  0
  8  3  1  0  0  0  0
  9  4  1  0  0  0  0
 10 11  1  0  0  0  0
 11 12  2  0  0  0  0
 11 19  1  0  0  0  0
 12 20  1  0  0  0  0
 13 18  1  0  0  0  0
 13 12  1  0  0  0  0
 14 13  2  0  0  0  0
 15 14  1  0  0  0  0
 15 10  2  0  0  0  0
 16 14  1  0  0  0  0
 16 17  1  0  0  0  0
 17 25  1  0  0  0  0
 17 18  1  0  0  0  0
 21 15  1  0  0  0  0
 22 16  1  0  0  0  0
 23 16  1  0  0  0  0
 24 17  1  0  0  0  0
 26 33  1  0  0  0  0
 27 26  2  0  0  0  0
 28 29  1  0  0  0  0
 28 26  1  0  0  0  0
 30 36  1  0  0  0  0
 30 40  1  0  0  0  0
 31 30  2  0  0  0  0
 32 33  2  0  0  0  0
 32 31  1  0  0  0  0
 33 34  1  0  0  0  0
 34 35  2  0  0  0  0
 34 36  1  0  0  0  0
 36 39  1  0  0  0  0
 37 31  1  0  0  0  0
 38 32  1  0  0  0  0
 40 42  1  0  0  0  0
 41 40  1  0  0  0  0
 43 40  1  0  0  0  0
M  END
>  <MODEL>
7

>  <REMARK>
 VINA RESULT:    -7.758      3.039      5.055
 INTER + INTRA:          -9.888
 INTER:                  -9.238
 INTRA:                  -0.650
 UNBOUND:                -0.542
  Name = 
  4 active torsions:
  status: ('A' for Active; 'I' for Inactive)
    1  A    between atoms: C_1  and  C_2
    2  A    between atoms: C_5  and  C_6
    3  A    between atoms: N_8  and  C_9
    4  A    between atoms: C_13  and  C_14
                            x       y       z     vdW  Elec       q    Type
                         _______ _______ _______ _____ _____    ______ ____

>  <TORSDO>
F 4

$$$$
=
 OpenBabel07192307433D

 43 46  0  0  0  0  0  0  0  0999 V2000
    0.9570    8.5230   20.8490 C   0  0  0  0  0  0  0  0  0  0  0  0
    1.2410    9.2740   21.9830 C   0  0  0  0  0  0  0  0  0  0  0  0
    0.6070   10.4990   22.1520 C   0  0  0  0  0  0  0  0  0  0  0  0
   -0.2990   10.9350   21.1900 C   0  0  0  0  0  0  0  0  0  0  0  0
   -0.5550   10.1300   20.0820 C   0  0  0  0  0  0  0  0  0  0  0  0
    0.0780    8.9410   19.9230 N   0  0  0  0  0  0  0  0  0  0  0  0
    1.9510    8.9260   22.7260 H   0  0  0  0  0  0  0  0  0  0  0  0
    0.8190   11.1110   23.0240 H   0  0  0  0  0  0  0  0  0  0  0  0
   -0.7770   11.9000   21.3130 H   0  0  0  0  0  0  0  0  0  0  0  0
   -1.5030   10.4980   19.0010 C   0  0  0  0  0  0  0  0  0  0  0  0
   -2.4810   11.5050   19.2210 C   0  0  0  0  0  0  0  0  0  0  0  0
   -3.3980   11.8860   18.2340 C   0  0  0  0  0  0  0  0  0  0  0  0
   -3.3340   11.2460   17.0190 C   0  0  0  0  0  0  0  0  0  0  0  0
   -2.3890   10.2710   16.7600 C   0  0  0  0  0  0  0  0  0  0  0  0
   -1.4660    9.8920   17.7270 C   0  0  0  0  0  0  0  0  0  0  0  0
   -2.5120    9.8360   15.3520 C   0  0  0  0  0  0  0  0  0  0  0  0
   -3.8840   10.4330   15.0350 C   0  0  0  0  0  0  0  0  0  0  0  0
   -4.1540   11.5170   15.9540 O   0  0  0  0  0  0  0  0  0  0  0  0
   -2.5210   12.0110   20.1870 H   0  0  0  0  0  0  0  0  0  0  0  0
   -4.1300   12.6620   18.4230 H   0  0  0  0  0  0  0  0  0  0  0  0
   -0.7160    9.1510   17.4740 H   0  0  0  0  0  0  0  0  0  0  0  0
   -2.4990    8.7510   15.2190 H   0  0  0  0  0  0  0  0  0  0  0  0
   -1.7300   10.3000   14.7420 H   0  0  0  0  0  0  0  0  0  0  0  0
   -3.9330   10.8080   14.0080 H   0  0  0  0  0  0  0  0  0  0  0  0
   -4.6780    9.6850   15.1590 H   0  0  0  0  0  0  0  0  0  0  0  0
    2.3680    6.9100   19.6160 C   0  0  0  0  0  0  0  0  0  0  0  0
    2.5820    7.5660   18.6010 O   0  0  0  0  0  0  0  0  0  0  0  0
    1.6260    7.3030   20.7060 N   0  0  0  0  0  0  0  0  0  0  0  0
    1.5580    6.6550   21.4870 H   0  0  0  0  0  0  0  0  0  0  0  0
    4.1910    2.9890   19.9200 C   0  0  0  0  0  0  0  0  0  0  0  0
    4.8530    4.0360   19.4050 C   0  0  0  0  0  0  0  0  0  0  0  0
    4.2170    5.3300   19.3190 C   0  0  0  0  0  0  0  0  0  0  0  0
    2.9550    5.5340   19.7430 C   0  0  0  0  0  0  0  0  0  0  0  0
    2.2210    4.3650   20.3160 C   0  0  0  0  0  0  0  0  0  0  0  0
    1.0670    4.4610   20.7280 O   0  0  0  0  0  0  0  0  0  0  0  0
    2.9000    3.1690   20.3610 N   0  0  0  0  0  0  0  0  0  0  0  0
    5.8740    3.9470   19.0430 H   0  0  0  0  0  0  0  0  0  0  0  0
    4.8040    6.1410   18.8910 H   0  0  0  0  0  0  0  0  0  0  0  0
    2.3870    2.3870   20.7530 H   0  0  0  0  0  0  0  0  0  0  0  0
    4.7740    1.6160   20.0460 C   0  0  0  0  0  0  0  0  0  0  0  0
    5.8650    1.6560   19.9690 H   0  0  0  0  0  0  0  0  0  0  0  0
    4.5220    1.1540   21.0060 H   0  0  0  0  0  0  0  0  0  0  0  0
    4.3940    0.9650   19.2510 H   0  0  0  0  0  0  0  0  0  0  0  0
  1  2  1  0  0  0  0
  2  3  2  0  0  0  0
  2  7  1  0  0  0  0
  3  8  1  0  0  0  0
  4  9  1  0  0  0  0
  4  3  1  0  0  0  0
  5  4  2  0  0  0  0
  6  5  1  0  0  0  0
  6  1  2  0  0  0  0
 10 11  1  0  0  0  0
 10  5  1  0  0  0  0
 11 19  1  0  0  0  0
 12 20  1  0  0  0  0
 12 11  2  0  0  0  0
 13 12  1  0  0  0  0
 14 13  2  0  0  0  0
 14 15  1  0  0  0  0
 15 10  2  0  0  0  0
 16 14  1  0  0  0  0
 17 25  1  0  0  0  0
 17 16  1  0  0  0  0
 17 18  1  0  0  0  0
 18 13  1  0  0  0  0
 21 15  1  0  0  0  0
 22 16  1  0  0  0  0
 23 16  1  0  0  0  0
 24 17  1  0  0  0  0
 26 33  1  0  0  0  0
 26 28  1  0  0  0  0
 27 26  2  0  0  0  0
 28  1  1  0  0  0  0
 28 29  1  0  0  0  0
 30 40  1  0  0  0  0
 30 36  1  0  0  0  0
 31 30  2  0  0  0  0
 32 31  1  0  0  0  0
 32 33  2  0  0  0  0
 33 34  1  0  0  0  0
 34 36  1  0  0  0  0
 34 35  2  0  0  0  0
 36 39  1  0  0  0  0
 37 31  1  0  0  0  0
 38 32  1  0  0  0  0
 40 42  1  0  0  0  0
 41 40  1  0  0  0  0
 43 40  1  0  0  0  0
M  END
>  <MODEL>
8

>  <REMARK>
 VINA RESULT:    -7.693      3.006      8.502
 INTER + INTRA:          -9.809
 INTER:                  -8.999
 INTRA:                  -0.811
 UNBOUND:                -0.542
  Name = 
  4 active torsions:
  status: ('A' for Active; 'I' for Inactive)
    1  A    between atoms: C_1  and  C_2
    2  A    between atoms: C_5  and  C_6
    3  A    between atoms: N_8  and  C_9
    4  A    between atoms: C_13  and  C_14
                            x       y       z     vdW  Elec       q    Type
                         _______ _______ _______ _____ _____    ______ ____

>  <TORSDO>
F 4

$$$$
=
 OpenBabel07192307433D

 43 46  0  0  0  0  0  0  0  0999 V2000
    2.8390    6.4880   18.8450 C   0  0  0  0  0  0  0  0  0  0  0  0
    2.5560    5.5000   19.7800 C   0  0  0  0  0  0  0  0  0  0  0  0
    1.7130    5.8040   20.8420 C   0  0  0  0  0  0  0  0  0  0  0  0
    1.1690    7.0810   20.9350 C   0  0  0  0  0  0  0  0  0  0  0  0
    1.4770    8.0250   19.9580 C   0  0  0  0  0  0  0  0  0  0  0  0
    2.3100    7.7190   18.9310 N   0  0  0  0  0  0  0  0  0  0  0  0
    2.9870    4.5070   19.7000 H   0  0  0  0  0  0  0  0  0  0  0  0
    1.4840    5.0530   21.5930 H   0  0  0  0  0  0  0  0  0  0  0  0
    0.5290    7.3220   21.7760 H   0  0  0  0  0  0  0  0  0  0  0  0
    0.9500    9.4120   19.9600 C   0  0  0  0  0  0  0  0  0  0  0  0
   -0.0410    9.7980   20.9030 C   0  0  0  0  0  0  0  0  0  0  0  0
   -0.5700   11.0940   20.9450 C   0  0  0  0  0  0  0  0  0  0  0  0
   -0.1030   12.0060   20.0290 C   0  0  0  0  0  0  0  0  0  0  0  0
    0.8700   11.6740   19.1040 C   0  0  0  0  0  0  0  0  0  0  0  0
    1.4110   10.3960   19.0600 C   0  0  0  0  0  0  0  0  0  0  0  0
    1.2270   12.8780   18.3210 C   0  0  0  0  0  0  0  0  0  0  0  0
    0.0430   13.7710   18.7000 C   0  0  0  0  0  0  0  0  0  0  0  0
   -0.5160   13.3110   19.9520 O   0  0  0  0  0  0  0  0  0  0  0  0
   -0.4020    9.0680   21.6300 H   0  0  0  0  0  0  0  0  0  0  0  0
   -1.3210   11.3670   21.6780 H   0  0  0  0  0  0  0  0  0  0  0  0
    2.2000   10.1850   18.3460 H   0  0  0  0  0  0  0  0  0  0  0  0
    1.2790   12.7060   17.2430 H   0  0  0  0  0  0  0  0  0  0  0  0
    2.1710   13.2990   18.6820 H   0  0  0  0  0  0  0  0  0  0  0  0
    0.3450   14.8180   18.7990 H   0  0  0  0  0  0  0  0  0  0  0  0
   -0.7490   13.7180   17.9410 H   0  0  0  0  0  0  0  0  0  0  0  0
    4.9340    5.5470   17.9290 C   0  0  0  0  0  0  0  0  0  0  0  0
    5.4680    5.1900   18.9760 O   0  0  0  0  0  0  0  0  0  0  0  0
    3.7030    6.1490   17.7990 N   0  0  0  0  0  0  0  0  0  0  0  0
    3.3820    6.3640   16.8590 H   0  0  0  0  0  0  0  0  0  0  0  0
    6.8650    4.8040   14.1200 C   0  0  0  0  0  0  0  0  0  0  0  0
    5.6760    4.2630   14.4240 C   0  0  0  0  0  0  0  0  0  0  0  0
    5.0590    4.5310   15.7030 C   0  0  0  0  0  0  0  0  0  0  0  0
    5.6420    5.3210   16.6250 C   0  0  0  0  0  0  0  0  0  0  0  0
    6.9670    5.9210   16.2810 C   0  0  0  0  0  0  0  0  0  0  0  0
    7.5710    6.6550   17.0630 O   0  0  0  0  0  0  0  0  0  0  0  0
    7.4850    5.6150   15.0440 N   0  0  0  0  0  0  0  0  0  0  0  0
    5.1460    3.6170   13.7310 H   0  0  0  0  0  0  0  0  0  0  0  0
    4.0940    4.0640   15.8920 H   0  0  0  0  0  0  0  0  0  0  0  0
    8.3830    6.0310   14.8280 H   0  0  0  0  0  0  0  0  0  0  0  0
    7.5740    4.5790   12.8210 C   0  0  0  0  0  0  0  0  0  0  0  0
    8.4910    5.1750   12.7780 H   0  0  0  0  0  0  0  0  0  0  0  0
    7.8520    3.5280   12.6850 H   0  0  0  0  0  0  0  0  0  0  0  0
    6.9330    4.8680   11.9810 H   0  0  0  0  0  0  0  0  0  0  0  0
  1  6  2  0  0  0  0
  1  2  1  0  0  0  0
  2  3  2  0  0  0  0
  3  4  1  0  0  0  0
  3  8  1  0  0  0  0
  4  9  1  0  0  0  0
  5 10  1  0  0  0  0
  5  4  2  0  0  0  0
  6  5  1  0  0  0  0
  7  2  1  0  0  0  0
 10 11  1  0  0  0  0
 11 12  2  0  0  0  0
 11 19  1  0  0  0  0
 12 20  1  0  0  0  0
 13 12  1  0  0  0  0
 14 13  2  0  0  0  0
 15 14  1  0  0  0  0
 15 10  2  0  0  0  0
 16 23  1  0  0  0  0
 16 17  1  0  0  0  0
 16 14  1  0  0  0  0
 17 24  1  0  0  0  0
 17 18  1  0  0  0  0
 18 13  1  0  0  0  0
 21 15  1  0  0  0  0
 22 16  1  0  0  0  0
 25 17  1  0  0  0  0
 26 27  2  0  0  0  0
 28 26  1  0  0  0  0
 28  1  1  0  0  0  0
 29 28  1  0  0  0  0
 30 31  2  0  0  0  0
 30 36  1  0  0  0  0
 31 32  1  0  0  0  0
 32 38  1  0  0  0  0
 32 33  2  0  0  0  0
 33 26  1  0  0  0  0
 34 33  1  0  0  0  0
 34 35  2  0  0  0  0
 36 34  1  0  0  0  0
 37 31  1  0  0  0  0
 39 36  1  0  0  0  0
 40 30  1  0  0  0  0
 41 40  1  0  0  0  0
 42 40  1  0  0  0  0
 43 40  1  0  0  0  0
M  END
>  <MODEL>
9

>  <REMARK>
 VINA RESULT:    -7.689      2.394      8.709
 INTER + INTRA:          -9.804
 INTER:                  -9.387
 INTRA:                  -0.417
 UNBOUND:                -0.542
  Name = 
  4 active torsions:
  status: ('A' for Active; 'I' for Inactive)
    1  A    between atoms: C_1  and  C_2
    2  A    between atoms: C_5  and  C_6
    3  A    between atoms: N_8  and  C_9
    4  A    between atoms: C_13  and  C_14
                            x       y       z     vdW  Elec       q    Type
                         _______ _______ _______ _____ _____    ______ ____

>  <TORSDO>
F 4

$$$$
=
 OpenBabel07192307433D

 43 46  0  0  0  0  0  0  0  0999 V2000
    0.9090    9.5500   19.4780 C   0  0  0  0  0  0  0  0  0  0  0  0
    1.3570   10.2370   18.3570 C   0  0  0  0  0  0  0  0  0  0  0  0
    2.2860    9.6250   17.5240 C   0  0  0  0  0  0  0  0  0  0  0  0
    2.7340    8.3430   17.8280 C   0  0  0  0  0  0  0  0  0  0  0  0
    2.2350    7.6990   18.9580 C   0  0  0  0  0  0  0  0  0  0  0  0
    1.3350    8.3100   19.7690 N   0  0  0  0  0  0  0  0  0  0  0  0
    1.0050   11.2370   18.1300 H   0  0  0  0  0  0  0  0  0  0  0  0
    2.6630   10.1450   16.6470 H   0  0  0  0  0  0  0  0  0  0  0  0
    3.4740    7.8760   17.1890 H   0  0  0  0  0  0  0  0  0  0  0  0
    2.6410    6.3320   19.3710 C   0  0  0  0  0  0  0  0  0  0  0  0
    3.7730    5.7130   18.7750 C   0  0  0  0  0  0  0  0  0  0  0  0
    4.1960    4.4260   19.1310 C   0  0  0  0  0  0  0  0  0  0  0  0
    3.4720    3.7550   20.0870 C   0  0  0  0  0  0  0  0  0  0  0  0
    2.3720    4.3280   20.7000 C   0  0  0  0  0  0  0  0  0  0  0  0
    1.9500    5.6080   20.3650 C   0  0  0  0  0  0  0  0  0  0  0  0
    1.8610    3.4070   21.7390 C   0  0  0  0  0  0  0  0  0  0  0  0
    2.5980    2.1350   21.3170 C   0  0  0  0  0  0  0  0  0  0  0  0
    3.7670    2.4980   20.5450 O   0  0  0  0  0  0  0  0  0  0  0  0
    4.3450    6.2560   18.0210 H   0  0  0  0  0  0  0  0  0  0  0  0
    5.0670    3.9770   18.6670 H   0  0  0  0  0  0  0  0  0  0  0  0
    1.1070    6.0380   20.8960 H   0  0  0  0  0  0  0  0  0  0  0  0
    0.7760    3.2750   21.7190 H   0  0  0  0  0  0  0  0  0  0  0  0
    2.1830    3.7380   22.7320 H   0  0  0  0  0  0  0  0  0  0  0  0
    2.9050    1.5410   22.1830 H   0  0  0  0  0  0  0  0  0  0  0  0
    1.9630    1.5030   20.6820 H   0  0  0  0  0  0  0  0  0  0  0  0
    0.1650   11.4260   20.9070 C   0  0  0  0  0  0  0  0  0  0  0  0
    1.1500   12.1520   20.8130 O   0  0  0  0  0  0  0  0  0  0  0  0
   -0.0150   10.2030   20.3010 N   0  0  0  0  0  0  0  0  0  0  0  0
   -0.9000    9.7280   20.4550 H   0  0  0  0  0  0  0  0  0  0  0  0
   -3.2150   12.8120   23.2400 C   0  0  0  0  0  0  0  0  0  0  0  0
   -2.8120   13.4540   22.1330 C   0  0  0  0  0  0  0  0  0  0  0  0
   -1.6810   12.9660   21.3780 C   0  0  0  0  0  0  0  0  0  0  0  0
   -0.9990   11.8650   21.7470 C   0  0  0  0  0  0  0  0  0  0  0  0
   -1.4520   11.1530   22.9810 C   0  0  0  0  0  0  0  0  0  0  0  0
   -0.8880   10.1400   23.3900 O   0  0  0  0  0  0  0  0  0  0  0  0
   -2.5360   11.6850   23.6410 N   0  0  0  0  0  0  0  0  0  0  0  0
   -3.3140   14.3490   21.7740 H   0  0  0  0  0  0  0  0  0  0  0  0
   -1.4010   13.5300   20.4890 H   0  0  0  0  0  0  0  0  0  0  0  0
   -2.8300   11.1890   24.4750 H   0  0  0  0  0  0  0  0  0  0  0  0
   -4.3740   13.2500   24.0800 C   0  0  0  0  0  0  0  0  0  0  0  0
   -4.2830   12.8500   25.0950 H   0  0  0  0  0  0  0  0  0  0  0  0
   -4.4350   14.3410   24.1540 H   0  0  0  0  0  0  0  0  0  0  0  0
   -5.3150   12.8900   23.6500 H   0  0  0  0  0  0  0  0  0  0  0  0
  1  6  1  0  0  0  0
  1 28  1  0  0  0  0
  2  1  2  0  0  0  0
  3  4  2  0  0  0  0
  3  2  1  0  0  0  0
  4  5  1  0  0  0  0
  5 10  1  0  0  0  0
  5  6  2  0  0  0  0
  7  2  1  0  0  0  0
  8  3  1  0  0  0  0
  9  4  1  0  0  0  0
 10 15  1  0  0  0  0
 11 12  1  0  0  0  0
 11 10  2  0  0  0  0
 12 13  2  0  0  0  0
 13 18  1  0  0  0  0
 13 14  1  0  0  0  0
 14 16  1  0  0  0  0
 15 14  2  0  0  0  0
 15 21  1  0  0  0  0
 16 23  1  0  0  0  0
 17 16  1  0  0  0  0
 17 24  1  0  0  0  0
 18 17  1  0  0  0  0
 19 11  1  0  0  0  0
 20 12  1  0  0  0  0
 22 16  1  0  0  0  0
 25 17  1  0  0  0  0
 26 33  1  0  0  0  0
 27 26  2  0  0  0  0
 28 29  1  0  0  0  0
 28 26  1  0  0  0  0
 30 36  1  0  0  0  0
 30 40  1  0  0  0  0
 31 30  2  0  0  0  0
 32 33  2  0  0  0  0
 32 31  1  0  0  0  0
 33 34  1  0  0  0  0
 34 35  2  0  0  0  0
 34 36  1  0  0  0  0
 36 39  1  0  0  0  0
 37 31  1  0  0  0  0
 38 32  1  0  0  0  0
 40 42  1  0  0  0  0
 40 41  1  0  0  0  0
 43 40  1  0  0  0  0
M  END
>  <MODEL>
10

>  <REMARK>
 VINA RESULT:    -7.686      3.020      5.140
 INTER + INTRA:          -9.801
 INTER:                  -9.118
 INTRA:                  -0.683
 UNBOUND:                -0.542
  Name = 
  4 active torsions:
  status: ('A' for Active; 'I' for Inactive)
    1  A    between atoms: C_1  and  C_2
    2  A    between atoms: C_5  and  C_6
    3  A    between atoms: N_8  and  C_9
    4  A    between atoms: C_13  and  C_14
                            x       y       z     vdW  Elec       q    Type
                         _______ _______ _______ _____ _____    ______ ____

>  <TORSDO>
F 4

$$$$
=
 OpenBabel07192307433D

 43 46  0  0  0  0  0  0  0  0999 V2000
    0.6570    9.6290   19.5270 C   0  0  0  0  0  0  0  0  0  0  0  0
    1.2610   10.3320   18.4930 C   0  0  0  0  0  0  0  0  0  0  0  0
    2.2840    9.7230   17.7760 C   0  0  0  0  0  0  0  0  0  0  0  0
    2.6680    8.4270   18.1060 C   0  0  0  0  0  0  0  0  0  0  0  0
    2.0140    7.7670   19.1440 C   0  0  0  0  0  0  0  0  0  0  0  0
    1.0230    8.3760   19.8430 N   0  0  0  0  0  0  0  0  0  0  0  0
    0.9570   11.3440   18.2450 H   0  0  0  0  0  0  0  0  0  0  0  0
    2.7820   10.2550   16.9700 H   0  0  0  0  0  0  0  0  0  0  0  0
    3.4810    7.9610   17.5600 H   0  0  0  0  0  0  0  0  0  0  0  0
    2.3420    6.3850   19.5750 C   0  0  0  0  0  0  0  0  0  0  0  0
    1.6510    5.7950   20.6680 C   0  0  0  0  0  0  0  0  0  0  0  0
    1.9240    4.4960   21.1120 C   0  0  0  0  0  0  0  0  0  0  0  0
    2.9020    3.7870   20.4560 C   0  0  0  0  0  0  0  0  0  0  0  0
    3.5880    4.3190   19.3800 C   0  0  0  0  0  0  0  0  0  0  0  0
    3.3180    5.6020   18.9220 C   0  0  0  0  0  0  0  0  0  0  0  0
    4.5050    3.2960   18.8330 C   0  0  0  0  0  0  0  0  0  0  0  0
    4.4830    2.3050   20.0000 C   0  0  0  0  0  0  0  0  0  0  0  0
    3.2730    2.5040   20.7680 O   0  0  0  0  0  0  0  0  0  0  0  0
    0.8720    6.3640   21.1790 H   0  0  0  0  0  0  0  0  0  0  0  0
    1.3790    4.0650   21.9440 H   0  0  0  0  0  0  0  0  0  0  0  0
    3.8490    5.9700   18.0510 H   0  0  0  0  0  0  0  0  0  0  0  0
    5.5140    3.6660   18.6320 H   0  0  0  0  0  0  0  0  0  0  0  0
    4.0800    2.8490   17.9290 H   0  0  0  0  0  0  0  0  0  0  0  0
    4.5240    1.2700   19.6490 H   0  0  0  0  0  0  0  0  0  0  0  0
    5.3360    2.4690   20.6720 H   0  0  0  0  0  0  0  0  0  0  0  0
   -0.2120   11.4180   20.9960 C   0  0  0  0  0  0  0  0  0  0  0  0
    0.8210   12.0590   21.1640 O   0  0  0  0  0  0  0  0  0  0  0  0
   -0.3580   10.2800   20.2350 N   0  0  0  0  0  0  0  0  0  0  0  0
   -1.2880    9.8740   20.1710 H   0  0  0  0  0  0  0  0  0  0  0  0
   -3.8180   12.7060   23.0280 C   0  0  0  0  0  0  0  0  0  0  0  0
   -2.7610   12.2300   23.7020 C   0  0  0  0  0  0  0  0  0  0  0  0
   -1.5740   11.8090   22.9950 C   0  0  0  0  0  0  0  0  0  0  0  0
   -1.4820   11.8780   21.6530 C   0  0  0  0  0  0  0  0  0  0  0  0
   -2.6620   12.4090   20.9050 C   0  0  0  0  0  0  0  0  0  0  0  0
   -2.6650   12.5070   19.6800 O   0  0  0  0  0  0  0  0  0  0  0  0
   -3.7520   12.7870   21.6550 N   0  0  0  0  0  0  0  0  0  0  0  0
   -2.7630   12.1460   24.7860 H   0  0  0  0  0  0  0  0  0  0  0  0
   -0.7490   11.4310   23.5970 H   0  0  0  0  0  0  0  0  0  0  0  0
   -4.5430   13.1460   21.1320 H   0  0  0  0  0  0  0  0  0  0  0  0
   -5.0850   13.1630   23.6810 C   0  0  0  0  0  0  0  0  0  0  0  0
   -5.7870   12.3280   23.7790 H   0  0  0  0  0  0  0  0  0  0  0  0
   -4.9050   13.5680   24.6820 H   0  0  0  0  0  0  0  0  0  0  0  0
   -5.5620   13.9470   23.0830 H   0  0  0  0  0  0  0  0  0  0  0  0
  1  6  1  0  0  0  0
  1 28  1  0  0  0  0
  2  1  2  0  0  0  0
  3  4  2  0  0  0  0
  3  2  1  0  0  0  0
  4  5  1  0  0  0  0
  5 10  1  0  0  0  0
  5  6  2  0  0  0  0
  7  2  1  0  0  0  0
  8  3  1  0  0  0  0
  9  4  1  0  0  0  0
 10 11  1  0  0  0  0
 11 12  2  0  0  0  0
 11 19  1  0  0  0  0
 12 20  1  0  0  0  0
 13 18  1  0  0  0  0
 13 12  1  0  0  0  0
 14 13  2  0  0  0  0
 15 14  1  0  0  0  0
 15 10  2  0  0  0  0
 16 14  1  0  0  0  0
 16 17  1  0  0  0  0
 17 25  1  0  0  0  0
 17 18  1  0  0  0  0
 21 15  1  0  0  0  0
 22 16  1  0  0  0  0
 23 16  1  0  0  0  0
 24 17  1  0  0  0  0
 26 27  2  0  0  0  0
 26 33  1  0  0  0  0
 28 26  1  0  0  0  0
 29 28  1  0  0  0  0
 30 40  1  0  0  0  0
 30 31  2  0  0  0  0
 31 37  1  0  0  0  0
 32 38  1  0  0  0  0
 32 31  1  0  0  0  0
 33 32  2  0  0  0  0
 34 33  1  0  0  0  0
 34 36  1  0  0  0  0
 35 34  2  0  0  0  0
 36 30  1  0  0  0  0
 39 36  1  0  0  0  0
 40 41  1  0  0  0  0
 40 42  1  0  0  0  0
 43 40  1  0  0  0  0
M  END
>  <MODEL>
11

>  <REMARK>
 VINA RESULT:    -7.633      3.046      4.978
 INTER + INTRA:          -9.736
 INTER:                  -9.023
 INTRA:                  -0.713
 UNBOUND:                -0.542
  Name = 
  4 active torsions:
  status: ('A' for Active; 'I' for Inactive)
    1  A    between atoms: C_1  and  C_2
    2  A    between atoms: C_5  and  C_6
    3  A    between atoms: N_8  and  C_9
    4  A    between atoms: C_13  and  C_14
                            x       y       z     vdW  Elec       q    Type
                         _______ _______ _______ _____ _____    ______ ____

>  <TORSDO>
F 4

$$$$
=
 OpenBabel07192307433D

 43 46  0  0  0  0  0  0  0  0999 V2000
    1.0260   10.1060   19.8370 C   0  0  0  0  0  0  0  0  0  0  0  0
    1.3520   10.6940   18.6210 C   0  0  0  0  0  0  0  0  0  0  0  0
    2.0290    9.9380   17.6720 C   0  0  0  0  0  0  0  0  0  0  0  0
    2.3530    8.6160   17.9590 C   0  0  0  0  0  0  0  0  0  0  0  0
    1.9850    8.0770   19.1890 C   0  0  0  0  0  0  0  0  0  0  0  0
    1.3320    8.8280   20.1120 N   0  0  0  0  0  0  0  0  0  0  0  0
    1.0970   11.7270   18.4080 H   0  0  0  0  0  0  0  0  0  0  0  0
    2.3060   10.3770   16.7170 H   0  0  0  0  0  0  0  0  0  0  0  0
    2.9000    8.0350   17.2250 H   0  0  0  0  0  0  0  0  0  0  0  0
    2.2770    6.6800   19.5960 C   0  0  0  0  0  0  0  0  0  0  0  0
    1.5850    6.0950   20.6900 C   0  0  0  0  0  0  0  0  0  0  0  0
    1.8260    4.7810   21.1110 C   0  0  0  0  0  0  0  0  0  0  0  0
    2.7720    4.0530   20.4310 C   0  0  0  0  0  0  0  0  0  0  0  0
    3.4580    4.5810   19.3530 C   0  0  0  0  0  0  0  0  0  0  0  0
    3.2200    5.8780   18.9170 C   0  0  0  0  0  0  0  0  0  0  0  0
    4.3360    3.5390   18.7780 C   0  0  0  0  0  0  0  0  0  0  0  0
    4.3010    2.5330   19.9300 C   0  0  0  0  0  0  0  0  0  0  0  0
    3.1090    2.7560   20.7190 O   0  0  0  0  0  0  0  0  0  0  0  0
    0.8310    6.6790   21.2210 H   0  0  0  0  0  0  0  0  0  0  0  0
    1.2800    4.3540   21.9450 H   0  0  0  0  0  0  0  0  0  0  0  0
    3.7490    6.2440   18.0440 H   0  0  0  0  0  0  0  0  0  0  0  0
    5.3520    3.8820   18.5670 H   0  0  0  0  0  0  0  0  0  0  0  0
    3.8850    3.1190   17.8730 H   0  0  0  0  0  0  0  0  0  0  0  0
    4.3070    1.5020   19.5640 H   0  0  0  0  0  0  0  0  0  0  0  0
    5.1680    2.6610   20.5920 H   0  0  0  0  0  0  0  0  0  0  0  0
   -0.8970   11.4500   20.6200 C   0  0  0  0  0  0  0  0  0  0  0  0
   -1.6420   11.3160   19.6540 O   0  0  0  0  0  0  0  0  0  0  0  0
    0.3570   10.9020   20.7720 N   0  0  0  0  0  0  0  0  0  0  0  0
    0.8460   11.0840   21.6450 H   0  0  0  0  0  0  0  0  0  0  0  0
   -2.3220   13.7500   24.0060 C   0  0  0  0  0  0  0  0  0  0  0  0
   -3.0300   12.7300   23.5000 C   0  0  0  0  0  0  0  0  0  0  0  0
   -2.5260   11.9820   22.3710 C   0  0  0  0  0  0  0  0  0  0  0  0
   -1.3460   12.2750   21.7910 C   0  0  0  0  0  0  0  0  0  0  0  0
   -0.5610   13.4130   22.3590 C   0  0  0  0  0  0  0  0  0  0  0  0
    0.5260   13.7490   21.8930 O   0  0  0  0  0  0  0  0  0  0  0  0
   -1.1130   14.0720   23.4330 N   0  0  0  0  0  0  0  0  0  0  0  0
   -3.9900   12.4360   23.9160 H   0  0  0  0  0  0  0  0  0  0  0  0
   -3.1460   11.1660   22.0040 H   0  0  0  0  0  0  0  0  0  0  0  0
   -0.5670   14.8410   23.8060 H   0  0  0  0  0  0  0  0  0  0  0  0
   -2.7690   14.5760   25.1720 C   0  0  0  0  0  0  0  0  0  0  0  0
   -2.6270   15.6410   24.9630 H   0  0  0  0  0  0  0  0  0  0  0  0
   -3.8290   14.4190   25.4000 H   0  0  0  0  0  0  0  0  0  0  0  0
   -2.1920   14.3180   26.0670 H   0  0  0  0  0  0  0  0  0  0  0  0
  1  6  1  0  0  0  0
  1 28  1  0  0  0  0
  2  1  2  0  0  0  0
  3  4  2  0  0  0  0
  3  2  1  0  0  0  0
  4  5  1  0  0  0  0
  5 10  1  0  0  0  0
  5  6  2  0  0  0  0
  7  2  1  0  0  0  0
  8  3  1  0  0  0  0
  9  4  1  0  0  0  0
 10 11  1  0  0  0  0
 11 12  2  0  0  0  0
 11 19  1  0  0  0  0
 12 20  1  0  0  0  0
 13 18  1  0  0  0  0
 13 12  1  0  0  0  0
 14 13  2  0  0  0  0
 15 14  1  0  0  0  0
 15 10  2  0  0  0  0
 16 14  1  0  0  0  0
 16 17  1  0  0  0  0
 17 25  1  0  0  0  0
 17 18  1  0  0  0  0
 21 15  1  0  0  0  0
 22 16  1  0  0  0  0
 23 16  1  0  0  0  0
 24 17  1  0  0  0  0
 26 28  1  0  0  0  0
 26 33  1  0  0  0  0
 27 26  2  0  0  0  0
 28 29  1  0  0  0  0
 30 40  1  0  0  0  0
 31 37  1  0  0  0  0
 31 30  2  0  0  0  0
 32 31  1  0  0  0  0
 33 34  1  0  0  0  0
 33 32  2  0  0  0  0
 34 36  1  0  0  0  0
 35 34  2  0  0  0  0
 36 39  1  0  0  0  0
 36 30  1  0  0  0  0
 38 32  1  0  0  0  0
 40 42  1  0  0  0  0
 40 43  1  0  0  0  0
 41 40  1  0  0  0  0
M  END
>  <MODEL>
12

>  <REMARK>
 VINA RESULT:    -7.520      3.090      5.191
 INTER + INTRA:          -9.601
 INTER:                  -8.833
 INTRA:                  -0.768
 UNBOUND:                -0.542
  Name = 
  4 active torsions:
  status: ('A' for Active; 'I' for Inactive)
    1  A    between atoms: C_1  and  C_2
    2  A    between atoms: C_5  and  C_6
    3  A    between atoms: N_8  and  C_9
    4  A    between atoms: C_13  and  C_14
                            x       y       z     vdW  Elec       q    Type
                         _______ _______ _______ _____ _____    ______ ____

>  <TORSDO>
F 4

$$$$
=
 OpenBabel07192307433D

 43 46  0  0  0  0  0  0  0  0999 V2000
    1.6080    7.1940   20.2530 C   0  0  0  0  0  0  0  0  0  0  0  0
    1.3230    6.1670   21.1440 C   0  0  0  0  0  0  0  0  0  0  0  0
    1.8960    4.9180   20.9310 C   0  0  0  0  0  0  0  0  0  0  0  0
    2.7430    4.7340   19.8430 C   0  0  0  0  0  0  0  0  0  0  0  0
    3.0030    5.8080   18.9940 C   0  0  0  0  0  0  0  0  0  0  0  0
    2.4300    7.0190   19.2060 N   0  0  0  0  0  0  0  0  0  0  0  0
    0.6590    6.3190   21.9880 H   0  0  0  0  0  0  0  0  0  0  0  0
    1.6810    4.0940   21.6060 H   0  0  0  0  0  0  0  0  0  0  0  0
    3.1720    3.7550   19.6670 H   0  0  0  0  0  0  0  0  0  0  0  0
    3.8920    5.7210   17.8080 C   0  0  0  0  0  0  0  0  0  0  0  0
    4.3180    6.9050   17.1480 C   0  0  0  0  0  0  0  0  0  0  0  0
    5.1550    6.8760   16.0260 C   0  0  0  0  0  0  0  0  0  0  0  0
    5.5630    5.6480   15.5620 C   0  0  0  0  0  0  0  0  0  0  0  0
    5.1810    4.4730   16.1850 C   0  0  0  0  0  0  0  0  0  0  0  0
    4.3610    4.4890   17.3050 C   0  0  0  0  0  0  0  0  0  0  0  0
    5.8440    3.3320   15.5160 C   0  0  0  0  0  0  0  0  0  0  0  0
    6.3040    4.0360   14.2380 C   0  0  0  0  0  0  0  0  0  0  0  0
    6.3880    5.4590   14.4850 O   0  0  0  0  0  0  0  0  0  0  0  0
    3.9940    7.8760   17.5270 H   0  0  0  0  0  0  0  0  0  0  0  0
    5.4730    7.7930   15.5430 H   0  0  0  0  0  0  0  0  0  0  0  0
    4.1160    3.5500   17.7890 H   0  0  0  0  0  0  0  0  0  0  0  0
    5.1750    2.4950   15.3020 H   0  0  0  0  0  0  0  0  0  0  0  0
    6.6990    2.9900   16.1080 H   0  0  0  0  0  0  0  0  0  0  0  0
    7.2790    3.6670   13.9050 H   0  0  0  0  0  0  0  0  0  0  0  0
    5.5870    3.8810   13.4220 H   0  0  0  0  0  0  0  0  0  0  0  0
    1.1520    9.2030   21.6220 C   0  0  0  0  0  0  0  0  0  0  0  0
    1.8550    8.9450   22.5950 O   0  0  0  0  0  0  0  0  0  0  0  0
    1.0010    8.4320   20.4920 N   0  0  0  0  0  0  0  0  0  0  0  0
    0.4000    8.7910   19.7540 H   0  0  0  0  0  0  0  0  0  0  0  0
   -1.2040   12.8410   21.6820 C   0  0  0  0  0  0  0  0  0  0  0  0
   -1.3220   11.9090   22.6400 C   0  0  0  0  0  0  0  0  0  0  0  0
   -0.5210   10.7070   22.5910 C   0  0  0  0  0  0  0  0  0  0  0  0
    0.3600   10.4780   21.5990 C   0  0  0  0  0  0  0  0  0  0  0  0
    0.4890   11.5190   20.5340 C   0  0  0  0  0  0  0  0  0  0  0  0
    1.2700   11.3930   19.5920 O   0  0  0  0  0  0  0  0  0  0  0  0
   -0.3100   12.6330   20.6560 N   0  0  0  0  0  0  0  0  0  0  0  0
   -2.0120   12.0250   23.4710 H   0  0  0  0  0  0  0  0  0  0  0  0
   -0.6620    9.9880   23.3960 H   0  0  0  0  0  0  0  0  0  0  0  0
   -0.2100   13.3280   19.9260 H   0  0  0  0  0  0  0  0  0  0  0  0
   -1.9930   14.1120   21.6560 C   0  0  0  0  0  0  0  0  0  0  0  0
   -3.0040   13.9270   21.2770 H   0  0  0  0  0  0  0  0  0  0  0  0
   -2.0860   14.5550   22.6530 H   0  0  0  0  0  0  0  0  0  0  0  0
   -1.5090   14.8490   21.0050 H   0  0  0  0  0  0  0  0  0  0  0  0
  1 28  1  0  0  0  0
  1  2  1  0  0  0  0
  2  7  1  0  0  0  0
  3  2  2  0  0  0  0
  3  8  1  0  0  0  0
  4  3  1  0  0  0  0
  5  6  1  0  0  0  0
  5  4  2  0  0  0  0
  6  1  2  0  0  0  0
  9  4  1  0  0  0  0
 10  5  1  0  0  0  0
 11 19  1  0  0  0  0
 11 10  2  0  0  0  0
 12 11  1  0  0  0  0
 13 12  2  0  0  0  0
 13 14  1  0  0  0  0
 14 15  2  0  0  0  0
 15 21  1  0  0  0  0
 15 10  1  0  0  0  0
 16 23  1  0  0  0  0
 16 14  1  0  0  0  0
 17 18  1  0  0  0  0
 17 16  1  0  0  0  0
 18 13  1  0  0  0  0
 20 12  1  0  0  0  0
 22 16  1  0  0  0  0
 24 17  1  0  0  0  0
 25 17  1  0  0  0  0
 26 27  2  0  0  0  0
 28 26  1  0  0  0  0
 29 28  1  0  0  0  0
 30 31  2  0  0  0  0
 31 37  1  0  0  0  0
 32 31  1  0  0  0  0
 32 38  1  0  0  0  0
 33 26  1  0  0  0  0
 33 32  2  0  0  0  0
 34 36  1  0  0  0  0
 34 33  1  0  0  0  0
 35 34  2  0  0  0  0
 36 30  1  0  0  0  0
 39 36  1  0  0  0  0
 40 30  1  0  0  0  0
 40 42  1  0  0  0  0
 41 40  1  0  0  0  0
 43 40  1  0  0  0  0
M  END
>  <MODEL>
13

>  <REMARK>
 VINA RESULT:    -7.434      1.715      2.146
 INTER + INTRA:          -9.497
 INTER:                  -8.755
 INTRA:                  -0.742
 UNBOUND:                -0.542
  Name = 
  4 active torsions:
  status: ('A' for Active; 'I' for Inactive)
    1  A    between atoms: C_1  and  C_2
    2  A    between atoms: C_5  and  C_6
    3  A    between atoms: N_8  and  C_9
    4  A    between atoms: C_13  and  C_14
                            x       y       z     vdW  Elec       q    Type
                         _______ _______ _______ _____ _____    ______ ____

>  <TORSDO>
F 4

$$$$
=
 OpenBabel07192307433D

 43 46  0  0  0  0  0  0  0  0999 V2000
    1.5880    8.3840   20.1670 C   0  0  0  0  0  0  0  0  0  0  0  0
    1.5520    8.5330   21.5480 C   0  0  0  0  0  0  0  0  0  0  0  0
    0.5270    9.2820   22.1140 C   0  0  0  0  0  0  0  0  0  0  0  0
   -0.4370    9.8510   21.2870 C   0  0  0  0  0  0  0  0  0  0  0  0
   -0.3560    9.6520   19.9110 C   0  0  0  0  0  0  0  0  0  0  0  0
    0.6550    8.9280   19.3690 N   0  0  0  0  0  0  0  0  0  0  0  0
    2.3100    8.0880   22.1840 H   0  0  0  0  0  0  0  0  0  0  0  0
    0.4820    9.4250   23.1900 H   0  0  0  0  0  0  0  0  0  0  0  0
   -1.2230   10.4520   21.7290 H   0  0  0  0  0  0  0  0  0  0  0  0
   -1.3320   10.2100   18.9410 C   0  0  0  0  0  0  0  0  0  0  0  0
   -2.1740   11.2920   19.3180 C   0  0  0  0  0  0  0  0  0  0  0  0
   -3.1100   11.8510   18.4400 C   0  0  0  0  0  0  0  0  0  0  0  0
   -3.2030   11.3180   17.1770 C   0  0  0  0  0  0  0  0  0  0  0  0
   -2.3930   10.2750   16.7670 C   0  0  0  0  0  0  0  0  0  0  0  0
   -1.4520    9.7180   17.6240 C   0  0  0  0  0  0  0  0  0  0  0  0
   -2.6620    9.9810   15.3430 C   0  0  0  0  0  0  0  0  0  0  0  0
   -3.9790   10.7440   15.1840 C   0  0  0  0  0  0  0  0  0  0  0  0
   -4.0610   11.7650   16.2060 O   0  0  0  0  0  0  0  0  0  0  0  0
   -2.0890   11.7120   20.3210 H   0  0  0  0  0  0  0  0  0  0  0  0
   -3.7370   12.6810   18.7480 H   0  0  0  0  0  0  0  0  0  0  0  0
   -0.8080    8.9280   17.2540 H   0  0  0  0  0  0  0  0  0  0  0  0
   -2.7790    8.9170   15.1240 H   0  0  0  0  0  0  0  0  0  0  0  0
   -1.8780   10.4120   14.7110 H   0  0  0  0  0  0  0  0  0  0  0  0
   -4.0570   11.2100   14.1980 H   0  0  0  0  0  0  0  0  0  0  0  0
   -4.8400   10.0740   15.3120 H   0  0  0  0  0  0  0  0  0  0  0  0
    2.6590    6.2710   19.4570 C   0  0  0  0  0  0  0  0  0  0  0  0
    1.7490    5.4880   19.7180 O   0  0  0  0  0  0  0  0  0  0  0  0
    2.6430    7.6360   19.6330 N   0  0  0  0  0  0  0  0  0  0  0  0
    3.4670    8.1570   19.3450 H   0  0  0  0  0  0  0  0  0  0  0  0
    6.3670    4.8840   17.6920 C   0  0  0  0  0  0  0  0  0  0  0  0
    5.8330    6.0710   17.3680 C   0  0  0  0  0  0  0  0  0  0  0  0
    4.5950    6.5040   17.9750 C   0  0  0  0  0  0  0  0  0  0  0  0
    3.9400    5.7470   18.8750 C   0  0  0  0  0  0  0  0  0  0  0  0
    4.5390    4.4250   19.2330 C   0  0  0  0  0  0  0  0  0  0  0  0
    4.0080    3.6700   20.0460 O   0  0  0  0  0  0  0  0  0  0  0  0
    5.7180    4.0900   18.6090 N   0  0  0  0  0  0  0  0  0  0  0  0
    6.3060    6.7360   16.6500 H   0  0  0  0  0  0  0  0  0  0  0  0
    4.2110    7.4770   17.6710 H   0  0  0  0  0  0  0  0  0  0  0  0
    6.1100    3.1900   18.8640 H   0  0  0  0  0  0  0  0  0  0  0  0
    7.6430    4.3590   17.1110 C   0  0  0  0  0  0  0  0  0  0  0  0
    8.4010    4.2460   17.8940 H   0  0  0  0  0  0  0  0  0  0  0  0
    7.5030    3.3820   16.6370 H   0  0  0  0  0  0  0  0  0  0  0  0
    8.0290    5.0480   16.3520 H   0  0  0  0  0  0  0  0  0  0  0  0
  1  2  1  0  0  0  0
  2  3  2  0  0  0  0
  2  7  1  0  0  0  0
  3  8  1  0  0  0  0
  4  9  1  0  0  0  0
  4  3  1  0  0  0  0
  5  4  2  0  0  0  0
  6  5  1  0  0  0  0
  6  1  2  0  0  0  0
 10 11  1  0  0  0  0
 10  5  1  0  0  0  0
 11 19  1  0  0  0  0
 12 20  1  0  0  0  0
 12 11  2  0  0  0  0
 13 12  1  0  0  0  0
 14 13  2  0  0  0  0
 14 15  1  0  0  0  0
 15 10  2  0  0  0  0
 16 14  1  0  0  0  0
 17 25  1  0  0  0  0
 17 16  1  0  0  0  0
 17 18  1  0  0  0  0
 18 13  1  0  0  0  0
 21 15  1  0  0  0  0
 22 16  1  0  0  0  0
 23 16  1  0  0  0  0
 24 17  1  0  0  0  0
 26 28  1  0  0  0  0
 26 27  2  0  0  0  0
 28  1  1  0  0  0  0
 29 28  1  0  0  0  0
 30 36  1  0  0  0  0
 31 30  2  0  0  0  0
 31 32  1  0  0  0  0
 32 33  2  0  0  0  0
 33 34  1  0  0  0  0
 33 26  1  0  0  0  0
 34 35  2  0  0  0  0
 36 39  1  0  0  0  0
 36 34  1  0  0  0  0
 37 31  1  0  0  0  0
 38 32  1  0  0  0  0
 40 30  1  0  0  0  0
 40 41  1  0  0  0  0
 42 40  1  0  0  0  0
 43 40  1  0  0  0  0
M  END
>  <MODEL>
14

>  <REMARK>
 VINA RESULT:    -7.413      3.112      8.642
 INTER + INTRA:          -9.472
 INTER:                  -8.953
 INTRA:                  -0.519
 UNBOUND:                -0.542
  Name = 
  4 active torsions:
  status: ('A' for Active; 'I' for Inactive)
    1  A    between atoms: C_1  and  C_2
    2  A    between atoms: C_5  and  C_6
    3  A    between atoms: N_8  and  C_9
    4  A    between atoms: C_13  and  C_14
                            x       y       z     vdW  Elec       q    Type
                         _______ _______ _______ _____ _____    ______ ____

>  <TORSDO>
F 4

$$$$
=
 OpenBabel07192307433D

 43 46  0  0  0  0  0  0  0  0999 V2000
    1.5290    9.5030   18.9090 C   0  0  0  0  0  0  0  0  0  0  0  0
    2.2100   10.4130   18.1100 C   0  0  0  0  0  0  0  0  0  0  0  0
    1.9090   11.7640   18.2270 C   0  0  0  0  0  0  0  0  0  0  0  0
    0.9450   12.1700   19.1450 C   0  0  0  0  0  0  0  0  0  0  0  0
    0.3070   11.2120   19.9290 C   0  0  0  0  0  0  0  0  0  0  0  0
    0.6030    9.8940   19.7990 N   0  0  0  0  0  0  0  0  0  0  0  0
    2.9590   10.0860   17.3950 H   0  0  0  0  0  0  0  0  0  0  0  0
    2.4190   12.4960   17.6060 H   0  0  0  0  0  0  0  0  0  0  0  0
    0.6970   13.2220   19.2200 H   0  0  0  0  0  0  0  0  0  0  0  0
   -0.7320   11.5350   20.9390 C   0  0  0  0  0  0  0  0  0  0  0  0
   -0.6310   11.0180   22.2590 C   0  0  0  0  0  0  0  0  0  0  0  0
   -1.5850   11.2930   23.2460 C   0  0  0  0  0  0  0  0  0  0  0  0
   -2.6500   12.0910   22.9020 C   0  0  0  0  0  0  0  0  0  0  0  0
   -2.7780   12.6250   21.6330 C   0  0  0  0  0  0  0  0  0  0  0  0
   -1.8320   12.3690   20.6490 C   0  0  0  0  0  0  0  0  0  0  0  0
   -3.9660   13.5050   21.5940 C   0  0  0  0  0  0  0  0  0  0  0  0
   -4.6460   13.0490   22.8870 C   0  0  0  0  0  0  0  0  0  0  0  0
   -3.6550   12.4560   23.7590 O   0  0  0  0  0  0  0  0  0  0  0  0
    0.2220   10.3890   22.5240 H   0  0  0  0  0  0  0  0  0  0  0  0
   -1.4820   10.8920   24.2480 H   0  0  0  0  0  0  0  0  0  0  0  0
   -1.9460   12.8380   19.6770 H   0  0  0  0  0  0  0  0  0  0  0  0
   -4.6060   13.3480   20.7210 H   0  0  0  0  0  0  0  0  0  0  0  0
   -3.6640   14.5550   21.6560 H   0  0  0  0  0  0  0  0  0  0  0  0
   -5.1300   13.8840   23.4030 H   0  0  0  0  0  0  0  0  0  0  0  0
   -5.4100   12.2880   22.6840 H   0  0  0  0  0  0  0  0  0  0  0  0
    2.0040    7.2330   19.7650 C   0  0  0  0  0  0  0  0  0  0  0  0
    1.8700    7.4400   20.9680 O   0  0  0  0  0  0  0  0  0  0  0  0
    1.8490    8.1500   18.7510 N   0  0  0  0  0  0  0  0  0  0  0  0
    1.9690    7.8210   17.7970 H   0  0  0  0  0  0  0  0  0  0  0  0
    2.9580    3.1980   18.5010 C   0  0  0  0  0  0  0  0  0  0  0  0
    2.1210    3.4370   19.5210 C   0  0  0  0  0  0  0  0  0  0  0  0
    1.8230    4.7940   19.9180 C   0  0  0  0  0  0  0  0  0  0  0  0
    2.3650    5.8550   19.2900 C   0  0  0  0  0  0  0  0  0  0  0  0
    3.2970    5.5840   18.1530 C   0  0  0  0  0  0  0  0  0  0  0  0
    3.8350    6.4920   17.5230 O   0  0  0  0  0  0  0  0  0  0  0  0
    3.5260    4.2630   17.8410 N   0  0  0  0  0  0  0  0  0  0  0  0
    1.6460    2.6310   20.0750 H   0  0  0  0  0  0  0  0  0  0  0  0
    1.1370    4.9250   20.7530 H   0  0  0  0  0  0  0  0  0  0  0  0
    4.1600    4.0980   17.0680 H   0  0  0  0  0  0  0  0  0  0  0  0
    3.3200    1.8250   18.0260 C   0  0  0  0  0  0  0  0  0  0  0  0
    4.4080    1.7180   17.9620 H   0  0  0  0  0  0  0  0  0  0  0  0
    2.9460    1.0480   18.7010 H   0  0  0  0  0  0  0  0  0  0  0  0
    2.8950    1.6400   17.0340 H   0  0  0  0  0  0  0  0  0  0  0  0
  1  6  1  0  0  0  0
  2  3  1  0  0  0  0
  2  1  2  0  0  0  0
  3  4  2  0  0  0  0
  4  9  1  0  0  0  0
  4  5  1  0  0  0  0
  5 10  1  0  0  0  0
  6  5  2  0  0  0  0
  7  2  1  0  0  0  0
  8  3  1  0  0  0  0
 10 11  1  0  0  0  0
 11 19  1  0  0  0  0
 11 12  2  0  0  0  0
 12 20  1  0  0  0  0
 13 12  1  0  0  0  0
 13 18  1  0  0  0  0
 14 13  2  0  0  0  0
 15 10  2  0  0  0  0
 15 14  1  0  0  0  0
 16 14  1  0  0  0  0
 16 23  1  0  0  0  0
 16 17  1  0  0  0  0
 17 24  1  0  0  0  0
 17 18  1  0  0  0  0
 21 15  1  0  0  0  0
 22 16  1  0  0  0  0
 25 17  1  0  0  0  0
 26 27  2  0  0  0  0
 28  1  1  0  0  0  0
 28 26  1  0  0  0  0
 29 28  1  0  0  0  0
 30 31  2  0  0  0  0
 31 32  1  0  0  0  0
 31 37  1  0  0  0  0
 32 38  1  0  0  0  0
 33 26  1  0  0  0  0
 33 32  2  0  0  0  0
 34 33  1  0  0  0  0
 35 34  2  0  0  0  0
 36 34  1  0  0  0  0
 36 30  1  0  0  0  0
 39 36  1  0  0  0  0
 40 30  1  0  0  0  0
 40 42  1  0  0  0  0
 41 40  1  0  0  0  0
 43 40  1  0  0  0  0
M  END
>  <MODEL>
15

>  <REMARK>
 VINA RESULT:    -7.290      2.790      9.635
 INTER + INTRA:          -9.324
 INTER:                  -8.667
 INTRA:                  -0.656
 UNBOUND:                -0.542
  Name = 
  4 active torsions:
  status: ('A' for Active; 'I' for Inactive)
    1  A    between atoms: C_1  and  C_2
    2  A    between atoms: C_5  and  C_6
    3  A    between atoms: N_8  and  C_9
    4  A    between atoms: C_13  and  C_14
                            x       y       z     vdW  Elec       q    Type
                         _______ _______ _______ _____ _____    ______ ____

>  <TORSDO>
F 4

$$$$
=
 OpenBabel07192307433D

 43 46  0  0  0  0  0  0  0  0999 V2000
    1.8850    8.6570   18.8020 C   0  0  0  0  0  0  0  0  0  0  0  0
    2.3990    9.4930   17.8190 C   0  0  0  0  0  0  0  0  0  0  0  0
    2.0280   10.8330   17.8180 C   0  0  0  0  0  0  0  0  0  0  0  0
    1.1620   11.3000   18.8010 C   0  0  0  0  0  0  0  0  0  0  0  0
    0.6920   10.4160   19.7700 C   0  0  0  0  0  0  0  0  0  0  0  0
    1.0540    9.1080   19.7550 N   0  0  0  0  0  0  0  0  0  0  0  0
    3.0720    9.1190   17.0550 H   0  0  0  0  0  0  0  0  0  0  0  0
    2.4060   11.5060   17.0540 H   0  0  0  0  0  0  0  0  0  0  0  0
    0.8560   12.3400   18.7860 H   0  0  0  0  0  0  0  0  0  0  0  0
   -0.2310   10.8100   20.8640 C   0  0  0  0  0  0  0  0  0  0  0  0
   -0.1600   10.1610   22.1260 C   0  0  0  0  0  0  0  0  0  0  0  0
   -1.0090   10.4960   23.1880 C   0  0  0  0  0  0  0  0  0  0  0  0
   -1.9380   11.4860   22.9780 C   0  0  0  0  0  0  0  0  0  0  0  0
   -2.0310   12.1510   21.7690 C   0  0  0  0  0  0  0  0  0  0  0  0
   -1.1870   11.8370   20.7120 C   0  0  0  0  0  0  0  0  0  0  0  0
   -3.0540   13.2130   21.8760 C   0  0  0  0  0  0  0  0  0  0  0  0
   -3.7420   12.7570   23.1640 C   0  0  0  0  0  0  0  0  0  0  0  0
   -2.8280   11.9300   23.9220 O   0  0  0  0  0  0  0  0  0  0  0  0
    0.5850    9.3790   22.2860 H   0  0  0  0  0  0  0  0  0  0  0  0
   -0.9310    9.9910   24.1450 H   0  0  0  0  0  0  0  0  0  0  0  0
   -1.2640   12.4070   19.7920 H   0  0  0  0  0  0  0  0  0  0  0  0
   -3.7490   13.2460   21.0330 H   0  0  0  0  0  0  0  0  0  0  0  0
   -2.5760   14.1900   22.0080 H   0  0  0  0  0  0  0  0  0  0  0  0
   -4.0550   13.6080   23.7770 H   0  0  0  0  0  0  0  0  0  0  0  0
   -4.6320   12.1540   22.9430 H   0  0  0  0  0  0  0  0  0  0  0  0
    3.3580    6.8020   18.0900 C   0  0  0  0  0  0  0  0  0  0  0  0
    4.1780    7.4380   17.4350 O   0  0  0  0  0  0  0  0  0  0  0  0
    2.2700    7.3130   18.7620 N   0  0  0  0  0  0  0  0  0  0  0  0
    1.6920    6.6600   19.2850 H   0  0  0  0  0  0  0  0  0  0  0  0
    3.6580    2.4890   18.3880 C   0  0  0  0  0  0  0  0  0  0  0  0
    2.6140    3.0820   17.7910 C   0  0  0  0  0  0  0  0  0  0  0  0
    2.5450    4.5230   17.7080 C   0  0  0  0  0  0  0  0  0  0  0  0
    3.5080    5.3140   18.2180 C   0  0  0  0  0  0  0  0  0  0  0  0
    4.6700    4.6480   18.8820 C   0  0  0  0  0  0  0  0  0  0  0  0
    5.5940    5.2920   19.3740 O   0  0  0  0  0  0  0  0  0  0  0  0
    4.6580    3.2720   18.9180 N   0  0  0  0  0  0  0  0  0  0  0  0
    1.8000    2.5090   17.3570 H   0  0  0  0  0  0  0  0  0  0  0  0
    1.6730    4.9470   17.2130 H   0  0  0  0  0  0  0  0  0  0  0  0
    5.4530    2.8380   19.3720 H   0  0  0  0  0  0  0  0  0  0  0  0
    3.8090    1.0050   18.5180 C   0  0  0  0  0  0  0  0  0  0  0  0
    2.8290    0.5290   18.6230 H   0  0  0  0  0  0  0  0  0  0  0  0
    4.3020    0.5670   17.6440 H   0  0  0  0  0  0  0  0  0  0  0  0
    4.4100    0.7580   19.4000 H   0  0  0  0  0  0  0  0  0  0  0  0
  1  6  1  0  0  0  0
  2  1  2  0  0  0  0
  3  2  1  0  0  0  0
  3  4  2  0  0  0  0
  4  5  1  0  0  0  0
  5 10  1  0  0  0  0
  6  5  2  0  0  0  0
  7  2  1  0  0  0  0
  8  3  1  0  0  0  0
  9  4  1  0  0  0  0
 10 11  1  0  0  0  0
 11 19  1  0  0  0  0
 11 12  2  0  0  0  0
 12 20  1  0  0  0  0
 13 12  1  0  0  0  0
 13 18  1  0  0  0  0
 14 16  1  0  0  0  0
 14 13  2  0  0  0  0
 15 10  2  0  0  0  0
 15 14  1  0  0  0  0
 16 23  1  0  0  0  0
 16 17  1  0  0  0  0
 17 24  1  0  0  0  0
 17 18  1  0  0  0  0
 21 15  1  0  0  0  0
 22 16  1  0  0  0  0
 25 17  1  0  0  0  0
 26 33  1  0  0  0  0
 26 28  1  0  0  0  0
 27 26  2  0  0  0  0
 28  1  1  0  0  0  0
 28 29  1  0  0  0  0
 30 40  1  0  0  0  0
 30 36  1  0  0  0  0
 31 30  2  0  0  0  0
 32 31  1  0  0  0  0
 32 33  2  0  0  0  0
 33 34  1  0  0  0  0
 34 36  1  0  0  0  0
 34 35  2  0  0  0  0
 36 39  1  0  0  0  0
 37 31  1  0  0  0  0
 38 32  1  0  0  0  0
 40 41  1  0  0  0  0
 40 43  1  0  0  0  0
 42 40  1  0  0  0  0
M  END
>  <MODEL>
16

>  <REMARK>
 VINA RESULT:    -7.287      2.807      9.478
 INTER + INTRA:          -9.320
 INTER:                  -9.279
 INTRA:                  -0.041
 UNBOUND:                -0.542
  Name = 
  4 active torsions:
  status: ('A' for Active; 'I' for Inactive)
    1  A    between atoms: C_1  and  C_2
    2  A    between atoms: C_5  and  C_6
    3  A    between atoms: N_8  and  C_9
    4  A    between atoms: C_13  and  C_14
                            x       y       z     vdW  Elec       q    Type
                         _______ _______ _______ _____ _____    ______ ____

>  <TORSDO>
F 4

$$$$
=
 OpenBabel07192307433D

 43 46  0  0  0  0  0  0  0  0999 V2000
    1.1370    9.8800   19.1350 C   0  0  0  0  0  0  0  0  0  0  0  0
    1.9980   10.7500   18.4770 C   0  0  0  0  0  0  0  0  0  0  0  0
    1.6780   12.1020   18.4330 C   0  0  0  0  0  0  0  0  0  0  0  0
    0.5150   12.5480   19.0540 C   0  0  0  0  0  0  0  0  0  0  0  0
   -0.2990   11.6290   19.7120 C   0  0  0  0  0  0  0  0  0  0  0  0
    0.0180   10.3100   19.7390 N   0  0  0  0  0  0  0  0  0  0  0  0
    2.9000   10.3930   17.9940 H   0  0  0  0  0  0  0  0  0  0  0  0
    2.3270   12.8030   17.9160 H   0  0  0  0  0  0  0  0  0  0  0  0
    0.2570   13.5990   19.0000 H   0  0  0  0  0  0  0  0  0  0  0  0
   -1.5580   11.9970   20.4080 C   0  0  0  0  0  0  0  0  0  0  0  0
   -2.7090   12.3590   19.6580 C   0  0  0  0  0  0  0  0  0  0  0  0
   -3.9180   12.7140   20.2680 C   0  0  0  0  0  0  0  0  0  0  0  0
   -3.9680   12.7110   21.6410 C   0  0  0  0  0  0  0  0  0  0  0  0
   -2.8740   12.3520   22.4070 C   0  0  0  0  0  0  0  0  0  0  0  0
   -1.6730   11.9860   21.8140 C   0  0  0  0  0  0  0  0  0  0  0  0
   -3.2580   12.3590   23.8360 C   0  0  0  0  0  0  0  0  0  0  0  0
   -4.5710   13.1370   23.7290 C   0  0  0  0  0  0  0  0  0  0  0  0
   -5.0800   13.0240   22.3790 O   0  0  0  0  0  0  0  0  0  0  0  0
   -2.6620   12.3530   18.5670 H   0  0  0  0  0  0  0  0  0  0  0  0
   -4.7860   12.9800   19.6740 H   0  0  0  0  0  0  0  0  0  0  0  0
   -0.8500   11.6730   22.4470 H   0  0  0  0  0  0  0  0  0  0  0  0
   -2.5380   12.8620   24.4860 H   0  0  0  0  0  0  0  0  0  0  0  0
   -3.4330   11.3370   24.1870 H   0  0  0  0  0  0  0  0  0  0  0  0
   -5.3200   12.7610   24.4320 H   0  0  0  0  0  0  0  0  0  0  0  0
   -4.4160   14.2040   23.9380 H   0  0  0  0  0  0  0  0  0  0  0  0
    1.7040    7.7550   20.2650 C   0  0  0  0  0  0  0  0  0  0  0  0
    1.6120    8.1190   21.4340 O   0  0  0  0  0  0  0  0  0  0  0  0
    1.4850    8.5250   19.1460 N   0  0  0  0  0  0  0  0  0  0  0  0
    1.5750    8.0740   18.2390 H   0  0  0  0  0  0  0  0  0  0  0  0
    2.7050    3.6070   19.5070 C   0  0  0  0  0  0  0  0  0  0  0  0
    1.8780    3.9610   20.5020 C   0  0  0  0  0  0  0  0  0  0  0  0
    1.5640    5.3530   20.7280 C   0  0  0  0  0  0  0  0  0  0  0  0
    2.0800    6.3330   19.9620 C   0  0  0  0  0  0  0  0  0  0  0  0
    3.0010    5.9340   18.8540 C   0  0  0  0  0  0  0  0  0  0  0  0
    3.5150    6.7630   18.1060 O   0  0  0  0  0  0  0  0  0  0  0  0
    3.2470    4.5880   18.7080 N   0  0  0  0  0  0  0  0  0  0  0  0
    1.4250    3.2250   21.1600 H   0  0  0  0  0  0  0  0  0  0  0  0
    0.8880    5.5790   21.5510 H   0  0  0  0  0  0  0  0  0  0  0  0
    3.8730    4.3350   17.9520 H   0  0  0  0  0  0  0  0  0  0  0  0
    3.0830    2.1900   19.2040 C   0  0  0  0  0  0  0  0  0  0  0  0
    3.4720    2.1080   18.1840 H   0  0  0  0  0  0  0  0  0  0  0  0
    3.8540    1.8190   19.8870 H   0  0  0  0  0  0  0  0  0  0  0  0
    2.2110    1.5340   19.2950 H   0  0  0  0  0  0  0  0  0  0  0  0
  1 28  1  0  0  0  0
  1  6  1  0  0  0  0
  2  1  2  0  0  0  0
  3  2  1  0  0  0  0
  3  4  2  0  0  0  0
  4  5  1  0  0  0  0
  5  6  2  0  0  0  0
  5 10  1  0  0  0  0
  7  2  1  0  0  0  0
  8  3  1  0  0  0  0
  9  4  1  0  0  0  0
 10 15  1  0  0  0  0
 11 12  1  0  0  0  0
 11 10  2  0  0  0  0
 12 13  2  0  0  0  0
 13 18  1  0  0  0  0
 13 14  1  0  0  0  0
 14 16  1  0  0  0  0
 15 14  2  0  0  0  0
 15 21  1  0  0  0  0
 16 23  1  0  0  0  0
 16 22  1  0  0  0  0
 17 16  1  0  0  0  0
 17 25  1  0  0  0  0
 17 24  1  0  0  0  0
 18 17  1  0  0  0  0
 19 11  1  0  0  0  0
 20 12  1  0  0  0  0
 26 27  2  0  0  0  0
 28 26  1  0  0  0  0
 29 28  1  0  0  0  0
 30 31  2  0  0  0  0
 31 32  1  0  0  0  0
 31 37  1  0  0  0  0
 32 38  1  0  0  0  0
 33 26  1  0  0  0  0
 33 32  2  0  0  0  0
 34 33  1  0  0  0  0
 35 34  2  0  0  0  0
 36 34  1  0  0  0  0
 36 30  1  0  0  0  0
 39 36  1  0  0  0  0
 40 43  1  0  0  0  0
 40 30  1  0  0  0  0
 40 42  1  0  0  0  0
 41 40  1  0  0  0  0
M  END
>  <MODEL>
17

>  <REMARK>
 VINA RESULT:    -7.211      3.112      9.876
 INTER + INTRA:          -9.229
 INTER:                  -8.435
 INTRA:                  -0.794
 UNBOUND:                -0.542
  Name = 
  4 active torsions:
  status: ('A' for Active; 'I' for Inactive)
    1  A    between atoms: C_1  and  C_2
    2  A    between atoms: C_5  and  C_6
    3  A    between atoms: N_8  and  C_9
    4  A    between atoms: C_13  and  C_14
                            x       y       z     vdW  Elec       q    Type
                         _______ _______ _______ _____ _____    ______ ____

>  <TORSDO>
F 4

$$$$
=
 OpenBabel07192307433D

 43 46  0  0  0  0  0  0  0  0999 V2000
    2.2650    7.3710   19.0050 C   0  0  0  0  0  0  0  0  0  0  0  0
    2.0020    6.6840   20.1840 C   0  0  0  0  0  0  0  0  0  0  0  0
    1.2930    7.3300   21.1910 C   0  0  0  0  0  0  0  0  0  0  0  0
    0.8600    8.6360   20.9890 C   0  0  0  0  0  0  0  0  0  0  0  0
    1.1410    9.2660   19.7790 C   0  0  0  0  0  0  0  0  0  0  0  0
    1.8430    8.6300   18.8070 N   0  0  0  0  0  0  0  0  0  0  0  0
    2.3460    5.6660   20.3330 H   0  0  0  0  0  0  0  0  0  0  0  0
    1.0830    6.8200   22.1270 H   0  0  0  0  0  0  0  0  0  0  0  0
    0.3260    9.1450   21.7830 H   0  0  0  0  0  0  0  0  0  0  0  0
    0.7240   10.6550   19.4580 C   0  0  0  0  0  0  0  0  0  0  0  0
   -0.4850   10.8920   18.7510 C   0  0  0  0  0  0  0  0  0  0  0  0
   -0.9210   12.1820   18.4250 C   0  0  0  0  0  0  0  0  0  0  0  0
   -0.1330   13.2400   18.8080 C   0  0  0  0  0  0  0  0  0  0  0  0
    1.0440   13.0530   19.5100 C   0  0  0  0  0  0  0  0  0  0  0  0
    1.4810   11.7790   19.8500 C   0  0  0  0  0  0  0  0  0  0  0  0
    1.6190   14.3710   19.8550 C   0  0  0  0  0  0  0  0  0  0  0  0
    0.7930   15.2480   18.9120 C   0  0  0  0  0  0  0  0  0  0  0  0
   -0.4310   14.5570   18.5710 O   0  0  0  0  0  0  0  0  0  0  0  0
   -1.1070   10.0450   18.4550 H   0  0  0  0  0  0  0  0  0  0  0  0
   -1.8510   12.3370   17.8900 H   0  0  0  0  0  0  0  0  0  0  0  0
    2.3890   11.6750   20.4350 H   0  0  0  0  0  0  0  0  0  0  0  0
    2.6900   14.4540   19.6550 H   0  0  0  0  0  0  0  0  0  0  0  0
    1.4110   14.6140   20.9030 H   0  0  0  0  0  0  0  0  0  0  0  0
    0.5510   16.2130   19.3680 H   0  0  0  0  0  0  0  0  0  0  0  0
    1.3370   15.4440   17.9780 H   0  0  0  0  0  0  0  0  0  0  0  0
    4.1650    5.9980   18.2170 C   0  0  0  0  0  0  0  0  0  0  0  0
    4.7530    5.8380   19.2830 O   0  0  0  0  0  0  0  0  0  0  0  0
    2.9930    6.6940   18.0220 N   0  0  0  0  0  0  0  0  0  0  0  0
    2.6120    6.7170   17.0790 H   0  0  0  0  0  0  0  0  0  0  0  0
    5.8160    4.3760   14.5520 C   0  0  0  0  0  0  0  0  0  0  0  0
    5.7880    5.6960   14.7880 C   0  0  0  0  0  0  0  0  0  0  0  0
    5.2310    6.2040   16.0210 C   0  0  0  0  0  0  0  0  0  0  0  0
    4.7260    5.3880   16.9650 C   0  0  0  0  0  0  0  0  0  0  0  0
    4.7590    3.9170   16.6970 C   0  0  0  0  0  0  0  0  0  0  0  0
    4.3210    3.1000   17.5050 O   0  0  0  0  0  0  0  0  0  0  0  0
    5.3060    3.5180   15.5000 N   0  0  0  0  0  0  0  0  0  0  0  0
    6.1780    6.4150   14.0730 H   0  0  0  0  0  0  0  0  0  0  0  0
    5.2360    7.2850   16.1550 H   0  0  0  0  0  0  0  0  0  0  0  0
    5.3210    2.5180   15.3350 H   0  0  0  0  0  0  0  0  0  0  0  0
    6.3730    3.7650   13.3040 C   0  0  0  0  0  0  0  0  0  0  0  0
    7.4630    3.6840   13.3720 H   0  0  0  0  0  0  0  0  0  0  0  0
    5.9730    2.7610   13.1280 H   0  0  0  0  0  0  0  0  0  0  0  0
    6.1260    4.3830   12.4330 H   0  0  0  0  0  0  0  0  0  0  0  0
  1  2  1  0  0  0  0
  2  7  1  0  0  0  0
  2  3  2  0  0  0  0
  3  8  1  0  0  0  0
  4  3  1  0  0  0  0
  4  9  1  0  0  0  0
  5  4  2  0  0  0  0
  6  1  2  0  0  0  0
  6  5  1  0  0  0  0
 10  5  1  0  0  0  0
 10 15  1  0  0  0  0
 11 10  2  0  0  0  0
 12 11  1  0  0  0  0
 12 13  2  0  0  0  0
 13 14  1  0  0  0  0
 14 15  2  0  0  0  0
 14 16  1  0  0  0  0
 15 21  1  0  0  0  0
 16 23  1  0  0  0  0
 17 24  1  0  0  0  0
 17 16  1  0  0  0  0
 18 13  1  0  0  0  0
 18 17  1  0  0  0  0
 19 11  1  0  0  0  0
 20 12  1  0  0  0  0
 22 16  1  0  0  0  0
 25 17  1  0  0  0  0
 26 27  2  0  0  0  0
 28 26  1  0  0  0  0
 28  1  1  0  0  0  0
 29 28  1  0  0  0  0
 30 31  2  0  0  0  0
 30 36  1  0  0  0  0
 31 32  1  0  0  0  0
 32 38  1  0  0  0  0
 32 33  2  0  0  0  0
 33 26  1  0  0  0  0
 34 33  1  0  0  0  0
 34 35  2  0  0  0  0
 36 34  1  0  0  0  0
 37 31  1  0  0  0  0
 39 36  1  0  0  0  0
 40 41  1  0  0  0  0
 40 30  1  0  0  0  0
 42 40  1  0  0  0  0
 43 40  1  0  0  0  0
M  END
>  <MODEL>
18

>  <REMARK>
 VINA RESULT:    -7.178      2.839      8.934
 INTER + INTRA:          -9.189
 INTER:                  -8.829
 INTRA:                  -0.360
 UNBOUND:                -0.542
  Name = 
  4 active torsions:
  status: ('A' for Active; 'I' for Inactive)
    1  A    between atoms: C_1  and  C_2
    2  A    between atoms: C_5  and  C_6
    3  A    between atoms: N_8  and  C_9
    4  A    between atoms: C_13  and  C_14
                            x       y       z     vdW  Elec       q    Type
                         _______ _______ _______ _____ _____    ______ ____

>  <TORSDO>
F 4

$$$$
=
 OpenBabel07192307433D

 43 46  0  0  0  0  0  0  0  0999 V2000
   -0.5050   10.2320   19.1890 C   0  0  0  0  0  0  0  0  0  0  0  0
   -1.2740   10.3930   18.0440 C   0  0  0  0  0  0  0  0  0  0  0  0
   -2.2080   11.4210   18.0030 C   0  0  0  0  0  0  0  0  0  0  0  0
   -2.3410   12.2640   19.1020 C   0  0  0  0  0  0  0  0  0  0  0  0
   -1.5290   12.0630   20.2160 C   0  0  0  0  0  0  0  0  0  0  0  0
   -0.6280   11.0500   20.2480 N   0  0  0  0  0  0  0  0  0  0  0  0
   -1.1660    9.7280   17.1940 H   0  0  0  0  0  0  0  0  0  0  0  0
   -2.8310   11.5620   17.1240 H   0  0  0  0  0  0  0  0  0  0  0  0
   -3.0840   13.0520   19.0760 H   0  0  0  0  0  0  0  0  0  0  0  0
   -1.5860   12.9050   21.4370 C   0  0  0  0  0  0  0  0  0  0  0  0
   -0.5490   13.8390   21.7090 C   0  0  0  0  0  0  0  0  0  0  0  0
   -0.5570   14.6540   22.8480 C   0  0  0  0  0  0  0  0  0  0  0  0
   -1.6110   14.5270   23.7200 C   0  0  0  0  0  0  0  0  0  0  0  0
   -2.6460   13.6400   23.4840 C   0  0  0  0  0  0  0  0  0  0  0  0
   -2.6560   12.8350   22.3530 C   0  0  0  0  0  0  0  0  0  0  0  0
   -3.6680   13.7940   24.5430 C   0  0  0  0  0  0  0  0  0  0  0  0
   -2.8460   14.5930   25.5560 C   0  0  0  0  0  0  0  0  0  0  0  0
   -1.7630   15.2610   24.8680 O   0  0  0  0  0  0  0  0  0  0  0  0
    0.2820   13.9360   21.0080 H   0  0  0  0  0  0  0  0  0  0  0  0
    0.2420   15.3630   23.0310 H   0  0  0  0  0  0  0  0  0  0  0  0
   -3.5050   12.1810   22.1830 H   0  0  0  0  0  0  0  0  0  0  0  0
   -4.0200   12.8470   24.9600 H   0  0  0  0  0  0  0  0  0  0  0  0
   -4.5150   14.3800   24.1720 H   0  0  0  0  0  0  0  0  0  0  0  0
   -3.4600   15.3360   26.0750 H   0  0  0  0  0  0  0  0  0  0  0  0
   -2.4030   13.9330   26.3130 H   0  0  0  0  0  0  0  0  0  0  0  0
    1.5970    9.1290   18.4970 C   0  0  0  0  0  0  0  0  0  0  0  0
    2.0510   10.0040   17.7660 O   0  0  0  0  0  0  0  0  0  0  0  0
    0.4140    9.1780   19.1990 N   0  0  0  0  0  0  0  0  0  0  0  0
    0.1830    8.3800   19.7860 H   0  0  0  0  0  0  0  0  0  0  0  0
    3.8820    5.4700   18.9240 C   0  0  0  0  0  0  0  0  0  0  0  0
    3.9440    6.2130   17.8100 C   0  0  0  0  0  0  0  0  0  0  0  0
    3.1700    7.4280   17.6990 C   0  0  0  0  0  0  0  0  0  0  0  0
    2.3690    7.8560   18.6940 C   0  0  0  0  0  0  0  0  0  0  0  0
    2.3040    7.0250   19.9340 C   0  0  0  0  0  0  0  0  0  0  0  0
    1.6000    7.3410   20.8920 O   0  0  0  0  0  0  0  0  0  0  0  0
    3.0720    5.8840   19.9570 N   0  0  0  0  0  0  0  0  0  0  0  0
    4.5690    5.9310   16.9660 H   0  0  0  0  0  0  0  0  0  0  0  0
    3.2610    7.9880   16.7700 H   0  0  0  0  0  0  0  0  0  0  0  0
    3.0160    5.3330   20.8060 H   0  0  0  0  0  0  0  0  0  0  0  0
    4.6500    4.2000   19.1220 C   0  0  0  0  0  0  0  0  0  0  0  0
    5.0030    4.1240   20.1550 H   0  0  0  0  0  0  0  0  0  0  0  0
    4.0370    3.3170   18.9110 H   0  0  0  0  0  0  0  0  0  0  0  0
    5.5190    4.1720   18.4560 H   0  0  0  0  0  0  0  0  0  0  0  0
  1 28  1  0  0  0  0
  1  6  1  0  0  0  0
  2  1  2  0  0  0  0
  3  2  1  0  0  0  0
  3  4  2  0  0  0  0
  4  5  1  0  0  0  0
  5  6  2  0  0  0  0
  5 10  1  0  0  0  0
  7  2  1  0  0  0  0
  8  3  1  0  0  0  0
  9  4  1  0  0  0  0
 10 11  2  0  0  0  0
 10 15  1  0  0  0  0
 11 12  1  0  0  0  0
 12 20  1  0  0  0  0
 12 13  2  0  0  0  0
 13 18  1  0  0  0  0
 14 13  1  0  0  0  0
 14 16  1  0  0  0  0
 15 14  2  0  0  0  0
 16 22  1  0  0  0  0
 16 17  1  0  0  0  0
 17 24  1  0  0  0  0
 17 25  1  0  0  0  0
 18 17  1  0  0  0  0
 19 11  1  0  0  0  0
 21 15  1  0  0  0  0
 23 16  1  0  0  0  0
 26 33  1  0  0  0  0
 26 28  1  0  0  0  0
 27 26  2  0  0  0  0
 28 29  1  0  0  0  0
 30 40  1  0  0  0  0
 30 36  1  0  0  0  0
 31 30  2  0  0  0  0
 32 31  1  0  0  0  0
 32 33  2  0  0  0  0
 33 34  1  0  0  0  0
 34 36  1  0  0  0  0
 34 35  2  0  0  0  0
 36 39  1  0  0  0  0
 37 31  1  0  0  0  0
 38 32  1  0  0  0  0
 40 41  1  0  0  0  0
 42 40  1  0  0  0  0
 43 40  1  0  0  0  0
M  END
>  <MODEL>
19

>  <REMARK>
 VINA RESULT:    -7.025      3.035     10.321
 INTER + INTRA:          -9.004
 INTER:                  -8.247
 INTRA:                  -0.757
 UNBOUND:                -0.542
  Name = 
  4 active torsions:
  status: ('A' for Active; 'I' for Inactive)
    1  A    between atoms: C_1  and  C_2
    2  A    between atoms: C_5  and  C_6
    3  A    between atoms: N_8  and  C_9
    4  A    between atoms: C_13  and  C_14
                            x       y       z     vdW  Elec       q    Type
                         _______ _______ _______ _____ _____    ______ ____

>  <TORSDO>
F 4

$$$$
=
 OpenBabel07192307433D

 43 46  0  0  0  0  0  0  0  0999 V2000
    1.4420    9.9910   18.6930 C   0  0  0  0  0  0  0  0  0  0  0  0
    2.3050   10.9300   18.1420 C   0  0  0  0  0  0  0  0  0  0  0  0
    1.9820   12.2780   18.2430 C   0  0  0  0  0  0  0  0  0  0  0  0
    0.8120   12.6500   18.8980 C   0  0  0  0  0  0  0  0  0  0  0  0
   -0.0050   11.6640   19.4440 C   0  0  0  0  0  0  0  0  0  0  0  0
    0.3160   10.3500   19.3310 N   0  0  0  0  0  0  0  0  0  0  0  0
    3.2140   10.6300   17.6310 H   0  0  0  0  0  0  0  0  0  0  0  0
    2.6330   13.0320   17.8110 H   0  0  0  0  0  0  0  0  0  0  0  0
    0.5510   13.7010   18.9570 H   0  0  0  0  0  0  0  0  0  0  0  0
   -1.2710   11.9510   20.1650 C   0  0  0  0  0  0  0  0  0  0  0  0
   -2.4580   12.2350   19.4380 C   0  0  0  0  0  0  0  0  0  0  0  0
   -3.6750   12.5130   20.0720 C   0  0  0  0  0  0  0  0  0  0  0  0
   -3.6970   12.5090   21.4460 C   0  0  0  0  0  0  0  0  0  0  0  0
   -2.5670   12.2230   22.1900 C   0  0  0  0  0  0  0  0  0  0  0  0
   -1.3570   11.9350   21.5740 C   0  0  0  0  0  0  0  0  0  0  0  0
   -2.9220   12.2080   23.6260 C   0  0  0  0  0  0  0  0  0  0  0  0
   -4.2850   12.8990   23.5450 C   0  0  0  0  0  0  0  0  0  0  0  0
   -4.8130   12.7510   22.2060 O   0  0  0  0  0  0  0  0  0  0  0  0
   -2.4320   12.2310   18.3470 H   0  0  0  0  0  0  0  0  0  0  0  0
   -4.5690   12.7210   19.4950 H   0  0  0  0  0  0  0  0  0  0  0  0
   -0.5030   11.6770   22.1900 H   0  0  0  0  0  0  0  0  0  0  0  0
   -2.2240   12.7580   24.2620 H   0  0  0  0  0  0  0  0  0  0  0  0
   -3.0230   11.1770   23.9810 H   0  0  0  0  0  0  0  0  0  0  0  0
   -4.9940   12.4760   24.2630 H   0  0  0  0  0  0  0  0  0  0  0  0
   -4.1950   13.9740   23.7500 H   0  0  0  0  0  0  0  0  0  0  0  0
    2.0220    7.7610   19.5900 C   0  0  0  0  0  0  0  0  0  0  0  0
    1.9370    8.0000   20.7910 O   0  0  0  0  0  0  0  0  0  0  0  0
    1.7940    8.6440   18.5590 N   0  0  0  0  0  0  0  0  0  0  0  0
    1.8810    8.2910   17.6100 H   0  0  0  0  0  0  0  0  0  0  0  0
    3.1960    3.8380   18.1680 C   0  0  0  0  0  0  0  0  0  0  0  0
    3.6210    4.9610   17.5700 C   0  0  0  0  0  0  0  0  0  0  0  0
    3.2120    6.2530   18.0690 C   0  0  0  0  0  0  0  0  0  0  0  0
    2.4010    6.3810   19.1370 C   0  0  0  0  0  0  0  0  0  0  0  0
    1.9300    5.1270   19.8010 C   0  0  0  0  0  0  0  0  0  0  0  0
    1.1890    5.1510   20.7820 O   0  0  0  0  0  0  0  0  0  0  0  0
    2.3660    3.9390   19.2620 N   0  0  0  0  0  0  0  0  0  0  0  0
    4.2760    4.9360   16.7030 H   0  0  0  0  0  0  0  0  0  0  0  0
    3.5880    7.1280   17.5410 H   0  0  0  0  0  0  0  0  0  0  0  0
    2.0380    3.0990   19.7250 H   0  0  0  0  0  0  0  0  0  0  0  0
    3.5700    2.4610   17.7170 C   0  0  0  0  0  0  0  0  0  0  0  0
    4.6210    2.4310   17.4120 H   0  0  0  0  0  0  0  0  0  0  0  0
    3.4310    1.7200   18.5110 H   0  0  0  0  0  0  0  0  0  0  0  0
    2.9530    2.1580   16.8640 H   0  0  0  0  0  0  0  0  0  0  0  0
  1  6  1  0  0  0  0
  2  3  1  0  0  0  0
  2  1  2  0  0  0  0
  3  4  2  0  0  0  0
  4  9  1  0  0  0  0
  4  5  1  0  0  0  0
  5 10  1  0  0  0  0
  6  5  2  0  0  0  0
  7  2  1  0  0  0  0
  8  3  1  0  0  0  0
 10 15  1  0  0  0  0
 11 12  1  0  0  0  0
 11 10  2  0  0  0  0
 12 13  2  0  0  0  0
 13 14  1  0  0  0  0
 13 18  1  0  0  0  0
 14 16  1  0  0  0  0
 15 21  1  0  0  0  0
 15 14  2  0  0  0  0
 16 23  1  0  0  0  0
 16 22  1  0  0  0  0
 17 16  1  0  0  0  0
 17 25  1  0  0  0  0
 17 24  1  0  0  0  0
 18 17  1  0  0  0  0
 19 11  1  0  0  0  0
 20 12  1  0  0  0  0
 26 27  2  0  0  0  0
 28  1  1  0  0  0  0
 28 26  1  0  0  0  0
 29 28  1  0  0  0  0
 30 36  1  0  0  0  0
 31 32  1  0  0  0  0
 31 30  2  0  0  0  0
 32 33  2  0  0  0  0
 33 26  1  0  0  0  0
 33 34  1  0  0  0  0
 34 35  2  0  0  0  0
 36 39  1  0  0  0  0
 36 34  1  0  0  0  0
 37 31  1  0  0  0  0
 38 32  1  0  0  0  0
 40 30  1  0  0  0  0
 40 42  1  0  0  0  0
 41 40  1  0  0  0  0
 43 40  1  0  0  0  0
M  END
>  <MODEL>
20

>  <REMARK>
 VINA RESULT:    -6.910      3.008      9.851
 INTER + INTRA:          -8.866
 INTER:                  -8.409
 INTRA:                  -0.457
 UNBOUND:                -0.542
  Name = 
  4 active torsions:
  status: ('A' for Active; 'I' for Inactive)
    1  A    between atoms: C_1  and  C_2
    2  A    between atoms: C_5  and  C_6
    3  A    between atoms: N_8  and  C_9
    4  A    between atoms: C_13  and  C_14
                            x       y       z     vdW  Elec       q    Type
                         _______ _______ _______ _____ _____    ______ ____

>  <TORSDO>
F 4

$$$$
=
 OpenBabel07192307433D

 43 46  0  0  0  0  0  0  0  0999 V2000
    1.0970   11.9490   19.3590 C   0  0  0  0  0  0  0  0  0  0  0  0
    1.6970   12.9210   18.5680 C   0  0  0  0  0  0  0  0  0  0  0  0
    1.1640   14.2050   18.5640 C   0  0  0  0  0  0  0  0  0  0  0  0
    0.0540   14.4830   19.3560 C   0  0  0  0  0  0  0  0  0  0  0  0
   -0.4930   13.4710   20.1400 C   0  0  0  0  0  0  0  0  0  0  0  0
    0.0300   12.2190   20.1280 N   0  0  0  0  0  0  0  0  0  0  0  0
    2.5600   12.6930   17.9510 H   0  0  0  0  0  0  0  0  0  0  0  0
    1.6060   14.9810   17.9450 H   0  0  0  0  0  0  0  0  0  0  0  0
   -0.3730   15.4790   19.3350 H   0  0  0  0  0  0  0  0  0  0  0  0
   -1.6720   13.6610   21.0230 C   0  0  0  0  0  0  0  0  0  0  0  0
   -2.5360   14.7720   20.8290 C   0  0  0  0  0  0  0  0  0  0  0  0
   -3.6600   14.9950   21.6350 C   0  0  0  0  0  0  0  0  0  0  0  0
   -3.9120   14.0970   22.6450 C   0  0  0  0  0  0  0  0  0  0  0  0
   -3.1030   12.9960   22.8570 C   0  0  0  0  0  0  0  0  0  0  0  0
   -1.9930   12.7570   22.0570 C   0  0  0  0  0  0  0  0  0  0  0  0
   -3.6750   12.1750   23.9460 C   0  0  0  0  0  0  0  0  0  0  0  0
   -4.6630   13.1930   24.5210 C   0  0  0  0  0  0  0  0  0  0  0  0
   -4.9760   14.1750   23.5060 O   0  0  0  0  0  0  0  0  0  0  0  0
   -2.3310   15.4770   20.0220 H   0  0  0  0  0  0  0  0  0  0  0  0
   -4.3080   15.8460   21.4640 H   0  0  0  0  0  0  0  0  0  0  0  0
   -1.4060   11.8610   22.2300 H   0  0  0  0  0  0  0  0  0  0  0  0
   -2.9430   11.8530   24.6910 H   0  0  0  0  0  0  0  0  0  0  0  0
   -4.1990   11.3070   23.5330 H   0  0  0  0  0  0  0  0  0  0  0  0
   -5.5860   12.7120   24.8580 H   0  0  0  0  0  0  0  0  0  0  0  0
   -4.2280   13.7250   25.3770 H   0  0  0  0  0  0  0  0  0  0  0  0
    1.2150    9.6150   18.5520 C   0  0  0  0  0  0  0  0  0  0  0  0
    0.2840    9.6320   17.7530 O   0  0  0  0  0  0  0  0  0  0  0  0
    1.6530   10.6660   19.3250 N   0  0  0  0  0  0  0  0  0  0  0  0
    2.4580   10.5050   19.9250 H   0  0  0  0  0  0  0  0  0  0  0  0
    3.5390    5.9780   18.9590 C   0  0  0  0  0  0  0  0  0  0  0  0
    3.5570    6.7030   17.8310 C   0  0  0  0  0  0  0  0  0  0  0  0
    2.7710    7.9110   17.7280 C   0  0  0  0  0  0  0  0  0  0  0  0
    2.0030    8.3500   18.7420 C   0  0  0  0  0  0  0  0  0  0  0  0
    1.9860    7.5400   19.9980 C   0  0  0  0  0  0  0  0  0  0  0  0
    1.3130    7.8670   20.9740 O   0  0  0  0  0  0  0  0  0  0  0  0
    2.7620    6.4040   20.0130 N   0  0  0  0  0  0  0  0  0  0  0  0
    4.1530    6.4100   16.9710 H   0  0  0  0  0  0  0  0  0  0  0  0
    2.8260    8.4560   16.7870 H   0  0  0  0  0  0  0  0  0  0  0  0
    2.7390    5.8670   20.8720 H   0  0  0  0  0  0  0  0  0  0  0  0
    4.3210    4.7160   19.1510 C   0  0  0  0  0  0  0  0  0  0  0  0
    4.2640    4.0910   18.2540 H   0  0  0  0  0  0  0  0  0  0  0  0
    5.3780    4.9190   19.3510 H   0  0  0  0  0  0  0  0  0  0  0  0
    3.9230    4.1450   19.9970 H   0  0  0  0  0  0  0  0  0  0  0  0
  1  6  1  0  0  0  0
  2  1  2  0  0  0  0
  3  2  1  0  0  0  0
  3  4  2  0  0  0  0
  4  5  1  0  0  0  0
  5 10  1  0  0  0  0
  6  5  2  0  0  0  0
  7  2  1  0  0  0  0
  8  3  1  0  0  0  0
  9  4  1  0  0  0  0
 10 15  1  0  0  0  0
 11 10  2  0  0  0  0
 11 12  1  0  0  0  0
 12 13  2  0  0  0  0
 13 14  1  0  0  0  0
 13 18  1  0  0  0  0
 14 16  1  0  0  0  0
 15 21  1  0  0  0  0
 15 14  2  0  0  0  0
 16 17  1  0  0  0  0
 16 22  1  0  0  0  0
 17 24  1  0  0  0  0
 17 25  1  0  0  0  0
 18 17  1  0  0  0  0
 19 11  1  0  0  0  0
 20 12  1  0  0  0  0
 23 16  1  0  0  0  0
 26 33  1  0  0  0  0
 26 28  1  0  0  0  0
 27 26  2  0  0  0  0
 28  1  1  0  0  0  0
 28 29  1  0  0  0  0
 30 40  1  0  0  0  0
 30 36  1  0  0  0  0
 31 30  2  0  0  0  0
 32 31  1  0  0  0  0
 32 33  2  0  0  0  0
 33 34  1  0  0  0  0
 34 36  1  0  0  0  0
 34 35  2  0  0  0  0
 36 39  1  0  0  0  0
 37 31  1  0  0  0  0
 38 32  1  0  0  0  0
 40 42  1  0  0  0  0
 40 43  1  0  0  0  0
 41 40  1  0  0  0  0
M  END
>  <MODEL>
21

>  <REMARK>
 VINA RESULT:    -6.596      3.224     10.616
 INTER + INTRA:          -8.488
 INTER:                  -7.577
 INTRA:                  -0.911
 UNBOUND:                -0.542
  Name = 
  4 active torsions:
  status: ('A' for Active; 'I' for Inactive)
    1  A    between atoms: C_1  and  C_2
    2  A    between atoms: C_5  and  C_6
    3  A    between atoms: N_8  and  C_9
    4  A    between atoms: C_13  and  C_14
                            x       y       z     vdW  Elec       q    Type
                         _______ _______ _______ _____ _____    ______ ____

>  <TORSDO>
F 4

$$$$
=
 OpenBabel07192307433D

 43 46  0  0  0  0  0  0  0  0999 V2000
    1.1910    9.8730   19.2060 C   0  0  0  0  0  0  0  0  0  0  0  0
    2.0310   10.7360   18.5140 C   0  0  0  0  0  0  0  0  0  0  0  0
    1.6850   12.0790   18.4260 C   0  0  0  0  0  0  0  0  0  0  0  0
    0.5170   12.5240   19.0370 C   0  0  0  0  0  0  0  0  0  0  0  0
   -0.2760   11.6130   19.7300 C   0  0  0  0  0  0  0  0  0  0  0  0
    0.0660   10.3020   19.8010 N   0  0  0  0  0  0  0  0  0  0  0  0
    2.9390   10.3790   18.0380 H   0  0  0  0  0  0  0  0  0  0  0  0
    2.3190   12.7740   17.8810 H   0  0  0  0  0  0  0  0  0  0  0  0
    0.2390   13.5670   18.9480 H   0  0  0  0  0  0  0  0  0  0  0  0
   -1.5380   11.9810   20.4200 C   0  0  0  0  0  0  0  0  0  0  0  0
   -2.6860   12.3440   19.6640 C   0  0  0  0  0  0  0  0  0  0  0  0
   -3.8980   12.6990   20.2680 C   0  0  0  0  0  0  0  0  0  0  0  0
   -3.9550   12.6940   21.6410 C   0  0  0  0  0  0  0  0  0  0  0  0
   -2.8650   12.3340   22.4120 C   0  0  0  0  0  0  0  0  0  0  0  0
   -1.6610   11.9680   21.8250 C   0  0  0  0  0  0  0  0  0  0  0  0
   -3.2570   12.3390   23.8390 C   0  0  0  0  0  0  0  0  0  0  0  0
   -4.5690   13.1180   23.7260 C   0  0  0  0  0  0  0  0  0  0  0  0
   -5.0710   13.0070   22.3730 O   0  0  0  0  0  0  0  0  0  0  0  0
   -2.6320   12.3400   18.5740 H   0  0  0  0  0  0  0  0  0  0  0  0
   -4.7620   12.9660   19.6700 H   0  0  0  0  0  0  0  0  0  0  0  0
   -0.8420   11.6540   22.4630 H   0  0  0  0  0  0  0  0  0  0  0  0
   -2.5400   12.8410   24.4940 H   0  0  0  0  0  0  0  0  0  0  0  0
   -3.4340   11.3160   24.1880 H   0  0  0  0  0  0  0  0  0  0  0  0
   -5.3220   12.7410   24.4250 H   0  0  0  0  0  0  0  0  0  0  0  0
   -4.4140   14.1840   23.9380 H   0  0  0  0  0  0  0  0  0  0  0  0
    2.3260    7.8590   18.3290 C   0  0  0  0  0  0  0  0  0  0  0  0
    2.8200    8.3340   17.3110 O   0  0  0  0  0  0  0  0  0  0  0  0
    1.5640    8.5260   19.2610 N   0  0  0  0  0  0  0  0  0  0  0  0
    1.2450    8.0000   20.0700 H   0  0  0  0  0  0  0  0  0  0  0  0
    3.0320    3.6560   19.1200 C   0  0  0  0  0  0  0  0  0  0  0  0
    3.3970    4.2250   17.9620 C   0  0  0  0  0  0  0  0  0  0  0  0
    3.1480    5.6300   17.7300 C   0  0  0  0  0  0  0  0  0  0  0  0
    2.5500    6.4090   18.6510 C   0  0  0  0  0  0  0  0  0  0  0  0
    2.1450    5.7700   19.9400 C   0  0  0  0  0  0  0  0  0  0  0  0
    1.5940    6.4070   20.8360 O   0  0  0  0  0  0  0  0  0  0  0  0
    2.4190    4.4290   20.0790 N   0  0  0  0  0  0  0  0  0  0  0  0
    3.8840    3.6600   17.1730 H   0  0  0  0  0  0  0  0  0  0  0  0
    3.4660    6.0350   16.7710 H   0  0  0  0  0  0  0  0  0  0  0  0
    2.1380    4.0120   20.9600 H   0  0  0  0  0  0  0  0  0  0  0  0
    3.2520    2.2110   19.4420 C   0  0  0  0  0  0  0  0  0  0  0  0
    2.3010    1.7230   19.6790 H   0  0  0  0  0  0  0  0  0  0  0  0
    3.7050    1.6710   18.6040 H   0  0  0  0  0  0  0  0  0  0  0  0
    3.9180    2.1090   20.3060 H   0  0  0  0  0  0  0  0  0  0  0  0
  1 28  1  0  0  0  0
  1  6  1  0  0  0  0
  2  1  2  0  0  0  0
  3  2  1  0  0  0  0
  3  4  2  0  0  0  0
  4  5  1  0  0  0  0
  5  6  2  0  0  0  0
  5 10  1  0  0  0  0
  7  2  1  0  0  0  0
  8  3  1  0  0  0  0
  9  4  1  0  0  0  0
 10 15  1  0  0  0  0
 11 12  1  0  0  0  0
 11 10  2  0  0  0  0
 12 13  2  0  0  0  0
 13 18  1  0  0  0  0
 13 14  1  0  0  0  0
 14 16  1  0  0  0  0
 15 14  2  0  0  0  0
 15 21  1  0  0  0  0
 16 23  1  0  0  0  0
 16 22  1  0  0  0  0
 17 16  1  0  0  0  0
 17 25  1  0  0  0  0
 17 24  1  0  0  0  0
 18 17  1  0  0  0  0
 19 11  1  0  0  0  0
 20 12  1  0  0  0  0
 26 33  1  0  0  0  0
 26 28  1  0  0  0  0
 27 26  2  0  0  0  0
 28 29  1  0  0  0  0
 30 40  1  0  0  0  0
 30 36  1  0  0  0  0
 31 30  2  0  0  0  0
 32 31  1  0  0  0  0
 32 33  2  0  0  0  0
 33 34  1  0  0  0  0
 34 36  1  0  0  0  0
 34 35  2  0  0  0  0
 36 39  1  0  0  0  0
 37 31  1  0  0  0  0
 38 32  1  0  0  0  0
 40 41  1  0  0  0  0
 40 43  1  0  0  0  0
 42 40  1  0  0  0  0
M  END
>  <MODEL>
22

>  <REMARK>
 VINA RESULT:    -6.551      2.858      9.941
 INTER + INTRA:          -8.434
 INTER:                  -8.342
 INTRA:                  -0.092
 UNBOUND:                -0.542
  Name = 
  4 active torsions:
  status: ('A' for Active; 'I' for Inactive)
    1  A    between atoms: C_1  and  C_2
    2  A    between atoms: C_5  and  C_6
    3  A    between atoms: N_8  and  C_9
    4  A    between atoms: C_13  and  C_14
                            x       y       z     vdW  Elec       q    Type
                         _______ _______ _______ _____ _____    ______ ____

>  <TORSDO>
F 4

$$$$
=
 OpenBabel07192307433D

 43 46  0  0  0  0  0  0  0  0999 V2000
    1.7170    7.7070   19.8300 C   0  0  0  0  0  0  0  0  0  0  0  0
    1.2370    7.0390   20.9490 C   0  0  0  0  0  0  0  0  0  0  0  0
    1.5610    5.6980   21.1190 C   0  0  0  0  0  0  0  0  0  0  0  0
    2.3610    5.0660   20.1730 C   0  0  0  0  0  0  0  0  0  0  0  0
    2.8250    5.7930   19.0790 C   0  0  0  0  0  0  0  0  0  0  0  0
    2.4940    7.0990   18.9190 N   0  0  0  0  0  0  0  0  0  0  0  0
    0.6100    7.5400   21.6800 H   0  0  0  0  0  0  0  0  0  0  0  0
    1.1880    5.1480   21.9790 H   0  0  0  0  0  0  0  0  0  0  0  0
    2.5950    4.0140   20.2960 H   0  0  0  0  0  0  0  0  0  0  0  0
    3.6870    5.2180   18.0150 C   0  0  0  0  0  0  0  0  0  0  0  0
    3.7500    3.8100   17.8310 C   0  0  0  0  0  0  0  0  0  0  0  0
    4.5470    3.2210   16.8430 C   0  0  0  0  0  0  0  0  0  0  0  0
    5.2900    4.0510   16.0380 C   0  0  0  0  0  0  0  0  0  0  0  0
    5.2450    5.4270   16.1760 C   0  0  0  0  0  0  0  0  0  0  0  0
    4.4490    6.0250   17.1440 C   0  0  0  0  0  0  0  0  0  0  0  0
    6.0730    6.0480   15.1190 C   0  0  0  0  0  0  0  0  0  0  0  0
    6.8510    4.8110   14.6650 C   0  0  0  0  0  0  0  0  0  0  0  0
    6.1060    3.6240   15.0240 O   0  0  0  0  0  0  0  0  0  0  0  0
    3.1530    3.1590   18.4720 H   0  0  0  0  0  0  0  0  0  0  0  0
    4.5740    2.1440   16.7170 H   0  0  0  0  0  0  0  0  0  0  0  0
    4.4110    7.1070   17.1960 H   0  0  0  0  0  0  0  0  0  0  0  0
    6.7370    6.8370   15.4820 H   0  0  0  0  0  0  0  0  0  0  0  0
    5.4370    6.4310   14.3150 H   0  0  0  0  0  0  0  0  0  0  0  0
    7.0240    4.8190   13.5850 H   0  0  0  0  0  0  0  0  0  0  0  0
    7.8280    4.7550   15.1640 H   0  0  0  0  0  0  0  0  0  0  0  0
    1.1330    9.9430   20.7100 C   0  0  0  0  0  0  0  0  0  0  0  0
    1.2280    9.7150   21.9130 O   0  0  0  0  0  0  0  0  0  0  0  0
    1.3580    9.0510   19.6860 N   0  0  0  0  0  0  0  0  0  0  0  0
    1.2630    9.3950   18.7340 H   0  0  0  0  0  0  0  0  0  0  0  0
    0.1080   13.8950   19.2550 C   0  0  0  0  0  0  0  0  0  0  0  0
    0.9850   13.1130   18.6100 C   0  0  0  0  0  0  0  0  0  0  0  0
    1.3050   11.8000   19.1210 C   0  0  0  0  0  0  0  0  0  0  0  0
    0.7440   11.3170   20.2460 C   0  0  0  0  0  0  0  0  0  0  0  0
   -0.2340   12.1920   20.9620 C   0  0  0  0  0  0  0  0  0  0  0  0
   -0.7940   11.8310   21.9950 O   0  0  0  0  0  0  0  0  0  0  0  0
   -0.4810   13.4270   20.4080 N   0  0  0  0  0  0  0  0  0  0  0  0
    1.4770   13.4350   17.6960 H   0  0  0  0  0  0  0  0  0  0  0  0
    2.0250   11.2120   18.5550 H   0  0  0  0  0  0  0  0  0  0  0  0
   -1.1470   14.0070   20.9060 H   0  0  0  0  0  0  0  0  0  0  0  0
   -0.2800   15.2660   18.7960 C   0  0  0  0  0  0  0  0  0  0  0  0
    0.0170   16.0150   19.5370 H   0  0  0  0  0  0  0  0  0  0  0  0
    0.1980   15.5280   17.8460 H   0  0  0  0  0  0  0  0  0  0  0  0
   -1.3640   15.3290   18.6550 H   0  0  0  0  0  0  0  0  0  0  0  0
  1  2  1  0  0  0  0
  2  3  2  0  0  0  0
  2  7  1  0  0  0  0
  3  8  1  0  0  0  0
  4  9  1  0  0  0  0
  4  3  1  0  0  0  0
  5  4  2  0  0  0  0
  6  5  1  0  0  0  0
  6  1  2  0  0  0  0
 10  5  1  0  0  0  0
 11 10  1  0  0  0  0
 11 19  1  0  0  0  0
 12 11  2  0  0  0  0
 13 14  2  0  0  0  0
 13 12  1  0  0  0  0
 14 15  1  0  0  0  0
 15 21  1  0  0  0  0
 15 10  2  0  0  0  0
 16 22  1  0  0  0  0
 16 14  1  0  0  0  0
 17 18  1  0  0  0  0
 17 16  1  0  0  0  0
 17 25  1  0  0  0  0
 18 13  1  0  0  0  0
 20 12  1  0  0  0  0
 23 16  1  0  0  0  0
 24 17  1  0  0  0  0
 26 27  2  0  0  0  0
 28  1  1  0  0  0  0
 28 26  1  0  0  0  0
 29 28  1  0  0  0  0
 30 36  1  0  0  0  0
 31 32  1  0  0  0  0
 31 30  2  0  0  0  0
 32 33  2  0  0  0  0
 33 26  1  0  0  0  0
 33 34  1  0  0  0  0
 34 35  2  0  0  0  0
 36 39  1  0  0  0  0
 36 34  1  0  0  0  0
 37 31  1  0  0  0  0
 38 32  1  0  0  0  0
 40 30  1  0  0  0  0
 40 41  1  0  0  0  0
 42 40  1  0  0  0  0
 43 40  1  0  0  0  0
M  END
>  <MODEL>
23

>  <REMARK>
 VINA RESULT:    -6.334      2.354      3.042
 INTER + INTRA:          -8.172
 INTER:                  -8.160
 INTRA:                  -0.011
 UNBOUND:                -0.542
  Name = 
  4 active torsions:
  status: ('A' for Active; 'I' for Inactive)
    1  A    between atoms: C_1  and  C_2
    2  A    between atoms: C_5  and  C_6
    3  A    between atoms: N_8  and  C_9
    4  A    between atoms: C_13  and  C_14
                            x       y       z     vdW  Elec       q    Type
                         _______ _______ _______ _____ _____    ______ ____

>  <TORSDO>
F 4

$$$$
=
 OpenBabel07192307433D

 43 46  0  0  0  0  0  0  0  0999 V2000
    0.9880    8.5010   21.3880 C   0  0  0  0  0  0  0  0  0  0  0  0
    0.0170    8.4780   22.3810 C   0  0  0  0  0  0  0  0  0  0  0  0
   -0.6530    9.6560   22.6900 C   0  0  0  0  0  0  0  0  0  0  0  0
   -0.3420   10.8200   21.9930 C   0  0  0  0  0  0  0  0  0  0  0  0
    0.6310   10.7760   20.9970 C   0  0  0  0  0  0  0  0  0  0  0  0
    1.2860    9.6230   20.7110 N   0  0  0  0  0  0  0  0  0  0  0  0
   -0.2170    7.5670   22.9210 H   0  0  0  0  0  0  0  0  0  0  0  0
   -1.4100    9.6690   23.4700 H   0  0  0  0  0  0  0  0  0  0  0  0
   -0.8510   11.7410   22.2500 H   0  0  0  0  0  0  0  0  0  0  0  0
    1.0370   11.9560   20.1920 C   0  0  0  0  0  0  0  0  0  0  0  0
    0.1280   12.5350   19.2660 C   0  0  0  0  0  0  0  0  0  0  0  0
    0.4640   13.6470   18.4840 C   0  0  0  0  0  0  0  0  0  0  0  0
    1.7230   14.1770   18.6310 C   0  0  0  0  0  0  0  0  0  0  0  0
    2.6320   13.6510   19.5320 C   0  0  0  0  0  0  0  0  0  0  0  0
    2.3070   12.5560   20.3210 C   0  0  0  0  0  0  0  0  0  0  0  0
    3.8560   14.4820   19.5270 C   0  0  0  0  0  0  0  0  0  0  0  0
    3.6100   15.2670   18.2370 C   0  0  0  0  0  0  0  0  0  0  0  0
    2.1930   15.2670   17.9450 O   0  0  0  0  0  0  0  0  0  0  0  0
   -0.8720   12.1100   19.1590 H   0  0  0  0  0  0  0  0  0  0  0  0
   -0.2490   14.0750   17.7880 H   0  0  0  0  0  0  0  0  0  0  0  0
    3.0320   12.1970   21.0440 H   0  0  0  0  0  0  0  0  0  0  0  0
    4.7830   13.9050   19.4830 H   0  0  0  0  0  0  0  0  0  0  0  0
    3.8670   15.1460   20.3980 H   0  0  0  0  0  0  0  0  0  0  0  0
    3.9630   16.2990   18.3210 H   0  0  0  0  0  0  0  0  0  0  0  0
    4.1250   14.8010   17.3870 H   0  0  0  0  0  0  0  0  0  0  0  0
    2.0890    6.8800   19.8800 C   0  0  0  0  0  0  0  0  0  0  0  0
    1.9890    7.4920   18.8210 O   0  0  0  0  0  0  0  0  0  0  0  0
    1.6510    7.3010   21.1160 N   0  0  0  0  0  0  0  0  0  0  0  0
    1.8290    6.6900   21.9100 H   0  0  0  0  0  0  0  0  0  0  0  0
    3.9020    2.9450   20.0180 C   0  0  0  0  0  0  0  0  0  0  0  0
    2.7660    3.2200   20.6750 C   0  0  0  0  0  0  0  0  0  0  0  0
    2.1860    4.5430   20.6080 C   0  0  0  0  0  0  0  0  0  0  0  0
    2.7540    5.5340   19.8960 C   0  0  0  0  0  0  0  0  0  0  0  0
    4.0210    5.2230   19.1650 C   0  0  0  0  0  0  0  0  0  0  0  0
    4.6060    6.0680   18.4900 O   0  0  0  0  0  0  0  0  0  0  0  0
    4.5040    3.9400   19.2820 N   0  0  0  0  0  0  0  0  0  0  0  0
    2.2510    2.4710   21.2700 H   0  0  0  0  0  0  0  0  0  0  0  0
    1.2640    4.7050   21.1630 H   0  0  0  0  0  0  0  0  0  0  0  0
    5.3630    3.7460   18.7800 H   0  0  0  0  0  0  0  0  0  0  0  0
    4.5690    1.6050   20.0340 C   0  0  0  0  0  0  0  0  0  0  0  0
    4.8210    1.2920   19.0160 H   0  0  0  0  0  0  0  0  0  0  0  0
    5.4940    1.6170   20.6190 H   0  0  0  0  0  0  0  0  0  0  0  0
    3.9040    0.8530   20.4730 H   0  0  0  0  0  0  0  0  0  0  0  0
  1  2  1  0  0  0  0
  2  3  2  0  0  0  0
  2  7  1  0  0  0  0
  3  8  1  0  0  0  0
  4  9  1  0  0  0  0
  4  3  1  0  0  0  0
  5  4  2  0  0  0  0
  6  5  1  0  0  0  0
  6  1  2  0  0  0  0
 10 15  1  0  0  0  0
 10  5  1  0  0  0  0
 11 10  2  0  0  0  0
 12 13  2  0  0  0  0
 12 11  1  0  0  0  0
 13 14  1  0  0  0  0
 14 15  2  0  0  0  0
 15 21  1  0  0  0  0
 16 14  1  0  0  0  0
 16 23  1  0  0  0  0
 17 24  1  0  0  0  0
 17 16  1  0  0  0  0
 18 17  1  0  0  0  0
 18 13  1  0  0  0  0
 19 11  1  0  0  0  0
 20 12  1  0  0  0  0
 22 16  1  0  0  0  0
 25 17  1  0  0  0  0
 26 33  1  0  0  0  0
 26 28  1  0  0  0  0
 27 26  2  0  0  0  0
 28  1  1  0  0  0  0
 28 29  1  0  0  0  0
 30 40  1  0  0  0  0
 30 31  2  0  0  0  0
 31 37  1  0  0  0  0
 32 31  1  0  0  0  0
 32 38  1  0  0  0  0
 33 32  2  0  0  0  0
 34 36  1  0  0  0  0
 34 33  1  0  0  0  0
 35 34  2  0  0  0  0
 36 30  1  0  0  0  0
 39 36  1  0  0  0  0
 40 43  1  0  0  0  0
 40 42  1  0  0  0  0
 41 40  1  0  0  0  0
M  END
>  <MODEL>
24

>  <REMARK>
 VINA RESULT:    -6.290      2.979      8.292
 INTER + INTRA:          -8.119
 INTER:                  -7.820
 INTRA:                  -0.299
 UNBOUND:                -0.542
  Name = 
  4 active torsions:
  status: ('A' for Active; 'I' for Inactive)
    1  A    between atoms: C_1  and  C_2
    2  A    between atoms: C_5  and  C_6
    3  A    between atoms: N_8  and  C_9
    4  A    between atoms: C_13  and  C_14
                            x       y       z     vdW  Elec       q    Type
                         _______ _______ _______ _____ _____    ______ ____

>  <TORSDO>
F 4

$$$$
