=
 OpenBabel07192307433D

 58 61  0  0  1  0  0  0  0  0999 V2000
   -0.1430   10.4030   19.8960 C   0  0  0  0  0  0  0  0  0  0  0  0
   -0.3690   10.7200   21.2400 C   0  0  0  0  0  0  0  0  0  0  0  0
    0.2130    9.9610   22.2550 C   0  0  0  0  0  0  0  0  0  0  0  0
    1.0190    8.8670   21.9370 C   0  0  0  0  0  0  0  0  0  0  0  0
    1.2420    8.5110   20.6040 C   0  0  0  0  0  0  0  0  0  0  0  0
    0.6630    9.2860   19.5940 C   0  0  0  0  0  0  0  0  0  0  0  0
   -1.0030   11.5590   21.5200 H   0  0  0  0  0  0  0  0  0  0  0  0
    0.0380   10.2250   23.2950 H   0  0  0  0  0  0  0  0  0  0  0  0
    1.4590    8.2950   22.7500 H   0  0  0  0  0  0  0  0  0  0  0  0
    0.8370    9.0500   18.5480 H   0  0  0  0  0  0  0  0  0  0  0  0
    2.0490    7.3800   20.3640 N   0  0  0  0  0  0  0  0  0  0  0  0
    1.6730    6.0460   20.4450 C   0  0  0  0  0  0  0  0  0  0  0  0
    0.5760    5.6100   20.7730 O   0  0  0  0  0  0  0  0  0  0  0  0
    2.9970    7.5770   20.0650 H   0  0  0  0  0  0  0  0  0  0  0  0
    2.7660    5.0810   20.1130 C   0  0  0  0  0  0  0  0  0  0  0  0
    3.8940    5.5170   19.4400 C   0  0  0  0  0  0  0  0  0  0  0  0
    4.8780    4.5710   19.1600 C   0  0  0  0  0  0  0  0  0  0  0  0
    4.7000    3.2370   19.5190 C   0  0  0  0  0  0  0  0  0  0  0  0
    3.5400    2.9050   20.1950 C   0  0  0  0  0  0  0  0  0  0  0  0
    2.5760    3.7950   20.5050 N   0  0  0  0  0  0  0  0  0  0  0  0
    4.0240    6.5550   19.1520 H   0  0  0  0  0  0  0  0  0  0  0  0
    5.4270    2.4750   19.2660 H   0  0  0  0  0  0  0  0  0  0  0  0
    3.3420    1.8820   20.5060 H   0  0  0  0  0  0  0  0  0  0  0  0
    6.0670    5.0100   18.4020 C   0  0  0  0  0  0  0  0  0  0  0  0
    7.0730    5.2990   19.0430 O   0  0  0  0  0  0  0  0  0  0  0  0
    6.0020    5.0550   17.0250 N   0  0  0  0  0  0  0  0  0  0  0  0
    4.9770    4.4820   16.1600 C   0  0  0  0  0  0  0  0  0  0  0  0
    5.6700    4.2910   14.8200 C   0  0  0  0  0  0  0  0  0  0  0  0
    6.6960    5.4210   14.7960 C   0  0  1  0  0  0  0  0  0  0  0  0
    7.1610    5.4680   16.2510 C   0  0  0  0  0  0  0  0  0  0  0  0
    4.1630    5.2100   16.0740 H   0  0  0  0  0  0  0  0  0  0  0  0
    4.5880    3.5450   16.5680 H   0  0  0  0  0  0  0  0  0  0  0  0
    6.1750    3.3180   14.7800 H   0  0  0  0  0  0  0  0  0  0  0  0
    4.9770    4.3310   13.9740 H   0  0  0  0  0  0  0  0  0  0  0  0
    6.2170    6.3630   14.5060 H   0  0  0  0  0  0  0  0  0  0  0  0
    7.9850    4.7690   16.4410 H   0  0  0  0  0  0  0  0  0  0  0  0
    7.4860    6.4680   16.5540 H   0  0  0  0  0  0  0  0  0  0  0  0
    7.7380    5.1190   13.8860 O   0  0  0  0  0  0  0  0  0  0  0  0
    8.5220    5.6300   14.1520 H   0  0  0  0  0  0  0  0  0  0  0  0
   -0.7520   11.2000   18.7490 C   0  0  2  0  0  0  0  0  0  0  0  0
   -0.3040   10.7950   17.8290 H   0  0  0  0  0  0  0  0  0  0  0  0
   -0.3810   12.6900   18.7330 C   0  0  0  0  0  0  0  0  0  0  0  0
    0.3190   12.9180   19.5450 H   0  0  0  0  0  0  0  0  0  0  0  0
    0.0930   12.9980   17.7960 H   0  0  0  0  0  0  0  0  0  0  0  0
   -1.2710   13.3130   18.8770 H   0  0  0  0  0  0  0  0  0  0  0  0
   -2.2740   10.9760   18.6220 C   0  0  0  0  0  0  0  0  0  0  0  0
   -2.5570   10.1120   19.2370 H   0  0  0  0  0  0  0  0  0  0  0  0
   -2.8120   11.8270   19.0540 H   0  0  0  0  0  0  0  0  0  0  0  0
   -2.7420   10.7190   17.2280 C   0  0  0  0  0  0  0  0  0  0  0  0
   -2.0740   10.0550   16.3030 N   0  0  0  0  0  0  0  0  0  0  0  0
   -2.8270   10.0380   15.1540 N   0  0  0  0  0  0  0  0  0  0  0  0
   -3.9420   10.6810   15.4020 C   0  0  0  0  0  0  0  0  0  0  0  0
   -3.9400   11.1180   16.6920 N   0  0  0  0  0  0  0  0  0  0  0  0
   -4.7510   10.8460   14.7060 H   0  0  0  0  0  0  0  0  0  0  0  0
   -5.0090   11.8480   17.3170 C   0  0  0  0  0  0  0  0  0  0  0  0
   -4.8010   12.9160   17.2210 H   0  0  0  0  0  0  0  0  0  0  0  0
   -5.9470   11.6100   16.8090 H   0  0  0  0  0  0  0  0  0  0  0  0
   -5.0960   11.5650   18.3670 H   0  0  0  0  0  0  0  0  0  0  0  0
  1  2  1  0  0  0  0
  2  7  1  0  0  0  0
  2  3  2  0  0  0  0
  3  8  1  0  0  0  0
  4  3  1  0  0  0  0
  4  9  1  0  0  0  0
  5  4  2  0  0  0  0
  6  1  2  0  0  0  0
  6  5  1  0  0  0  0
 10  6  1  0  0  0  0
 11 12  1  0  0  0  0
 11  5  1  0  0  0  0
 12 13  2  0  0  0  0
 14 11  1  0  0  0  0
 15 12  1  0  0  0  0
 15 20  1  0  0  0  0
 16 15  2  0  0  0  0
 17 16  1  0  0  0  0
 17 18  2  0  0  0  0
 18 19  1  0  0  0  0
 19 20  2  0  0  0  0
 19 23  1  0  0  0  0
 21 16  1  0  0  0  0
 22 18  1  0  0  0  0
 24 25  2  0  0  0  0
 24 17  1  0  0  0  0
 26 24  1  0  0  0  0
 27 32  1  0  0  0  0
 27 26  1  0  0  0  0
 28 27  1  0  0  0  0
 29 35  1  6  0  0  0
 29 28  1  0  0  0  0
 29 30  1  0  0  0  0
 30 36  1  0  0  0  0
 30 37  1  0  0  0  0
 30 26  1  0  0  0  0
 31 27  1  0  0  0  0
 33 28  1  0  0  0  0
 34 28  1  0  0  0  0
 38 39  1  0  0  0  0
 38 29  1  0  0  0  0
 40 41  1  6  0  0  0
 40  1  1  0  0  0  0
 42 40  1  0  0  0  0
 42 45  1  0  0  0  0
 42 43  1  0  0  0  0
 44 42  1  0  0  0  0
 46 40  1  0  0  0  0
 46 48  1  0  0  0  0
 46 47  1  0  0  0  0
 49 46  1  0  0  0  0
 50 49  2  0  0  0  0
 51 52  2  0  0  0  0
 51 50  1  0  0  0  0
 52 53  1  0  0  0  0
 53 49  1  0  0  0  0
 53 55  1  0  0  0  0
 54 52  1  0  0  0  0
 55 58  1  0  0  0  0
 56 55  1  0  0  0  0
 57 55  1  0  0  0  0
M  END
>  <MODEL>
1

>  <REMARK>
 VINA RESULT:    -8.379      0.000      0.000
 INTER + INTRA:         -12.655
 INTER:                 -11.709
 INTRA:                  -0.946
 UNBOUND:                -0.602
  Name = 
  9 active torsions:
  status: ('A' for Active; 'I' for Inactive)
    1  A    between atoms: C_1  and  C_2
    2  A    between atoms: C_2  and  C_3
    3  A    between atoms: C_2  and  C_10
    4  A    between atoms: C_3  and  C_4
    5  A    between atoms: N_8  and  C_9
    6  A    between atoms: C_14  and  N_15
    7  A    between atoms: C_16  and  C_18
    8  A    between atoms: C_20  and  C_21
    9  A    between atoms: C_26  and  O_27
                            x       y       z     vdW  Elec       q    Type
                         _______ _______ _______ _____ _____    ______ ____

>  <TORSDO>
F 9

$$$$
=
 OpenBabel07192307433D

 58 61  0  0  1  0  0  0  0  0999 V2000
   -0.9140   11.2130   20.8670 C   0  0  0  0  0  0  0  0  0  0  0  0
   -1.1870   11.4140   22.2260 C   0  0  0  0  0  0  0  0  0  0  0  0
   -0.8040   10.4640   23.1730 C   0  0  0  0  0  0  0  0  0  0  0  0
   -0.1530    9.2970   22.7720 C   0  0  0  0  0  0  0  0  0  0  0  0
    0.1100    9.0580   21.4190 C   0  0  0  0  0  0  0  0  0  0  0  0
   -0.2680   10.0210   20.4800 C   0  0  0  0  0  0  0  0  0  0  0  0
   -1.7040   12.3080   22.5680 H   0  0  0  0  0  0  0  0  0  0  0  0
   -1.0130   10.6380   24.2250 H   0  0  0  0  0  0  0  0  0  0  0  0
    0.1330    8.5770   23.5340 H   0  0  0  0  0  0  0  0  0  0  0  0
   -0.0550    9.8760   19.4240 H   0  0  0  0  0  0  0  0  0  0  0  0
    0.7500    7.8450   21.0920 N   0  0  0  0  0  0  0  0  0  0  0  0
    1.6500    7.6210   20.0590 C   0  0  0  0  0  0  0  0  0  0  0  0
    2.0240    8.4330   19.2210 O   0  0  0  0  0  0  0  0  0  0  0  0
    0.5500    7.0660   21.7100 H   0  0  0  0  0  0  0  0  0  0  0  0
    2.1630    6.2180   19.9880 C   0  0  0  0  0  0  0  0  0  0  0  0
    2.8710    5.7940   18.8770 C   0  0  0  0  0  0  0  0  0  0  0  0
    3.3230    4.4770   18.8690 C   0  0  0  0  0  0  0  0  0  0  0  0
    3.0330    3.6230   19.9320 C   0  0  0  0  0  0  0  0  0  0  0  0
    2.3250    4.1460   20.9990 C   0  0  0  0  0  0  0  0  0  0  0  0
    1.8910    5.4220   21.0530 N   0  0  0  0  0  0  0  0  0  0  0  0
    3.0840    6.4590   18.0460 H   0  0  0  0  0  0  0  0  0  0  0  0
    3.3290    2.5810   19.9250 H   0  0  0  0  0  0  0  0  0  0  0  0
    2.0700    3.5340   21.8600 H   0  0  0  0  0  0  0  0  0  0  0  0
    4.0390    3.9950   17.6720 C   0  0  0  0  0  0  0  0  0  0  0  0
    3.4930    3.1280   16.9950 O   0  0  0  0  0  0  0  0  0  0  0  0
    5.2640    4.5460   17.3580 N   0  0  0  0  0  0  0  0  0  0  0  0
    5.8710    5.7500   17.9160 C   0  0  0  0  0  0  0  0  0  0  0  0
    6.8530    6.2120   16.8510 C   0  0  0  0  0  0  0  0  0  0  0  0
    7.2850    4.9070   16.1880 C   0  0  1  0  0  0  0  0  0  0  0  0
    5.9850    4.1030   16.1770 C   0  0  0  0  0  0  0  0  0  0  0  0
    6.3990    5.4670   18.8320 H   0  0  0  0  0  0  0  0  0  0  0  0
    5.1160    6.5060   18.1480 H   0  0  0  0  0  0  0  0  0  0  0  0
    6.3550    6.8630   16.1210 H   0  0  0  0  0  0  0  0  0  0  0  0
    7.6940    6.7750   17.2650 H   0  0  0  0  0  0  0  0  0  0  0  0
    8.0510    4.4090   16.7930 H   0  0  0  0  0  0  0  0  0  0  0  0
    5.3790    4.3150   15.2880 H   0  0  0  0  0  0  0  0  0  0  0  0
    6.1610    3.0240   16.2200 H   0  0  0  0  0  0  0  0  0  0  0  0
    7.7960    5.1610   14.8920 O   0  0  0  0  0  0  0  0  0  0  0  0
    8.6880    5.5380   14.9930 H   0  0  0  0  0  0  0  0  0  0  0  0
   -1.3070   12.2190   19.7920 C   0  0  2  0  0  0  0  0  0  0  0  0
   -0.6370   12.0280   18.9400 H   0  0  0  0  0  0  0  0  0  0  0  0
   -1.0520   13.6870   20.1600 C   0  0  0  0  0  0  0  0  0  0  0  0
   -1.9030   14.0950   20.7170 H   0  0  0  0  0  0  0  0  0  0  0  0
   -0.1600   13.8190   20.7790 H   0  0  0  0  0  0  0  0  0  0  0  0
   -0.9240   14.2960   19.2580 H   0  0  0  0  0  0  0  0  0  0  0  0
   -2.7420   11.9880   19.2700 C   0  0  0  0  0  0  0  0  0  0  0  0
   -3.2800   11.3530   19.9860 H   0  0  0  0  0  0  0  0  0  0  0  0
   -3.2890   12.9370   19.2570 H   0  0  0  0  0  0  0  0  0  0  0  0
   -2.8100   11.3290   17.9330 C   0  0  0  0  0  0  0  0  0  0  0  0
   -1.8550   10.5990   17.3860 N   0  0  0  0  0  0  0  0  0  0  0  0
   -2.2870   10.1760   16.1530 N   0  0  0  0  0  0  0  0  0  0  0  0
   -3.4980   10.6450   15.9750 C   0  0  0  0  0  0  0  0  0  0  0  0
   -3.8740   11.3660   17.0680 N   0  0  0  0  0  0  0  0  0  0  0  0
   -4.1200   10.4910   15.1050 H   0  0  0  0  0  0  0  0  0  0  0  0
   -5.1460   12.0160   17.2300 C   0  0  0  0  0  0  0  0  0  0  0  0
   -4.9820   12.9810   17.7140 H   0  0  0  0  0  0  0  0  0  0  0  0
   -5.5940   12.1720   16.2450 H   0  0  0  0  0  0  0  0  0  0  0  0
   -5.8150   11.3930   17.8260 H   0  0  0  0  0  0  0  0  0  0  0  0
  1  2  1  0  0  0  0
  2  7  1  0  0  0  0
  2  3  2  0  0  0  0
  3  8  1  0  0  0  0
  4  3  1  0  0  0  0
  4  9  1  0  0  0  0
  5  4  2  0  0  0  0
  6  1  2  0  0  0  0
  6  5  1  0  0  0  0
 10  6  1  0  0  0  0
 11  5  1  0  0  0  0
 11 14  1  0  0  0  0
 12 11  1  0  0  0  0
 13 12  2  0  0  0  0
 15 12  1  0  0  0  0
 15 20  1  0  0  0  0
 16 15  2  0  0  0  0
 17 16  1  0  0  0  0
 17 18  2  0  0  0  0
 18 19  1  0  0  0  0
 19 20  2  0  0  0  0
 19 23  1  0  0  0  0
 21 16  1  0  0  0  0
 22 18  1  0  0  0  0
 24 17  1  0  0  0  0
 25 24  2  0  0  0  0
 26 24  1  0  0  0  0
 26 27  1  0  0  0  0
 27 32  1  0  0  0  0
 27 31  1  0  0  0  0
 28 34  1  0  0  0  0
 28 27  1  0  0  0  0
 29 35  1  1  0  0  0
 29 28  1  0  0  0  0
 30 29  1  0  0  0  0
 30 37  1  0  0  0  0
 30 26  1  0  0  0  0
 33 28  1  0  0  0  0
 36 30  1  0  0  0  0
 38 39  1  0  0  0  0
 38 29  1  0  0  0  0
 40 41  1  6  0  0  0
 40 42  1  0  0  0  0
 40  1  1  0  0  0  0
 42 43  1  0  0  0  0
 42 44  1  0  0  0  0
 45 42  1  0  0  0  0
 46 40  1  0  0  0  0
 46 47  1  0  0  0  0
 48 46  1  0  0  0  0
 49 46  1  0  0  0  0
 50 49  2  0  0  0  0
 51 50  1  0  0  0  0
 52 51  2  0  0  0  0
 52 53  1  0  0  0  0
 53 55  1  0  0  0  0
 53 49  1  0  0  0  0
 54 52  1  0  0  0  0
 55 56  1  0  0  0  0
 55 58  1  0  0  0  0
 57 55  1  0  0  0  0
M  END
>  <MODEL>
2

>  <REMARK>
 VINA RESULT:    -8.259      1.522      1.840
 INTER + INTRA:         -12.482
 INTER:                 -12.074
 INTRA:                  -0.408
 UNBOUND:                -0.602
  Name = 
  9 active torsions:
  status: ('A' for Active; 'I' for Inactive)
    1  A    between atoms: C_1  and  C_2
    2  A    between atoms: C_2  and  C_3
    3  A    between atoms: C_2  and  C_10
    4  A    between atoms: C_3  and  C_4
    5  A    between atoms: N_8  and  C_9
    6  A    between atoms: C_14  and  N_15
    7  A    between atoms: C_16  and  C_18
    8  A    between atoms: C_20  and  C_21
    9  A    between atoms: C_26  and  O_27
                            x       y       z     vdW  Elec       q    Type
                         _______ _______ _______ _____ _____    ______ ____

>  <TORSDO>
F 9

$$$$
=
 OpenBabel07192307433D

 58 61  0  0  1  0  0  0  0  0999 V2000
    4.8090    4.4420   17.1050 C   0  0  0  0  0  0  0  0  0  0  0  0
    3.9730    3.3300   16.9410 C   0  0  0  0  0  0  0  0  0  0  0  0
    2.6470    3.3720   17.3700 C   0  0  0  0  0  0  0  0  0  0  0  0
    2.1420    4.5220   17.9770 C   0  0  0  0  0  0  0  0  0  0  0  0
    2.9600    5.6380   18.1770 C   0  0  0  0  0  0  0  0  0  0  0  0
    4.2850    5.5900   17.7340 C   0  0  0  0  0  0  0  0  0  0  0  0
    4.3410    2.4140   16.4830 H   0  0  0  0  0  0  0  0  0  0  0  0
    2.0060    2.5050   17.2270 H   0  0  0  0  0  0  0  0  0  0  0  0
    1.1040    4.5240   18.3000 H   0  0  0  0  0  0  0  0  0  0  0  0
    4.9390    6.4500   17.8520 H   0  0  0  0  0  0  0  0  0  0  0  0
    2.3840    6.7540   18.8190 N   0  0  0  0  0  0  0  0  0  0  0  0
    1.9610    6.8390   20.1390 C   0  0  0  0  0  0  0  0  0  0  0  0
    1.9810    5.9450   20.9760 O   0  0  0  0  0  0  0  0  0  0  0  0
    2.3090    7.5910   18.2530 H   0  0  0  0  0  0  0  0  0  0  0  0
    1.4050    8.1740   20.5180 C   0  0  0  0  0  0  0  0  0  0  0  0
    0.9570    9.0420   19.5360 C   0  0  0  0  0  0  0  0  0  0  0  0
    0.4500   10.2710   19.9510 C   0  0  0  0  0  0  0  0  0  0  0  0
    0.4350   10.6100   21.3030 C   0  0  0  0  0  0  0  0  0  0  0  0
    0.8980    9.6700   22.2050 C   0  0  0  0  0  0  0  0  0  0  0  0
    1.3750    8.4610   21.8440 N   0  0  0  0  0  0  0  0  0  0  0  0
    0.9820    8.7780   18.4840 H   0  0  0  0  0  0  0  0  0  0  0  0
    0.0940   11.5800   21.6440 H   0  0  0  0  0  0  0  0  0  0  0  0
    0.9090    9.8720   23.2730 H   0  0  0  0  0  0  0  0  0  0  0  0
    0.0120   11.2270   18.9150 C   0  0  0  0  0  0  0  0  0  0  0  0
    0.7390   12.1880   18.6870 O   0  0  0  0  0  0  0  0  0  0  0  0
   -1.1700   10.9890   18.2440 N   0  0  0  0  0  0  0  0  0  0  0  0
   -1.9600    9.7630   18.2320 C   0  0  0  0  0  0  0  0  0  0  0  0
   -2.7550    9.8330   16.9370 C   0  0  0  0  0  0  0  0  0  0  0  0
   -2.9540   11.3320   16.7320 C   0  0  1  0  0  0  0  0  0  0  0  0
   -1.6190   11.9050   17.2080 C   0  0  0  0  0  0  0  0  0  0  0  0
   -2.6290    9.7850   19.0980 H   0  0  0  0  0  0  0  0  0  0  0  0
   -1.3220    8.8770   18.2850 H   0  0  0  0  0  0  0  0  0  0  0  0
   -2.1780    9.4090   16.1050 H   0  0  0  0  0  0  0  0  0  0  0  0
   -3.6990    9.2840   16.9890 H   0  0  0  0  0  0  0  0  0  0  0  0
   -3.7810   11.6940   17.3540 H   0  0  0  0  0  0  0  0  0  0  0  0
   -0.8740   11.9290   16.4040 H   0  0  0  0  0  0  0  0  0  0  0  0
   -1.7190   12.9170   17.6100 H   0  0  0  0  0  0  0  0  0  0  0  0
   -3.2290   11.6090   15.3720 O   0  0  0  0  0  0  0  0  0  0  0  0
   -2.6710   11.0240   14.8300 H   0  0  0  0  0  0  0  0  0  0  0  0
    6.2640    4.4510   16.6530 C   0  0  2  0  0  0  0  0  0  0  0  0
    6.4900    3.4190   16.3440 H   0  0  0  0  0  0  0  0  0  0  0  0
    7.2800    4.7510   17.7630 C   0  0  0  0  0  0  0  0  0  0  0  0
    7.3060    5.8250   17.9780 H   0  0  0  0  0  0  0  0  0  0  0  0
    7.0480    4.2340   18.7000 H   0  0  0  0  0  0  0  0  0  0  0  0
    8.2890    4.4500   17.4580 H   0  0  0  0  0  0  0  0  0  0  0  0
    6.4850    5.3320   15.4050 C   0  0  0  0  0  0  0  0  0  0  0  0
    5.7120    6.1100   15.3800 H   0  0  0  0  0  0  0  0  0  0  0  0
    7.4350    5.8710   15.4940 H   0  0  0  0  0  0  0  0  0  0  0  0
    6.4280    4.5890   14.1120 C   0  0  0  0  0  0  0  0  0  0  0  0
    5.5410    3.6650   13.7940 N   0  0  0  0  0  0  0  0  0  0  0  0
    5.8220    3.2120   12.5280 N   0  0  0  0  0  0  0  0  0  0  0  0
    6.8670    3.8730   12.0940 C   0  0  0  0  0  0  0  0  0  0  0  0
    7.2780    4.7560   13.0470 N   0  0  0  0  0  0  0  0  0  0  0  0
    7.3420    3.7540   11.1320 H   0  0  0  0  0  0  0  0  0  0  0  0
    8.3880    5.6590   12.9120 C   0  0  0  0  0  0  0  0  0  0  0  0
    8.0410    6.6700   13.1360 H   0  0  0  0  0  0  0  0  0  0  0  0
    9.1670    5.3730   13.6230 H   0  0  0  0  0  0  0  0  0  0  0  0
    8.7960    5.6060   11.9010 H   0  0  0  0  0  0  0  0  0  0  0  0
  1  6  1  0  0  0  0
  2  1  2  0  0  0  0
  2  3  1  0  0  0  0
  3  4  2  0  0  0  0
  4  5  1  0  0  0  0
  4  9  1  0  0  0  0
  5 11  1  0  0  0  0
  6 10  1  0  0  0  0
  6  5  2  0  0  0  0
  7  2  1  0  0  0  0
  8  3  1  0  0  0  0
 11 12  1  0  0  0  0
 12 15  1  0  0  0  0
 12 13  2  0  0  0  0
 14 11  1  0  0  0  0
 15 20  1  0  0  0  0
 16 17  1  0  0  0  0
 16 15  2  0  0  0  0
 17 18  2  0  0  0  0
 18 22  1  0  0  0  0
 18 19  1  0  0  0  0
 19 23  1  0  0  0  0
 20 19  2  0  0  0  0
 21 16  1  0  0  0  0
 24 17  1  0  0  0  0
 25 24  2  0  0  0  0
 26 24  1  0  0  0  0
 27 26  1  0  0  0  0
 27 32  1  0  0  0  0
 27 31  1  0  0  0  0
 28 34  1  0  0  0  0
 28 27  1  0  0  0  0
 29 28  1  0  0  0  0
 29 30  1  0  0  0  0
 29 35  1  1  0  0  0
 30 37  1  0  0  0  0
 30 26  1  0  0  0  0
 33 28  1  0  0  0  0
 36 30  1  0  0  0  0
 38 29  1  0  0  0  0
 39 38  1  0  0  0  0
 40 41  1  6  0  0  0
 40  1  1  0  0  0  0
 40 42  1  0  0  0  0
 42 43  1  0  0  0  0
 42 44  1  0  0  0  0
 45 42  1  0  0  0  0
 46 48  1  0  0  0  0
 46 40  1  0  0  0  0
 47 46  1  0  0  0  0
 49 46  1  0  0  0  0
 50 49  2  0  0  0  0
 51 50  1  0  0  0  0
 52 51  2  0  0  0  0
 52 53  1  0  0  0  0
 53 49  1  0  0  0  0
 54 52  1  0  0  0  0
 55 53  1  0  0  0  0
 55 56  1  0  0  0  0
 55 57  1  0  0  0  0
 58 55  1  0  0  0  0
M  END
>  <MODEL>
3

>  <REMARK>
 VINA RESULT:    -8.142      2.786      9.211
 INTER + INTRA:         -12.314
 INTER:                 -11.637
 INTRA:                  -0.678
 UNBOUND:                -0.602
  Name = 
  9 active torsions:
  status: ('A' for Active; 'I' for Inactive)
    1  A    between atoms: C_1  and  C_2
    2  A    between atoms: C_2  and  C_3
    3  A    between atoms: C_2  and  C_10
    4  A    between atoms: C_3  and  C_4
    5  A    between atoms: N_8  and  C_9
    6  A    between atoms: C_14  and  N_15
    7  A    between atoms: C_16  and  C_18
    8  A    between atoms: C_20  and  C_21
    9  A    between atoms: C_26  and  O_27
                            x       y       z     vdW  Elec       q    Type
                         _______ _______ _______ _____ _____    ______ ____

>  <TORSDO>
F 9

$$$$
=
 OpenBabel07192307433D

 58 61  0  0  1  0  0  0  0  0999 V2000
    4.5460    4.7620   16.7650 C   0  0  0  0  0  0  0  0  0  0  0  0
    3.8260    3.5620   16.7850 C   0  0  0  0  0  0  0  0  0  0  0  0
    2.5970    3.4840   17.4390 C   0  0  0  0  0  0  0  0  0  0  0  0
    2.0780    4.6030   18.0910 C   0  0  0  0  0  0  0  0  0  0  0  0
    2.7870    5.8080   18.1100 C   0  0  0  0  0  0  0  0  0  0  0  0
    4.0120    5.8780   17.4420 C   0  0  0  0  0  0  0  0  0  0  0  0
    4.2110    2.6690   16.2960 H   0  0  0  0  0  0  0  0  0  0  0  0
    2.0430    2.5480   17.4370 H   0  0  0  0  0  0  0  0  0  0  0  0
    1.1170    4.5100   18.5910 H   0  0  0  0  0  0  0  0  0  0  0  0
    4.5750    6.8070   17.4180 H   0  0  0  0  0  0  0  0  0  0  0  0
    2.2070    6.8860   18.8100 N   0  0  0  0  0  0  0  0  0  0  0  0
    1.9410    6.9590   20.1710 C   0  0  0  0  0  0  0  0  0  0  0  0
    2.1310    6.0830   21.0050 O   0  0  0  0  0  0  0  0  0  0  0  0
    2.0000    7.7060   18.2520 H   0  0  0  0  0  0  0  0  0  0  0  0
    1.3320    8.2540   20.6060 C   0  0  0  0  0  0  0  0  0  0  0  0
    0.8600    9.1490   19.6620 C   0  0  0  0  0  0  0  0  0  0  0  0
    0.3040   10.3380   20.1280 C   0  0  0  0  0  0  0  0  0  0  0  0
    0.2660   10.6130   21.4940 C   0  0  0  0  0  0  0  0  0  0  0  0
    0.7570    9.6500   22.3550 C   0  0  0  0  0  0  0  0  0  0  0  0
    1.2810    8.4780   21.9440 N   0  0  0  0  0  0  0  0  0  0  0  0
    0.9030    8.9360   18.5980 H   0  0  0  0  0  0  0  0  0  0  0  0
   -0.1140   11.5530   21.8760 H   0  0  0  0  0  0  0  0  0  0  0  0
    0.7520    9.8020   23.4320 H   0  0  0  0  0  0  0  0  0  0  0  0
   -0.1620   11.3250   19.1330 C   0  0  0  0  0  0  0  0  0  0  0  0
    0.4890   12.3580   19.0120 O   0  0  0  0  0  0  0  0  0  0  0  0
   -1.2810   11.0360   18.3790 N   0  0  0  0  0  0  0  0  0  0  0  0
   -1.9570    9.7510   18.2400 C   0  0  0  0  0  0  0  0  0  0  0  0
   -2.6850    9.8450   16.9080 C   0  0  0  0  0  0  0  0  0  0  0  0
   -3.0050   11.3320   16.7910 C   0  0  1  0  0  0  0  0  0  0  0  0
   -1.7540   11.9810   17.3810 C   0  0  0  0  0  0  0  0  0  0  0  0
   -2.6710    9.6550   19.0650 H   0  0  0  0  0  0  0  0  0  0  0  0
   -1.2470    8.9210   18.2720 H   0  0  0  0  0  0  0  0  0  0  0  0
   -2.0300    9.5310   16.0860 H   0  0  0  0  0  0  0  0  0  0  0  0
   -3.5790    9.2160   16.8680 H   0  0  0  0  0  0  0  0  0  0  0  0
   -3.8930   11.5780   17.3860 H   0  0  0  0  0  0  0  0  0  0  0  0
   -0.9720   12.1250   16.6260 H   0  0  0  0  0  0  0  0  0  0  0  0
   -1.9630   12.9510   17.8430 H   0  0  0  0  0  0  0  0  0  0  0  0
   -3.2310   11.6810   15.4380 O   0  0  0  0  0  0  0  0  0  0  0  0
   -2.8010   11.0080   14.8810 H   0  0  0  0  0  0  0  0  0  0  0  0
    5.8920    4.9030   16.0640 C   0  0  2  0  0  0  0  0  0  0  0  0
    5.9000    5.9130   15.6260 H   0  0  0  0  0  0  0  0  0  0  0  0
    6.0950    3.9640   14.8670 C   0  0  0  0  0  0  0  0  0  0  0  0
    5.8870    4.4900   13.9290 H   0  0  0  0  0  0  0  0  0  0  0  0
    7.1150    3.5720   14.8050 H   0  0  0  0  0  0  0  0  0  0  0  0
    5.4130    3.1080   14.9260 H   0  0  0  0  0  0  0  0  0  0  0  0
    7.0770    4.8540   17.0540 C   0  0  0  0  0  0  0  0  0  0  0  0
    6.7840    4.2560   17.9260 H   0  0  0  0  0  0  0  0  0  0  0  0
    7.9160    4.3140   16.6010 H   0  0  0  0  0  0  0  0  0  0  0  0
    7.5220    6.1910   17.5430 C   0  0  0  0  0  0  0  0  0  0  0  0
    7.5150    7.3090   16.8410 N   0  0  0  0  0  0  0  0  0  0  0  0
    8.0040    8.3200   17.6320 N   0  0  0  0  0  0  0  0  0  0  0  0
    8.2890    7.8040   18.8020 C   0  0  0  0  0  0  0  0  0  0  0  0
    7.9950    6.4750   18.8000 N   0  0  0  0  0  0  0  0  0  0  0  0
    8.6940    8.3360   19.6510 H   0  0  0  0  0  0  0  0  0  0  0  0
    8.1670    5.5890   19.9190 C   0  0  0  0  0  0  0  0  0  0  0  0
    7.3020    5.6920   20.5780 H   0  0  0  0  0  0  0  0  0  0  0  0
    8.2280    4.5610   19.5530 H   0  0  0  0  0  0  0  0  0  0  0  0
    9.0890    5.8280   20.4510 H   0  0  0  0  0  0  0  0  0  0  0  0
  1  2  2  0  0  0  0
  1  6  1  0  0  0  0
  2  3  1  0  0  0  0
  3  4  2  0  0  0  0
  4  5  1  0  0  0  0
  4  9  1  0  0  0  0
  5 11  1  0  0  0  0
  6  5  2  0  0  0  0
  7  2  1  0  0  0  0
  8  3  1  0  0  0  0
 10  6  1  0  0  0  0
 11 12  1  0  0  0  0
 12 15  1  0  0  0  0
 12 13  2  0  0  0  0
 14 11  1  0  0  0  0
 15 20  1  0  0  0  0
 16 17  1  0  0  0  0
 16 15  2  0  0  0  0
 17 18  2  0  0  0  0
 18 22  1  0  0  0  0
 18 19  1  0  0  0  0
 19 23  1  0  0  0  0
 20 19  2  0  0  0  0
 21 16  1  0  0  0  0
 24 17  1  0  0  0  0
 25 24  2  0  0  0  0
 26 24  1  0  0  0  0
 27 32  1  0  0  0  0
 27 26  1  0  0  0  0
 27 31  1  0  0  0  0
 28 27  1  0  0  0  0
 29 28  1  0  0  0  0
 29 30  1  0  0  0  0
 29 35  1  1  0  0  0
 30 37  1  0  0  0  0
 30 26  1  0  0  0  0
 33 28  1  0  0  0  0
 34 28  1  0  0  0  0
 36 30  1  0  0  0  0
 38 29  1  0  0  0  0
 39 38  1  0  0  0  0
 40 41  1  6  0  0  0
 40  1  1  0  0  0  0
 40 46  1  0  0  0  0
 42 45  1  0  0  0  0
 42 40  1  0  0  0  0
 43 42  1  0  0  0  0
 44 42  1  0  0  0  0
 46 49  1  0  0  0  0
 46 47  1  0  0  0  0
 48 46  1  0  0  0  0
 49 53  1  0  0  0  0
 50 49  2  0  0  0  0
 50 51  1  0  0  0  0
 51 52  2  0  0  0  0
 52 54  1  0  0  0  0
 53 52  1  0  0  0  0
 53 55  1  0  0  0  0
 55 58  1  0  0  0  0
 55 56  1  0  0  0  0
 57 55  1  0  0  0  0
M  END
>  <MODEL>
4

>  <REMARK>
 VINA RESULT:    -8.039      2.695      9.168
 INTER + INTRA:         -12.165
 INTER:                 -11.410
 INTRA:                  -0.756
 UNBOUND:                -0.602
  Name = 
  9 active torsions:
  status: ('A' for Active; 'I' for Inactive)
    1  A    between atoms: C_1  and  C_2
    2  A    between atoms: C_2  and  C_3
    3  A    between atoms: C_2  and  C_10
    4  A    between atoms: C_3  and  C_4
    5  A    between atoms: N_8  and  C_9
    6  A    between atoms: C_14  and  N_15
    7  A    between atoms: C_16  and  C_18
    8  A    between atoms: C_20  and  C_21
    9  A    between atoms: C_26  and  O_27
                            x       y       z     vdW  Elec       q    Type
                         _______ _______ _______ _____ _____    ______ ____

>  <TORSDO>
F 9

$$$$
=
 OpenBabel07192307433D

 58 61  0  0  1  0  0  0  0  0999 V2000
    0.0800   10.4690   20.2960 C   0  0  0  0  0  0  0  0  0  0  0  0
   -0.3940   10.5470   21.6110 C   0  0  0  0  0  0  0  0  0  0  0  0
   -0.0320    9.5850   22.5530 C   0  0  0  0  0  0  0  0  0  0  0  0
    0.8010    8.5270   22.1890 C   0  0  0  0  0  0  0  0  0  0  0  0
    1.2690    8.4080   20.8770 C   0  0  0  0  0  0  0  0  0  0  0  0
    0.9090    9.3840   19.9430 C   0  0  0  0  0  0  0  0  0  0  0  0
   -1.0560   11.3540   21.9220 H   0  0  0  0  0  0  0  0  0  0  0  0
   -0.3990    9.6640   23.5730 H   0  0  0  0  0  0  0  0  0  0  0  0
    1.0660    7.7930   22.9470 H   0  0  0  0  0  0  0  0  0  0  0  0
    1.2770    9.3340   18.9220 H   0  0  0  0  0  0  0  0  0  0  0  0
    2.0870    7.2980   20.5820 N   0  0  0  0  0  0  0  0  0  0  0  0
    1.6940    5.9710   20.4670 C   0  0  0  0  0  0  0  0  0  0  0  0
    0.5680    5.5210   20.6360 O   0  0  0  0  0  0  0  0  0  0  0  0
    3.0610    7.5110   20.3990 H   0  0  0  0  0  0  0  0  0  0  0  0
    2.8070    5.0320   20.1280 C   0  0  0  0  0  0  0  0  0  0  0  0
    3.9360    5.5000   19.4790 C   0  0  0  0  0  0  0  0  0  0  0  0
    4.9390    4.5770   19.1900 C   0  0  0  0  0  0  0  0  0  0  0  0
    4.7770    3.2320   19.5170 C   0  0  0  0  0  0  0  0  0  0  0  0
    3.6150    2.8670   20.1700 C   0  0  0  0  0  0  0  0  0  0  0  0
    2.6330    3.7350   20.4880 N   0  0  0  0  0  0  0  0  0  0  0  0
    4.0520    6.5470   19.2150 H   0  0  0  0  0  0  0  0  0  0  0  0
    5.5200    2.4880   19.2550 H   0  0  0  0  0  0  0  0  0  0  0  0
    3.4300    1.8340   20.4560 H   0  0  0  0  0  0  0  0  0  0  0  0
    6.1290    5.0510   18.4560 C   0  0  0  0  0  0  0  0  0  0  0  0
    7.1080    5.3830   19.1180 O   0  0  0  0  0  0  0  0  0  0  0  0
    6.0970    5.0810   17.0770 N   0  0  0  0  0  0  0  0  0  0  0  0
    5.1150    4.4620   16.1930 C   0  0  0  0  0  0  0  0  0  0  0  0
    5.8480    4.2840   14.8730 C   0  0  0  0  0  0  0  0  0  0  0  0
    6.8320    5.4500   14.8620 C   0  0  1  0  0  0  0  0  0  0  0  0
    7.2590    5.5280   16.3280 C   0  0  0  0  0  0  0  0  0  0  0  0
    4.2780    5.1580   16.0800 H   0  0  0  0  0  0  0  0  0  0  0  0
    4.7510    3.5160   16.6020 H   0  0  0  0  0  0  0  0  0  0  0  0
    6.3890    3.3290   14.8560 H   0  0  0  0  0  0  0  0  0  0  0  0
    5.1760    4.2900   14.0100 H   0  0  0  0  0  0  0  0  0  0  0  0
    6.3270    6.3710   14.5500 H   0  0  0  0  0  0  0  0  0  0  0  0
    8.1020    4.8620   16.5450 H   0  0  0  0  0  0  0  0  0  0  0  0
    7.5390    6.5420   16.6280 H   0  0  0  0  0  0  0  0  0  0  0  0
    7.9070    5.1770   13.9810 O   0  0  0  0  0  0  0  0  0  0  0  0
    7.8980    4.2230   13.7880 H   0  0  0  0  0  0  0  0  0  0  0  0
   -0.2830   11.4930   19.2270 C   0  0  2  0  0  0  0  0  0  0  0  0
   -0.6530   10.9150   18.3680 H   0  0  0  0  0  0  0  0  0  0  0  0
    0.9050   12.2910   18.6710 C   0  0  0  0  0  0  0  0  0  0  0  0
    1.6480   12.4690   19.4570 H   0  0  0  0  0  0  0  0  0  0  0  0
    1.4140   11.7750   17.8510 H   0  0  0  0  0  0  0  0  0  0  0  0
    0.5770   13.2670   18.2980 H   0  0  0  0  0  0  0  0  0  0  0  0
   -1.4470   12.4090   19.6640 C   0  0  0  0  0  0  0  0  0  0  0  0
   -1.5490   12.3540   20.7550 H   0  0  0  0  0  0  0  0  0  0  0  0
   -1.1990   13.4540   19.4490 H   0  0  0  0  0  0  0  0  0  0  0  0
   -2.7650   12.0520   19.0620 C   0  0  0  0  0  0  0  0  0  0  0  0
   -2.9420   11.4090   17.9230 N   0  0  0  0  0  0  0  0  0  0  0  0
   -4.2920   11.2780   17.7050 N   0  0  0  0  0  0  0  0  0  0  0  0
   -4.9120   11.8320   18.7180 C   0  0  0  0  0  0  0  0  0  0  0  0
   -3.9980   12.3230   19.6000 N   0  0  0  0  0  0  0  0  0  0  0  0
   -5.9820   11.8970   18.8510 H   0  0  0  0  0  0  0  0  0  0  0  0
   -4.3170   12.9860   20.8350 C   0  0  0  0  0  0  0  0  0  0  0  0
   -5.3200   13.4100   20.7520 H   0  0  0  0  0  0  0  0  0  0  0  0
   -4.2950   12.2540   21.6470 H   0  0  0  0  0  0  0  0  0  0  0  0
   -3.5840   13.7660   21.0450 H   0  0  0  0  0  0  0  0  0  0  0  0
  1  2  1  0  0  0  0
  2  7  1  0  0  0  0
  2  3  2  0  0  0  0
  3  8  1  0  0  0  0
  4  3  1  0  0  0  0
  4  9  1  0  0  0  0
  5  4  2  0  0  0  0
  6  1  2  0  0  0  0
  6  5  1  0  0  0  0
 10  6  1  0  0  0  0
 11  5  1  0  0  0  0
 12 11  1  0  0  0  0
 12 13  2  0  0  0  0
 14 11  1  0  0  0  0
 15 12  1  0  0  0  0
 15 20  1  0  0  0  0
 16 15  2  0  0  0  0
 17 16  1  0  0  0  0
 17 18  2  0  0  0  0
 18 19  1  0  0  0  0
 19 23  1  0  0  0  0
 19 20  2  0  0  0  0
 21 16  1  0  0  0  0
 22 18  1  0  0  0  0
 24 25  2  0  0  0  0
 24 17  1  0  0  0  0
 26 24  1  0  0  0  0
 27 32  1  0  0  0  0
 27 26  1  0  0  0  0
 28 27  1  0  0  0  0
 29 35  1  6  0  0  0
 29 28  1  0  0  0  0
 29 30  1  0  0  0  0
 30 36  1  0  0  0  0
 30 37  1  0  0  0  0
 30 26  1  0  0  0  0
 31 27  1  0  0  0  0
 33 28  1  0  0  0  0
 34 28  1  0  0  0  0
 38 29  1  0  0  0  0
 39 38  1  0  0  0  0
 40 41  1  6  0  0  0
 40 46  1  0  0  0  0
 40  1  1  0  0  0  0
 42 40  1  0  0  0  0
 42 43  1  0  0  0  0
 44 42  1  0  0  0  0
 45 42  1  0  0  0  0
 46 47  1  0  0  0  0
 48 46  1  0  0  0  0
 49 53  1  0  0  0  0
 49 46  1  0  0  0  0
 50 49  2  0  0  0  0
 51 50  1  0  0  0  0
 51 52  2  0  0  0  0
 52 54  1  0  0  0  0
 52 53  1  0  0  0  0
 53 55  1  0  0  0  0
 55 58  1  0  0  0  0
 55 57  1  0  0  0  0
 56 55  1  0  0  0  0
M  END
>  <MODEL>
5

>  <REMARK>
 VINA RESULT:    -7.975      1.140      1.431
 INTER + INTRA:         -12.074
 INTER:                 -11.144
 INTRA:                  -0.929
 UNBOUND:                -0.602
  Name = 
  9 active torsions:
  status: ('A' for Active; 'I' for Inactive)
    1  A    between atoms: C_1  and  C_2
    2  A    between atoms: C_2  and  C_3
    3  A    between atoms: C_2  and  C_10
    4  A    between atoms: C_3  and  C_4
    5  A    between atoms: N_8  and  C_9
    6  A    between atoms: C_14  and  N_15
    7  A    between atoms: C_16  and  C_18
    8  A    between atoms: C_20  and  C_21
    9  A    between atoms: C_26  and  O_27
                            x       y       z     vdW  Elec       q    Type
                         _______ _______ _______ _____ _____    ______ ____

>  <TORSDO>
F 9

$$$$
=
 OpenBabel07192307433D

 58 61  0  0  1  0  0  0  0  0999 V2000
   -0.3800   11.6840   18.7420 C   0  0  0  0  0  0  0  0  0  0  0  0
    0.6460   12.6110   18.5250 C   0  0  0  0  0  0  0  0  0  0  0  0
    1.9730   12.1920   18.4410 C   0  0  0  0  0  0  0  0  0  0  0  0
    2.2930   10.8420   18.5850 C   0  0  0  0  0  0  0  0  0  0  0  0
    1.2920    9.8960   18.8290 C   0  0  0  0  0  0  0  0  0  0  0  0
   -0.0360   10.3250   18.9000 C   0  0  0  0  0  0  0  0  0  0  0  0
    0.4300   13.6730   18.4210 H   0  0  0  0  0  0  0  0  0  0  0  0
    2.7590   12.9220   18.2610 H   0  0  0  0  0  0  0  0  0  0  0  0
    3.3370   10.5470   18.5140 H   0  0  0  0  0  0  0  0  0  0  0  0
   -0.8390    9.6110   19.0630 H   0  0  0  0  0  0  0  0  0  0  0  0
    1.6970    8.5550   18.9860 N   0  0  0  0  0  0  0  0  0  0  0  0
    1.6860    7.8040   20.1540 C   0  0  0  0  0  0  0  0  0  0  0  0
    1.3540    8.1860   21.2700 O   0  0  0  0  0  0  0  0  0  0  0  0
    1.9920    8.0860   18.1370 H   0  0  0  0  0  0  0  0  0  0  0  0
    2.1670    6.3990   19.9820 C   0  0  0  0  0  0  0  0  0  0  0  0
    2.7700    6.0130   18.7980 C   0  0  0  0  0  0  0  0  0  0  0  0
    3.1970    4.6910   18.6980 C   0  0  0  0  0  0  0  0  0  0  0  0
    2.9840    3.7970   19.7460 C   0  0  0  0  0  0  0  0  0  0  0  0
    2.3790    4.2840   20.8900 C   0  0  0  0  0  0  0  0  0  0  0  0
    1.9730    5.5620   21.0330 N   0  0  0  0  0  0  0  0  0  0  0  0
    2.9230    6.7090   17.9800 H   0  0  0  0  0  0  0  0  0  0  0  0
    3.2610    2.7520   19.6700 H   0  0  0  0  0  0  0  0  0  0  0  0
    2.1880    3.6390   21.7440 H   0  0  0  0  0  0  0  0  0  0  0  0
    3.8000    4.2500   17.4240 C   0  0  0  0  0  0  0  0  0  0  0  0
    3.1070    3.5700   16.6740 O   0  0  0  0  0  0  0  0  0  0  0  0
    5.0920    4.6340   17.1280 N   0  0  0  0  0  0  0  0  0  0  0  0
    5.8980    5.6500   17.7980 C   0  0  0  0  0  0  0  0  0  0  0  0
    6.9190    6.0760   16.7550 C   0  0  0  0  0  0  0  0  0  0  0  0
    7.1200    4.8100   15.9270 C   0  0  1  0  0  0  0  0  0  0  0  0
    5.7070    4.2290   15.8750 C   0  0  0  0  0  0  0  0  0  0  0  0
    6.3920    5.1780   18.6530 H   0  0  0  0  0  0  0  0  0  0  0  0
    5.2810    6.4830   18.1460 H   0  0  0  0  0  0  0  0  0  0  0  0
    6.5190    6.8810   16.1260 H   0  0  0  0  0  0  0  0  0  0  0  0
    7.8490    6.4440   17.1970 H   0  0  0  0  0  0  0  0  0  0  0  0
    7.8070    4.1260   16.4390 H   0  0  0  0  0  0  0  0  0  0  0  0
    5.1250    4.6400   15.0420 H   0  0  0  0  0  0  0  0  0  0  0  0
    5.7060    3.1380   15.7850 H   0  0  0  0  0  0  0  0  0  0  0  0
    7.6380    5.1340   14.6510 O   0  0  0  0  0  0  0  0  0  0  0  0
    7.7280    4.3060   14.1470 H   0  0  0  0  0  0  0  0  0  0  0  0
   -1.8470   12.0870   18.8400 C   0  0  2  0  0  0  0  0  0  0  0  0
   -2.0090   12.8290   18.0440 H   0  0  0  0  0  0  0  0  0  0  0  0
   -2.2270   12.8210   20.1330 C   0  0  0  0  0  0  0  0  0  0  0  0
   -2.6330   12.1170   20.8680 H   0  0  0  0  0  0  0  0  0  0  0  0
   -1.3750   13.3260   20.5990 H   0  0  0  0  0  0  0  0  0  0  0  0
   -2.9960   13.5780   19.9380 H   0  0  0  0  0  0  0  0  0  0  0  0
   -2.8000   10.9110   18.5340 C   0  0  0  0  0  0  0  0  0  0  0  0
   -2.3680    9.9900   18.9480 H   0  0  0  0  0  0  0  0  0  0  0  0
   -3.7460   11.0520   19.0680 H   0  0  0  0  0  0  0  0  0  0  0  0
   -3.0500   10.6870   17.0800 C   0  0  0  0  0  0  0  0  0  0  0  0
   -2.3180    9.9330   16.2810 N   0  0  0  0  0  0  0  0  0  0  0  0
   -2.8600    9.9860   15.0200 N   0  0  0  0  0  0  0  0  0  0  0  0
   -3.9160   10.7600   15.0760 C   0  0  0  0  0  0  0  0  0  0  0  0
   -4.0830   11.2160   16.3480 N   0  0  0  0  0  0  0  0  0  0  0  0
   -4.5680   11.0080   14.2510 H   0  0  0  0  0  0  0  0  0  0  0  0
   -5.1470   12.0780   16.7830 C   0  0  0  0  0  0  0  0  0  0  0  0
   -6.0360   11.8600   16.1870 H   0  0  0  0  0  0  0  0  0  0  0  0
   -5.3560   11.8810   17.8380 H   0  0  0  0  0  0  0  0  0  0  0  0
   -4.8550   13.1240   16.6720 H   0  0  0  0  0  0  0  0  0  0  0  0
  1 40  1  0  0  0  0
  1  6  1  0  0  0  0
  2  1  2  0  0  0  0
  3  2  1  0  0  0  0
  3  4  2  0  0  0  0
  4  5  1  0  0  0  0
  5  6  2  0  0  0  0
  5 11  1  0  0  0  0
  6 10  1  0  0  0  0
  7  2  1  0  0  0  0
  8  3  1  0  0  0  0
  9  4  1  0  0  0  0
 11 12  1  0  0  0  0
 12 13  2  0  0  0  0
 14 11  1  0  0  0  0
 15 12  1  0  0  0  0
 15 20  1  0  0  0  0
 16 15  2  0  0  0  0
 17 16  1  0  0  0  0
 17 18  2  0  0  0  0
 18 19  1  0  0  0  0
 19 20  2  0  0  0  0
 19 23  1  0  0  0  0
 21 16  1  0  0  0  0
 22 18  1  0  0  0  0
 24 17  1  0  0  0  0
 25 24  2  0  0  0  0
 26 24  1  0  0  0  0
 26 27  1  0  0  0  0
 27 32  1  0  0  0  0
 27 31  1  0  0  0  0
 28 34  1  0  0  0  0
 28 27  1  0  0  0  0
 29 35  1  1  0  0  0
 29 28  1  0  0  0  0
 30 29  1  0  0  0  0
 30 26  1  0  0  0  0
 33 28  1  0  0  0  0
 36 30  1  0  0  0  0
 37 30  1  0  0  0  0
 38 29  1  0  0  0  0
 39 38  1  0  0  0  0
 40 41  1  6  0  0  0
 40 42  1  0  0  0  0
 42 44  1  0  0  0  0
 42 43  1  0  0  0  0
 45 42  1  0  0  0  0
 46 40  1  0  0  0  0
 46 47  1  0  0  0  0
 46 48  1  0  0  0  0
 49 46  1  0  0  0  0
 50 49  2  0  0  0  0
 51 52  2  0  0  0  0
 51 50  1  0  0  0  0
 52 53  1  0  0  0  0
 53 55  1  0  0  0  0
 53 49  1  0  0  0  0
 54 52  1  0  0  0  0
 55 57  1  0  0  0  0
 56 55  1  0  0  0  0
 58 55  1  0  0  0  0
M  END
>  <MODEL>
6

>  <REMARK>
 VINA RESULT:    -7.951      1.578      2.191
 INTER + INTRA:         -12.039
 INTER:                 -11.202
 INTRA:                  -0.837
 UNBOUND:                -0.602
  Name = 
  9 active torsions:
  status: ('A' for Active; 'I' for Inactive)
    1  A    between atoms: C_1  and  C_2
    2  A    between atoms: C_2  and  C_3
    3  A    between atoms: C_2  and  C_10
    4  A    between atoms: C_3  and  C_4
    5  A    between atoms: N_8  and  C_9
    6  A    between atoms: C_14  and  N_15
    7  A    between atoms: C_16  and  C_18
    8  A    between atoms: C_20  and  C_21
    9  A    between atoms: C_26  and  O_27
                            x       y       z     vdW  Elec       q    Type
                         _______ _______ _______ _____ _____    ______ ____

>  <TORSDO>
F 9

$$$$
=
 OpenBabel07192307433D

 58 61  0  0  1  0  0  0  0  0999 V2000
   -0.9160   11.2460   21.0440 C   0  0  0  0  0  0  0  0  0  0  0  0
   -1.1690   11.3970   22.4130 C   0  0  0  0  0  0  0  0  0  0  0  0
   -0.7790   10.4110   23.3180 C   0  0  0  0  0  0  0  0  0  0  0  0
   -0.1420    9.2550   22.8650 C   0  0  0  0  0  0  0  0  0  0  0  0
    0.1000    9.0650   21.5010 C   0  0  0  0  0  0  0  0  0  0  0  0
   -0.2850   10.0650   20.6030 C   0  0  0  0  0  0  0  0  0  0  0  0
   -1.6750   12.2810   22.7960 H   0  0  0  0  0  0  0  0  0  0  0  0
   -0.9710   10.5470   24.3800 H   0  0  0  0  0  0  0  0  0  0  0  0
    0.1500    8.5050   23.5960 H   0  0  0  0  0  0  0  0  0  0  0  0
   -0.0880    9.9580   19.5400 H   0  0  0  0  0  0  0  0  0  0  0  0
    0.7270    7.8610   21.1190 N   0  0  0  0  0  0  0  0  0  0  0  0
    1.6270    7.6740   20.0790 C   0  0  0  0  0  0  0  0  0  0  0  0
    2.0140    8.5190   19.2810 O   0  0  0  0  0  0  0  0  0  0  0  0
    0.5160    7.0570   21.7000 H   0  0  0  0  0  0  0  0  0  0  0  0
    2.1240    6.2700   19.9460 C   0  0  0  0  0  0  0  0  0  0  0  0
    2.7740    5.8720   18.7900 C   0  0  0  0  0  0  0  0  0  0  0  0
    3.2130    4.5520   18.7250 C   0  0  0  0  0  0  0  0  0  0  0  0
    2.9680    3.6720   19.7760 C   0  0  0  0  0  0  0  0  0  0  0  0
    2.3170    4.1690   20.8900 C   0  0  0  0  0  0  0  0  0  0  0  0
    1.8970    5.4470   21.0000 N   0  0  0  0  0  0  0  0  0  0  0  0
    2.9520    6.5580   17.9680 H   0  0  0  0  0  0  0  0  0  0  0  0
    3.2540    2.6280   19.7260 H   0  0  0  0  0  0  0  0  0  0  0  0
    2.0990    3.5350   21.7460 H   0  0  0  0  0  0  0  0  0  0  0  0
    3.8660    4.0980   17.4810 C   0  0  0  0  0  0  0  0  0  0  0  0
    3.2320    3.3440   16.7490 O   0  0  0  0  0  0  0  0  0  0  0  0
    5.1360    4.5520   17.1890 N   0  0  0  0  0  0  0  0  0  0  0  0
    5.8630    5.6440   17.8260 C   0  0  0  0  0  0  0  0  0  0  0  0
    6.8750    6.0910   16.7820 C   0  0  0  0  0  0  0  0  0  0  0  0
    7.1710    4.8070   16.0130 C   0  0  1  0  0  0  0  0  0  0  0  0
    5.7990    4.1350   15.9640 C   0  0  0  0  0  0  0  0  0  0  0  0
    6.3710    5.2410   18.7090 H   0  0  0  0  0  0  0  0  0  0  0  0
    5.1890    6.4490   18.1290 H   0  0  0  0  0  0  0  0  0  0  0  0
    6.4350    6.8420   16.1140 H   0  0  0  0  0  0  0  0  0  0  0  0
    7.7710    6.5360   17.2230 H   0  0  0  0  0  0  0  0  0  0  0  0
    7.8900    4.1910   16.5640 H   0  0  0  0  0  0  0  0  0  0  0  0
    5.2070    4.4730   15.1050 H   0  0  0  0  0  0  0  0  0  0  0  0
    5.8690    3.0430   15.9210 H   0  0  0  0  0  0  0  0  0  0  0  0
    7.6910    5.1100   14.7320 O   0  0  0  0  0  0  0  0  0  0  0  0
    8.5780    5.4910   14.8540 H   0  0  0  0  0  0  0  0  0  0  0  0
   -1.3180   12.2930   20.0120 C   0  0  2  0  0  0  0  0  0  0  0  0
   -1.0220   13.2640   20.4370 H   0  0  0  0  0  0  0  0  0  0  0  0
   -2.8310   12.4210   19.7820 C   0  0  0  0  0  0  0  0  0  0  0  0
   -3.3230   11.4530   19.9290 H   0  0  0  0  0  0  0  0  0  0  0  0
   -3.3030   13.1360   20.4610 H   0  0  0  0  0  0  0  0  0  0  0  0
   -3.0410   12.7460   18.7560 H   0  0  0  0  0  0  0  0  0  0  0  0
   -0.5360   12.1440   18.6900 C   0  0  0  0  0  0  0  0  0  0  0  0
   -0.3180   11.0810   18.5260 H   0  0  0  0  0  0  0  0  0  0  0  0
   -1.1700   12.4420   17.8470 H   0  0  0  0  0  0  0  0  0  0  0  0
    0.7580   12.8870   18.6560 C   0  0  0  0  0  0  0  0  0  0  0  0
    1.9570   12.3410   18.5680 N   0  0  0  0  0  0  0  0  0  0  0  0
    2.8920   13.3460   18.5740 N   0  0  0  0  0  0  0  0  0  0  0  0
    2.2480   14.4850   18.6520 C   0  0  0  0  0  0  0  0  0  0  0  0
    0.9070   14.2500   18.6960 N   0  0  0  0  0  0  0  0  0  0  0  0
    2.6930   15.4690   18.6770 H   0  0  0  0  0  0  0  0  0  0  0  0
   -0.1070   15.2660   18.7710 C   0  0  0  0  0  0  0  0  0  0  0  0
   -0.2680   15.5190   19.8210 H   0  0  0  0  0  0  0  0  0  0  0  0
    0.2370   16.1520   18.2300 H   0  0  0  0  0  0  0  0  0  0  0  0
   -1.0310   14.9110   18.3130 H   0  0  0  0  0  0  0  0  0  0  0  0
  1  2  1  0  0  0  0
  2  7  1  0  0  0  0
  2  3  2  0  0  0  0
  3  8  1  0  0  0  0
  4  3  1  0  0  0  0
  4  9  1  0  0  0  0
  5  4  2  0  0  0  0
  6  1  2  0  0  0  0
  6  5  1  0  0  0  0
 10  6  1  0  0  0  0
 11  5  1  0  0  0  0
 11 14  1  0  0  0  0
 12 11  1  0  0  0  0
 13 12  2  0  0  0  0
 15 12  1  0  0  0  0
 15 20  1  0  0  0  0
 16 15  2  0  0  0  0
 17 16  1  0  0  0  0
 17 18  2  0  0  0  0
 18 19  1  0  0  0  0
 19 20  2  0  0  0  0
 19 23  1  0  0  0  0
 21 16  1  0  0  0  0
 22 18  1  0  0  0  0
 24 17  1  0  0  0  0
 25 24  2  0  0  0  0
 26 24  1  0  0  0  0
 26 27  1  0  0  0  0
 27 32  1  0  0  0  0
 27 31  1  0  0  0  0
 28 34  1  0  0  0  0
 28 27  1  0  0  0  0
 29 35  1  1  0  0  0
 29 28  1  0  0  0  0
 30 29  1  0  0  0  0
 30 26  1  0  0  0  0
 33 28  1  0  0  0  0
 36 30  1  0  0  0  0
 37 30  1  0  0  0  0
 38 39  1  0  0  0  0
 38 29  1  0  0  0  0
 40 41  1  1  0  0  0
 40  1  1  0  0  0  0
 42 43  1  0  0  0  0
 42 40  1  0  0  0  0
 42 44  1  0  0  0  0
 45 42  1  0  0  0  0
 46 40  1  0  0  0  0
 47 46  1  0  0  0  0
 48 46  1  0  0  0  0
 49 46  1  0  0  0  0
 49 53  1  0  0  0  0
 50 51  1  0  0  0  0
 50 49  2  0  0  0  0
 51 52  2  0  0  0  0
 52 54  1  0  0  0  0
 52 53  1  0  0  0  0
 53 55  1  0  0  0  0
 55 56  1  0  0  0  0
 57 55  1  0  0  0  0
 58 55  1  0  0  0  0
M  END
>  <MODEL>
7

>  <REMARK>
 VINA RESULT:    -7.936      2.596      3.331
 INTER + INTRA:         -12.018
 INTER:                 -11.563
 INTRA:                  -0.455
 UNBOUND:                -0.602
  Name = 
  9 active torsions:
  status: ('A' for Active; 'I' for Inactive)
    1  A    between atoms: C_1  and  C_2
    2  A    between atoms: C_2  and  C_3
    3  A    between atoms: C_2  and  C_10
    4  A    between atoms: C_3  and  C_4
    5  A    between atoms: N_8  and  C_9
    6  A    between atoms: C_14  and  N_15
    7  A    between atoms: C_16  and  C_18
    8  A    between atoms: C_20  and  C_21
    9  A    between atoms: C_26  and  O_27
                            x       y       z     vdW  Elec       q    Type
                         _______ _______ _______ _____ _____    ______ ____

>  <TORSDO>
F 9

$$$$
=
 OpenBabel07192307433D

 58 61  0  0  1  0  0  0  0  0999 V2000
    2.8170    3.0100   19.1420 C   0  0  0  0  0  0  0  0  0  0  0  0
    2.9190    2.1770   20.2620 C   0  0  0  0  0  0  0  0  0  0  0  0
    2.5430    2.6370   21.5240 C   0  0  0  0  0  0  0  0  0  0  0  0
    2.0700    3.9400   21.6820 C   0  0  0  0  0  0  0  0  0  0  0  0
    1.9810    4.8030   20.5850 C   0  0  0  0  0  0  0  0  0  0  0  0
    2.3510    4.3280   19.3240 C   0  0  0  0  0  0  0  0  0  0  0  0
    3.2970    1.1600   20.1730 H   0  0  0  0  0  0  0  0  0  0  0  0
    2.6170    1.9760   22.3840 H   0  0  0  0  0  0  0  0  0  0  0  0
    1.7830    4.2690   22.6780 H   0  0  0  0  0  0  0  0  0  0  0  0
    2.2700    4.9660   18.4480 H   0  0  0  0  0  0  0  0  0  0  0  0
    1.5160    6.1120   20.8300 N   0  0  0  0  0  0  0  0  0  0  0  0
    1.9410    7.2840   20.2190 C   0  0  0  0  0  0  0  0  0  0  0  0
    2.8250    7.3950   19.3780 O   0  0  0  0  0  0  0  0  0  0  0  0
    0.7620    6.1870   21.5030 H   0  0  0  0  0  0  0  0  0  0  0  0
    1.2330    8.5120   20.6940 C   0  0  0  0  0  0  0  0  0  0  0  0
    0.6920    9.3980   19.7780 C   0  0  0  0  0  0  0  0  0  0  0  0
    0.0450   10.5240   20.2820 C   0  0  0  0  0  0  0  0  0  0  0  0
   -0.0130   10.7510   21.6550 C   0  0  0  0  0  0  0  0  0  0  0  0
    0.5530    9.8020   22.4860 C   0  0  0  0  0  0  0  0  0  0  0  0
    1.1660    8.6880   22.0380 N   0  0  0  0  0  0  0  0  0  0  0  0
    0.7500    9.2220   18.7090 H   0  0  0  0  0  0  0  0  0  0  0  0
   -0.4650   11.6460   22.0670 H   0  0  0  0  0  0  0  0  0  0  0  0
    0.5370    9.9190   23.5670 H   0  0  0  0  0  0  0  0  0  0  0  0
   -0.4970   11.5020   19.3180 C   0  0  0  0  0  0  0  0  0  0  0  0
   -0.0280   12.6360   19.3360 O   0  0  0  0  0  0  0  0  0  0  0  0
   -1.4810   11.0990   18.4380 N   0  0  0  0  0  0  0  0  0  0  0  0
   -1.9100    9.7370   18.1410 C   0  0  0  0  0  0  0  0  0  0  0  0
   -2.5260    9.8240   16.7530 C   0  0  0  0  0  0  0  0  0  0  0  0
   -3.0880   11.2420   16.7110 C   0  0  1  0  0  0  0  0  0  0  0  0
   -2.0230   12.0350   17.4680 C   0  0  0  0  0  0  0  0  0  0  0  0
   -2.6640    9.4520   18.8820 H   0  0  0  0  0  0  0  0  0  0  0  0
   -1.0720    9.0360   18.1850 H   0  0  0  0  0  0  0  0  0  0  0  0
   -1.7590    9.6960   15.9800 H   0  0  0  0  0  0  0  0  0  0  0  0
   -3.2900    9.0610   16.5800 H   0  0  0  0  0  0  0  0  0  0  0  0
   -4.0520   11.2840   17.2310 H   0  0  0  0  0  0  0  0  0  0  0  0
   -1.2160   12.3720   16.8060 H   0  0  0  0  0  0  0  0  0  0  0  0
   -2.4360   12.9130   17.9740 H   0  0  0  0  0  0  0  0  0  0  0  0
   -3.2530   11.6650   15.3710 O   0  0  0  0  0  0  0  0  0  0  0  0
   -4.2020   11.6110   15.1570 H   0  0  0  0  0  0  0  0  0  0  0  0
    3.2130    2.5570   17.7410 C   0  0  2  0  0  0  0  0  0  0  0  0
    2.2870    2.1980   17.2680 H   0  0  0  0  0  0  0  0  0  0  0  0
    4.1600    1.3500   17.6990 C   0  0  0  0  0  0  0  0  0  0  0  0
    3.6550    0.4550   18.0820 H   0  0  0  0  0  0  0  0  0  0  0  0
    4.5100    1.1220   16.6880 H   0  0  0  0  0  0  0  0  0  0  0  0
    5.0420    1.5260   18.3250 H   0  0  0  0  0  0  0  0  0  0  0  0
    3.7170    3.7260   16.8680 C   0  0  0  0  0  0  0  0  0  0  0  0
    3.5980    3.4540   15.8110 H   0  0  0  0  0  0  0  0  0  0  0  0
    3.0770    4.6030   17.0150 H   0  0  0  0  0  0  0  0  0  0  0  0
    5.1490    4.0830   17.0900 C   0  0  0  0  0  0  0  0  0  0  0  0
    5.7000    4.3630   18.2570 N   0  0  0  0  0  0  0  0  0  0  0  0
    7.0270    4.6490   18.0520 N   0  0  0  0  0  0  0  0  0  0  0  0
    7.2640    4.5280   16.7690 C   0  0  0  0  0  0  0  0  0  0  0  0
    6.1200    4.1650   16.1250 N   0  0  0  0  0  0  0  0  0  0  0  0
    8.2140    4.6850   16.2790 H   0  0  0  0  0  0  0  0  0  0  0  0
    6.0080    3.9290   14.7110 C   0  0  0  0  0  0  0  0  0  0  0  0
    5.3850    3.0450   14.5560 H   0  0  0  0  0  0  0  0  0  0  0  0
    5.5370    4.7960   14.2420 H   0  0  0  0  0  0  0  0  0  0  0  0
    6.9970    3.7850   14.2730 H   0  0  0  0  0  0  0  0  0  0  0  0
  1  6  2  0  0  0  0
  1  2  1  0  0  0  0
  2  3  2  0  0  0  0
  3  4  1  0  0  0  0
  3  8  1  0  0  0  0
  4  9  1  0  0  0  0
  5 11  1  0  0  0  0
  5  4  2  0  0  0  0
  6  5  1  0  0  0  0
  7  2  1  0  0  0  0
 10  6  1  0  0  0  0
 11 14  1  0  0  0  0
 12 15  1  0  0  0  0
 12 11  1  0  0  0  0
 13 12  2  0  0  0  0
 15 20  1  0  0  0  0
 16 17  1  0  0  0  0
 16 15  2  0  0  0  0
 17 18  2  0  0  0  0
 18 22  1  0  0  0  0
 18 19  1  0  0  0  0
 19 23  1  0  0  0  0
 20 19  2  0  0  0  0
 21 16  1  0  0  0  0
 24 25  2  0  0  0  0
 24 17  1  0  0  0  0
 26 24  1  0  0  0  0
 27 32  1  0  0  0  0
 27 26  1  0  0  0  0
 27 31  1  0  0  0  0
 28 27  1  0  0  0  0
 29 28  1  0  0  0  0
 29 35  1  1  0  0  0
 29 30  1  0  0  0  0
 30 37  1  0  0  0  0
 30 26  1  0  0  0  0
 33 28  1  0  0  0  0
 34 28  1  0  0  0  0
 36 30  1  0  0  0  0
 38 29  1  0  0  0  0
 39 38  1  0  0  0  0
 40 41  1  6  0  0  0
 40  1  1  0  0  0  0
 42 40  1  0  0  0  0
 42 43  1  0  0  0  0
 42 45  1  0  0  0  0
 44 42  1  0  0  0  0
 46 48  1  0  0  0  0
 46 49  1  0  0  0  0
 46 40  1  0  0  0  0
 47 46  1  0  0  0  0
 49 50  2  0  0  0  0
 51 50  1  0  0  0  0
 52 51  2  0  0  0  0
 53 52  1  0  0  0  0
 53 49  1  0  0  0  0
 54 52  1  0  0  0  0
 55 53  1  0  0  0  0
 56 55  1  0  0  0  0
 57 55  1  0  0  0  0
 58 55  1  0  0  0  0
M  END
>  <MODEL>
8

>  <REMARK>
 VINA RESULT:    -7.829      2.505      9.071
 INTER + INTRA:         -11.864
 INTER:                 -11.615
 INTRA:                  -0.249
 UNBOUND:                -0.602
  Name = 
  9 active torsions:
  status: ('A' for Active; 'I' for Inactive)
    1  A    between atoms: C_1  and  C_2
    2  A    between atoms: C_2  and  C_3
    3  A    between atoms: C_2  and  C_10
    4  A    between atoms: C_3  and  C_4
    5  A    between atoms: N_8  and  C_9
    6  A    between atoms: C_14  and  N_15
    7  A    between atoms: C_16  and  C_18
    8  A    between atoms: C_20  and  C_21
    9  A    between atoms: C_26  and  O_27
                            x       y       z     vdW  Elec       q    Type
                         _______ _______ _______ _____ _____    ______ ____

>  <TORSDO>
F 9

$$$$
=
 OpenBabel07192307433D

 58 61  0  0  1  0  0  0  0  0999 V2000
   -0.3670   10.2530   20.4030 C   0  0  0  0  0  0  0  0  0  0  0  0
   -0.4450   10.5850   21.7610 C   0  0  0  0  0  0  0  0  0  0  0  0
    0.2850    9.8670   22.7080 C   0  0  0  0  0  0  0  0  0  0  0  0
    1.0910    8.8000   22.3110 C   0  0  0  0  0  0  0  0  0  0  0  0
    1.1680    8.4300   20.9650 C   0  0  0  0  0  0  0  0  0  0  0  0
    0.4420    9.1640   20.0220 C   0  0  0  0  0  0  0  0  0  0  0  0
   -1.0750   11.4030   22.1040 H   0  0  0  0  0  0  0  0  0  0  0  0
    0.2230   10.1420   23.7580 H   0  0  0  0  0  0  0  0  0  0  0  0
    1.6480    8.2600   23.0730 H   0  0  0  0  0  0  0  0  0  0  0  0
    0.5000    8.9160   18.9650 H   0  0  0  0  0  0  0  0  0  0  0  0
    1.9860    7.3270   20.6450 N   0  0  0  0  0  0  0  0  0  0  0  0
    1.6010    5.9970   20.5360 C   0  0  0  0  0  0  0  0  0  0  0  0
    0.4830    5.5370   20.7330 O   0  0  0  0  0  0  0  0  0  0  0  0
    2.9540    7.5480   20.4380 H   0  0  0  0  0  0  0  0  0  0  0  0
    2.7120    5.0670   20.1650 C   0  0  0  0  0  0  0  0  0  0  0  0
    3.8280    5.5500   19.5050 C   0  0  0  0  0  0  0  0  0  0  0  0
    4.8290    4.6350   19.1860 C   0  0  0  0  0  0  0  0  0  0  0  0
    4.6790    3.2850   19.4970 C   0  0  0  0  0  0  0  0  0  0  0  0
    3.5290    2.9050   20.1640 C   0  0  0  0  0  0  0  0  0  0  0  0
    2.5490    3.7650   20.5100 N   0  0  0  0  0  0  0  0  0  0  0  0
    3.9360    6.6000   19.2540 H   0  0  0  0  0  0  0  0  0  0  0  0
    5.4200    2.5480   19.2130 H   0  0  0  0  0  0  0  0  0  0  0  0
    3.3530    1.8680   20.4380 H   0  0  0  0  0  0  0  0  0  0  0  0
    6.0060    5.1250   18.4400 C   0  0  0  0  0  0  0  0  0  0  0  0
    6.9740    5.5020   19.0930 O   0  0  0  0  0  0  0  0  0  0  0  0
    5.9730    5.1170   17.0610 N   0  0  0  0  0  0  0  0  0  0  0  0
    5.0100    4.4470   16.1940 C   0  0  0  0  0  0  0  0  0  0  0  0
    5.7490    4.2560   14.8780 C   0  0  0  0  0  0  0  0  0  0  0  0
    6.6980    5.4490   14.8360 C   0  0  1  0  0  0  0  0  0  0  0  0
    7.1220    5.5780   16.2990 C   0  0  0  0  0  0  0  0  0  0  0  0
    4.1530    5.1150   16.0620 H   0  0  0  0  0  0  0  0  0  0  0  0
    4.6730    3.5010   16.6270 H   0  0  0  0  0  0  0  0  0  0  0  0
    6.3170    3.3170   14.8860 H   0  0  0  0  0  0  0  0  0  0  0  0
    5.0770    4.2190   14.0160 H   0  0  0  0  0  0  0  0  0  0  0  0
    6.1660    6.3470   14.5010 H   0  0  0  0  0  0  0  0  0  0  0  0
    7.9840    4.9430   16.5340 H   0  0  0  0  0  0  0  0  0  0  0  0
    7.3720    6.6080   16.5730 H   0  0  0  0  0  0  0  0  0  0  0  0
    7.7800    5.1860   13.9630 O   0  0  0  0  0  0  0  0  0  0  0  0
    8.5520    4.9500   14.5070 H   0  0  0  0  0  0  0  0  0  0  0  0
   -1.1400   11.0060   19.3270 C   0  0  2  0  0  0  0  0  0  0  0  0
   -2.2020   10.9140   19.5980 H   0  0  0  0  0  0  0  0  0  0  0  0
   -1.0480   10.3940   17.9220 C   0  0  0  0  0  0  0  0  0  0  0  0
   -1.3870   11.1140   17.1680 H   0  0  0  0  0  0  0  0  0  0  0  0
   -0.0290   10.0960   17.6560 H   0  0  0  0  0  0  0  0  0  0  0  0
   -1.6860    9.5070   17.8430 H   0  0  0  0  0  0  0  0  0  0  0  0
   -0.8250   12.5180   19.3280 C   0  0  0  0  0  0  0  0  0  0  0  0
   -1.2600   12.9700   18.4270 H   0  0  0  0  0  0  0  0  0  0  0  0
   -1.3340   13.0030   20.1680 H   0  0  0  0  0  0  0  0  0  0  0  0
    0.6320   12.8400   19.3440 C   0  0  0  0  0  0  0  0  0  0  0  0
    1.4940   12.5530   18.3870 N   0  0  0  0  0  0  0  0  0  0  0  0
    2.7340   13.0010   18.7720 N   0  0  0  0  0  0  0  0  0  0  0  0
    2.6040   13.5610   19.9500 C   0  0  0  0  0  0  0  0  0  0  0  0
    1.3030   13.4940   20.3470 N   0  0  0  0  0  0  0  0  0  0  0  0
    3.3930   14.0140   20.5310 H   0  0  0  0  0  0  0  0  0  0  0  0
    0.7880   14.0210   21.5810 C   0  0  0  0  0  0  0  0  0  0  0  0
    1.0910   15.0670   21.6650 H   0  0  0  0  0  0  0  0  0  0  0  0
   -0.3040   13.9550   21.5680 H   0  0  0  0  0  0  0  0  0  0  0  0
    1.1650   13.4410   22.4250 H   0  0  0  0  0  0  0  0  0  0  0  0
  1  2  1  0  0  0  0
  2  7  1  0  0  0  0
  2  3  2  0  0  0  0
  3  8  1  0  0  0  0
  4  3  1  0  0  0  0
  4  9  1  0  0  0  0
  5  4  2  0  0  0  0
  6  1  2  0  0  0  0
  6  5  1  0  0  0  0
 10  6  1  0  0  0  0
 11  5  1  0  0  0  0
 12 11  1  0  0  0  0
 12 13  2  0  0  0  0
 14 11  1  0  0  0  0
 15 20  1  0  0  0  0
 15 12  1  0  0  0  0
 16 15  2  0  0  0  0
 17 18  2  0  0  0  0
 17 16  1  0  0  0  0
 18 19  1  0  0  0  0
 19 23  1  0  0  0  0
 19 20  2  0  0  0  0
 21 16  1  0  0  0  0
 22 18  1  0  0  0  0
 24 25  2  0  0  0  0
 24 17  1  0  0  0  0
 26 24  1  0  0  0  0
 27 32  1  0  0  0  0
 27 26  1  0  0  0  0
 28 33  1  0  0  0  0
 28 27  1  0  0  0  0
 29 35  1  6  0  0  0
 29 28  1  0  0  0  0
 29 30  1  0  0  0  0
 30 36  1  0  0  0  0
 30 37  1  0  0  0  0
 30 26  1  0  0  0  0
 31 27  1  0  0  0  0
 34 28  1  0  0  0  0
 38 39  1  0  0  0  0
 38 29  1  0  0  0  0
 40 46  1  0  0  0  0
 40 41  1  1  0  0  0
 40  1  1  0  0  0  0
 42 40  1  0  0  0  0
 43 42  1  0  0  0  0
 44 42  1  0  0  0  0
 45 42  1  0  0  0  0
 46 49  1  0  0  0  0
 46 48  1  0  0  0  0
 47 46  1  0  0  0  0
 49 53  1  0  0  0  0
 50 51  1  0  0  0  0
 50 49  2  0  0  0  0
 51 52  2  0  0  0  0
 52 53  1  0  0  0  0
 52 54  1  0  0  0  0
 53 55  1  0  0  0  0
 55 56  1  0  0  0  0
 55 58  1  0  0  0  0
 57 55  1  0  0  0  0
M  END
>  <MODEL>
9

>  <REMARK>
 VINA RESULT:    -7.824      2.048      2.983
 INTER + INTRA:         -11.857
 INTER:                 -10.898
 INTRA:                  -0.960
 UNBOUND:                -0.602
  Name = 
  9 active torsions:
  status: ('A' for Active; 'I' for Inactive)
    1  A    between atoms: C_1  and  C_2
    2  A    between atoms: C_2  and  C_3
    3  A    between atoms: C_2  and  C_10
    4  A    between atoms: C_3  and  C_4
    5  A    between atoms: N_8  and  C_9
    6  A    between atoms: C_14  and  N_15
    7  A    between atoms: C_16  and  C_18
    8  A    between atoms: C_20  and  C_21
    9  A    between atoms: C_26  and  O_27
                            x       y       z     vdW  Elec       q    Type
                         _______ _______ _______ _____ _____    ______ ____

>  <TORSDO>
F 9

$$$$
=
 OpenBabel07192307433D

 58 61  0  0  1  0  0  0  0  0999 V2000
    0.2740   10.2350   20.9490 C   0  0  0  0  0  0  0  0  0  0  0  0
    0.0430   10.9180   19.7490 C   0  0  0  0  0  0  0  0  0  0  0  0
    0.5400   10.4220   18.5440 C   0  0  0  0  0  0  0  0  0  0  0  0
    1.2840    9.2420   18.5260 C   0  0  0  0  0  0  0  0  0  0  0  0
    1.5530    8.5520   19.7120 C   0  0  0  0  0  0  0  0  0  0  0  0
    1.0410    9.0520   20.9130 C   0  0  0  0  0  0  0  0  0  0  0  0
   -0.5230   11.8480   19.7330 H   0  0  0  0  0  0  0  0  0  0  0  0
    0.3440   10.9570   17.6190 H   0  0  0  0  0  0  0  0  0  0  0  0
    1.6570    8.8810   17.5710 H   0  0  0  0  0  0  0  0  0  0  0  0
    1.2110    8.5250   21.8480 H   0  0  0  0  0  0  0  0  0  0  0  0
    2.3320    7.3800   19.6140 N   0  0  0  0  0  0  0  0  0  0  0  0
    2.0470    6.1340   20.1550 C   0  0  0  0  0  0  0  0  0  0  0  0
    1.0810    5.8360   20.8460 O   0  0  0  0  0  0  0  0  0  0  0  0
    3.1720    7.4620   19.0530 H   0  0  0  0  0  0  0  0  0  0  0  0
    3.0740    5.0890   19.8550 C   0  0  0  0  0  0  0  0  0  0  0  0
    4.1900    5.4100   19.1020 C   0  0  0  0  0  0  0  0  0  0  0  0
    5.1110    4.3940   18.8570 C   0  0  0  0  0  0  0  0  0  0  0  0
    4.8820    3.1030   19.3290 C   0  0  0  0  0  0  0  0  0  0  0  0
    3.7400    2.8870   20.0780 C   0  0  0  0  0  0  0  0  0  0  0  0
    2.8380    3.8500   20.3560 N   0  0  0  0  0  0  0  0  0  0  0  0
    4.3570    6.4140   18.7260 H   0  0  0  0  0  0  0  0  0  0  0  0
    5.5580    2.2860   19.1070 H   0  0  0  0  0  0  0  0  0  0  0  0
    3.5060    1.9030   20.4780 H   0  0  0  0  0  0  0  0  0  0  0  0
    6.2830    4.7070   18.0160 C   0  0  0  0  0  0  0  0  0  0  0  0
    7.3600    4.8690   18.5820 O   0  0  0  0  0  0  0  0  0  0  0  0
    6.1230    4.7830   16.6480 N   0  0  0  0  0  0  0  0  0  0  0  0
    4.9780    4.3450   15.8570 C   0  0  0  0  0  0  0  0  0  0  0  0
    5.5460    4.1000   14.4670 C   0  0  0  0  0  0  0  0  0  0  0  0
    6.6890    5.1060   14.3760 C   0  0  1  0  0  0  0  0  0  0  0  0
    7.2620    5.0750   15.7930 C   0  0  0  0  0  0  0  0  0  0  0  0
    4.2500    5.1620   15.8380 H   0  0  0  0  0  0  0  0  0  0  0  0
    4.5160    3.4520   16.2850 H   0  0  0  0  0  0  0  0  0  0  0  0
    5.9320    3.0760   14.3810 H   0  0  0  0  0  0  0  0  0  0  0  0
    4.8020    4.2320   13.6760 H   0  0  0  0  0  0  0  0  0  0  0  0
    6.3020    6.1010   14.1310 H   0  0  0  0  0  0  0  0  0  0  0  0
    8.0120    4.2840   15.9150 H   0  0  0  0  0  0  0  0  0  0  0  0
    7.7200    6.0260   16.0800 H   0  0  0  0  0  0  0  0  0  0  0  0
    7.6200    4.7030   13.3890 O   0  0  0  0  0  0  0  0  0  0  0  0
    8.4140    5.2600   13.4830 H   0  0  0  0  0  0  0  0  0  0  0  0
   -0.2470   10.7310   22.2920 C   0  0  2  0  0  0  0  0  0  0  0  0
    0.5040   11.4450   22.6630 H   0  0  0  0  0  0  0  0  0  0  0  0
   -0.3300    9.6580   23.3870 C   0  0  0  0  0  0  0  0  0  0  0  0
    0.5180    9.7480   24.0750 H   0  0  0  0  0  0  0  0  0  0  0  0
   -1.2450    9.7290   23.9820 H   0  0  0  0  0  0  0  0  0  0  0  0
   -0.2950    8.6540   22.9480 H   0  0  0  0  0  0  0  0  0  0  0  0
   -1.5640   11.5260   22.1530 C   0  0  0  0  0  0  0  0  0  0  0  0
   -1.7440   11.7280   21.0900 H   0  0  0  0  0  0  0  0  0  0  0  0
   -2.4070   10.9060   22.4770 H   0  0  0  0  0  0  0  0  0  0  0  0
   -1.5710   12.8320   22.8750 C   0  0  0  0  0  0  0  0  0  0  0  0
   -0.6230   13.7490   22.8150 N   0  0  0  0  0  0  0  0  0  0  0  0
   -0.9860   14.8000   23.6210 N   0  0  0  0  0  0  0  0  0  0  0  0
   -2.1520   14.5110   24.1470 C   0  0  0  0  0  0  0  0  0  0  0  0
   -2.5640   13.2920   23.7020 N   0  0  0  0  0  0  0  0  0  0  0  0
   -2.7150   15.1320   24.8280 H   0  0  0  0  0  0  0  0  0  0  0  0
   -3.8040   12.6590   24.0600 C   0  0  0  0  0  0  0  0  0  0  0  0
   -4.6230   13.3400   23.8190 H   0  0  0  0  0  0  0  0  0  0  0  0
   -3.9130   11.7370   23.4820 H   0  0  0  0  0  0  0  0  0  0  0  0
   -3.8090   12.4110   25.1220 H   0  0  0  0  0  0  0  0  0  0  0  0
  1 40  1  0  0  0  0
  2  1  2  0  0  0  0
  3  2  1  0  0  0  0
  4  3  2  0  0  0  0
  4  5  1  0  0  0  0
  5  6  2  0  0  0  0
  6  1  1  0  0  0  0
  6 10  1  0  0  0  0
  7  2  1  0  0  0  0
  8  3  1  0  0  0  0
  9  4  1  0  0  0  0
 11  5  1  0  0  0  0
 11 12  1  0  0  0  0
 12 13  2  0  0  0  0
 14 11  1  0  0  0  0
 15 12  1  0  0  0  0
 15 20  1  0  0  0  0
 16 15  2  0  0  0  0
 17 16  1  0  0  0  0
 17 18  2  0  0  0  0
 18 19  1  0  0  0  0
 19 20  2  0  0  0  0
 19 23  1  0  0  0  0
 21 16  1  0  0  0  0
 22 18  1  0  0  0  0
 24 25  2  0  0  0  0
 24 17  1  0  0  0  0
 26 24  1  0  0  0  0
 27 32  1  0  0  0  0
 27 26  1  0  0  0  0
 28 27  1  0  0  0  0
 29 35  1  6  0  0  0
 29 28  1  0  0  0  0
 29 30  1  0  0  0  0
 30 36  1  0  0  0  0
 30 37  1  0  0  0  0
 30 26  1  0  0  0  0
 31 27  1  0  0  0  0
 33 28  1  0  0  0  0
 34 28  1  0  0  0  0
 38 39  1  0  0  0  0
 38 29  1  0  0  0  0
 40 41  1  1  0  0  0
 40 42  1  0  0  0  0
 42 44  1  0  0  0  0
 42 43  1  0  0  0  0
 45 42  1  0  0  0  0
 46 40  1  0  0  0  0
 46 48  1  0  0  0  0
 46 49  1  0  0  0  0
 47 46  1  0  0  0  0
 49 53  1  0  0  0  0
 50 49  2  0  0  0  0
 50 51  1  0  0  0  0
 51 52  2  0  0  0  0
 52 54  1  0  0  0  0
 53 55  1  0  0  0  0
 53 52  1  0  0  0  0
 55 58  1  0  0  0  0
 56 55  1  0  0  0  0
 57 55  1  0  0  0  0
M  END
>  <MODEL>
10

>  <REMARK>
 VINA RESULT:    -7.810      2.816      3.894
 INTER + INTRA:         -11.837
 INTER:                 -11.023
 INTRA:                  -0.813
 UNBOUND:                -0.602
  Name = 
  9 active torsions:
  status: ('A' for Active; 'I' for Inactive)
    1  A    between atoms: C_1  and  C_2
    2  A    between atoms: C_2  and  C_3
    3  A    between atoms: C_2  and  C_10
    4  A    between atoms: C_3  and  C_4
    5  A    between atoms: N_8  and  C_9
    6  A    between atoms: C_14  and  N_15
    7  A    between atoms: C_16  and  C_18
    8  A    between atoms: C_20  and  C_21
    9  A    between atoms: C_26  and  O_27
                            x       y       z     vdW  Elec       q    Type
                         _______ _______ _______ _____ _____    ______ ____

>  <TORSDO>
F 9

$$$$
=
 OpenBabel07192307433D

 58 61  0  0  1  0  0  0  0  0999 V2000
    3.0280    4.5060   18.8920 C   0  0  0  0  0  0  0  0  0  0  0  0
    2.6430    3.9320   20.1100 C   0  0  0  0  0  0  0  0  0  0  0  0
    1.9430    4.6810   21.0560 C   0  0  0  0  0  0  0  0  0  0  0  0
    1.6280    6.0150   20.8000 C   0  0  0  0  0  0  0  0  0  0  0  0
    2.0210    6.6230   19.6040 C   0  0  0  0  0  0  0  0  0  0  0  0
    2.7130    5.8610   18.6580 C   0  0  0  0  0  0  0  0  0  0  0  0
    2.8850    2.8980   20.3440 H   0  0  0  0  0  0  0  0  0  0  0  0
    1.6410    4.2190   21.9930 H   0  0  0  0  0  0  0  0  0  0  0  0
    1.0800    6.5720   21.5570 H   0  0  0  0  0  0  0  0  0  0  0  0
    3.0100    6.2970   17.7080 H   0  0  0  0  0  0  0  0  0  0  0  0
    1.6860    7.9810   19.4300 N   0  0  0  0  0  0  0  0  0  0  0  0
    2.0290    8.8030   18.3640 C   0  0  0  0  0  0  0  0  0  0  0  0
    2.7180    8.5020   17.3970 O   0  0  0  0  0  0  0  0  0  0  0  0
    1.0970    8.3800   20.1520 H   0  0  0  0  0  0  0  0  0  0  0  0
    1.5020   10.1980   18.4730 C   0  0  0  0  0  0  0  0  0  0  0  0
    0.1940   10.4150   18.8690 C   0  0  0  0  0  0  0  0  0  0  0  0
   -0.2390   11.7360   18.9510 C   0  0  0  0  0  0  0  0  0  0  0  0
    0.6150   12.7830   18.6100 C   0  0  0  0  0  0  0  0  0  0  0  0
    1.9050   12.4610   18.2330 C   0  0  0  0  0  0  0  0  0  0  0  0
    2.3680   11.1960   18.1640 N   0  0  0  0  0  0  0  0  0  0  0  0
   -0.4720    9.5960   19.1220 H   0  0  0  0  0  0  0  0  0  0  0  0
    0.2840   13.8150   18.6160 H   0  0  0  0  0  0  0  0  0  0  0  0
    2.6220   13.2310   17.9590 H   0  0  0  0  0  0  0  0  0  0  0  0
   -1.6450   11.9840   19.3260 C   0  0  0  0  0  0  0  0  0  0  0  0
   -2.4870   11.9410   18.4340 O   0  0  0  0  0  0  0  0  0  0  0  0
   -1.9510   12.2310   20.6490 N   0  0  0  0  0  0  0  0  0  0  0  0
   -1.0960   12.0350   21.8150 C   0  0  0  0  0  0  0  0  0  0  0  0
   -2.0640   11.8720   22.9760 C   0  0  0  0  0  0  0  0  0  0  0  0
   -3.2580   12.7240   22.5550 C   0  0  1  0  0  0  0  0  0  0  0  0
   -3.3280   12.4630   21.0510 C   0  0  0  0  0  0  0  0  0  0  0  0
   -0.4880   12.9370   21.9410 H   0  0  0  0  0  0  0  0  0  0  0  0
   -0.4420   11.1680   21.6890 H   0  0  0  0  0  0  0  0  0  0  0  0
   -2.3650   10.8230   23.0850 H   0  0  0  0  0  0  0  0  0  0  0  0
   -1.6360   12.1870   23.9320 H   0  0  0  0  0  0  0  0  0  0  0  0
   -3.0610   13.7820   22.7620 H   0  0  0  0  0  0  0  0  0  0  0  0
   -3.9240   11.5730   20.8170 H   0  0  0  0  0  0  0  0  0  0  0  0
   -3.7490   13.3090   20.4990 H   0  0  0  0  0  0  0  0  0  0  0  0
   -4.4220   12.3140   23.2490 O   0  0  0  0  0  0  0  0  0  0  0  0
   -4.4150   11.3420   23.2930 H   0  0  0  0  0  0  0  0  0  0  0  0
    3.7920    3.7340   17.8230 C   0  0  2  0  0  0  0  0  0  0  0  0
    3.4290    4.1170   16.8580 H   0  0  0  0  0  0  0  0  0  0  0  0
    3.4900    2.2300   17.7780 C   0  0  0  0  0  0  0  0  0  0  0  0
    2.4120    2.0530   17.8730 H   0  0  0  0  0  0  0  0  0  0  0  0
    3.8190    1.7600   16.8460 H   0  0  0  0  0  0  0  0  0  0  0  0
    3.9850    1.7090   18.6060 H   0  0  0  0  0  0  0  0  0  0  0  0
    5.3080    4.0250   17.8610 C   0  0  0  0  0  0  0  0  0  0  0  0
    5.4790    4.9270   18.4620 H   0  0  0  0  0  0  0  0  0  0  0  0
    5.8270    3.2200   18.3920 H   0  0  0  0  0  0  0  0  0  0  0  0
    5.9220    4.2450   16.5190 C   0  0  0  0  0  0  0  0  0  0  0  0
    5.7450    3.4810   15.4570 N   0  0  0  0  0  0  0  0  0  0  0  0
    6.4800    4.0040   14.4200 N   0  0  0  0  0  0  0  0  0  0  0  0
    7.0810    5.0800   14.8650 C   0  0  0  0  0  0  0  0  0  0  0  0
    6.7550    5.2790   16.1720 N   0  0  0  0  0  0  0  0  0  0  0  0
    7.7350    5.7250   14.2970 H   0  0  0  0  0  0  0  0  0  0  0  0
    7.2200    6.3730   16.9810 C   0  0  0  0  0  0  0  0  0  0  0  0
    7.2930    7.2630   16.3530 H   0  0  0  0  0  0  0  0  0  0  0  0
    6.5010    6.5500   17.7860 H   0  0  0  0  0  0  0  0  0  0  0  0
    8.1880    6.1310   17.4220 H   0  0  0  0  0  0  0  0  0  0  0  0
  1  2  1  0  0  0  0
  2  7  1  0  0  0  0
  2  3  2  0  0  0  0
  3  8  1  0  0  0  0
  4  3  1  0  0  0  0
  4  9  1  0  0  0  0
  5  4  2  0  0  0  0
  6  1  2  0  0  0  0
  6  5  1  0  0  0  0
 10  6  1  0  0  0  0
 11  5  1  0  0  0  0
 11 14  1  0  0  0  0
 12 15  1  0  0  0  0
 12 11  1  0  0  0  0
 13 12  2  0  0  0  0
 15 16  1  0  0  0  0
 16 17  2  0  0  0  0
 16 21  1  0  0  0  0
 17 24  1  0  0  0  0
 18 22  1  0  0  0  0
 18 17  1  0  0  0  0
 19 18  2  0  0  0  0
 20 19  1  0  0  0  0
 20 15  2  0  0  0  0
 23 19  1  0  0  0  0
 24 26  1  0  0  0  0
 25 24  2  0  0  0  0
 26 30  1  0  0  0  0
 26 27  1  0  0  0  0
 27 31  1  0  0  0  0
 27 28  1  0  0  0  0
 28 33  1  0  0  0  0
 28 34  1  0  0  0  0
 29 35  1  1  0  0  0
 29 28  1  0  0  0  0
 29 38  1  0  0  0  0
 30 29  1  0  0  0  0
 32 27  1  0  0  0  0
 36 30  1  0  0  0  0
 37 30  1  0  0  0  0
 38 39  1  0  0  0  0
 40 41  1  6  0  0  0
 40 46  1  0  0  0  0
 40  1  1  0  0  0  0
 42 40  1  0  0  0  0
 42 43  1  0  0  0  0
 42 45  1  0  0  0  0
 44 42  1  0  0  0  0
 46 48  1  0  0  0  0
 46 47  1  0  0  0  0
 49 46  1  0  0  0  0
 50 49  2  0  0  0  0
 51 52  2  0  0  0  0
 51 50  1  0  0  0  0
 52 53  1  0  0  0  0
 53 49  1  0  0  0  0
 53 55  1  0  0  0  0
 54 52  1  0  0  0  0
 55 58  1  0  0  0  0
 55 57  1  0  0  0  0
 56 55  1  0  0  0  0
M  END
>  <MODEL>
11

>  <REMARK>
 VINA RESULT:    -7.768      3.070      9.871
 INTER + INTRA:         -11.776
 INTER:                 -11.232
 INTRA:                  -0.544
 UNBOUND:                -0.602
  Name = 
  9 active torsions:
  status: ('A' for Active; 'I' for Inactive)
    1  A    between atoms: C_1  and  C_2
    2  A    between atoms: C_2  and  C_3
    3  A    between atoms: C_2  and  C_10
    4  A    between atoms: C_3  and  C_4
    5  A    between atoms: N_8  and  C_9
    6  A    between atoms: C_14  and  N_15
    7  A    between atoms: C_16  and  C_18
    8  A    between atoms: C_20  and  C_21
    9  A    between atoms: C_26  and  O_27
                            x       y       z     vdW  Elec       q    Type
                         _______ _______ _______ _____ _____    ______ ____

>  <TORSDO>
F 9

$$$$
=
 OpenBabel07192307433D

 58 61  0  0  1  0  0  0  0  0999 V2000
   -0.7850   11.4750   19.2250 C   0  0  0  0  0  0  0  0  0  0  0  0
    0.1440   12.4340   18.8050 C   0  0  0  0  0  0  0  0  0  0  0  0
    1.4510   12.0630   18.4890 C   0  0  0  0  0  0  0  0  0  0  0  0
    1.8470   10.7300   18.6000 C   0  0  0  0  0  0  0  0  0  0  0  0
    0.9480    9.7550   19.0420 C   0  0  0  0  0  0  0  0  0  0  0  0
   -0.3620   10.1350   19.3450 C   0  0  0  0  0  0  0  0  0  0  0  0
   -0.1310   13.4830   18.7210 H   0  0  0  0  0  0  0  0  0  0  0  0
    2.1590   12.8160   18.1540 H   0  0  0  0  0  0  0  0  0  0  0  0
    2.8730   10.4720   18.3450 H   0  0  0  0  0  0  0  0  0  0  0  0
   -1.0910    9.3960   19.6670 H   0  0  0  0  0  0  0  0  0  0  0  0
    1.4310    8.4340   19.1500 N   0  0  0  0  0  0  0  0  0  0  0  0
    1.6260    7.7020   20.3140 C   0  0  0  0  0  0  0  0  0  0  0  0
    1.4460    8.0880   21.4630 O   0  0  0  0  0  0  0  0  0  0  0  0
    1.6180    7.9650   18.2710 H   0  0  0  0  0  0  0  0  0  0  0  0
    2.1390    6.3160   20.0860 C   0  0  0  0  0  0  0  0  0  0  0  0
    2.7380    5.9880   18.8820 C   0  0  0  0  0  0  0  0  0  0  0  0
    3.1950    4.6810   18.7290 C   0  0  0  0  0  0  0  0  0  0  0  0
    3.0140    3.7450   19.7460 C   0  0  0  0  0  0  0  0  0  0  0  0
    2.4100    4.1750   20.9130 C   0  0  0  0  0  0  0  0  0  0  0  0
    1.9760    5.4370   21.1070 N   0  0  0  0  0  0  0  0  0  0  0  0
    2.8660    6.7170   18.0890 H   0  0  0  0  0  0  0  0  0  0  0  0
    3.3140    2.7110   19.6290 H   0  0  0  0  0  0  0  0  0  0  0  0
    2.2430    3.4950   21.7450 H   0  0  0  0  0  0  0  0  0  0  0  0
    3.7950    4.3020   17.4350 C   0  0  0  0  0  0  0  0  0  0  0  0
    3.0880    3.6900   16.6400 O   0  0  0  0  0  0  0  0  0  0  0  0
    5.0990    4.6650   17.1700 N   0  0  0  0  0  0  0  0  0  0  0  0
    5.9290    5.6140   17.9050 C   0  0  0  0  0  0  0  0  0  0  0  0
    6.9700    6.0730   16.8970 C   0  0  0  0  0  0  0  0  0  0  0  0
    7.1400    4.8540   15.9940 C   0  0  1  0  0  0  0  0  0  0  0  0
    5.7110    4.3200   15.8980 C   0  0  0  0  0  0  0  0  0  0  0  0
    6.4030    5.0760   18.7330 H   0  0  0  0  0  0  0  0  0  0  0  0
    5.3340    6.4420   18.3000 H   0  0  0  0  0  0  0  0  0  0  0  0
    6.5980    6.9260   16.3160 H   0  0  0  0  0  0  0  0  0  0  0  0
    7.9070    6.3850   17.3670 H   0  0  0  0  0  0  0  0  0  0  0  0
    7.8030    4.1210   16.4670 H   0  0  0  0  0  0  0  0  0  0  0  0
    5.1480    4.7980   15.0890 H   0  0  0  0  0  0  0  0  0  0  0  0
    5.6800    3.2370   15.7420 H   0  0  0  0  0  0  0  0  0  0  0  0
    7.6770    5.2410   14.7430 O   0  0  0  0  0  0  0  0  0  0  0  0
    6.9930    5.7460   14.2690 H   0  0  0  0  0  0  0  0  0  0  0  0
   -2.2250   11.8250   19.5810 C   0  0  2  0  0  0  0  0  0  0  0  0
   -2.5910   10.9970   20.2070 H   0  0  0  0  0  0  0  0  0  0  0  0
   -3.1910   11.8600   18.3880 C   0  0  0  0  0  0  0  0  0  0  0  0
   -3.4010   10.8440   18.0350 H   0  0  0  0  0  0  0  0  0  0  0  0
   -4.1500   12.3270   18.6340 H   0  0  0  0  0  0  0  0  0  0  0  0
   -2.7550   12.4180   17.5510 H   0  0  0  0  0  0  0  0  0  0  0  0
   -2.3220   13.0980   20.4490 C   0  0  0  0  0  0  0  0  0  0  0  0
   -1.3080   13.4550   20.6670 H   0  0  0  0  0  0  0  0  0  0  0  0
   -2.7960   13.9030   19.8760 H   0  0  0  0  0  0  0  0  0  0  0  0
   -3.0270   12.9000   21.7490 C   0  0  0  0  0  0  0  0  0  0  0  0
   -4.2400   13.3320   22.0410 N   0  0  0  0  0  0  0  0  0  0  0  0
   -4.5330   12.9620   23.3310 N   0  0  0  0  0  0  0  0  0  0  0  0
   -3.5010   12.3030   23.7970 C   0  0  0  0  0  0  0  0  0  0  0  0
   -2.5360   12.2280   22.8400 N   0  0  0  0  0  0  0  0  0  0  0  0
   -3.4130   11.8740   24.7850 H   0  0  0  0  0  0  0  0  0  0  0  0
   -1.2690   11.5650   22.9950 C   0  0  0  0  0  0  0  0  0  0  0  0
   -0.6030   11.8990   22.1970 H   0  0  0  0  0  0  0  0  0  0  0  0
   -0.8430   11.8350   23.9650 H   0  0  0  0  0  0  0  0  0  0  0  0
   -1.4030   10.4830   22.9590 H   0  0  0  0  0  0  0  0  0  0  0  0
  1  6  1  0  0  0  0
  1 40  1  0  0  0  0
  2  1  2  0  0  0  0
  3  4  2  0  0  0  0
  3  2  1  0  0  0  0
  4  5  1  0  0  0  0
  5 11  1  0  0  0  0
  5  6  2  0  0  0  0
  6 10  1  0  0  0  0
  7  2  1  0  0  0  0
  8  3  1  0  0  0  0
  9  4  1  0  0  0  0
 11 12  1  0  0  0  0
 12 13  2  0  0  0  0
 14 11  1  0  0  0  0
 15 12  1  0  0  0  0
 15 20  1  0  0  0  0
 16 15  2  0  0  0  0
 17 16  1  0  0  0  0
 17 18  2  0  0  0  0
 18 19  1  0  0  0  0
 19 20  2  0  0  0  0
 19 23  1  0  0  0  0
 21 16  1  0  0  0  0
 22 18  1  0  0  0  0
 24 17  1  0  0  0  0
 25 24  2  0  0  0  0
 26 24  1  0  0  0  0
 26 27  1  0  0  0  0
 27 32  1  0  0  0  0
 27 31  1  0  0  0  0
 28 34  1  0  0  0  0
 28 27  1  0  0  0  0
 29 35  1  1  0  0  0
 29 28  1  0  0  0  0
 30 29  1  0  0  0  0
 30 26  1  0  0  0  0
 33 28  1  0  0  0  0
 36 30  1  0  0  0  0
 37 30  1  0  0  0  0
 38 29  1  0  0  0  0
 39 38  1  0  0  0  0
 40 41  1  1  0  0  0
 40 46  1  0  0  0  0
 42 44  1  0  0  0  0
 42 40  1  0  0  0  0
 43 42  1  0  0  0  0
 45 42  1  0  0  0  0
 46 47  1  0  0  0  0
 46 49  1  0  0  0  0
 48 46  1  0  0  0  0
 49 50  2  0  0  0  0
 49 53  1  0  0  0  0
 50 51  1  0  0  0  0
 51 52  2  0  0  0  0
 52 54  1  0  0  0  0
 53 55  1  0  0  0  0
 53 52  1  0  0  0  0
 55 57  1  0  0  0  0
 56 55  1  0  0  0  0
 58 55  1  0  0  0  0
M  END
>  <MODEL>
12

>  <REMARK>
 VINA RESULT:    -7.723      2.687      3.821
 INTER + INTRA:         -11.712
 INTER:                 -10.815
 INTRA:                  -0.897
 UNBOUND:                -0.602
  Name = 
  9 active torsions:
  status: ('A' for Active; 'I' for Inactive)
    1  A    between atoms: C_1  and  C_2
    2  A    between atoms: C_2  and  C_3
    3  A    between atoms: C_2  and  C_10
    4  A    between atoms: C_3  and  C_4
    5  A    between atoms: N_8  and  C_9
    6  A    between atoms: C_14  and  N_15
    7  A    between atoms: C_16  and  C_18
    8  A    between atoms: C_20  and  C_21
    9  A    between atoms: C_26  and  O_27
                            x       y       z     vdW  Elec       q    Type
                         _______ _______ _______ _____ _____    ______ ____

>  <TORSDO>
F 9

$$$$
=
 OpenBabel07192307433D

 58 61  0  0  1  0  0  0  0  0999 V2000
    5.6020    4.7520   18.8680 C   0  0  0  0  0  0  0  0  0  0  0  0
    5.0170    3.4910   18.7060 C   0  0  0  0  0  0  0  0  0  0  0  0
    3.6620    3.2990   18.9730 C   0  0  0  0  0  0  0  0  0  0  0  0
    2.8770    4.3640   19.4160 C   0  0  0  0  0  0  0  0  0  0  0  0
    3.4400    5.6290   19.6120 C   0  0  0  0  0  0  0  0  0  0  0  0
    4.7960    5.8130   19.3300 C   0  0  0  0  0  0  0  0  0  0  0  0
    5.6060    2.6370   18.3740 H   0  0  0  0  0  0  0  0  0  0  0  0
    3.2180    2.3160   18.8330 H   0  0  0  0  0  0  0  0  0  0  0  0
    1.8240    4.1830   19.6160 H   0  0  0  0  0  0  0  0  0  0  0  0
    5.2570    6.7900   19.4480 H   0  0  0  0  0  0  0  0  0  0  0  0
    2.5870    6.6480   20.0840 N   0  0  0  0  0  0  0  0  0  0  0  0
    2.2050    7.8030   19.4140 C   0  0  0  0  0  0  0  0  0  0  0  0
    2.5700    8.1610   18.3010 O   0  0  0  0  0  0  0  0  0  0  0  0
    2.1850    6.4900   21.0010 H   0  0  0  0  0  0  0  0  0  0  0  0
    1.2720    8.6790   20.1880 C   0  0  0  0  0  0  0  0  0  0  0  0
    0.4420    9.5640   19.5240 C   0  0  0  0  0  0  0  0  0  0  0  0
   -0.4040   10.3530   20.3000 C   0  0  0  0  0  0  0  0  0  0  0  0
   -0.3750   10.2670   21.6900 C   0  0  0  0  0  0  0  0  0  0  0  0
    0.4860    9.3450   22.2570 C   0  0  0  0  0  0  0  0  0  0  0  0
    1.3030    8.5470   21.5390 N   0  0  0  0  0  0  0  0  0  0  0  0
    0.4310    9.6370   18.4410 H   0  0  0  0  0  0  0  0  0  0  0  0
   -0.9860   10.9070   22.3150 H   0  0  0  0  0  0  0  0  0  0  0  0
    0.5540    9.2260   23.3350 H   0  0  0  0  0  0  0  0  0  0  0  0
   -1.2630   11.3360   19.6100 C   0  0  0  0  0  0  0  0  0  0  0  0
   -1.2700   12.4850   20.0410 O   0  0  0  0  0  0  0  0  0  0  0  0
   -1.9960   10.9300   18.5140 N   0  0  0  0  0  0  0  0  0  0  0  0
   -1.8590    9.6910   17.7570 C   0  0  0  0  0  0  0  0  0  0  0  0
   -2.4330   10.0150   16.3860 C   0  0  0  0  0  0  0  0  0  0  0  0
   -3.4990   11.0620   16.6950 C   0  0  1  0  0  0  0  0  0  0  0  0
   -2.8390   11.8790   17.8050 C   0  0  0  0  0  0  0  0  0  0  0  0
   -2.4590    8.9230   18.2560 H   0  0  0  0  0  0  0  0  0  0  0  0
   -0.8160    9.3660   17.7090 H   0  0  0  0  0  0  0  0  0  0  0  0
   -1.6610   10.4390   15.7330 H   0  0  0  0  0  0  0  0  0  0  0  0
   -2.8390    9.1350   15.8780 H   0  0  0  0  0  0  0  0  0  0  0  0
   -4.4140   10.5790   17.0540 H   0  0  0  0  0  0  0  0  0  0  0  0
   -2.2120   12.6840   17.4050 H   0  0  0  0  0  0  0  0  0  0  0  0
   -3.5700   12.3240   18.4880 H   0  0  0  0  0  0  0  0  0  0  0  0
   -3.7890   11.8240   15.5370 O   0  0  0  0  0  0  0  0  0  0  0  0
   -3.6920   12.7650   15.7690 H   0  0  0  0  0  0  0  0  0  0  0  0
    7.0770    5.0180   18.5880 C   0  0  2  0  0  0  0  0  0  0  0  0
    7.5270    4.0340   18.3850 H   0  0  0  0  0  0  0  0  0  0  0  0
    7.8700    5.5630   19.7840 C   0  0  0  0  0  0  0  0  0  0  0  0
    8.3890    4.7490   20.3020 H   0  0  0  0  0  0  0  0  0  0  0  0
    8.6240    6.3000   19.4910 H   0  0  0  0  0  0  0  0  0  0  0  0
    7.2000    6.0430   20.5070 H   0  0  0  0  0  0  0  0  0  0  0  0
    7.2890    5.8610   17.3120 C   0  0  0  0  0  0  0  0  0  0  0  0
    6.8270    6.8450   17.4590 H   0  0  0  0  0  0  0  0  0  0  0  0
    8.3570    6.0610   17.1730 H   0  0  0  0  0  0  0  0  0  0  0  0
    6.7060    5.2600   16.0770 C   0  0  0  0  0  0  0  0  0  0  0  0
    7.1750    4.2030   15.4400 N   0  0  0  0  0  0  0  0  0  0  0  0
    6.3750    3.9640   14.3500 N   0  0  0  0  0  0  0  0  0  0  0  0
    5.4280    4.8700   14.3480 C   0  0  0  0  0  0  0  0  0  0  0  0
    5.5870    5.6990   15.4160 N   0  0  0  0  0  0  0  0  0  0  0  0
    4.6350    4.9600   13.6210 H   0  0  0  0  0  0  0  0  0  0  0  0
    4.7230    6.8020   15.7400 C   0  0  0  0  0  0  0  0  0  0  0  0
    4.1740    6.5560   16.6520 H   0  0  0  0  0  0  0  0  0  0  0  0
    5.3330    7.6940   15.9090 H   0  0  0  0  0  0  0  0  0  0  0  0
    4.0350    6.9970   14.9160 H   0  0  0  0  0  0  0  0  0  0  0  0
  1  6  1  0  0  0  0
  2  1  2  0  0  0  0
  2  3  1  0  0  0  0
  3  4  2  0  0  0  0
  4  5  1  0  0  0  0
  4  9  1  0  0  0  0
  5 11  1  0  0  0  0
  6 10  1  0  0  0  0
  6  5  2  0  0  0  0
  7  2  1  0  0  0  0
  8  3  1  0  0  0  0
 11 14  1  0  0  0  0
 12 11  1  0  0  0  0
 12 15  1  0  0  0  0
 13 12  2  0  0  0  0
 15 20  1  0  0  0  0
 16 15  2  0  0  0  0
 16 17  1  0  0  0  0
 17 18  2  0  0  0  0
 18 19  1  0  0  0  0
 18 22  1  0  0  0  0
 19 23  1  0  0  0  0
 20 19  2  0  0  0  0
 21 16  1  0  0  0  0
 24 25  2  0  0  0  0
 24 17  1  0  0  0  0
 26 24  1  0  0  0  0
 27 31  1  0  0  0  0
 27 26  1  0  0  0  0
 28 29  1  0  0  0  0
 28 27  1  0  0  0  0
 29 35  1  1  0  0  0
 29 30  1  0  0  0  0
 30 37  1  0  0  0  0
 30 26  1  0  0  0  0
 32 27  1  0  0  0  0
 33 28  1  0  0  0  0
 34 28  1  0  0  0  0
 36 30  1  0  0  0  0
 38 39  1  0  0  0  0
 38 29  1  0  0  0  0
 40 41  1  6  0  0  0
 40  1  1  0  0  0  0
 40 42  1  0  0  0  0
 42 43  1  0  0  0  0
 42 45  1  0  0  0  0
 44 42  1  0  0  0  0
 46 47  1  0  0  0  0
 46 40  1  0  0  0  0
 48 46  1  0  0  0  0
 49 46  1  0  0  0  0
 50 49  2  0  0  0  0
 51 50  1  0  0  0  0
 52 51  2  0  0  0  0
 52 53  1  0  0  0  0
 53 55  1  0  0  0  0
 53 49  1  0  0  0  0
 54 52  1  0  0  0  0
 55 57  1  0  0  0  0
 55 56  1  0  0  0  0
 58 55  1  0  0  0  0
M  END
>  <MODEL>
13

>  <REMARK>
 VINA RESULT:    -7.700      2.559      9.032
 INTER + INTRA:         -11.678
 INTER:                 -11.152
 INTRA:                  -0.526
 UNBOUND:                -0.602
  Name = 
  9 active torsions:
  status: ('A' for Active; 'I' for Inactive)
    1  A    between atoms: C_1  and  C_2
    2  A    between atoms: C_2  and  C_3
    3  A    between atoms: C_2  and  C_10
    4  A    between atoms: C_3  and  C_4
    5  A    between atoms: N_8  and  C_9
    6  A    between atoms: C_14  and  N_15
    7  A    between atoms: C_16  and  C_18
    8  A    between atoms: C_20  and  C_21
    9  A    between atoms: C_26  and  O_27
                            x       y       z     vdW  Elec       q    Type
                         _______ _______ _______ _____ _____    ______ ____

>  <TORSDO>
F 9

$$$$
=
 OpenBabel07192307433D

 58 61  0  0  1  0  0  0  0  0999 V2000
    3.2600    5.0560   18.9130 C   0  0  0  0  0  0  0  0  0  0  0  0
    2.8410    4.3600   20.0530 C   0  0  0  0  0  0  0  0  0  0  0  0
    2.0200    4.9760   20.9970 C   0  0  0  0  0  0  0  0  0  0  0  0
    1.6160    6.2990   20.8180 C   0  0  0  0  0  0  0  0  0  0  0  0
    2.0400    7.0270   19.7020 C   0  0  0  0  0  0  0  0  0  0  0  0
    2.8540    6.3970   18.7570 C   0  0  0  0  0  0  0  0  0  0  0  0
    3.1500    3.3310   20.2270 H   0  0  0  0  0  0  0  0  0  0  0  0
    1.6940    4.4200   21.8720 H   0  0  0  0  0  0  0  0  0  0  0  0
    0.9750    6.7510   21.5710 H   0  0  0  0  0  0  0  0  0  0  0  0
    3.1790    6.9290   17.8660 H   0  0  0  0  0  0  0  0  0  0  0  0
    1.6090    8.3670   19.6050 N   0  0  0  0  0  0  0  0  0  0  0  0
    1.6270    9.1760   18.4770 C   0  0  0  0  0  0  0  0  0  0  0  0
    2.0560    8.8820   17.3680 O   0  0  0  0  0  0  0  0  0  0  0  0
    1.2080    8.7580   20.4500 H   0  0  0  0  0  0  0  0  0  0  0  0
    1.0820   10.5510   18.7020 C   0  0  0  0  0  0  0  0  0  0  0  0
   -0.2220   10.7160   19.1340 C   0  0  0  0  0  0  0  0  0  0  0  0
   -0.6720   12.0210   19.3250 C   0  0  0  0  0  0  0  0  0  0  0  0
    0.1610   13.1040   19.0520 C   0  0  0  0  0  0  0  0  0  0  0  0
    1.4500   12.8310   18.6320 C   0  0  0  0  0  0  0  0  0  0  0  0
    1.9290   11.5830   18.4580 N   0  0  0  0  0  0  0  0  0  0  0  0
   -0.8710    9.8700   19.3330 H   0  0  0  0  0  0  0  0  0  0  0  0
   -0.1840   14.1270   19.1440 H   0  0  0  0  0  0  0  0  0  0  0  0
    2.1500   13.6320   18.4060 H   0  0  0  0  0  0  0  0  0  0  0  0
   -2.0750   12.2170   19.7400 C   0  0  0  0  0  0  0  0  0  0  0  0
   -2.9340   12.1950   18.8640 O   0  0  0  0  0  0  0  0  0  0  0  0
   -2.3570   12.3940   21.0790 N   0  0  0  0  0  0  0  0  0  0  0  0
   -1.4720   12.1650   22.2160 C   0  0  0  0  0  0  0  0  0  0  0  0
   -2.4110   11.9250   23.3890 C   0  0  0  0  0  0  0  0  0  0  0  0
   -3.6330   12.7660   23.0330 C   0  0  1  0  0  0  0  0  0  0  0  0
   -3.7300   12.5740   21.5200 C   0  0  0  0  0  0  0  0  0  0  0  0
   -0.8830   13.0740   22.3730 H   0  0  0  0  0  0  0  0  0  0  0  0
   -0.8020   11.3210   22.0360 H   0  0  0  0  0  0  0  0  0  0  0  0
   -2.6860   10.8640   23.4540 H   0  0  0  0  0  0  0  0  0  0  0  0
   -1.9700   12.2040   24.3500 H   0  0  0  0  0  0  0  0  0  0  0  0
   -3.4570   13.8180   23.2850 H   0  0  0  0  0  0  0  0  0  0  0  0
   -4.3110   11.6820   21.2560 H   0  0  0  0  0  0  0  0  0  0  0  0
   -4.1820   13.4350   21.0180 H   0  0  0  0  0  0  0  0  0  0  0  0
   -4.7720   12.2970   23.7310 O   0  0  0  0  0  0  0  0  0  0  0  0
   -5.1260   11.5320   23.2430 H   0  0  0  0  0  0  0  0  0  0  0  0
    4.1550    4.4310   17.8490 C   0  0  2  0  0  0  0  0  0  0  0  0
    4.1870    5.1530   17.0200 H   0  0  0  0  0  0  0  0  0  0  0  0
    3.6030    3.1450   17.2190 C   0  0  0  0  0  0  0  0  0  0  0  0
    4.2020    2.2800   17.5270 H   0  0  0  0  0  0  0  0  0  0  0  0
    2.5660    2.9450   17.5050 H   0  0  0  0  0  0  0  0  0  0  0  0
    3.6410    3.2020   16.1250 H   0  0  0  0  0  0  0  0  0  0  0  0
    5.6120    4.2660   18.3330 C   0  0  0  0  0  0  0  0  0  0  0  0
    5.6040    4.0260   19.4040 H   0  0  0  0  0  0  0  0  0  0  0  0
    6.0690    3.3970   17.8450 H   0  0  0  0  0  0  0  0  0  0  0  0
    6.4630    5.4770   18.1400 C   0  0  0  0  0  0  0  0  0  0  0  0
    7.4320    5.8720   18.9440 N   0  0  0  0  0  0  0  0  0  0  0  0
    7.9720    7.0280   18.4370 N   0  0  0  0  0  0  0  0  0  0  0  0
    7.3310    7.3100   17.3290 C   0  0  0  0  0  0  0  0  0  0  0  0
    6.3820    6.3620   17.0950 N   0  0  0  0  0  0  0  0  0  0  0  0
    7.5150    8.1580   16.6850 H   0  0  0  0  0  0  0  0  0  0  0  0
    5.4980    6.3410   15.9620 C   0  0  0  0  0  0  0  0  0  0  0  0
    5.4680    7.3430   15.5270 H   0  0  0  0  0  0  0  0  0  0  0  0
    5.8830    5.6330   15.2240 H   0  0  0  0  0  0  0  0  0  0  0  0
    4.5000    6.0230   16.2680 H   0  0  0  0  0  0  0  0  0  0  0  0
  1  2  1  0  0  0  0
  2  7  1  0  0  0  0
  2  3  2  0  0  0  0
  3  8  1  0  0  0  0
  4  3  1  0  0  0  0
  4  9  1  0  0  0  0
  5  4  2  0  0  0  0
  6  1  2  0  0  0  0
  6  5  1  0  0  0  0
 10  6  1  0  0  0  0
 11  5  1  0  0  0  0
 11 14  1  0  0  0  0
 12 15  1  0  0  0  0
 12 11  1  0  0  0  0
 13 12  2  0  0  0  0
 15 16  1  0  0  0  0
 16 17  2  0  0  0  0
 16 21  1  0  0  0  0
 17 24  1  0  0  0  0
 18 22  1  0  0  0  0
 18 17  1  0  0  0  0
 19 18  2  0  0  0  0
 20 19  1  0  0  0  0
 20 15  2  0  0  0  0
 23 19  1  0  0  0  0
 24 26  1  0  0  0  0
 25 24  2  0  0  0  0
 26 30  1  0  0  0  0
 26 27  1  0  0  0  0
 27 31  1  0  0  0  0
 27 28  1  0  0  0  0
 28 33  1  0  0  0  0
 28 34  1  0  0  0  0
 29 35  1  1  0  0  0
 29 28  1  0  0  0  0
 29 38  1  0  0  0  0
 30 29  1  0  0  0  0
 32 27  1  0  0  0  0
 36 30  1  0  0  0  0
 37 30  1  0  0  0  0
 39 38  1  0  0  0  0
 40 41  1  6  0  0  0
 40 46  1  0  0  0  0
 40  1  1  0  0  0  0
 42 44  1  0  0  0  0
 42 43  1  0  0  0  0
 42 40  1  0  0  0  0
 45 42  1  0  0  0  0
 46 47  1  0  0  0  0
 48 46  1  0  0  0  0
 49 46  1  0  0  0  0
 49 50  2  0  0  0  0
 51 50  1  0  0  0  0
 52 51  2  0  0  0  0
 53 52  1  0  0  0  0
 53 49  1  0  0  0  0
 54 52  1  0  0  0  0
 55 58  1  0  0  0  0
 55 53  1  0  0  0  0
 56 55  1  0  0  0  0
 57 55  1  0  0  0  0
M  END
>  <MODEL>
14

>  <REMARK>
 VINA RESULT:    -7.655      3.246      9.970
 INTER + INTRA:         -11.613
 INTER:                 -11.343
 INTRA:                  -0.270
 UNBOUND:                -0.602
  Name = 
  9 active torsions:
  status: ('A' for Active; 'I' for Inactive)
    1  A    between atoms: C_1  and  C_2
    2  A    between atoms: C_2  and  C_3
    3  A    between atoms: C_2  and  C_10
    4  A    between atoms: C_3  and  C_4
    5  A    between atoms: N_8  and  C_9
    6  A    between atoms: C_14  and  N_15
    7  A    between atoms: C_16  and  C_18
    8  A    between atoms: C_20  and  C_21
    9  A    between atoms: C_26  and  O_27
                            x       y       z     vdW  Elec       q    Type
                         _______ _______ _______ _____ _____    ______ ____

>  <TORSDO>
F 9

$$$$
=
 OpenBabel07192307433D

 58 61  0  0  1  0  0  0  0  0999 V2000
    4.8510    4.7790   17.1050 C   0  0  0  0  0  0  0  0  0  0  0  0
    3.9780    3.7260   17.4050 C   0  0  0  0  0  0  0  0  0  0  0  0
    2.6720    3.9850   17.8190 C   0  0  0  0  0  0  0  0  0  0  0  0
    2.2260    5.3000   17.9500 C   0  0  0  0  0  0  0  0  0  0  0  0
    3.0830    6.3720   17.6830 C   0  0  0  0  0  0  0  0  0  0  0  0
    4.3860    6.1010   17.2570 C   0  0  0  0  0  0  0  0  0  0  0  0
    4.3000    2.6900   17.3250 H   0  0  0  0  0  0  0  0  0  0  0  0
    2.0010    3.1580   18.0380 H   0  0  0  0  0  0  0  0  0  0  0  0
    1.2020    5.4690   18.2740 H   0  0  0  0  0  0  0  0  0  0  0  0
    5.0690    6.9130   17.0170 H   0  0  0  0  0  0  0  0  0  0  0  0
    2.5650    7.6720   17.8600 N   0  0  0  0  0  0  0  0  0  0  0  0
    2.0190    8.2090   19.0190 C   0  0  0  0  0  0  0  0  0  0  0  0
    1.8570    7.6350   20.0890 O   0  0  0  0  0  0  0  0  0  0  0  0
    2.6390    8.2840   17.0560 H   0  0  0  0  0  0  0  0  0  0  0  0
    1.5720    9.6290   18.8820 C   0  0  0  0  0  0  0  0  0  0  0  0
    0.3160   10.0060   19.3260 C   0  0  0  0  0  0  0  0  0  0  0  0
   -0.0430   11.3420   19.1720 C   0  0  0  0  0  0  0  0  0  0  0  0
    0.8270   12.2430   18.5600 C   0  0  0  0  0  0  0  0  0  0  0  0
    2.0610   11.7680   18.1570 C   0  0  0  0  0  0  0  0  0  0  0  0
    2.4540   10.4870   18.3110 N   0  0  0  0  0  0  0  0  0  0  0  0
   -0.3630    9.2980   19.7920 H   0  0  0  0  0  0  0  0  0  0  0  0
    0.5480   13.2740   18.3820 H   0  0  0  0  0  0  0  0  0  0  0  0
    2.7860   12.4200   17.6770 H   0  0  0  0  0  0  0  0  0  0  0  0
   -1.3960   11.7510   19.5980 C   0  0  0  0  0  0  0  0  0  0  0  0
   -2.2530   11.8700   18.7270 O   0  0  0  0  0  0  0  0  0  0  0  0
   -1.6410   11.9600   20.9400 N   0  0  0  0  0  0  0  0  0  0  0  0
   -0.7960   11.5880   22.0700 C   0  0  0  0  0  0  0  0  0  0  0  0
   -1.7550   11.4880   23.2460 C   0  0  0  0  0  0  0  0  0  0  0  0
   -2.8330   12.5110   22.9040 C   0  0  1  0  0  0  0  0  0  0  0  0
   -2.9670   12.3480   21.3900 C   0  0  0  0  0  0  0  0  0  0  0  0
   -0.0720   12.3940   22.2280 H   0  0  0  0  0  0  0  0  0  0  0  0
   -0.2660   10.6510   21.8800 H   0  0  0  0  0  0  0  0  0  0  0  0
   -2.1900   10.4830   23.3060 H   0  0  0  0  0  0  0  0  0  0  0  0
   -1.2700   11.6880   24.2060 H   0  0  0  0  0  0  0  0  0  0  0  0
   -2.4940   13.5210   23.1620 H   0  0  0  0  0  0  0  0  0  0  0  0
   -3.6800   11.5590   21.1240 H   0  0  0  0  0  0  0  0  0  0  0  0
   -3.2820   13.2720   20.8960 H   0  0  0  0  0  0  0  0  0  0  0  0
   -4.0280   12.2200   23.6050 O   0  0  0  0  0  0  0  0  0  0  0  0
   -3.8670   11.4290   24.1500 H   0  0  0  0  0  0  0  0  0  0  0  0
    6.2860    4.5520   16.6470 C   0  0  2  0  0  0  0  0  0  0  0  0
    6.3390    3.5000   16.3290 H   0  0  0  0  0  0  0  0  0  0  0  0
    7.3420    4.6720   17.7550 C   0  0  0  0  0  0  0  0  0  0  0  0
    8.0650    5.4590   17.5110 H   0  0  0  0  0  0  0  0  0  0  0  0
    6.9070    4.9170   18.7290 H   0  0  0  0  0  0  0  0  0  0  0  0
    7.8980    3.7340   17.8650 H   0  0  0  0  0  0  0  0  0  0  0  0
    6.6450    5.3960   15.4040 C   0  0  0  0  0  0  0  0  0  0  0  0
    5.9570    6.2490   15.3460 H   0  0  0  0  0  0  0  0  0  0  0  0
    7.6410    5.8350   15.5290 H   0  0  0  0  0  0  0  0  0  0  0  0
    6.5620    4.6510   14.1140 C   0  0  0  0  0  0  0  0  0  0  0  0
    5.6860    3.7060   13.8260 N   0  0  0  0  0  0  0  0  0  0  0  0
    5.9350    3.2590   12.5510 N   0  0  0  0  0  0  0  0  0  0  0  0
    6.9480    3.9460   12.0820 C   0  0  0  0  0  0  0  0  0  0  0  0
    7.3690    4.8380   13.0200 N   0  0  0  0  0  0  0  0  0  0  0  0
    7.3920    3.8380   11.1030 H   0  0  0  0  0  0  0  0  0  0  0  0
    8.4520    5.7680   12.8480 C   0  0  0  0  0  0  0  0  0  0  0  0
    8.6660    6.2340   13.8120 H   0  0  0  0  0  0  0  0  0  0  0  0
    9.3350    5.2250   12.4990 H   0  0  0  0  0  0  0  0  0  0  0  0
    8.1870    6.5220   12.1050 H   0  0  0  0  0  0  0  0  0  0  0  0
  1  6  2  0  0  0  0
  1  2  1  0  0  0  0
  2  3  2  0  0  0  0
  3  4  1  0  0  0  0
  3  8  1  0  0  0  0
  4  9  1  0  0  0  0
  5 11  1  0  0  0  0
  5  4  2  0  0  0  0
  6  5  1  0  0  0  0
  7  2  1  0  0  0  0
 10  6  1  0  0  0  0
 11 12  1  0  0  0  0
 12 13  2  0  0  0  0
 14 11  1  0  0  0  0
 15 12  1  0  0  0  0
 15 16  1  0  0  0  0
 16 21  1  0  0  0  0
 17 16  2  0  0  0  0
 17 24  1  0  0  0  0
 18 17  1  0  0  0  0
 19 20  1  0  0  0  0
 19 18  2  0  0  0  0
 20 15  2  0  0  0  0
 22 18  1  0  0  0  0
 23 19  1  0  0  0  0
 24 26  1  0  0  0  0
 25 24  2  0  0  0  0
 26 30  1  0  0  0  0
 26 27  1  0  0  0  0
 27 31  1  0  0  0  0
 27 28  1  0  0  0  0
 28 33  1  0  0  0  0
 28 34  1  0  0  0  0
 29 35  1  1  0  0  0
 29 28  1  0  0  0  0
 29 38  1  0  0  0  0
 30 29  1  0  0  0  0
 32 27  1  0  0  0  0
 36 30  1  0  0  0  0
 37 30  1  0  0  0  0
 38 39  1  0  0  0  0
 40 41  1  6  0  0  0
 40  1  1  0  0  0  0
 40 42  1  0  0  0  0
 42 45  1  0  0  0  0
 42 44  1  0  0  0  0
 43 42  1  0  0  0  0
 46 48  1  0  0  0  0
 46 40  1  0  0  0  0
 47 46  1  0  0  0  0
 49 46  1  0  0  0  0
 50 49  2  0  0  0  0
 51 50  1  0  0  0  0
 52 51  2  0  0  0  0
 52 53  1  0  0  0  0
 53 49  1  0  0  0  0
 54 52  1  0  0  0  0
 55 53  1  0  0  0  0
 55 56  1  0  0  0  0
 57 55  1  0  0  0  0
 58 55  1  0  0  0  0
M  END
>  <MODEL>
15

>  <REMARK>
 VINA RESULT:    -7.624      3.361     10.135
 INTER + INTRA:         -11.569
 INTER:                 -10.944
 INTRA:                  -0.625
 UNBOUND:                -0.602
  Name = 
  9 active torsions:
  status: ('A' for Active; 'I' for Inactive)
    1  A    between atoms: C_1  and  C_2
    2  A    between atoms: C_2  and  C_3
    3  A    between atoms: C_2  and  C_10
    4  A    between atoms: C_3  and  C_4
    5  A    between atoms: N_8  and  C_9
    6  A    between atoms: C_14  and  N_15
    7  A    between atoms: C_16  and  C_18
    8  A    between atoms: C_20  and  C_21
    9  A    between atoms: C_26  and  O_27
                            x       y       z     vdW  Elec       q    Type
                         _______ _______ _______ _____ _____    ______ ____

>  <TORSDO>
F 9

$$$$
=
 OpenBabel07192307433D

 58 61  0  0  1  0  0  0  0  0999 V2000
    4.7620    4.3790   17.0670 C   0  0  0  0  0  0  0  0  0  0  0  0
    3.9320    3.2640   16.8990 C   0  0  0  0  0  0  0  0  0  0  0  0
    2.6310    3.2670   17.4000 C   0  0  0  0  0  0  0  0  0  0  0  0
    2.1470    4.3810   18.0870 C   0  0  0  0  0  0  0  0  0  0  0  0
    2.9610    5.4990   18.2930 C   0  0  0  0  0  0  0  0  0  0  0  0
    4.2600    5.4900   17.7760 C   0  0  0  0  0  0  0  0  0  0  0  0
    4.2850    2.3760   16.3790 H   0  0  0  0  0  0  0  0  0  0  0  0
    1.9940    2.3990   17.2530 H   0  0  0  0  0  0  0  0  0  0  0  0
    1.1280    4.3540   18.4650 H   0  0  0  0  0  0  0  0  0  0  0  0
    4.9090    6.3530   17.8980 H   0  0  0  0  0  0  0  0  0  0  0  0
    2.4080    6.5760   19.0160 N   0  0  0  0  0  0  0  0  0  0  0  0
    2.2250    7.8800   18.5750 C   0  0  0  0  0  0  0  0  0  0  0  0
    2.5460    8.3390   17.4860 O   0  0  0  0  0  0  0  0  0  0  0  0
    2.0760    6.3500   19.9470 H   0  0  0  0  0  0  0  0  0  0  0  0
    1.5930    8.7840   19.5850 C   0  0  0  0  0  0  0  0  0  0  0  0
    1.1880   10.0550   19.2190 C   0  0  0  0  0  0  0  0  0  0  0  0
    0.6060   10.8500   20.2040 C   0  0  0  0  0  0  0  0  0  0  0  0
    0.4800   10.3800   21.5100 C   0  0  0  0  0  0  0  0  0  0  0  0
    0.9100    9.0920   21.7710 C   0  0  0  0  0  0  0  0  0  0  0  0
    1.4550    8.2840   20.8390 N   0  0  0  0  0  0  0  0  0  0  0  0
    1.3000   10.4220   18.2040 H   0  0  0  0  0  0  0  0  0  0  0  0
    0.0790   10.9990   22.3030 H   0  0  0  0  0  0  0  0  0  0  0  0
    0.8350    8.6640   22.7680 H   0  0  0  0  0  0  0  0  0  0  0  0
    0.2110   12.2260   19.8430 C   0  0  0  0  0  0  0  0  0  0  0  0
    0.8920   12.8100   19.0060 O   0  0  0  0  0  0  0  0  0  0  0  0
   -0.9040   12.7790   20.4380 N   0  0  0  0  0  0  0  0  0  0  0  0
   -1.9300   12.0980   21.2190 C   0  0  0  0  0  0  0  0  0  0  0  0
   -3.1550   12.9920   21.1050 C   0  0  0  0  0  0  0  0  0  0  0  0
   -2.5540   14.3870   20.9640 C   0  0  1  0  0  0  0  0  0  0  0  0
   -1.3270   14.1250   20.0910 C   0  0  0  0  0  0  0  0  0  0  0  0
   -1.5850   12.0460   22.2570 H   0  0  0  0  0  0  0  0  0  0  0  0
   -2.1130   11.0870   20.8440 H   0  0  0  0  0  0  0  0  0  0  0  0
   -3.7380   12.7380   20.2110 H   0  0  0  0  0  0  0  0  0  0  0  0
   -3.8250   12.9060   21.9650 H   0  0  0  0  0  0  0  0  0  0  0  0
   -2.2610   14.7760   21.9460 H   0  0  0  0  0  0  0  0  0  0  0  0
   -1.5700   14.1590   19.0220 H   0  0  0  0  0  0  0  0  0  0  0  0
   -0.5190   14.8400   20.2790 H   0  0  0  0  0  0  0  0  0  0  0  0
   -3.4880   15.2670   20.3660 O   0  0  0  0  0  0  0  0  0  0  0  0
   -3.2870   15.3130   19.4150 H   0  0  0  0  0  0  0  0  0  0  0  0
    6.1900    4.4300   16.5370 C   0  0  2  0  0  0  0  0  0  0  0  0
    6.4310    3.4040   16.2210 H   0  0  0  0  0  0  0  0  0  0  0  0
    7.2550    4.7670   17.5910 C   0  0  0  0  0  0  0  0  0  0  0  0
    8.0070    5.4440   17.1710 H   0  0  0  0  0  0  0  0  0  0  0  0
    6.8350    5.2510   18.4770 H   0  0  0  0  0  0  0  0  0  0  0  0
    7.7740    3.8600   17.9210 H   0  0  0  0  0  0  0  0  0  0  0  0
    6.3170    5.3110   15.2760 C   0  0  0  0  0  0  0  0  0  0  0  0
    5.4720    6.0110   15.2480 H   0  0  0  0  0  0  0  0  0  0  0  0
    7.2110    5.9400   15.3510 H   0  0  0  0  0  0  0  0  0  0  0  0
    6.3230    4.5480   13.9940 C   0  0  0  0  0  0  0  0  0  0  0  0
    5.4340    3.6410   13.6340 N   0  0  0  0  0  0  0  0  0  0  0  0
    5.7830    3.1590   12.3960 N   0  0  0  0  0  0  0  0  0  0  0  0
    6.8690    3.7890   12.0190 C   0  0  0  0  0  0  0  0  0  0  0  0
    7.2410    4.6770   12.9820 N   0  0  0  0  0  0  0  0  0  0  0  0
    7.4000    3.6410   11.0900 H   0  0  0  0  0  0  0  0  0  0  0  0
    8.3790    5.5510   12.9030 C   0  0  0  0  0  0  0  0  0  0  0  0
    8.1340    6.4860   13.4110 H   0  0  0  0  0  0  0  0  0  0  0  0
    9.2280    5.0750   13.4020 H   0  0  0  0  0  0  0  0  0  0  0  0
    8.6420    5.7350   11.8600 H   0  0  0  0  0  0  0  0  0  0  0  0
  1  6  1  0  0  0  0
  2  1  2  0  0  0  0
  2  3  1  0  0  0  0
  3  4  2  0  0  0  0
  4  5  1  0  0  0  0
  4  9  1  0  0  0  0
  5 11  1  0  0  0  0
  6 10  1  0  0  0  0
  6  5  2  0  0  0  0
  7  2  1  0  0  0  0
  8  3  1  0  0  0  0
 11 14  1  0  0  0  0
 12 11  1  0  0  0  0
 12 15  1  0  0  0  0
 13 12  2  0  0  0  0
 15 20  1  0  0  0  0
 16 15  2  0  0  0  0
 16 17  1  0  0  0  0
 17 18  2  0  0  0  0
 18 19  1  0  0  0  0
 18 22  1  0  0  0  0
 19 23  1  0  0  0  0
 20 19  2  0  0  0  0
 21 16  1  0  0  0  0
 24 17  1  0  0  0  0
 24 26  1  0  0  0  0
 25 24  2  0  0  0  0
 26 27  1  0  0  0  0
 27 31  1  0  0  0  0
 28 27  1  0  0  0  0
 28 34  1  0  0  0  0
 29 28  1  0  0  0  0
 29 35  1  1  0  0  0
 30 37  1  0  0  0  0
 30 26  1  0  0  0  0
 30 29  1  0  0  0  0
 32 27  1  0  0  0  0
 33 28  1  0  0  0  0
 36 30  1  0  0  0  0
 38 29  1  0  0  0  0
 39 38  1  0  0  0  0
 40 41  1  6  0  0  0
 40  1  1  0  0  0  0
 40 42  1  0  0  0  0
 42 45  1  0  0  0  0
 42 44  1  0  0  0  0
 43 42  1  0  0  0  0
 46 48  1  0  0  0  0
 46 40  1  0  0  0  0
 47 46  1  0  0  0  0
 49 46  1  0  0  0  0
 50 49  2  0  0  0  0
 51 50  1  0  0  0  0
 52 51  2  0  0  0  0
 52 53  1  0  0  0  0
 53 49  1  0  0  0  0
 54 52  1  0  0  0  0
 55 53  1  0  0  0  0
 55 57  1  0  0  0  0
 55 56  1  0  0  0  0
 58 55  1  0  0  0  0
M  END
>  <MODEL>
16

>  <REMARK>
 VINA RESULT:    -7.356      3.362      9.931
 INTER + INTRA:         -11.184
 INTER:                 -10.872
 INTRA:                  -0.313
 UNBOUND:                -0.602
  Name = 
  9 active torsions:
  status: ('A' for Active; 'I' for Inactive)
    1  A    between atoms: C_1  and  C_2
    2  A    between atoms: C_2  and  C_3
    3  A    between atoms: C_2  and  C_10
    4  A    between atoms: C_3  and  C_4
    5  A    between atoms: N_8  and  C_9
    6  A    between atoms: C_14  and  N_15
    7  A    between atoms: C_16  and  C_18
    8  A    between atoms: C_20  and  C_21
    9  A    between atoms: C_26  and  O_27
                            x       y       z     vdW  Elec       q    Type
                         _______ _______ _______ _____ _____    ______ ____

>  <TORSDO>
F 9

$$$$
=
 OpenBabel07192307433D

 58 61  0  0  1  0  0  0  0  0999 V2000
   -0.8650   11.2100   21.1160 C   0  0  0  0  0  0  0  0  0  0  0  0
   -1.0780   11.3620   22.4910 C   0  0  0  0  0  0  0  0  0  0  0  0
   -0.6540   10.3790   23.3860 C   0  0  0  0  0  0  0  0  0  0  0  0
   -0.0230    9.2270   22.9150 C   0  0  0  0  0  0  0  0  0  0  0  0
    0.1790    9.0370   21.5440 C   0  0  0  0  0  0  0  0  0  0  0  0
   -0.2390   10.0330   20.6570 C   0  0  0  0  0  0  0  0  0  0  0  0
   -1.5780   12.2430   22.8880 H   0  0  0  0  0  0  0  0  0  0  0  0
   -0.8160   10.5150   24.4520 H   0  0  0  0  0  0  0  0  0  0  0  0
    0.2960    8.4800   23.6370 H   0  0  0  0  0  0  0  0  0  0  0  0
   -0.0740    9.9260   19.5890 H   0  0  0  0  0  0  0  0  0  0  0  0
    0.8020    7.8360   21.1450 N   0  0  0  0  0  0  0  0  0  0  0  0
    1.6640    7.6520   20.0720 C   0  0  0  0  0  0  0  0  0  0  0  0
    2.0110    8.4970   19.2550 O   0  0  0  0  0  0  0  0  0  0  0  0
    0.6220    7.0340   21.7380 H   0  0  0  0  0  0  0  0  0  0  0  0
    2.1690    6.2520   19.9270 C   0  0  0  0  0  0  0  0  0  0  0  0
    2.8250    5.8690   18.7700 C   0  0  0  0  0  0  0  0  0  0  0  0
    3.2720    4.5520   18.6940 C   0  0  0  0  0  0  0  0  0  0  0  0
    3.0280    3.6610   19.7360 C   0  0  0  0  0  0  0  0  0  0  0  0
    2.3700    4.1440   20.8520 C   0  0  0  0  0  0  0  0  0  0  0  0
    1.9430    5.4180   20.9730 N   0  0  0  0  0  0  0  0  0  0  0  0
    3.0020    6.5640   17.9550 H   0  0  0  0  0  0  0  0  0  0  0  0
    3.3200    2.6190   19.6770 H   0  0  0  0  0  0  0  0  0  0  0  0
    2.1530    3.5010   21.7010 H   0  0  0  0  0  0  0  0  0  0  0  0
    3.9310    4.1140   17.4480 C   0  0  0  0  0  0  0  0  0  0  0  0
    3.3040    3.3610   16.7080 O   0  0  0  0  0  0  0  0  0  0  0  0
    5.1990    4.5790   17.1630 N   0  0  0  0  0  0  0  0  0  0  0  0
    5.9170    5.6700   17.8120 C   0  0  0  0  0  0  0  0  0  0  0  0
    6.9280    6.1330   16.7750 C   0  0  0  0  0  0  0  0  0  0  0  0
    7.2340    4.8580   15.9960 C   0  0  1  0  0  0  0  0  0  0  0  0
    5.8670    4.1770   15.9370 C   0  0  0  0  0  0  0  0  0  0  0  0
    6.4250    5.2630   18.6930 H   0  0  0  0  0  0  0  0  0  0  0  0
    5.2360    6.4680   18.1200 H   0  0  0  0  0  0  0  0  0  0  0  0
    6.4850    6.8860   16.1120 H   0  0  0  0  0  0  0  0  0  0  0  0
    7.8200    6.5800   17.2220 H   0  0  0  0  0  0  0  0  0  0  0  0
    7.9570    4.2420   16.5440 H   0  0  0  0  0  0  0  0  0  0  0  0
    5.2760    4.5180   15.0790 H   0  0  0  0  0  0  0  0  0  0  0  0
    5.9450    3.0860   15.8850 H   0  0  0  0  0  0  0  0  0  0  0  0
    7.7560    5.1750   14.7190 O   0  0  0  0  0  0  0  0  0  0  0  0
    7.3370    6.0040   14.4240 H   0  0  0  0  0  0  0  0  0  0  0  0
   -1.3050   12.2530   20.0950 C   0  0  2  0  0  0  0  0  0  0  0  0
   -2.2780   11.9090   19.7130 H   0  0  0  0  0  0  0  0  0  0  0  0
   -0.4150   12.3490   18.8480 C   0  0  0  0  0  0  0  0  0  0  0  0
   -0.0670   11.3530   18.5500 H   0  0  0  0  0  0  0  0  0  0  0  0
   -0.9340   12.7860   17.9900 H   0  0  0  0  0  0  0  0  0  0  0  0
    0.4710   12.9620   19.0500 H   0  0  0  0  0  0  0  0  0  0  0  0
   -1.5580   13.6330   20.7390 C   0  0  0  0  0  0  0  0  0  0  0  0
   -0.9040   13.7410   21.6130 H   0  0  0  0  0  0  0  0  0  0  0  0
   -1.2520   14.4270   20.0490 H   0  0  0  0  0  0  0  0  0  0  0  0
   -2.9640   13.8500   21.1910 C   0  0  0  0  0  0  0  0  0  0  0  0
   -4.0470   13.6140   20.4740 N   0  0  0  0  0  0  0  0  0  0  0  0
   -5.1470   13.9440   21.2280 N   0  0  0  0  0  0  0  0  0  0  0  0
   -4.7150   14.3650   22.3920 C   0  0  0  0  0  0  0  0  0  0  0  0
   -3.3550   14.3150   22.4210 N   0  0  0  0  0  0  0  0  0  0  0  0
   -5.3290   14.7010   23.2160 H   0  0  0  0  0  0  0  0  0  0  0  0
   -2.5390   14.6880   23.5440 C   0  0  0  0  0  0  0  0  0  0  0  0
   -1.6280   14.0850   23.5270 H   0  0  0  0  0  0  0  0  0  0  0  0
   -2.2780   15.7470   23.4590 H   0  0  0  0  0  0  0  0  0  0  0  0
   -3.0860   14.5340   24.4760 H   0  0  0  0  0  0  0  0  0  0  0  0
  1  2  1  0  0  0  0
  2  7  1  0  0  0  0
  2  3  2  0  0  0  0
  3  8  1  0  0  0  0
  4  3  1  0  0  0  0
  4  9  1  0  0  0  0
  5  4  2  0  0  0  0
  6  1  2  0  0  0  0
  6  5  1  0  0  0  0
 10  6  1  0  0  0  0
 11  5  1  0  0  0  0
 11 14  1  0  0  0  0
 12 11  1  0  0  0  0
 13 12  2  0  0  0  0
 15 12  1  0  0  0  0
 15 20  1  0  0  0  0
 16 15  2  0  0  0  0
 17 16  1  0  0  0  0
 17 18  2  0  0  0  0
 18 19  1  0  0  0  0
 19 20  2  0  0  0  0
 19 23  1  0  0  0  0
 21 16  1  0  0  0  0
 22 18  1  0  0  0  0
 24 17  1  0  0  0  0
 25 24  2  0  0  0  0
 26 24  1  0  0  0  0
 26 27  1  0  0  0  0
 27 32  1  0  0  0  0
 27 31  1  0  0  0  0
 28 34  1  0  0  0  0
 28 27  1  0  0  0  0
 29 35  1  1  0  0  0
 29 28  1  0  0  0  0
 30 29  1  0  0  0  0
 30 26  1  0  0  0  0
 33 28  1  0  0  0  0
 36 30  1  0  0  0  0
 37 30  1  0  0  0  0
 38 29  1  0  0  0  0
 39 38  1  0  0  0  0
 40 41  1  6  0  0  0
 40 46  1  0  0  0  0
 40  1  1  0  0  0  0
 42 45  1  0  0  0  0
 42 40  1  0  0  0  0
 43 42  1  0  0  0  0
 44 42  1  0  0  0  0
 46 49  1  0  0  0  0
 46 47  1  0  0  0  0
 48 46  1  0  0  0  0
 49 53  1  0  0  0  0
 50 49  2  0  0  0  0
 50 51  1  0  0  0  0
 51 52  2  0  0  0  0
 52 53  1  0  0  0  0
 52 54  1  0  0  0  0
 53 55  1  0  0  0  0
 55 58  1  0  0  0  0
 56 55  1  0  0  0  0
 57 55  1  0  0  0  0
M  END
>  <MODEL>
17

>  <REMARK>
 VINA RESULT:    -7.313      2.737      3.493
 INTER + INTRA:         -11.121
 INTER:                 -10.775
 INTRA:                  -0.346
 UNBOUND:                -0.602
  Name = 
  9 active torsions:
  status: ('A' for Active; 'I' for Inactive)
    1  A    between atoms: C_1  and  C_2
    2  A    between atoms: C_2  and  C_3
    3  A    between atoms: C_2  and  C_10
    4  A    between atoms: C_3  and  C_4
    5  A    between atoms: N_8  and  C_9
    6  A    between atoms: C_14  and  N_15
    7  A    between atoms: C_16  and  C_18
    8  A    between atoms: C_20  and  C_21
    9  A    between atoms: C_26  and  O_27
                            x       y       z     vdW  Elec       q    Type
                         _______ _______ _______ _____ _____    ______ ____

>  <TORSDO>
F 9

$$$$
=
 OpenBabel07192307433D

 58 61  0  0  1  0  0  0  0  0999 V2000
    4.3220    4.7360   17.0190 C   0  0  0  0  0  0  0  0  0  0  0  0
    3.5430    3.5750   16.9460 C   0  0  0  0  0  0  0  0  0  0  0  0
    2.3180    3.5010   17.6070 C   0  0  0  0  0  0  0  0  0  0  0  0
    1.8620    4.5830   18.3610 C   0  0  0  0  0  0  0  0  0  0  0  0
    2.6300    5.7460   18.4740 C   0  0  0  0  0  0  0  0  0  0  0  0
    3.8510    5.8140   17.7970 C   0  0  0  0  0  0  0  0  0  0  0  0
    3.8780    2.7100   16.3770 H   0  0  0  0  0  0  0  0  0  0  0  0
    1.7180    2.5970   17.5330 H   0  0  0  0  0  0  0  0  0  0  0  0
    0.9020    4.4950   18.8640 H   0  0  0  0  0  0  0  0  0  0  0  0
    4.4590    6.7130   17.8450 H   0  0  0  0  0  0  0  0  0  0  0  0
    2.1110    6.7860   19.2720 N   0  0  0  0  0  0  0  0  0  0  0  0
    1.7820    8.0730   18.8670 C   0  0  0  0  0  0  0  0  0  0  0  0
    1.9170    8.5480   17.7460 O   0  0  0  0  0  0  0  0  0  0  0  0
    1.9280    6.5430   20.2390 H   0  0  0  0  0  0  0  0  0  0  0  0
    1.2380    8.9370   19.9590 C   0  0  0  0  0  0  0  0  0  0  0  0
    0.8610   10.2410   19.6880 C   0  0  0  0  0  0  0  0  0  0  0  0
    0.3610   10.9960   20.7460 C   0  0  0  0  0  0  0  0  0  0  0  0
    0.2850   10.4550   22.0280 C   0  0  0  0  0  0  0  0  0  0  0  0
    0.6810    9.1400   22.1930 C   0  0  0  0  0  0  0  0  0  0  0  0
    1.1470    8.3700   21.1890 N   0  0  0  0  0  0  0  0  0  0  0  0
    0.9330   10.6620   18.6910 H   0  0  0  0  0  0  0  0  0  0  0  0
   -0.0510   11.0400   22.8760 H   0  0  0  0  0  0  0  0  0  0  0  0
    0.6420    8.6580   23.1670 H   0  0  0  0  0  0  0  0  0  0  0  0
   -0.0020   12.4030   20.4850 C   0  0  0  0  0  0  0  0  0  0  0  0
    0.8430   13.1180   19.9550 O   0  0  0  0  0  0  0  0  0  0  0  0
   -1.2660   12.8410   20.8240 N   0  0  0  0  0  0  0  0  0  0  0  0
   -2.4220   12.0330   21.1930 C   0  0  0  0  0  0  0  0  0  0  0  0
   -3.6210   12.9130   20.8740 C   0  0  0  0  0  0  0  0  0  0  0  0
   -3.0860   14.3240   21.0980 C   0  0  1  0  0  0  0  0  0  0  0  0
   -1.6570   14.2170   20.5650 C   0  0  0  0  0  0  0  0  0  0  0  0
   -2.3650   11.8330   22.2680 H   0  0  0  0  0  0  0  0  0  0  0  0
   -2.4390   11.0870   20.6460 H   0  0  0  0  0  0  0  0  0  0  0  0
   -3.9290   12.7840   19.8290 H   0  0  0  0  0  0  0  0  0  0  0  0
   -4.4910   12.6870   21.4970 H   0  0  0  0  0  0  0  0  0  0  0  0
   -3.0890   14.5670   22.1660 H   0  0  0  0  0  0  0  0  0  0  0  0
   -1.6070   14.4050   19.4860 H   0  0  0  0  0  0  0  0  0  0  0  0
   -0.9720   14.9090   21.0640 H   0  0  0  0  0  0  0  0  0  0  0  0
   -3.8750   15.2660   20.3950 O   0  0  0  0  0  0  0  0  0  0  0  0
   -4.7620   15.2680   20.7950 H   0  0  0  0  0  0  0  0  0  0  0  0
    5.6660    4.8720   16.3140 C   0  0  2  0  0  0  0  0  0  0  0  0
    5.6860    5.8890   15.8950 H   0  0  0  0  0  0  0  0  0  0  0  0
    5.8500    3.9520   15.0990 C   0  0  0  0  0  0  0  0  0  0  0  0
    6.7910    3.3950   15.1800 H   0  0  0  0  0  0  0  0  0  0  0  0
    5.0440    3.2200   14.9960 H   0  0  0  0  0  0  0  0  0  0  0  0
    5.8900    4.5360   14.1730 H   0  0  0  0  0  0  0  0  0  0  0  0
    6.8550    4.7870   17.2960 C   0  0  0  0  0  0  0  0  0  0  0  0
    6.5290    4.2580   18.2010 H   0  0  0  0  0  0  0  0  0  0  0  0
    7.6480    4.1650   16.8670 H   0  0  0  0  0  0  0  0  0  0  0  0
    7.4010    6.1120   17.7130 C   0  0  0  0  0  0  0  0  0  0  0  0
    7.3700    7.2180   16.9920 N   0  0  0  0  0  0  0  0  0  0  0  0
    7.9760    8.2200   17.7100 N   0  0  0  0  0  0  0  0  0  0  0  0
    8.3540    7.7110   18.8570 C   0  0  0  0  0  0  0  0  0  0  0  0
    8.0070    6.3950   18.9110 N   0  0  0  0  0  0  0  0  0  0  0  0
    8.8620    8.2380   19.6520 H   0  0  0  0  0  0  0  0  0  0  0  0
    8.2520    5.5210   20.0260 C   0  0  0  0  0  0  0  0  0  0  0  0
    7.3270    5.4210   20.5970 H   0  0  0  0  0  0  0  0  0  0  0  0
    8.5580    4.5420   19.6490 H   0  0  0  0  0  0  0  0  0  0  0  0
    9.0510    5.9230   20.6510 H   0  0  0  0  0  0  0  0  0  0  0  0
  1  6  1  0  0  0  0
  2  1  2  0  0  0  0
  2  3  1  0  0  0  0
  3  4  2  0  0  0  0
  4  5  1  0  0  0  0
  4  9  1  0  0  0  0
  5 11  1  0  0  0  0
  6 10  1  0  0  0  0
  6  5  2  0  0  0  0
  7  2  1  0  0  0  0
  8  3  1  0  0  0  0
 11 14  1  0  0  0  0
 12 11  1  0  0  0  0
 12 15  1  0  0  0  0
 13 12  2  0  0  0  0
 15 20  1  0  0  0  0
 16 15  2  0  0  0  0
 16 17  1  0  0  0  0
 17 18  2  0  0  0  0
 18 19  1  0  0  0  0
 18 22  1  0  0  0  0
 19 23  1  0  0  0  0
 20 19  2  0  0  0  0
 21 16  1  0  0  0  0
 24 17  1  0  0  0  0
 24 26  1  0  0  0  0
 25 24  2  0  0  0  0
 26 27  1  0  0  0  0
 27 31  1  0  0  0  0
 28 29  1  0  0  0  0
 28 27  1  0  0  0  0
 28 34  1  0  0  0  0
 29 35  1  1  0  0  0
 30 26  1  0  0  0  0
 30 37  1  0  0  0  0
 30 29  1  0  0  0  0
 32 27  1  0  0  0  0
 33 28  1  0  0  0  0
 36 30  1  0  0  0  0
 38 39  1  0  0  0  0
 38 29  1  0  0  0  0
 40 41  1  6  0  0  0
 40  1  1  0  0  0  0
 40 46  1  0  0  0  0
 42 43  1  0  0  0  0
 42 40  1  0  0  0  0
 44 42  1  0  0  0  0
 45 42  1  0  0  0  0
 46 49  1  0  0  0  0
 46 47  1  0  0  0  0
 48 46  1  0  0  0  0
 49 53  1  0  0  0  0
 50 51  1  0  0  0  0
 50 49  2  0  0  0  0
 51 52  2  0  0  0  0
 52 53  1  0  0  0  0
 52 54  1  0  0  0  0
 53 55  1  0  0  0  0
 55 56  1  0  0  0  0
 55 58  1  0  0  0  0
 57 55  1  0  0  0  0
M  END
>  <MODEL>
18

>  <REMARK>
 VINA RESULT:    -7.265      3.367      9.932
 INTER + INTRA:         -11.052
 INTER:                 -10.327
 INTRA:                  -0.725
 UNBOUND:                -0.602
  Name = 
  9 active torsions:
  status: ('A' for Active; 'I' for Inactive)
    1  A    between atoms: C_1  and  C_2
    2  A    between atoms: C_2  and  C_3
    3  A    between atoms: C_2  and  C_10
    4  A    between atoms: C_3  and  C_4
    5  A    between atoms: N_8  and  C_9
    6  A    between atoms: C_14  and  N_15
    7  A    between atoms: C_16  and  C_18
    8  A    between atoms: C_20  and  C_21
    9  A    between atoms: C_26  and  O_27
                            x       y       z     vdW  Elec       q    Type
                         _______ _______ _______ _____ _____    ______ ____

>  <TORSDO>
F 9

$$$$
=
 OpenBabel07192307433D

 58 61  0  0  1  0  0  0  0  0999 V2000
    0.5770   12.4600   19.0110 C   0  0  0  0  0  0  0  0  0  0  0  0
   -0.7090   12.5100   18.4590 C   0  0  0  0  0  0  0  0  0  0  0  0
   -1.3880   11.3360   18.1360 C   0  0  0  0  0  0  0  0  0  0  0  0
   -0.7840   10.0960   18.3510 C   0  0  0  0  0  0  0  0  0  0  0  0
    0.5090   10.0160   18.8770 C   0  0  0  0  0  0  0  0  0  0  0  0
    1.1750   11.1990   19.2070 C   0  0  0  0  0  0  0  0  0  0  0  0
   -1.2010   13.4620   18.2680 H   0  0  0  0  0  0  0  0  0  0  0  0
   -2.3900   11.3890   17.7180 H   0  0  0  0  0  0  0  0  0  0  0  0
   -1.3390    9.1990   18.0900 H   0  0  0  0  0  0  0  0  0  0  0  0
    2.1710   11.1690   19.6410 H   0  0  0  0  0  0  0  0  0  0  0  0
    1.0590    8.7280   19.0420 N   0  0  0  0  0  0  0  0  0  0  0  0
    1.4730    8.1360   20.2280 C   0  0  0  0  0  0  0  0  0  0  0  0
    1.4670    8.6430   21.3430 O   0  0  0  0  0  0  0  0  0  0  0  0
    1.1180    8.1680   18.1990 H   0  0  0  0  0  0  0  0  0  0  0  0
    1.9990    6.7460   20.0660 C   0  0  0  0  0  0  0  0  0  0  0  0
    2.6020    6.3670   18.8790 C   0  0  0  0  0  0  0  0  0  0  0  0
    3.0720    5.0590   18.7890 C   0  0  0  0  0  0  0  0  0  0  0  0
    2.9010    4.1710   19.8490 C   0  0  0  0  0  0  0  0  0  0  0  0
    2.2920    4.6490   20.9940 C   0  0  0  0  0  0  0  0  0  0  0  0
    1.8450    5.9150   21.1280 N   0  0  0  0  0  0  0  0  0  0  0  0
    2.7220    7.0590   18.0520 H   0  0  0  0  0  0  0  0  0  0  0  0
    3.2120    3.1350   19.7820 H   0  0  0  0  0  0  0  0  0  0  0  0
    2.1330    4.0080   21.8580 H   0  0  0  0  0  0  0  0  0  0  0  0
    3.6760    4.6250   17.5140 C   0  0  0  0  0  0  0  0  0  0  0  0
    2.9580    4.0210   16.7230 O   0  0  0  0  0  0  0  0  0  0  0  0
    4.9980    4.9300   17.2620 N   0  0  0  0  0  0  0  0  0  0  0  0
    5.8530    5.8630   17.9870 C   0  0  0  0  0  0  0  0  0  0  0  0
    6.9270    6.2550   16.9840 C   0  0  0  0  0  0  0  0  0  0  0  0
    7.0620    5.0090   16.1140 C   0  0  1  0  0  0  0  0  0  0  0  0
    5.6150    4.5290   16.0080 C   0  0  0  0  0  0  0  0  0  0  0  0
    6.2930    5.3270   18.8350 H   0  0  0  0  0  0  0  0  0  0  0  0
    5.2860    6.7230   18.3520 H   0  0  0  0  0  0  0  0  0  0  0  0
    6.5980    7.1080   16.3780 H   0  0  0  0  0  0  0  0  0  0  0  0
    7.8680    6.5420   17.4610 H   0  0  0  0  0  0  0  0  0  0  0  0
    7.6890    4.2620   16.6150 H   0  0  0  0  0  0  0  0  0  0  0  0
    5.0830    5.0090   15.1780 H   0  0  0  0  0  0  0  0  0  0  0  0
    5.5430    3.4450   15.8770 H   0  0  0  0  0  0  0  0  0  0  0  0
    7.6330    5.3430   14.8630 O   0  0  0  0  0  0  0  0  0  0  0  0
    7.8390    6.2950   14.8740 H   0  0  0  0  0  0  0  0  0  0  0  0
    1.3610   13.7120   19.3840 C   0  0  2  0  0  0  0  0  0  0  0  0
    1.5590   13.6330   20.4640 H   0  0  0  0  0  0  0  0  0  0  0  0
    0.5840   15.0270   19.2310 C   0  0  0  0  0  0  0  0  0  0  0  0
    0.7680   15.6820   20.0910 H   0  0  0  0  0  0  0  0  0  0  0  0
    0.8640   15.5820   18.3310 H   0  0  0  0  0  0  0  0  0  0  0  0
   -0.4940   14.8380   19.1840 H   0  0  0  0  0  0  0  0  0  0  0  0
    2.7420   13.7660   18.6950 C   0  0  0  0  0  0  0  0  0  0  0  0
    3.0350   12.7470   18.4130 H   0  0  0  0  0  0  0  0  0  0  0  0
    2.6650   14.3170   17.7520 H   0  0  0  0  0  0  0  0  0  0  0  0
    3.8280   14.3370   19.5450 C   0  0  0  0  0  0  0  0  0  0  0  0
    3.7990   14.4480   20.8600 N   0  0  0  0  0  0  0  0  0  0  0  0
    4.9740   15.0260   21.2720 N   0  0  0  0  0  0  0  0  0  0  0  0
    5.7020   15.2470   20.2050 C   0  0  0  0  0  0  0  0  0  0  0  0
    5.0310   14.8220   19.0980 N   0  0  0  0  0  0  0  0  0  0  0  0
    6.6860   15.6930   20.1850 H   0  0  0  0  0  0  0  0  0  0  0  0
    5.5310   14.8930   17.7520 C   0  0  0  0  0  0  0  0  0  0  0  0
    4.8720   15.5420   17.1720 H   0  0  0  0  0  0  0  0  0  0  0  0
    6.5390   15.3160   17.7690 H   0  0  0  0  0  0  0  0  0  0  0  0
    5.5750   13.8960   17.3130 H   0  0  0  0  0  0  0  0  0  0  0  0
  1  6  1  0  0  0  0
  1 40  1  0  0  0  0
  2  1  2  0  0  0  0
  3  4  2  0  0  0  0
  3  2  1  0  0  0  0
  4  5  1  0  0  0  0
  5 11  1  0  0  0  0
  5  6  2  0  0  0  0
  6 10  1  0  0  0  0
  7  2  1  0  0  0  0
  8  3  1  0  0  0  0
  9  4  1  0  0  0  0
 11 12  1  0  0  0  0
 12 13  2  0  0  0  0
 14 11  1  0  0  0  0
 15 12  1  0  0  0  0
 15 20  1  0  0  0  0
 16 15  2  0  0  0  0
 17 16  1  0  0  0  0
 17 18  2  0  0  0  0
 18 19  1  0  0  0  0
 19 20  2  0  0  0  0
 19 23  1  0  0  0  0
 21 16  1  0  0  0  0
 22 18  1  0  0  0  0
 24 17  1  0  0  0  0
 25 24  2  0  0  0  0
 26 24  1  0  0  0  0
 26 27  1  0  0  0  0
 27 32  1  0  0  0  0
 27 31  1  0  0  0  0
 28 34  1  0  0  0  0
 28 27  1  0  0  0  0
 29 35  1  1  0  0  0
 29 28  1  0  0  0  0
 30 29  1  0  0  0  0
 30 26  1  0  0  0  0
 33 28  1  0  0  0  0
 36 30  1  0  0  0  0
 37 30  1  0  0  0  0
 38 39  1  0  0  0  0
 38 29  1  0  0  0  0
 40 41  1  1  0  0  0
 42 40  1  0  0  0  0
 42 43  1  0  0  0  0
 44 42  1  0  0  0  0
 45 42  1  0  0  0  0
 46 40  1  0  0  0  0
 46 49  1  0  0  0  0
 47 46  1  0  0  0  0
 48 46  1  0  0  0  0
 49 50  2  0  0  0  0
 50 51  1  0  0  0  0
 52 51  2  0  0  0  0
 53 49  1  0  0  0  0
 53 52  1  0  0  0  0
 54 52  1  0  0  0  0
 55 57  1  0  0  0  0
 55 53  1  0  0  0  0
 56 55  1  0  0  0  0
 58 55  1  0  0  0  0
M  END
>  <MODEL>
19

>  <REMARK>
 VINA RESULT:    -7.222      3.452      5.097
 INTER + INTRA:         -10.991
 INTER:                 -10.134
 INTRA:                  -0.856
 UNBOUND:                -0.602
  Name = 
  9 active torsions:
  status: ('A' for Active; 'I' for Inactive)
    1  A    between atoms: C_1  and  C_2
    2  A    between atoms: C_2  and  C_3
    3  A    between atoms: C_2  and  C_10
    4  A    between atoms: C_3  and  C_4
    5  A    between atoms: N_8  and  C_9
    6  A    between atoms: C_14  and  N_15
    7  A    between atoms: C_16  and  C_18
    8  A    between atoms: C_20  and  C_21
    9  A    between atoms: C_26  and  O_27
                            x       y       z     vdW  Elec       q    Type
                         _______ _______ _______ _____ _____    ______ ____

>  <TORSDO>
F 9

$$$$
=
 OpenBabel07192307433D

 58 61  0  0  1  0  0  0  0  0999 V2000
    0.5930   12.3810   19.1060 C   0  0  0  0  0  0  0  0  0  0  0  0
   -0.6430   12.4430   18.4520 C   0  0  0  0  0  0  0  0  0  0  0  0
   -1.2800   11.2770   18.0280 C   0  0  0  0  0  0  0  0  0  0  0  0
   -0.6820   10.0350   18.2410 C   0  0  0  0  0  0  0  0  0  0  0  0
    0.5640    9.9430   18.8680 C   0  0  0  0  0  0  0  0  0  0  0  0
    1.1880   11.1170   19.3000 C   0  0  0  0  0  0  0  0  0  0  0  0
   -1.1290   13.3980   18.2600 H   0  0  0  0  0  0  0  0  0  0  0  0
   -2.2450   11.3400   17.5310 H   0  0  0  0  0  0  0  0  0  0  0  0
   -1.2030    9.1450   17.8990 H   0  0  0  0  0  0  0  0  0  0  0  0
    2.1460   11.0770   19.8130 H   0  0  0  0  0  0  0  0  0  0  0  0
    1.1130    8.6540   19.0260 N   0  0  0  0  0  0  0  0  0  0  0  0
    1.4650    8.0290   20.2150 C   0  0  0  0  0  0  0  0  0  0  0  0
    1.3930    8.5020   21.3430 O   0  0  0  0  0  0  0  0  0  0  0  0
    1.2240    8.1200   18.1720 H   0  0  0  0  0  0  0  0  0  0  0  0
    2.0090    6.6470   20.0420 C   0  0  0  0  0  0  0  0  0  0  0  0
    2.6100    6.2840   18.8500 C   0  0  0  0  0  0  0  0  0  0  0  0
    3.0980    4.9830   18.7490 C   0  0  0  0  0  0  0  0  0  0  0  0
    2.9460    4.0870   19.8050 C   0  0  0  0  0  0  0  0  0  0  0  0
    2.3370    4.5500   20.9570 C   0  0  0  0  0  0  0  0  0  0  0  0
    1.8740    5.8090   21.1010 N   0  0  0  0  0  0  0  0  0  0  0  0
    2.7150    6.9820   18.0250 H   0  0  0  0  0  0  0  0  0  0  0  0
    3.2700    3.0560   19.7300 H   0  0  0  0  0  0  0  0  0  0  0  0
    2.1920    3.9020   21.8180 H   0  0  0  0  0  0  0  0  0  0  0  0
    3.6990    4.5640   17.4670 C   0  0  0  0  0  0  0  0  0  0  0  0
    2.9850    3.9530   16.6790 O   0  0  0  0  0  0  0  0  0  0  0  0
    5.0140    4.8920   17.2080 N   0  0  0  0  0  0  0  0  0  0  0  0
    5.8600    5.8350   17.9310 C   0  0  0  0  0  0  0  0  0  0  0  0
    6.9200    6.2490   16.9230 C   0  0  0  0  0  0  0  0  0  0  0  0
    7.0690    5.0090   16.0460 C   0  0  1  0  0  0  0  0  0  0  0  0
    5.6290    4.5060   15.9480 C   0  0  0  0  0  0  0  0  0  0  0  0
    6.3140    5.3020   18.7730 H   0  0  0  0  0  0  0  0  0  0  0  0
    5.2810    6.6840   18.3040 H   0  0  0  0  0  0  0  0  0  0  0  0
    6.5730    7.0990   16.3230 H   0  0  0  0  0  0  0  0  0  0  0  0
    7.8600    6.5480   17.3950 H   0  0  0  0  0  0  0  0  0  0  0  0
    7.7110    4.2700   16.5390 H   0  0  0  0  0  0  0  0  0  0  0  0
    5.0840    4.9820   15.1240 H   0  0  0  0  0  0  0  0  0  0  0  0
    5.5730    3.4220   15.8120 H   0  0  0  0  0  0  0  0  0  0  0  0
    7.6260    5.3580   14.7920 O   0  0  0  0  0  0  0  0  0  0  0  0
    8.5790    5.1620   14.8250 H   0  0  0  0  0  0  0  0  0  0  0  0
    1.3310   13.6220   19.5930 C   0  0  2  0  0  0  0  0  0  0  0  0
    0.6750   14.4740   19.3570 H   0  0  0  0  0  0  0  0  0  0  0  0
    2.6380   13.9270   18.8490 C   0  0  0  0  0  0  0  0  0  0  0  0
    2.9390   13.0680   18.2380 H   0  0  0  0  0  0  0  0  0  0  0  0
    2.5550   14.7910   18.1830 H   0  0  0  0  0  0  0  0  0  0  0  0
    3.4500   14.1300   19.5570 H   0  0  0  0  0  0  0  0  0  0  0  0
    1.5150   13.6320   21.1260 C   0  0  0  0  0  0  0  0  0  0  0  0
    1.8270   12.6310   21.4500 H   0  0  0  0  0  0  0  0  0  0  0  0
    2.3440   14.2950   21.3960 H   0  0  0  0  0  0  0  0  0  0  0  0
    0.2850   13.9980   21.8880 C   0  0  0  0  0  0  0  0  0  0  0  0
   -0.1240   15.2260   22.1450 N   0  0  0  0  0  0  0  0  0  0  0  0
   -1.2850   15.1530   22.8740 N   0  0  0  0  0  0  0  0  0  0  0  0
   -1.5690   13.8840   23.0390 C   0  0  0  0  0  0  0  0  0  0  0  0
   -0.6200   13.1200   22.4310 N   0  0  0  0  0  0  0  0  0  0  0  0
   -2.4210   13.4850   23.5700 H   0  0  0  0  0  0  0  0  0  0  0  0
   -0.6150   11.6830   22.3940 C   0  0  0  0  0  0  0  0  0  0  0  0
   -1.6460   11.3350   22.3100 H   0  0  0  0  0  0  0  0  0  0  0  0
   -0.0440   11.3510   21.5230 H   0  0  0  0  0  0  0  0  0  0  0  0
   -0.1450   11.2850   23.2950 H   0  0  0  0  0  0  0  0  0  0  0  0
  1  6  1  0  0  0  0
  1 40  1  0  0  0  0
  2  1  2  0  0  0  0
  3  4  2  0  0  0  0
  3  2  1  0  0  0  0
  4  5  1  0  0  0  0
  5 11  1  0  0  0  0
  5  6  2  0  0  0  0
  6 10  1  0  0  0  0
  7  2  1  0  0  0  0
  8  3  1  0  0  0  0
  9  4  1  0  0  0  0
 11 12  1  0  0  0  0
 12 13  2  0  0  0  0
 14 11  1  0  0  0  0
 15 12  1  0  0  0  0
 15 20  1  0  0  0  0
 16 15  2  0  0  0  0
 17 16  1  0  0  0  0
 17 18  2  0  0  0  0
 18 19  1  0  0  0  0
 19 20  2  0  0  0  0
 19 23  1  0  0  0  0
 21 16  1  0  0  0  0
 22 18  1  0  0  0  0
 24 17  1  0  0  0  0
 25 24  2  0  0  0  0
 26 24  1  0  0  0  0
 26 27  1  0  0  0  0
 27 32  1  0  0  0  0
 27 31  1  0  0  0  0
 28 34  1  0  0  0  0
 28 27  1  0  0  0  0
 29 35  1  1  0  0  0
 29 28  1  0  0  0  0
 30 29  1  0  0  0  0
 30 26  1  0  0  0  0
 33 28  1  0  0  0  0
 36 30  1  0  0  0  0
 37 30  1  0  0  0  0
 38 39  1  0  0  0  0
 38 29  1  0  0  0  0
 40 41  1  6  0  0  0
 40 46  1  0  0  0  0
 42 45  1  0  0  0  0
 42 40  1  0  0  0  0
 43 42  1  0  0  0  0
 44 42  1  0  0  0  0
 46 48  1  0  0  0  0
 46 47  1  0  0  0  0
 46 49  1  0  0  0  0
 49 50  2  0  0  0  0
 49 53  1  0  0  0  0
 50 51  1  0  0  0  0
 51 52  2  0  0  0  0
 52 54  1  0  0  0  0
 53 52  1  0  0  0  0
 55 53  1  0  0  0  0
 55 58  1  0  0  0  0
 56 55  1  0  0  0  0
 57 55  1  0  0  0  0
M  END
>  <MODEL>
20

>  <REMARK>
 VINA RESULT:    -7.209      2.983      4.219
 INTER + INTRA:         -10.973
 INTER:                  -9.949
 INTRA:                  -1.024
 UNBOUND:                -0.602
  Name = 
  9 active torsions:
  status: ('A' for Active; 'I' for Inactive)
    1  A    between atoms: C_1  and  C_2
    2  A    between atoms: C_2  and  C_3
    3  A    between atoms: C_2  and  C_10
    4  A    between atoms: C_3  and  C_4
    5  A    between atoms: N_8  and  C_9
    6  A    between atoms: C_14  and  N_15
    7  A    between atoms: C_16  and  C_18
    8  A    between atoms: C_20  and  C_21
    9  A    between atoms: C_26  and  O_27
                            x       y       z     vdW  Elec       q    Type
                         _______ _______ _______ _____ _____    ______ ____

>  <TORSDO>
F 9

$$$$
=
 OpenBabel07192307433D

 58 61  0  0  1  0  0  0  0  0999 V2000
    4.4530    4.6400   17.3050 C   0  0  0  0  0  0  0  0  0  0  0  0
    5.2610    4.6740   16.1630 C   0  0  0  0  0  0  0  0  0  0  0  0
    5.4570    5.8680   15.4690 C   0  0  0  0  0  0  0  0  0  0  0  0
    4.8380    7.0410   15.9030 C   0  0  0  0  0  0  0  0  0  0  0  0
    4.0050    7.0320   17.0250 C   0  0  0  0  0  0  0  0  0  0  0  0
    3.8240    5.8320   17.7200 C   0  0  0  0  0  0  0  0  0  0  0  0
    5.7470    3.7740   15.7920 H   0  0  0  0  0  0  0  0  0  0  0  0
    6.0960    5.8820   14.5890 H   0  0  0  0  0  0  0  0  0  0  0  0
    5.0110    7.9550   15.3410 H   0  0  0  0  0  0  0  0  0  0  0  0
    3.2030    5.7980   18.6110 H   0  0  0  0  0  0  0  0  0  0  0  0
    3.3970    8.2520   17.3870 N   0  0  0  0  0  0  0  0  0  0  0  0
    2.0660    8.4610   17.7250 C   0  0  0  0  0  0  0  0  0  0  0  0
    1.1710    7.6260   17.7350 O   0  0  0  0  0  0  0  0  0  0  0  0
    4.0200    9.0500   17.4390 H   0  0  0  0  0  0  0  0  0  0  0  0
    1.7410    9.8780   18.0760 C   0  0  0  0  0  0  0  0  0  0  0  0
    0.5060   10.1910   18.6180 C   0  0  0  0  0  0  0  0  0  0  0  0
    0.2620   11.5270   18.9240 C   0  0  0  0  0  0  0  0  0  0  0  0
    1.2200   12.5020   18.6540 C   0  0  0  0  0  0  0  0  0  0  0  0
    2.4240   12.0850   18.1170 C   0  0  0  0  0  0  0  0  0  0  0  0
    2.7070   10.7980   17.8300 N   0  0  0  0  0  0  0  0  0  0  0  0
   -0.2420    9.4300   18.8160 H   0  0  0  0  0  0  0  0  0  0  0  0
    1.0320   13.5530   18.8350 H   0  0  0  0  0  0  0  0  0  0  0  0
    3.2150   12.7950   17.8870 H   0  0  0  0  0  0  0  0  0  0  0  0
   -1.0670   11.8850   19.4600 C   0  0  0  0  0  0  0  0  0  0  0  0
   -1.9660   12.0980   18.6520 O   0  0  0  0  0  0  0  0  0  0  0  0
   -1.2420   11.9440   20.8280 N   0  0  0  0  0  0  0  0  0  0  0  0
   -0.3440   11.4500   21.8660 C   0  0  0  0  0  0  0  0  0  0  0  0
   -1.2420   11.2200   23.0710 C   0  0  0  0  0  0  0  0  0  0  0  0
   -2.3310   12.2740   22.8990 C   0  0  1  0  0  0  0  0  0  0  0  0
   -2.5420   12.2780   21.3850 C   0  0  0  0  0  0  0  0  0  0  0  0
    0.3910   12.2340   22.0750 H   0  0  0  0  0  0  0  0  0  0  0  0
    0.1730   10.5410   21.5470 H   0  0  0  0  0  0  0  0  0  0  0  0
   -1.6780   10.2140   23.0420 H   0  0  0  0  0  0  0  0  0  0  0  0
   -0.7090   11.3140   24.0210 H   0  0  0  0  0  0  0  0  0  0  0  0
   -1.9760   13.2490   23.2490 H   0  0  0  0  0  0  0  0  0  0  0  0
   -3.2710   11.5220   21.0700 H   0  0  0  0  0  0  0  0  0  0  0  0
   -2.8780   13.2510   21.0120 H   0  0  0  0  0  0  0  0  0  0  0  0
   -3.4910   11.9050   23.6230 O   0  0  0  0  0  0  0  0  0  0  0  0
   -3.2770   11.1090   24.1410 H   0  0  0  0  0  0  0  0  0  0  0  0
    4.2070    3.3640   18.1020 C   0  0  2  0  0  0  0  0  0  0  0  0
    4.9890    2.6570   17.7870 H   0  0  0  0  0  0  0  0  0  0  0  0
    2.8880    2.6480   17.7770 C   0  0  0  0  0  0  0  0  0  0  0  0
    3.0130    1.5620   17.8570 H   0  0  0  0  0  0  0  0  0  0  0  0
    2.0750    2.9350   18.4500 H   0  0  0  0  0  0  0  0  0  0  0  0
    2.5670    2.8710   16.7530 H   0  0  0  0  0  0  0  0  0  0  0  0
    4.4000    3.5740   19.6190 C   0  0  0  0  0  0  0  0  0  0  0  0
    5.2340    2.9470   19.9590 H   0  0  0  0  0  0  0  0  0  0  0  0
    4.7150    4.6050   19.8150 H   0  0  0  0  0  0  0  0  0  0  0  0
    3.2040    3.2300   20.4420 C   0  0  0  0  0  0  0  0  0  0  0  0
    2.9690    2.0600   21.0060 N   0  0  0  0  0  0  0  0  0  0  0  0
    1.7680    2.1320   21.6700 N   0  0  0  0  0  0  0  0  0  0  0  0
    1.3000    3.3460   21.5080 C   0  0  0  0  0  0  0  0  0  0  0  0
    2.1690    4.0750   20.7550 N   0  0  0  0  0  0  0  0  0  0  0  0
    0.3720    3.7280   21.9060 H   0  0  0  0  0  0  0  0  0  0  0  0
    1.9880    5.4530   20.3880 C   0  0  0  0  0  0  0  0  0  0  0  0
    2.9710    5.9170   20.2890 H   0  0  0  0  0  0  0  0  0  0  0  0
    1.4630    5.5000   19.4300 H   0  0  0  0  0  0  0  0  0  0  0  0
    1.3920    5.9690   21.1420 H   0  0  0  0  0  0  0  0  0  0  0  0
  1  6  1  0  0  0  0
  1 40  1  0  0  0  0
  2  1  2  0  0  0  0
  3  4  2  0  0  0  0
  3  2  1  0  0  0  0
  4  5  1  0  0  0  0
  5 11  1  0  0  0  0
  5  6  2  0  0  0  0
  6 10  1  0  0  0  0
  7  2  1  0  0  0  0
  8  3  1  0  0  0  0
  9  4  1  0  0  0  0
 11 14  1  0  0  0  0
 11 12  1  0  0  0  0
 12 13  2  0  0  0  0
 12 15  1  0  0  0  0
 15 16  1  0  0  0  0
 16 21  1  0  0  0  0
 16 17  2  0  0  0  0
 17 24  1  0  0  0  0
 18 22  1  0  0  0  0
 18 17  1  0  0  0  0
 19 18  2  0  0  0  0
 20 15  2  0  0  0  0
 20 19  1  0  0  0  0
 23 19  1  0  0  0  0
 24 26  1  0  0  0  0
 25 24  2  0  0  0  0
 26 30  1  0  0  0  0
 26 27  1  0  0  0  0
 27 31  1  0  0  0  0
 27 28  1  0  0  0  0
 28 34  1  0  0  0  0
 29 28  1  0  0  0  0
 29 35  1  1  0  0  0
 29 38  1  0  0  0  0
 30 29  1  0  0  0  0
 32 27  1  0  0  0  0
 33 28  1  0  0  0  0
 36 30  1  0  0  0  0
 37 30  1  0  0  0  0
 38 39  1  0  0  0  0
 40 41  1  6  0  0  0
 40 46  1  0  0  0  0
 42 43  1  0  0  0  0
 42 40  1  0  0  0  0
 42 44  1  0  0  0  0
 45 42  1  0  0  0  0
 46 48  1  0  0  0  0
 46 47  1  0  0  0  0
 46 49  1  0  0  0  0
 49 53  1  0  0  0  0
 49 50  2  0  0  0  0
 50 51  1  0  0  0  0
 52 51  2  0  0  0  0
 52 54  1  0  0  0  0
 53 52  1  0  0  0  0
 55 53  1  0  0  0  0
 55 58  1  0  0  0  0
 56 55  1  0  0  0  0
 57 55  1  0  0  0  0
M  END
>  <MODEL>
21

>  <REMARK>
 VINA RESULT:    -7.148      3.256      9.627
 INTER + INTRA:         -10.885
 INTER:                 -10.234
 INTRA:                  -0.651
 UNBOUND:                -0.602
  Name = 
  9 active torsions:
  status: ('A' for Active; 'I' for Inactive)
    1  A    between atoms: C_1  and  C_2
    2  A    between atoms: C_2  and  C_3
    3  A    between atoms: C_2  and  C_10
    4  A    between atoms: C_3  and  C_4
    5  A    between atoms: N_8  and  C_9
    6  A    between atoms: C_14  and  N_15
    7  A    between atoms: C_16  and  C_18
    8  A    between atoms: C_20  and  C_21
    9  A    between atoms: C_26  and  O_27
                            x       y       z     vdW  Elec       q    Type
                         _______ _______ _______ _____ _____    ______ ____

>  <TORSDO>
F 9

$$$$
=
 OpenBabel07192307433D

 58 61  0  0  1  0  0  0  0  0999 V2000
    3.3870    5.1310   18.8570 C   0  0  0  0  0  0  0  0  0  0  0  0
    3.2380    4.1920   19.8840 C   0  0  0  0  0  0  0  0  0  0  0  0
    2.3840    4.4450   20.9580 C   0  0  0  0  0  0  0  0  0  0  0  0
    1.6790    5.6470   21.0230 C   0  0  0  0  0  0  0  0  0  0  0  0
    1.8280    6.6150   20.0260 C   0  0  0  0  0  0  0  0  0  0  0  0
    2.6770    6.3460   18.9480 C   0  0  0  0  0  0  0  0  0  0  0  0
    3.7840    3.2510   19.8680 H   0  0  0  0  0  0  0  0  0  0  0  0
    2.2700    3.7020   21.7430 H   0  0  0  0  0  0  0  0  0  0  0  0
    1.0210    5.8150   21.8730 H   0  0  0  0  0  0  0  0  0  0  0  0
    2.7950    7.0680   18.1440 H   0  0  0  0  0  0  0  0  0  0  0  0
    1.0990    7.8130   20.1750 N   0  0  0  0  0  0  0  0  0  0  0  0
    1.1720    8.7160   21.2270 C   0  0  0  0  0  0  0  0  0  0  0  0
    1.8610    8.6160   22.2360 O   0  0  0  0  0  0  0  0  0  0  0  0
    0.4840    8.0480   19.4050 H   0  0  0  0  0  0  0  0  0  0  0  0
    0.2750    9.9030   21.0780 C   0  0  0  0  0  0  0  0  0  0  0  0
   -0.0640   10.3610   19.8160 C   0  0  0  0  0  0  0  0  0  0  0  0
   -0.9030   11.4700   19.7420 C   0  0  0  0  0  0  0  0  0  0  0  0
   -1.3450   12.1030   20.9020 C   0  0  0  0  0  0  0  0  0  0  0  0
   -0.9540   11.5630   22.1140 C   0  0  0  0  0  0  0  0  0  0  0  0
   -0.1630   10.4770   22.2270 N   0  0  0  0  0  0  0  0  0  0  0  0
    0.2910    9.8720   18.9150 H   0  0  0  0  0  0  0  0  0  0  0  0
   -1.9550   12.9970   20.8680 H   0  0  0  0  0  0  0  0  0  0  0  0
   -1.2680   12.0070   23.0560 H   0  0  0  0  0  0  0  0  0  0  0  0
   -1.2370   11.9990   18.4050 C   0  0  0  0  0  0  0  0  0  0  0  0
   -0.7380   13.0720   18.0790 O   0  0  0  0  0  0  0  0  0  0  0  0
   -2.0680   11.2650   17.5840 N   0  0  0  0  0  0  0  0  0  0  0  0
   -2.4880    9.8780   17.7480 C   0  0  0  0  0  0  0  0  0  0  0  0
   -2.8530    9.4200   16.3440 C   0  0  0  0  0  0  0  0  0  0  0  0
   -3.3490   10.7010   15.6800 C   0  0  1  0  0  0  0  0  0  0  0  0
   -2.4030   11.7530   16.2560 C   0  0  0  0  0  0  0  0  0  0  0  0
   -3.3680    9.8670   18.3990 H   0  0  0  0  0  0  0  0  0  0  0  0
   -1.6950    9.2710   18.1930 H   0  0  0  0  0  0  0  0  0  0  0  0
   -1.9690    9.0370   15.8190 H   0  0  0  0  0  0  0  0  0  0  0  0
   -3.6030    8.6230   16.3390 H   0  0  0  0  0  0  0  0  0  0  0  0
   -4.3860   10.9030   15.9710 H   0  0  0  0  0  0  0  0  0  0  0  0
   -1.4820   11.8440   15.6660 H   0  0  0  0  0  0  0  0  0  0  0  0
   -2.8660   12.7430   16.3190 H   0  0  0  0  0  0  0  0  0  0  0  0
   -3.2670   10.5870   14.2710 O   0  0  0  0  0  0  0  0  0  0  0  0
   -3.8670    9.8720   13.9950 H   0  0  0  0  0  0  0  0  0  0  0  0
    4.3030    4.9040   17.6600 C   0  0  2  0  0  0  0  0  0  0  0  0
    4.2770    5.8380   17.0790 H   0  0  0  0  0  0  0  0  0  0  0  0
    3.8220    3.8270   16.6780 C   0  0  0  0  0  0  0  0  0  0  0  0
    4.5480    3.0070   16.6240 H   0  0  0  0  0  0  0  0  0  0  0  0
    2.8580    3.3950   16.9630 H   0  0  0  0  0  0  0  0  0  0  0  0
    3.7160    4.2420   15.6690 H   0  0  0  0  0  0  0  0  0  0  0  0
    5.7750    4.6980   18.0790 C   0  0  0  0  0  0  0  0  0  0  0  0
    5.8000    4.3400   19.1160 H   0  0  0  0  0  0  0  0  0  0  0  0
    6.2210    3.8930   17.4850 H   0  0  0  0  0  0  0  0  0  0  0  0
    6.6130    5.9300   18.0000 C   0  0  0  0  0  0  0  0  0  0  0  0
    6.4490    6.9170   17.1390 N   0  0  0  0  0  0  0  0  0  0  0  0
    7.4170    7.8630   17.3750 N   0  0  0  0  0  0  0  0  0  0  0  0
    8.1450    7.4410   18.3810 C   0  0  0  0  0  0  0  0  0  0  0  0
    7.6740    6.2380   18.8130 N   0  0  0  0  0  0  0  0  0  0  0  0
    8.9900    7.9540   18.8150 H   0  0  0  0  0  0  0  0  0  0  0  0
    8.2190    5.4850   19.9090 C   0  0  0  0  0  0  0  0  0  0  0  0
    7.4580    5.4090   20.6890 H   0  0  0  0  0  0  0  0  0  0  0  0
    8.4830    4.4840   19.5560 H   0  0  0  0  0  0  0  0  0  0  0  0
    9.1170    5.9710   20.2920 H   0  0  0  0  0  0  0  0  0  0  0  0
  1  6  2  0  0  0  0
  1  2  1  0  0  0  0
  2  3  2  0  0  0  0
  3  4  1  0  0  0  0
  3  8  1  0  0  0  0
  4  9  1  0  0  0  0
  5 11  1  0  0  0  0
  5  4  2  0  0  0  0
  6  5  1  0  0  0  0
  7  2  1  0  0  0  0
 10  6  1  0  0  0  0
 11 12  1  0  0  0  0
 12 13  2  0  0  0  0
 14 11  1  0  0  0  0
 15 12  1  0  0  0  0
 15 20  1  0  0  0  0
 16 15  2  0  0  0  0
 17 16  1  0  0  0  0
 17 18  2  0  0  0  0
 18 19  1  0  0  0  0
 19 20  2  0  0  0  0
 19 23  1  0  0  0  0
 21 16  1  0  0  0  0
 22 18  1  0  0  0  0
 24 17  1  0  0  0  0
 25 24  2  0  0  0  0
 26 27  1  0  0  0  0
 26 24  1  0  0  0  0
 27 32  1  0  0  0  0
 27 31  1  0  0  0  0
 28 27  1  0  0  0  0
 29 35  1  1  0  0  0
 29 30  1  0  0  0  0
 29 28  1  0  0  0  0
 30 37  1  0  0  0  0
 30 26  1  0  0  0  0
 33 28  1  0  0  0  0
 34 28  1  0  0  0  0
 36 30  1  0  0  0  0
 38 29  1  0  0  0  0
 39 38  1  0  0  0  0
 40 41  1  6  0  0  0
 40 46  1  0  0  0  0
 40  1  1  0  0  0  0
 42 44  1  0  0  0  0
 42 40  1  0  0  0  0
 43 42  1  0  0  0  0
 45 42  1  0  0  0  0
 46 47  1  0  0  0  0
 48 46  1  0  0  0  0
 49 46  1  0  0  0  0
 49 53  1  0  0  0  0
 50 51  1  0  0  0  0
 50 49  2  0  0  0  0
 51 52  2  0  0  0  0
 52 53  1  0  0  0  0
 52 54  1  0  0  0  0
 53 55  1  0  0  0  0
 55 58  1  0  0  0  0
 55 56  1  0  0  0  0
 57 55  1  0  0  0  0
M  END
>  <MODEL>
22

>  <REMARK>
 VINA RESULT:    -7.147      2.888      9.132
 INTER + INTRA:         -10.883
 INTER:                 -10.175
 INTRA:                  -0.709
 UNBOUND:                -0.602
  Name = 
  9 active torsions:
  status: ('A' for Active; 'I' for Inactive)
    1  A    between atoms: C_1  and  C_2
    2  A    between atoms: C_2  and  C_3
    3  A    between atoms: C_2  and  C_10
    4  A    between atoms: C_3  and  C_4
    5  A    between atoms: N_8  and  C_9
    6  A    between atoms: C_14  and  N_15
    7  A    between atoms: C_16  and  C_18
    8  A    between atoms: C_20  and  C_21
    9  A    between atoms: C_26  and  O_27
                            x       y       z     vdW  Elec       q    Type
                         _______ _______ _______ _____ _____    ______ ____

>  <TORSDO>
F 9

$$$$
=
 OpenBabel07192307433D

 58 61  0  0  1  0  0  0  0  0999 V2000
    3.4920    5.0160   18.9860 C   0  0  0  0  0  0  0  0  0  0  0  0
    3.0880    4.1810   20.0340 C   0  0  0  0  0  0  0  0  0  0  0  0
    2.1390    4.6150   20.9600 C   0  0  0  0  0  0  0  0  0  0  0  0
    1.5920    5.8940   20.8550 C   0  0  0  0  0  0  0  0  0  0  0  0
    1.9950    6.7590   19.8340 C   0  0  0  0  0  0  0  0  0  0  0  0
    2.9380    6.3110   18.9050 C   0  0  0  0  0  0  0  0  0  0  0  0
    3.5060    3.1830   20.1500 H   0  0  0  0  0  0  0  0  0  0  0  0
    1.8260    3.9520   21.7630 H   0  0  0  0  0  0  0  0  0  0  0  0
    0.8540    6.2020   21.5920 H   0  0  0  0  0  0  0  0  0  0  0  0
    3.2540    6.9500   18.0860 H   0  0  0  0  0  0  0  0  0  0  0  0
    1.4130    8.0440   19.8100 N   0  0  0  0  0  0  0  0  0  0  0  0
    1.1810    8.8830   20.8920 C   0  0  0  0  0  0  0  0  0  0  0  0
    1.4100    8.6420   22.0710 O   0  0  0  0  0  0  0  0  0  0  0  0
    1.1770    8.3970   18.8900 H   0  0  0  0  0  0  0  0  0  0  0  0
    0.5590   10.1930   20.5270 C   0  0  0  0  0  0  0  0  0  0  0  0
    0.3210   11.1430   21.5050 C   0  0  0  0  0  0  0  0  0  0  0  0
   -0.2600   12.3430   21.1030 C   0  0  0  0  0  0  0  0  0  0  0  0
   -0.6140   12.5470   19.7710 C   0  0  0  0  0  0  0  0  0  0  0  0
   -0.3280   11.5380   18.8700 C   0  0  0  0  0  0  0  0  0  0  0  0
    0.2550   10.3720   19.2160 N   0  0  0  0  0  0  0  0  0  0  0  0
    0.5880   10.9750   22.5430 H   0  0  0  0  0  0  0  0  0  0  0  0
   -1.1150   13.4510   19.4450 H   0  0  0  0  0  0  0  0  0  0  0  0
   -0.5760   11.6360   17.8160 H   0  0  0  0  0  0  0  0  0  0  0  0
   -0.5640   13.3490   22.1400 C   0  0  0  0  0  0  0  0  0  0  0  0
    0.2380   14.2650   22.2940 O   0  0  0  0  0  0  0  0  0  0  0  0
   -1.7300   13.2280   22.8670 N   0  0  0  0  0  0  0  0  0  0  0  0
   -2.8700   12.3610   22.5900 C   0  0  0  0  0  0  0  0  0  0  0  0
   -4.0410   13.0350   23.2880 C   0  0  0  0  0  0  0  0  0  0  0  0
   -3.3850   13.7270   24.4790 C   0  0  1  0  0  0  0  0  0  0  0  0
   -2.0630   14.2120   23.8840 C   0  0  0  0  0  0  0  0  0  0  0  0
   -2.6650   11.3830   23.0370 H   0  0  0  0  0  0  0  0  0  0  0  0
   -3.0310   12.2460   21.5150 H   0  0  0  0  0  0  0  0  0  0  0  0
   -4.5100   13.7760   22.6280 H   0  0  0  0  0  0  0  0  0  0  0  0
   -4.8210   12.3280   23.5850 H   0  0  0  0  0  0  0  0  0  0  0  0
   -3.2130   13.0080   25.2880 H   0  0  0  0  0  0  0  0  0  0  0  0
   -2.1630   15.1960   23.4110 H   0  0  0  0  0  0  0  0  0  0  0  0
   -1.2660   14.2720   24.6320 H   0  0  0  0  0  0  0  0  0  0  0  0
   -4.2060   14.7800   24.9480 O   0  0  0  0  0  0  0  0  0  0  0  0
   -4.6440   15.1830   24.1770 H   0  0  0  0  0  0  0  0  0  0  0  0
    4.5230    4.5920   17.9460 C   0  0  2  0  0  0  0  0  0  0  0  0
    4.5510    5.4020   17.2020 H   0  0  0  0  0  0  0  0  0  0  0  0
    4.1440    3.3420   17.1390 C   0  0  0  0  0  0  0  0  0  0  0  0
    5.0200    2.6990   16.9970 H   0  0  0  0  0  0  0  0  0  0  0  0
    3.3720    2.7410   17.6270 H   0  0  0  0  0  0  0  0  0  0  0  0
    3.7730    3.6190   16.1460 H   0  0  0  0  0  0  0  0  0  0  0  0
    5.9460    4.4980   18.5360 C   0  0  0  0  0  0  0  0  0  0  0  0
    5.8700    4.3060   19.6140 H   0  0  0  0  0  0  0  0  0  0  0  0
    6.4620    3.6240   18.1230 H   0  0  0  0  0  0  0  0  0  0  0  0
    6.7700    5.7270   18.3460 C   0  0  0  0  0  0  0  0  0  0  0  0
    7.7810    6.1020   19.1090 N   0  0  0  0  0  0  0  0  0  0  0  0
    8.2770    7.2850   18.6200 N   0  0  0  0  0  0  0  0  0  0  0  0
    7.5700    7.6050   17.5640 C   0  0  0  0  0  0  0  0  0  0  0  0
    6.6190    6.6540   17.3460 N   0  0  0  0  0  0  0  0  0  0  0  0
    7.7060    8.4810   16.9470 H   0  0  0  0  0  0  0  0  0  0  0  0
    5.6710    6.6680   16.2660 C   0  0  0  0  0  0  0  0  0  0  0  0
    5.5300    5.6440   15.9150 H   0  0  0  0  0  0  0  0  0  0  0  0
    4.7200    7.0640   16.6330 H   0  0  0  0  0  0  0  0  0  0  0  0
    6.0290    7.3080   15.4570 H   0  0  0  0  0  0  0  0  0  0  0  0
  1  2  1  0  0  0  0
  2  7  1  0  0  0  0
  2  3  2  0  0  0  0
  3  8  1  0  0  0  0
  4  3  1  0  0  0  0
  4  9  1  0  0  0  0
  5  4  2  0  0  0  0
  6  1  2  0  0  0  0
  6  5  1  0  0  0  0
 10  6  1  0  0  0  0
 11  5  1  0  0  0  0
 11 12  1  0  0  0  0
 12 13  2  0  0  0  0
 14 11  1  0  0  0  0
 15 12  1  0  0  0  0
 15 16  1  0  0  0  0
 16 21  1  0  0  0  0
 17 16  2  0  0  0  0
 17 24  1  0  0  0  0
 18 17  1  0  0  0  0
 19 20  1  0  0  0  0
 19 18  2  0  0  0  0
 20 15  2  0  0  0  0
 22 18  1  0  0  0  0
 23 19  1  0  0  0  0
 24 25  2  0  0  0  0
 24 26  1  0  0  0  0
 26 30  1  0  0  0  0
 27 26  1  0  0  0  0
 27 31  1  0  0  0  0
 27 28  1  0  0  0  0
 28 34  1  0  0  0  0
 28 29  1  0  0  0  0
 29 38  1  0  0  0  0
 29 35  1  1  0  0  0
 30 29  1  0  0  0  0
 30 37  1  0  0  0  0
 32 27  1  0  0  0  0
 33 28  1  0  0  0  0
 36 30  1  0  0  0  0
 39 38  1  0  0  0  0
 40 41  1  6  0  0  0
 40 46  1  0  0  0  0
 40  1  1  0  0  0  0
 42 44  1  0  0  0  0
 42 40  1  0  0  0  0
 43 42  1  0  0  0  0
 45 42  1  0  0  0  0
 46 47  1  0  0  0  0
 48 46  1  0  0  0  0
 49 46  1  0  0  0  0
 49 50  2  0  0  0  0
 51 50  1  0  0  0  0
 52 51  2  0  0  0  0
 53 52  1  0  0  0  0
 53 49  1  0  0  0  0
 54 52  1  0  0  0  0
 55 57  1  0  0  0  0
 55 53  1  0  0  0  0
 56 55  1  0  0  0  0
 58 55  1  0  0  0  0
M  END
>  <MODEL>
23

>  <REMARK>
 VINA RESULT:    -7.129      3.622     10.276
 INTER + INTRA:         -10.857
 INTER:                 -10.753
 INTRA:                  -0.103
 UNBOUND:                -0.602
  Name = 
  9 active torsions:
  status: ('A' for Active; 'I' for Inactive)
    1  A    between atoms: C_1  and  C_2
    2  A    between atoms: C_2  and  C_3
    3  A    between atoms: C_2  and  C_10
    4  A    between atoms: C_3  and  C_4
    5  A    between atoms: N_8  and  C_9
    6  A    between atoms: C_14  and  N_15
    7  A    between atoms: C_16  and  C_18
    8  A    between atoms: C_20  and  C_21
    9  A    between atoms: C_26  and  O_27
                            x       y       z     vdW  Elec       q    Type
                         _______ _______ _______ _____ _____    ______ ____

>  <TORSDO>
F 9

$$$$
=
 OpenBabel07192307433D

 58 61  0  0  1  0  0  0  0  0999 V2000
    0.4510   10.4950   20.4090 C   0  0  0  0  0  0  0  0  0  0  0  0
   -0.1350   10.8580   19.1910 C   0  0  0  0  0  0  0  0  0  0  0  0
    0.0600   10.0780   18.0510 C   0  0  0  0  0  0  0  0  0  0  0  0
    0.8530    8.9320   18.1140 C   0  0  0  0  0  0  0  0  0  0  0  0
    1.4730    8.5600   19.3100 C   0  0  0  0  0  0  0  0  0  0  0  0
    1.2620    9.3420   20.4490 C   0  0  0  0  0  0  0  0  0  0  0  0
   -0.7490   11.7520   19.1070 H   0  0  0  0  0  0  0  0  0  0  0  0
   -0.4110   10.3650   17.1140 H   0  0  0  0  0  0  0  0  0  0  0  0
    0.9850    8.3440   17.2080 H   0  0  0  0  0  0  0  0  0  0  0  0
    1.7090    9.0650   21.4000 H   0  0  0  0  0  0  0  0  0  0  0  0
    2.2780    7.4020   19.2870 N   0  0  0  0  0  0  0  0  0  0  0  0
    2.0910    6.2320   20.0110 C   0  0  0  0  0  0  0  0  0  0  0  0
    1.2080    6.0090   20.8310 O   0  0  0  0  0  0  0  0  0  0  0  0
    3.0560    7.4260   18.6370 H   0  0  0  0  0  0  0  0  0  0  0  0
    3.1190    5.1790   19.7480 C   0  0  0  0  0  0  0  0  0  0  0  0
    4.2270    5.4710   18.9720 C   0  0  0  0  0  0  0  0  0  0  0  0
    5.1490    4.4490   18.7620 C   0  0  0  0  0  0  0  0  0  0  0  0
    4.9300    3.1780   19.2900 C   0  0  0  0  0  0  0  0  0  0  0  0
    3.7950    2.9910   20.0570 C   0  0  0  0  0  0  0  0  0  0  0  0
    2.8910    3.9620   20.3030 N   0  0  0  0  0  0  0  0  0  0  0  0
    4.3880    6.4590   18.5520 H   0  0  0  0  0  0  0  0  0  0  0  0
    5.6060    2.3550   19.0970 H   0  0  0  0  0  0  0  0  0  0  0  0
    3.5680    2.0250   20.5010 H   0  0  0  0  0  0  0  0  0  0  0  0
    6.3130    4.7300   17.8980 C   0  0  0  0  0  0  0  0  0  0  0  0
    7.4030    4.8710   18.4440 O   0  0  0  0  0  0  0  0  0  0  0  0
    6.1300    4.8000   16.5320 N   0  0  0  0  0  0  0  0  0  0  0  0
    4.9620    4.3830   15.7650 C   0  0  0  0  0  0  0  0  0  0  0  0
    5.4990    4.1150   14.3670 C   0  0  0  0  0  0  0  0  0  0  0  0
    6.6630    5.0940   14.2490 C   0  0  1  0  0  0  0  0  0  0  0  0
    7.2600    5.0600   15.6550 C   0  0  0  0  0  0  0  0  0  0  0  0
    4.2520    5.2150   15.7530 H   0  0  0  0  0  0  0  0  0  0  0  0
    4.4880    3.5030   16.2070 H   0  0  0  0  0  0  0  0  0  0  0  0
    5.8610    3.0830   14.2820 H   0  0  0  0  0  0  0  0  0  0  0  0
    4.7450    4.2590   13.5880 H   0  0  0  0  0  0  0  0  0  0  0  0
    6.2940    6.0960   14.0030 H   0  0  0  0  0  0  0  0  0  0  0  0
    7.9940    4.2540   15.7700 H   0  0  0  0  0  0  0  0  0  0  0  0
    7.7450    6.0030   15.9270 H   0  0  0  0  0  0  0  0  0  0  0  0
    7.5670    4.6640   13.2480 O   0  0  0  0  0  0  0  0  0  0  0  0
    7.5750    3.6910   13.2520 H   0  0  0  0  0  0  0  0  0  0  0  0
    0.2690   11.3100   21.6850 C   0  0  2  0  0  0  0  0  0  0  0  0
    1.2270   11.2470   22.2220 H   0  0  0  0  0  0  0  0  0  0  0  0
   -0.7620   10.7400   22.6690 C   0  0  0  0  0  0  0  0  0  0  0  0
   -1.4120   11.5380   23.0460 H   0  0  0  0  0  0  0  0  0  0  0  0
   -1.4040    9.9790   22.2160 H   0  0  0  0  0  0  0  0  0  0  0  0
   -0.2630   10.2840   23.5320 H   0  0  0  0  0  0  0  0  0  0  0  0
    0.0350   12.8080   21.3950 C   0  0  0  0  0  0  0  0  0  0  0  0
   -0.8700   12.9120   20.7840 H   0  0  0  0  0  0  0  0  0  0  0  0
   -0.1840   13.3370   22.3300 H   0  0  0  0  0  0  0  0  0  0  0  0
    1.1560   13.4750   20.6710 C   0  0  0  0  0  0  0  0  0  0  0  0
    2.4390   13.3470   20.9550 N   0  0  0  0  0  0  0  0  0  0  0  0
    3.1570   14.1180   20.0730 N   0  0  0  0  0  0  0  0  0  0  0  0
    2.3010   14.6920   19.2630 C   0  0  0  0  0  0  0  0  0  0  0  0
    1.0350   14.3120   19.5910 N   0  0  0  0  0  0  0  0  0  0  0  0
    2.5440   15.3640   18.4520 H   0  0  0  0  0  0  0  0  0  0  0  0
   -0.1560   14.7350   18.9070 C   0  0  0  0  0  0  0  0  0  0  0  0
    0.0700   14.8300   17.8430 H   0  0  0  0  0  0  0  0  0  0  0  0
   -0.9350   13.9800   19.0490 H   0  0  0  0  0  0  0  0  0  0  0  0
   -0.5080   15.6840   19.3140 H   0  0  0  0  0  0  0  0  0  0  0  0
  1  6  1  0  0  0  0
  1 40  1  0  0  0  0
  2  1  2  0  0  0  0
  3  4  2  0  0  0  0
  3  2  1  0  0  0  0
  4  5  1  0  0  0  0
  5  6  2  0  0  0  0
  6 10  1  0  0  0  0
  7  2  1  0  0  0  0
  8  3  1  0  0  0  0
  9  4  1  0  0  0  0
 11  5  1  0  0  0  0
 11 12  1  0  0  0  0
 12 13  2  0  0  0  0
 14 11  1  0  0  0  0
 15 12  1  0  0  0  0
 15 20  1  0  0  0  0
 16 15  2  0  0  0  0
 17 16  1  0  0  0  0
 17 18  2  0  0  0  0
 18 19  1  0  0  0  0
 19 20  2  0  0  0  0
 19 23  1  0  0  0  0
 21 16  1  0  0  0  0
 22 18  1  0  0  0  0
 24 25  2  0  0  0  0
 24 17  1  0  0  0  0
 26 24  1  0  0  0  0
 27 32  1  0  0  0  0
 27 26  1  0  0  0  0
 28 27  1  0  0  0  0
 29 35  1  6  0  0  0
 29 28  1  0  0  0  0
 29 30  1  0  0  0  0
 30 36  1  0  0  0  0
 30 37  1  0  0  0  0
 30 26  1  0  0  0  0
 31 27  1  0  0  0  0
 33 28  1  0  0  0  0
 34 28  1  0  0  0  0
 38 39  1  0  0  0  0
 38 29  1  0  0  0  0
 40 41  1  1  0  0  0
 40 42  1  0  0  0  0
 42 43  1  0  0  0  0
 42 45  1  0  0  0  0
 44 42  1  0  0  0  0
 46 40  1  0  0  0  0
 46 48  1  0  0  0  0
 47 46  1  0  0  0  0
 49 50  2  0  0  0  0
 49 46  1  0  0  0  0
 51 50  1  0  0  0  0
 52 53  1  0  0  0  0
 52 51  2  0  0  0  0
 53 49  1  0  0  0  0
 54 52  1  0  0  0  0
 55 57  1  0  0  0  0
 55 58  1  0  0  0  0
 55 53  1  0  0  0  0
 56 55  1  0  0  0  0
M  END
>  <MODEL>
24

>  <REMARK>
 VINA RESULT:    -7.044      2.577      3.554
 INTER + INTRA:         -10.735
 INTER:                  -9.976
 INTRA:                  -0.759
 UNBOUND:                -0.602
  Name = 
  9 active torsions:
  status: ('A' for Active; 'I' for Inactive)
    1  A    between atoms: C_1  and  C_2
    2  A    between atoms: C_2  and  C_3
    3  A    between atoms: C_2  and  C_10
    4  A    between atoms: C_3  and  C_4
    5  A    between atoms: N_8  and  C_9
    6  A    between atoms: C_14  and  N_15
    7  A    between atoms: C_16  and  C_18
    8  A    between atoms: C_20  and  C_21
    9  A    between atoms: C_26  and  O_27
                            x       y       z     vdW  Elec       q    Type
                         _______ _______ _______ _____ _____    ______ ____

>  <TORSDO>
F 9

$$$$
=
 OpenBabel07192307433D

 58 61  0  0  1  0  0  0  0  0999 V2000
    4.0160    4.9050   17.4490 C   0  0  0  0  0  0  0  0  0  0  0  0
    4.8260    5.5820   16.5290 C   0  0  0  0  0  0  0  0  0  0  0  0
    4.8020    6.9740   16.4530 C   0  0  0  0  0  0  0  0  0  0  0  0
    3.9590    7.7070   17.2890 C   0  0  0  0  0  0  0  0  0  0  0  0
    3.1210    7.0580   18.2000 C   0  0  0  0  0  0  0  0  0  0  0  0
    3.1610    5.6630   18.2760 C   0  0  0  0  0  0  0  0  0  0  0  0
    5.4840    5.0370   15.8540 H   0  0  0  0  0  0  0  0  0  0  0  0
    5.4440    7.4870   15.7410 H   0  0  0  0  0  0  0  0  0  0  0  0
    3.9640    8.7910   17.2070 H   0  0  0  0  0  0  0  0  0  0  0  0
    2.5400    5.1300   18.9910 H   0  0  0  0  0  0  0  0  0  0  0  0
    2.2810    7.8670   18.9940 N   0  0  0  0  0  0  0  0  0  0  0  0
    1.7980    7.5850   20.2640 C   0  0  0  0  0  0  0  0  0  0  0  0
    1.9860    6.5620   20.9120 O   0  0  0  0  0  0  0  0  0  0  0  0
    2.0420    8.7680   18.5960 H   0  0  0  0  0  0  0  0  0  0  0  0
    0.9390    8.6630   20.8450 C   0  0  0  0  0  0  0  0  0  0  0  0
    0.2680    9.5390   20.0090 C   0  0  0  0  0  0  0  0  0  0  0  0
   -0.5170   10.5210   20.6090 C   0  0  0  0  0  0  0  0  0  0  0  0
   -0.5820   10.6250   21.9970 C   0  0  0  0  0  0  0  0  0  0  0  0
    0.1200    9.6970   22.7430 C   0  0  0  0  0  0  0  0  0  0  0  0
    0.8710    8.7170   22.1990 N   0  0  0  0  0  0  0  0  0  0  0  0
    0.3310    9.4620   18.9280 H   0  0  0  0  0  0  0  0  0  0  0  0
   -1.1440   11.4130   22.4840 H   0  0  0  0  0  0  0  0  0  0  0  0
    0.1070    9.7200   23.8290 H   0  0  0  0  0  0  0  0  0  0  0  0
   -1.2020   11.4930   19.7330 C   0  0  0  0  0  0  0  0  0  0  0  0
   -1.0950   12.6830   20.0140 O   0  0  0  0  0  0  0  0  0  0  0  0
   -1.9050   11.0290   18.6410 N   0  0  0  0  0  0  0  0  0  0  0  0
   -1.8720    9.6910   18.0600 C   0  0  0  0  0  0  0  0  0  0  0  0
   -2.3110    9.8900   16.6180 C   0  0  0  0  0  0  0  0  0  0  0  0
   -3.2580   11.0830   16.7040 C   0  0  1  0  0  0  0  0  0  0  0  0
   -2.5770   11.9620   17.7530 C   0  0  0  0  0  0  0  0  0  0  0  0
   -2.5930    9.0700   18.6020 H   0  0  0  0  0  0  0  0  0  0  0  0
   -0.8760    9.2470   18.1380 H   0  0  0  0  0  0  0  0  0  0  0  0
   -1.4510   10.1330   15.9810 H   0  0  0  0  0  0  0  0  0  0  0  0
   -2.7880    9.0020   16.1930 H   0  0  0  0  0  0  0  0  0  0  0  0
   -4.2480   10.7590   17.0460 H   0  0  0  0  0  0  0  0  0  0  0  0
   -1.8310   12.6300   17.3060 H   0  0  0  0  0  0  0  0  0  0  0  0
   -3.2910   12.5750   18.3120 H   0  0  0  0  0  0  0  0  0  0  0  0
   -3.3760   11.7100   15.4400 O   0  0  0  0  0  0  0  0  0  0  0  0
   -3.0210   12.6130   15.5220 H   0  0  0  0  0  0  0  0  0  0  0  0
    4.0050    3.3870   17.5760 C   0  0  2  0  0  0  0  0  0  0  0  0
    4.6290    3.1530   18.4510 H   0  0  0  0  0  0  0  0  0  0  0  0
    4.6770    2.6400   16.4150 C   0  0  0  0  0  0  0  0  0  0  0  0
    4.2390    1.6430   16.2960 H   0  0  0  0  0  0  0  0  0  0  0  0
    4.5710    3.1610   15.4590 H   0  0  0  0  0  0  0  0  0  0  0  0
    5.7490    2.5100   16.6060 H   0  0  0  0  0  0  0  0  0  0  0  0
    2.5980    2.8340   17.8880 C   0  0  0  0  0  0  0  0  0  0  0  0
    1.8540    3.4440   17.3600 H   0  0  0  0  0  0  0  0  0  0  0  0
    2.4940    1.8260   17.4720 H   0  0  0  0  0  0  0  0  0  0  0  0
    2.2470    2.8380   19.3390 C   0  0  0  0  0  0  0  0  0  0  0  0
    1.0600    3.1210   19.8420 N   0  0  0  0  0  0  0  0  0  0  0  0
    1.1360    3.0260   21.2110 N   0  0  0  0  0  0  0  0  0  0  0  0
    2.3620    2.6750   21.5150 C   0  0  0  0  0  0  0  0  0  0  0  0
    3.0940    2.5360   20.3750 N   0  0  0  0  0  0  0  0  0  0  0  0
    2.7500    2.5150   22.5100 H   0  0  0  0  0  0  0  0  0  0  0  0
    4.4770    2.1470   20.3250 C   0  0  0  0  0  0  0  0  0  0  0  0
    4.6490    1.5990   19.3960 H   0  0  0  0  0  0  0  0  0  0  0  0
    5.1000    3.0450   20.3420 H   0  0  0  0  0  0  0  0  0  0  0  0
    4.7270    1.5290   21.1890 H   0  0  0  0  0  0  0  0  0  0  0  0
  1 40  1  0  0  0  0
  1  6  1  0  0  0  0
  2  1  2  0  0  0  0
  3  2  1  0  0  0  0
  3  4  2  0  0  0  0
  4  5  1  0  0  0  0
  5  6  2  0  0  0  0
  5 11  1  0  0  0  0
  6 10  1  0  0  0  0
  7  2  1  0  0  0  0
  8  3  1  0  0  0  0
  9  4  1  0  0  0  0
 11 12  1  0  0  0  0
 12 15  1  0  0  0  0
 12 13  2  0  0  0  0
 14 11  1  0  0  0  0
 15 20  1  0  0  0  0
 16 17  1  0  0  0  0
 16 15  2  0  0  0  0
 17 18  2  0  0  0  0
 18 22  1  0  0  0  0
 18 19  1  0  0  0  0
 19 23  1  0  0  0  0
 20 19  2  0  0  0  0
 21 16  1  0  0  0  0
 24 25  2  0  0  0  0
 24 17  1  0  0  0  0
 26 24  1  0  0  0  0
 27 32  1  0  0  0  0
 27 31  1  0  0  0  0
 27 26  1  0  0  0  0
 28 29  1  0  0  0  0
 28 27  1  0  0  0  0
 29 35  1  1  0  0  0
 29 30  1  0  0  0  0
 30 37  1  0  0  0  0
 30 26  1  0  0  0  0
 33 28  1  0  0  0  0
 34 28  1  0  0  0  0
 36 30  1  0  0  0  0
 38 39  1  0  0  0  0
 38 29  1  0  0  0  0
 40 46  1  0  0  0  0
 40 41  1  1  0  0  0
 42 45  1  0  0  0  0
 42 40  1  0  0  0  0
 43 42  1  0  0  0  0
 44 42  1  0  0  0  0
 46 49  1  0  0  0  0
 47 46  1  0  0  0  0
 48 46  1  0  0  0  0
 49 50  2  0  0  0  0
 49 53  1  0  0  0  0
 50 51  1  0  0  0  0
 51 52  2  0  0  0  0
 52 54  1  0  0  0  0
 53 52  1  0  0  0  0
 55 57  1  0  0  0  0
 55 53  1  0  0  0  0
 55 58  1  0  0  0  0
 56 55  1  0  0  0  0
M  END
>  <MODEL>
25

>  <REMARK>
 VINA RESULT:    -7.037      2.693      8.912
 INTER + INTRA:         -10.725
 INTER:                 -11.089
 INTRA:                   0.364
 UNBOUND:                -0.602
  Name = 
  9 active torsions:
  status: ('A' for Active; 'I' for Inactive)
    1  A    between atoms: C_1  and  C_2
    2  A    between atoms: C_2  and  C_3
    3  A    between atoms: C_2  and  C_10
    4  A    between atoms: C_3  and  C_4
    5  A    between atoms: N_8  and  C_9
    6  A    between atoms: C_14  and  N_15
    7  A    between atoms: C_16  and  C_18
    8  A    between atoms: C_20  and  C_21
    9  A    between atoms: C_26  and  O_27
                            x       y       z     vdW  Elec       q    Type
                         _______ _______ _______ _____ _____    ______ ____

>  <TORSDO>
F 9

$$$$
=
 OpenBabel07192307433D

 58 61  0  0  1  0  0  0  0  0999 V2000
    2.8140    3.5180   18.9960 C   0  0  0  0  0  0  0  0  0  0  0  0
    2.9880    2.5660   20.0070 C   0  0  0  0  0  0  0  0  0  0  0  0
    2.6210    2.8530   21.3210 C   0  0  0  0  0  0  0  0  0  0  0  0
    2.0860    4.1010   21.6430 C   0  0  0  0  0  0  0  0  0  0  0  0
    1.9250    5.0810   20.6590 C   0  0  0  0  0  0  0  0  0  0  0  0
    2.2850    4.7790   19.3430 C   0  0  0  0  0  0  0  0  0  0  0  0
    3.4140    1.5880   19.7900 H   0  0  0  0  0  0  0  0  0  0  0  0
    2.7510    2.1000   22.0950 H   0  0  0  0  0  0  0  0  0  0  0  0
    1.8090    4.2940   22.6760 H   0  0  0  0  0  0  0  0  0  0  0  0
    2.1490    5.5100   18.5510 H   0  0  0  0  0  0  0  0  0  0  0  0
    1.4000    6.3240   21.0670 N   0  0  0  0  0  0  0  0  0  0  0  0
    1.5660    7.5530   20.4440 C   0  0  0  0  0  0  0  0  0  0  0  0
    2.2320    7.7850   19.4420 O   0  0  0  0  0  0  0  0  0  0  0  0
    0.8050    6.2970   21.8880 H   0  0  0  0  0  0  0  0  0  0  0  0
    0.8630    8.6840   21.1240 C   0  0  0  0  0  0  0  0  0  0  0  0
    0.3200    9.7130   20.3740 C   0  0  0  0  0  0  0  0  0  0  0  0
   -0.3220   10.7390   21.0640 C   0  0  0  0  0  0  0  0  0  0  0  0
   -0.3750   10.7290   22.4570 C   0  0  0  0  0  0  0  0  0  0  0  0
    0.1920    9.6520   23.1120 C   0  0  0  0  0  0  0  0  0  0  0  0
    0.8020    8.6290   22.4780 N   0  0  0  0  0  0  0  0  0  0  0  0
    0.3740    9.7230   19.2900 H   0  0  0  0  0  0  0  0  0  0  0  0
   -0.8230   11.5410   23.0160 H   0  0  0  0  0  0  0  0  0  0  0  0
    0.1810    9.5830   24.1970 H   0  0  0  0  0  0  0  0  0  0  0  0
   -0.8660   11.8670   20.2830 C   0  0  0  0  0  0  0  0  0  0  0  0
   -0.3650   12.0910   19.1860 O   0  0  0  0  0  0  0  0  0  0  0  0
   -1.9140   12.5980   20.8050 N   0  0  0  0  0  0  0  0  0  0  0  0
   -2.7570   12.2610   21.9470 C   0  0  0  0  0  0  0  0  0  0  0  0
   -4.0450   13.0340   21.7120 C   0  0  0  0  0  0  0  0  0  0  0  0
   -3.5740   14.2730   20.9570 C   0  0  1  0  0  0  0  0  0  0  0  0
   -2.4800   13.7050   20.0530 C   0  0  0  0  0  0  0  0  0  0  0  0
   -2.2540   12.6130   22.8530 H   0  0  0  0  0  0  0  0  0  0  0  0
   -2.9210   11.1820   22.0160 H   0  0  0  0  0  0  0  0  0  0  0  0
   -4.7390   12.4520   21.0930 H   0  0  0  0  0  0  0  0  0  0  0  0
   -4.5680   13.2780   22.6410 H   0  0  0  0  0  0  0  0  0  0  0  0
   -3.1630   15.0110   21.6550 H   0  0  0  0  0  0  0  0  0  0  0  0
   -2.8850   13.3250   19.1080 H   0  0  0  0  0  0  0  0  0  0  0  0
   -1.7060   14.4430   19.8190 H   0  0  0  0  0  0  0  0  0  0  0  0
   -4.6490   14.8480   20.2380 O   0  0  0  0  0  0  0  0  0  0  0  0
   -4.2790   15.2990   19.4580 H   0  0  0  0  0  0  0  0  0  0  0  0
    3.1950    3.2560   17.5440 C   0  0  2  0  0  0  0  0  0  0  0  0
    2.2470    3.1200   17.0030 H   0  0  0  0  0  0  0  0  0  0  0  0
    3.9640    1.9480   17.3070 C   0  0  0  0  0  0  0  0  0  0  0  0
    3.3230    1.2140   16.8050 H   0  0  0  0  0  0  0  0  0  0  0  0
    4.8530    2.0870   16.6860 H   0  0  0  0  0  0  0  0  0  0  0  0
    4.2870    1.5110   18.2590 H   0  0  0  0  0  0  0  0  0  0  0  0
    3.8920    4.4700   16.8920 C   0  0  0  0  0  0  0  0  0  0  0  0
    3.7300    4.4300   15.8070 H   0  0  0  0  0  0  0  0  0  0  0  0
    3.4110    5.3960   17.2230 H   0  0  0  0  0  0  0  0  0  0  0  0
    5.3640    4.5330   17.1330 C   0  0  0  0  0  0  0  0  0  0  0  0
    5.9430    4.7940   18.2900 N   0  0  0  0  0  0  0  0  0  0  0  0
    7.3040    4.7710   18.1080 N   0  0  0  0  0  0  0  0  0  0  0  0
    7.5300    4.4860   16.8490 C   0  0  0  0  0  0  0  0  0  0  0  0
    6.3450    4.3180   16.1990 N   0  0  0  0  0  0  0  0  0  0  0  0
    8.4990    4.3920   16.3810 H   0  0  0  0  0  0  0  0  0  0  0  0
    6.2070    3.9830   14.8080 C   0  0  0  0  0  0  0  0  0  0  0  0
    7.0640    3.3740   14.5110 H   0  0  0  0  0  0  0  0  0  0  0  0
    5.2860    3.4100   14.6690 H   0  0  0  0  0  0  0  0  0  0  0  0
    6.1510    4.8900   14.2050 H   0  0  0  0  0  0  0  0  0  0  0  0
  1  6  2  0  0  0  0
  1  2  1  0  0  0  0
  2  3  2  0  0  0  0
  3  4  1  0  0  0  0
  3  8  1  0  0  0  0
  4  9  1  0  0  0  0
  5 11  1  0  0  0  0
  5  4  2  0  0  0  0
  6  5  1  0  0  0  0
  7  2  1  0  0  0  0
 10  6  1  0  0  0  0
 11 14  1  0  0  0  0
 12 11  1  0  0  0  0
 12 15  1  0  0  0  0
 13 12  2  0  0  0  0
 15 20  1  0  0  0  0
 16 17  1  0  0  0  0
 16 15  2  0  0  0  0
 17 18  2  0  0  0  0
 18 22  1  0  0  0  0
 18 19  1  0  0  0  0
 19 23  1  0  0  0  0
 20 19  2  0  0  0  0
 21 16  1  0  0  0  0
 24 26  1  0  0  0  0
 24 17  1  0  0  0  0
 25 24  2  0  0  0  0
 26 27  1  0  0  0  0
 27 32  1  0  0  0  0
 27 31  1  0  0  0  0
 28 27  1  0  0  0  0
 28 34  1  0  0  0  0
 29 35  1  1  0  0  0
 29 28  1  0  0  0  0
 30 26  1  0  0  0  0
 30 29  1  0  0  0  0
 33 28  1  0  0  0  0
 36 30  1  0  0  0  0
 37 30  1  0  0  0  0
 38 29  1  0  0  0  0
 39 38  1  0  0  0  0
 40 41  1  6  0  0  0
 40  1  1  0  0  0  0
 42 40  1  0  0  0  0
 42 45  1  0  0  0  0
 43 42  1  0  0  0  0
 44 42  1  0  0  0  0
 46 49  1  0  0  0  0
 46 48  1  0  0  0  0
 46 40  1  0  0  0  0
 47 46  1  0  0  0  0
 49 50  2  0  0  0  0
 51 50  1  0  0  0  0
 52 51  2  0  0  0  0
 53 52  1  0  0  0  0
 53 49  1  0  0  0  0
 54 52  1  0  0  0  0
 55 53  1  0  0  0  0
 56 55  1  0  0  0  0
 57 55  1  0  0  0  0
 58 55  1  0  0  0  0
M  END
>  <MODEL>
26

>  <REMARK>
 VINA RESULT:    -6.949      3.108      9.872
 INTER + INTRA:         -10.599
 INTER:                 -10.547
 INTRA:                  -0.051
 UNBOUND:                -0.602
  Name = 
  9 active torsions:
  status: ('A' for Active; 'I' for Inactive)
    1  A    between atoms: C_1  and  C_2
    2  A    between atoms: C_2  and  C_3
    3  A    between atoms: C_2  and  C_10
    4  A    between atoms: C_3  and  C_4
    5  A    between atoms: N_8  and  C_9
    6  A    between atoms: C_14  and  N_15
    7  A    between atoms: C_16  and  C_18
    8  A    between atoms: C_20  and  C_21
    9  A    between atoms: C_26  and  O_27
                            x       y       z     vdW  Elec       q    Type
                         _______ _______ _______ _____ _____    ______ ____

>  <TORSDO>
F 9

$$$$
=
 OpenBabel07192307433D

 58 61  0  0  1  0  0  0  0  0999 V2000
    3.3360    5.6700   18.9420 C   0  0  0  0  0  0  0  0  0  0  0  0
    3.0130    4.9370   20.0900 C   0  0  0  0  0  0  0  0  0  0  0  0
    2.1640    5.4730   21.0570 C   0  0  0  0  0  0  0  0  0  0  0  0
    1.6360    6.7540   20.8940 C   0  0  0  0  0  0  0  0  0  0  0  0
    1.9620    7.5200   19.7700 C   0  0  0  0  0  0  0  0  0  0  0  0
    2.8050    6.9690   18.8010 C   0  0  0  0  0  0  0  0  0  0  0  0
    3.4190    3.9400   20.2520 H   0  0  0  0  0  0  0  0  0  0  0  0
    1.9130    4.8890   21.9390 H   0  0  0  0  0  0  0  0  0  0  0  0
    0.9760    7.1440   21.6650 H   0  0  0  0  0  0  0  0  0  0  0  0
    3.0560    7.5290   17.9050 H   0  0  0  0  0  0  0  0  0  0  0  0
    1.4070    8.8140   19.6890 N   0  0  0  0  0  0  0  0  0  0  0  0
    1.2410    9.5880   18.5480 C   0  0  0  0  0  0  0  0  0  0  0  0
    1.5810    9.2980   17.4080 O   0  0  0  0  0  0  0  0  0  0  0  0
    1.0600    9.1950   20.5620 H   0  0  0  0  0  0  0  0  0  0  0  0
    0.6030   10.9170   18.7990 C   0  0  0  0  0  0  0  0  0  0  0  0
   -0.6910   10.9840   19.2850 C   0  0  0  0  0  0  0  0  0  0  0  0
   -1.2310   12.2500   19.4980 C   0  0  0  0  0  0  0  0  0  0  0  0
   -0.4950   13.3930   19.1930 C   0  0  0  0  0  0  0  0  0  0  0  0
    0.7920   13.2190   18.7180 C   0  0  0  0  0  0  0  0  0  0  0  0
    1.3580   12.0110   18.5220 N   0  0  0  0  0  0  0  0  0  0  0  0
   -1.2650   10.0900   19.5090 H   0  0  0  0  0  0  0  0  0  0  0  0
   -0.9130   14.3870   19.3010 H   0  0  0  0  0  0  0  0  0  0  0  0
    1.4200   14.0700   18.4660 H   0  0  0  0  0  0  0  0  0  0  0  0
   -2.6260   12.3390   19.9710 C   0  0  0  0  0  0  0  0  0  0  0  0
   -3.5170   12.2230   19.1360 O   0  0  0  0  0  0  0  0  0  0  0  0
   -2.8640   12.5270   21.3170 N   0  0  0  0  0  0  0  0  0  0  0  0
   -1.9150   12.4030   22.4180 C   0  0  0  0  0  0  0  0  0  0  0  0
   -2.7790   12.1160   23.6370 C   0  0  0  0  0  0  0  0  0  0  0  0
   -4.0820   12.8420   23.3180 C   0  0  1  0  0  0  0  0  0  0  0  0
   -4.2280   12.6030   21.8160 C   0  0  0  0  0  0  0  0  0  0  0  0
   -1.3990   13.3620   22.5280 H   0  0  0  0  0  0  0  0  0  0  0  0
   -1.1840   11.6130   22.2270 H   0  0  0  0  0  0  0  0  0  0  0  0
   -2.9600   11.0380   23.7380 H   0  0  0  0  0  0  0  0  0  0  0  0
   -2.3220   12.4560   24.5700 H   0  0  0  0  0  0  0  0  0  0  0  0
   -3.9840   13.9110   23.5380 H   0  0  0  0  0  0  0  0  0  0  0  0
   -4.7410   11.6590   21.5980 H   0  0  0  0  0  0  0  0  0  0  0  0
   -4.7720   13.4100   21.3150 H   0  0  0  0  0  0  0  0  0  0  0  0
   -5.1460   12.2980   24.0760 O   0  0  0  0  0  0  0  0  0  0  0  0
   -5.1980   11.3470   23.8760 H   0  0  0  0  0  0  0  0  0  0  0  0
    4.2570    5.1320   17.8530 C   0  0  2  0  0  0  0  0  0  0  0  0
    5.0840    4.6310   18.3780 H   0  0  0  0  0  0  0  0  0  0  0  0
    4.9400    6.2080   16.9980 C   0  0  0  0  0  0  0  0  0  0  0  0
    4.1940    6.8930   16.5780 H   0  0  0  0  0  0  0  0  0  0  0  0
    5.6550    6.8090   17.5670 H   0  0  0  0  0  0  0  0  0  0  0  0
    5.4800    5.7530   16.1600 H   0  0  0  0  0  0  0  0  0  0  0  0
    3.5740    4.0470   16.9920 C   0  0  0  0  0  0  0  0  0  0  0  0
    3.1100    4.5280   16.1210 H   0  0  0  0  0  0  0  0  0  0  0  0
    4.3310    3.3700   16.5790 H   0  0  0  0  0  0  0  0  0  0  0  0
    2.5170    3.2730   17.7060 C   0  0  0  0  0  0  0  0  0  0  0  0
    1.2450    3.6130   17.7980 N   0  0  0  0  0  0  0  0  0  0  0  0
    0.5940    2.6560   18.5380 N   0  0  0  0  0  0  0  0  0  0  0  0
    1.4760    1.7470   18.8730 C   0  0  0  0  0  0  0  0  0  0  0  0
    2.6950    2.0840   18.3660 N   0  0  0  0  0  0  0  0  0  0  0  0
    1.2860    0.8590   19.4570 H   0  0  0  0  0  0  0  0  0  0  0  0
    3.8960    1.3100   18.5230 C   0  0  0  0  0  0  0  0  0  0  0  0
    4.7220    1.8570   18.0630 H   0  0  0  0  0  0  0  0  0  0  0  0
    4.0950    1.1750   19.5900 H   0  0  0  0  0  0  0  0  0  0  0  0
    3.7770    0.3290   18.0610 H   0  0  0  0  0  0  0  0  0  0  0  0
  1  2  1  0  0  0  0
  2  7  1  0  0  0  0
  2  3  2  0  0  0  0
  3  8  1  0  0  0  0
  4  3  1  0  0  0  0
  4  9  1  0  0  0  0
  5  4  2  0  0  0  0
  6  1  2  0  0  0  0
  6  5  1  0  0  0  0
 10  6  1  0  0  0  0
 11  5  1  0  0  0  0
 11 14  1  0  0  0  0
 12 15  1  0  0  0  0
 12 11  1  0  0  0  0
 13 12  2  0  0  0  0
 15 16  1  0  0  0  0
 16 17  2  0  0  0  0
 16 21  1  0  0  0  0
 17 24  1  0  0  0  0
 18 22  1  0  0  0  0
 18 17  1  0  0  0  0
 19 18  2  0  0  0  0
 20 19  1  0  0  0  0
 20 15  2  0  0  0  0
 23 19  1  0  0  0  0
 24 26  1  0  0  0  0
 25 24  2  0  0  0  0
 26 30  1  0  0  0  0
 26 27  1  0  0  0  0
 27 31  1  0  0  0  0
 27 28  1  0  0  0  0
 28 33  1  0  0  0  0
 28 34  1  0  0  0  0
 29 35  1  1  0  0  0
 29 28  1  0  0  0  0
 29 38  1  0  0  0  0
 30 29  1  0  0  0  0
 32 27  1  0  0  0  0
 36 30  1  0  0  0  0
 37 30  1  0  0  0  0
 39 38  1  0  0  0  0
 40 41  1  1  0  0  0
 40  1  1  0  0  0  0
 42 44  1  0  0  0  0
 42 40  1  0  0  0  0
 43 42  1  0  0  0  0
 45 42  1  0  0  0  0
 46 49  1  0  0  0  0
 46 40  1  0  0  0  0
 47 46  1  0  0  0  0
 48 46  1  0  0  0  0
 49 50  2  0  0  0  0
 49 53  1  0  0  0  0
 50 51  1  0  0  0  0
 51 52  2  0  0  0  0
 52 54  1  0  0  0  0
 53 55  1  0  0  0  0
 53 52  1  0  0  0  0
 55 57  1  0  0  0  0
 56 55  1  0  0  0  0
 58 55  1  0  0  0  0
M  END
>  <MODEL>
27

>  <REMARK>
 VINA RESULT:    -6.896      3.409      9.902
 INTER + INTRA:         -10.523
 INTER:                 -10.810
 INTRA:                   0.287
 UNBOUND:                -0.602
  Name = 
  9 active torsions:
  status: ('A' for Active; 'I' for Inactive)
    1  A    between atoms: C_1  and  C_2
    2  A    between atoms: C_2  and  C_3
    3  A    between atoms: C_2  and  C_10
    4  A    between atoms: C_3  and  C_4
    5  A    between atoms: N_8  and  C_9
    6  A    between atoms: C_14  and  N_15
    7  A    between atoms: C_16  and  C_18
    8  A    between atoms: C_20  and  C_21
    9  A    between atoms: C_26  and  O_27
                            x       y       z     vdW  Elec       q    Type
                         _______ _______ _______ _____ _____    ______ ____

>  <TORSDO>
F 9

$$$$
=
 OpenBabel07192307433D

 58 61  0  0  1  0  0  0  0  0999 V2000
    2.7580    3.7410   18.8760 C   0  0  0  0  0  0  0  0  0  0  0  0
    2.9140    2.7490   19.8520 C   0  0  0  0  0  0  0  0  0  0  0  0
    2.5270    2.9870   21.1710 C   0  0  0  0  0  0  0  0  0  0  0  0
    1.9920    4.2240   21.5320 C   0  0  0  0  0  0  0  0  0  0  0  0
    1.8490    5.2420   20.5840 C   0  0  0  0  0  0  0  0  0  0  0  0
    2.2290    4.9890   19.2630 C   0  0  0  0  0  0  0  0  0  0  0  0
    3.3400    1.7790   19.6040 H   0  0  0  0  0  0  0  0  0  0  0  0
    2.6440    2.2050   21.9160 H   0  0  0  0  0  0  0  0  0  0  0  0
    1.7000    4.3780   22.5680 H   0  0  0  0  0  0  0  0  0  0  0  0
    2.1070    5.7510   18.4980 H   0  0  0  0  0  0  0  0  0  0  0  0
    1.3220    6.4710   21.0320 N   0  0  0  0  0  0  0  0  0  0  0  0
    1.4940    7.7210   20.4530 C   0  0  0  0  0  0  0  0  0  0  0  0
    2.1670    7.9860   19.4650 O   0  0  0  0  0  0  0  0  0  0  0  0
    0.7220    6.4160   21.8470 H   0  0  0  0  0  0  0  0  0  0  0  0
    0.7870    8.8280   21.1670 C   0  0  0  0  0  0  0  0  0  0  0  0
    0.9790   10.1410   20.7730 C   0  0  0  0  0  0  0  0  0  0  0  0
    0.2930   11.1270   21.4770 C   0  0  0  0  0  0  0  0  0  0  0  0
   -0.5220   10.7900   22.5560 C   0  0  0  0  0  0  0  0  0  0  0  0
   -0.6530    9.4490   22.8650 C   0  0  0  0  0  0  0  0  0  0  0  0
   -0.0240    8.4630   22.1930 N   0  0  0  0  0  0  0  0  0  0  0  0
    1.6250   10.4000   19.9400 H   0  0  0  0  0  0  0  0  0  0  0  0
   -1.0240   11.5440   23.1500 H   0  0  0  0  0  0  0  0  0  0  0  0
   -1.2770    9.1200   23.6920 H   0  0  0  0  0  0  0  0  0  0  0  0
    0.5230   12.5360   21.1000 C   0  0  0  0  0  0  0  0  0  0  0  0
    0.2060   13.4000   21.9130 O   0  0  0  0  0  0  0  0  0  0  0  0
    1.0950   12.8160   19.8760 N   0  0  0  0  0  0  0  0  0  0  0  0
    1.7540   11.8870   18.9650 C   0  0  0  0  0  0  0  0  0  0  0  0
    2.6810   12.7600   18.1340 C   0  0  0  0  0  0  0  0  0  0  0  0
    1.9450   14.0950   18.0800 C   0  0  1  0  0  0  0  0  0  0  0  0
    1.3470   14.1920   19.4840 C   0  0  0  0  0  0  0  0  0  0  0  0
    0.9850   11.4300   18.3350 H   0  0  0  0  0  0  0  0  0  0  0  0
    2.2910   11.1060   19.5110 H   0  0  0  0  0  0  0  0  0  0  0  0
    3.6510   12.8800   18.6320 H   0  0  0  0  0  0  0  0  0  0  0  0
    2.8770   12.3450   17.1410 H   0  0  0  0  0  0  0  0  0  0  0  0
    1.1580   14.0660   17.3190 H   0  0  0  0  0  0  0  0  0  0  0  0
    2.0460   14.6450   20.1970 H   0  0  0  0  0  0  0  0  0  0  0  0
    0.4190   14.7710   19.5040 H   0  0  0  0  0  0  0  0  0  0  0  0
    2.8500   15.1440   17.7850 O   0  0  0  0  0  0  0  0  0  0  0  0
    2.4810   15.9670   18.1500 H   0  0  0  0  0  0  0  0  0  0  0  0
    3.1610    3.5330   17.4210 C   0  0  2  0  0  0  0  0  0  0  0  0
    2.2210    3.4920   16.8510 H   0  0  0  0  0  0  0  0  0  0  0  0
    3.8460    2.1900   17.1280 C   0  0  0  0  0  0  0  0  0  0  0  0
    4.0070    2.0700   16.0510 H   0  0  0  0  0  0  0  0  0  0  0  0
    4.8190    2.0970   17.6190 H   0  0  0  0  0  0  0  0  0  0  0  0
    3.2210    1.3550   17.4660 H   0  0  0  0  0  0  0  0  0  0  0  0
    3.9560    4.7300   16.8560 C   0  0  0  0  0  0  0  0  0  0  0  0
    3.8310    4.7530   15.7660 H   0  0  0  0  0  0  0  0  0  0  0  0
    3.5220    5.6680   17.2170 H   0  0  0  0  0  0  0  0  0  0  0  0
    5.4190    4.6860   17.1480 C   0  0  0  0  0  0  0  0  0  0  0  0
    5.9750    4.9070   18.3250 N   0  0  0  0  0  0  0  0  0  0  0  0
    7.3360    4.7850   18.1910 N   0  0  0  0  0  0  0  0  0  0  0  0
    7.5840    4.4810   16.9410 C   0  0  0  0  0  0  0  0  0  0  0  0
    6.4140    4.3980   16.2490 N   0  0  0  0  0  0  0  0  0  0  0  0
    8.5600    4.3150   16.5070 H   0  0  0  0  0  0  0  0  0  0  0  0
    6.3010    4.0700   14.8540 C   0  0  0  0  0  0  0  0  0  0  0  0
    5.8710    3.0700   14.7670 H   0  0  0  0  0  0  0  0  0  0  0  0
    5.6420    4.7960   14.3700 H   0  0  0  0  0  0  0  0  0  0  0  0
    7.2810    4.1110   14.3760 H   0  0  0  0  0  0  0  0  0  0  0  0
  1  6  2  0  0  0  0
  1  2  1  0  0  0  0
  2  3  2  0  0  0  0
  3  4  1  0  0  0  0
  3  8  1  0  0  0  0
  4  9  1  0  0  0  0
  5 11  1  0  0  0  0
  5  4  2  0  0  0  0
  6  5  1  0  0  0  0
  7  2  1  0  0  0  0
 10  6  1  0  0  0  0
 11 14  1  0  0  0  0
 12 11  1  0  0  0  0
 12 15  1  0  0  0  0
 13 12  2  0  0  0  0
 15 20  1  0  0  0  0
 16 15  2  0  0  0  0
 16 17  1  0  0  0  0
 17 18  2  0  0  0  0
 18 19  1  0  0  0  0
 18 22  1  0  0  0  0
 19 23  1  0  0  0  0
 20 19  2  0  0  0  0
 21 16  1  0  0  0  0
 24 17  1  0  0  0  0
 24 25  2  0  0  0  0
 26 24  1  0  0  0  0
 27 32  1  0  0  0  0
 27 26  1  0  0  0  0
 28 33  1  0  0  0  0
 28 27  1  0  0  0  0
 29 35  1  6  0  0  0
 29 28  1  0  0  0  0
 29 30  1  0  0  0  0
 30 37  1  0  0  0  0
 30 26  1  0  0  0  0
 30 36  1  0  0  0  0
 31 27  1  0  0  0  0
 34 28  1  0  0  0  0
 38 29  1  0  0  0  0
 38 39  1  0  0  0  0
 40 41  1  6  0  0  0
 40  1  1  0  0  0  0
 42 40  1  0  0  0  0
 42 45  1  0  0  0  0
 42 44  1  0  0  0  0
 43 42  1  0  0  0  0
 46 49  1  0  0  0  0
 46 48  1  0  0  0  0
 46 40  1  0  0  0  0
 47 46  1  0  0  0  0
 49 50  2  0  0  0  0
 51 50  1  0  0  0  0
 52 51  2  0  0  0  0
 53 52  1  0  0  0  0
 53 49  1  0  0  0  0
 54 52  1  0  0  0  0
 55 53  1  0  0  0  0
 56 55  1  0  0  0  0
 57 55  1  0  0  0  0
 58 55  1  0  0  0  0
M  END
>  <MODEL>
28

>  <REMARK>
 VINA RESULT:    -6.832      3.577      8.936
 INTER + INTRA:         -10.430
 INTER:                 -10.698
 INTRA:                   0.268
 UNBOUND:                -0.602
  Name = 
  9 active torsions:
  status: ('A' for Active; 'I' for Inactive)
    1  A    between atoms: C_1  and  C_2
    2  A    between atoms: C_2  and  C_3
    3  A    between atoms: C_2  and  C_10
    4  A    between atoms: C_3  and  C_4
    5  A    between atoms: N_8  and  C_9
    6  A    between atoms: C_14  and  N_15
    7  A    between atoms: C_16  and  C_18
    8  A    between atoms: C_20  and  C_21
    9  A    between atoms: C_26  and  O_27
                            x       y       z     vdW  Elec       q    Type
                         _______ _______ _______ _____ _____    ______ ____

>  <TORSDO>
F 9

$$$$
=
 OpenBabel07192307433D

 58 61  0  0  1  0  0  0  0  0999 V2000
   -0.9600   11.5580   20.5000 C   0  0  0  0  0  0  0  0  0  0  0  0
   -1.9120   11.9300   19.5440 C   0  0  0  0  0  0  0  0  0  0  0  0
   -1.9560   11.2950   18.3030 C   0  0  0  0  0  0  0  0  0  0  0  0
   -1.0390   10.2870   17.9990 C   0  0  0  0  0  0  0  0  0  0  0  0
   -0.0610    9.9130   18.9240 C   0  0  0  0  0  0  0  0  0  0  0  0
   -0.0330   10.5480   20.1690 C   0  0  0  0  0  0  0  0  0  0  0  0
   -2.6320   12.7210   19.7470 H   0  0  0  0  0  0  0  0  0  0  0  0
   -2.7070   11.5860   17.5740 H   0  0  0  0  0  0  0  0  0  0  0  0
   -1.0990    9.8110   17.0240 H   0  0  0  0  0  0  0  0  0  0  0  0
    0.6990   10.2620   20.9190 H   0  0  0  0  0  0  0  0  0  0  0  0
    0.8440    8.9040   18.5340 N   0  0  0  0  0  0  0  0  0  0  0  0
    2.1040    9.0730   17.9760 C   0  0  0  0  0  0  0  0  0  0  0  0
    2.6440   10.1340   17.6900 O   0  0  0  0  0  0  0  0  0  0  0  0
    0.5430    7.9540   18.7210 H   0  0  0  0  0  0  0  0  0  0  0  0
    2.8220    7.7930   17.6880 C   0  0  0  0  0  0  0  0  0  0  0  0
    2.2670    6.5850   18.0740 C   0  0  0  0  0  0  0  0  0  0  0  0
    2.9830    5.4280   17.7770 C   0  0  0  0  0  0  0  0  0  0  0  0
    4.2240    5.5050   17.1480 C   0  0  0  0  0  0  0  0  0  0  0  0
    4.6870    6.7600   16.7970 C   0  0  0  0  0  0  0  0  0  0  0  0
    4.0130    7.9010   17.0460 N   0  0  0  0  0  0  0  0  0  0  0  0
    1.3050    6.5310   18.5740 H   0  0  0  0  0  0  0  0  0  0  0  0
    4.8220    4.6230   16.9550 H   0  0  0  0  0  0  0  0  0  0  0  0
    5.6460    6.8880   16.3010 H   0  0  0  0  0  0  0  0  0  0  0  0
    2.4280    4.1350   18.2240 C   0  0  0  0  0  0  0  0  0  0  0  0
    2.2950    3.2530   17.3800 O   0  0  0  0  0  0  0  0  0  0  0  0
    2.1070    3.9690   19.5550 N   0  0  0  0  0  0  0  0  0  0  0  0
    2.4730    4.8280   20.6760 C   0  0  0  0  0  0  0  0  0  0  0  0
    2.4080    3.9170   21.8930 C   0  0  0  0  0  0  0  0  0  0  0  0
    1.3190    2.9160   21.5190 C   0  0  1  0  0  0  0  0  0  0  0  0
    1.5740    2.7020   20.0270 C   0  0  0  0  0  0  0  0  0  0  0  0
    1.7260    5.6240   20.7480 H   0  0  0  0  0  0  0  0  0  0  0  0
    3.4640    5.2680   20.5340 H   0  0  0  0  0  0  0  0  0  0  0  0
    3.3640    3.4010   22.0420 H   0  0  0  0  0  0  0  0  0  0  0  0
    2.1850    4.4590   22.8160 H   0  0  0  0  0  0  0  0  0  0  0  0
    0.3280    3.3510   21.6900 H   0  0  0  0  0  0  0  0  0  0  0  0
    2.3140    1.9130   19.8460 H   0  0  0  0  0  0  0  0  0  0  0  0
    0.6610    2.4450   19.4790 H   0  0  0  0  0  0  0  0  0  0  0  0
    1.4560    1.7330   22.2840 O   0  0  0  0  0  0  0  0  0  0  0  0
    1.3300    0.9750   21.6860 H   0  0  0  0  0  0  0  0  0  0  0  0
   -0.8700   12.2170   21.8720 C   0  0  2  0  0  0  0  0  0  0  0  0
    0.2030   12.3700   22.0630 H   0  0  0  0  0  0  0  0  0  0  0  0
   -1.3460   11.3400   23.0390 C   0  0  0  0  0  0  0  0  0  0  0  0
   -1.2090   10.2790   22.8010 H   0  0  0  0  0  0  0  0  0  0  0  0
   -0.8050   11.5420   23.9680 H   0  0  0  0  0  0  0  0  0  0  0  0
   -2.4130   11.5000   23.2330 H   0  0  0  0  0  0  0  0  0  0  0  0
   -1.5160   13.6190   21.8920 C   0  0  0  0  0  0  0  0  0  0  0  0
   -0.7220   14.3720   21.9730 H   0  0  0  0  0  0  0  0  0  0  0  0
   -2.0050   13.8160   20.9320 H   0  0  0  0  0  0  0  0  0  0  0  0
   -2.4710   13.8370   23.0180 C   0  0  0  0  0  0  0  0  0  0  0  0
   -2.1740   14.3770   24.1850 N   0  0  0  0  0  0  0  0  0  0  0  0
   -3.3120   14.3980   24.9550 N   0  0  0  0  0  0  0  0  0  0  0  0
   -4.2820   13.8820   24.2400 C   0  0  0  0  0  0  0  0  0  0  0  0
   -3.8070   13.5240   23.0150 N   0  0  0  0  0  0  0  0  0  0  0  0
   -5.3070   13.7550   24.5560 H   0  0  0  0  0  0  0  0  0  0  0  0
   -4.5940   12.9390   21.9640 C   0  0  0  0  0  0  0  0  0  0  0  0
   -4.9630   13.7400   21.3200 H   0  0  0  0  0  0  0  0  0  0  0  0
   -3.9620   12.2630   21.3810 H   0  0  0  0  0  0  0  0  0  0  0  0
   -5.4230   12.3690   22.3860 H   0  0  0  0  0  0  0  0  0  0  0  0
  1 40  1  0  0  0  0
  2  7  1  0  0  0  0
  2  1  2  0  0  0  0
  3  2  1  0  0  0  0
  4  3  2  0  0  0  0
  4  5  1  0  0  0  0
  5  6  2  0  0  0  0
  6  1  1  0  0  0  0
  6 10  1  0  0  0  0
  8  3  1  0  0  0  0
  9  4  1  0  0  0  0
 11 14  1  0  0  0  0
 11  5  1  0  0  0  0
 12 11  1  0  0  0  0
 13 12  2  0  0  0  0
 15 12  1  0  0  0  0
 15 16  1  0  0  0  0
 16 21  1  0  0  0  0
 17 16  2  0  0  0  0
 17 24  1  0  0  0  0
 18 17  1  0  0  0  0
 19 20  1  0  0  0  0
 19 18  2  0  0  0  0
 20 15  2  0  0  0  0
 22 18  1  0  0  0  0
 23 19  1  0  0  0  0
 24 26  1  0  0  0  0
 25 24  2  0  0  0  0
 26 30  1  0  0  0  0
 26 27  1  0  0  0  0
 27 31  1  0  0  0  0
 27 28  1  0  0  0  0
 28 33  1  0  0  0  0
 28 34  1  0  0  0  0
 29 35  1  1  0  0  0
 29 28  1  0  0  0  0
 29 38  1  0  0  0  0
 30 29  1  0  0  0  0
 32 27  1  0  0  0  0
 36 30  1  0  0  0  0
 37 30  1  0  0  0  0
 39 38  1  0  0  0  0
 40 46  1  0  0  0  0
 40 41  1  1  0  0  0
 40 42  1  0  0  0  0
 42 45  1  0  0  0  0
 42 44  1  0  0  0  0
 43 42  1  0  0  0  0
 46 47  1  0  0  0  0
 46 49  1  0  0  0  0
 48 46  1  0  0  0  0
 49 50  2  0  0  0  0
 50 51  1  0  0  0  0
 52 54  1  0  0  0  0
 52 51  2  0  0  0  0
 53 49  1  0  0  0  0
 53 52  1  0  0  0  0
 55 58  1  0  0  0  0
 55 53  1  0  0  0  0
 56 55  1  0  0  0  0
 57 55  1  0  0  0  0
M  END
>  <MODEL>
29

>  <REMARK>
 VINA RESULT:    -6.798      3.691      5.781
 INTER + INTRA:         -10.382
 INTER:                  -9.780
 INTRA:                  -0.601
 UNBOUND:                -0.602
  Name = 
  9 active torsions:
  status: ('A' for Active; 'I' for Inactive)
    1  A    between atoms: C_1  and  C_2
    2  A    between atoms: C_2  and  C_3
    3  A    between atoms: C_2  and  C_10
    4  A    between atoms: C_3  and  C_4
    5  A    between atoms: N_8  and  C_9
    6  A    between atoms: C_14  and  N_15
    7  A    between atoms: C_16  and  C_18
    8  A    between atoms: C_20  and  C_21
    9  A    between atoms: C_26  and  O_27
                            x       y       z     vdW  Elec       q    Type
                         _______ _______ _______ _____ _____    ______ ____

>  <TORSDO>
F 9

$$$$
=
 OpenBabel07192307433D

 58 61  0  0  1  0  0  0  0  0999 V2000
   -0.0020   11.7300   20.7490 C   0  0  0  0  0  0  0  0  0  0  0  0
    0.2360   12.5120   19.6120 C   0  0  0  0  0  0  0  0  0  0  0  0
    0.9340   11.9860   18.5250 C   0  0  0  0  0  0  0  0  0  0  0  0
    1.4110   10.6760   18.5650 C   0  0  0  0  0  0  0  0  0  0  0  0
    1.2110    9.8810   19.6970 C   0  0  0  0  0  0  0  0  0  0  0  0
    0.5010   10.4130   20.7770 C   0  0  0  0  0  0  0  0  0  0  0  0
   -0.1120   13.5410   19.5550 H   0  0  0  0  0  0  0  0  0  0  0  0
    1.1020   12.6010   17.6440 H   0  0  0  0  0  0  0  0  0  0  0  0
    1.9510   10.2960   17.7010 H   0  0  0  0  0  0  0  0  0  0  0  0
    0.3080    9.8120   21.6610 H   0  0  0  0  0  0  0  0  0  0  0  0
    1.7450    8.5760   19.6710 N   0  0  0  0  0  0  0  0  0  0  0  0
    1.3820    7.5020   20.4740 C   0  0  0  0  0  0  0  0  0  0  0  0
    0.5550    7.5070   21.3770 O   0  0  0  0  0  0  0  0  0  0  0  0
    2.4440    8.4050   18.9570 H   0  0  0  0  0  0  0  0  0  0  0  0
    2.1320    6.2410   20.1830 C   0  0  0  0  0  0  0  0  0  0  0  0
    3.4220    6.3010   19.6850 C   0  0  0  0  0  0  0  0  0  0  0  0
    4.0680    5.0930   19.4350 C   0  0  0  0  0  0  0  0  0  0  0  0
    3.4130    3.8820   19.6490 C   0  0  0  0  0  0  0  0  0  0  0  0
    2.1270    3.9300   20.1550 C   0  0  0  0  0  0  0  0  0  0  0  0
    1.4770    5.0790   20.4330 N   0  0  0  0  0  0  0  0  0  0  0  0
    3.9240    7.2470   19.5090 H   0  0  0  0  0  0  0  0  0  0  0  0
    3.8760    2.9320   19.4120 H   0  0  0  0  0  0  0  0  0  0  0  0
    1.5630    3.0210   20.3480 H   0  0  0  0  0  0  0  0  0  0  0  0
    5.4270    5.1380   18.8600 C   0  0  0  0  0  0  0  0  0  0  0  0
    6.3740    5.1050   19.6390 O   0  0  0  0  0  0  0  0  0  0  0  0
    5.5710    5.1950   17.4890 N   0  0  0  0  0  0  0  0  0  0  0  0
    4.5500    4.9640   16.4730 C   0  0  0  0  0  0  0  0  0  0  0  0
    5.3310    4.5620   15.2310 C   0  0  0  0  0  0  0  0  0  0  0  0
    6.6460    5.3180   15.3880 C   0  0  1  0  0  0  0  0  0  0  0  0
    6.8960    5.2260   16.8930 C   0  0  0  0  0  0  0  0  0  0  0  0
    4.0190    5.9070   16.3070 H   0  0  0  0  0  0  0  0  0  0  0  0
    3.8400    4.1950   16.7890 H   0  0  0  0  0  0  0  0  0  0  0  0
    5.5130    3.4800   15.2210 H   0  0  0  0  0  0  0  0  0  0  0  0
    4.8080    4.8100   14.3030 H   0  0  0  0  0  0  0  0  0  0  0  0
    6.5250    6.3610   15.0730 H   0  0  0  0  0  0  0  0  0  0  0  0
    7.4310    4.3070   17.1640 H   0  0  0  0  0  0  0  0  0  0  0  0
    7.4670    6.0780   17.2750 H   0  0  0  0  0  0  0  0  0  0  0  0
    7.6610    4.7050   14.6140 O   0  0  0  0  0  0  0  0  0  0  0  0
    8.4370    4.5790   15.1880 H   0  0  0  0  0  0  0  0  0  0  0  0
   -0.7600   12.2530   21.9630 C   0  0  2  0  0  0  0  0  0  0  0  0
   -0.0010   12.7040   22.6210 H   0  0  0  0  0  0  0  0  0  0  0  0
   -1.4200   11.1680   22.8260 C   0  0  0  0  0  0  0  0  0  0  0  0
   -0.6600   10.5010   23.2490 H   0  0  0  0  0  0  0  0  0  0  0  0
   -1.9940   11.5820   23.6600 H   0  0  0  0  0  0  0  0  0  0  0  0
   -2.1010   10.5550   22.2240 H   0  0  0  0  0  0  0  0  0  0  0  0
   -1.7420   13.3870   21.5980 C   0  0  0  0  0  0  0  0  0  0  0  0
   -1.9680   13.9640   22.5030 H   0  0  0  0  0  0  0  0  0  0  0  0
   -1.2560   14.0950   20.9170 H   0  0  0  0  0  0  0  0  0  0  0  0
   -3.0350   12.9150   21.0210 C   0  0  0  0  0  0  0  0  0  0  0  0
   -3.2170   12.4920   19.7840 N   0  0  0  0  0  0  0  0  0  0  0  0
   -4.5390   12.1530   19.6320 N   0  0  0  0  0  0  0  0  0  0  0  0
   -5.1360   12.3640   20.7800 C   0  0  0  0  0  0  0  0  0  0  0  0
   -4.2330   12.8320   21.6850 N   0  0  0  0  0  0  0  0  0  0  0  0
   -6.1810   12.1960   20.9950 H   0  0  0  0  0  0  0  0  0  0  0  0
   -4.5300   13.1600   23.0530 C   0  0  0  0  0  0  0  0  0  0  0  0
   -3.5910   13.3650   23.5720 H   0  0  0  0  0  0  0  0  0  0  0  0
   -5.1620   14.0510   23.0760 H   0  0  0  0  0  0  0  0  0  0  0  0
   -5.0630   12.3370   23.5310 H   0  0  0  0  0  0  0  0  0  0  0  0
  1  6  1  0  0  0  0
  1 40  1  0  0  0  0
  2  1  2  0  0  0  0
  3  4  2  0  0  0  0
  3  2  1  0  0  0  0
  4  5  1  0  0  0  0
  5  6  2  0  0  0  0
  6 10  1  0  0  0  0
  7  2  1  0  0  0  0
  8  3  1  0  0  0  0
  9  4  1  0  0  0  0
 11  5  1  0  0  0  0
 11 12  1  0  0  0  0
 12 13  2  0  0  0  0
 14 11  1  0  0  0  0
 15 20  1  0  0  0  0
 15 12  1  0  0  0  0
 16 15  2  0  0  0  0
 17 18  2  0  0  0  0
 17 16  1  0  0  0  0
 18 19  1  0  0  0  0
 19 23  1  0  0  0  0
 19 20  2  0  0  0  0
 21 16  1  0  0  0  0
 22 18  1  0  0  0  0
 24 17  1  0  0  0  0
 24 25  2  0  0  0  0
 26 24  1  0  0  0  0
 27 32  1  0  0  0  0
 27 26  1  0  0  0  0
 28 29  1  0  0  0  0
 28 27  1  0  0  0  0
 29 35  1  6  0  0  0
 29 30  1  0  0  0  0
 30 36  1  0  0  0  0
 30 37  1  0  0  0  0
 30 26  1  0  0  0  0
 31 27  1  0  0  0  0
 33 28  1  0  0  0  0
 34 28  1  0  0  0  0
 38 39  1  0  0  0  0
 38 29  1  0  0  0  0
 40 41  1  1  0  0  0
 40 42  1  0  0  0  0
 42 43  1  0  0  0  0
 42 44  1  0  0  0  0
 45 42  1  0  0  0  0
 46 40  1  0  0  0  0
 46 47  1  0  0  0  0
 48 46  1  0  0  0  0
 49 46  1  0  0  0  0
 49 53  1  0  0  0  0
 50 49  2  0  0  0  0
 51 50  1  0  0  0  0
 51 52  2  0  0  0  0
 52 54  1  0  0  0  0
 52 53  1  0  0  0  0
 53 55  1  0  0  0  0
 55 57  1  0  0  0  0
 55 58  1  0  0  0  0
 55 56  1  0  0  0  0
M  END
>  <MODEL>
30

>  <REMARK>
 VINA RESULT:    -6.711      2.260      2.960
 INTER + INTRA:         -10.256
 INTER:                  -9.698
 INTRA:                  -0.558
 UNBOUND:                -0.602
  Name = 
  9 active torsions:
  status: ('A' for Active; 'I' for Inactive)
    1  A    between atoms: C_1  and  C_2
    2  A    between atoms: C_2  and  C_3
    3  A    between atoms: C_2  and  C_10
    4  A    between atoms: C_3  and  C_4
    5  A    between atoms: N_8  and  C_9
    6  A    between atoms: C_14  and  N_15
    7  A    between atoms: C_16  and  C_18
    8  A    between atoms: C_20  and  C_21
    9  A    between atoms: C_26  and  O_27
                            x       y       z     vdW  Elec       q    Type
                         _______ _______ _______ _____ _____    ______ ____

>  <TORSDO>
F 9

$$$$
=
 OpenBabel07192307433D

 58 61  0  0  1  0  0  0  0  0999 V2000
    3.9300    5.3540   19.3430 C   0  0  0  0  0  0  0  0  0  0  0  0
    3.4370    4.2380   20.0310 C   0  0  0  0  0  0  0  0  0  0  0  0
    2.2400    4.3170   20.7420 C   0  0  0  0  0  0  0  0  0  0  0  0
    1.5270    5.5150   20.7840 C   0  0  0  0  0  0  0  0  0  0  0  0
    2.0090    6.6530   20.1290 C   0  0  0  0  0  0  0  0  0  0  0  0
    3.2030    6.5600   19.4100 C   0  0  0  0  0  0  0  0  0  0  0  0
    3.9760    3.2930   20.0270 H   0  0  0  0  0  0  0  0  0  0  0  0
    1.8630    3.4400   21.2620 H   0  0  0  0  0  0  0  0  0  0  0  0
    0.5970    5.5450   21.3460 H   0  0  0  0  0  0  0  0  0  0  0  0
    3.5910    7.4190   18.8690 H   0  0  0  0  0  0  0  0  0  0  0  0
    1.2430    7.8320   20.2380 N   0  0  0  0  0  0  0  0  0  0  0  0
    1.2070    8.7150   21.3080 C   0  0  0  0  0  0  0  0  0  0  0  0
    1.8100    8.6090   22.3700 O   0  0  0  0  0  0  0  0  0  0  0  0
    0.6910    8.0700   19.4220 H   0  0  0  0  0  0  0  0  0  0  0  0
    0.2990    9.8860   21.1050 C   0  0  0  0  0  0  0  0  0  0  0  0
   -0.0090   10.3090   19.8230 C   0  0  0  0  0  0  0  0  0  0  0  0
   -0.8600   11.4050   19.6980 C   0  0  0  0  0  0  0  0  0  0  0  0
   -1.3420   12.0590   20.8300 C   0  0  0  0  0  0  0  0  0  0  0  0
   -0.9810   11.5540   22.0650 C   0  0  0  0  0  0  0  0  0  0  0  0
   -0.1790   10.4810   22.2270 N   0  0  0  0  0  0  0  0  0  0  0  0
    0.3790    9.8040   18.9450 H   0  0  0  0  0  0  0  0  0  0  0  0
   -1.9620   12.9440   20.7570 H   0  0  0  0  0  0  0  0  0  0  0  0
   -1.3270   12.0160   22.9860 H   0  0  0  0  0  0  0  0  0  0  0  0
   -1.1620   11.8980   18.3400 C   0  0  0  0  0  0  0  0  0  0  0  0
   -0.5560   12.8900   17.9490 O   0  0  0  0  0  0  0  0  0  0  0  0
   -2.0850   11.2180   17.5720 N   0  0  0  0  0  0  0  0  0  0  0  0
   -2.6500    9.8950   17.8170 C   0  0  0  0  0  0  0  0  0  0  0  0
   -3.0920    9.4090   16.4450 C   0  0  0  0  0  0  0  0  0  0  0  0
   -3.4590   10.7000   15.7200 C   0  0  1  0  0  0  0  0  0  0  0  0
   -2.3920   11.6700   16.2250 C   0  0  0  0  0  0  0  0  0  0  0  0
   -3.5120   10.0150   18.4810 H   0  0  0  0  0  0  0  0  0  0  0  0
   -1.9190    9.2290   18.2830 H   0  0  0  0  0  0  0  0  0  0  0  0
   -2.2670    8.9040   15.9290 H   0  0  0  0  0  0  0  0  0  0  0  0
   -3.9240    8.7000   16.4950 H   0  0  0  0  0  0  0  0  0  0  0  0
   -4.4620   11.0300   16.0160 H   0  0  0  0  0  0  0  0  0  0  0  0
   -1.4800   11.6280   15.6180 H   0  0  0  0  0  0  0  0  0  0  0  0
   -2.7430   12.7070   16.2410 H   0  0  0  0  0  0  0  0  0  0  0  0
   -3.4200   10.5050   14.3190 O   0  0  0  0  0  0  0  0  0  0  0  0
   -4.2980   10.7250   13.9630 H   0  0  0  0  0  0  0  0  0  0  0  0
    5.2310    5.3220   18.5490 C   0  0  2  0  0  0  0  0  0  0  0  0
    5.3830    4.2700   18.2630 H   0  0  0  0  0  0  0  0  0  0  0  0
    6.4860    5.6860   19.3560 C   0  0  0  0  0  0  0  0  0  0  0  0
    6.9580    6.5840   18.9420 H   0  0  0  0  0  0  0  0  0  0  0  0
    6.2680    5.8850   20.4090 H   0  0  0  0  0  0  0  0  0  0  0  0
    7.2220    4.8750   19.3150 H   0  0  0  0  0  0  0  0  0  0  0  0
    5.1320    6.1180   17.2300 C   0  0  0  0  0  0  0  0  0  0  0  0
    4.0780    6.3520   17.0370 H   0  0  0  0  0  0  0  0  0  0  0  0
    5.6280    7.0890   17.3450 H   0  0  0  0  0  0  0  0  0  0  0  0
    5.6680    5.3980   16.0380 C   0  0  0  0  0  0  0  0  0  0  0  0
    6.5610    5.8720   15.1900 N   0  0  0  0  0  0  0  0  0  0  0  0
    6.7910    4.9210   14.2260 N   0  0  0  0  0  0  0  0  0  0  0  0
    6.0440    3.8820   14.5100 C   0  0  0  0  0  0  0  0  0  0  0  0
    5.3290    4.1290   15.6420 N   0  0  0  0  0  0  0  0  0  0  0  0
    5.9920    2.9620   13.9460 H   0  0  0  0  0  0  0  0  0  0  0  0
    4.4140    3.2070   16.2580 C   0  0  0  0  0  0  0  0  0  0  0  0
    4.0930    3.6240   17.2150 H   0  0  0  0  0  0  0  0  0  0  0  0
    3.5470    3.0770   15.6050 H   0  0  0  0  0  0  0  0  0  0  0  0
    4.8950    2.2380   16.4010 H   0  0  0  0  0  0  0  0  0  0  0  0
  1  6  2  0  0  0  0
  1  2  1  0  0  0  0
  2  3  2  0  0  0  0
  3  4  1  0  0  0  0
  3  8  1  0  0  0  0
  4  9  1  0  0  0  0
  5 11  1  0  0  0  0
  5  4  2  0  0  0  0
  6  5  1  0  0  0  0
  7  2  1  0  0  0  0
 10  6  1  0  0  0  0
 11 12  1  0  0  0  0
 12 13  2  0  0  0  0
 14 11  1  0  0  0  0
 15 12  1  0  0  0  0
 15 20  1  0  0  0  0
 16 15  2  0  0  0  0
 17 16  1  0  0  0  0
 17 18  2  0  0  0  0
 18 19  1  0  0  0  0
 19 20  2  0  0  0  0
 19 23  1  0  0  0  0
 21 16  1  0  0  0  0
 22 18  1  0  0  0  0
 24 17  1  0  0  0  0
 25 24  2  0  0  0  0
 26 27  1  0  0  0  0
 26 24  1  0  0  0  0
 27 32  1  0  0  0  0
 27 31  1  0  0  0  0
 28 34  1  0  0  0  0
 28 27  1  0  0  0  0
 29 35  1  1  0  0  0
 29 30  1  0  0  0  0
 29 28  1  0  0  0  0
 30 37  1  0  0  0  0
 30 26  1  0  0  0  0
 33 28  1  0  0  0  0
 36 30  1  0  0  0  0
 38 29  1  0  0  0  0
 39 38  1  0  0  0  0
 40 41  1  6  0  0  0
 40  1  1  0  0  0  0
 40 42  1  0  0  0  0
 42 44  1  0  0  0  0
 43 42  1  0  0  0  0
 45 42  1  0  0  0  0
 46 48  1  0  0  0  0
 46 40  1  0  0  0  0
 47 46  1  0  0  0  0
 49 46  1  0  0  0  0
 50 49  2  0  0  0  0
 51 52  2  0  0  0  0
 51 50  1  0  0  0  0
 52 53  1  0  0  0  0
 53 49  1  0  0  0  0
 53 55  1  0  0  0  0
 54 52  1  0  0  0  0
 55 58  1  0  0  0  0
 55 56  1  0  0  0  0
 57 55  1  0  0  0  0
M  END
>  <MODEL>
31

>  <REMARK>
 VINA RESULT:    -6.685      2.800      8.926
 INTER + INTRA:         -10.218
 INTER:                  -9.616
 INTRA:                  -0.602
 UNBOUND:                -0.602
  Name = 
  9 active torsions:
  status: ('A' for Active; 'I' for Inactive)
    1  A    between atoms: C_1  and  C_2
    2  A    between atoms: C_2  and  C_3
    3  A    between atoms: C_2  and  C_10
    4  A    between atoms: C_3  and  C_4
    5  A    between atoms: N_8  and  C_9
    6  A    between atoms: C_14  and  N_15
    7  A    between atoms: C_16  and  C_18
    8  A    between atoms: C_20  and  C_21
    9  A    between atoms: C_26  and  O_27
                            x       y       z     vdW  Elec       q    Type
                         _______ _______ _______ _____ _____    ______ ____

>  <TORSDO>
F 9

$$$$
=
 OpenBabel07192307433D

 58 61  0  0  1  0  0  0  0  0999 V2000
    0.1550   11.4450   18.8350 C   0  0  0  0  0  0  0  0  0  0  0  0
    1.0620   12.4810   18.5840 C   0  0  0  0  0  0  0  0  0  0  0  0
    2.3390   12.2030   18.0970 C   0  0  0  0  0  0  0  0  0  0  0  0
    2.7290   10.8840   17.8660 C   0  0  0  0  0  0  0  0  0  0  0  0
    1.8540    9.8260   18.1330 C   0  0  0  0  0  0  0  0  0  0  0  0
    0.5720   10.1170   18.6100 C   0  0  0  0  0  0  0  0  0  0  0  0
    0.7910   13.5200   18.7660 H   0  0  0  0  0  0  0  0  0  0  0  0
    3.0290   13.0190   17.8960 H   0  0  0  0  0  0  0  0  0  0  0  0
    3.7300   10.7000   17.4860 H   0  0  0  0  0  0  0  0  0  0  0  0
   -0.1390    9.3180   18.8020 H   0  0  0  0  0  0  0  0  0  0  0  0
    2.3300    8.5200   17.8960 N   0  0  0  0  0  0  0  0  0  0  0  0
    2.3570    7.4600   18.7910 C   0  0  0  0  0  0  0  0  0  0  0  0
    2.0020    7.4780   19.9640 O   0  0  0  0  0  0  0  0  0  0  0  0
    2.6510    8.3380   16.9520 H   0  0  0  0  0  0  0  0  0  0  0  0
    2.9130    6.1930   18.2230 C   0  0  0  0  0  0  0  0  0  0  0  0
    4.1570    6.1940   17.6160 C   0  0  0  0  0  0  0  0  0  0  0  0
    4.6210    4.9840   17.1050 C   0  0  0  0  0  0  0  0  0  0  0  0
    3.8350    3.8370   17.1800 C   0  0  0  0  0  0  0  0  0  0  0  0
    2.6100    3.9390   17.8120 C   0  0  0  0  0  0  0  0  0  0  0  0
    2.1360    5.0870   18.3400 N   0  0  0  0  0  0  0  0  0  0  0  0
    4.7610    7.0930   17.5490 H   0  0  0  0  0  0  0  0  0  0  0  0
    4.1530    2.8970   16.7440 H   0  0  0  0  0  0  0  0  0  0  0  0
    1.9500    3.0800   17.9070 H   0  0  0  0  0  0  0  0  0  0  0  0
    5.9260    4.9770   16.4130 C   0  0  0  0  0  0  0  0  0  0  0  0
    6.9330    5.1190   17.1000 O   0  0  0  0  0  0  0  0  0  0  0  0
    5.9560    4.7940   15.0460 N   0  0  0  0  0  0  0  0  0  0  0  0
    4.8700    4.3460   14.1810 C   0  0  0  0  0  0  0  0  0  0  0  0
    5.5690    3.7580   12.9650 C   0  0  0  0  0  0  0  0  0  0  0  0
    6.8510    4.5790   12.8700 C   0  0  1  0  0  0  0  0  0  0  0  0
    7.2260    4.7670   14.3400 C   0  0  0  0  0  0  0  0  0  0  0  0
    4.2790    5.2240   13.9000 H   0  0  0  0  0  0  0  0  0  0  0  0
    4.2290    3.6200   14.6880 H   0  0  0  0  0  0  0  0  0  0  0  0
    5.8070    2.6990   13.1280 H   0  0  0  0  0  0  0  0  0  0  0  0
    4.9610    3.8160   12.0570 H   0  0  0  0  0  0  0  0  0  0  0  0
    6.6510    5.5430   12.3890 H   0  0  0  0  0  0  0  0  0  0  0  0
    7.8280    3.9330   14.7190 H   0  0  0  0  0  0  0  0  0  0  0  0
    7.7800    5.6940   14.5150 H   0  0  0  0  0  0  0  0  0  0  0  0
    7.8310    3.8760   12.1290 O   0  0  0  0  0  0  0  0  0  0  0  0
    7.3790    3.4090   11.4050 H   0  0  0  0  0  0  0  0  0  0  0  0
   -1.2530   11.6920   19.3650 C   0  0  2  0  0  0  0  0  0  0  0  0
   -1.5890   12.6300   18.8980 H   0  0  0  0  0  0  0  0  0  0  0  0
   -1.3330   11.9640   20.8740 C   0  0  0  0  0  0  0  0  0  0  0  0
   -1.8070   11.1200   21.3890 H   0  0  0  0  0  0  0  0  0  0  0  0
   -0.3500   12.1170   21.3290 H   0  0  0  0  0  0  0  0  0  0  0  0
   -1.9370   12.8560   21.0750 H   0  0  0  0  0  0  0  0  0  0  0  0
   -2.2490   10.6030   18.9130 C   0  0  0  0  0  0  0  0  0  0  0  0
   -1.6990    9.8240   18.3710 H   0  0  0  0  0  0  0  0  0  0  0  0
   -2.6740   10.1020   19.7890 H   0  0  0  0  0  0  0  0  0  0  0  0
   -3.3370   11.1010   18.0200 C   0  0  0  0  0  0  0  0  0  0  0  0
   -4.3610   11.8440   18.3960 N   0  0  0  0  0  0  0  0  0  0  0  0
   -5.1450   12.0890   17.2960 N   0  0  0  0  0  0  0  0  0  0  0  0
   -4.5800   11.5030   16.2690 C   0  0  0  0  0  0  0  0  0  0  0  0
   -3.4390   10.8780   16.6700 N   0  0  0  0  0  0  0  0  0  0  0  0
   -4.9470   11.5050   15.2530 H   0  0  0  0  0  0  0  0  0  0  0  0
   -2.5530   10.1440   15.8080 C   0  0  0  0  0  0  0  0  0  0  0  0
   -3.1530    9.4990   15.1630 H   0  0  0  0  0  0  0  0  0  0  0  0
   -1.9870   10.8510   15.1950 H   0  0  0  0  0  0  0  0  0  0  0  0
   -1.8530    9.5540   16.4010 H   0  0  0  0  0  0  0  0  0  0  0  0
  1 40  1  0  0  0  0
  2  7  1  0  0  0  0
  2  1  2  0  0  0  0
  3  2  1  0  0  0  0
  4  3  2  0  0  0  0
  4  5  1  0  0  0  0
  5  6  2  0  0  0  0
  6 10  1  0  0  0  0
  6  1  1  0  0  0  0
  8  3  1  0  0  0  0
  9  4  1  0  0  0  0
 11  5  1  0  0  0  0
 11 12  1  0  0  0  0
 12 13  2  0  0  0  0
 14 11  1  0  0  0  0
 15 20  1  0  0  0  0
 15 12  1  0  0  0  0
 16 15  2  0  0  0  0
 17 18  2  0  0  0  0
 17 16  1  0  0  0  0
 18 19  1  0  0  0  0
 19 23  1  0  0  0  0
 19 20  2  0  0  0  0
 21 16  1  0  0  0  0
 22 18  1  0  0  0  0
 24 25  2  0  0  0  0
 24 17  1  0  0  0  0
 26 24  1  0  0  0  0
 27 32  1  0  0  0  0
 27 26  1  0  0  0  0
 28 33  1  0  0  0  0
 28 27  1  0  0  0  0
 29 35  1  6  0  0  0
 29 28  1  0  0  0  0
 29 30  1  0  0  0  0
 30 37  1  0  0  0  0
 30 36  1  0  0  0  0
 30 26  1  0  0  0  0
 31 27  1  0  0  0  0
 34 28  1  0  0  0  0
 38 29  1  0  0  0  0
 39 38  1  0  0  0  0
 40 41  1  6  0  0  0
 40 42  1  0  0  0  0
 42 45  1  0  0  0  0
 42 44  1  0  0  0  0
 42 43  1  0  0  0  0
 46 40  1  0  0  0  0
 46 48  1  0  0  0  0
 47 46  1  0  0  0  0
 49 50  2  0  0  0  0
 49 46  1  0  0  0  0
 51 50  1  0  0  0  0
 52 53  1  0  0  0  0
 52 51  2  0  0  0  0
 53 49  1  0  0  0  0
 54 52  1  0  0  0  0
 55 58  1  0  0  0  0
 55 53  1  0  0  0  0
 56 55  1  0  0  0  0
 57 55  1  0  0  0  0
M  END
>  <MODEL>
32

>  <REMARK>
 VINA RESULT:    -6.664      1.936      2.554
 INTER + INTRA:         -10.188
 INTER:                  -9.518
 INTRA:                  -0.670
 UNBOUND:                -0.602
  Name = 
  9 active torsions:
  status: ('A' for Active; 'I' for Inactive)
    1  A    between atoms: C_1  and  C_2
    2  A    between atoms: C_2  and  C_3
    3  A    between atoms: C_2  and  C_10
    4  A    between atoms: C_3  and  C_4
    5  A    between atoms: N_8  and  C_9
    6  A    between atoms: C_14  and  N_15
    7  A    between atoms: C_16  and  C_18
    8  A    between atoms: C_20  and  C_21
    9  A    between atoms: C_26  and  O_27
                            x       y       z     vdW  Elec       q    Type
                         _______ _______ _______ _____ _____    ______ ____

>  <TORSDO>
F 9

$$$$
=
 OpenBabel07192307433D

 58 61  0  0  1  0  0  0  0  0999 V2000
    0.4180   12.1590   19.0800 C   0  0  0  0  0  0  0  0  0  0  0  0
   -0.7780   12.0750   18.3580 C   0  0  0  0  0  0  0  0  0  0  0  0
   -1.2310   10.8470   17.8790 C   0  0  0  0  0  0  0  0  0  0  0  0
   -0.4880    9.6890   18.1050 C   0  0  0  0  0  0  0  0  0  0  0  0
    0.7240    9.7460   18.8000 C   0  0  0  0  0  0  0  0  0  0  0  0
    1.1630   10.9800   19.2870 C   0  0  0  0  0  0  0  0  0  0  0  0
   -1.3740   12.9630   18.1550 H   0  0  0  0  0  0  0  0  0  0  0  0
   -2.1680   10.7950   17.3290 H   0  0  0  0  0  0  0  0  0  0  0  0
   -0.8680    8.7460   17.7190 H   0  0  0  0  0  0  0  0  0  0  0  0
    2.0880   11.0530   19.8520 H   0  0  0  0  0  0  0  0  0  0  0  0
    1.4290    8.5360   18.9680 N   0  0  0  0  0  0  0  0  0  0  0  0
    1.5550    7.7900   20.1330 C   0  0  0  0  0  0  0  0  0  0  0  0
    1.1050    8.0700   21.2370 O   0  0  0  0  0  0  0  0  0  0  0  0
    1.8540    8.1600   18.1280 H   0  0  0  0  0  0  0  0  0  0  0  0
    2.3600    6.5400   19.9740 C   0  0  0  0  0  0  0  0  0  0  0  0
    3.6210    6.5950   19.4050 C   0  0  0  0  0  0  0  0  0  0  0  0
    4.3220    5.3980   19.2840 C   0  0  0  0  0  0  0  0  0  0  0  0
    3.7460    4.1970   19.6920 C   0  0  0  0  0  0  0  0  0  0  0  0
    2.4830    4.2490   20.2540 C   0  0  0  0  0  0  0  0  0  0  0  0
    1.7830    5.3920   20.4100 N   0  0  0  0  0  0  0  0  0  0  0  0
    4.0610    7.5320   19.0780 H   0  0  0  0  0  0  0  0  0  0  0  0
    4.2510    3.2470   19.5600 H   0  0  0  0  0  0  0  0  0  0  0  0
    1.9800    3.3480   20.5960 H   0  0  0  0  0  0  0  0  0  0  0  0
    5.6490    5.4320   18.6380 C   0  0  0  0  0  0  0  0  0  0  0  0
    6.6320    5.5330   19.3660 O   0  0  0  0  0  0  0  0  0  0  0  0
    5.7260    5.3300   17.2640 N   0  0  0  0  0  0  0  0  0  0  0  0
    4.6710    4.9340   16.3370 C   0  0  0  0  0  0  0  0  0  0  0  0
    5.4110    4.4190   15.1130 C   0  0  0  0  0  0  0  0  0  0  0  0
    6.6940    5.2440   15.1100 C   0  0  1  0  0  0  0  0  0  0  0  0
    7.0190    5.3440   16.6010 C   0  0  0  0  0  0  0  0  0  0  0  0
    4.0880    5.8270   16.0900 H   0  0  0  0  0  0  0  0  0  0  0  0
    4.0140    4.1790   16.7790 H   0  0  0  0  0  0  0  0  0  0  0  0
    5.6450    3.3530   15.2210 H   0  0  0  0  0  0  0  0  0  0  0  0
    4.8340    4.5310   14.1900 H   0  0  0  0  0  0  0  0  0  0  0  0
    6.5080    6.2360   14.6810 H   0  0  0  0  0  0  0  0  0  0  0  0
    7.6100    4.4890   16.9500 H   0  0  0  0  0  0  0  0  0  0  0  0
    7.5650    6.2600   16.8490 H   0  0  0  0  0  0  0  0  0  0  0  0
    7.7000    4.5860   14.3620 O   0  0  0  0  0  0  0  0  0  0  0  0
    7.8880    5.1270   13.5750 H   0  0  0  0  0  0  0  0  0  0  0  0
    0.9580   13.4750   19.6290 C   0  0  2  0  0  0  0  0  0  0  0  0
    1.1200   14.1220   18.7540 H   0  0  0  0  0  0  0  0  0  0  0  0
    2.3380   13.3760   20.2950 C   0  0  0  0  0  0  0  0  0  0  0  0
    2.7920   12.4000   20.0910 H   0  0  0  0  0  0  0  0  0  0  0  0
    3.0340   14.1420   19.9410 H   0  0  0  0  0  0  0  0  0  0  0  0
    2.2520   13.4800   21.3830 H   0  0  0  0  0  0  0  0  0  0  0  0
   -0.0700   14.2040   20.5210 C   0  0  0  0  0  0  0  0  0  0  0  0
    0.4580   14.9460   21.1340 H   0  0  0  0  0  0  0  0  0  0  0  0
   -0.7590   14.7830   19.8960 H   0  0  0  0  0  0  0  0  0  0  0  0
   -0.8300   13.3060   21.4400 C   0  0  0  0  0  0  0  0  0  0  0  0
   -0.2990   12.4990   22.3390 N   0  0  0  0  0  0  0  0  0  0  0  0
   -1.3170   11.8350   22.9790 N   0  0  0  0  0  0  0  0  0  0  0  0
   -2.4470   12.2570   22.4670 C   0  0  0  0  0  0  0  0  0  0  0  0
   -2.1950   13.1870   21.5060 N   0  0  0  0  0  0  0  0  0  0  0  0
   -3.4370   11.9310   22.7530 H   0  0  0  0  0  0  0  0  0  0  0  0
   -3.1980   13.8760   20.7410 C   0  0  0  0  0  0  0  0  0  0  0  0
   -4.1620   13.7500   21.2390 H   0  0  0  0  0  0  0  0  0  0  0  0
   -2.9450   14.9390   20.6980 H   0  0  0  0  0  0  0  0  0  0  0  0
   -3.2340   13.4820   19.7240 H   0  0  0  0  0  0  0  0  0  0  0  0
  1  6  1  0  0  0  0
  1 40  1  0  0  0  0
  2  1  2  0  0  0  0
  3  4  2  0  0  0  0
  3  2  1  0  0  0  0
  4  5  1  0  0  0  0
  5 11  1  0  0  0  0
  5  6  2  0  0  0  0
  6 10  1  0  0  0  0
  7  2  1  0  0  0  0
  8  3  1  0  0  0  0
  9  4  1  0  0  0  0
 11 12  1  0  0  0  0
 12 13  2  0  0  0  0
 14 11  1  0  0  0  0
 15 12  1  0  0  0  0
 15 20  1  0  0  0  0
 16 15  2  0  0  0  0
 17 16  1  0  0  0  0
 17 18  2  0  0  0  0
 18 19  1  0  0  0  0
 19 20  2  0  0  0  0
 19 23  1  0  0  0  0
 21 16  1  0  0  0  0
 22 18  1  0  0  0  0
 24 17  1  0  0  0  0
 24 25  2  0  0  0  0
 26 24  1  0  0  0  0
 27 32  1  0  0  0  0
 27 26  1  0  0  0  0
 28 33  1  0  0  0  0
 28 27  1  0  0  0  0
 29 35  1  6  0  0  0
 29 28  1  0  0  0  0
 29 30  1  0  0  0  0
 30 37  1  0  0  0  0
 30 36  1  0  0  0  0
 30 26  1  0  0  0  0
 31 27  1  0  0  0  0
 34 28  1  0  0  0  0
 38 29  1  0  0  0  0
 39 38  1  0  0  0  0
 40 41  1  6  0  0  0
 40 42  1  0  0  0  0
 40 46  1  0  0  0  0
 42 45  1  0  0  0  0
 43 42  1  0  0  0  0
 44 42  1  0  0  0  0
 46 47  1  0  0  0  0
 46 49  1  0  0  0  0
 48 46  1  0  0  0  0
 49 53  1  0  0  0  0
 49 50  2  0  0  0  0
 50 51  1  0  0  0  0
 52 54  1  0  0  0  0
 52 51  2  0  0  0  0
 53 52  1  0  0  0  0
 55 56  1  0  0  0  0
 55 53  1  0  0  0  0
 57 55  1  0  0  0  0
 58 55  1  0  0  0  0
M  END
>  <MODEL>
33

>  <REMARK>
 VINA RESULT:    -6.635      2.385      3.415
 INTER + INTRA:         -10.146
 INTER:                  -9.317
 INTRA:                  -0.830
 UNBOUND:                -0.602
  Name = 
  9 active torsions:
  status: ('A' for Active; 'I' for Inactive)
    1  A    between atoms: C_1  and  C_2
    2  A    between atoms: C_2  and  C_3
    3  A    between atoms: C_2  and  C_10
    4  A    between atoms: C_3  and  C_4
    5  A    between atoms: N_8  and  C_9
    6  A    between atoms: C_14  and  N_15
    7  A    between atoms: C_16  and  C_18
    8  A    between atoms: C_20  and  C_21
    9  A    between atoms: C_26  and  O_27
                            x       y       z     vdW  Elec       q    Type
                         _______ _______ _______ _____ _____    ______ ____

>  <TORSDO>
F 9

$$$$
