=
 OpenBabel07192307433D

 41 43  0  0  0  0  0  0  0  0999 V2000
    2.9340    7.4060   18.1320 C   0  0  0  0  0  0  0  0  0  0  0  0
    3.6700    7.9220   17.2870 O   0  0  0  0  0  0  0  0  0  0  0  0
    3.0070    6.0360   18.4240 N   0  0  0  0  0  0  0  0  0  0  0  0
    2.0010    5.3040   19.1950 C   0  0  0  0  0  0  0  0  0  0  0  0
    1.9560    3.8270   18.8190 C   0  0  0  0  0  0  0  0  0  0  0  0
    3.3280    3.1440   18.9860 C   0  0  0  0  0  0  0  0  0  0  0  0
    4.5000    4.1180   18.7530 C   0  0  0  0  0  0  0  0  0  0  0  0
    4.1010    5.2680   17.8390 C   0  0  0  0  0  0  0  0  0  0  0  0
    2.2500    5.4150   20.2570 H   0  0  0  0  0  0  0  0  0  0  0  0
    1.0120    5.7410   19.0190 H   0  0  0  0  0  0  0  0  0  0  0  0
    1.2000    3.3210   19.4340 H   0  0  0  0  0  0  0  0  0  0  0  0
    1.6220    3.7580   17.7760 H   0  0  0  0  0  0  0  0  0  0  0  0
    5.3660    3.5920   18.3320 H   0  0  0  0  0  0  0  0  0  0  0  0
    4.8450    4.5320   19.7090 H   0  0  0  0  0  0  0  0  0  0  0  0
    4.9660    5.9180   17.6690 H   0  0  0  0  0  0  0  0  0  0  0  0
    3.7680    4.9040   16.8600 H   0  0  0  0  0  0  0  0  0  0  0  0
   -0.7790   10.6840   22.2650 C   0  0  0  0  0  0  0  0  0  0  0  0
    0.0020    9.7390   22.9300 C   0  0  0  0  0  0  0  0  0  0  0  0
    0.8730    8.9110   22.2130 C   0  0  0  0  0  0  0  0  0  0  0  0
    1.0000    9.0040   20.8350 C   0  0  0  0  0  0  0  0  0  0  0  0
    1.8500    8.1830   20.1950 N   0  0  0  0  0  0  0  0  0  0  0  0
    1.9530    8.2950   18.8450 C   0  0  0  0  0  0  0  0  0  0  0  0
    1.2410    9.2260   18.1020 C   0  0  0  0  0  0  0  0  0  0  0  0
    0.3610   10.0710   18.7710 C   0  0  0  0  0  0  0  0  0  0  0  0
    0.2240    9.9710   20.1600 C   0  0  0  0  0  0  0  0  0  0  0  0
   -0.6530   10.8040   20.8770 C   0  0  0  0  0  0  0  0  0  0  0  0
   -0.0580    9.6350   24.0120 H   0  0  0  0  0  0  0  0  0  0  0  0
    1.4710    8.1790   22.7490 H   0  0  0  0  0  0  0  0  0  0  0  0
    1.3680    9.2980   17.0260 H   0  0  0  0  0  0  0  0  0  0  0  0
   -0.2080   10.8040   18.2050 H   0  0  0  0  0  0  0  0  0  0  0  0
   -1.2420   11.5520   20.3490 H   0  0  0  0  0  0  0  0  0  0  0  0
   -1.6890   11.5990   23.0300 C   0  0  0  0  0  0  0  0  0  0  0  0
   -2.4130   12.0780   22.3620 H   0  0  0  0  0  0  0  0  0  0  0  0
   -1.1200   12.3980   23.5160 H   0  0  0  0  0  0  0  0  0  0  0  0
   -2.2320   11.0340   23.7940 H   0  0  0  0  0  0  0  0  0  0  0  0
    3.4170    1.9600   17.9900 C   0  0  0  0  0  0  0  0  0  0  0  0
    4.3340    2.2080   17.0230 F   0  0  0  0  0  0  0  0  0  0  0  0
    2.2350    1.7360   17.3710 F   0  0  0  0  0  0  0  0  0  0  0  0
    3.7870    0.8130   18.6020 F   0  0  0  0  0  0  0  0  0  0  0  0
    3.4240    2.6630   20.3480 O   0  0  0  0  0  0  0  0  0  0  0  0
    2.9060    1.8420   20.4270 H   0  0  0  0  0  0  0  0  0  0  0  0
  1  3  1  0  0  0  0
  1 22  1  0  0  0  0
  2  1  2  0  0  0  0
  3  4  1  0  0  0  0
  4  9  1  0  0  0  0
  5  6  1  0  0  0  0
  5  4  1  0  0  0  0
  5 11  1  0  0  0  0
  6 40  1  0  0  0  0
  7  6  1  0  0  0  0
  7 14  1  0  0  0  0
  8  3  1  0  0  0  0
  8  7  1  0  0  0  0
 10  4  1  0  0  0  0
 12  5  1  0  0  0  0
 13  7  1  0  0  0  0
 15  8  1  0  0  0  0
 16  8  1  0  0  0  0
 17 18  1  0  0  0  0
 17 32  1  0  0  0  0
 18 27  1  0  0  0  0
 19 28  1  0  0  0  0
 19 18  2  0  0  0  0
 20 19  1  0  0  0  0
 21 20  1  0  0  0  0
 22 21  2  0  0  0  0
 23 24  2  0  0  0  0
 23 22  1  0  0  0  0
 24 25  1  0  0  0  0
 25 20  2  0  0  0  0
 25 26  1  0  0  0  0
 26 17  2  0  0  0  0
 29 23  1  0  0  0  0
 30 24  1  0  0  0  0
 31 26  1  0  0  0  0
 32 34  1  0  0  0  0
 32 35  1  0  0  0  0
 33 32  1  0  0  0  0
 36 39  1  0  0  0  0
 36  6  1  0  0  0  0
 37 36  1  0  0  0  0
 38 36  1  0  0  0  0
 40 41  1  0  0  0  0
M  END
>  <MODEL>
1

>  <REMARK>
 VINA RESULT:    -8.164      0.000      0.000
 INTER + INTRA:          -9.698
 INTER:                  -9.669
 INTRA:                  -0.030
 UNBOUND:                -0.102
  Name = 
  4 active torsions:
  status: ('A' for Active; 'I' for Inactive)
    1  A    between atoms: C_1  and  C_2
    2  A    between atoms: C_7  and  C_8
    3  A    between atoms: C_13  and  O_14
    4  A    between atoms: C_13  and  C_15
                            x       y       z     vdW  Elec       q    Type
                         _______ _______ _______ _____ _____    ______ ____

>  <TORSDO>
F 4

$$$$
=
 OpenBabel07192307433D

 41 43  0  0  0  0  0  0  0  0999 V2000
    0.6090    9.9490   19.7100 C   0  0  0  0  0  0  0  0  0  0  0  0
    0.8600   10.5280   20.7710 O   0  0  0  0  0  0  0  0  0  0  0  0
   -0.4740   10.3350   18.9070 N   0  0  0  0  0  0  0  0  0  0  0  0
   -0.9990    9.5400   17.7960 C   0  0  0  0  0  0  0  0  0  0  0  0
   -2.4770    9.8160   17.5440 C   0  0  0  0  0  0  0  0  0  0  0  0
   -2.7510   11.3100   17.2810 C   0  0  0  0  0  0  0  0  0  0  0  0
   -1.7560   12.2270   18.0190 C   0  0  0  0  0  0  0  0  0  0  0  0
   -1.1890   11.5570   19.2620 C   0  0  0  0  0  0  0  0  0  0  0  0
   -0.4130    9.7860   16.9040 H   0  0  0  0  0  0  0  0  0  0  0  0
   -0.8750    8.4740   18.0150 H   0  0  0  0  0  0  0  0  0  0  0  0
   -2.8180    9.2090   16.6960 H   0  0  0  0  0  0  0  0  0  0  0  0
   -3.0360    9.4770   18.4270 H   0  0  0  0  0  0  0  0  0  0  0  0
   -2.2310   13.1770   18.2940 H   0  0  0  0  0  0  0  0  0  0  0  0
   -0.9250   12.4970   17.3540 H   0  0  0  0  0  0  0  0  0  0  0  0
   -0.5140   12.2490   19.7760 H   0  0  0  0  0  0  0  0  0  0  0  0
   -1.9820   11.2870   19.9680 H   0  0  0  0  0  0  0  0  0  0  0  0
    3.9050    4.4550   18.9500 C   0  0  0  0  0  0  0  0  0  0  0  0
    3.1070    4.4100   20.0930 C   0  0  0  0  0  0  0  0  0  0  0  0
    2.3170    5.5090   20.4470 C   0  0  0  0  0  0  0  0  0  0  0  0
    2.2880    6.6650   19.6820 C   0  0  0  0  0  0  0  0  0  0  0  0
    1.5140    7.6930   20.0700 N   0  0  0  0  0  0  0  0  0  0  0  0
    1.5060    8.8140   19.3010 C   0  0  0  0  0  0  0  0  0  0  0  0
    2.2420    8.9380   18.1310 C   0  0  0  0  0  0  0  0  0  0  0  0
    3.0430    7.8720   17.7380 C   0  0  0  0  0  0  0  0  0  0  0  0
    3.0810    6.7090   18.5150 C   0  0  0  0  0  0  0  0  0  0  0  0
    3.8770    5.6070   18.1550 C   0  0  0  0  0  0  0  0  0  0  0  0
    3.0910    3.5210   20.7200 H   0  0  0  0  0  0  0  0  0  0  0  0
    1.7040    5.4560   21.3440 H   0  0  0  0  0  0  0  0  0  0  0  0
    2.1910    9.8440   17.5330 H   0  0  0  0  0  0  0  0  0  0  0  0
    3.6280    7.9540   16.8250 H   0  0  0  0  0  0  0  0  0  0  0  0
    4.4790    5.6460   17.2490 H   0  0  0  0  0  0  0  0  0  0  0  0
    4.7280    3.2680   18.5430 C   0  0  0  0  0  0  0  0  0  0  0  0
    4.0990    2.4960   18.0870 H   0  0  0  0  0  0  0  0  0  0  0  0
    5.2160    2.8160   19.4130 H   0  0  0  0  0  0  0  0  0  0  0  0
    5.4940    3.5730   17.8230 H   0  0  0  0  0  0  0  0  0  0  0  0
   -4.2000   11.6350   17.7260 C   0  0  0  0  0  0  0  0  0  0  0  0
   -4.8810   10.5020   18.0260 F   0  0  0  0  0  0  0  0  0  0  0  0
   -4.8930   12.2710   16.7530 F   0  0  0  0  0  0  0  0  0  0  0  0
   -4.2260   12.4170   18.8290 F   0  0  0  0  0  0  0  0  0  0  0  0
   -2.5970   11.5480   15.8620 O   0  0  0  0  0  0  0  0  0  0  0  0
   -2.0530   12.3460   15.7350 H   0  0  0  0  0  0  0  0  0  0  0  0
  1  2  2  0  0  0  0
  3  8  1  0  0  0  0
  3  1  1  0  0  0  0
  4 10  1  0  0  0  0
  4  3  1  0  0  0  0
  5  4  1  0  0  0  0
  5 12  1  0  0  0  0
  6  5  1  0  0  0  0
  6 36  1  0  0  0  0
  6  7  1  0  0  0  0
  7 13  1  0  0  0  0
  7  8  1  0  0  0  0
  8 15  1  0  0  0  0
  8 16  1  0  0  0  0
  9  4  1  0  0  0  0
 11  5  1  0  0  0  0
 14  7  1  0  0  0  0
 17 18  1  0  0  0  0
 18 19  2  0  0  0  0
 18 27  1  0  0  0  0
 19 28  1  0  0  0  0
 20 21  1  0  0  0  0
 20 19  1  0  0  0  0
 22  1  1  0  0  0  0
 22 21  2  0  0  0  0
 23 22  1  0  0  0  0
 24 23  2  0  0  0  0
 24 25  1  0  0  0  0
 25 20  2  0  0  0  0
 26 25  1  0  0  0  0
 26 17  2  0  0  0  0
 29 23  1  0  0  0  0
 30 24  1  0  0  0  0
 31 26  1  0  0  0  0
 32 17  1  0  0  0  0
 32 34  1  0  0  0  0
 33 32  1  0  0  0  0
 35 32  1  0  0  0  0
 36 37  1  0  0  0  0
 36 39  1  0  0  0  0
 38 36  1  0  0  0  0
 40  6  1  0  0  0  0
 41 40  1  0  0  0  0
M  END
>  <MODEL>
2

>  <REMARK>
 VINA RESULT:    -7.578      5.074      8.185
 INTER + INTRA:          -9.010
 INTER:                  -8.823
 INTRA:                  -0.187
 UNBOUND:                -0.102
  Name = 
  4 active torsions:
  status: ('A' for Active; 'I' for Inactive)
    1  A    between atoms: C_1  and  C_2
    2  A    between atoms: C_7  and  C_8
    3  A    between atoms: C_13  and  O_14
    4  A    between atoms: C_13  and  C_15
                            x       y       z     vdW  Elec       q    Type
                         _______ _______ _______ _____ _____    ______ ____

>  <TORSDO>
F 4

$$$$
=
 OpenBabel07192307433D

 41 43  0  0  0  0  0  0  0  0999 V2000
    2.2970    7.5380   19.1580 C   0  0  0  0  0  0  0  0  0  0  0  0
    2.8390    8.0770   18.1890 O   0  0  0  0  0  0  0  0  0  0  0  0
    2.3860    6.1540   19.3670 N   0  0  0  0  0  0  0  0  0  0  0  0
    1.5560    5.4110   20.3170 C   0  0  0  0  0  0  0  0  0  0  0  0
    1.3730    3.9560   19.9000 C   0  0  0  0  0  0  0  0  0  0  0  0
    2.7210    3.2310   19.7170 C   0  0  0  0  0  0  0  0  0  0  0  0
    3.8430    4.1850   19.2630 C   0  0  0  0  0  0  0  0  0  0  0  0
    3.2880    5.3880   18.5140 C   0  0  0  0  0  0  0  0  0  0  0  0
    2.0450    5.4630   21.2970 H   0  0  0  0  0  0  0  0  0  0  0  0
    0.5700    5.8810   20.3910 H   0  0  0  0  0  0  0  0  0  0  0  0
    0.7600    3.4400   20.6490 H   0  0  0  0  0  0  0  0  0  0  0  0
    0.8070    3.9480   18.9590 H   0  0  0  0  0  0  0  0  0  0  0  0
    4.5710    3.6580   18.6320 H   0  0  0  0  0  0  0  0  0  0  0  0
    4.4130    4.5420   20.1310 H   0  0  0  0  0  0  0  0  0  0  0  0
    4.1150    6.0230   18.1780 H   0  0  0  0  0  0  0  0  0  0  0  0
    2.7280    5.0820   17.6230 H   0  0  0  0  0  0  0  0  0  0  0  0
   -1.4710   11.8130   22.1820 C   0  0  0  0  0  0  0  0  0  0  0  0
   -1.5280   11.9810   20.7980 C   0  0  0  0  0  0  0  0  0  0  0  0
   -0.7730   11.1580   19.9550 C   0  0  0  0  0  0  0  0  0  0  0  0
    0.0410   10.1520   20.4530 C   0  0  0  0  0  0  0  0  0  0  0  0
    0.7470    9.3930   19.5980 N   0  0  0  0  0  0  0  0  0  0  0  0
    1.5380    8.4160   20.1140 C   0  0  0  0  0  0  0  0  0  0  0  0
    1.6340    8.1540   21.4730 C   0  0  0  0  0  0  0  0  0  0  0  0
    0.9030    8.9450   22.3520 C   0  0  0  0  0  0  0  0  0  0  0  0
    0.0890    9.9680   21.8510 C   0  0  0  0  0  0  0  0  0  0  0  0
   -0.6680   10.7930   22.7030 C   0  0  0  0  0  0  0  0  0  0  0  0
   -2.1600   12.7510   20.3610 H   0  0  0  0  0  0  0  0  0  0  0  0
   -0.8300   11.3070   18.8790 H   0  0  0  0  0  0  0  0  0  0  0  0
    2.2620    7.3480   21.8440 H   0  0  0  0  0  0  0  0  0  0  0  0
    0.9690    8.7570   23.4210 H   0  0  0  0  0  0  0  0  0  0  0  0
   -0.6310   10.6380   23.7800 H   0  0  0  0  0  0  0  0  0  0  0  0
   -2.3050   12.6670   23.0920 C   0  0  0  0  0  0  0  0  0  0  0  0
   -3.1030   12.0780   23.5560 H   0  0  0  0  0  0  0  0  0  0  0  0
   -2.7830   13.4780   22.5340 H   0  0  0  0  0  0  0  0  0  0  0  0
   -1.6780   13.0970   23.8790 H   0  0  0  0  0  0  0  0  0  0  0  0
    2.5370    2.0960   18.6780 C   0  0  0  0  0  0  0  0  0  0  0  0
    1.4250    1.3690   18.9450 F   0  0  0  0  0  0  0  0  0  0  0  0
    3.5840    1.2380   18.6820 F   0  0  0  0  0  0  0  0  0  0  0  0
    2.4040    2.5790   17.4220 F   0  0  0  0  0  0  0  0  0  0  0  0
    3.1080    2.6800   20.9990 O   0  0  0  0  0  0  0  0  0  0  0  0
    3.1260    3.3990   21.6560 H   0  0  0  0  0  0  0  0  0  0  0  0
  1  3  1  0  0  0  0
  1 22  1  0  0  0  0
  2  1  2  0  0  0  0
  3  4  1  0  0  0  0
  4 10  1  0  0  0  0
  4  9  1  0  0  0  0
  5  4  1  0  0  0  0
  5 11  1  0  0  0  0
  6  5  1  0  0  0  0
  6 40  1  0  0  0  0
  7  6  1  0  0  0  0
  7 14  1  0  0  0  0
  8  7  1  0  0  0  0
  8  3  1  0  0  0  0
 12  5  1  0  0  0  0
 13  7  1  0  0  0  0
 15  8  1  0  0  0  0
 16  8  1  0  0  0  0
 17 26  1  0  0  0  0
 17 32  1  0  0  0  0
 18 17  2  0  0  0  0
 19 20  2  0  0  0  0
 19 18  1  0  0  0  0
 20 25  1  0  0  0  0
 21 22  2  0  0  0  0
 21 20  1  0  0  0  0
 22 23  1  0  0  0  0
 23 29  1  0  0  0  0
 23 24  2  0  0  0  0
 24 30  1  0  0  0  0
 25 24  1  0  0  0  0
 25 26  2  0  0  0  0
 26 31  1  0  0  0  0
 27 18  1  0  0  0  0
 28 19  1  0  0  0  0
 32 33  1  0  0  0  0
 32 35  1  0  0  0  0
 34 32  1  0  0  0  0
 36 38  1  0  0  0  0
 36 37  1  0  0  0  0
 36  6  1  0  0  0  0
 39 36  1  0  0  0  0
 40 41  1  0  0  0  0
M  END
>  <MODEL>
3

>  <REMARK>
 VINA RESULT:    -7.563      1.171      2.076
 INTER + INTRA:          -8.991
 INTER:                  -9.187
 INTRA:                   0.196
 UNBOUND:                -0.102
  Name = 
  4 active torsions:
  status: ('A' for Active; 'I' for Inactive)
    1  A    between atoms: C_1  and  C_2
    2  A    between atoms: C_7  and  C_8
    3  A    between atoms: C_13  and  O_14
    4  A    between atoms: C_13  and  C_15
                            x       y       z     vdW  Elec       q    Type
                         _______ _______ _______ _____ _____    ______ ____

>  <TORSDO>
F 4

$$$$
=
 OpenBabel07192307433D

 41 43  0  0  0  0  0  0  0  0999 V2000
    1.7940    7.5220   20.1050 C   0  0  0  0  0  0  0  0  0  0  0  0
    1.7160    7.1540   21.2800 O   0  0  0  0  0  0  0  0  0  0  0  0
    1.2680    8.7530   19.6890 N   0  0  0  0  0  0  0  0  0  0  0  0
    1.0740    9.1350   18.2890 C   0  0  0  0  0  0  0  0  0  0  0  0
   -0.0530   10.1480   18.1240 C   0  0  0  0  0  0  0  0  0  0  0  0
    0.1750   11.4130   18.9750 C   0  0  0  0  0  0  0  0  0  0  0  0
    0.9650   11.1180   20.2650 C   0  0  0  0  0  0  0  0  0  0  0  0
    0.7870    9.6750   20.7140 C   0  0  0  0  0  0  0  0  0  0  0  0
    2.0180    9.5590   17.9260 H   0  0  0  0  0  0  0  0  0  0  0  0
    0.8370    8.2470   17.6950 H   0  0  0  0  0  0  0  0  0  0  0  0
   -0.1480   10.4130   17.0630 H   0  0  0  0  0  0  0  0  0  0  0  0
   -0.9900    9.6560   18.4180 H   0  0  0  0  0  0  0  0  0  0  0  0
    0.6620   11.7980   21.0710 H   0  0  0  0  0  0  0  0  0  0  0  0
    2.0340   11.3090   20.1070 H   0  0  0  0  0  0  0  0  0  0  0  0
    1.3340    9.5120   21.6490 H   0  0  0  0  0  0  0  0  0  0  0  0
   -0.2660    9.4410   20.9060 H   0  0  0  0  0  0  0  0  0  0  0  0
    5.4160    4.6510   15.6030 C   0  0  0  0  0  0  0  0  0  0  0  0
    5.6680    6.0220   15.6550 C   0  0  0  0  0  0  0  0  0  0  0  0
    4.9770    6.8350   16.5600 C   0  0  0  0  0  0  0  0  0  0  0  0
    4.0350    6.3160   17.4350 C   0  0  0  0  0  0  0  0  0  0  0  0
    3.3980    7.1420   18.2830 N   0  0  0  0  0  0  0  0  0  0  0  0
    2.4780    6.6060   19.1280 C   0  0  0  0  0  0  0  0  0  0  0  0
    2.1840    5.2510   19.1710 C   0  0  0  0  0  0  0  0  0  0  0  0
    2.8450    4.4030   18.2900 C   0  0  0  0  0  0  0  0  0  0  0  0
    3.7880    4.9270   17.3990 C   0  0  0  0  0  0  0  0  0  0  0  0
    4.4810    4.1060   16.4900 C   0  0  0  0  0  0  0  0  0  0  0  0
    6.4050    6.4730   14.9930 H   0  0  0  0  0  0  0  0  0  0  0  0
    5.1860    7.9020   16.5820 H   0  0  0  0  0  0  0  0  0  0  0  0
    1.4580    4.8590   19.8780 H   0  0  0  0  0  0  0  0  0  0  0  0
    2.6250    3.3380   18.3080 H   0  0  0  0  0  0  0  0  0  0  0  0
    4.2900    3.0350   16.4740 H   0  0  0  0  0  0  0  0  0  0  0  0
    6.1780    3.7670   14.6610 C   0  0  0  0  0  0  0  0  0  0  0  0
    6.1970    4.1960   13.6530 H   0  0  0  0  0  0  0  0  0  0  0  0
    5.7080    2.7820   14.5840 H   0  0  0  0  0  0  0  0  0  0  0  0
    7.2070    3.6440   15.0130 H   0  0  0  0  0  0  0  0  0  0  0  0
   -1.2030   12.0290   19.3270 C   0  0  0  0  0  0  0  0  0  0  0  0
   -2.2130   11.2100   18.9440 F   0  0  0  0  0  0  0  0  0  0  0  0
   -1.3960   13.2160   18.7060 F   0  0  0  0  0  0  0  0  0  0  0  0
   -1.3400   12.2320   20.6570 F   0  0  0  0  0  0  0  0  0  0  0  0
    0.9540   12.3450   18.1880 O   0  0  0  0  0  0  0  0  0  0  0  0
    0.3890   12.7090   17.4830 H   0  0  0  0  0  0  0  0  0  0  0  0
  1  2  2  0  0  0  0
  3  1  1  0  0  0  0
  3  8  1  0  0  0  0
  4  3  1  0  0  0  0
  5  4  1  0  0  0  0
  5 12  1  0  0  0  0
  5  6  1  0  0  0  0
  6 36  1  0  0  0  0
  6  7  1  0  0  0  0
  7  8  1  0  0  0  0
  7 13  1  0  0  0  0
  8 16  1  0  0  0  0
  8 15  1  0  0  0  0
  9  4  1  0  0  0  0
 10  4  1  0  0  0  0
 11  5  1  0  0  0  0
 14  7  1  0  0  0  0
 17 18  2  0  0  0  0
 17 26  1  0  0  0  0
 18 19  1  0  0  0  0
 19 28  1  0  0  0  0
 19 20  2  0  0  0  0
 20 21  1  0  0  0  0
 21 22  2  0  0  0  0
 22 23  1  0  0  0  0
 22  1  1  0  0  0  0
 23 29  1  0  0  0  0
 24 30  1  0  0  0  0
 24 23  2  0  0  0  0
 25 20  1  0  0  0  0
 25 24  1  0  0  0  0
 26 25  2  0  0  0  0
 27 18  1  0  0  0  0
 31 26  1  0  0  0  0
 32 35  1  0  0  0  0
 32 17  1  0  0  0  0
 33 32  1  0  0  0  0
 34 32  1  0  0  0  0
 36 39  1  0  0  0  0
 37 36  1  0  0  0  0
 38 36  1  0  0  0  0
 40  6  1  0  0  0  0
 41 40  1  0  0  0  0
M  END
>  <MODEL>
4

>  <REMARK>
 VINA RESULT:    -7.337      4.560      8.263
 INTER + INTRA:          -8.726
 INTER:                  -8.634
 INTRA:                  -0.092
 UNBOUND:                -0.102
  Name = 
  4 active torsions:
  status: ('A' for Active; 'I' for Inactive)
    1  A    between atoms: C_1  and  C_2
    2  A    between atoms: C_7  and  C_8
    3  A    between atoms: C_13  and  O_14
    4  A    between atoms: C_13  and  C_15
                            x       y       z     vdW  Elec       q    Type
                         _______ _______ _______ _____ _____    ______ ____

>  <TORSDO>
F 4

$$$$
=
 OpenBabel07192307433D

 41 43  0  0  0  0  0  0  0  0999 V2000
    2.7340    6.0050   19.2220 C   0  0  0  0  0  0  0  0  0  0  0  0
    2.4370    5.0250   19.9100 O   0  0  0  0  0  0  0  0  0  0  0  0
    3.6760    5.9130   18.1880 N   0  0  0  0  0  0  0  0  0  0  0  0
    4.2790    7.0660   17.5180 C   0  0  0  0  0  0  0  0  0  0  0  0
    5.6610    6.7460   16.9600 C   0  0  0  0  0  0  0  0  0  0  0  0
    5.6300    5.5470   15.9910 C   0  0  0  0  0  0  0  0  0  0  0  0
    4.5230    4.5350   16.3440 C   0  0  0  0  0  0  0  0  0  0  0  0
    4.1650    4.5870   17.8220 C   0  0  0  0  0  0  0  0  0  0  0  0
    3.6060    7.3700   16.7080 H   0  0  0  0  0  0  0  0  0  0  0  0
    4.3720    7.8970   18.2270 H   0  0  0  0  0  0  0  0  0  0  0  0
    6.0620    7.6340   16.4560 H   0  0  0  0  0  0  0  0  0  0  0  0
    6.3220    6.5310   17.8090 H   0  0  0  0  0  0  0  0  0  0  0  0
    4.8240    3.5160   16.0710 H   0  0  0  0  0  0  0  0  0  0  0  0
    3.6190    4.7410   15.7550 H   0  0  0  0  0  0  0  0  0  0  0  0
    3.4010    3.8330   18.0410 H   0  0  0  0  0  0  0  0  0  0  0  0
    5.0330    4.3660   18.4520 H   0  0  0  0  0  0  0  0  0  0  0  0
   -0.2420   11.1460   21.7400 C   0  0  0  0  0  0  0  0  0  0  0  0
   -0.0790   10.1410   22.6930 C   0  0  0  0  0  0  0  0  0  0  0  0
    0.5370    8.9330   22.3480 C   0  0  0  0  0  0  0  0  0  0  0  0
    1.0110    8.6950   21.0670 C   0  0  0  0  0  0  0  0  0  0  0  0
    1.5920    7.5150   20.7890 N   0  0  0  0  0  0  0  0  0  0  0  0
    2.0460    7.3080   19.5250 C   0  0  0  0  0  0  0  0  0  0  0  0
    1.9570    8.2600   18.5190 C   0  0  0  0  0  0  0  0  0  0  0  0
    1.3520    9.4770   18.8140 C   0  0  0  0  0  0  0  0  0  0  0  0
    0.8630    9.7150   20.1030 C   0  0  0  0  0  0  0  0  0  0  0  0
    0.2450   10.9310   20.4460 C   0  0  0  0  0  0  0  0  0  0  0  0
   -0.4270   10.2870   23.7140 H   0  0  0  0  0  0  0  0  0  0  0  0
    0.6530    8.1610   23.1050 H   0  0  0  0  0  0  0  0  0  0  0  0
    2.3520    8.0630   17.5270 H   0  0  0  0  0  0  0  0  0  0  0  0
    1.2700   10.2340   18.0370 H   0  0  0  0  0  0  0  0  0  0  0  0
    0.1420   11.7150   19.6980 H   0  0  0  0  0  0  0  0  0  0  0  0
   -0.8690   12.4580   22.1100 C   0  0  0  0  0  0  0  0  0  0  0  0
   -1.0450   13.0710   21.2200 H   0  0  0  0  0  0  0  0  0  0  0  0
   -0.2120   13.0310   22.7730 H   0  0  0  0  0  0  0  0  0  0  0  0
   -1.8230   12.2870   22.6170 H   0  0  0  0  0  0  0  0  0  0  0  0
    7.0140    4.8490   16.0210 C   0  0  0  0  0  0  0  0  0  0  0  0
    6.8840    3.5080   15.8760 F   0  0  0  0  0  0  0  0  0  0  0  0
    7.6580    5.0630   17.1920 F   0  0  0  0  0  0  0  0  0  0  0  0
    7.8180    5.2810   15.0240 F   0  0  0  0  0  0  0  0  0  0  0  0
    5.3530    6.0540   14.6630 O   0  0  0  0  0  0  0  0  0  0  0  0
    6.1770    6.4100   14.2860 H   0  0  0  0  0  0  0  0  0  0  0  0
  1 22  1  0  0  0  0
  1  2  2  0  0  0  0
  3  1  1  0  0  0  0
  4  3  1  0  0  0  0
  4 10  1  0  0  0  0
  5  4  1  0  0  0  0
  5 12  1  0  0  0  0
  6 36  1  0  0  0  0
  6  7  1  0  0  0  0
  6  5  1  0  0  0  0
  7  8  1  0  0  0  0
  8 15  1  0  0  0  0
  8  3  1  0  0  0  0
  8 16  1  0  0  0  0
  9  4  1  0  0  0  0
 11  5  1  0  0  0  0
 13  7  1  0  0  0  0
 14  7  1  0  0  0  0
 17 32  1  0  0  0  0
 17 18  1  0  0  0  0
 18 27  1  0  0  0  0
 19 18  2  0  0  0  0
 19 28  1  0  0  0  0
 20 19  1  0  0  0  0
 21 20  1  0  0  0  0
 22 21  2  0  0  0  0
 23 24  2  0  0  0  0
 23 22  1  0  0  0  0
 24 25  1  0  0  0  0
 25 26  1  0  0  0  0
 25 20  2  0  0  0  0
 26 17  2  0  0  0  0
 29 23  1  0  0  0  0
 30 24  1  0  0  0  0
 31 26  1  0  0  0  0
 32 35  1  0  0  0  0
 32 34  1  0  0  0  0
 33 32  1  0  0  0  0
 36 38  1  0  0  0  0
 37 36  1  0  0  0  0
 39 36  1  0  0  0  0
 40  6  1  0  0  0  0
 41 40  1  0  0  0  0
M  END
>  <MODEL>
5

>  <REMARK>
 VINA RESULT:    -7.237      2.167      3.328
 INTER + INTRA:          -8.609
 INTER:                  -8.962
 INTRA:                   0.354
 UNBOUND:                -0.102
  Name = 
  4 active torsions:
  status: ('A' for Active; 'I' for Inactive)
    1  A    between atoms: C_1  and  C_2
    2  A    between atoms: C_7  and  C_8
    3  A    between atoms: C_13  and  O_14
    4  A    between atoms: C_13  and  C_15
                            x       y       z     vdW  Elec       q    Type
                         _______ _______ _______ _____ _____    ______ ____

>  <TORSDO>
F 4

$$$$
=
 OpenBabel07192307433D

 41 43  0  0  0  0  0  0  0  0999 V2000
    0.2270    9.8580   20.1500 C   0  0  0  0  0  0  0  0  0  0  0  0
    0.3680   10.4400   21.2290 O   0  0  0  0  0  0  0  0  0  0  0  0
   -0.7390   10.2670   19.2200 N   0  0  0  0  0  0  0  0  0  0  0  0
   -1.1530    9.4760   18.0600 C   0  0  0  0  0  0  0  0  0  0  0  0
   -2.5810    9.7930   17.6310 C   0  0  0  0  0  0  0  0  0  0  0  0
   -2.7760   11.2920   17.3270 C   0  0  0  0  0  0  0  0  0  0  0  0
   -1.8480   12.1870   18.1720 C   0  0  0  0  0  0  0  0  0  0  0  0
   -1.4540   11.5130   19.4790 C   0  0  0  0  0  0  0  0  0  0  0  0
   -0.4560    9.6960   17.2430 H   0  0  0  0  0  0  0  0  0  0  0  0
   -1.0870    8.4100   18.2990 H   0  0  0  0  0  0  0  0  0  0  0  0
   -2.8360    9.1880   16.7520 H   0  0  0  0  0  0  0  0  0  0  0  0
   -3.2500    9.4800   18.4430 H   0  0  0  0  0  0  0  0  0  0  0  0
   -2.3240   13.1540   18.3820 H   0  0  0  0  0  0  0  0  0  0  0  0
   -0.9360   12.4260   17.6100 H   0  0  0  0  0  0  0  0  0  0  0  0
   -0.8250   12.1910   20.0650 H   0  0  0  0  0  0  0  0  0  0  0  0
   -2.3340   11.2740   20.0870 H   0  0  0  0  0  0  0  0  0  0  0  0
    4.5170    5.5920   17.9080 C   0  0  0  0  0  0  0  0  0  0  0  0
    4.4200    6.7000   17.0650 C   0  0  0  0  0  0  0  0  0  0  0  0
    3.5340    7.7410   17.3660 C   0  0  0  0  0  0  0  0  0  0  0  0
    2.7380    7.7180   18.5010 C   0  0  0  0  0  0  0  0  0  0  0  0
    1.9020    8.7430   18.7400 N   0  0  0  0  0  0  0  0  0  0  0  0
    1.1320    8.6930   19.8590 C   0  0  0  0  0  0  0  0  0  0  0  0
    1.1840    7.6480   20.7710 C   0  0  0  0  0  0  0  0  0  0  0  0
    2.0480    6.5900   20.5150 C   0  0  0  0  0  0  0  0  0  0  0  0
    2.8450    6.6070   19.3650 C   0  0  0  0  0  0  0  0  0  0  0  0
    3.7330    5.5580   19.0670 C   0  0  0  0  0  0  0  0  0  0  0  0
    5.0310    6.7660   16.1680 H   0  0  0  0  0  0  0  0  0  0  0  0
    3.4710    8.5940   16.6950 H   0  0  0  0  0  0  0  0  0  0  0  0
    0.5670    7.6570   21.6650 H   0  0  0  0  0  0  0  0  0  0  0  0
    2.0990    5.7610   21.2180 H   0  0  0  0  0  0  0  0  0  0  0  0
    3.8150    4.7090   19.7430 H   0  0  0  0  0  0  0  0  0  0  0  0
    5.4890    4.4890   17.6120 C   0  0  0  0  0  0  0  0  0  0  0  0
    6.2210    4.8040   16.8610 H   0  0  0  0  0  0  0  0  0  0  0  0
    4.9720    3.6110   17.2110 H   0  0  0  0  0  0  0  0  0  0  0  0
    6.0200    4.2030   18.5260 H   0  0  0  0  0  0  0  0  0  0  0  0
   -4.2570   11.6640   17.5940 C   0  0  0  0  0  0  0  0  0  0  0  0
   -4.9970   10.5560   17.8440 F   0  0  0  0  0  0  0  0  0  0  0  0
   -4.8170   12.2860   16.5300 F   0  0  0  0  0  0  0  0  0  0  0  0
   -4.3880   12.4790   18.6640 F   0  0  0  0  0  0  0  0  0  0  0  0
   -2.4460   11.5110   15.9350 O   0  0  0  0  0  0  0  0  0  0  0  0
   -3.2450   11.8120   15.4670 H   0  0  0  0  0  0  0  0  0  0  0  0
  1  2  2  0  0  0  0
  3  8  1  0  0  0  0
  3  1  1  0  0  0  0
  4 10  1  0  0  0  0
  4  3  1  0  0  0  0
  5  4  1  0  0  0  0
  5 12  1  0  0  0  0
  6 36  1  0  0  0  0
  6  5  1  0  0  0  0
  6  7  1  0  0  0  0
  7 13  1  0  0  0  0
  7  8  1  0  0  0  0
  8 15  1  0  0  0  0
  8 16  1  0  0  0  0
  9  4  1  0  0  0  0
 11  5  1  0  0  0  0
 14  7  1  0  0  0  0
 17 26  1  0  0  0  0
 18 19  1  0  0  0  0
 18 17  2  0  0  0  0
 19 20  2  0  0  0  0
 20 21  1  0  0  0  0
 20 25  1  0  0  0  0
 21 22  2  0  0  0  0
 22  1  1  0  0  0  0
 22 23  1  0  0  0  0
 23 29  1  0  0  0  0
 24 23  2  0  0  0  0
 24 30  1  0  0  0  0
 25 24  1  0  0  0  0
 26 25  2  0  0  0  0
 26 31  1  0  0  0  0
 27 18  1  0  0  0  0
 28 19  1  0  0  0  0
 32 17  1  0  0  0  0
 32 35  1  0  0  0  0
 33 32  1  0  0  0  0
 34 32  1  0  0  0  0
 36 37  1  0  0  0  0
 36 39  1  0  0  0  0
 38 36  1  0  0  0  0
 40  6  1  0  0  0  0
 41 40  1  0  0  0  0
M  END
>  <MODEL>
6

>  <REMARK>
 VINA RESULT:    -7.096      5.178      8.346
 INTER + INTRA:          -8.443
 INTER:                  -8.254
 INTRA:                  -0.189
 UNBOUND:                -0.102
  Name = 
  4 active torsions:
  status: ('A' for Active; 'I' for Inactive)
    1  A    between atoms: C_1  and  C_2
    2  A    between atoms: C_7  and  C_8
    3  A    between atoms: C_13  and  O_14
    4  A    between atoms: C_13  and  C_15
                            x       y       z     vdW  Elec       q    Type
                         _______ _______ _______ _____ _____    ______ ____

>  <TORSDO>
F 4

$$$$
=
 OpenBabel07192307433D

 41 43  0  0  0  0  0  0  0  0999 V2000
    2.6090    5.7800   19.2570 C   0  0  0  0  0  0  0  0  0  0  0  0
    2.1940    4.7340   19.7640 O   0  0  0  0  0  0  0  0  0  0  0  0
    3.5830    5.7650   18.2480 N   0  0  0  0  0  0  0  0  0  0  0  0
    4.3180    6.9470   17.7960 C   0  0  0  0  0  0  0  0  0  0  0  0
    5.6880    6.5870   17.2310 C   0  0  0  0  0  0  0  0  0  0  0  0
    5.5880    5.5700   16.0760 C   0  0  0  0  0  0  0  0  0  0  0  0
    4.3770    4.6290   16.2250 C   0  0  0  0  0  0  0  0  0  0  0  0
    3.9620    4.4740   17.6810 C   0  0  0  0  0  0  0  0  0  0  0  0
    3.7120    7.4430   17.0300 H   0  0  0  0  0  0  0  0  0  0  0  0
    4.4570    7.6370   18.6350 H   0  0  0  0  0  0  0  0  0  0  0  0
    6.1910    7.5010   16.8930 H   0  0  0  0  0  0  0  0  0  0  0  0
    6.2890    6.1720   18.0500 H   0  0  0  0  0  0  0  0  0  0  0  0
    4.5940    3.6430   15.7950 H   0  0  0  0  0  0  0  0  0  0  0  0
    3.5230    5.0160   15.6540 H   0  0  0  0  0  0  0  0  0  0  0  0
    3.1230    3.7740   17.7510 H   0  0  0  0  0  0  0  0  0  0  0  0
    4.7780    4.0690   18.2900 H   0  0  0  0  0  0  0  0  0  0  0  0
    0.1930   11.6970   20.1370 C   0  0  0  0  0  0  0  0  0  0  0  0
    0.5960   11.5080   18.8150 C   0  0  0  0  0  0  0  0  0  0  0  0
    1.1600   10.2920   18.4140 C   0  0  0  0  0  0  0  0  0  0  0  0
    1.3280    9.2380   19.3000 C   0  0  0  0  0  0  0  0  0  0  0  0
    1.8780    8.0920   18.8630 N   0  0  0  0  0  0  0  0  0  0  0  0
    2.0330    7.0770   19.7530 C   0  0  0  0  0  0  0  0  0  0  0  0
    1.6330    7.1610   21.0800 C   0  0  0  0  0  0  0  0  0  0  0  0
    1.0680    8.3510   21.5250 C   0  0  0  0  0  0  0  0  0  0  0  0
    0.9070    9.4180   20.6350 C   0  0  0  0  0  0  0  0  0  0  0  0
    0.3400   10.6400   21.0420 C   0  0  0  0  0  0  0  0  0  0  0  0
    0.4760   12.3040   18.0820 H   0  0  0  0  0  0  0  0  0  0  0  0
    1.4700   10.1650   17.3800 H   0  0  0  0  0  0  0  0  0  0  0  0
    1.7540    6.3180   21.7540 H   0  0  0  0  0  0  0  0  0  0  0  0
    0.7520    8.4360   22.5620 H   0  0  0  0  0  0  0  0  0  0  0  0
    0.0110   10.7670   22.0710 H   0  0  0  0  0  0  0  0  0  0  0  0
   -0.4440   12.9850   20.5660 C   0  0  0  0  0  0  0  0  0  0  0  0
   -1.5370   12.9080   20.5370 H   0  0  0  0  0  0  0  0  0  0  0  0
   -0.1590   13.8030   19.8970 H   0  0  0  0  0  0  0  0  0  0  0  0
   -0.1340   13.2350   21.5860 H   0  0  0  0  0  0  0  0  0  0  0  0
    6.8990    4.7440   16.0280 C   0  0  0  0  0  0  0  0  0  0  0  0
    6.6350    3.4240   15.8760 F   0  0  0  0  0  0  0  0  0  0  0  0
    7.6180    4.8790   17.1660 F   0  0  0  0  0  0  0  0  0  0  0  0
    7.6900    5.1120   14.9950 F   0  0  0  0  0  0  0  0  0  0  0  0
    5.4170    6.3110   14.8440 O   0  0  0  0  0  0  0  0  0  0  0  0
    4.7240    6.9820   14.9760 H   0  0  0  0  0  0  0  0  0  0  0  0
  1 22  1  0  0  0  0
  1  2  2  0  0  0  0
  3  1  1  0  0  0  0
  4  3  1  0  0  0  0
  4 10  1  0  0  0  0
  5  4  1  0  0  0  0
  5 12  1  0  0  0  0
  6  7  1  0  0  0  0
  6  5  1  0  0  0  0
  7  8  1  0  0  0  0
  8 15  1  0  0  0  0
  8  3  1  0  0  0  0
  8 16  1  0  0  0  0
  9  4  1  0  0  0  0
 11  5  1  0  0  0  0
 13  7  1  0  0  0  0
 14  7  1  0  0  0  0
 17 32  1  0  0  0  0
 17 26  1  0  0  0  0
 18 17  2  0  0  0  0
 19 18  1  0  0  0  0
 19 20  2  0  0  0  0
 20 25  1  0  0  0  0
 21 20  1  0  0  0  0
 21 22  2  0  0  0  0
 22 23  1  0  0  0  0
 23 24  2  0  0  0  0
 23 29  1  0  0  0  0
 24 30  1  0  0  0  0
 25 26  2  0  0  0  0
 25 24  1  0  0  0  0
 26 31  1  0  0  0  0
 27 18  1  0  0  0  0
 28 19  1  0  0  0  0
 32 35  1  0  0  0  0
 33 32  1  0  0  0  0
 34 32  1  0  0  0  0
 36  6  1  0  0  0  0
 36 38  1  0  0  0  0
 37 36  1  0  0  0  0
 39 36  1  0  0  0  0
 40 41  1  0  0  0  0
 40  6  1  0  0  0  0
M  END
>  <MODEL>
7

>  <REMARK>
 VINA RESULT:    -6.953      2.216      3.734
 INTER + INTRA:          -8.275
 INTER:                  -8.365
 INTRA:                   0.090
 UNBOUND:                -0.102
  Name = 
  4 active torsions:
  status: ('A' for Active; 'I' for Inactive)
    1  A    between atoms: C_1  and  C_2
    2  A    between atoms: C_7  and  C_8
    3  A    between atoms: C_13  and  O_14
    4  A    between atoms: C_13  and  C_15
                            x       y       z     vdW  Elec       q    Type
                         _______ _______ _______ _____ _____    ______ ____

>  <TORSDO>
F 4

$$$$
=
 OpenBabel07192307433D

 41 43  0  0  0  0  0  0  0  0999 V2000
    1.2960    8.8110   21.0210 C   0  0  0  0  0  0  0  0  0  0  0  0
    1.6360    8.9080   22.2030 O   0  0  0  0  0  0  0  0  0  0  0  0
    0.5070    9.7930   20.4050 N   0  0  0  0  0  0  0  0  0  0  0  0
   -0.1600    9.6230   19.1140 C   0  0  0  0  0  0  0  0  0  0  0  0
   -1.4080   10.4910   18.9960 C   0  0  0  0  0  0  0  0  0  0  0  0
   -1.0990   11.9840   19.2230 C   0  0  0  0  0  0  0  0  0  0  0  0
    0.0840   12.1990   20.1870 C   0  0  0  0  0  0  0  0  0  0  0  0
    0.2490   11.0260   21.1430 C   0  0  0  0  0  0  0  0  0  0  0  0
    0.5590    9.8890   18.3310 H   0  0  0  0  0  0  0  0  0  0  0  0
   -0.4490    8.5750   18.9840 H   0  0  0  0  0  0  0  0  0  0  0  0
   -1.8620   10.3390   18.0090 H   0  0  0  0  0  0  0  0  0  0  0  0
   -2.1330   10.1360   19.7410 H   0  0  0  0  0  0  0  0  0  0  0  0
   -0.0420   13.1280   20.7570 H   0  0  0  0  0  0  0  0  0  0  0  0
    1.0160   12.3260   19.6210 H   0  0  0  0  0  0  0  0  0  0  0  0
    1.0760   11.2300   21.8320 H   0  0  0  0  0  0  0  0  0  0  0  0
   -0.6510   10.8720   21.7470 H   0  0  0  0  0  0  0  0  0  0  0  0
    2.7280    2.9630   18.7020 C   0  0  0  0  0  0  0  0  0  0  0  0
    2.1290    2.8740   19.9590 C   0  0  0  0  0  0  0  0  0  0  0  0
    1.7490    4.0330   20.6440 C   0  0  0  0  0  0  0  0  0  0  0  0
    1.9400    5.2960   20.1050 C   0  0  0  0  0  0  0  0  0  0  0  0
    1.5590    6.3770   20.8070 N   0  0  0  0  0  0  0  0  0  0  0  0
    1.7600    7.6030   20.2550 C   0  0  0  0  0  0  0  0  0  0  0  0
    2.3180    7.7880   18.9980 C   0  0  0  0  0  0  0  0  0  0  0  0
    2.7130    6.6660   18.2790 C   0  0  0  0  0  0  0  0  0  0  0  0
    2.5300    5.3910   18.8260 C   0  0  0  0  0  0  0  0  0  0  0  0
    2.9150    4.2280   18.1340 C   0  0  0  0  0  0  0  0  0  0  0  0
    1.9510    1.9040   20.4180 H   0  0  0  0  0  0  0  0  0  0  0  0
    1.2860    3.9430   21.6240 H   0  0  0  0  0  0  0  0  0  0  0  0
    2.4420    8.7840   18.5830 H   0  0  0  0  0  0  0  0  0  0  0  0
    3.1550    6.7920   17.2940 H   0  0  0  0  0  0  0  0  0  0  0  0
    3.3620    4.3100   17.1450 H   0  0  0  0  0  0  0  0  0  0  0  0
    3.1070    1.7240   17.9450 C   0  0  0  0  0  0  0  0  0  0  0  0
    2.3670    1.5010   17.1680 H   0  0  0  0  0  0  0  0  0  0  0  0
    3.1470    0.8570   18.6120 H   0  0  0  0  0  0  0  0  0  0  0  0
    4.0860    1.8580   17.4750 H   0  0  0  0  0  0  0  0  0  0  0  0
   -2.3700   12.6750   19.7810 C   0  0  0  0  0  0  0  0  0  0  0  0
   -2.6860   12.1900   21.0070 F   0  0  0  0  0  0  0  0  0  0  0  0
   -3.4430   12.4710   18.9820 F   0  0  0  0  0  0  0  0  0  0  0  0
   -2.2010   14.0100   19.9130 F   0  0  0  0  0  0  0  0  0  0  0  0
   -0.7340   12.5620   17.9460 O   0  0  0  0  0  0  0  0  0  0  0  0
   -0.8660   13.5250   17.9890 H   0  0  0  0  0  0  0  0  0  0  0  0
  1  2  2  0  0  0  0
  3  1  1  0  0  0  0
  3  8  1  0  0  0  0
  4  3  1  0  0  0  0
  5  4  1  0  0  0  0
  5  6  1  0  0  0  0
  5 12  1  0  0  0  0
  6 36  1  0  0  0  0
  6  7  1  0  0  0  0
  7 13  1  0  0  0  0
  7  8  1  0  0  0  0
  8 16  1  0  0  0  0
  8 15  1  0  0  0  0
  9  4  1  0  0  0  0
 10  4  1  0  0  0  0
 11  5  1  0  0  0  0
 14  7  1  0  0  0  0
 17 18  1  0  0  0  0
 18 27  1  0  0  0  0
 18 19  2  0  0  0  0
 19 28  1  0  0  0  0
 20 19  1  0  0  0  0
 20 21  1  0  0  0  0
 22 21  2  0  0  0  0
 22  1  1  0  0  0  0
 23 22  1  0  0  0  0
 24 25  1  0  0  0  0
 24 23  2  0  0  0  0
 25 20  2  0  0  0  0
 26 17  2  0  0  0  0
 26 25  1  0  0  0  0
 29 23  1  0  0  0  0
 30 24  1  0  0  0  0
 31 26  1  0  0  0  0
 32 34  1  0  0  0  0
 32 17  1  0  0  0  0
 33 32  1  0  0  0  0
 35 32  1  0  0  0  0
 36 39  1  0  0  0  0
 36 37  1  0  0  0  0
 38 36  1  0  0  0  0
 40 41  1  0  0  0  0
 40  6  1  0  0  0  0
M  END
>  <MODEL>
8

>  <REMARK>
 VINA RESULT:    -6.930      5.029      8.269
 INTER + INTRA:          -8.248
 INTER:                  -8.301
 INTRA:                   0.054
 UNBOUND:                -0.102
  Name = 
  4 active torsions:
  status: ('A' for Active; 'I' for Inactive)
    1  A    between atoms: C_1  and  C_2
    2  A    between atoms: C_7  and  C_8
    3  A    between atoms: C_13  and  O_14
    4  A    between atoms: C_13  and  C_15
                            x       y       z     vdW  Elec       q    Type
                         _______ _______ _______ _____ _____    ______ ____

>  <TORSDO>
F 4

$$$$
=
 OpenBabel07192307433D

 41 43  0  0  0  0  0  0  0  0999 V2000
    2.9280    7.5080   18.1470 C   0  0  0  0  0  0  0  0  0  0  0  0
    3.7730    8.0090   17.4010 O   0  0  0  0  0  0  0  0  0  0  0  0
    2.9370    6.1370   18.4430 N   0  0  0  0  0  0  0  0  0  0  0  0
    1.8300    5.4250   19.0820 C   0  0  0  0  0  0  0  0  0  0  0  0
    1.8010    3.9500   18.7000 C   0  0  0  0  0  0  0  0  0  0  0  0
    3.1290    3.2400   19.0330 C   0  0  0  0  0  0  0  0  0  0  0  0
    4.3390    4.1900   18.9490 C   0  0  0  0  0  0  0  0  0  0  0  0
    4.0800    5.3470   17.9950 C   0  0  0  0  0  0  0  0  0  0  0  0
    1.9470    5.5320   20.1660 H   0  0  0  0  0  0  0  0  0  0  0  0
    0.8790    5.8820   18.7860 H   0  0  0  0  0  0  0  0  0  0  0  0
    0.9660    3.4590   19.2150 H   0  0  0  0  0  0  0  0  0  0  0  0
    1.5970    3.8870   17.6230 H   0  0  0  0  0  0  0  0  0  0  0  0
    5.2400    3.6460   18.6360 H   0  0  0  0  0  0  0  0  0  0  0  0
    4.5720    4.5960   19.9410 H   0  0  0  0  0  0  0  0  0  0  0  0
    4.9720    5.9790   17.9350 H   0  0  0  0  0  0  0  0  0  0  0  0
    3.8630    4.9900   16.9820 H   0  0  0  0  0  0  0  0  0  0  0  0
   -1.9610   11.5110   19.4460 C   0  0  0  0  0  0  0  0  0  0  0  0
   -1.8240   11.3130   18.0720 C   0  0  0  0  0  0  0  0  0  0  0  0
   -0.8120   10.4830   17.5760 C   0  0  0  0  0  0  0  0  0  0  0  0
    0.0740    9.8280   18.4170 C   0  0  0  0  0  0  0  0  0  0  0  0
    1.0290    9.0450   17.8870 N   0  0  0  0  0  0  0  0  0  0  0  0
    1.8850    8.4170   18.7350 C   0  0  0  0  0  0  0  0  0  0  0  0
    1.8060    8.5290   20.1160 C   0  0  0  0  0  0  0  0  0  0  0  0
    0.8170    9.3420   20.6580 C   0  0  0  0  0  0  0  0  0  0  0  0
   -0.0710   10.0130   19.8090 C   0  0  0  0  0  0  0  0  0  0  0  0
   -1.0870   10.8460   20.3130 C   0  0  0  0  0  0  0  0  0  0  0  0
   -2.5020   11.7990   17.3740 H   0  0  0  0  0  0  0  0  0  0  0  0
   -0.7200   10.3430   16.5010 H   0  0  0  0  0  0  0  0  0  0  0  0
    2.4960    7.9920   20.7610 H   0  0  0  0  0  0  0  0  0  0  0  0
    0.7420    9.4450   21.7380 H   0  0  0  0  0  0  0  0  0  0  0  0
   -1.1970   10.9760   21.3880 H   0  0  0  0  0  0  0  0  0  0  0  0
   -3.0650   12.3700   19.9890 C   0  0  0  0  0  0  0  0  0  0  0  0
   -3.0630   12.3620   21.0850 H   0  0  0  0  0  0  0  0  0  0  0  0
   -4.0430   12.0000   19.6640 H   0  0  0  0  0  0  0  0  0  0  0  0
   -2.9420   13.4010   19.6420 H   0  0  0  0  0  0  0  0  0  0  0  0
    3.3170    2.0540   18.0530 C   0  0  0  0  0  0  0  0  0  0  0  0
    3.6170    0.9140   18.7220 F   0  0  0  0  0  0  0  0  0  0  0  0
    4.3240    2.2810   17.1780 F   0  0  0  0  0  0  0  0  0  0  0  0
    2.1960    1.8100   17.3370 F   0  0  0  0  0  0  0  0  0  0  0  0
    3.0460    2.7560   20.3950 O   0  0  0  0  0  0  0  0  0  0  0  0
    2.2690    2.1750   20.4750 H   0  0  0  0  0  0  0  0  0  0  0  0
  1  3  1  0  0  0  0
  1 22  1  0  0  0  0
  2  1  2  0  0  0  0
  3  4  1  0  0  0  0
  4  9  1  0  0  0  0
  5  6  1  0  0  0  0
  5  4  1  0  0  0  0
  5 11  1  0  0  0  0
  6 40  1  0  0  0  0
  7  6  1  0  0  0  0
  7 14  1  0  0  0  0
  8  3  1  0  0  0  0
  8  7  1  0  0  0  0
 10  4  1  0  0  0  0
 12  5  1  0  0  0  0
 13  7  1  0  0  0  0
 15  8  1  0  0  0  0
 16  8  1  0  0  0  0
 17 32  1  0  0  0  0
 17 26  1  0  0  0  0
 18 17  2  0  0  0  0
 19 18  1  0  0  0  0
 19 20  2  0  0  0  0
 20 25  1  0  0  0  0
 21 20  1  0  0  0  0
 21 22  2  0  0  0  0
 22 23  1  0  0  0  0
 23 24  2  0  0  0  0
 23 29  1  0  0  0  0
 24 30  1  0  0  0  0
 25 26  2  0  0  0  0
 25 24  1  0  0  0  0
 26 31  1  0  0  0  0
 27 18  1  0  0  0  0
 28 19  1  0  0  0  0
 32 33  1  0  0  0  0
 34 32  1  0  0  0  0
 35 32  1  0  0  0  0
 36 37  1  0  0  0  0
 36  6  1  0  0  0  0
 38 36  1  0  0  0  0
 39 36  1  0  0  0  0
 40 41  1  0  0  0  0
M  END
>  <MODEL>
9

>  <REMARK>
 VINA RESULT:    -6.822      1.173      2.212
 INTER + INTRA:          -8.121
 INTER:                  -7.972
 INTRA:                  -0.149
 UNBOUND:                -0.102
  Name = 
  4 active torsions:
  status: ('A' for Active; 'I' for Inactive)
    1  A    between atoms: C_1  and  C_2
    2  A    between atoms: C_7  and  C_8
    3  A    between atoms: C_13  and  O_14
    4  A    between atoms: C_13  and  C_15
                            x       y       z     vdW  Elec       q    Type
                         _______ _______ _______ _____ _____    ______ ____

>  <TORSDO>
F 4

$$$$
=
 OpenBabel07192307433D

 41 43  0  0  0  0  0  0  0  0999 V2000
    5.7420    4.6770   17.1560 C   0  0  0  0  0  0  0  0  0  0  0  0
    5.9580    4.2470   16.0200 O   0  0  0  0  0  0  0  0  0  0  0  0
    4.6780    4.1940   17.9300 N   0  0  0  0  0  0  0  0  0  0  0  0
    4.1920    4.8340   19.1540 C   0  0  0  0  0  0  0  0  0  0  0  0
    2.7190    4.5370   19.4090 C   0  0  0  0  0  0  0  0  0  0  0  0
    2.4350    3.0230   19.4730 C   0  0  0  0  0  0  0  0  0  0  0  0
    3.3990    2.2070   18.5890 C   0  0  0  0  0  0  0  0  0  0  0  0
    3.9390    3.0370   17.4330 C   0  0  0  0  0  0  0  0  0  0  0  0
    4.8010    4.4630   19.9870 H   0  0  0  0  0  0  0  0  0  0  0  0
    4.3230    5.9180   19.0790 H   0  0  0  0  0  0  0  0  0  0  0  0
    2.4090    5.0240   20.3420 H   0  0  0  0  0  0  0  0  0  0  0  0
    2.1410    4.9970   18.5970 H   0  0  0  0  0  0  0  0  0  0  0  0
    2.9050    1.3070   18.2010 H   0  0  0  0  0  0  0  0  0  0  0  0
    4.2450    1.8430   19.1870 H   0  0  0  0  0  0  0  0  0  0  0  0
    4.5910    2.4160   16.8100 H   0  0  0  0  0  0  0  0  0  0  0  0
    3.1300    3.4070   16.7930 H   0  0  0  0  0  0  0  0  0  0  0  0
    9.0070   10.0270   18.6860 C   0  0  0  0  0  0  0  0  0  0  0  0
    8.0680   10.2790   17.6850 C   0  0  0  0  0  0  0  0  0  0  0  0
    7.2590    9.2450   17.2000 C   0  0  0  0  0  0  0  0  0  0  0  0
    7.3510    7.9530   17.6930 C   0  0  0  0  0  0  0  0  0  0  0  0
    6.5520    6.9970   17.1890 N   0  0  0  0  0  0  0  0  0  0  0  0
    6.6640    5.7390   17.6900 C   0  0  0  0  0  0  0  0  0  0  0  0
    7.5460    5.4010   18.7070 C   0  0  0  0  0  0  0  0  0  0  0  0
    8.3710    6.3950   19.2220 C   0  0  0  0  0  0  0  0  0  0  0  0
    8.2870    7.6970   18.7170 C   0  0  0  0  0  0  0  0  0  0  0  0
    9.1030    8.7330   19.2090 C   0  0  0  0  0  0  0  0  0  0  0  0
    7.9540   11.2800   17.2740 H   0  0  0  0  0  0  0  0  0  0  0  0
    6.5360    9.4610   16.4170 H   0  0  0  0  0  0  0  0  0  0  0  0
    7.5890    4.3880   19.0950 H   0  0  0  0  0  0  0  0  0  0  0  0
    9.0700    6.1480   20.0170 H   0  0  0  0  0  0  0  0  0  0  0  0
    9.8170    8.5290   20.0040 H   0  0  0  0  0  0  0  0  0  0  0  0
    9.8530   11.1370   19.2380 C   0  0  0  0  0  0  0  0  0  0  0  0
    9.2740   11.7640   19.9260 H   0  0  0  0  0  0  0  0  0  0  0  0
   10.2160   11.7870   18.4350 H   0  0  0  0  0  0  0  0  0  0  0  0
   10.7110   10.7210   19.7750 H   0  0  0  0  0  0  0  0  0  0  0  0
    0.9710    2.7730   19.0300 C   0  0  0  0  0  0  0  0  0  0  0  0
    0.6130    3.6230   18.0370 F   0  0  0  0  0  0  0  0  0  0  0  0
    0.1010    2.9600   20.0490 F   0  0  0  0  0  0  0  0  0  0  0  0
    0.7930    1.5170   18.5620 F   0  0  0  0  0  0  0  0  0  0  0  0
    2.6260    2.5920   20.8420 O   0  0  0  0  0  0  0  0  0  0  0  0
    2.0890    3.1560   21.4260 H   0  0  0  0  0  0  0  0  0  0  0  0
  1 22  1  0  0  0  0
  1  3  1  0  0  0  0
  2  1  2  0  0  0  0
  3  4  1  0  0  0  0
  4  5  1  0  0  0  0
  4  9  1  0  0  0  0
  5  6  1  0  0  0  0
  5 11  1  0  0  0  0
  6 40  1  0  0  0  0
  7 14  1  0  0  0  0
  7  6  1  0  0  0  0
  8  3  1  0  0  0  0
  8  7  1  0  0  0  0
 10  4  1  0  0  0  0
 12  5  1  0  0  0  0
 13  7  1  0  0  0  0
 15  8  1  0  0  0  0
 16  8  1  0  0  0  0
 17 26  1  0  0  0  0
 17 32  1  0  0  0  0
 18 17  2  0  0  0  0
 19 18  1  0  0  0  0
 19 20  2  0  0  0  0
 20 25  1  0  0  0  0
 21 22  2  0  0  0  0
 21 20  1  0  0  0  0
 22 23  1  0  0  0  0
 23 29  1  0  0  0  0
 23 24  2  0  0  0  0
 24 30  1  0  0  0  0
 25 26  2  0  0  0  0
 25 24  1  0  0  0  0
 26 31  1  0  0  0  0
 27 18  1  0  0  0  0
 28 19  1  0  0  0  0
 32 35  1  0  0  0  0
 32 33  1  0  0  0  0
 34 32  1  0  0  0  0
 36  6  1  0  0  0  0
 36 38  1  0  0  0  0
 37 36  1  0  0  0  0
 39 36  1  0  0  0  0
 40 41  1  0  0  0  0
M  END
>  <MODEL>
10

>  <REMARK>
 VINA RESULT:    -6.738      4.611      6.277
 INTER + INTRA:          -8.022
 INTER:                  -7.688
 INTRA:                  -0.334
 UNBOUND:                -0.102
  Name = 
  4 active torsions:
  status: ('A' for Active; 'I' for Inactive)
    1  A    between atoms: C_1  and  C_2
    2  A    between atoms: C_7  and  C_8
    3  A    between atoms: C_13  and  O_14
    4  A    between atoms: C_13  and  C_15
                            x       y       z     vdW  Elec       q    Type
                         _______ _______ _______ _____ _____    ______ ____

>  <TORSDO>
F 4

$$$$
=
 OpenBabel07192307433D

 41 43  0  0  0  0  0  0  0  0999 V2000
    1.3670    8.4450   20.8120 C   0  0  0  0  0  0  0  0  0  0  0  0
    1.4790    8.3690   22.0380 O   0  0  0  0  0  0  0  0  0  0  0  0
    0.6860    9.5110   20.2070 N   0  0  0  0  0  0  0  0  0  0  0  0
    0.2740    9.5340   18.8020 C   0  0  0  0  0  0  0  0  0  0  0  0
   -0.9480   10.4180   18.5790 C   0  0  0  0  0  0  0  0  0  0  0  0
   -0.7170   11.8610   19.0700 C   0  0  0  0  0  0  0  0  0  0  0  0
    0.2610   11.9260   20.2590 C   0  0  0  0  0  0  0  0  0  0  0  0
    0.2700   10.6270   21.0510 C   0  0  0  0  0  0  0  0  0  0  0  0
    1.1200    9.9050   18.2130 H   0  0  0  0  0  0  0  0  0  0  0  0
    0.0360    8.5170   18.4720 H   0  0  0  0  0  0  0  0  0  0  0  0
   -1.2070   10.4130   17.5130 H   0  0  0  0  0  0  0  0  0  0  0  0
   -1.7910    9.9640   19.1160 H   0  0  0  0  0  0  0  0  0  0  0  0
    0.0130   12.7640   20.9230 H   0  0  0  0  0  0  0  0  0  0  0  0
    1.2800   12.1280   19.9010 H   0  0  0  0  0  0  0  0  0  0  0  0
    0.9500   10.7230   21.9050 H   0  0  0  0  0  0  0  0  0  0  0  0
   -0.7240   10.3930   21.4490 H   0  0  0  0  0  0  0  0  0  0  0  0
    4.6670    4.7570   16.6740 C   0  0  0  0  0  0  0  0  0  0  0  0
    4.8870    6.1120   16.4270 C   0  0  0  0  0  0  0  0  0  0  0  0
    4.2530    7.0850   17.2090 C   0  0  0  0  0  0  0  0  0  0  0  0
    3.4040    6.7450   18.2500 C   0  0  0  0  0  0  0  0  0  0  0  0
    2.8190    7.7190   18.9680 N   0  0  0  0  0  0  0  0  0  0  0  0
    1.9890    7.3570   19.9820 C   0  0  0  0  0  0  0  0  0  0  0  0
    1.7350    6.0360   20.3210 C   0  0  0  0  0  0  0  0  0  0  0  0
    2.3420    5.0330   19.5730 C   0  0  0  0  0  0  0  0  0  0  0  0
    3.1910    5.3750   18.5140 C   0  0  0  0  0  0  0  0  0  0  0  0
    3.8260    4.3940   17.7310 C   0  0  0  0  0  0  0  0  0  0  0  0
    5.5530    6.4270   15.6250 H   0  0  0  0  0  0  0  0  0  0  0  0
    4.4360    8.1360   16.9980 H   0  0  0  0  0  0  0  0  0  0  0  0
    1.0820    5.7880   21.1530 H   0  0  0  0  0  0  0  0  0  0  0  0
    2.1520    3.9920   19.8230 H   0  0  0  0  0  0  0  0  0  0  0  0
    3.6630    3.3390   17.9470 H   0  0  0  0  0  0  0  0  0  0  0  0
    5.3700    3.7080   15.8640 C   0  0  0  0  0  0  0  0  0  0  0  0
    4.6580    2.9660   15.4840 H   0  0  0  0  0  0  0  0  0  0  0  0
    6.1030    3.1700   16.4730 H   0  0  0  0  0  0  0  0  0  0  0  0
    5.8840    4.1710   15.0160 H   0  0  0  0  0  0  0  0  0  0  0  0
   -2.0830   12.4720   19.4740 C   0  0  0  0  0  0  0  0  0  0  0  0
   -3.0060   12.2840   18.4990 F   0  0  0  0  0  0  0  0  0  0  0  0
   -1.9930   13.8050   19.6870 F   0  0  0  0  0  0  0  0  0  0  0  0
   -2.5750   11.9070   20.6000 F   0  0  0  0  0  0  0  0  0  0  0  0
   -0.1330   12.6140   17.9800 O   0  0  0  0  0  0  0  0  0  0  0  0
   -0.6400   12.4350   17.1690 H   0  0  0  0  0  0  0  0  0  0  0  0
  1  2  2  0  0  0  0
  3  1  1  0  0  0  0
  3  8  1  0  0  0  0
  4  3  1  0  0  0  0
  5  4  1  0  0  0  0
  5  6  1  0  0  0  0
  5 12  1  0  0  0  0
  6 36  1  0  0  0  0
  6  7  1  0  0  0  0
  7 13  1  0  0  0  0
  7  8  1  0  0  0  0
  8 16  1  0  0  0  0
  8 15  1  0  0  0  0
  9  4  1  0  0  0  0
 10  4  1  0  0  0  0
 11  5  1  0  0  0  0
 14  7  1  0  0  0  0
 17 26  1  0  0  0  0
 18 17  2  0  0  0  0
 18 19  1  0  0  0  0
 19 20  2  0  0  0  0
 20 25  1  0  0  0  0
 20 21  1  0  0  0  0
 21 22  2  0  0  0  0
 22 23  1  0  0  0  0
 22  1  1  0  0  0  0
 23 29  1  0  0  0  0
 24 30  1  0  0  0  0
 24 23  2  0  0  0  0
 25 24  1  0  0  0  0
 26 31  1  0  0  0  0
 26 25  2  0  0  0  0
 27 18  1  0  0  0  0
 28 19  1  0  0  0  0
 32 34  1  0  0  0  0
 32 17  1  0  0  0  0
 33 32  1  0  0  0  0
 35 32  1  0  0  0  0
 36 38  1  0  0  0  0
 36 39  1  0  0  0  0
 37 36  1  0  0  0  0
 40  6  1  0  0  0  0
 41 40  1  0  0  0  0
M  END
>  <MODEL>
11

>  <REMARK>
 VINA RESULT:    -6.691      4.880      8.325
 INTER + INTRA:          -7.966
 INTER:                  -7.880
 INTRA:                  -0.086
 UNBOUND:                -0.102
  Name = 
  4 active torsions:
  status: ('A' for Active; 'I' for Inactive)
    1  A    between atoms: C_1  and  C_2
    2  A    between atoms: C_7  and  C_8
    3  A    between atoms: C_13  and  O_14
    4  A    between atoms: C_13  and  C_15
                            x       y       z     vdW  Elec       q    Type
                         _______ _______ _______ _____ _____    ______ ____

>  <TORSDO>
F 4

$$$$
=
 OpenBabel07192307433D

 41 43  0  0  0  0  0  0  0  0999 V2000
    0.7990    9.3310   21.2520 C   0  0  0  0  0  0  0  0  0  0  0  0
    1.0270    9.2300   22.4600 O   0  0  0  0  0  0  0  0  0  0  0  0
   -0.0570   10.3230   20.7520 N   0  0  0  0  0  0  0  0  0  0  0  0
   -0.5910   10.3390   19.3890 C   0  0  0  0  0  0  0  0  0  0  0  0
   -1.9270   11.0700   19.3060 C   0  0  0  0  0  0  0  0  0  0  0  0
   -1.8310   12.5140   19.8380 C   0  0  0  0  0  0  0  0  0  0  0  0
   -0.7670   12.6630   20.9420 C   0  0  0  0  0  0  0  0  0  0  0  0
   -0.5300   11.3500   21.6750 C   0  0  0  0  0  0  0  0  0  0  0  0
    0.1480   10.8320   18.7480 H   0  0  0  0  0  0  0  0  0  0  0  0
   -0.7320    9.3120   19.0370 H   0  0  0  0  0  0  0  0  0  0  0  0
   -2.2760   11.0680   18.2660 H   0  0  0  0  0  0  0  0  0  0  0  0
   -2.6570   10.4970   19.8930 H   0  0  0  0  0  0  0  0  0  0  0  0
   -1.0560   13.4410   21.6600 H   0  0  0  0  0  0  0  0  0  0  0  0
    0.1840   13.0020   20.5100 H   0  0  0  0  0  0  0  0  0  0  0  0
    0.2050   11.5030   22.4730 H   0  0  0  0  0  0  0  0  0  0  0  0
   -1.4490   10.9820   22.1440 H   0  0  0  0  0  0  0  0  0  0  0  0
    3.4070    4.2800   18.2020 C   0  0  0  0  0  0  0  0  0  0  0  0
    2.9640    3.9260   19.4760 C   0  0  0  0  0  0  0  0  0  0  0  0
    2.3750    4.8820   20.3110 C   0  0  0  0  0  0  0  0  0  0  0  0
    2.2000    6.1960   19.9060 C   0  0  0  0  0  0  0  0  0  0  0  0
    1.6300    7.0750   20.7490 N   0  0  0  0  0  0  0  0  0  0  0  0
    1.4730    8.3570   20.3270 C   0  0  0  0  0  0  0  0  0  0  0  0
    1.8530    8.7940   19.0660 C   0  0  0  0  0  0  0  0  0  0  0  0
    2.4450    7.8810   18.2000 C   0  0  0  0  0  0  0  0  0  0  0  0
    2.6310    6.5560   18.6110 C   0  0  0  0  0  0  0  0  0  0  0  0
    3.2250    5.5980   17.7690 C   0  0  0  0  0  0  0  0  0  0  0  0
    3.0720    2.9040   19.8340 H   0  0  0  0  0  0  0  0  0  0  0  0
    2.0390    4.5860   21.3020 H   0  0  0  0  0  0  0  0  0  0  0  0
    1.6900    9.8240   18.7580 H   0  0  0  0  0  0  0  0  0  0  0  0
    2.7520    8.2060   17.2090 H   0  0  0  0  0  0  0  0  0  0  0  0
    3.5470    5.8820   16.7690 H   0  0  0  0  0  0  0  0  0  0  0  0
    4.0080    3.2540   17.2870 C   0  0  0  0  0  0  0  0  0  0  0  0
    3.4460    2.3140   17.3330 H   0  0  0  0  0  0  0  0  0  0  0  0
    5.0390    3.0290   17.5780 H   0  0  0  0  0  0  0  0  0  0  0  0
    4.0000    3.6210   16.2560 H   0  0  0  0  0  0  0  0  0  0  0  0
   -3.2200   12.9360   20.3800 C   0  0  0  0  0  0  0  0  0  0  0  0
   -4.2040   12.5920   19.5140 F   0  0  0  0  0  0  0  0  0  0  0  0
   -3.3010   14.2740   20.5650 F   0  0  0  0  0  0  0  0  0  0  0  0
   -3.5030   12.3390   21.5600 F   0  0  0  0  0  0  0  0  0  0  0  0
   -1.4410   13.3690   18.7360 O   0  0  0  0  0  0  0  0  0  0  0  0
   -2.2410   13.6420   18.2540 H   0  0  0  0  0  0  0  0  0  0  0  0
  1  2  2  0  0  0  0
  3  1  1  0  0  0  0
  3  8  1  0  0  0  0
  4  3  1  0  0  0  0
  5  4  1  0  0  0  0
  5  6  1  0  0  0  0
  5 12  1  0  0  0  0
  6 36  1  0  0  0  0
  6  7  1  0  0  0  0
  7 13  1  0  0  0  0
  7  8  1  0  0  0  0
  8 16  1  0  0  0  0
  8 15  1  0  0  0  0
  9  4  1  0  0  0  0
 10  4  1  0  0  0  0
 11  5  1  0  0  0  0
 14  7  1  0  0  0  0
 17 18  1  0  0  0  0
 18 27  1  0  0  0  0
 18 19  2  0  0  0  0
 19 28  1  0  0  0  0
 20 19  1  0  0  0  0
 20 21  1  0  0  0  0
 22 21  2  0  0  0  0
 22  1  1  0  0  0  0
 23 22  1  0  0  0  0
 24 25  1  0  0  0  0
 24 23  2  0  0  0  0
 25 20  2  0  0  0  0
 26 17  2  0  0  0  0
 26 25  1  0  0  0  0
 29 23  1  0  0  0  0
 30 24  1  0  0  0  0
 31 26  1  0  0  0  0
 32 33  1  0  0  0  0
 32 34  1  0  0  0  0
 32 17  1  0  0  0  0
 35 32  1  0  0  0  0
 36 38  1  0  0  0  0
 36 39  1  0  0  0  0
 37 36  1  0  0  0  0
 40  6  1  0  0  0  0
 41 40  1  0  0  0  0
M  END
>  <MODEL>
12

>  <REMARK>
 VINA RESULT:    -6.591      5.270      8.551
 INTER + INTRA:          -7.849
 INTER:                  -8.142
 INTRA:                   0.292
 UNBOUND:                -0.102
  Name = 
  4 active torsions:
  status: ('A' for Active; 'I' for Inactive)
    1  A    between atoms: C_1  and  C_2
    2  A    between atoms: C_7  and  C_8
    3  A    between atoms: C_13  and  O_14
    4  A    between atoms: C_13  and  C_15
                            x       y       z     vdW  Elec       q    Type
                         _______ _______ _______ _____ _____    ______ ____

>  <TORSDO>
F 4

$$$$
=
 OpenBabel07192307433D

 41 43  0  0  0  0  0  0  0  0999 V2000
    1.5900    7.8180   20.0990 C   0  0  0  0  0  0  0  0  0  0  0  0
    1.3850    7.1220   21.0970 O   0  0  0  0  0  0  0  0  0  0  0  0
    0.9770    9.0700   19.9450 N   0  0  0  0  0  0  0  0  0  0  0  0
    0.9470    9.8220   18.6890 C   0  0  0  0  0  0  0  0  0  0  0  0
   -0.2650   10.7440   18.6040 C   0  0  0  0  0  0  0  0  0  0  0  0
   -0.3320   11.7240   19.7920 C   0  0  0  0  0  0  0  0  0  0  0  0
    0.2880   11.1350   21.0740 C   0  0  0  0  0  0  0  0  0  0  0  0
    0.2340    9.6140   21.0770 C   0  0  0  0  0  0  0  0  0  0  0  0
    1.8710   10.4080   18.6300 H   0  0  0  0  0  0  0  0  0  0  0  0
    0.9180    9.1260   17.8440 H   0  0  0  0  0  0  0  0  0  0  0  0
   -0.2330   11.2940   17.6550 H   0  0  0  0  0  0  0  0  0  0  0  0
   -1.1630   10.1130   18.5810 H   0  0  0  0  0  0  0  0  0  0  0  0
   -0.2170   11.5250   21.9670 H   0  0  0  0  0  0  0  0  0  0  0  0
    1.3350   11.4500   21.1690 H   0  0  0  0  0  0  0  0  0  0  0  0
    0.6510    9.2340   22.0160 H   0  0  0  0  0  0  0  0  0  0  0  0
   -0.7970    9.2500   21.0060 H   0  0  0  0  0  0  0  0  0  0  0  0
    5.2380    4.3600   16.0550 C   0  0  0  0  0  0  0  0  0  0  0  0
    4.6010    3.5390   16.9870 C   0  0  0  0  0  0  0  0  0  0  0  0
    3.7680    4.0940   17.9640 C   0  0  0  0  0  0  0  0  0  0  0  0
    3.5380    5.4600   18.0390 C   0  0  0  0  0  0  0  0  0  0  0  0
    2.7310    5.9400   19.0000 N   0  0  0  0  0  0  0  0  0  0  0  0
    2.5250    7.2820   19.0510 C   0  0  0  0  0  0  0  0  0  0  0  0
    3.0890    8.1730   18.1480 C   0  0  0  0  0  0  0  0  0  0  0  0
    3.9250    7.6690   17.1580 C   0  0  0  0  0  0  0  0  0  0  0  0
    4.1670    6.2920   17.0890 C   0  0  0  0  0  0  0  0  0  0  0  0
    5.0050    5.7390   16.1040 C   0  0  0  0  0  0  0  0  0  0  0  0
    4.7450    2.4610   16.9620 H   0  0  0  0  0  0  0  0  0  0  0  0
    3.2830    3.4380   18.6830 H   0  0  0  0  0  0  0  0  0  0  0  0
    2.8820    9.2370   18.2100 H   0  0  0  0  0  0  0  0  0  0  0  0
    4.3790    8.3520   16.4440 H   0  0  0  0  0  0  0  0  0  0  0  0
    5.4800    6.3870   15.3700 H   0  0  0  0  0  0  0  0  0  0  0  0
    6.1040    3.7700   14.9810 C   0  0  0  0  0  0  0  0  0  0  0  0
    6.6870    4.5490   14.4790 H   0  0  0  0  0  0  0  0  0  0  0  0
    5.4950    3.2780   14.2160 H   0  0  0  0  0  0  0  0  0  0  0  0
    6.7910    3.0370   15.4150 H   0  0  0  0  0  0  0  0  0  0  0  0
   -1.8150   12.0970   20.0440 C   0  0  0  0  0  0  0  0  0  0  0  0
   -2.0310   13.4140   19.8100 F   0  0  0  0  0  0  0  0  0  0  0  0
   -2.1830   11.8530   21.3230 F   0  0  0  0  0  0  0  0  0  0  0  0
   -2.6520   11.4080   19.2360 F   0  0  0  0  0  0  0  0  0  0  0  0
    0.4290   12.9040   19.4400 O   0  0  0  0  0  0  0  0  0  0  0  0
    1.2580   12.9060   19.9510 H   0  0  0  0  0  0  0  0  0  0  0  0
  1  2  2  0  0  0  0
  3  1  1  0  0  0  0
  3  8  1  0  0  0  0
  4  3  1  0  0  0  0
  5  4  1  0  0  0  0
  5  6  1  0  0  0  0
  6 36  1  0  0  0  0
  6  7  1  0  0  0  0
  7  8  1  0  0  0  0
  7 14  1  0  0  0  0
  7 13  1  0  0  0  0
  8 15  1  0  0  0  0
  9  4  1  0  0  0  0
 10  4  1  0  0  0  0
 11  5  1  0  0  0  0
 12  5  1  0  0  0  0
 16  8  1  0  0  0  0
 17 26  2  0  0  0  0
 17 18  1  0  0  0  0
 18 19  2  0  0  0  0
 19 20  1  0  0  0  0
 19 28  1  0  0  0  0
 20 21  1  0  0  0  0
 21 22  2  0  0  0  0
 22  1  1  0  0  0  0
 23 29  1  0  0  0  0
 23 22  1  0  0  0  0
 24 23  2  0  0  0  0
 25 24  1  0  0  0  0
 25 20  2  0  0  0  0
 26 25  1  0  0  0  0
 27 18  1  0  0  0  0
 30 24  1  0  0  0  0
 31 26  1  0  0  0  0
 32 35  1  0  0  0  0
 32 17  1  0  0  0  0
 33 32  1  0  0  0  0
 34 32  1  0  0  0  0
 36 38  1  0  0  0  0
 37 36  1  0  0  0  0
 39 36  1  0  0  0  0
 40  6  1  0  0  0  0
 40 41  1  0  0  0  0
M  END
>  <MODEL>
13

>  <REMARK>
 VINA RESULT:    -6.346      4.683      8.320
 INTER + INTRA:          -7.561
 INTER:                  -8.005
 INTRA:                   0.444
 UNBOUND:                -0.102
  Name = 
  4 active torsions:
  status: ('A' for Active; 'I' for Inactive)
    1  A    between atoms: C_1  and  C_2
    2  A    between atoms: C_7  and  C_8
    3  A    between atoms: C_13  and  O_14
    4  A    between atoms: C_13  and  C_15
                            x       y       z     vdW  Elec       q    Type
                         _______ _______ _______ _____ _____    ______ ____

>  <TORSDO>
F 4

$$$$
=
 OpenBabel07192307433D

 41 43  0  0  0  0  0  0  0  0999 V2000
   -1.0180   11.4690   19.8970 C   0  0  0  0  0  0  0  0  0  0  0  0
   -1.1310   12.0840   18.8330 O   0  0  0  0  0  0  0  0  0  0  0  0
   -1.6880   11.8870   21.0550 N   0  0  0  0  0  0  0  0  0  0  0  0
   -1.3970   11.3890   22.4000 C   0  0  0  0  0  0  0  0  0  0  0  0
   -1.7460   12.4100   23.4770 C   0  0  0  0  0  0  0  0  0  0  0  0
   -3.2220   12.8500   23.4010 C   0  0  0  0  0  0  0  0  0  0  0  0
   -3.7740   12.8030   21.9630 C   0  0  0  0  0  0  0  0  0  0  0  0
   -2.6680   12.9620   20.9300 C   0  0  0  0  0  0  0  0  0  0  0  0
   -1.9780   10.4710   22.5480 H   0  0  0  0  0  0  0  0  0  0  0  0
   -0.3320   11.1460   22.4800 H   0  0  0  0  0  0  0  0  0  0  0  0
   -1.5250   11.9840   24.4640 H   0  0  0  0  0  0  0  0  0  0  0  0
   -1.0840   13.2750   23.3440 H   0  0  0  0  0  0  0  0  0  0  0  0
   -4.5370   13.5780   21.8130 H   0  0  0  0  0  0  0  0  0  0  0  0
   -4.2880   11.8490   21.7850 H   0  0  0  0  0  0  0  0  0  0  0  0
   -3.1020   12.9580   19.9250 H   0  0  0  0  0  0  0  0  0  0  0  0
   -2.1380   13.9130   21.0540 H   0  0  0  0  0  0  0  0  0  0  0  0
    3.1730    6.6840   18.8220 C   0  0  0  0  0  0  0  0  0  0  0  0
    3.1050    7.5490   17.7290 C   0  0  0  0  0  0  0  0  0  0  0  0
    2.2430    8.6510   17.7540 C   0  0  0  0  0  0  0  0  0  0  0  0
    1.4440    8.9300   18.8520 C   0  0  0  0  0  0  0  0  0  0  0  0
    0.6330   10.0010   18.8220 N   0  0  0  0  0  0  0  0  0  0  0  0
   -0.1410   10.2480   19.9120 C   0  0  0  0  0  0  0  0  0  0  0  0
   -0.1170    9.4630   21.0560 C   0  0  0  0  0  0  0  0  0  0  0  0
    0.7230    8.3550   21.0790 C   0  0  0  0  0  0  0  0  0  0  0  0
    1.5220    8.0670   19.9670 C   0  0  0  0  0  0  0  0  0  0  0  0
    2.3870    6.9570   19.9460 C   0  0  0  0  0  0  0  0  0  0  0  0
    3.7200    7.3760   16.8490 H   0  0  0  0  0  0  0  0  0  0  0  0
    2.2020    9.3120   16.8910 H   0  0  0  0  0  0  0  0  0  0  0  0
   -0.7350    9.7080   21.9150 H   0  0  0  0  0  0  0  0  0  0  0  0
    0.7530    7.7260   21.9660 H   0  0  0  0  0  0  0  0  0  0  0  0
    2.4470    6.3020   20.8130 H   0  0  0  0  0  0  0  0  0  0  0  0
    4.1200    5.5200   18.8180 C   0  0  0  0  0  0  0  0  0  0  0  0
    3.8570    4.8010   19.6020 H   0  0  0  0  0  0  0  0  0  0  0  0
    5.1450    5.8500   19.0130 H   0  0  0  0  0  0  0  0  0  0  0  0
    4.0870    5.0140   17.8480 H   0  0  0  0  0  0  0  0  0  0  0  0
   -3.3400   14.2880   23.9670 C   0  0  0  0  0  0  0  0  0  0  0  0
   -4.5270   14.8470   23.6280 F   0  0  0  0  0  0  0  0  0  0  0  0
   -2.3670   15.0970   23.4870 F   0  0  0  0  0  0  0  0  0  0  0  0
   -3.2630   14.3070   25.3170 F   0  0  0  0  0  0  0  0  0  0  0  0
   -4.0030   11.9310   24.2010 O   0  0  0  0  0  0  0  0  0  0  0  0
   -3.9910   11.0560   23.7730 H   0  0  0  0  0  0  0  0  0  0  0  0
  1 22  1  0  0  0  0
  1  3  1  0  0  0  0
  2  1  2  0  0  0  0
  3  4  1  0  0  0  0
  4 10  1  0  0  0  0
  4  9  1  0  0  0  0
  4  5  1  0  0  0  0
  5 11  1  0  0  0  0
  6  5  1  0  0  0  0
  6 36  1  0  0  0  0
  6 40  1  0  0  0  0
  7  6  1  0  0  0  0
  8 16  1  0  0  0  0
  8  3  1  0  0  0  0
  8  7  1  0  0  0  0
 12  5  1  0  0  0  0
 13  7  1  0  0  0  0
 14  7  1  0  0  0  0
 15  8  1  0  0  0  0
 17 26  1  0  0  0  0
 18 19  1  0  0  0  0
 18 17  2  0  0  0  0
 19 20  2  0  0  0  0
 20 25  1  0  0  0  0
 21 20  1  0  0  0  0
 21 22  2  0  0  0  0
 22 23  1  0  0  0  0
 23 24  2  0  0  0  0
 23 29  1  0  0  0  0
 24 30  1  0  0  0  0
 25 24  1  0  0  0  0
 26 25  2  0  0  0  0
 26 31  1  0  0  0  0
 27 18  1  0  0  0  0
 28 19  1  0  0  0  0
 32 17  1  0  0  0  0
 32 34  1  0  0  0  0
 32 33  1  0  0  0  0
 35 32  1  0  0  0  0
 36 39  1  0  0  0  0
 37 36  1  0  0  0  0
 38 36  1  0  0  0  0
 41 40  1  0  0  0  0
M  END
>  <MODEL>
14

>  <REMARK>
 VINA RESULT:    -6.133      6.414      9.540
 INTER + INTRA:          -7.311
 INTER:                  -7.892
 INTRA:                   0.581
 UNBOUND:                -0.102
  Name = 
  4 active torsions:
  status: ('A' for Active; 'I' for Inactive)
    1  A    between atoms: C_1  and  C_2
    2  A    between atoms: C_7  and  C_8
    3  A    between atoms: C_13  and  O_14
    4  A    between atoms: C_13  and  C_15
                            x       y       z     vdW  Elec       q    Type
                         _______ _______ _______ _____ _____    ______ ____

>  <TORSDO>
F 4

$$$$
=
 OpenBabel07192307433D

 41 43  0  0  0  0  0  0  0  0999 V2000
    3.2900    6.2050   19.1130 C   0  0  0  0  0  0  0  0  0  0  0  0
    3.1110    5.3000   19.9320 O   0  0  0  0  0  0  0  0  0  0  0  0
    2.5400    7.3890   19.1570 N   0  0  0  0  0  0  0  0  0  0  0  0
    2.4950    8.3760   18.0780 C   0  0  0  0  0  0  0  0  0  0  0  0
    1.1870    9.1610   18.0740 C   0  0  0  0  0  0  0  0  0  0  0  0
    0.9280    9.8610   19.4230 C   0  0  0  0  0  0  0  0  0  0  0  0
    1.5350    9.0900   20.6100 C   0  0  0  0  0  0  0  0  0  0  0  0
    1.6670    7.6050   20.3070 C   0  0  0  0  0  0  0  0  0  0  0  0
    3.3420    9.0570   18.2140 H   0  0  0  0  0  0  0  0  0  0  0  0
    2.6030    7.8710   17.1120 H   0  0  0  0  0  0  0  0  0  0  0  0
    1.2100    9.8950   17.2590 H   0  0  0  0  0  0  0  0  0  0  0  0
    0.3760    8.4560   17.8500 H   0  0  0  0  0  0  0  0  0  0  0  0
    0.9330    9.2320   21.5160 H   0  0  0  0  0  0  0  0  0  0  0  0
    2.5290    9.4900   20.8540 H   0  0  0  0  0  0  0  0  0  0  0  0
    2.0690    7.0860   21.1840 H   0  0  0  0  0  0  0  0  0  0  0  0
    0.6950    7.1550   20.0790 H   0  0  0  0  0  0  0  0  0  0  0  0
    6.9010    4.6380   14.0020 C   0  0  0  0  0  0  0  0  0  0  0  0
    5.6600    4.0030   13.9550 C   0  0  0  0  0  0  0  0  0  0  0  0
    4.7260    4.2010   14.9790 C   0  0  0  0  0  0  0  0  0  0  0  0
    4.9910    5.0310   16.0580 C   0  0  0  0  0  0  0  0  0  0  0  0
    4.0590    5.1830   17.0150 N   0  0  0  0  0  0  0  0  0  0  0  0
    4.3460    6.0010   18.0620 C   0  0  0  0  0  0  0  0  0  0  0  0
    5.5400    6.6980   18.1780 C   0  0  0  0  0  0  0  0  0  0  0  0
    6.5000    6.5330   17.1850 C   0  0  0  0  0  0  0  0  0  0  0  0
    6.2390    5.6880   16.1010 C   0  0  0  0  0  0  0  0  0  0  0  0
    7.1810    5.4920   15.0740 C   0  0  0  0  0  0  0  0  0  0  0  0
    5.4050    3.3500   13.1230 H   0  0  0  0  0  0  0  0  0  0  0  0
    3.7650    3.6950   14.9250 H   0  0  0  0  0  0  0  0  0  0  0  0
    5.7220    7.3590   19.0200 H   0  0  0  0  0  0  0  0  0  0  0  0
    7.4430    7.0690   17.2610 H   0  0  0  0  0  0  0  0  0  0  0  0
    8.1370    6.0090   15.1110 H   0  0  0  0  0  0  0  0  0  0  0  0
    7.8940    4.4590   12.8910 C   0  0  0  0  0  0  0  0  0  0  0  0
    8.7950    5.0550   13.0730 H   0  0  0  0  0  0  0  0  0  0  0  0
    7.4740    4.7920   11.9360 H   0  0  0  0  0  0  0  0  0  0  0  0
    8.1770    3.4060   12.8070 H   0  0  0  0  0  0  0  0  0  0  0  0
   -0.6020   10.0130   19.6160 C   0  0  0  0  0  0  0  0  0  0  0  0
   -1.0420    9.2320   20.6330 F   0  0  0  0  0  0  0  0  0  0  0  0
   -1.2870    9.6490   18.5070 F   0  0  0  0  0  0  0  0  0  0  0  0
   -0.9490   11.2860   19.9150 F   0  0  0  0  0  0  0  0  0  0  0  0
    1.5600   11.1630   19.3770 O   0  0  0  0  0  0  0  0  0  0  0  0
    2.5170   11.0520   19.5180 H   0  0  0  0  0  0  0  0  0  0  0  0
  1  3  1  0  0  0  0
  1  2  2  0  0  0  0
  3  8  1  0  0  0  0
  4  9  1  0  0  0  0
  4  3  1  0  0  0  0
  5  4  1  0  0  0  0
  5  6  1  0  0  0  0
  6 36  1  0  0  0  0
  6  7  1  0  0  0  0
  7 14  1  0  0  0  0
  7 13  1  0  0  0  0
  8  7  1  0  0  0  0
  8 15  1  0  0  0  0
 10  4  1  0  0  0  0
 11  5  1  0  0  0  0
 12  5  1  0  0  0  0
 16  8  1  0  0  0  0
 17 26  1  0  0  0  0
 18 17  2  0  0  0  0
 18 19  1  0  0  0  0
 19 20  2  0  0  0  0
 20 25  1  0  0  0  0
 20 21  1  0  0  0  0
 21 22  2  0  0  0  0
 22 23  1  0  0  0  0
 22  1  1  0  0  0  0
 23 29  1  0  0  0  0
 24 30  1  0  0  0  0
 24 23  2  0  0  0  0
 25 24  1  0  0  0  0
 26 31  1  0  0  0  0
 26 25  2  0  0  0  0
 27 18  1  0  0  0  0
 28 19  1  0  0  0  0
 32 33  1  0  0  0  0
 32 17  1  0  0  0  0
 34 32  1  0  0  0  0
 35 32  1  0  0  0  0
 36 39  1  0  0  0  0
 36 37  1  0  0  0  0
 38 36  1  0  0  0  0
 40  6  1  0  0  0  0
 40 41  1  0  0  0  0
M  END
>  <MODEL>
15

>  <REMARK>
 VINA RESULT:    -6.050      4.259      8.250
 INTER + INTRA:          -7.213
 INTER:                  -6.916
 INTRA:                  -0.297
 UNBOUND:                -0.102
  Name = 
  4 active torsions:
  status: ('A' for Active; 'I' for Inactive)
    1  A    between atoms: C_1  and  C_2
    2  A    between atoms: C_7  and  C_8
    3  A    between atoms: C_13  and  O_14
    4  A    between atoms: C_13  and  C_15
                            x       y       z     vdW  Elec       q    Type
                         _______ _______ _______ _____ _____    ______ ____

>  <TORSDO>
F 4

$$$$
=
 OpenBabel07192307433D

 41 43  0  0  0  0  0  0  0  0999 V2000
    0.7290   12.3060   20.1130 C   0  0  0  0  0  0  0  0  0  0  0  0
    1.3890   13.2950   19.7840 O   0  0  0  0  0  0  0  0  0  0  0  0
   -0.4060   12.4250   20.9290 N   0  0  0  0  0  0  0  0  0  0  0  0
   -1.0710   11.2970   21.5830 C   0  0  0  0  0  0  0  0  0  0  0  0
   -1.7940   11.7200   22.8570 C   0  0  0  0  0  0  0  0  0  0  0  0
   -2.8190   12.8420   22.5970 C   0  0  0  0  0  0  0  0  0  0  0  0
   -2.4050   13.7550   21.4270 C   0  0  0  0  0  0  0  0  0  0  0  0
   -0.8960   13.7670   21.2310 C   0  0  0  0  0  0  0  0  0  0  0  0
   -1.7850   10.8730   20.8680 H   0  0  0  0  0  0  0  0  0  0  0  0
   -0.3320   10.5310   21.8380 H   0  0  0  0  0  0  0  0  0  0  0  0
   -2.2870   10.8450   23.2990 H   0  0  0  0  0  0  0  0  0  0  0  0
   -1.0350   12.0580   23.5740 H   0  0  0  0  0  0  0  0  0  0  0  0
   -2.7660   14.7790   21.5860 H   0  0  0  0  0  0  0  0  0  0  0  0
   -2.8790   13.4190   20.4960 H   0  0  0  0  0  0  0  0  0  0  0  0
   -0.6380   14.4510   20.4160 H   0  0  0  0  0  0  0  0  0  0  0  0
   -0.3770   14.1180   22.1300 H   0  0  0  0  0  0  0  0  0  0  0  0
    2.2860    6.1260   19.1140 C   0  0  0  0  0  0  0  0  0  0  0  0
    1.8740    6.3350   20.4300 C   0  0  0  0  0  0  0  0  0  0  0  0
    1.5000    7.6140   20.8590 C   0  0  0  0  0  0  0  0  0  0  0  0
    1.5160    8.7050   20.0030 C   0  0  0  0  0  0  0  0  0  0  0  0
    1.1500    9.9120   20.4670 N   0  0  0  0  0  0  0  0  0  0  0  0
    1.1770   10.9640   19.6070 C   0  0  0  0  0  0  0  0  0  0  0  0
    1.5420   10.8460   18.2730 C   0  0  0  0  0  0  0  0  0  0  0  0
    1.9220    9.5950   17.8000 C   0  0  0  0  0  0  0  0  0  0  0  0
    1.9170    8.4950   18.6660 C   0  0  0  0  0  0  0  0  0  0  0  0
    2.2940    7.2110   18.2310 C   0  0  0  0  0  0  0  0  0  0  0  0
    1.8370    5.5080   21.1350 H   0  0  0  0  0  0  0  0  0  0  0  0
    1.1840    7.7570   21.8890 H   0  0  0  0  0  0  0  0  0  0  0  0
    1.5300   11.7080   17.6120 H   0  0  0  0  0  0  0  0  0  0  0  0
    2.2150    9.4840   16.7590 H   0  0  0  0  0  0  0  0  0  0  0  0
    2.5940    7.0570   17.1960 H   0  0  0  0  0  0  0  0  0  0  0  0
    2.6540    4.7520   18.6360 C   0  0  0  0  0  0  0  0  0  0  0  0
    3.2990    4.8060   17.7520 H   0  0  0  0  0  0  0  0  0  0  0  0
    1.7610    4.1860   18.3520 H   0  0  0  0  0  0  0  0  0  0  0  0
    3.1820    4.2100   19.4270 H   0  0  0  0  0  0  0  0  0  0  0  0
   -2.9790   13.6780   23.8920 C   0  0  0  0  0  0  0  0  0  0  0  0
   -3.6890   14.8070   23.6560 F   0  0  0  0  0  0  0  0  0  0  0  0
   -1.7810   14.0580   24.3940 F   0  0  0  0  0  0  0  0  0  0  0  0
   -3.6320   12.9930   24.8570 F   0  0  0  0  0  0  0  0  0  0  0  0
   -4.0780   12.2210   22.2420 O   0  0  0  0  0  0  0  0  0  0  0  0
   -3.9150   11.2860   22.0230 H   0  0  0  0  0  0  0  0  0  0  0  0
  1  3  1  0  0  0  0
  2  1  2  0  0  0  0
  3  8  1  0  0  0  0
  3  4  1  0  0  0  0
  4 10  1  0  0  0  0
  4  5  1  0  0  0  0
  5 11  1  0  0  0  0
  5 12  1  0  0  0  0
  6  5  1  0  0  0  0
  6 36  1  0  0  0  0
  7 13  1  0  0  0  0
  7  6  1  0  0  0  0
  8  7  1  0  0  0  0
  8 16  1  0  0  0  0
  9  4  1  0  0  0  0
 14  7  1  0  0  0  0
 15  8  1  0  0  0  0
 17 18  1  0  0  0  0
 18 19  2  0  0  0  0
 18 27  1  0  0  0  0
 19 28  1  0  0  0  0
 20 21  1  0  0  0  0
 20 19  1  0  0  0  0
 22  1  1  0  0  0  0
 22 21  2  0  0  0  0
 23 22  1  0  0  0  0
 24 23  2  0  0  0  0
 24 25  1  0  0  0  0
 25 20  2  0  0  0  0
 26 25  1  0  0  0  0
 26 17  2  0  0  0  0
 29 23  1  0  0  0  0
 30 24  1  0  0  0  0
 31 26  1  0  0  0  0
 32 17  1  0  0  0  0
 32 35  1  0  0  0  0
 33 32  1  0  0  0  0
 34 32  1  0  0  0  0
 36 38  1  0  0  0  0
 36 39  1  0  0  0  0
 37 36  1  0  0  0  0
 40  6  1  0  0  0  0
 41 40  1  0  0  0  0
M  END
>  <MODEL>
16

>  <REMARK>
 VINA RESULT:    -6.013      6.165      9.068
 INTER + INTRA:          -7.170
 INTER:                  -7.330
 INTRA:                   0.160
 UNBOUND:                -0.102
  Name = 
  4 active torsions:
  status: ('A' for Active; 'I' for Inactive)
    1  A    between atoms: C_1  and  C_2
    2  A    between atoms: C_7  and  C_8
    3  A    between atoms: C_13  and  O_14
    4  A    between atoms: C_13  and  C_15
                            x       y       z     vdW  Elec       q    Type
                         _______ _______ _______ _____ _____    ______ ____

>  <TORSDO>
F 4

$$$$
=
 OpenBabel07192307433D

 41 43  0  0  0  0  0  0  0  0999 V2000
    1.5260    7.6750   20.6110 C   0  0  0  0  0  0  0  0  0  0  0  0
    1.3570    7.5550   21.8270 O   0  0  0  0  0  0  0  0  0  0  0  0
    1.9090    6.5850   19.8160 N   0  0  0  0  0  0  0  0  0  0  0  0
    2.3930    6.7000   18.4390 C   0  0  0  0  0  0  0  0  0  0  0  0
    3.3200    5.5510   18.0600 C   0  0  0  0  0  0  0  0  0  0  0  0
    2.6490    4.1770   18.2570 C   0  0  0  0  0  0  0  0  0  0  0  0
    1.6150    4.1870   19.3990 C   0  0  0  0  0  0  0  0  0  0  0  0
    1.9270    5.2610   20.4300 C   0  0  0  0  0  0  0  0  0  0  0  0
    1.5180    6.7120   17.7790 H   0  0  0  0  0  0  0  0  0  0  0  0
    2.9360    7.6430   18.3170 H   0  0  0  0  0  0  0  0  0  0  0  0
    3.6410    5.6750   17.0180 H   0  0  0  0  0  0  0  0  0  0  0  0
    4.2190    5.6280   18.6860 H   0  0  0  0  0  0  0  0  0  0  0  0
    1.5650    3.2060   19.8880 H   0  0  0  0  0  0  0  0  0  0  0  0
    0.6080    4.3650   18.9970 H   0  0  0  0  0  0  0  0  0  0  0  0
    1.1920    5.2150   21.2410 H   0  0  0  0  0  0  0  0  0  0  0  0
    2.9160    5.1130   20.8770 H   0  0  0  0  0  0  0  0  0  0  0  0
    0.3190   13.8590   19.2240 C   0  0  0  0  0  0  0  0  0  0  0  0
    0.0780   13.5880   20.5710 C   0  0  0  0  0  0  0  0  0  0  0  0
    0.2690   12.2980   21.0780 C   0  0  0  0  0  0  0  0  0  0  0  0
    0.7080   11.2560   20.2750 C   0  0  0  0  0  0  0  0  0  0  0  0
    0.8720   10.0350   20.8130 N   0  0  0  0  0  0  0  0  0  0  0  0
    1.3020    9.0320   20.0030 C   0  0  0  0  0  0  0  0  0  0  0  0
    1.5970    9.2130   18.6590 C   0  0  0  0  0  0  0  0  0  0  0  0
    1.4220   10.4780   18.1090 C   0  0  0  0  0  0  0  0  0  0  0  0
    0.9690   11.5290   18.9150 C   0  0  0  0  0  0  0  0  0  0  0  0
    0.7780   12.8240   18.4020 C   0  0  0  0  0  0  0  0  0  0  0  0
   -0.2600   14.3770   21.2410 H   0  0  0  0  0  0  0  0  0  0  0  0
    0.0720   12.1070   22.1300 H   0  0  0  0  0  0  0  0  0  0  0  0
    1.9600    8.3900   18.0500 H   0  0  0  0  0  0  0  0  0  0  0  0
    1.6460   10.6380   17.0570 H   0  0  0  0  0  0  0  0  0  0  0  0
    0.9890   13.0280   17.3540 H   0  0  0  0  0  0  0  0  0  0  0  0
    0.1510   15.2470   18.6800 C   0  0  0  0  0  0  0  0  0  0  0  0
    0.9010   15.4580   17.9100 H   0  0  0  0  0  0  0  0  0  0  0  0
    0.2800   15.9930   19.4710 H   0  0  0  0  0  0  0  0  0  0  0  0
   -0.8460   15.3600   18.2440 H   0  0  0  0  0  0  0  0  0  0  0  0
    3.7500    3.1250   18.5480 C   0  0  0  0  0  0  0  0  0  0  0  0
    3.2840    2.1480   19.3630 F   0  0  0  0  0  0  0  0  0  0  0  0
    4.8220    3.6780   19.1610 F   0  0  0  0  0  0  0  0  0  0  0  0
    4.1860    2.5250   17.4180 F   0  0  0  0  0  0  0  0  0  0  0  0
    1.9490    3.8440   17.0340 O   0  0  0  0  0  0  0  0  0  0  0  0
    1.1400    3.3520   17.2610 H   0  0  0  0  0  0  0  0  0  0  0  0
  1  2  2  0  0  0  0
  3  8  1  0  0  0  0
  3  1  1  0  0  0  0
  4  3  1  0  0  0  0
  5  6  1  0  0  0  0
  5  4  1  0  0  0  0
  5 12  1  0  0  0  0
  6 36  1  0  0  0  0
  6  7  1  0  0  0  0
  7 13  1  0  0  0  0
  7  8  1  0  0  0  0
  8 16  1  0  0  0  0
  8 15  1  0  0  0  0
  9  4  1  0  0  0  0
 10  4  1  0  0  0  0
 11  5  1  0  0  0  0
 14  7  1  0  0  0  0
 17 18  1  0  0  0  0
 18 19  2  0  0  0  0
 18 27  1  0  0  0  0
 19 28  1  0  0  0  0
 20 21  1  0  0  0  0
 20 19  1  0  0  0  0
 22  1  1  0  0  0  0
 22 21  2  0  0  0  0
 23 22  1  0  0  0  0
 24 23  2  0  0  0  0
 24 25  1  0  0  0  0
 25 20  2  0  0  0  0
 26 25  1  0  0  0  0
 26 17  2  0  0  0  0
 29 23  1  0  0  0  0
 30 24  1  0  0  0  0
 31 26  1  0  0  0  0
 32 17  1  0  0  0  0
 32 34  1  0  0  0  0
 33 32  1  0  0  0  0
 35 32  1  0  0  0  0
 36 38  1  0  0  0  0
 36 37  1  0  0  0  0
 39 36  1  0  0  0  0
 40 41  1  0  0  0  0
 40  6  1  0  0  0  0
M  END
>  <MODEL>
17

>  <REMARK>
 VINA RESULT:    -5.912      2.327      3.098
 INTER + INTRA:          -7.051
 INTER:                  -7.673
 INTRA:                   0.622
 UNBOUND:                -0.102
  Name = 
  4 active torsions:
  status: ('A' for Active; 'I' for Inactive)
    1  A    between atoms: C_1  and  C_2
    2  A    between atoms: C_7  and  C_8
    3  A    between atoms: C_13  and  O_14
    4  A    between atoms: C_13  and  C_15
                            x       y       z     vdW  Elec       q    Type
                         _______ _______ _______ _____ _____    ______ ____

>  <TORSDO>
F 4

$$$$
=
 OpenBabel07192307433D

 41 43  0  0  0  0  0  0  0  0999 V2000
    1.5760    8.8660   18.5230 C   0  0  0  0  0  0  0  0  0  0  0  0
    1.5110    9.3160   17.3760 O   0  0  0  0  0  0  0  0  0  0  0  0
    0.9510    9.5150   19.5980 N   0  0  0  0  0  0  0  0  0  0  0  0
    1.2060    9.2070   21.0060 C   0  0  0  0  0  0  0  0  0  0  0  0
    0.9510   10.4090   21.9090 C   0  0  0  0  0  0  0  0  0  0  0  0
   -0.4810   10.9580   21.7540 C   0  0  0  0  0  0  0  0  0  0  0  0
   -1.0440   10.7360   20.3360 C   0  0  0  0  0  0  0  0  0  0  0  0
    0.0670   10.6380   19.3000 C   0  0  0  0  0  0  0  0  0  0  0  0
    0.5490    8.3770   21.2890 H   0  0  0  0  0  0  0  0  0  0  0  0
    2.2460    8.8890   21.1310 H   0  0  0  0  0  0  0  0  0  0  0  0
    1.1410   10.1230   22.9510 H   0  0  0  0  0  0  0  0  0  0  0  0
    1.6850   11.1830   21.6490 H   0  0  0  0  0  0  0  0  0  0  0  0
   -1.7370   11.5410   20.0620 H   0  0  0  0  0  0  0  0  0  0  0  0
   -1.6380    9.8140   20.3040 H   0  0  0  0  0  0  0  0  0  0  0  0
   -0.3710   10.5150   18.3040 H   0  0  0  0  0  0  0  0  0  0  0  0
    0.6770   11.5480   19.2800 H   0  0  0  0  0  0  0  0  0  0  0  0
    3.8870    3.0830   20.2060 C   0  0  0  0  0  0  0  0  0  0  0  0
    2.7220    3.3850   20.9120 C   0  0  0  0  0  0  0  0  0  0  0  0
    2.0650    4.6030   20.7030 C   0  0  0  0  0  0  0  0  0  0  0  0
    2.5320    5.5380   19.7920 C   0  0  0  0  0  0  0  0  0  0  0  0
    1.8630    6.6930   19.6320 N   0  0  0  0  0  0  0  0  0  0  0  0
    2.3450    7.5920   18.7340 C   0  0  0  0  0  0  0  0  0  0  0  0
    3.4770    7.3650   17.9630 C   0  0  0  0  0  0  0  0  0  0  0  0
    4.1650    6.1690   18.1360 C   0  0  0  0  0  0  0  0  0  0  0  0
    3.7010    5.2290   19.0630 C   0  0  0  0  0  0  0  0  0  0  0  0
    4.3650    4.0070   19.2710 C   0  0  0  0  0  0  0  0  0  0  0  0
    2.3130    2.6790   21.6310 H   0  0  0  0  0  0  0  0  0  0  0  0
    1.1600    4.8210   21.2650 H   0  0  0  0  0  0  0  0  0  0  0  0
    3.8170    8.1010   17.2400 H   0  0  0  0  0  0  0  0  0  0  0  0
    5.0560    5.9760   17.5440 H   0  0  0  0  0  0  0  0  0  0  0  0
    5.2610    3.7730   18.6990 H   0  0  0  0  0  0  0  0  0  0  0  0
    4.5780    1.7650   20.3990 C   0  0  0  0  0  0  0  0  0  0  0  0
    4.0710    0.9730   19.8370 H   0  0  0  0  0  0  0  0  0  0  0  0
    4.5690    1.4710   21.4530 H   0  0  0  0  0  0  0  0  0  0  0  0
    5.6150    1.8340   20.0570 H   0  0  0  0  0  0  0  0  0  0  0  0
   -0.4720   12.4710   22.0900 C   0  0  0  0  0  0  0  0  0  0  0  0
   -1.3610   13.1440   21.3190 F   0  0  0  0  0  0  0  0  0  0  0  0
    0.7440   13.0250   21.8740 F   0  0  0  0  0  0  0  0  0  0  0  0
   -0.8070   12.7030   23.3790 F   0  0  0  0  0  0  0  0  0  0  0  0
   -1.3340   10.2430   22.6800 O   0  0  0  0  0  0  0  0  0  0  0  0
   -0.7740    9.7540   23.3080 H   0  0  0  0  0  0  0  0  0  0  0  0
  1 22  1  0  0  0  0
  1  3  1  0  0  0  0
  2  1  2  0  0  0  0
  3  4  1  0  0  0  0
  4 10  1  0  0  0  0
  4  9  1  0  0  0  0
  4  5  1  0  0  0  0
  5 11  1  0  0  0  0
  6  5  1  0  0  0  0
  6 36  1  0  0  0  0
  6 40  1  0  0  0  0
  7  6  1  0  0  0  0
  8  3  1  0  0  0  0
  8  7  1  0  0  0  0
 12  5  1  0  0  0  0
 13  7  1  0  0  0  0
 14  7  1  0  0  0  0
 15  8  1  0  0  0  0
 16  8  1  0  0  0  0
 17 32  1  0  0  0  0
 17 18  1  0  0  0  0
 18 27  1  0  0  0  0
 19 18  2  0  0  0  0
 19 28  1  0  0  0  0
 20 19  1  0  0  0  0
 21 20  1  0  0  0  0
 22 21  2  0  0  0  0
 23 24  2  0  0  0  0
 23 22  1  0  0  0  0
 24 25  1  0  0  0  0
 25 26  1  0  0  0  0
 25 20  2  0  0  0  0
 26 17  2  0  0  0  0
 29 23  1  0  0  0  0
 30 24  1  0  0  0  0
 31 26  1  0  0  0  0
 32 34  1  0  0  0  0
 33 32  1  0  0  0  0
 35 32  1  0  0  0  0
 36 39  1  0  0  0  0
 37 36  1  0  0  0  0
 38 36  1  0  0  0  0
 40 41  1  0  0  0  0
M  END
>  <MODEL>
18

>  <REMARK>
 VINA RESULT:    -5.876      4.882      7.933
 INTER + INTRA:          -7.008
 INTER:                  -7.037
 INTRA:                   0.029
 UNBOUND:                -0.102
  Name = 
  4 active torsions:
  status: ('A' for Active; 'I' for Inactive)
    1  A    between atoms: C_1  and  C_2
    2  A    between atoms: C_7  and  C_8
    3  A    between atoms: C_13  and  O_14
    4  A    between atoms: C_13  and  C_15
                            x       y       z     vdW  Elec       q    Type
                         _______ _______ _______ _____ _____    ______ ____

>  <TORSDO>
F 4

$$$$
=
 OpenBabel07192307433D

 41 43  0  0  0  0  0  0  0  0999 V2000
    1.7740    8.9090   18.5890 C   0  0  0  0  0  0  0  0  0  0  0  0
    2.0610    9.1210   17.4080 O   0  0  0  0  0  0  0  0  0  0  0  0
    1.9510    7.6440   19.1670 N   0  0  0  0  0  0  0  0  0  0  0  0
    1.3880    7.2410   20.4570 C   0  0  0  0  0  0  0  0  0  0  0  0
    1.1590    5.7360   20.5360 C   0  0  0  0  0  0  0  0  0  0  0  0
    2.4510    4.9380   20.2680 C   0  0  0  0  0  0  0  0  0  0  0  0
    3.4070    5.6750   19.3100 C   0  0  0  0  0  0  0  0  0  0  0  0
    2.6570    6.6280   18.3910 C   0  0  0  0  0  0  0  0  0  0  0  0
    2.0870    7.5580   21.2390 H   0  0  0  0  0  0  0  0  0  0  0  0
    0.4310    7.7500   20.6150 H   0  0  0  0  0  0  0  0  0  0  0  0
    0.7510    5.4850   21.5240 H   0  0  0  0  0  0  0  0  0  0  0  0
    0.3910    5.4760   19.7960 H   0  0  0  0  0  0  0  0  0  0  0  0
    3.9850    4.9600   18.7110 H   0  0  0  0  0  0  0  0  0  0  0  0
    4.1500    6.2470   19.8810 H   0  0  0  0  0  0  0  0  0  0  0  0
    3.3630    7.1060   17.7040 H   0  0  0  0  0  0  0  0  0  0  0  0
    1.9150    6.0980   17.7830 H   0  0  0  0  0  0  0  0  0  0  0  0
   -1.0110   12.8940   22.8300 C   0  0  0  0  0  0  0  0  0  0  0  0
   -1.2860   11.5610   23.1360 C   0  0  0  0  0  0  0  0  0  0  0  0
   -0.7820   10.5330   22.3300 C   0  0  0  0  0  0  0  0  0  0  0  0
    0.0050   10.7940   21.2200 C   0  0  0  0  0  0  0  0  0  0  0  0
    0.4610    9.7690   20.4790 N   0  0  0  0  0  0  0  0  0  0  0  0
    1.2290   10.0550   19.3950 C   0  0  0  0  0  0  0  0  0  0  0  0
    1.5800   11.3480   19.0310 C   0  0  0  0  0  0  0  0  0  0  0  0
    1.1030   12.4030   19.8000 C   0  0  0  0  0  0  0  0  0  0  0  0
    0.2990   12.1410   20.9150 C   0  0  0  0  0  0  0  0  0  0  0  0
   -0.2050   13.1780   21.7220 C   0  0  0  0  0  0  0  0  0  0  0  0
   -1.8920   11.3070   24.0030 H   0  0  0  0  0  0  0  0  0  0  0  0
   -1.0090    9.5000   22.5840 H   0  0  0  0  0  0  0  0  0  0  0  0
    2.2150   11.5330   18.1690 H   0  0  0  0  0  0  0  0  0  0  0  0
    1.3660   13.4230   19.5280 H   0  0  0  0  0  0  0  0  0  0  0  0
    0.0330   14.2130   21.4850 H   0  0  0  0  0  0  0  0  0  0  0  0
   -1.5170   14.0000   23.7080 C   0  0  0  0  0  0  0  0  0  0  0  0
   -1.4010   14.9720   23.2160 H   0  0  0  0  0  0  0  0  0  0  0  0
   -0.9540   14.0420   24.6450 H   0  0  0  0  0  0  0  0  0  0  0  0
   -2.5760   13.8420   23.9350 H   0  0  0  0  0  0  0  0  0  0  0  0
    2.0670    3.5580   19.6780 C   0  0  0  0  0  0  0  0  0  0  0  0
    1.4520    2.7860   20.6070 F   0  0  0  0  0  0  0  0  0  0  0  0
    3.1550    2.8760   19.2490 F   0  0  0  0  0  0  0  0  0  0  0  0
    1.2170    3.6750   18.6330 F   0  0  0  0  0  0  0  0  0  0  0  0
    3.1400    4.7700   21.5300 O   0  0  0  0  0  0  0  0  0  0  0  0
    4.0990    4.7900   21.3680 H   0  0  0  0  0  0  0  0  0  0  0  0
  1  3  1  0  0  0  0
  1 22  1  0  0  0  0
  2  1  2  0  0  0  0
  3  4  1  0  0  0  0
  4  5  1  0  0  0  0
  4 10  1  0  0  0  0
  4  9  1  0  0  0  0
  5 11  1  0  0  0  0
  6  5  1  0  0  0  0
  6 40  1  0  0  0  0
  7 14  1  0  0  0  0
  7  6  1  0  0  0  0
  8  3  1  0  0  0  0
  8  7  1  0  0  0  0
 12  5  1  0  0  0  0
 13  7  1  0  0  0  0
 15  8  1  0  0  0  0
 16  8  1  0  0  0  0
 17 18  1  0  0  0  0
 17 32  1  0  0  0  0
 18 27  1  0  0  0  0
 19 28  1  0  0  0  0
 19 18  2  0  0  0  0
 20 19  1  0  0  0  0
 21 20  2  0  0  0  0
 22 21  1  0  0  0  0
 23 22  2  0  0  0  0
 23 24  1  0  0  0  0
 24 25  2  0  0  0  0
 25 20  1  0  0  0  0
 25 26  1  0  0  0  0
 26 17  2  0  0  0  0
 29 23  1  0  0  0  0
 30 24  1  0  0  0  0
 31 26  1  0  0  0  0
 32 35  1  0  0  0  0
 32 34  1  0  0  0  0
 33 32  1  0  0  0  0
 36  6  1  0  0  0  0
 36 37  1  0  0  0  0
 38 36  1  0  0  0  0
 39 36  1  0  0  0  0
 41 40  1  0  0  0  0
M  END
>  <MODEL>
19

>  <REMARK>
 VINA RESULT:    -5.822      1.833      2.525
 INTER + INTRA:          -6.945
 INTER:                  -7.331
 INTRA:                   0.386
 UNBOUND:                -0.102
  Name = 
  4 active torsions:
  status: ('A' for Active; 'I' for Inactive)
    1  A    between atoms: C_1  and  C_2
    2  A    between atoms: C_7  and  C_8
    3  A    between atoms: C_13  and  O_14
    4  A    between atoms: C_13  and  C_15
                            x       y       z     vdW  Elec       q    Type
                         _______ _______ _______ _____ _____    ______ ____

>  <TORSDO>
F 4

$$$$
=
 OpenBabel07192307433D

 41 43  0  0  0  0  0  0  0  0999 V2000
    1.5560   10.1890   18.6330 C   0  0  0  0  0  0  0  0  0  0  0  0
    2.3600   10.6350   17.8100 O   0  0  0  0  0  0  0  0  0  0  0  0
    0.4970   10.9710   19.1160 N   0  0  0  0  0  0  0  0  0  0  0  0
   -0.3210   10.6220   20.2790 C   0  0  0  0  0  0  0  0  0  0  0  0
   -0.9020   11.8550   20.9610 C   0  0  0  0  0  0  0  0  0  0  0  0
   -1.7320   12.7180   19.9890 C   0  0  0  0  0  0  0  0  0  0  0  0
   -1.2220   12.6220   18.5380 C   0  0  0  0  0  0  0  0  0  0  0  0
    0.2570   12.2650   18.4850 C   0  0  0  0  0  0  0  0  0  0  0  0
   -1.1280    9.9670   19.9330 H   0  0  0  0  0  0  0  0  0  0  0  0
    0.2880   10.0740   21.0060 H   0  0  0  0  0  0  0  0  0  0  0  0
   -1.5170   11.5400   21.8130 H   0  0  0  0  0  0  0  0  0  0  0  0
   -0.0650   12.4390   21.3650 H   0  0  0  0  0  0  0  0  0  0  0  0
   -1.3950   13.5630   18.0010 H   0  0  0  0  0  0  0  0  0  0  0  0
   -1.7880   11.8610   17.9850 H   0  0  0  0  0  0  0  0  0  0  0  0
    0.5910   12.2400   17.4420 H   0  0  0  0  0  0  0  0  0  0  0  0
    0.8680   13.0100   19.0060 H   0  0  0  0  0  0  0  0  0  0  0  0
    2.9800    3.9580   19.5120 C   0  0  0  0  0  0  0  0  0  0  0  0
    3.3520    4.3860   18.2370 C   0  0  0  0  0  0  0  0  0  0  0  0
    3.1210    5.7070   17.8390 C   0  0  0  0  0  0  0  0  0  0  0  0
    2.5300    6.6320   18.6860 C   0  0  0  0  0  0  0  0  0  0  0  0
    2.3280    7.8880   18.2520 N   0  0  0  0  0  0  0  0  0  0  0  0
    1.7460    8.7730   19.1030 C   0  0  0  0  0  0  0  0  0  0  0  0
    1.3710    8.4480   20.3990 C   0  0  0  0  0  0  0  0  0  0  0  0
    1.5810    7.1470   20.8410 C   0  0  0  0  0  0  0  0  0  0  0  0
    2.1670    6.2090   19.9830 C   0  0  0  0  0  0  0  0  0  0  0  0
    2.3980    4.8810   20.3870 C   0  0  0  0  0  0  0  0  0  0  0  0
    3.8270    3.6970   17.5410 H   0  0  0  0  0  0  0  0  0  0  0  0
    3.4160    6.0200   16.8400 H   0  0  0  0  0  0  0  0  0  0  0  0
    0.9280    9.1920   21.0560 H   0  0  0  0  0  0  0  0  0  0  0  0
    1.2910    6.8730   21.8520 H   0  0  0  0  0  0  0  0  0  0  0  0
    2.1220    4.5660   21.3920 H   0  0  0  0  0  0  0  0  0  0  0  0
    3.2580    2.5540   19.9590 C   0  0  0  0  0  0  0  0  0  0  0  0
    4.3010    2.4430   20.2730 H   0  0  0  0  0  0  0  0  0  0  0  0
    3.0870    1.8440   19.1440 H   0  0  0  0  0  0  0  0  0  0  0  0
    2.6060    2.2930   20.7990 H   0  0  0  0  0  0  0  0  0  0  0  0
   -1.6880   14.1900   20.4700 C   0  0  0  0  0  0  0  0  0  0  0  0
   -2.9370   14.6640   20.6980 F   0  0  0  0  0  0  0  0  0  0  0  0
   -1.1140   15.0010   19.5510 F   0  0  0  0  0  0  0  0  0  0  0  0
   -0.9970   14.3220   21.6250 F   0  0  0  0  0  0  0  0  0  0  0  0
   -3.0930   12.2240   20.0070 O   0  0  0  0  0  0  0  0  0  0  0  0
   -3.1450   11.4270   19.4510 H   0  0  0  0  0  0  0  0  0  0  0  0
  1 22  1  0  0  0  0
  1  3  1  0  0  0  0
  2  1  2  0  0  0  0
  3  4  1  0  0  0  0
  4  5  1  0  0  0  0
  4 10  1  0  0  0  0
  5 12  1  0  0  0  0
  5 11  1  0  0  0  0
  6 40  1  0  0  0  0
  6 36  1  0  0  0  0
  6  5  1  0  0  0  0
  7  6  1  0  0  0  0
  8  7  1  0  0  0  0
  8 16  1  0  0  0  0
  8  3  1  0  0  0  0
  9  4  1  0  0  0  0
 13  7  1  0  0  0  0
 14  7  1  0  0  0  0
 15  8  1  0  0  0  0
 17 32  1  0  0  0  0
 17 26  1  0  0  0  0
 18 17  2  0  0  0  0
 19 18  1  0  0  0  0
 19 20  2  0  0  0  0
 20 25  1  0  0  0  0
 21 20  1  0  0  0  0
 21 22  2  0  0  0  0
 22 23  1  0  0  0  0
 23 24  2  0  0  0  0
 23 29  1  0  0  0  0
 24 30  1  0  0  0  0
 25 26  2  0  0  0  0
 25 24  1  0  0  0  0
 26 31  1  0  0  0  0
 27 18  1  0  0  0  0
 28 19  1  0  0  0  0
 32 33  1  0  0  0  0
 32 35  1  0  0  0  0
 34 32  1  0  0  0  0
 36 37  1  0  0  0  0
 36 39  1  0  0  0  0
 38 36  1  0  0  0  0
 41 40  1  0  0  0  0
M  END
>  <MODEL>
20

>  <REMARK>
 VINA RESULT:    -5.683      5.511      8.594
 INTER + INTRA:          -6.782
 INTER:                  -7.255
 INTRA:                   0.472
 UNBOUND:                -0.102
  Name = 
  4 active torsions:
  status: ('A' for Active; 'I' for Inactive)
    1  A    between atoms: C_1  and  C_2
    2  A    between atoms: C_7  and  C_8
    3  A    between atoms: C_13  and  O_14
    4  A    between atoms: C_13  and  C_15
                            x       y       z     vdW  Elec       q    Type
                         _______ _______ _______ _____ _____    ______ ____

>  <TORSDO>
F 4

$$$$
=
 OpenBabel07192307433D

 41 43  0  0  0  0  0  0  0  0999 V2000
    2.0640    8.2950   18.6670 C   0  0  0  0  0  0  0  0  0  0  0  0
    2.6110    8.5310   17.5870 O   0  0  0  0  0  0  0  0  0  0  0  0
    2.1450    7.0300   19.2660 N   0  0  0  0  0  0  0  0  0  0  0  0
    1.3100    6.5940   20.3860 C   0  0  0  0  0  0  0  0  0  0  0  0
    1.1190    5.0820   20.4030 C   0  0  0  0  0  0  0  0  0  0  0  0
    2.4640    4.3280   20.4410 C   0  0  0  0  0  0  0  0  0  0  0  0
    3.5920    5.1060   19.7350 C   0  0  0  0  0  0  0  0  0  0  0  0
    3.0450    6.0470   18.6710 C   0  0  0  0  0  0  0  0  0  0  0  0
    1.7970    6.9230   21.3110 H   0  0  0  0  0  0  0  0  0  0  0  0
    0.3260    7.0700   20.3190 H   0  0  0  0  0  0  0  0  0  0  0  0
    0.5020    4.8050   21.2670 H   0  0  0  0  0  0  0  0  0  0  0  0
    0.5550    4.8060   19.5030 H   0  0  0  0  0  0  0  0  0  0  0  0
    4.3180    4.4170   19.2840 H   0  0  0  0  0  0  0  0  0  0  0  0
    4.1620    5.6950   20.4660 H   0  0  0  0  0  0  0  0  0  0  0  0
    3.8760    6.5550   18.1690 H   0  0  0  0  0  0  0  0  0  0  0  0
    2.4840    5.5010   17.9040 H   0  0  0  0  0  0  0  0  0  0  0  0
   -1.0050   13.7070   20.3750 C   0  0  0  0  0  0  0  0  0  0  0  0
   -0.4300   13.8310   19.1100 C   0  0  0  0  0  0  0  0  0  0  0  0
    0.2940   12.7700   18.5550 C   0  0  0  0  0  0  0  0  0  0  0  0
    0.4570   11.5680   19.2260 C   0  0  0  0  0  0  0  0  0  0  0  0
    1.1640   10.5820   18.6480 N   0  0  0  0  0  0  0  0  0  0  0  0
    1.3090    9.4140   19.3290 C   0  0  0  0  0  0  0  0  0  0  0  0
    0.7460    9.1870   20.5770 C   0  0  0  0  0  0  0  0  0  0  0  0
    0.0180   10.2130   21.1700 C   0  0  0  0  0  0  0  0  0  0  0  0
   -0.1380   11.4310   20.4990 C   0  0  0  0  0  0  0  0  0  0  0  0
   -0.8660   12.4960   21.0610 C   0  0  0  0  0  0  0  0  0  0  0  0
   -0.5380   14.7530   18.5420 H   0  0  0  0  0  0  0  0  0  0  0  0
    0.7370   12.8880   17.5690 H   0  0  0  0  0  0  0  0  0  0  0  0
    0.8670    8.2320   21.0790 H   0  0  0  0  0  0  0  0  0  0  0  0
   -0.4270   10.0540   22.1490 H   0  0  0  0  0  0  0  0  0  0  0  0
   -1.3280   12.3790   22.0390 H   0  0  0  0  0  0  0  0  0  0  0  0
   -1.8130   14.8270   20.9620 C   0  0  0  0  0  0  0  0  0  0  0  0
   -1.2080   15.4230   21.6530 H   0  0  0  0  0  0  0  0  0  0  0  0
   -2.6640   14.4380   21.5290 H   0  0  0  0  0  0  0  0  0  0  0  0
   -2.1840   15.4780   20.1640 H   0  0  0  0  0  0  0  0  0  0  0  0
    2.2760    2.9440   19.7710 C   0  0  0  0  0  0  0  0  0  0  0  0
    3.4730    2.3850   19.4660 F   0  0  0  0  0  0  0  0  0  0  0  0
    1.5730    3.0360   18.6180 F   0  0  0  0  0  0  0  0  0  0  0  0
    1.6280    2.0760   20.5800 F   0  0  0  0  0  0  0  0  0  0  0  0
    2.8460    4.1670   21.8280 O   0  0  0  0  0  0  0  0  0  0  0  0
    3.7630    4.4730   21.9380 H   0  0  0  0  0  0  0  0  0  0  0  0
  1  3  1  0  0  0  0
  1 22  1  0  0  0  0
  2  1  2  0  0  0  0
  3  4  1  0  0  0  0
  4  5  1  0  0  0  0
  4  9  1  0  0  0  0
  5  6  1  0  0  0  0
  5 11  1  0  0  0  0
  6 40  1  0  0  0  0
  7  6  1  0  0  0  0
  7 14  1  0  0  0  0
  8  3  1  0  0  0  0
  8  7  1  0  0  0  0
 10  4  1  0  0  0  0
 12  5  1  0  0  0  0
 13  7  1  0  0  0  0
 15  8  1  0  0  0  0
 16  8  1  0  0  0  0
 17 32  1  0  0  0  0
 17 26  1  0  0  0  0
 18 17  2  0  0  0  0
 19 18  1  0  0  0  0
 19 20  2  0  0  0  0
 20 25  1  0  0  0  0
 21 20  1  0  0  0  0
 21 22  2  0  0  0  0
 22 23  1  0  0  0  0
 23 29  1  0  0  0  0
 23 24  2  0  0  0  0
 24 30  1  0  0  0  0
 25 26  2  0  0  0  0
 25 24  1  0  0  0  0
 26 31  1  0  0  0  0
 27 18  1  0  0  0  0
 28 19  1  0  0  0  0
 32 34  1  0  0  0  0
 32 33  1  0  0  0  0
 35 32  1  0  0  0  0
 36  6  1  0  0  0  0
 36 39  1  0  0  0  0
 37 36  1  0  0  0  0
 38 36  1  0  0  0  0
 40 41  1  0  0  0  0
M  END
>  <MODEL>
21

>  <REMARK>
 VINA RESULT:    -5.522      2.056      2.736
 INTER + INTRA:          -6.592
 INTER:                  -7.194
 INTRA:                   0.601
 UNBOUND:                -0.102
  Name = 
  4 active torsions:
  status: ('A' for Active; 'I' for Inactive)
    1  A    between atoms: C_1  and  C_2
    2  A    between atoms: C_7  and  C_8
    3  A    between atoms: C_13  and  O_14
    4  A    between atoms: C_13  and  C_15
                            x       y       z     vdW  Elec       q    Type
                         _______ _______ _______ _____ _____    ______ ____

>  <TORSDO>
F 4

$$$$
=
 OpenBabel07192307433D

 41 43  0  0  0  0  0  0  0  0999 V2000
    1.1500   11.3340   19.0600 C   0  0  0  0  0  0  0  0  0  0  0  0
    1.6600   12.1460   18.2830 O   0  0  0  0  0  0  0  0  0  0  0  0
    0.2200   11.7360   20.0290 N   0  0  0  0  0  0  0  0  0  0  0  0
   -0.2150   10.9010   21.1490 C   0  0  0  0  0  0  0  0  0  0  0  0
   -0.6610   11.7350   22.3450 C   0  0  0  0  0  0  0  0  0  0  0  0
   -1.7840   12.7240   21.9750 C   0  0  0  0  0  0  0  0  0  0  0  0
   -1.6950   13.1910   20.5090 C   0  0  0  0  0  0  0  0  0  0  0  0
   -0.2710   13.1100   19.9790 C   0  0  0  0  0  0  0  0  0  0  0  0
   -1.0430   10.2750   20.7960 H   0  0  0  0  0  0  0  0  0  0  0  0
    0.6070   10.2490   21.4640 H   0  0  0  0  0  0  0  0  0  0  0  0
   -0.9910   11.0650   23.1490 H   0  0  0  0  0  0  0  0  0  0  0  0
    0.2160   12.2790   22.7180 H   0  0  0  0  0  0  0  0  0  0  0  0
   -2.0730   14.2160   20.4030 H   0  0  0  0  0  0  0  0  0  0  0  0
   -2.3430   12.5730   19.8740 H   0  0  0  0  0  0  0  0  0  0  0  0
   -0.2410   13.4810   18.9490 H   0  0  0  0  0  0  0  0  0  0  0  0
    0.4120   13.7300   20.5700 H   0  0  0  0  0  0  0  0  0  0  0  0
    2.2970    5.0130   19.6590 C   0  0  0  0  0  0  0  0  0  0  0  0
    1.6950    5.5280   20.8070 C   0  0  0  0  0  0  0  0  0  0  0  0
    1.3710    6.8860   20.8870 C   0  0  0  0  0  0  0  0  0  0  0  0
    1.6230    7.7600   19.8410 C   0  0  0  0  0  0  0  0  0  0  0  0
    1.2950    9.0570   19.9720 N   0  0  0  0  0  0  0  0  0  0  0  0
    1.5550    9.8910   18.9310 C   0  0  0  0  0  0  0  0  0  0  0  0
    2.1210    9.4650   17.7380 C   0  0  0  0  0  0  0  0  0  0  0  0
    2.4610    8.1230   17.6110 C   0  0  0  0  0  0  0  0  0  0  0  0
    2.2170    7.2420   18.6710 C   0  0  0  0  0  0  0  0  0  0  0  0
    2.5450    5.8760   18.5850 C   0  0  0  0  0  0  0  0  0  0  0  0
    1.4700    4.8780   21.6510 H   0  0  0  0  0  0  0  0  0  0  0  0
    0.9050    7.2680   21.7930 H   0  0  0  0  0  0  0  0  0  0  0  0
    2.2930   10.1600   16.9210 H   0  0  0  0  0  0  0  0  0  0  0  0
    2.9090    7.7720   16.6840 H   0  0  0  0  0  0  0  0  0  0  0  0
    2.9950    5.4830   17.6760 H   0  0  0  0  0  0  0  0  0  0  0  0
    2.6150    3.5510   19.5500 C   0  0  0  0  0  0  0  0  0  0  0  0
    3.4910    3.3890   18.9120 H   0  0  0  0  0  0  0  0  0  0  0  0
    1.7810    3.0030   19.1010 H   0  0  0  0  0  0  0  0  0  0  0  0
    2.8190    3.1380   20.5430 H   0  0  0  0  0  0  0  0  0  0  0  0
   -1.7020   13.9450   22.9260 C   0  0  0  0  0  0  0  0  0  0  0  0
   -1.1990   15.0280   22.2830 F   0  0  0  0  0  0  0  0  0  0  0  0
   -0.8980   13.7020   23.9870 F   0  0  0  0  0  0  0  0  0  0  0  0
   -2.9180   14.2960   23.4020 F   0  0  0  0  0  0  0  0  0  0  0  0
   -3.0510   12.0430   22.1420 O   0  0  0  0  0  0  0  0  0  0  0  0
   -2.9850   11.1590   21.7400 H   0  0  0  0  0  0  0  0  0  0  0  0
  1  3  1  0  0  0  0
  2  1  2  0  0  0  0
  3  4  1  0  0  0  0
  4 10  1  0  0  0  0
  4  5  1  0  0  0  0
  5 12  1  0  0  0  0
  5 11  1  0  0  0  0
  6 40  1  0  0  0  0
  6  5  1  0  0  0  0
  6 36  1  0  0  0  0
  7  6  1  0  0  0  0
  8  3  1  0  0  0  0
  8  7  1  0  0  0  0
  8 16  1  0  0  0  0
  9  4  1  0  0  0  0
 13  7  1  0  0  0  0
 14  7  1  0  0  0  0
 15  8  1  0  0  0  0
 17 18  1  0  0  0  0
 18 19  2  0  0  0  0
 18 27  1  0  0  0  0
 19 28  1  0  0  0  0
 20 21  1  0  0  0  0
 20 19  1  0  0  0  0
 22  1  1  0  0  0  0
 22 21  2  0  0  0  0
 23 22  1  0  0  0  0
 24 23  2  0  0  0  0
 24 25  1  0  0  0  0
 25 20  2  0  0  0  0
 26 25  1  0  0  0  0
 26 17  2  0  0  0  0
 29 23  1  0  0  0  0
 30 24  1  0  0  0  0
 31 26  1  0  0  0  0
 32 17  1  0  0  0  0
 32 35  1  0  0  0  0
 33 32  1  0  0  0  0
 34 32  1  0  0  0  0
 36 39  1  0  0  0  0
 36 38  1  0  0  0  0
 37 36  1  0  0  0  0
 41 40  1  0  0  0  0
M  END
>  <MODEL>
22

>  <REMARK>
 VINA RESULT:    -5.430      5.761      8.624
 INTER + INTRA:          -6.485
 INTER:                  -6.991
 INTRA:                   0.505
 UNBOUND:                -0.102
  Name = 
  4 active torsions:
  status: ('A' for Active; 'I' for Inactive)
    1  A    between atoms: C_1  and  C_2
    2  A    between atoms: C_7  and  C_8
    3  A    between atoms: C_13  and  O_14
    4  A    between atoms: C_13  and  C_15
                            x       y       z     vdW  Elec       q    Type
                         _______ _______ _______ _____ _____    ______ ____

>  <TORSDO>
F 4

$$$$
=
 OpenBabel07192307433D

 41 43  0  0  0  0  0  0  0  0999 V2000
    1.3220    8.7070   18.4260 C   0  0  0  0  0  0  0  0  0  0  0  0
    0.8860    9.0370   17.3200 O   0  0  0  0  0  0  0  0  0  0  0  0
    0.7880    9.2370   19.6090 N   0  0  0  0  0  0  0  0  0  0  0  0
    1.4180    9.1150   20.9240 C   0  0  0  0  0  0  0  0  0  0  0  0
    1.0360   10.2640   21.8500 C   0  0  0  0  0  0  0  0  0  0  0  0
   -0.4920   10.3870   22.0220 C   0  0  0  0  0  0  0  0  0  0  0  0
   -1.2620    9.9160   20.7720 C   0  0  0  0  0  0  0  0  0  0  0  0
   -0.4210   10.0500   19.5110 C   0  0  0  0  0  0  0  0  0  0  0  0
    1.1010    8.1600   21.3580 H   0  0  0  0  0  0  0  0  0  0  0  0
    2.5070    9.1050   20.8110 H   0  0  0  0  0  0  0  0  0  0  0  0
    1.5190   10.1190   22.8240 H   0  0  0  0  0  0  0  0  0  0  0  0
    1.4450   11.1880   21.4220 H   0  0  0  0  0  0  0  0  0  0  0  0
   -2.1970   10.4780   20.6560 H   0  0  0  0  0  0  0  0  0  0  0  0
   -1.5630    8.8660   20.8850 H   0  0  0  0  0  0  0  0  0  0  0  0
   -1.0110    9.7390   18.6420 H   0  0  0  0  0  0  0  0  0  0  0  0
   -0.1130   11.0880   19.3430 H   0  0  0  0  0  0  0  0  0  0  0  0
    6.7190    5.2360   17.7550 C   0  0  0  0  0  0  0  0  0  0  0  0
    6.7090    6.3250   16.8830 C   0  0  0  0  0  0  0  0  0  0  0  0
    5.6180    7.2020   16.8610 C   0  0  0  0  0  0  0  0  0  0  0  0
    4.5270    7.0320   17.6990 C   0  0  0  0  0  0  0  0  0  0  0  0
    3.5050    7.9030   17.6350 N   0  0  0  0  0  0  0  0  0  0  0  0
    2.4480    7.7110   18.4670 C   0  0  0  0  0  0  0  0  0  0  0  0
    2.3840    6.6760   19.3890 C   0  0  0  0  0  0  0  0  0  0  0  0
    3.4430    5.7770   19.4480 C   0  0  0  0  0  0  0  0  0  0  0  0
    4.5410    5.9420   18.5950 C   0  0  0  0  0  0  0  0  0  0  0  0
    5.6350    5.0570   18.6200 C   0  0  0  0  0  0  0  0  0  0  0  0
    7.5470    6.5040   16.2130 H   0  0  0  0  0  0  0  0  0  0  0  0
    5.6280    8.0440   16.1720 H   0  0  0  0  0  0  0  0  0  0  0  0
    1.5300    6.5700   20.0520 H   0  0  0  0  0  0  0  0  0  0  0  0
    3.4090    4.9580   20.1620 H   0  0  0  0  0  0  0  0  0  0  0  0
    5.6400    4.2230   19.3200 H   0  0  0  0  0  0  0  0  0  0  0  0
    7.8990    4.3120   17.8100 C   0  0  0  0  0  0  0  0  0  0  0  0
    7.7050    3.3960   17.2410 H   0  0  0  0  0  0  0  0  0  0  0  0
    8.1120    4.0120   18.8420 H   0  0  0  0  0  0  0  0  0  0  0  0
    8.7820    4.8070   17.3950 H   0  0  0  0  0  0  0  0  0  0  0  0
   -0.8390   11.8650   22.3320 C   0  0  0  0  0  0  0  0  0  0  0  0
   -1.8530   12.3010   21.5450 F   0  0  0  0  0  0  0  0  0  0  0  0
    0.2160   12.6840   22.1150 F   0  0  0  0  0  0  0  0  0  0  0  0
   -1.2320   12.0320   23.6150 F   0  0  0  0  0  0  0  0  0  0  0  0
   -0.8860    9.5360   23.1250 O   0  0  0  0  0  0  0  0  0  0  0  0
   -0.2860    8.7710   23.1600 H   0  0  0  0  0  0  0  0  0  0  0  0
  1 22  1  0  0  0  0
  1  3  1  0  0  0  0
  2  1  2  0  0  0  0
  3  4  1  0  0  0  0
  4  9  1  0  0  0  0
  4  5  1  0  0  0  0
  5  6  1  0  0  0  0
  5 11  1  0  0  0  0
  6 36  1  0  0  0  0
  6 40  1  0  0  0  0
  7 14  1  0  0  0  0
  7  6  1  0  0  0  0
  8  3  1  0  0  0  0
  8  7  1  0  0  0  0
 10  4  1  0  0  0  0
 12  5  1  0  0  0  0
 13  7  1  0  0  0  0
 15  8  1  0  0  0  0
 16  8  1  0  0  0  0
 17 32  1  0  0  0  0
 17 26  1  0  0  0  0
 18 17  2  0  0  0  0
 19 18  1  0  0  0  0
 19 20  2  0  0  0  0
 20 25  1  0  0  0  0
 21 20  1  0  0  0  0
 21 22  2  0  0  0  0
 22 23  1  0  0  0  0
 23 24  2  0  0  0  0
 23 29  1  0  0  0  0
 24 30  1  0  0  0  0
 25 26  2  0  0  0  0
 25 24  1  0  0  0  0
 26 31  1  0  0  0  0
 27 18  1  0  0  0  0
 28 19  1  0  0  0  0
 32 34  1  0  0  0  0
 33 32  1  0  0  0  0
 35 32  1  0  0  0  0
 36 39  1  0  0  0  0
 37 36  1  0  0  0  0
 38 36  1  0  0  0  0
 40 41  1  0  0  0  0
M  END
>  <MODEL>
23

>  <REMARK>
 VINA RESULT:    -5.299      4.918      8.163
 INTER + INTRA:          -6.331
 INTER:                  -6.363
 INTRA:                   0.032
 UNBOUND:                -0.102
  Name = 
  4 active torsions:
  status: ('A' for Active; 'I' for Inactive)
    1  A    between atoms: C_1  and  C_2
    2  A    between atoms: C_7  and  C_8
    3  A    between atoms: C_13  and  O_14
    4  A    between atoms: C_13  and  C_15
                            x       y       z     vdW  Elec       q    Type
                         _______ _______ _______ _____ _____    ______ ____

>  <TORSDO>
F 4

$$$$
=
 OpenBabel07192307433D

 41 43  0  0  0  0  0  0  0  0999 V2000
    3.9560    5.9540   18.2600 C   0  0  0  0  0  0  0  0  0  0  0  0
    3.6890    7.1210   18.5580 O   0  0  0  0  0  0  0  0  0  0  0  0
    3.3570    4.8760   18.9270 N   0  0  0  0  0  0  0  0  0  0  0  0
    3.8160    3.4890   18.8270 C   0  0  0  0  0  0  0  0  0  0  0  0
    3.4710    2.6820   20.0730 C   0  0  0  0  0  0  0  0  0  0  0  0
    1.9590    2.7020   20.3760 C   0  0  0  0  0  0  0  0  0  0  0  0
    1.2850    4.0060   19.9080 C   0  0  0  0  0  0  0  0  0  0  0  0
    2.2720    5.1630   19.8590 C   0  0  0  0  0  0  0  0  0  0  0  0
    3.3420    3.0440   17.9460 H   0  0  0  0  0  0  0  0  0  0  0  0
    4.9030    3.4700   18.6880 H   0  0  0  0  0  0  0  0  0  0  0  0
    3.8210    1.6500   19.9430 H   0  0  0  0  0  0  0  0  0  0  0  0
    4.0320    3.1090   20.9140 H   0  0  0  0  0  0  0  0  0  0  0  0
    0.4410    4.2650   20.5600 H   0  0  0  0  0  0  0  0  0  0  0  0
    0.8510    3.8710   18.9080 H   0  0  0  0  0  0  0  0  0  0  0  0
    1.7510    6.0780   19.5560 H   0  0  0  0  0  0  0  0  0  0  0  0
    2.7170    5.3510   20.8430 H   0  0  0  0  0  0  0  0  0  0  0  0
    7.2140    4.3230   12.9360 C   0  0  0  0  0  0  0  0  0  0  0  0
    5.9450    3.7450   12.9470 C   0  0  0  0  0  0  0  0  0  0  0  0
    5.0770    3.9650   14.0230 C   0  0  0  0  0  0  0  0  0  0  0  0
    5.4360    4.7620   15.0990 C   0  0  0  0  0  0  0  0  0  0  0  0
    4.5650    4.9380   16.1070 N   0  0  0  0  0  0  0  0  0  0  0  0
    4.9440    5.7230   17.1500 C   0  0  0  0  0  0  0  0  0  0  0  0
    6.1730    6.3640   17.2120 C   0  0  0  0  0  0  0  0  0  0  0  0
    7.0700    6.1750   16.1670 C   0  0  0  0  0  0  0  0  0  0  0  0
    6.7130    5.3620   15.0850 C   0  0  0  0  0  0  0  0  0  0  0  0
    7.5890    5.1430   14.0060 C   0  0  0  0  0  0  0  0  0  0  0  0
    5.6160    3.1190   12.1200 H   0  0  0  0  0  0  0  0  0  0  0  0
    4.0930    3.5030   14.0130 H   0  0  0  0  0  0  0  0  0  0  0  0
    6.4290    7.0010   18.0540 H   0  0  0  0  0  0  0  0  0  0  0  0
    8.0390    6.6670   16.2000 H   0  0  0  0  0  0  0  0  0  0  0  0
    8.5690    5.6170   13.9990 H   0  0  0  0  0  0  0  0  0  0  0  0
    8.1370    4.1210   11.7710 C   0  0  0  0  0  0  0  0  0  0  0  0
    8.3340    5.0700   11.2600 H   0  0  0  0  0  0  0  0  0  0  0  0
    7.6930    3.4430   11.0350 H   0  0  0  0  0  0  0  0  0  0  0  0
    9.0870    3.7000   12.1140 H   0  0  0  0  0  0  0  0  0  0  0  0
    1.7560    2.5190   21.9010 C   0  0  0  0  0  0  0  0  0  0  0  0
    0.4380    2.5160   22.2190 F   0  0  0  0  0  0  0  0  0  0  0  0
    2.3350    3.5170   22.6080 F   0  0  0  0  0  0  0  0  0  0  0  0
    2.2720    1.3490   22.3420 F   0  0  0  0  0  0  0  0  0  0  0  0
    1.3450    1.6080   19.6530 O   0  0  0  0  0  0  0  0  0  0  0  0
    1.9640    1.3000   18.9670 H   0  0  0  0  0  0  0  0  0  0  0  0
  1  2  2  0  0  0  0
  1  3  1  0  0  0  0
  3  8  1  0  0  0  0
  4  3  1  0  0  0  0
  4  5  1  0  0  0  0
  5  6  1  0  0  0  0
  5 12  1  0  0  0  0
  6 36  1  0  0  0  0
  7  6  1  0  0  0  0
  7 13  1  0  0  0  0
  8  7  1  0  0  0  0
  8 16  1  0  0  0  0
  9  4  1  0  0  0  0
 10  4  1  0  0  0  0
 11  5  1  0  0  0  0
 14  7  1  0  0  0  0
 15  8  1  0  0  0  0
 17 18  2  0  0  0  0
 17 26  1  0  0  0  0
 18 19  1  0  0  0  0
 19 20  2  0  0  0  0
 20 21  1  0  0  0  0
 21 22  2  0  0  0  0
 22 23  1  0  0  0  0
 22  1  1  0  0  0  0
 23 29  1  0  0  0  0
 24 30  1  0  0  0  0
 24 23  2  0  0  0  0
 25 20  1  0  0  0  0
 25 24  1  0  0  0  0
 26 25  2  0  0  0  0
 27 18  1  0  0  0  0
 28 19  1  0  0  0  0
 31 26  1  0  0  0  0
 32 35  1  0  0  0  0
 32 17  1  0  0  0  0
 33 32  1  0  0  0  0
 34 32  1  0  0  0  0
 36 37  1  0  0  0  0
 36 39  1  0  0  0  0
 36 38  1  0  0  0  0
 40  6  1  0  0  0  0
 41 40  1  0  0  0  0
M  END
>  <MODEL>
24

>  <REMARK>
 VINA RESULT:    -5.248      4.197      7.547
 INTER + INTRA:          -6.270
 INTER:                  -6.118
 INTRA:                  -0.153
 UNBOUND:                -0.102
  Name = 
  4 active torsions:
  status: ('A' for Active; 'I' for Inactive)
    1  A    between atoms: C_1  and  C_2
    2  A    between atoms: C_7  and  C_8
    3  A    between atoms: C_13  and  O_14
    4  A    between atoms: C_13  and  C_15
                            x       y       z     vdW  Elec       q    Type
                         _______ _______ _______ _____ _____    ______ ____

>  <TORSDO>
F 4

$$$$
