=
 OpenBabel07192307433D

 51 54  0  0  0  0  0  0  0  0999 V2000
    2.8540    4.9400   19.4630 N   0  0  0  0  0  0  0  0  0  0  0  0
    3.2970    5.4020   18.2180 C   0  0  0  0  0  0  0  0  0  0  0  0
    3.1000    6.5970   17.7520 N   0  0  0  0  0  0  0  0  0  0  0  0
    2.4120    7.4270   18.5660 C   0  0  0  0  0  0  0  0  0  0  0  0
    2.0450    9.0470   18.1020 S   0  0  0  0  0  0  0  0  0  0  0  0
    1.2640    9.3070   19.5580 C   0  0  0  0  0  0  0  0  0  0  0  0
    1.2650    8.2240   20.3930 C   0  0  0  0  0  0  0  0  0  0  0  0
    1.9330    7.1210   19.8230 C   0  0  0  0  0  0  0  0  0  0  0  0
    2.1740    5.7950   20.3440 C   0  0  0  0  0  0  0  0  0  0  0  0
    1.8090    5.4750   21.4730 O   0  0  0  0  0  0  0  0  0  0  0  0
    0.5640    8.5230   21.6650 C   0  0  0  0  0  0  0  0  0  0  0  0
   -0.1690    9.8620   21.3280 C   0  0  0  0  0  0  0  0  0  0  0  0
    0.5770   10.4950   20.1110 C   0  0  0  0  0  0  0  0  0  0  0  0
    1.2840    8.6740   22.4750 H   0  0  0  0  0  0  0  0  0  0  0  0
   -0.1490    7.7450   21.9500 H   0  0  0  0  0  0  0  0  0  0  0  0
   -1.2030    9.6370   21.0340 H   0  0  0  0  0  0  0  0  0  0  0  0
   -0.2110   10.5390   22.1880 H   0  0  0  0  0  0  0  0  0  0  0  0
   -0.1260   10.9540   19.4120 H   0  0  0  0  0  0  0  0  0  0  0  0
    1.3020   11.2420   20.4510 H   0  0  0  0  0  0  0  0  0  0  0  0
    3.1140    3.5880   19.9740 C   0  0  0  0  0  0  0  0  0  0  0  0
    3.7860    3.0660   19.2820 H   0  0  0  0  0  0  0  0  0  0  0  0
    3.6510    3.6340   20.9250 H   0  0  0  0  0  0  0  0  0  0  0  0
    1.8210    2.7810   20.1220 C   0  0  0  0  0  0  0  0  0  0  0  0
    2.0110    1.8450   20.6570 H   0  0  0  0  0  0  0  0  0  0  0  0
    1.0960    3.3420   20.7240 H   0  0  0  0  0  0  0  0  0  0  0  0
    1.2050    2.4650   18.7670 C   0  0  0  0  0  0  0  0  0  0  0  0
    0.6770    3.3350   18.3650 H   0  0  0  0  0  0  0  0  0  0  0  0
    1.9850    2.1840   18.0530 H   0  0  0  0  0  0  0  0  0  0  0  0
    0.4970    1.6350   18.8420 H   0  0  0  0  0  0  0  0  0  0  0  0
    4.1920    4.2780   17.2020 S   0  0  0  0  0  0  0  0  0  0  0  0
    5.1920    5.4290   16.2070 C   0  0  0  0  0  0  0  0  0  0  0  0
    4.8910    6.4540   16.4440 H   0  0  0  0  0  0  0  0  0  0  0  0
    5.0220    5.2200   15.1460 H   0  0  0  0  0  0  0  0  0  0  0  0
    6.6820    5.2900   16.4910 C   0  0  0  0  0  0  0  0  0  0  0  0
    7.3600    4.3350   16.1080 O   0  0  0  0  0  0  0  0  0  0  0  0
    7.2960    6.3710   17.2660 C   0  0  0  0  0  0  0  0  0  0  0  0
    7.4060    7.6310   16.8060 N   0  0  0  0  0  0  0  0  0  0  0  0
    8.0140    8.2540   17.8330 N   0  0  0  0  0  0  0  0  0  0  0  0
    8.3120    7.5220   18.9200 N   0  0  0  0  0  0  0  0  0  0  0  0
    7.8560    6.3120   18.5700 C   0  0  0  0  0  0  0  0  0  0  0  0
    7.9700    5.1550   19.4860 C   0  0  0  0  0  0  0  0  0  0  0  0
    9.0160    4.9390   19.7310 H   0  0  0  0  0  0  0  0  0  0  0  0
    7.5420    4.2570   19.0280 H   0  0  0  0  0  0  0  0  0  0  0  0
    7.4400    5.3540   20.4220 H   0  0  0  0  0  0  0  0  0  0  0  0
    8.3240    9.6680   17.7750 C   0  0  0  0  0  0  0  0  0  0  0  0
    7.3750   10.2130   17.7110 H   0  0  0  0  0  0  0  0  0  0  0  0
    8.8800    9.8500   16.8490 H   0  0  0  0  0  0  0  0  0  0  0  0
    9.1260   10.1240   18.9800 C   0  0  0  0  0  0  0  0  0  0  0  0
    8.6070    9.8830   19.9140 H   0  0  0  0  0  0  0  0  0  0  0  0
   10.1040    9.6310   18.9950 H   0  0  0  0  0  0  0  0  0  0  0  0
    9.2900   11.2070   18.9580 H   0  0  0  0  0  0  0  0  0  0  0  0
  1 20  1  0  0  0  0
  1  9  1  0  0  0  0
  2  1  1  0  0  0  0
  3  2  2  0  0  0  0
  3  4  1  0  0  0  0
  4  8  2  0  0  0  0
  5  4  1  0  0  0  0
  5  6  1  0  0  0  0
  6 13  1  0  0  0  0
  6  7  2  0  0  0  0
  7 11  1  0  0  0  0
  8  9  1  0  0  0  0
  8  7  1  0  0  0  0
  9 10  2  0  0  0  0
 11 15  1  0  0  0  0
 11 14  1  0  0  0  0
 12 11  1  0  0  0  0
 12 17  1  0  0  0  0
 13 19  1  0  0  0  0
 13 12  1  0  0  0  0
 16 12  1  0  0  0  0
 18 13  1  0  0  0  0
 20 23  1  0  0  0  0
 20 22  1  0  0  0  0
 21 20  1  0  0  0  0
 23 24  1  0  0  0  0
 23 25  1  0  0  0  0
 26 29  1  0  0  0  0
 26 23  1  0  0  0  0
 27 26  1  0  0  0  0
 28 26  1  0  0  0  0
 30  2  1  0  0  0  0
 31 32  1  0  0  0  0
 31 34  1  0  0  0  0
 31 30  1  0  0  0  0
 33 31  1  0  0  0  0
 34 36  1  0  0  0  0
 35 34  2  0  0  0  0
 36 40  1  0  0  0  0
 37 36  2  0  0  0  0
 37 38  1  0  0  0  0
 38 39  1  0  0  0  0
 40 39  2  0  0  0  0
 40 41  1  0  0  0  0
 41 42  1  0  0  0  0
 41 44  1  0  0  0  0
 43 41  1  0  0  0  0
 45 38  1  0  0  0  0
 45 48  1  0  0  0  0
 46 45  1  0  0  0  0
 47 45  1  0  0  0  0
 48 50  1  0  0  0  0
 48 49  1  0  0  0  0
 51 48  1  0  0  0  0
M  END
>  <MODEL>
1

>  <REMARK>
 VINA RESULT:    -7.142      0.000      0.000
 INTER + INTRA:         -10.916
 INTER:                 -10.189
 INTRA:                  -0.726
 UNBOUND:                -0.225
  Name = 
  10 active torsions:
  status: ('A' for Active; 'I' for Inactive)
    1  A    between atoms: C_1  and  C_2
    2  A    between atoms: C_2  and  C_3
    3  A    between atoms: C_3  and  N_4
    4  A    between atoms: C_5  and  S_6
    5  A    between atoms: S_6  and  C_7
    6  A    between atoms: C_7  and  C_8
    7  A    between atoms: C_8  and  C_10
    8  A    between atoms: N_12  and  C_13
    9  A    between atoms: C_13  and  C_14
   10  A    between atoms: C_16  and  C_17
                            x       y       z     vdW  Elec       q    Type
                         _______ _______ _______ _____ _____    ______ ____

>  <TORSDO>
F 10

$$$$
=
 OpenBabel07192307433D

 51 54  0  0  0  0  0  0  0  0999 V2000
    2.5590    5.9200   19.5330 N   0  0  0  0  0  0  0  0  0  0  0  0
    3.1170    6.3300   18.3150 C   0  0  0  0  0  0  0  0  0  0  0  0
    2.9710    7.5060   17.7860 N   0  0  0  0  0  0  0  0  0  0  0  0
    2.2200    8.3710   18.5020 C   0  0  0  0  0  0  0  0  0  0  0  0
    1.9090    9.9730   17.9420 S   0  0  0  0  0  0  0  0  0  0  0  0
    1.0030   10.2940   19.3110 C   0  0  0  0  0  0  0  0  0  0  0  0
    0.9200    9.2460   20.1850 C   0  0  0  0  0  0  0  0  0  0  0  0
    1.6280    8.1180   19.7210 C   0  0  0  0  0  0  0  0  0  0  0  0
    1.8100    6.8130   20.3140 C   0  0  0  0  0  0  0  0  0  0  0  0
    1.3430    6.5400   21.4170 O   0  0  0  0  0  0  0  0  0  0  0  0
    0.1100    9.5990   21.3750 C   0  0  0  0  0  0  0  0  0  0  0  0
   -0.5790   10.9260   20.9210 C   0  0  0  0  0  0  0  0  0  0  0  0
    0.2780   11.5070   19.7530 C   0  0  0  0  0  0  0  0  0  0  0  0
    0.7550    9.7790   22.2410 H   0  0  0  0  0  0  0  0  0  0  0  0
   -0.6320    8.8360   21.6260 H   0  0  0  0  0  0  0  0  0  0  0  0
   -1.5840   10.6950   20.5450 H   0  0  0  0  0  0  0  0  0  0  0  0
   -0.6930   11.6370   21.7460 H   0  0  0  0  0  0  0  0  0  0  0  0
   -0.3560   11.9410   18.9750 H   0  0  0  0  0  0  0  0  0  0  0  0
    0.9750   12.2640   20.1270 H   0  0  0  0  0  0  0  0  0  0  0  0
    2.7620    4.5890   20.1180 C   0  0  0  0  0  0  0  0  0  0  0  0
    3.6440    4.1250   19.6590 H   0  0  0  0  0  0  0  0  0  0  0  0
    2.9940    4.6690   21.1830 H   0  0  0  0  0  0  0  0  0  0  0  0
    1.5470    3.6830   19.8950 C   0  0  0  0  0  0  0  0  0  0  0  0
    0.6570    4.2810   19.6770 H   0  0  0  0  0  0  0  0  0  0  0  0
    1.7140    3.0410   19.0220 H   0  0  0  0  0  0  0  0  0  0  0  0
    1.2750    2.8100   21.1110 C   0  0  0  0  0  0  0  0  0  0  0  0
    0.6370    3.3300   21.8310 H   0  0  0  0  0  0  0  0  0  0  0  0
    0.7650    1.8900   20.8100 H   0  0  0  0  0  0  0  0  0  0  0  0
    2.2080    2.5340   21.6120 H   0  0  0  0  0  0  0  0  0  0  0  0
    4.0900    5.1620   17.4290 S   0  0  0  0  0  0  0  0  0  0  0  0
    5.0900    6.2660   16.3820 C   0  0  0  0  0  0  0  0  0  0  0  0
    4.9040    7.3020   16.6820 H   0  0  0  0  0  0  0  0  0  0  0  0
    4.8040    6.1170   15.3350 H   0  0  0  0  0  0  0  0  0  0  0  0
    6.5820    5.9890   16.5150 C   0  0  0  0  0  0  0  0  0  0  0  0
    7.1500    5.0470   15.9620 O   0  0  0  0  0  0  0  0  0  0  0  0
    7.3380    6.9180   17.3600 C   0  0  0  0  0  0  0  0  0  0  0  0
    7.5420    8.2070   17.0310 N   0  0  0  0  0  0  0  0  0  0  0  0
    8.2620    8.6540   18.0760 N   0  0  0  0  0  0  0  0  0  0  0  0
    8.5490    7.7810   19.0580 N   0  0  0  0  0  0  0  0  0  0  0  0
    7.9620    6.6630   18.6100 C   0  0  0  0  0  0  0  0  0  0  0  0
    8.0160    5.4040   19.3870 C   0  0  0  0  0  0  0  0  0  0  0  0
    8.2100    5.5970   20.4480 H   0  0  0  0  0  0  0  0  0  0  0  0
    8.8140    4.7540   19.0130 H   0  0  0  0  0  0  0  0  0  0  0  0
    7.0660    4.8670   19.3120 H   0  0  0  0  0  0  0  0  0  0  0  0
    8.7020   10.0330   18.1500 C   0  0  0  0  0  0  0  0  0  0  0  0
    7.8180   10.6690   18.0240 H   0  0  0  0  0  0  0  0  0  0  0  0
    9.3730   10.2150   17.3030 H   0  0  0  0  0  0  0  0  0  0  0  0
    9.4010   10.3370   19.4620 C   0  0  0  0  0  0  0  0  0  0  0  0
    9.3480    9.4830   20.1460 H   0  0  0  0  0  0  0  0  0  0  0  0
   10.4560   10.5690   19.2860 H   0  0  0  0  0  0  0  0  0  0  0  0
    8.9420   11.1960   19.9640 H   0  0  0  0  0  0  0  0  0  0  0  0
  1 20  1  0  0  0  0
  1  9  1  0  0  0  0
  2  1  1  0  0  0  0
  3  2  2  0  0  0  0
  3  4  1  0  0  0  0
  4  8  2  0  0  0  0
  5  4  1  0  0  0  0
  5  6  1  0  0  0  0
  6 13  1  0  0  0  0
  6  7  2  0  0  0  0
  7 11  1  0  0  0  0
  8  7  1  0  0  0  0
  8  9  1  0  0  0  0
  9 10  2  0  0  0  0
 11 15  1  0  0  0  0
 11 14  1  0  0  0  0
 12 11  1  0  0  0  0
 12 17  1  0  0  0  0
 13 19  1  0  0  0  0
 13 12  1  0  0  0  0
 16 12  1  0  0  0  0
 18 13  1  0  0  0  0
 20 22  1  0  0  0  0
 21 20  1  0  0  0  0
 23 20  1  0  0  0  0
 23 26  1  0  0  0  0
 24 23  1  0  0  0  0
 25 23  1  0  0  0  0
 26 29  1  0  0  0  0
 26 27  1  0  0  0  0
 28 26  1  0  0  0  0
 30  2  1  0  0  0  0
 31 34  1  0  0  0  0
 31 32  1  0  0  0  0
 31 30  1  0  0  0  0
 33 31  1  0  0  0  0
 34 36  1  0  0  0  0
 35 34  2  0  0  0  0
 36 40  1  0  0  0  0
 37 36  2  0  0  0  0
 37 38  1  0  0  0  0
 38 45  1  0  0  0  0
 38 39  1  0  0  0  0
 40 39  2  0  0  0  0
 40 41  1  0  0  0  0
 41 42  1  0  0  0  0
 43 41  1  0  0  0  0
 44 41  1  0  0  0  0
 45 48  1  0  0  0  0
 46 45  1  0  0  0  0
 47 45  1  0  0  0  0
 48 51  1  0  0  0  0
 48 49  1  0  0  0  0
 50 48  1  0  0  0  0
M  END
>  <MODEL>
2

>  <REMARK>
 VINA RESULT:    -7.105      0.862      0.985
 INTER + INTRA:         -10.861
 INTER:                 -10.035
 INTRA:                  -0.826
 UNBOUND:                -0.225
  Name = 
  10 active torsions:
  status: ('A' for Active; 'I' for Inactive)
    1  A    between atoms: C_1  and  C_2
    2  A    between atoms: C_2  and  C_3
    3  A    between atoms: C_3  and  N_4
    4  A    between atoms: C_5  and  S_6
    5  A    between atoms: S_6  and  C_7
    6  A    between atoms: C_7  and  C_8
    7  A    between atoms: C_8  and  C_10
    8  A    between atoms: N_12  and  C_13
    9  A    between atoms: C_13  and  C_14
   10  A    between atoms: C_16  and  C_17
                            x       y       z     vdW  Elec       q    Type
                         _______ _______ _______ _____ _____    ______ ____

>  <TORSDO>
F 10

$$$$
=
 OpenBabel07192307433D

 51 54  0  0  0  0  0  0  0  0999 V2000
    2.2280    5.2310   19.4210 N   0  0  0  0  0  0  0  0  0  0  0  0
    2.4220    6.6180   19.4330 C   0  0  0  0  0  0  0  0  0  0  0  0
    3.2230    7.2670   18.6450 N   0  0  0  0  0  0  0  0  0  0  0  0
    3.9010    6.5050   17.7580 C   0  0  0  0  0  0  0  0  0  0  0  0
    5.0210    7.1980   16.6450 S   0  0  0  0  0  0  0  0  0  0  0  0
    5.3470    5.6870   16.0050 C   0  0  0  0  0  0  0  0  0  0  0  0
    4.6450    4.6690   16.5900 C   0  0  0  0  0  0  0  0  0  0  0  0
    3.7980    5.1370   17.6150 C   0  0  0  0  0  0  0  0  0  0  0  0
    2.8890    4.4240   18.4820 C   0  0  0  0  0  0  0  0  0  0  0  0
    2.7210    3.2120   18.3760 O   0  0  0  0  0  0  0  0  0  0  0  0
    4.9760    3.3620   15.9730 C   0  0  0  0  0  0  0  0  0  0  0  0
    6.2560    3.7050   15.1450 C   0  0  0  0  0  0  0  0  0  0  0  0
    6.2510    5.2500   14.9170 C   0  0  0  0  0  0  0  0  0  0  0  0
    4.1680    3.0330   15.3120 H   0  0  0  0  0  0  0  0  0  0  0  0
    5.1820    2.5840   16.7130 H   0  0  0  0  0  0  0  0  0  0  0  0
    7.1430    3.4350   15.7330 H   0  0  0  0  0  0  0  0  0  0  0  0
    6.3030    3.1470   14.2040 H   0  0  0  0  0  0  0  0  0  0  0  0
    7.2590    5.6640   14.9980 H   0  0  0  0  0  0  0  0  0  0  0  0
    5.8290    5.4920   13.9370 H   0  0  0  0  0  0  0  0  0  0  0  0
    1.2950    4.5280   20.3100 C   0  0  0  0  0  0  0  0  0  0  0  0
    0.5460    5.2400   20.6790 H   0  0  0  0  0  0  0  0  0  0  0  0
    0.7320    3.7730   19.7550 H   0  0  0  0  0  0  0  0  0  0  0  0
    2.0180    3.8960   21.5030 C   0  0  0  0  0  0  0  0  0  0  0  0
    3.1030    3.9590   21.3710 H   0  0  0  0  0  0  0  0  0  0  0  0
    1.7820    4.4500   22.4200 H   0  0  0  0  0  0  0  0  0  0  0  0
    1.6200    2.4390   21.6850 C   0  0  0  0  0  0  0  0  0  0  0  0
    1.5280    2.1880   22.7450 H   0  0  0  0  0  0  0  0  0  0  0  0
    0.6550    2.2480   21.2070 H   0  0  0  0  0  0  0  0  0  0  0  0
    2.3600    1.7710   21.2350 H   0  0  0  0  0  0  0  0  0  0  0  0
    1.5090    7.5590   20.6070 S   0  0  0  0  0  0  0  0  0  0  0  0
    1.2230    9.0960   19.6730 C   0  0  0  0  0  0  0  0  0  0  0  0
    1.0980    8.8490   18.6140 H   0  0  0  0  0  0  0  0  0  0  0  0
    2.0850    9.7580   19.8070 H   0  0  0  0  0  0  0  0  0  0  0  0
   -0.0250    9.8320   20.1440 C   0  0  0  0  0  0  0  0  0  0  0  0
   -0.4410    9.7900   21.3020 O   0  0  0  0  0  0  0  0  0  0  0  0
   -0.7360   10.6130   19.1280 C   0  0  0  0  0  0  0  0  0  0  0  0
   -1.7330   10.1060   18.3790 N   0  0  0  0  0  0  0  0  0  0  0  0
   -2.0710   11.1590   17.6120 N   0  0  0  0  0  0  0  0  0  0  0  0
   -1.3920   12.3050   17.7870 N   0  0  0  0  0  0  0  0  0  0  0  0
   -0.5310   11.9680   18.7570 C   0  0  0  0  0  0  0  0  0  0  0  0
    0.4440   12.9460   19.2900 C   0  0  0  0  0  0  0  0  0  0  0  0
    1.3270   13.0230   18.6470 H   0  0  0  0  0  0  0  0  0  0  0  0
    0.7820   12.6490   20.2880 H   0  0  0  0  0  0  0  0  0  0  0  0
   -0.0090   13.9400   19.3580 H   0  0  0  0  0  0  0  0  0  0  0  0
   -3.1420   11.0640   16.6400 C   0  0  0  0  0  0  0  0  0  0  0  0
   -3.2960   12.0640   16.2190 H   0  0  0  0  0  0  0  0  0  0  0  0
   -4.0550   10.7800   17.1760 H   0  0  0  0  0  0  0  0  0  0  0  0
   -2.8290   10.0610   15.5450 C   0  0  0  0  0  0  0  0  0  0  0  0
   -1.7670   10.0840   15.2800 H   0  0  0  0  0  0  0  0  0  0  0  0
   -3.0770    9.0470   15.8760 H   0  0  0  0  0  0  0  0  0  0  0  0
   -3.4050   10.2740   14.6380 H   0  0  0  0  0  0  0  0  0  0  0  0
  1  2  1  0  0  0  0
  1 20  1  0  0  0  0
  2 30  1  0  0  0  0
  3  2  2  0  0  0  0
  4  3  1  0  0  0  0
  5  4  1  0  0  0  0
  6  7  2  0  0  0  0
  6  5  1  0  0  0  0
  7  8  1  0  0  0  0
  8  4  2  0  0  0  0
  8  9  1  0  0  0  0
  9  1  1  0  0  0  0
 10  9  2  0  0  0  0
 11  7  1  0  0  0  0
 11 15  1  0  0  0  0
 12 16  1  0  0  0  0
 12 11  1  0  0  0  0
 13 18  1  0  0  0  0
 13 12  1  0  0  0  0
 13  6  1  0  0  0  0
 14 11  1  0  0  0  0
 17 12  1  0  0  0  0
 19 13  1  0  0  0  0
 20 21  1  0  0  0  0
 20 23  1  0  0  0  0
 22 20  1  0  0  0  0
 23 26  1  0  0  0  0
 23 25  1  0  0  0  0
 24 23  1  0  0  0  0
 26 27  1  0  0  0  0
 28 26  1  0  0  0  0
 29 26  1  0  0  0  0
 31 33  1  0  0  0  0
 31 34  1  0  0  0  0
 31 30  1  0  0  0  0
 32 31  1  0  0  0  0
 34 35  2  0  0  0  0
 36 34  1  0  0  0  0
 37 36  2  0  0  0  0
 38 39  1  0  0  0  0
 38 37  1  0  0  0  0
 39 40  2  0  0  0  0
 40 36  1  0  0  0  0
 40 41  1  0  0  0  0
 41 44  1  0  0  0  0
 41 43  1  0  0  0  0
 42 41  1  0  0  0  0
 45 47  1  0  0  0  0
 45 38  1  0  0  0  0
 46 45  1  0  0  0  0
 48 50  1  0  0  0  0
 48 45  1  0  0  0  0
 49 48  1  0  0  0  0
 51 48  1  0  0  0  0
M  END
>  <MODEL>
3

>  <REMARK>
 VINA RESULT:    -7.093      3.247      7.607
 INTER + INTRA:         -10.843
 INTER:                 -10.191
 INTRA:                  -0.651
 UNBOUND:                -0.225
  Name = 
  10 active torsions:
  status: ('A' for Active; 'I' for Inactive)
    1  A    between atoms: C_1  and  C_2
    2  A    between atoms: C_2  and  C_3
    3  A    between atoms: C_3  and  N_4
    4  A    between atoms: C_5  and  S_6
    5  A    between atoms: S_6  and  C_7
    6  A    between atoms: C_7  and  C_8
    7  A    between atoms: C_8  and  C_10
    8  A    between atoms: N_12  and  C_13
    9  A    between atoms: C_13  and  C_14
   10  A    between atoms: C_16  and  C_17
                            x       y       z     vdW  Elec       q    Type
                         _______ _______ _______ _____ _____    ______ ____

>  <TORSDO>
F 10

$$$$
=
 OpenBabel07192307433D

 51 54  0  0  0  0  0  0  0  0999 V2000
    2.1190    4.5470   19.0110 N   0  0  0  0  0  0  0  0  0  0  0  0
    2.3930    5.8480   19.4510 C   0  0  0  0  0  0  0  0  0  0  0  0
    3.3200    6.6180   18.9710 N   0  0  0  0  0  0  0  0  0  0  0  0
    4.0520    6.0840   17.9680 C   0  0  0  0  0  0  0  0  0  0  0  0
    5.3370    6.9600   17.2230 S   0  0  0  0  0  0  0  0  0  0  0  0
    5.6450    5.6730   16.2000 C   0  0  0  0  0  0  0  0  0  0  0  0
    4.8190    4.6000   16.3880 C   0  0  0  0  0  0  0  0  0  0  0  0
    3.8850    4.8300   17.4180 C   0  0  0  0  0  0  0  0  0  0  0  0
    2.8370    3.9850   17.9440 C   0  0  0  0  0  0  0  0  0  0  0  0
    2.6110    2.8750   17.4690 O   0  0  0  0  0  0  0  0  0  0  0  0
    5.1420    3.5000   15.4480 C   0  0  0  0  0  0  0  0  0  0  0  0
    6.5300    3.9460   14.8850 C   0  0  0  0  0  0  0  0  0  0  0  0
    6.6450    5.4850   15.1250 C   0  0  0  0  0  0  0  0  0  0  0  0
    4.4010    3.4510   14.6440 H   0  0  0  0  0  0  0  0  0  0  0  0
    5.2110    2.5260   15.9400 H   0  0  0  0  0  0  0  0  0  0  0  0
    7.3230    3.4380   15.4500 H   0  0  0  0  0  0  0  0  0  0  0  0
    6.6550    3.6790   13.8310 H   0  0  0  0  0  0  0  0  0  0  0  0
    7.6590    5.7640   15.4220 H   0  0  0  0  0  0  0  0  0  0  0  0
    6.3580    6.0370   14.2240 H   0  0  0  0  0  0  0  0  0  0  0  0
    1.0450    3.7080   19.5580 C   0  0  0  0  0  0  0  0  0  0  0  0
    0.4090    4.3180   20.2110 H   0  0  0  0  0  0  0  0  0  0  0  0
    0.3890    3.3540   18.7580 H   0  0  0  0  0  0  0  0  0  0  0  0
    1.6030    2.5280   20.3610 C   0  0  0  0  0  0  0  0  0  0  0  0
    0.8950    1.6930   20.3580 H   0  0  0  0  0  0  0  0  0  0  0  0
    2.5230    2.1590   19.8930 H   0  0  0  0  0  0  0  0  0  0  0  0
    1.9000    2.9260   21.7980 C   0  0  0  0  0  0  0  0  0  0  0  0
    1.9340    4.0140   21.9040 H   0  0  0  0  0  0  0  0  0  0  0  0
    1.1200    2.5460   22.4660 H   0  0  0  0  0  0  0  0  0  0  0  0
    2.8590    2.5180   22.1290 H   0  0  0  0  0  0  0  0  0  0  0  0
    1.4050    6.4930   20.7560 S   0  0  0  0  0  0  0  0  0  0  0  0
    1.5550    8.2820   20.4540 C   0  0  0  0  0  0  0  0  0  0  0  0
    1.7040    8.4490   19.3830 H   0  0  0  0  0  0  0  0  0  0  0  0
    2.4100    8.6660   21.0200 H   0  0  0  0  0  0  0  0  0  0  0  0
    0.3100    9.0450   20.8890 C   0  0  0  0  0  0  0  0  0  0  0  0
   -0.2920    8.8210   21.9390 O   0  0  0  0  0  0  0  0  0  0  0  0
   -0.1590   10.0900   19.9730 C   0  0  0  0  0  0  0  0  0  0  0  0
   -1.0980    9.8720   19.0330 N   0  0  0  0  0  0  0  0  0  0  0  0
   -1.2030   11.0820   18.4550 N   0  0  0  0  0  0  0  0  0  0  0  0
   -0.4230   12.0710   18.9260 N   0  0  0  0  0  0  0  0  0  0  0  0
    0.2520   11.4470   19.9010 C   0  0  0  0  0  0  0  0  0  0  0  0
    1.2540   12.1650   20.7200 C   0  0  0  0  0  0  0  0  0  0  0  0
    0.9530   12.2090   21.7720 H   0  0  0  0  0  0  0  0  0  0  0  0
    1.3780   13.1920   20.3640 H   0  0  0  0  0  0  0  0  0  0  0  0
    2.2230   11.6590   20.6690 H   0  0  0  0  0  0  0  0  0  0  0  0
   -2.1350   11.3160   17.3700 C   0  0  0  0  0  0  0  0  0  0  0  0
   -1.6550   12.0010   16.6630 H   0  0  0  0  0  0  0  0  0  0  0  0
   -3.0120   11.8230   17.7880 H   0  0  0  0  0  0  0  0  0  0  0  0
   -2.5400   10.0260   16.6800 C   0  0  0  0  0  0  0  0  0  0  0  0
   -3.2760   10.2150   15.8910 H   0  0  0  0  0  0  0  0  0  0  0  0
   -1.6670    9.5480   16.2260 H   0  0  0  0  0  0  0  0  0  0  0  0
   -2.9850    9.3220   17.3910 H   0  0  0  0  0  0  0  0  0  0  0  0
  1  2  1  0  0  0  0
  1 20  1  0  0  0  0
  2 30  1  0  0  0  0
  3  2  2  0  0  0  0
  4  3  1  0  0  0  0
  5  4  1  0  0  0  0
  6  7  2  0  0  0  0
  6  5  1  0  0  0  0
  7  8  1  0  0  0  0
  8  9  1  0  0  0  0
  8  4  2  0  0  0  0
  9  1  1  0  0  0  0
 10  9  2  0  0  0  0
 11 15  1  0  0  0  0
 11  7  1  0  0  0  0
 12 13  1  0  0  0  0
 12 11  1  0  0  0  0
 12 16  1  0  0  0  0
 13 18  1  0  0  0  0
 13  6  1  0  0  0  0
 14 11  1  0  0  0  0
 17 12  1  0  0  0  0
 19 13  1  0  0  0  0
 20 21  1  0  0  0  0
 20 23  1  0  0  0  0
 22 20  1  0  0  0  0
 23 26  1  0  0  0  0
 24 23  1  0  0  0  0
 25 23  1  0  0  0  0
 26 27  1  0  0  0  0
 26 29  1  0  0  0  0
 26 28  1  0  0  0  0
 31 30  1  0  0  0  0
 31 34  1  0  0  0  0
 31 33  1  0  0  0  0
 32 31  1  0  0  0  0
 34 35  2  0  0  0  0
 36 34  1  0  0  0  0
 37 36  2  0  0  0  0
 38 39  1  0  0  0  0
 38 37  1  0  0  0  0
 39 40  2  0  0  0  0
 40 36  1  0  0  0  0
 40 41  1  0  0  0  0
 41 42  1  0  0  0  0
 43 41  1  0  0  0  0
 44 41  1  0  0  0  0
 45 47  1  0  0  0  0
 45 38  1  0  0  0  0
 46 45  1  0  0  0  0
 48 45  1  0  0  0  0
 48 51  1  0  0  0  0
 49 48  1  0  0  0  0
 50 48  1  0  0  0  0
M  END
>  <MODEL>
4

>  <REMARK>
 VINA RESULT:    -6.941      3.034      7.326
 INTER + INTRA:         -10.615
 INTER:                 -10.052
 INTRA:                  -0.563
 UNBOUND:                -0.225
  Name = 
  10 active torsions:
  status: ('A' for Active; 'I' for Inactive)
    1  A    between atoms: C_1  and  C_2
    2  A    between atoms: C_2  and  C_3
    3  A    between atoms: C_3  and  N_4
    4  A    between atoms: C_5  and  S_6
    5  A    between atoms: S_6  and  C_7
    6  A    between atoms: C_7  and  C_8
    7  A    between atoms: C_8  and  C_10
    8  A    between atoms: N_12  and  C_13
    9  A    between atoms: C_13  and  C_14
   10  A    between atoms: C_16  and  C_17
                            x       y       z     vdW  Elec       q    Type
                         _______ _______ _______ _____ _____    ______ ____

>  <TORSDO>
F 10

$$$$
=
 OpenBabel07192307433D

 51 54  0  0  0  0  0  0  0  0999 V2000
    2.1940    4.4150   18.8430 N   0  0  0  0  0  0  0  0  0  0  0  0
    2.5240    5.6500   19.4160 C   0  0  0  0  0  0  0  0  0  0  0  0
    3.4920    6.4200   19.0250 N   0  0  0  0  0  0  0  0  0  0  0  0
    4.2100    5.9560   17.9770 C   0  0  0  0  0  0  0  0  0  0  0  0
    5.5440    6.8410   17.3350 S   0  0  0  0  0  0  0  0  0  0  0  0
    5.8040    5.6520   16.1880 C   0  0  0  0  0  0  0  0  0  0  0  0
    4.9250    4.6060   16.2590 C   0  0  0  0  0  0  0  0  0  0  0  0
    3.9910    4.7750   17.3010 C   0  0  0  0  0  0  0  0  0  0  0  0
    2.8990    3.9320   17.7300 C   0  0  0  0  0  0  0  0  0  0  0  0
    2.6260    2.8890   17.1410 O   0  0  0  0  0  0  0  0  0  0  0  0
    5.2080    3.5940   15.2130 C   0  0  0  0  0  0  0  0  0  0  0  0
    6.6220    4.0280   14.7090 C   0  0  0  0  0  0  0  0  0  0  0  0
    6.8060    5.5270   15.1060 C   0  0  0  0  0  0  0  0  0  0  0  0
    4.4740    3.6630   14.4030 H   0  0  0  0  0  0  0  0  0  0  0  0
    5.2250    2.5730   15.6030 H   0  0  0  0  0  0  0  0  0  0  0  0
    7.3830    3.4270   15.2240 H   0  0  0  0  0  0  0  0  0  0  0  0
    6.7470    3.8640   13.6340 H   0  0  0  0  0  0  0  0  0  0  0  0
    7.8290    5.7250   15.4370 H   0  0  0  0  0  0  0  0  0  0  0  0
    6.5570    6.1810   14.2640 H   0  0  0  0  0  0  0  0  0  0  0  0
    1.0760    3.5780   19.2930 C   0  0  0  0  0  0  0  0  0  0  0  0
    0.4020    4.1810   19.9140 H   0  0  0  0  0  0  0  0  0  0  0  0
    0.4750    3.2500   18.4410 H   0  0  0  0  0  0  0  0  0  0  0  0
    1.5630    2.3740   20.1060 C   0  0  0  0  0  0  0  0  0  0  0  0
    0.9280    1.5020   19.9170 H   0  0  0  0  0  0  0  0  0  0  0  0
    2.5770    2.0960   19.7930 H   0  0  0  0  0  0  0  0  0  0  0  0
    1.5670    2.6750   21.5970 C   0  0  0  0  0  0  0  0  0  0  0  0
    2.5680    2.5480   22.0190 H   0  0  0  0  0  0  0  0  0  0  0  0
    1.2530    3.7090   21.7750 H   0  0  0  0  0  0  0  0  0  0  0  0
    0.8790    2.0150   22.1330 H   0  0  0  0  0  0  0  0  0  0  0  0
    1.5520    6.2050   20.7730 S   0  0  0  0  0  0  0  0  0  0  0  0
    1.6420    8.0100   20.5500 C   0  0  0  0  0  0  0  0  0  0  0  0
    1.7350    8.2300   19.4820 H   0  0  0  0  0  0  0  0  0  0  0  0
    2.5130    8.3920   21.0930 H   0  0  0  0  0  0  0  0  0  0  0  0
    0.4000    8.7180   21.0780 C   0  0  0  0  0  0  0  0  0  0  0  0
   -0.5340    8.1320   21.6260 O   0  0  0  0  0  0  0  0  0  0  0  0
    0.3600   10.1720   20.8980 C   0  0  0  0  0  0  0  0  0  0  0  0
    0.9180   10.7940   19.8430 N   0  0  0  0  0  0  0  0  0  0  0  0
    0.6360   12.0850   20.0960 N   0  0  0  0  0  0  0  0  0  0  0  0
   -0.0530   12.3670   21.2160 N   0  0  0  0  0  0  0  0  0  0  0  0
   -0.2360   11.1480   21.7400 C   0  0  0  0  0  0  0  0  0  0  0  0
   -0.9690   10.9620   23.0120 C   0  0  0  0  0  0  0  0  0  0  0  0
   -1.9350   11.4770   22.9970 H   0  0  0  0  0  0  0  0  0  0  0  0
   -0.3900   11.3600   23.8520 H   0  0  0  0  0  0  0  0  0  0  0  0
   -1.1580    9.8990   23.1930 H   0  0  0  0  0  0  0  0  0  0  0  0
    1.0480   13.1360   19.1870 C   0  0  0  0  0  0  0  0  0  0  0  0
    1.2470   14.0320   19.7840 H   0  0  0  0  0  0  0  0  0  0  0  0
    0.2030   13.3530   18.5240 H   0  0  0  0  0  0  0  0  0  0  0  0
    2.2730   12.7420   18.3810 C   0  0  0  0  0  0  0  0  0  0  0  0
    2.2040   11.7040   18.0400 H   0  0  0  0  0  0  0  0  0  0  0  0
    2.3720   13.3860   17.5010 H   0  0  0  0  0  0  0  0  0  0  0  0
    3.1850   12.8380   18.9790 H   0  0  0  0  0  0  0  0  0  0  0  0
  1 20  1  0  0  0  0
  1  2  1  0  0  0  0
  2 30  1  0  0  0  0
  3  2  2  0  0  0  0
  4  3  1  0  0  0  0
  5  4  1  0  0  0  0
  6  7  2  0  0  0  0
  6  5  1  0  0  0  0
  7  8  1  0  0  0  0
  8  9  1  0  0  0  0
  8  4  2  0  0  0  0
  9  1  1  0  0  0  0
 10  9  2  0  0  0  0
 11 15  1  0  0  0  0
 11  7  1  0  0  0  0
 12 13  1  0  0  0  0
 12 11  1  0  0  0  0
 12 16  1  0  0  0  0
 13 18  1  0  0  0  0
 13  6  1  0  0  0  0
 14 11  1  0  0  0  0
 17 12  1  0  0  0  0
 19 13  1  0  0  0  0
 20 21  1  0  0  0  0
 20 23  1  0  0  0  0
 22 20  1  0  0  0  0
 23 26  1  0  0  0  0
 24 23  1  0  0  0  0
 25 23  1  0  0  0  0
 26 28  1  0  0  0  0
 26 27  1  0  0  0  0
 26 29  1  0  0  0  0
 31 30  1  0  0  0  0
 31 34  1  0  0  0  0
 31 33  1  0  0  0  0
 32 31  1  0  0  0  0
 34 35  2  0  0  0  0
 36 34  1  0  0  0  0
 36 40  1  0  0  0  0
 37 38  1  0  0  0  0
 37 36  2  0  0  0  0
 38 39  1  0  0  0  0
 39 40  2  0  0  0  0
 40 41  1  0  0  0  0
 41 44  1  0  0  0  0
 41 43  1  0  0  0  0
 42 41  1  0  0  0  0
 45 46  1  0  0  0  0
 45 38  1  0  0  0  0
 47 45  1  0  0  0  0
 48 51  1  0  0  0  0
 48 45  1  0  0  0  0
 49 48  1  0  0  0  0
 50 48  1  0  0  0  0
M  END
>  <MODEL>
5

>  <REMARK>
 VINA RESULT:    -6.912      2.985      7.022
 INTER + INTRA:         -10.572
 INTER:                 -10.219
 INTRA:                  -0.353
 UNBOUND:                -0.225
  Name = 
  10 active torsions:
  status: ('A' for Active; 'I' for Inactive)
    1  A    between atoms: C_1  and  C_2
    2  A    between atoms: C_2  and  C_3
    3  A    between atoms: C_3  and  N_4
    4  A    between atoms: C_5  and  S_6
    5  A    between atoms: S_6  and  C_7
    6  A    between atoms: C_7  and  C_8
    7  A    between atoms: C_8  and  C_10
    8  A    between atoms: N_12  and  C_13
    9  A    between atoms: C_13  and  C_14
   10  A    between atoms: C_16  and  C_17
                            x       y       z     vdW  Elec       q    Type
                         _______ _______ _______ _____ _____    ______ ____

>  <TORSDO>
F 10

$$$$
=
 OpenBabel07192307433D

 51 54  0  0  0  0  0  0  0  0999 V2000
    2.2160    4.2770   18.8000 N   0  0  0  0  0  0  0  0  0  0  0  0
    2.4910    5.5140   19.3960 C   0  0  0  0  0  0  0  0  0  0  0  0
    3.4380    6.3240   19.0330 N   0  0  0  0  0  0  0  0  0  0  0  0
    4.1890    5.9040   17.9920 C   0  0  0  0  0  0  0  0  0  0  0  0
    5.5000    6.8460   17.3860 S   0  0  0  0  0  0  0  0  0  0  0  0
    5.8210    5.6850   16.2250 C   0  0  0  0  0  0  0  0  0  0  0  0
    4.9810    4.6070   16.2650 C   0  0  0  0  0  0  0  0  0  0  0  0
    4.0240    4.7260   17.2930 C   0  0  0  0  0  0  0  0  0  0  0  0
    2.9560    3.8380   17.6910 C   0  0  0  0  0  0  0  0  0  0  0  0
    2.7310    2.7940   17.0820 O   0  0  0  0  0  0  0  0  0  0  0  0
    5.3170    3.6220   15.2090 C   0  0  0  0  0  0  0  0  0  0  0  0
    6.7220    4.1150   14.7360 C   0  0  0  0  0  0  0  0  0  0  0  0
    6.8460    5.6130   15.1590 C   0  0  0  0  0  0  0  0  0  0  0  0
    4.5950    3.6770   14.3880 H   0  0  0  0  0  0  0  0  0  0  0  0
    5.3650    2.5960   15.5840 H   0  0  0  0  0  0  0  0  0  0  0  0
    7.4960    3.5340   15.2550 H   0  0  0  0  0  0  0  0  0  0  0  0
    6.8710    3.9730   13.6610 H   0  0  0  0  0  0  0  0  0  0  0  0
    7.8550    5.8420   15.5100 H   0  0  0  0  0  0  0  0  0  0  0  0
    6.5860    6.2710   14.3230 H   0  0  0  0  0  0  0  0  0  0  0  0
    1.1220    3.3930   19.2180 C   0  0  0  0  0  0  0  0  0  0  0  0
    0.3850    3.9760   19.7840 H   0  0  0  0  0  0  0  0  0  0  0  0
    0.5840    3.0090   18.3470 H   0  0  0  0  0  0  0  0  0  0  0  0
    1.6280    2.2410   20.0910 C   0  0  0  0  0  0  0  0  0  0  0  0
    1.0400    1.3350   19.9110 H   0  0  0  0  0  0  0  0  0  0  0  0
    2.6640    1.9970   19.8250 H   0  0  0  0  0  0  0  0  0  0  0  0
    1.5630    2.5930   21.5690 C   0  0  0  0  0  0  0  0  0  0  0  0
    1.6840    1.7010   22.1900 H   0  0  0  0  0  0  0  0  0  0  0  0
    2.3620    3.2950   21.8260 H   0  0  0  0  0  0  0  0  0  0  0  0
    0.6070    3.0610   21.8190 H   0  0  0  0  0  0  0  0  0  0  0  0
    1.4780    6.0120   20.7450 S   0  0  0  0  0  0  0  0  0  0  0  0
    1.9090    7.7760   20.8710 C   0  0  0  0  0  0  0  0  0  0  0  0
    2.5340    8.0500   20.0160 H   0  0  0  0  0  0  0  0  0  0  0  0
    2.4540    7.9430   21.8070 H   0  0  0  0  0  0  0  0  0  0  0  0
    0.6760    8.6720   20.8690 C   0  0  0  0  0  0  0  0  0  0  0  0
   -0.3770    8.3790   21.4360 O   0  0  0  0  0  0  0  0  0  0  0  0
    0.7980    9.9360   20.1370 C   0  0  0  0  0  0  0  0  0  0  0  0
    0.5510   11.1340   20.6980 N   0  0  0  0  0  0  0  0  0  0  0  0
    0.7880   11.9780   19.6770 N   0  0  0  0  0  0  0  0  0  0  0  0
    1.1670   11.4460   18.5010 N   0  0  0  0  0  0  0  0  0  0  0  0
    1.1770   10.1360   18.7830 C   0  0  0  0  0  0  0  0  0  0  0  0
    1.5470    9.1340   17.7580 C   0  0  0  0  0  0  0  0  0  0  0  0
    2.6320    8.9970   17.7050 H   0  0  0  0  0  0  0  0  0  0  0  0
    1.2000    9.4490   16.7690 H   0  0  0  0  0  0  0  0  0  0  0  0
    1.0970    8.1640   17.9920 H   0  0  0  0  0  0  0  0  0  0  0  0
    0.6550   13.4110   19.8410 C   0  0  0  0  0  0  0  0  0  0  0  0
    1.6560   13.8490   19.7560 H   0  0  0  0  0  0  0  0  0  0  0  0
    0.2900   13.5980   20.8570 H   0  0  0  0  0  0  0  0  0  0  0  0
   -0.2860   14.0160   18.8150 C   0  0  0  0  0  0  0  0  0  0  0  0
   -1.0080   13.2750   18.4560 H   0  0  0  0  0  0  0  0  0  0  0  0
   -0.8420   14.8500   19.2540 H   0  0  0  0  0  0  0  0  0  0  0  0
    0.2660   14.3930   17.9470 H   0  0  0  0  0  0  0  0  0  0  0  0
  1 20  1  0  0  0  0
  1  2  1  0  0  0  0
  2 30  1  0  0  0  0
  3  2  2  0  0  0  0
  4  3  1  0  0  0  0
  5  4  1  0  0  0  0
  6  7  2  0  0  0  0
  6  5  1  0  0  0  0
  7  8  1  0  0  0  0
  8  9  1  0  0  0  0
  8  4  2  0  0  0  0
  9  1  1  0  0  0  0
 10  9  2  0  0  0  0
 11 15  1  0  0  0  0
 11  7  1  0  0  0  0
 12 13  1  0  0  0  0
 12 11  1  0  0  0  0
 12 16  1  0  0  0  0
 13 18  1  0  0  0  0
 13  6  1  0  0  0  0
 14 11  1  0  0  0  0
 17 12  1  0  0  0  0
 19 13  1  0  0  0  0
 20 21  1  0  0  0  0
 20 23  1  0  0  0  0
 22 20  1  0  0  0  0
 23 26  1  0  0  0  0
 24 23  1  0  0  0  0
 25 23  1  0  0  0  0
 26 29  1  0  0  0  0
 26 28  1  0  0  0  0
 26 27  1  0  0  0  0
 30 31  1  0  0  0  0
 31 33  1  0  0  0  0
 32 31  1  0  0  0  0
 34 31  1  0  0  0  0
 34 35  2  0  0  0  0
 36 37  2  0  0  0  0
 36 34  1  0  0  0  0
 38 45  1  0  0  0  0
 38 37  1  0  0  0  0
 39 40  2  0  0  0  0
 39 38  1  0  0  0  0
 40 36  1  0  0  0  0
 41 44  1  0  0  0  0
 41 40  1  0  0  0  0
 42 41  1  0  0  0  0
 43 41  1  0  0  0  0
 45 47  1  0  0  0  0
 46 45  1  0  0  0  0
 48 50  1  0  0  0  0
 48 45  1  0  0  0  0
 49 48  1  0  0  0  0
 51 48  1  0  0  0  0
M  END
>  <MODEL>
6

>  <REMARK>
 VINA RESULT:    -6.832      2.998      6.791
 INTER + INTRA:         -10.452
 INTER:                  -9.922
 INTRA:                  -0.530
 UNBOUND:                -0.225
  Name = 
  10 active torsions:
  status: ('A' for Active; 'I' for Inactive)
    1  A    between atoms: C_1  and  C_2
    2  A    between atoms: C_2  and  C_3
    3  A    between atoms: C_3  and  N_4
    4  A    between atoms: C_5  and  S_6
    5  A    between atoms: S_6  and  C_7
    6  A    between atoms: C_7  and  C_8
    7  A    between atoms: C_8  and  C_10
    8  A    between atoms: N_12  and  C_13
    9  A    between atoms: C_13  and  C_14
   10  A    between atoms: C_16  and  C_17
                            x       y       z     vdW  Elec       q    Type
                         _______ _______ _______ _____ _____    ______ ____

>  <TORSDO>
F 10

$$$$
=
 OpenBabel07192307433D

 51 54  0  0  0  0  0  0  0  0999 V2000
    2.2920    5.1160   19.3940 N   0  0  0  0  0  0  0  0  0  0  0  0
    2.4850    6.5030   19.4110 C   0  0  0  0  0  0  0  0  0  0  0  0
    3.2840    7.1550   18.6240 N   0  0  0  0  0  0  0  0  0  0  0  0
    3.9600    6.3980   17.7320 C   0  0  0  0  0  0  0  0  0  0  0  0
    5.0780    7.0960   16.6200 S   0  0  0  0  0  0  0  0  0  0  0  0
    5.4030    5.5880   15.9720 C   0  0  0  0  0  0  0  0  0  0  0  0
    4.7030    4.5680   16.5550 C   0  0  0  0  0  0  0  0  0  0  0  0
    3.8570    5.0310   17.5840 C   0  0  0  0  0  0  0  0  0  0  0  0
    2.9510    4.3140   18.4500 C   0  0  0  0  0  0  0  0  0  0  0  0
    2.7830    3.1010   18.3390 O   0  0  0  0  0  0  0  0  0  0  0  0
    5.0330    3.2640   15.9320 C   0  0  0  0  0  0  0  0  0  0  0  0
    6.3110    3.6100   15.1020 C   0  0  0  0  0  0  0  0  0  0  0  0
    6.3050    5.1560   14.8810 C   0  0  0  0  0  0  0  0  0  0  0  0
    4.2240    2.9370   15.2710 H   0  0  0  0  0  0  0  0  0  0  0  0
    5.2410    2.4820   16.6670 H   0  0  0  0  0  0  0  0  0  0  0  0
    7.1990    3.3380   15.6870 H   0  0  0  0  0  0  0  0  0  0  0  0
    6.3560    3.0560   14.1590 H   0  0  0  0  0  0  0  0  0  0  0  0
    7.3130    5.5710   14.9620 H   0  0  0  0  0  0  0  0  0  0  0  0
    5.8800    5.4030   13.9030 H   0  0  0  0  0  0  0  0  0  0  0  0
    1.3600    4.4090   20.2810 C   0  0  0  0  0  0  0  0  0  0  0  0
    0.5840    5.1080   20.6180 H   0  0  0  0  0  0  0  0  0  0  0  0
    0.8310    3.6240   19.7350 H   0  0  0  0  0  0  0  0  0  0  0  0
    2.0760    3.8280   21.5040 C   0  0  0  0  0  0  0  0  0  0  0  0
    3.1560    3.7780   21.3290 H   0  0  0  0  0  0  0  0  0  0  0  0
    1.9310    4.4850   22.3700 H   0  0  0  0  0  0  0  0  0  0  0  0
    1.5600    2.4380   21.8410 C   0  0  0  0  0  0  0  0  0  0  0  0
    0.5700    2.2720   21.4070 H   0  0  0  0  0  0  0  0  0  0  0  0
    2.2350    1.6750   21.4420 H   0  0  0  0  0  0  0  0  0  0  0  0
    1.4900    2.2970   22.9240 H   0  0  0  0  0  0  0  0  0  0  0  0
    1.5740    7.4390   20.5900 S   0  0  0  0  0  0  0  0  0  0  0  0
    1.2560    8.9660   19.6520 C   0  0  0  0  0  0  0  0  0  0  0  0
    0.9680    8.7010   18.6310 H   0  0  0  0  0  0  0  0  0  0  0  0
    2.1690    9.5730   19.6420 H   0  0  0  0  0  0  0  0  0  0  0  0
    0.1360    9.7960   20.2660 C   0  0  0  0  0  0  0  0  0  0  0  0
   -0.4350    9.4970   21.3150 O   0  0  0  0  0  0  0  0  0  0  0  0
   -0.2510   11.0030   19.5290 C   0  0  0  0  0  0  0  0  0  0  0  0
    0.2340   12.2250   19.8200 N   0  0  0  0  0  0  0  0  0  0  0  0
   -0.3840   12.9970   18.9070 N   0  0  0  0  0  0  0  0  0  0  0  0
   -1.2260   12.3980   18.0480 N   0  0  0  0  0  0  0  0  0  0  0  0
   -1.1500   11.1180   18.4370 C   0  0  0  0  0  0  0  0  0  0  0  0
   -1.9310   10.0620   17.7540 C   0  0  0  0  0  0  0  0  0  0  0  0
   -1.5290    9.8470   16.7580 H   0  0  0  0  0  0  0  0  0  0  0  0
   -2.9750   10.3700   17.6350 H   0  0  0  0  0  0  0  0  0  0  0  0
   -1.9060    9.1330   18.3330 H   0  0  0  0  0  0  0  0  0  0  0  0
   -0.1390   14.4240   18.8430 C   0  0  0  0  0  0  0  0  0  0  0  0
   -0.4440   14.7680   17.8480 H   0  0  0  0  0  0  0  0  0  0  0  0
    0.9410   14.5820   18.9380 H   0  0  0  0  0  0  0  0  0  0  0  0
   -0.8880   15.1790   19.9260 C   0  0  0  0  0  0  0  0  0  0  0  0
   -0.2260   15.8770   20.4500 H   0  0  0  0  0  0  0  0  0  0  0  0
   -1.7120   15.7520   19.4900 H   0  0  0  0  0  0  0  0  0  0  0  0
   -1.3050   14.4910   20.6690 H   0  0  0  0  0  0  0  0  0  0  0  0
  1  2  1  0  0  0  0
  1 20  1  0  0  0  0
  2 30  1  0  0  0  0
  3  2  2  0  0  0  0
  4  3  1  0  0  0  0
  5  4  1  0  0  0  0
  6  7  2  0  0  0  0
  6  5  1  0  0  0  0
  7  8  1  0  0  0  0
  8  4  2  0  0  0  0
  8  9  1  0  0  0  0
  9  1  1  0  0  0  0
 10  9  2  0  0  0  0
 11  7  1  0  0  0  0
 11 15  1  0  0  0  0
 12 16  1  0  0  0  0
 12 11  1  0  0  0  0
 13 18  1  0  0  0  0
 13 12  1  0  0  0  0
 13  6  1  0  0  0  0
 14 11  1  0  0  0  0
 17 12  1  0  0  0  0
 19 13  1  0  0  0  0
 20 21  1  0  0  0  0
 20 23  1  0  0  0  0
 22 20  1  0  0  0  0
 23 26  1  0  0  0  0
 23 25  1  0  0  0  0
 24 23  1  0  0  0  0
 26 29  1  0  0  0  0
 27 26  1  0  0  0  0
 28 26  1  0  0  0  0
 31 34  1  0  0  0  0
 31 30  1  0  0  0  0
 32 31  1  0  0  0  0
 33 31  1  0  0  0  0
 34 35  2  0  0  0  0
 36 37  2  0  0  0  0
 36 34  1  0  0  0  0
 38 37  1  0  0  0  0
 39 40  2  0  0  0  0
 39 38  1  0  0  0  0
 40 36  1  0  0  0  0
 41 44  1  0  0  0  0
 41 40  1  0  0  0  0
 42 41  1  0  0  0  0
 43 41  1  0  0  0  0
 45 38  1  0  0  0  0
 45 47  1  0  0  0  0
 45 48  1  0  0  0  0
 46 45  1  0  0  0  0
 48 49  1  0  0  0  0
 48 51  1  0  0  0  0
 50 48  1  0  0  0  0
M  END
>  <MODEL>
7

>  <REMARK>
 VINA RESULT:    -6.748      3.259      7.406
 INTER + INTRA:         -10.326
 INTER:                  -9.703
 INTRA:                  -0.623
 UNBOUND:                -0.225
  Name = 
  10 active torsions:
  status: ('A' for Active; 'I' for Inactive)
    1  A    between atoms: C_1  and  C_2
    2  A    between atoms: C_2  and  C_3
    3  A    between atoms: C_3  and  N_4
    4  A    between atoms: C_5  and  S_6
    5  A    between atoms: S_6  and  C_7
    6  A    between atoms: C_7  and  C_8
    7  A    between atoms: C_8  and  C_10
    8  A    between atoms: N_12  and  C_13
    9  A    between atoms: C_13  and  C_14
   10  A    between atoms: C_16  and  C_17
                            x       y       z     vdW  Elec       q    Type
                         _______ _______ _______ _____ _____    ______ ____

>  <TORSDO>
F 10

$$$$
=
 OpenBabel07192307433D

 51 54  0  0  0  0  0  0  0  0999 V2000
    2.6020    4.8350   19.6500 N   0  0  0  0  0  0  0  0  0  0  0  0
    3.1590    5.1070   18.3950 C   0  0  0  0  0  0  0  0  0  0  0  0
    3.1170    6.2540   17.7910 N   0  0  0  0  0  0  0  0  0  0  0  0
    2.4790    7.2370   18.4650 C   0  0  0  0  0  0  0  0  0  0  0  0
    2.3140    8.8220   17.8070 S   0  0  0  0  0  0  0  0  0  0  0  0
    1.4870    9.3230   19.1720 C   0  0  0  0  0  0  0  0  0  0  0  0
    1.3270    8.3470   20.1170 C   0  0  0  0  0  0  0  0  0  0  0  0
    1.9020    7.1250   19.7130 C   0  0  0  0  0  0  0  0  0  0  0  0
    1.9700    5.8490   20.3870 C   0  0  0  0  0  0  0  0  0  0  0  0
    1.5130    5.6970   21.5180 O   0  0  0  0  0  0  0  0  0  0  0  0
    0.5930    8.8570   21.3000 C   0  0  0  0  0  0  0  0  0  0  0  0
    0.0280   10.2160   20.7750 C   0  0  0  0  0  0  0  0  0  0  0  0
    0.9030   10.6290   19.5490 C   0  0  0  0  0  0  0  0  0  0  0  0
    1.2800    9.0250   22.1350 H   0  0  0  0  0  0  0  0  0  0  0  0
   -0.2140    8.1920   21.6200 H   0  0  0  0  0  0  0  0  0  0  0  0
   -1.0070   10.0650   20.4390 H   0  0  0  0  0  0  0  0  0  0  0  0
    0.0120   10.9870   21.5520 H   0  0  0  0  0  0  0  0  0  0  0  0
    0.2920   11.0750   18.7600 H   0  0  0  0  0  0  0  0  0  0  0  0
    1.6830   11.3330   19.8540 H   0  0  0  0  0  0  0  0  0  0  0  0
    2.6870    3.5310   20.3190 C   0  0  0  0  0  0  0  0  0  0  0  0
    3.3870    2.8900   19.7680 H   0  0  0  0  0  0  0  0  0  0  0  0
    3.1150    3.6400   21.3190 H   0  0  0  0  0  0  0  0  0  0  0  0
    1.3220    2.8400   20.3870 C   0  0  0  0  0  0  0  0  0  0  0  0
    1.3820    1.9300   20.9920 H   0  0  0  0  0  0  0  0  0  0  0  0
    0.5950    3.4960   20.8800 H   0  0  0  0  0  0  0  0  0  0  0  0
    0.8100    2.4840   18.9990 C   0  0  0  0  0  0  0  0  0  0  0  0
    1.4490    1.7320   18.5280 H   0  0  0  0  0  0  0  0  0  0  0  0
   -0.2030    2.0750   19.0630 H   0  0  0  0  0  0  0  0  0  0  0  0
    0.7810    3.3660   18.3530 H   0  0  0  0  0  0  0  0  0  0  0  0
    3.9820    3.7900   17.5660 S   0  0  0  0  0  0  0  0  0  0  0  0
    5.6480    3.9130   18.2880 C   0  0  0  0  0  0  0  0  0  0  0  0
    6.0250    2.9040   18.4820 H   0  0  0  0  0  0  0  0  0  0  0  0
    5.5890    4.4800   19.2230 H   0  0  0  0  0  0  0  0  0  0  0  0
    6.6280    4.6200   17.3600 C   0  0  0  0  0  0  0  0  0  0  0  0
    7.6550    5.1730   17.7520 O   0  0  0  0  0  0  0  0  0  0  0  0
    6.2830    4.6180   15.9350 C   0  0  0  0  0  0  0  0  0  0  0  0
    6.5670    3.5900   15.1150 N   0  0  0  0  0  0  0  0  0  0  0  0
    6.0760    4.0240   13.9390 N   0  0  0  0  0  0  0  0  0  0  0  0
    5.4980    5.2380   13.9130 N   0  0  0  0  0  0  0  0  0  0  0  0
    5.6250    5.6300   15.1880 C   0  0  0  0  0  0  0  0  0  0  0  0
    5.1150    6.9440   15.6400 C   0  0  0  0  0  0  0  0  0  0  0  0
    5.9180    7.5680   16.0460 H   0  0  0  0  0  0  0  0  0  0  0  0
    4.3620    6.8160   16.4250 H   0  0  0  0  0  0  0  0  0  0  0  0
    4.6580    7.4850   14.8050 H   0  0  0  0  0  0  0  0  0  0  0  0
    6.1530    3.2060   12.7460 C   0  0  0  0  0  0  0  0  0  0  0  0
    6.3280    2.1720   13.0640 H   0  0  0  0  0  0  0  0  0  0  0  0
    7.0260    3.5350   12.1710 H   0  0  0  0  0  0  0  0  0  0  0  0
    4.8920    3.3050   11.9070 C   0  0  0  0  0  0  0  0  0  0  0  0
    5.0290    3.9950   11.0680 H   0  0  0  0  0  0  0  0  0  0  0  0
    4.6270    2.3230   11.5020 H   0  0  0  0  0  0  0  0  0  0  0  0
    4.0480    3.6670   12.5040 H   0  0  0  0  0  0  0  0  0  0  0  0
  1 20  1  0  0  0  0
  1  9  1  0  0  0  0
  2  1  1  0  0  0  0
  3  2  2  0  0  0  0
  3  4  1  0  0  0  0
  4  8  2  0  0  0  0
  5  4  1  0  0  0  0
  5  6  1  0  0  0  0
  6 13  1  0  0  0  0
  6  7  2  0  0  0  0
  7 11  1  0  0  0  0
  8  7  1  0  0  0  0
  8  9  1  0  0  0  0
  9 10  2  0  0  0  0
 11 15  1  0  0  0  0
 11 14  1  0  0  0  0
 12 11  1  0  0  0  0
 12 17  1  0  0  0  0
 13 19  1  0  0  0  0
 13 12  1  0  0  0  0
 16 12  1  0  0  0  0
 18 13  1  0  0  0  0
 20 23  1  0  0  0  0
 20 22  1  0  0  0  0
 21 20  1  0  0  0  0
 23 25  1  0  0  0  0
 23 24  1  0  0  0  0
 26 28  1  0  0  0  0
 26 23  1  0  0  0  0
 27 26  1  0  0  0  0
 29 26  1  0  0  0  0
 30 31  1  0  0  0  0
 30  2  1  0  0  0  0
 31 32  1  0  0  0  0
 31 33  1  0  0  0  0
 34 35  2  0  0  0  0
 34 31  1  0  0  0  0
 36 34  1  0  0  0  0
 37 36  2  0  0  0  0
 38 37  1  0  0  0  0
 39 38  1  0  0  0  0
 39 40  2  0  0  0  0
 40 41  1  0  0  0  0
 40 36  1  0  0  0  0
 41 42  1  0  0  0  0
 41 43  1  0  0  0  0
 44 41  1  0  0  0  0
 45 46  1  0  0  0  0
 45 38  1  0  0  0  0
 47 45  1  0  0  0  0
 48 51  1  0  0  0  0
 48 45  1  0  0  0  0
 49 48  1  0  0  0  0
 50 48  1  0  0  0  0
M  END
>  <MODEL>
8

>  <REMARK>
 VINA RESULT:    -6.517      2.393      3.511
 INTER + INTRA:          -9.980
 INTER:                  -9.664
 INTRA:                  -0.317
 UNBOUND:                -0.225
  Name = 
  10 active torsions:
  status: ('A' for Active; 'I' for Inactive)
    1  A    between atoms: C_1  and  C_2
    2  A    between atoms: C_2  and  C_3
    3  A    between atoms: C_3  and  N_4
    4  A    between atoms: C_5  and  S_6
    5  A    between atoms: S_6  and  C_7
    6  A    between atoms: C_7  and  C_8
    7  A    between atoms: C_8  and  C_10
    8  A    between atoms: N_12  and  C_13
    9  A    between atoms: C_13  and  C_14
   10  A    between atoms: C_16  and  C_17
                            x       y       z     vdW  Elec       q    Type
                         _______ _______ _______ _____ _____    ______ ____

>  <TORSDO>
F 10

$$$$
=
 OpenBabel07192307433D

 51 54  0  0  0  0  0  0  0  0999 V2000
    2.1470    7.4460   18.8110 N   0  0  0  0  0  0  0  0  0  0  0  0
    1.9100    6.7100   19.9780 C   0  0  0  0  0  0  0  0  0  0  0  0
    1.3730    7.1800   21.0610 N   0  0  0  0  0  0  0  0  0  0  0  0
    1.0260    8.4850   21.0130 C   0  0  0  0  0  0  0  0  0  0  0  0
    0.3130    9.2800   22.3680 S   0  0  0  0  0  0  0  0  0  0  0  0
    0.2240   10.7100   21.5040 C   0  0  0  0  0  0  0  0  0  0  0  0
    0.7060   10.6230   20.2280 C   0  0  0  0  0  0  0  0  0  0  0  0
    1.1770    9.3280   19.9310 C   0  0  0  0  0  0  0  0  0  0  0  0
    1.7590    8.7920   18.7220 C   0  0  0  0  0  0  0  0  0  0  0  0
    1.8810    9.4800   17.7110 O   0  0  0  0  0  0  0  0  0  0  0  0
    0.5920   11.9200   19.5190 C   0  0  0  0  0  0  0  0  0  0  0  0
    0.2770   12.9070   20.6880 C   0  0  0  0  0  0  0  0  0  0  0  0
   -0.2870   12.0510   21.8660 C   0  0  0  0  0  0  0  0  0  0  0  0
   -0.2360   11.8960   18.8040 H   0  0  0  0  0  0  0  0  0  0  0  0
    1.5120   12.2040   19.0010 H   0  0  0  0  0  0  0  0  0  0  0  0
    1.2110   13.3850   21.0110 H   0  0  0  0  0  0  0  0  0  0  0  0
   -0.4120   13.7030   20.3850 H   0  0  0  0  0  0  0  0  0  0  0  0
    0.0830   12.4120   22.8290 H   0  0  0  0  0  0  0  0  0  0  0  0
   -1.3820   12.0660   21.8620 H   0  0  0  0  0  0  0  0  0  0  0  0
    2.7360    6.8790   17.5910 C   0  0  0  0  0  0  0  0  0  0  0  0
    2.7140    5.7840   17.6570 H   0  0  0  0  0  0  0  0  0  0  0  0
    2.1280    7.1320   16.7180 H   0  0  0  0  0  0  0  0  0  0  0  0
    4.1830    7.3410   17.3940 C   0  0  0  0  0  0  0  0  0  0  0  0
    4.2820    8.4050   17.6320 H   0  0  0  0  0  0  0  0  0  0  0  0
    4.8440    6.8040   18.0850 H   0  0  0  0  0  0  0  0  0  0  0  0
    4.6530    7.1020   15.9680 C   0  0  0  0  0  0  0  0  0  0  0  0
    4.5730    6.0440   15.7020 H   0  0  0  0  0  0  0  0  0  0  0  0
    4.0380    7.6740   15.2660 H   0  0  0  0  0  0  0  0  0  0  0  0
    5.6940    7.4130   15.8400 H   0  0  0  0  0  0  0  0  0  0  0  0
    2.3770    5.0140   19.9810 S   0  0  0  0  0  0  0  0  0  0  0  0
    4.1880    5.1520   19.8530 C   0  0  0  0  0  0  0  0  0  0  0  0
    4.6040    5.2980   20.8550 H   0  0  0  0  0  0  0  0  0  0  0  0
    4.4340    6.0050   19.2120 H   0  0  0  0  0  0  0  0  0  0  0  0
    4.8200    3.9030   19.2500 C   0  0  0  0  0  0  0  0  0  0  0  0
    4.6950    2.7780   19.7350 O   0  0  0  0  0  0  0  0  0  0  0  0
    5.6120    4.1030   18.0330 C   0  0  0  0  0  0  0  0  0  0  0  0
    5.2190    3.6640   16.8230 N   0  0  0  0  0  0  0  0  0  0  0  0
    6.2320    4.0670   16.0350 N   0  0  0  0  0  0  0  0  0  0  0  0
    7.2500    4.7270   16.6130 N   0  0  0  0  0  0  0  0  0  0  0  0
    6.8650    4.7560   17.8960 C   0  0  0  0  0  0  0  0  0  0  0  0
    7.6990    5.4040   18.9330 C   0  0  0  0  0  0  0  0  0  0  0  0
    7.2320    6.3200   19.3090 H   0  0  0  0  0  0  0  0  0  0  0  0
    8.6800    5.6720   18.5270 H   0  0  0  0  0  0  0  0  0  0  0  0
    7.8470    4.7300   19.7820 H   0  0  0  0  0  0  0  0  0  0  0  0
    6.2200    3.8110   14.6090 C   0  0  0  0  0  0  0  0  0  0  0  0
    5.1750    3.8150   14.2800 H   0  0  0  0  0  0  0  0  0  0  0  0
    6.6220    2.8050   14.4460 H   0  0  0  0  0  0  0  0  0  0  0  0
    7.0290    4.8410   13.8400 C   0  0  0  0  0  0  0  0  0  0  0  0
    8.0990    4.7360   14.0470 H   0  0  0  0  0  0  0  0  0  0  0  0
    6.8760    4.7180   12.7630 H   0  0  0  0  0  0  0  0  0  0  0  0
    6.7330    5.8590   14.1130 H   0  0  0  0  0  0  0  0  0  0  0  0
  1  2  1  0  0  0  0
  2 30  1  0  0  0  0
  2  3  2  0  0  0  0
  4  3  1  0  0  0  0
  4  5  1  0  0  0  0
  6 13  1  0  0  0  0
  6  5  1  0  0  0  0
  7  6  2  0  0  0  0
  8  7  1  0  0  0  0
  8  4  2  0  0  0  0
  9  1  1  0  0  0  0
  9  8  1  0  0  0  0
 10  9  2  0  0  0  0
 11  7  1  0  0  0  0
 11 12  1  0  0  0  0
 12 16  1  0  0  0  0
 12 13  1  0  0  0  0
 13 18  1  0  0  0  0
 14 11  1  0  0  0  0
 15 11  1  0  0  0  0
 17 12  1  0  0  0  0
 19 13  1  0  0  0  0
 20 21  1  0  0  0  0
 20  1  1  0  0  0  0
 22 20  1  0  0  0  0
 23 20  1  0  0  0  0
 23 24  1  0  0  0  0
 23 25  1  0  0  0  0
 26 23  1  0  0  0  0
 27 26  1  0  0  0  0
 28 26  1  0  0  0  0
 29 26  1  0  0  0  0
 31 30  1  0  0  0  0
 31 32  1  0  0  0  0
 33 31  1  0  0  0  0
 34 35  2  0  0  0  0
 34 31  1  0  0  0  0
 36 34  1  0  0  0  0
 37 36  2  0  0  0  0
 38 39  1  0  0  0  0
 38 37  1  0  0  0  0
 39 40  2  0  0  0  0
 40 36  1  0  0  0  0
 40 41  1  0  0  0  0
 41 42  1  0  0  0  0
 41 44  1  0  0  0  0
 43 41  1  0  0  0  0
 45 38  1  0  0  0  0
 46 45  1  0  0  0  0
 47 45  1  0  0  0  0
 48 49  1  0  0  0  0
 48 51  1  0  0  0  0
 48 45  1  0  0  0  0
 50 48  1  0  0  0  0
M  END
>  <MODEL>
9

>  <REMARK>
 VINA RESULT:    -6.466      2.751      4.156
 INTER + INTRA:          -9.905
 INTER:                  -9.428
 INTRA:                  -0.477
 UNBOUND:                -0.225
  Name = 
  10 active torsions:
  status: ('A' for Active; 'I' for Inactive)
    1  A    between atoms: C_1  and  C_2
    2  A    between atoms: C_2  and  C_3
    3  A    between atoms: C_3  and  N_4
    4  A    between atoms: C_5  and  S_6
    5  A    between atoms: S_6  and  C_7
    6  A    between atoms: C_7  and  C_8
    7  A    between atoms: C_8  and  C_10
    8  A    between atoms: N_12  and  C_13
    9  A    between atoms: C_13  and  C_14
   10  A    between atoms: C_16  and  C_17
                            x       y       z     vdW  Elec       q    Type
                         _______ _______ _______ _____ _____    ______ ____

>  <TORSDO>
F 10

$$$$
=
 OpenBabel07192307433D

 51 54  0  0  0  0  0  0  0  0999 V2000
    1.3660    8.1330   20.0930 N   0  0  0  0  0  0  0  0  0  0  0  0
    1.7100    9.0140   19.0610 C   0  0  0  0  0  0  0  0  0  0  0  0
    2.5400    8.7500   18.1000 N   0  0  0  0  0  0  0  0  0  0  0  0
    3.0890    7.5150   18.1340 C   0  0  0  0  0  0  0  0  0  0  0  0
    4.2260    6.9990   16.9450 S   0  0  0  0  0  0  0  0  0  0  0  0
    4.3540    5.5070   17.6890 C   0  0  0  0  0  0  0  0  0  0  0  0
    3.5730    5.3690   18.8030 C   0  0  0  0  0  0  0  0  0  0  0  0
    2.8310    6.5370   19.0720 C   0  0  0  0  0  0  0  0  0  0  0  0
    1.8910    6.8320   20.1280 C   0  0  0  0  0  0  0  0  0  0  0  0
    1.5870    5.9880   20.9680 O   0  0  0  0  0  0  0  0  0  0  0  0
    3.7310    4.0250   19.4090 C   0  0  0  0  0  0  0  0  0  0  0  0
    5.0010    3.4820   18.6780 C   0  0  0  0  0  0  0  0  0  0  0  0
    5.1540    4.3050   17.3600 C   0  0  0  0  0  0  0  0  0  0  0  0
    2.8620    3.3980   19.1850 H   0  0  0  0  0  0  0  0  0  0  0  0
    3.8850    4.0620   20.4910 H   0  0  0  0  0  0  0  0  0  0  0  0
    5.8790    3.6600   19.3130 H   0  0  0  0  0  0  0  0  0  0  0  0
    4.9430    2.4050   18.4910 H   0  0  0  0  0  0  0  0  0  0  0  0
    6.2040    4.5270   17.1520 H   0  0  0  0  0  0  0  0  0  0  0  0
    4.7160    3.7640   16.5160 H   0  0  0  0  0  0  0  0  0  0  0  0
    0.4030    8.4530   21.1550 C   0  0  0  0  0  0  0  0  0  0  0  0
   -0.3640    9.1250   20.7530 H   0  0  0  0  0  0  0  0  0  0  0  0
   -0.1320    7.5530   21.4710 H   0  0  0  0  0  0  0  0  0  0  0  0
    1.0840    9.1250   22.3510 C   0  0  0  0  0  0  0  0  0  0  0  0
    1.8170    8.4500   22.8050 H   0  0  0  0  0  0  0  0  0  0  0  0
    1.6390   10.0100   22.0170 H   0  0  0  0  0  0  0  0  0  0  0  0
    0.0700    9.5420   23.4050 C   0  0  0  0  0  0  0  0  0  0  0  0
   -0.6410   10.2670   22.9980 H   0  0  0  0  0  0  0  0  0  0  0  0
   -0.4960    8.6720   23.7510 H   0  0  0  0  0  0  0  0  0  0  0  0
    0.5650    9.9920   24.2700 H   0  0  0  0  0  0  0  0  0  0  0  0
    0.9610   10.6060   19.0640 S   0  0  0  0  0  0  0  0  0  0  0  0
   -0.7220   10.2000   18.5010 C   0  0  0  0  0  0  0  0  0  0  0  0
   -1.2650    9.7240   19.3230 H   0  0  0  0  0  0  0  0  0  0  0  0
   -0.6550    9.5180   17.6470 H   0  0  0  0  0  0  0  0  0  0  0  0
   -1.4980   11.4370   18.0670 C   0  0  0  0  0  0  0  0  0  0  0  0
   -1.2250   12.5770   18.4430 O   0  0  0  0  0  0  0  0  0  0  0  0
   -2.6240   11.2060   17.1570 C   0  0  0  0  0  0  0  0  0  0  0  0
   -2.4690   10.7280   15.9080 N   0  0  0  0  0  0  0  0  0  0  0  0
   -3.7390   10.6820   15.4650 N   0  0  0  0  0  0  0  0  0  0  0  0
   -4.7100   11.0830   16.3050 N   0  0  0  0  0  0  0  0  0  0  0  0
   -4.0070   11.4220   17.3940 C   0  0  0  0  0  0  0  0  0  0  0  0
   -4.6770   11.9340   18.6100 C   0  0  0  0  0  0  0  0  0  0  0  0
   -4.7750   13.0240   18.5860 H   0  0  0  0  0  0  0  0  0  0  0  0
   -4.1050   11.6690   19.5060 H   0  0  0  0  0  0  0  0  0  0  0  0
   -5.6820   11.5090   18.7010 H   0  0  0  0  0  0  0  0  0  0  0  0
   -4.0530   10.2010   14.1350 C   0  0  0  0  0  0  0  0  0  0  0  0
   -4.4370   11.0500   13.5580 H   0  0  0  0  0  0  0  0  0  0  0  0
   -4.8580    9.4640   14.2270 H   0  0  0  0  0  0  0  0  0  0  0  0
   -2.8430    9.5910   13.4510 C   0  0  0  0  0  0  0  0  0  0  0  0
   -2.9160    8.4980   13.4220 H   0  0  0  0  0  0  0  0  0  0  0  0
   -2.7630    9.9550   12.4220 H   0  0  0  0  0  0  0  0  0  0  0  0
   -1.9190    9.8510   13.9780 H   0  0  0  0  0  0  0  0  0  0  0  0
  1  9  1  0  0  0  0
  1 20  1  0  0  0  0
  2 30  1  0  0  0  0
  2  1  1  0  0  0  0
  3  4  1  0  0  0  0
  3  2  2  0  0  0  0
  4  8  2  0  0  0  0
  5  6  1  0  0  0  0
  5  4  1  0  0  0  0
  6  7  2  0  0  0  0
  7  8  1  0  0  0  0
  7 11  1  0  0  0  0
  8  9  1  0  0  0  0
  9 10  2  0  0  0  0
 11 15  1  0  0  0  0
 12 16  1  0  0  0  0
 12 11  1  0  0  0  0
 13  6  1  0  0  0  0
 13 12  1  0  0  0  0
 14 11  1  0  0  0  0
 17 12  1  0  0  0  0
 18 13  1  0  0  0  0
 19 13  1  0  0  0  0
 20 22  1  0  0  0  0
 20 23  1  0  0  0  0
 21 20  1  0  0  0  0
 23 24  1  0  0  0  0
 23 26  1  0  0  0  0
 25 23  1  0  0  0  0
 26 28  1  0  0  0  0
 26 29  1  0  0  0  0
 27 26  1  0  0  0  0
 31 30  1  0  0  0  0
 31 32  1  0  0  0  0
 33 31  1  0  0  0  0
 34 35  2  0  0  0  0
 34 31  1  0  0  0  0
 36 40  1  0  0  0  0
 36 34  1  0  0  0  0
 37 36  2  0  0  0  0
 38 37  1  0  0  0  0
 38 39  1  0  0  0  0
 39 40  2  0  0  0  0
 40 41  1  0  0  0  0
 41 44  1  0  0  0  0
 41 43  1  0  0  0  0
 42 41  1  0  0  0  0
 45 47  1  0  0  0  0
 45 38  1  0  0  0  0
 46 45  1  0  0  0  0
 48 51  1  0  0  0  0
 48 45  1  0  0  0  0
 49 48  1  0  0  0  0
 50 48  1  0  0  0  0
M  END
>  <MODEL>
10

>  <REMARK>
 VINA RESULT:    -6.459      4.332      8.609
 INTER + INTRA:          -9.894
 INTER:                  -9.465
 INTRA:                  -0.429
 UNBOUND:                -0.225
  Name = 
  10 active torsions:
  status: ('A' for Active; 'I' for Inactive)
    1  A    between atoms: C_1  and  C_2
    2  A    between atoms: C_2  and  C_3
    3  A    between atoms: C_3  and  N_4
    4  A    between atoms: C_5  and  S_6
    5  A    between atoms: S_6  and  C_7
    6  A    between atoms: C_7  and  C_8
    7  A    between atoms: C_8  and  C_10
    8  A    between atoms: N_12  and  C_13
    9  A    between atoms: C_13  and  C_14
   10  A    between atoms: C_16  and  C_17
                            x       y       z     vdW  Elec       q    Type
                         _______ _______ _______ _____ _____    ______ ____

>  <TORSDO>
F 10

$$$$
=
 OpenBabel07192307433D

 51 54  0  0  0  0  0  0  0  0999 V2000
    1.9890    6.6720   20.3090 N   0  0  0  0  0  0  0  0  0  0  0  0
    2.9240    6.8490   19.2820 C   0  0  0  0  0  0  0  0  0  0  0  0
    3.0010    7.8920   18.5140 N   0  0  0  0  0  0  0  0  0  0  0  0
    2.0910    8.8590   18.7630 C   0  0  0  0  0  0  0  0  0  0  0  0
    2.0360   10.3090   17.8290 S   0  0  0  0  0  0  0  0  0  0  0  0
    0.7480   10.8670   18.7390 C   0  0  0  0  0  0  0  0  0  0  0  0
    0.3490   10.0100   19.7270 C   0  0  0  0  0  0  0  0  0  0  0  0
    1.1270    8.8350   19.7490 C   0  0  0  0  0  0  0  0  0  0  0  0
    1.0600    7.6790   20.6130 C   0  0  0  0  0  0  0  0  0  0  0  0
    0.2510    7.6150   21.5360 O   0  0  0  0  0  0  0  0  0  0  0  0
   -0.7900   10.5670   20.4960 C   0  0  0  0  0  0  0  0  0  0  0  0
   -1.2460   11.7570   19.5910 C   0  0  0  0  0  0  0  0  0  0  0  0
   -0.0360   12.1210   18.6740 C   0  0  0  0  0  0  0  0  0  0  0  0
   -0.4530   10.9340   21.4710 H   0  0  0  0  0  0  0  0  0  0  0  0
   -1.6010    9.8470   20.6370 H   0  0  0  0  0  0  0  0  0  0  0  0
   -2.0830   11.4260   18.9630 H   0  0  0  0  0  0  0  0  0  0  0  0
   -1.5950   12.6140   20.1780 H   0  0  0  0  0  0  0  0  0  0  0  0
   -0.3680   12.3730   17.6630 H   0  0  0  0  0  0  0  0  0  0  0  0
    0.5290   12.9570   19.0970 H   0  0  0  0  0  0  0  0  0  0  0  0
    1.9420    5.4890   21.1780 C   0  0  0  0  0  0  0  0  0  0  0  0
    2.9650    5.1330   21.3550 H   0  0  0  0  0  0  0  0  0  0  0  0
    1.5490    5.7520   22.1630 H   0  0  0  0  0  0  0  0  0  0  0  0
    1.1190    4.3590   20.5510 C   0  0  0  0  0  0  0  0  0  0  0  0
    0.0480    4.5640   20.6490 H   0  0  0  0  0  0  0  0  0  0  0  0
    1.3280    4.2960   19.4760 H   0  0  0  0  0  0  0  0  0  0  0  0
    1.4320    3.0190   21.1990 C   0  0  0  0  0  0  0  0  0  0  0  0
    1.6390    2.2570   20.4420 H   0  0  0  0  0  0  0  0  0  0  0  0
    2.3140    3.1060   21.8410 H   0  0  0  0  0  0  0  0  0  0  0  0
    0.5960    2.6760   21.8150 H   0  0  0  0  0  0  0  0  0  0  0  0
    4.0890    5.5590   19.0080 S   0  0  0  0  0  0  0  0  0  0  0  0
    3.4900    4.8820   17.4270 C   0  0  0  0  0  0  0  0  0  0  0  0
    3.5700    5.6550   16.6580 H   0  0  0  0  0  0  0  0  0  0  0  0
    2.4460    4.5720   17.5460 H   0  0  0  0  0  0  0  0  0  0  0  0
    4.3000    3.6720   16.9760 C   0  0  0  0  0  0  0  0  0  0  0  0
    4.1190    2.5340   17.4100 O   0  0  0  0  0  0  0  0  0  0  0  0
    5.3390    3.9280   15.9750 C   0  0  0  0  0  0  0  0  0  0  0  0
    5.1560    3.7160   14.6580 N   0  0  0  0  0  0  0  0  0  0  0  0
    6.3460    4.0820   14.1460 N   0  0  0  0  0  0  0  0  0  0  0  0
    7.2890    4.5130   15.0010 N   0  0  0  0  0  0  0  0  0  0  0  0
    6.6560    4.4190   16.1780 C   0  0  0  0  0  0  0  0  0  0  0  0
    7.3260    4.8000   17.4420 C   0  0  0  0  0  0  0  0  0  0  0  0
    7.6180    3.9190   18.0230 H   0  0  0  0  0  0  0  0  0  0  0  0
    6.6600    5.4060   18.0640 H   0  0  0  0  0  0  0  0  0  0  0  0
    8.2310    5.3800   17.2350 H   0  0  0  0  0  0  0  0  0  0  0  0
    6.5970    4.0280   12.7200 C   0  0  0  0  0  0  0  0  0  0  0  0
    7.5650    3.5380   12.5730 H   0  0  0  0  0  0  0  0  0  0  0  0
    6.6800    5.0580   12.3560 H   0  0  0  0  0  0  0  0  0  0  0  0
    5.5000    3.2850   11.9780 C   0  0  0  0  0  0  0  0  0  0  0  0
    4.8040    3.9830   11.5010 H   0  0  0  0  0  0  0  0  0  0  0  0
    5.9320    2.6480   11.1990 H   0  0  0  0  0  0  0  0  0  0  0  0
    4.9240    2.6490   12.6580 H   0  0  0  0  0  0  0  0  0  0  0  0
  1  9  1  0  0  0  0
  1 20  1  0  0  0  0
  2  1  1  0  0  0  0
  3  4  1  0  0  0  0
  3  2  2  0  0  0  0
  4  8  2  0  0  0  0
  5  6  1  0  0  0  0
  5  4  1  0  0  0  0
  6  7  2  0  0  0  0
  7  8  1  0  0  0  0
  7 11  1  0  0  0  0
  8  9  1  0  0  0  0
  9 10  2  0  0  0  0
 11 15  1  0  0  0  0
 11 14  1  0  0  0  0
 12 17  1  0  0  0  0
 12 11  1  0  0  0  0
 13  6  1  0  0  0  0
 13 19  1  0  0  0  0
 13 12  1  0  0  0  0
 16 12  1  0  0  0  0
 18 13  1  0  0  0  0
 20 21  1  0  0  0  0
 20 22  1  0  0  0  0
 23 24  1  0  0  0  0
 23 20  1  0  0  0  0
 23 26  1  0  0  0  0
 25 23  1  0  0  0  0
 26 29  1  0  0  0  0
 26 28  1  0  0  0  0
 27 26  1  0  0  0  0
 30  2  1  0  0  0  0
 31 33  1  0  0  0  0
 31 30  1  0  0  0  0
 32 31  1  0  0  0  0
 34 35  2  0  0  0  0
 34 31  1  0  0  0  0
 36 40  1  0  0  0  0
 36 34  1  0  0  0  0
 37 36  2  0  0  0  0
 38 37  1  0  0  0  0
 38 39  1  0  0  0  0
 39 40  2  0  0  0  0
 40 41  1  0  0  0  0
 41 42  1  0  0  0  0
 41 43  1  0  0  0  0
 44 41  1  0  0  0  0
 45 38  1  0  0  0  0
 46 45  1  0  0  0  0
 47 45  1  0  0  0  0
 48 51  1  0  0  0  0
 48 45  1  0  0  0  0
 49 48  1  0  0  0  0
 50 48  1  0  0  0  0
M  END
>  <MODEL>
11

>  <REMARK>
 VINA RESULT:    -6.438      2.612      3.720
 INTER + INTRA:          -9.863
 INTER:                  -9.236
 INTRA:                  -0.627
 UNBOUND:                -0.225
  Name = 
  10 active torsions:
  status: ('A' for Active; 'I' for Inactive)
    1  A    between atoms: C_1  and  C_2
    2  A    between atoms: C_2  and  C_3
    3  A    between atoms: C_3  and  N_4
    4  A    between atoms: C_5  and  S_6
    5  A    between atoms: S_6  and  C_7
    6  A    between atoms: C_7  and  C_8
    7  A    between atoms: C_8  and  C_10
    8  A    between atoms: N_12  and  C_13
    9  A    between atoms: C_13  and  C_14
   10  A    between atoms: C_16  and  C_17
                            x       y       z     vdW  Elec       q    Type
                         _______ _______ _______ _____ _____    ______ ____

>  <TORSDO>
F 10

$$$$
=
 OpenBabel07192307433D

 51 54  0  0  0  0  0  0  0  0999 V2000
    0.4460   10.0650   19.6260 N   0  0  0  0  0  0  0  0  0  0  0  0
    0.7460    9.4280   18.4160 C   0  0  0  0  0  0  0  0  0  0  0  0
   -0.0260    9.4060   17.3730 N   0  0  0  0  0  0  0  0  0  0  0  0
   -1.1980   10.0650   17.5090 C   0  0  0  0  0  0  0  0  0  0  0  0
   -2.3530   10.1260   16.2290 S   0  0  0  0  0  0  0  0  0  0  0  0
   -3.3770   11.0510   17.1740 C   0  0  0  0  0  0  0  0  0  0  0  0
   -2.8910   11.3250   18.4220 C   0  0  0  0  0  0  0  0  0  0  0  0
   -1.6190   10.7540   18.6270 C   0  0  0  0  0  0  0  0  0  0  0  0
   -0.7460   10.7910   19.7780 C   0  0  0  0  0  0  0  0  0  0  0  0
   -1.0450   11.4220   20.7880 O   0  0  0  0  0  0  0  0  0  0  0  0
   -3.8440   12.1510   19.2020 C   0  0  0  0  0  0  0  0  0  0  0  0
   -5.1470   12.0460   18.3460 C   0  0  0  0  0  0  0  0  0  0  0  0
   -4.7120   11.6320   16.9040 C   0  0  0  0  0  0  0  0  0  0  0  0
   -3.5010   13.1890   19.2530 H   0  0  0  0  0  0  0  0  0  0  0  0
   -4.0060   11.7710   20.2140 H   0  0  0  0  0  0  0  0  0  0  0  0
   -5.7850   11.2570   18.7650 H   0  0  0  0  0  0  0  0  0  0  0  0
   -5.7250   12.9760   18.3540 H   0  0  0  0  0  0  0  0  0  0  0  0
   -5.4160   10.9180   16.4690 H   0  0  0  0  0  0  0  0  0  0  0  0
   -4.6320   12.5130   16.2590 H   0  0  0  0  0  0  0  0  0  0  0  0
    1.3510   10.0940   20.7820 C   0  0  0  0  0  0  0  0  0  0  0  0
    2.3890   10.0960   20.4250 H   0  0  0  0  0  0  0  0  0  0  0  0
    1.2310   11.0260   21.3410 H   0  0  0  0  0  0  0  0  0  0  0  0
    1.1390    8.8830   21.6960 C   0  0  0  0  0  0  0  0  0  0  0  0
    0.5870    8.0970   21.1710 H   0  0  0  0  0  0  0  0  0  0  0  0
    2.1070    8.4510   21.9770 H   0  0  0  0  0  0  0  0  0  0  0  0
    0.3810    9.2670   22.9580 C   0  0  0  0  0  0  0  0  0  0  0  0
    0.9080   10.0520   23.5070 H   0  0  0  0  0  0  0  0  0  0  0  0
   -0.6150    9.6440   22.7020 H   0  0  0  0  0  0  0  0  0  0  0  0
    0.2580    8.4050   23.6200 H   0  0  0  0  0  0  0  0  0  0  0  0
    2.2880    8.5900   18.2950 S   0  0  0  0  0  0  0  0  0  0  0  0
    1.7340    6.8600   18.1690 C   0  0  0  0  0  0  0  0  0  0  0  0
    1.8820    6.5150   17.1420 H   0  0  0  0  0  0  0  0  0  0  0  0
    0.6730    6.8070   18.4370 H   0  0  0  0  0  0  0  0  0  0  0  0
    2.5100    5.9380   19.1010 C   0  0  0  0  0  0  0  0  0  0  0  0
    2.2200    5.7690   20.2860 O   0  0  0  0  0  0  0  0  0  0  0  0
    3.6560    5.2400   18.5120 C   0  0  0  0  0  0  0  0  0  0  0  0
    4.9260    5.6600   18.6630 N   0  0  0  0  0  0  0  0  0  0  0  0
    5.6130    4.7340   17.9690 N   0  0  0  0  0  0  0  0  0  0  0  0
    4.9150    3.7480   17.3800 N   0  0  0  0  0  0  0  0  0  0  0  0
    3.6570    4.0620   17.7190 C   0  0  0  0  0  0  0  0  0  0  0  0
    2.5140    3.2290   17.2810 C   0  0  0  0  0  0  0  0  0  0  0  0
    1.8310    3.7940   16.6380 H   0  0  0  0  0  0  0  0  0  0  0  0
    1.9440    2.8720   18.1440 H   0  0  0  0  0  0  0  0  0  0  0  0
    2.8680    2.3620   16.7140 H   0  0  0  0  0  0  0  0  0  0  0  0
    7.0580    4.7870   17.8740 C   0  0  0  0  0  0  0  0  0  0  0  0
    7.3110    5.1460   16.8700 H   0  0  0  0  0  0  0  0  0  0  0  0
    7.4380    3.7640   17.9730 H   0  0  0  0  0  0  0  0  0  0  0  0
    7.6640    5.6880   18.9350 C   0  0  0  0  0  0  0  0  0  0  0  0
    8.3720    5.1370   19.5640 H   0  0  0  0  0  0  0  0  0  0  0  0
    8.2000    6.5200   18.4670 H   0  0  0  0  0  0  0  0  0  0  0  0
    6.8900    6.1040   19.5890 H   0  0  0  0  0  0  0  0  0  0  0  0
  1  9  1  0  0  0  0
  1 20  1  0  0  0  0
  2  1  1  0  0  0  0
  3  4  1  0  0  0  0
  3  2  2  0  0  0  0
  4  8  2  0  0  0  0
  5  6  1  0  0  0  0
  5  4  1  0  0  0  0
  6  7  2  0  0  0  0
  7  8  1  0  0  0  0
  7 11  1  0  0  0  0
  8  9  1  0  0  0  0
  9 10  2  0  0  0  0
 11 14  1  0  0  0  0
 11 15  1  0  0  0  0
 12 17  1  0  0  0  0
 12 16  1  0  0  0  0
 12 11  1  0  0  0  0
 13  6  1  0  0  0  0
 13 12  1  0  0  0  0
 18 13  1  0  0  0  0
 19 13  1  0  0  0  0
 20 22  1  0  0  0  0
 20 23  1  0  0  0  0
 21 20  1  0  0  0  0
 23 25  1  0  0  0  0
 23 26  1  0  0  0  0
 24 23  1  0  0  0  0
 26 27  1  0  0  0  0
 26 29  1  0  0  0  0
 28 26  1  0  0  0  0
 30  2  1  0  0  0  0
 31 30  1  0  0  0  0
 31 33  1  0  0  0  0
 31 34  1  0  0  0  0
 32 31  1  0  0  0  0
 34 35  2  0  0  0  0
 36 37  2  0  0  0  0
 36 34  1  0  0  0  0
 38 37  1  0  0  0  0
 39 40  2  0  0  0  0
 39 38  1  0  0  0  0
 40 36  1  0  0  0  0
 41 40  1  0  0  0  0
 41 43  1  0  0  0  0
 42 41  1  0  0  0  0
 44 41  1  0  0  0  0
 45 38  1  0  0  0  0
 45 47  1  0  0  0  0
 45 48  1  0  0  0  0
 46 45  1  0  0  0  0
 48 49  1  0  0  0  0
 48 51  1  0  0  0  0
 50 48  1  0  0  0  0
M  END
>  <MODEL>
12

>  <REMARK>
 VINA RESULT:    -6.429      3.346      5.503
 INTER + INTRA:          -9.850
 INTER:                  -9.150
 INTRA:                  -0.700
 UNBOUND:                -0.225
  Name = 
  10 active torsions:
  status: ('A' for Active; 'I' for Inactive)
    1  A    between atoms: C_1  and  C_2
    2  A    between atoms: C_2  and  C_3
    3  A    between atoms: C_3  and  N_4
    4  A    between atoms: C_5  and  S_6
    5  A    between atoms: S_6  and  C_7
    6  A    between atoms: C_7  and  C_8
    7  A    between atoms: C_8  and  C_10
    8  A    between atoms: N_12  and  C_13
    9  A    between atoms: C_13  and  C_14
   10  A    between atoms: C_16  and  C_17
                            x       y       z     vdW  Elec       q    Type
                         _______ _______ _______ _____ _____    ______ ____

>  <TORSDO>
F 10

$$$$
=
 OpenBabel07192307433D

 51 54  0  0  0  0  0  0  0  0999 V2000
    2.0130    4.5960   19.0730 N   0  0  0  0  0  0  0  0  0  0  0  0
    2.2320    5.9340   19.4250 C   0  0  0  0  0  0  0  0  0  0  0  0
    3.1400    6.7020   18.9090 N   0  0  0  0  0  0  0  0  0  0  0  0
    3.9100    6.1270   17.9580 C   0  0  0  0  0  0  0  0  0  0  0  0
    5.1780    6.9960   17.1760 S   0  0  0  0  0  0  0  0  0  0  0  0
    5.5520    5.6540   16.2510 C   0  0  0  0  0  0  0  0  0  0  0  0
    4.7610    4.5670   16.4990 C   0  0  0  0  0  0  0  0  0  0  0  0
    3.7990    4.8330   17.4950 C   0  0  0  0  0  0  0  0  0  0  0  0
    2.7720    3.9890   18.0600 C   0  0  0  0  0  0  0  0  0  0  0  0
    2.5950    2.8410   17.6600 O   0  0  0  0  0  0  0  0  0  0  0  0
    5.1410    3.4170   15.6440 C   0  0  0  0  0  0  0  0  0  0  0  0
    6.5240    3.8740   15.0760 C   0  0  0  0  0  0  0  0  0  0  0  0
    6.5790    5.4280   15.2090 C   0  0  0  0  0  0  0  0  0  0  0  0
    4.4180    3.2850   14.8330 H   0  0  0  0  0  0  0  0  0  0  0  0
    5.2350    2.4830   16.2050 H   0  0  0  0  0  0  0  0  0  0  0  0
    7.3220    3.4350   15.6880 H   0  0  0  0  0  0  0  0  0  0  0  0
    6.6790    3.5390   14.0450 H   0  0  0  0  0  0  0  0  0  0  0  0
    7.5770    5.7640   15.5030 H   0  0  0  0  0  0  0  0  0  0  0  0
    6.2910    5.9050   14.2670 H   0  0  0  0  0  0  0  0  0  0  0  0
    0.9590    3.7580   19.6580 C   0  0  0  0  0  0  0  0  0  0  0  0
    0.3110    4.3820   20.2860 H   0  0  0  0  0  0  0  0  0  0  0  0
    0.3100    3.3560   18.8760 H   0  0  0  0  0  0  0  0  0  0  0  0
    1.5440    2.6260   20.5090 C   0  0  0  0  0  0  0  0  0  0  0  0
    0.7780    1.8750   20.7280 H   0  0  0  0  0  0  0  0  0  0  0  0
    2.3360    2.1110   19.9530 H   0  0  0  0  0  0  0  0  0  0  0  0
    2.1150    3.1530   21.8160 C   0  0  0  0  0  0  0  0  0  0  0  0
    2.6470    2.3650   22.3570 H   0  0  0  0  0  0  0  0  0  0  0  0
    2.8220    3.9650   21.6210 H   0  0  0  0  0  0  0  0  0  0  0  0
    1.3230    3.5410   22.4630 H   0  0  0  0  0  0  0  0  0  0  0  0
    1.1960    6.6300   20.6640 S   0  0  0  0  0  0  0  0  0  0  0  0
    1.8660    8.3200   20.7670 C   0  0  0  0  0  0  0  0  0  0  0  0
    2.8690    8.3300   20.3320 H   0  0  0  0  0  0  0  0  0  0  0  0
    1.9070    8.6220   21.8200 H   0  0  0  0  0  0  0  0  0  0  0  0
    1.0060    9.3270   20.0140 C   0  0  0  0  0  0  0  0  0  0  0  0
    0.8290    9.2910   18.7960 O   0  0  0  0  0  0  0  0  0  0  0  0
    0.3830   10.3780   20.8230 C   0  0  0  0  0  0  0  0  0  0  0  0
   -0.5690   10.1270   21.7410 N   0  0  0  0  0  0  0  0  0  0  0  0
   -0.8300   11.3580   22.2190 N   0  0  0  0  0  0  0  0  0  0  0  0
   -0.1400   12.3890   21.7030 N   0  0  0  0  0  0  0  0  0  0  0  0
    0.6420   11.7740   20.8050 C   0  0  0  0  0  0  0  0  0  0  0  0
    1.6000   12.5360   19.9730 C   0  0  0  0  0  0  0  0  0  0  0  0
    2.1340   11.8820   19.2760 H   0  0  0  0  0  0  0  0  0  0  0  0
    2.3440   13.0350   20.6010 H   0  0  0  0  0  0  0  0  0  0  0  0
    1.0760   13.2960   19.3840 H   0  0  0  0  0  0  0  0  0  0  0  0
   -1.8100   11.5630   23.2660 C   0  0  0  0  0  0  0  0  0  0  0  0
   -1.3070   12.0710   24.0970 H   0  0  0  0  0  0  0  0  0  0  0  0
   -2.1330   10.5780   23.6190 H   0  0  0  0  0  0  0  0  0  0  0  0
   -2.9980   12.3740   22.7820 C   0  0  0  0  0  0  0  0  0  0  0  0
   -3.9430   11.8980   23.0640 H   0  0  0  0  0  0  0  0  0  0  0  0
   -2.9780   13.3780   23.2180 H   0  0  0  0  0  0  0  0  0  0  0  0
   -2.9880   12.4760   21.6910 H   0  0  0  0  0  0  0  0  0  0  0  0
  1  2  1  0  0  0  0
  1 20  1  0  0  0  0
  2 30  1  0  0  0  0
  3  2  2  0  0  0  0
  4  3  1  0  0  0  0
  5  4  1  0  0  0  0
  6  7  2  0  0  0  0
  6  5  1  0  0  0  0
  7  8  1  0  0  0  0
  8  4  2  0  0  0  0
  8  9  1  0  0  0  0
  9  1  1  0  0  0  0
 10  9  2  0  0  0  0
 11 15  1  0  0  0  0
 11  7  1  0  0  0  0
 12 13  1  0  0  0  0
 12 11  1  0  0  0  0
 12 16  1  0  0  0  0
 13 18  1  0  0  0  0
 13  6  1  0  0  0  0
 14 11  1  0  0  0  0
 17 12  1  0  0  0  0
 19 13  1  0  0  0  0
 20 21  1  0  0  0  0
 20 23  1  0  0  0  0
 22 20  1  0  0  0  0
 23 24  1  0  0  0  0
 23 26  1  0  0  0  0
 25 23  1  0  0  0  0
 26 27  1  0  0  0  0
 26 29  1  0  0  0  0
 28 26  1  0  0  0  0
 30 31  1  0  0  0  0
 31 33  1  0  0  0  0
 32 31  1  0  0  0  0
 34 31  1  0  0  0  0
 34 36  1  0  0  0  0
 35 34  2  0  0  0  0
 36 37  2  0  0  0  0
 37 38  1  0  0  0  0
 38 45  1  0  0  0  0
 39 38  1  0  0  0  0
 40 36  1  0  0  0  0
 40 39  2  0  0  0  0
 41 43  1  0  0  0  0
 41 40  1  0  0  0  0
 42 41  1  0  0  0  0
 44 41  1  0  0  0  0
 45 47  1  0  0  0  0
 45 46  1  0  0  0  0
 48 49  1  0  0  0  0
 48 50  1  0  0  0  0
 48 45  1  0  0  0  0
 51 48  1  0  0  0  0
M  END
>  <MODEL>
13

>  <REMARK>
 VINA RESULT:    -6.399      3.187      7.380
 INTER + INTRA:          -9.805
 INTER:                  -9.244
 INTRA:                  -0.561
 UNBOUND:                -0.225
  Name = 
  10 active torsions:
  status: ('A' for Active; 'I' for Inactive)
    1  A    between atoms: C_1  and  C_2
    2  A    between atoms: C_2  and  C_3
    3  A    between atoms: C_3  and  N_4
    4  A    between atoms: C_5  and  S_6
    5  A    between atoms: S_6  and  C_7
    6  A    between atoms: C_7  and  C_8
    7  A    between atoms: C_8  and  C_10
    8  A    between atoms: N_12  and  C_13
    9  A    between atoms: C_13  and  C_14
   10  A    between atoms: C_16  and  C_17
                            x       y       z     vdW  Elec       q    Type
                         _______ _______ _______ _____ _____    ______ ____

>  <TORSDO>
F 10

$$$$
=
 OpenBabel07192307433D

 51 54  0  0  0  0  0  0  0  0999 V2000
    2.3270    7.0420   19.4340 N   0  0  0  0  0  0  0  0  0  0  0  0
    2.6570    7.7930   18.2980 C   0  0  0  0  0  0  0  0  0  0  0  0
    2.3090    9.0260   18.0910 N   0  0  0  0  0  0  0  0  0  0  0  0
    1.5760    9.5910   19.0760 C   0  0  0  0  0  0  0  0  0  0  0  0
    1.0140   11.2170   18.9620 S   0  0  0  0  0  0  0  0  0  0  0  0
    0.2810   11.0880   20.4600 C   0  0  0  0  0  0  0  0  0  0  0  0
    0.4400    9.8670   21.0560 C   0  0  0  0  0  0  0  0  0  0  0  0
    1.1950    8.9860   20.2550 C   0  0  0  0  0  0  0  0  0  0  0  0
    1.6020    7.6200   20.4870 C   0  0  0  0  0  0  0  0  0  0  0  0
    1.3300    7.0400   21.5360 O   0  0  0  0  0  0  0  0  0  0  0  0
   -0.2270    9.8230   22.3790 C   0  0  0  0  0  0  0  0  0  0  0  0
   -1.1160   11.1080   22.3430 C   0  0  0  0  0  0  0  0  0  0  0  0
   -0.5030   12.0540   21.2620 C   0  0  0  0  0  0  0  0  0  0  0  0
    0.5110    9.8900   23.1850 H   0  0  0  0  0  0  0  0  0  0  0  0
   -0.8370    8.9260   22.5180 H   0  0  0  0  0  0  0  0  0  0  0  0
   -2.1320   10.8290   22.0350 H   0  0  0  0  0  0  0  0  0  0  0  0
   -1.1900   11.5890   23.3230 H   0  0  0  0  0  0  0  0  0  0  0  0
   -1.2850   12.5590   20.6900 H   0  0  0  0  0  0  0  0  0  0  0  0
    0.1520   12.7970   21.7290 H   0  0  0  0  0  0  0  0  0  0  0  0
    2.7560    5.6550   19.6500 C   0  0  0  0  0  0  0  0  0  0  0  0
    3.6900    5.4790   19.1020 H   0  0  0  0  0  0  0  0  0  0  0  0
    2.9980    5.4880   20.7030 H   0  0  0  0  0  0  0  0  0  0  0  0
    1.6980    4.6550   19.1730 C   0  0  0  0  0  0  0  0  0  0  0  0
    0.8300    5.1810   18.7630 H   0  0  0  0  0  0  0  0  0  0  0  0
    2.1040    4.0400   18.3610 H   0  0  0  0  0  0  0  0  0  0  0  0
    1.2430    3.7470   20.3050 C   0  0  0  0  0  0  0  0  0  0  0  0
    0.2370    4.0160   20.6420 H   0  0  0  0  0  0  0  0  0  0  0  0
    1.2200    2.7060   19.9700 H   0  0  0  0  0  0  0  0  0  0  0  0
    1.9220    3.8140   21.1600 H   0  0  0  0  0  0  0  0  0  0  0  0
    3.6170    7.0060   17.0510 S   0  0  0  0  0  0  0  0  0  0  0  0
    5.3010    7.2680   17.6930 C   0  0  0  0  0  0  0  0  0  0  0  0
    5.2340    7.6780   18.7050 H   0  0  0  0  0  0  0  0  0  0  0  0
    5.8260    7.9680   17.0340 H   0  0  0  0  0  0  0  0  0  0  0  0
    6.1020    5.9730   17.7520 C   0  0  0  0  0  0  0  0  0  0  0  0
    6.7340    5.6110   18.7450 O   0  0  0  0  0  0  0  0  0  0  0  0
    6.0930    5.1520   16.5380 C   0  0  0  0  0  0  0  0  0  0  0  0
    6.8320    5.4440   15.4510 N   0  0  0  0  0  0  0  0  0  0  0  0
    6.5110    4.4410   14.6150 N   0  0  0  0  0  0  0  0  0  0  0  0
    5.6330    3.5200   15.0490 N   0  0  0  0  0  0  0  0  0  0  0  0
    5.3570    3.9660   16.2830 C   0  0  0  0  0  0  0  0  0  0  0  0
    4.4100    3.2450   17.1640 C   0  0  0  0  0  0  0  0  0  0  0  0
    3.5030    2.9540   16.6240 H   0  0  0  0  0  0  0  0  0  0  0  0
    4.1100    3.8780   18.0060 H   0  0  0  0  0  0  0  0  0  0  0  0
    4.8720    2.3350   17.5600 H   0  0  0  0  0  0  0  0  0  0  0  0
    7.1020    4.3460   13.2950 C   0  0  0  0  0  0  0  0  0  0  0  0
    8.1140    3.9420   13.4130 H   0  0  0  0  0  0  0  0  0  0  0  0
    7.1890    5.3620   12.8940 H   0  0  0  0  0  0  0  0  0  0  0  0
    6.2800    3.4720   12.3650 C   0  0  0  0  0  0  0  0  0  0  0  0
    6.4100    2.4110   12.6030 H   0  0  0  0  0  0  0  0  0  0  0  0
    5.2160    3.7150   12.4570 H   0  0  0  0  0  0  0  0  0  0  0  0
    6.5750    3.6200   11.3210 H   0  0  0  0  0  0  0  0  0  0  0  0
  1 20  1  0  0  0  0
  1  9  1  0  0  0  0
  2  1  1  0  0  0  0
  3  2  2  0  0  0  0
  3  4  1  0  0  0  0
  4  8  2  0  0  0  0
  5  4  1  0  0  0  0
  5  6  1  0  0  0  0
  6  7  2  0  0  0  0
  6 13  1  0  0  0  0
  7 11  1  0  0  0  0
  8  9  1  0  0  0  0
  8  7  1  0  0  0  0
  9 10  2  0  0  0  0
 11 15  1  0  0  0  0
 11 14  1  0  0  0  0
 12 11  1  0  0  0  0
 12 17  1  0  0  0  0
 13 19  1  0  0  0  0
 13 12  1  0  0  0  0
 16 12  1  0  0  0  0
 18 13  1  0  0  0  0
 20 22  1  0  0  0  0
 21 20  1  0  0  0  0
 23 20  1  0  0  0  0
 23 26  1  0  0  0  0
 24 23  1  0  0  0  0
 25 23  1  0  0  0  0
 26 27  1  0  0  0  0
 26 29  1  0  0  0  0
 28 26  1  0  0  0  0
 30 31  1  0  0  0  0
 30  2  1  0  0  0  0
 31 34  1  0  0  0  0
 31 32  1  0  0  0  0
 33 31  1  0  0  0  0
 34 35  2  0  0  0  0
 36 34  1  0  0  0  0
 37 36  2  0  0  0  0
 38 39  1  0  0  0  0
 38 37  1  0  0  0  0
 39 40  2  0  0  0  0
 40 36  1  0  0  0  0
 40 41  1  0  0  0  0
 41 44  1  0  0  0  0
 41 43  1  0  0  0  0
 42 41  1  0  0  0  0
 45 46  1  0  0  0  0
 45 38  1  0  0  0  0
 47 45  1  0  0  0  0
 48 50  1  0  0  0  0
 48 49  1  0  0  0  0
 48 45  1  0  0  0  0
 51 48  1  0  0  0  0
M  END
>  <MODEL>
14

>  <REMARK>
 VINA RESULT:    -6.377      2.284      3.577
 INTER + INTRA:          -9.771
 INTER:                  -8.928
 INTRA:                  -0.843
 UNBOUND:                -0.225
  Name = 
  10 active torsions:
  status: ('A' for Active; 'I' for Inactive)
    1  A    between atoms: C_1  and  C_2
    2  A    between atoms: C_2  and  C_3
    3  A    between atoms: C_3  and  N_4
    4  A    between atoms: C_5  and  S_6
    5  A    between atoms: S_6  and  C_7
    6  A    between atoms: C_7  and  C_8
    7  A    between atoms: C_8  and  C_10
    8  A    between atoms: N_12  and  C_13
    9  A    between atoms: C_13  and  C_14
   10  A    between atoms: C_16  and  C_17
                            x       y       z     vdW  Elec       q    Type
                         _______ _______ _______ _____ _____    ______ ____

>  <TORSDO>
F 10

$$$$
=
 OpenBabel07192307433D

 51 54  0  0  0  0  0  0  0  0999 V2000
    0.2650   10.2960   20.1200 N   0  0  0  0  0  0  0  0  0  0  0  0
    0.7170    9.5720   19.0090 C   0  0  0  0  0  0  0  0  0  0  0  0
    0.0790    9.4540   17.8850 N   0  0  0  0  0  0  0  0  0  0  0  0
   -1.1060   10.0990   17.8240 C   0  0  0  0  0  0  0  0  0  0  0  0
   -2.0950   10.0390   16.4130 S   0  0  0  0  0  0  0  0  0  0  0  0
   -3.2370   11.0140   17.1490 C   0  0  0  0  0  0  0  0  0  0  0  0
   -2.9100   11.3940   18.4210 C   0  0  0  0  0  0  0  0  0  0  0  0
   -1.6680   10.8650   18.8250 C   0  0  0  0  0  0  0  0  0  0  0  0
   -0.9440   11.0080   20.0670 C   0  0  0  0  0  0  0  0  0  0  0  0
   -1.3710   11.7100   20.9800 O   0  0  0  0  0  0  0  0  0  0  0  0
   -3.9600   12.2600   19.0110 C   0  0  0  0  0  0  0  0  0  0  0  0
   -5.1470   12.0630   18.0140 C   0  0  0  0  0  0  0  0  0  0  0  0
   -4.5340   11.5470   16.6740 C   0  0  0  0  0  0  0  0  0  0  0  0
   -3.6360   13.3050   19.0210 H   0  0  0  0  0  0  0  0  0  0  0  0
   -4.2420   11.9560   20.0230 H   0  0  0  0  0  0  0  0  0  0  0  0
   -5.8240   11.2980   18.4140 H   0  0  0  0  0  0  0  0  0  0  0  0
   -5.7300   12.9800   17.8780 H   0  0  0  0  0  0  0  0  0  0  0  0
   -5.1720   10.7880   16.2140 H   0  0  0  0  0  0  0  0  0  0  0  0
   -4.3830   12.3770   15.9750 H   0  0  0  0  0  0  0  0  0  0  0  0
    1.0210   10.4310   21.3710 C   0  0  0  0  0  0  0  0  0  0  0  0
    2.0910   10.4880   21.1390 H   0  0  0  0  0  0  0  0  0  0  0  0
    0.7770   11.3740   21.8660 H   0  0  0  0  0  0  0  0  0  0  0  0
    0.7740    9.2470   22.3110 C   0  0  0  0  0  0  0  0  0  0  0  0
    0.4160    8.3780   21.7490 H   0  0  0  0  0  0  0  0  0  0  0  0
    1.7140    8.9450   22.7880 H   0  0  0  0  0  0  0  0  0  0  0  0
   -0.2410    9.5970   23.3890 C   0  0  0  0  0  0  0  0  0  0  0  0
   -1.2550    9.3360   23.0710 H   0  0  0  0  0  0  0  0  0  0  0  0
   -0.0230    9.0450   24.3080 H   0  0  0  0  0  0  0  0  0  0  0  0
   -0.2160   10.6650   23.6200 H   0  0  0  0  0  0  0  0  0  0  0  0
    2.2700    8.7560   19.1450 S   0  0  0  0  0  0  0  0  0  0  0  0
    2.1800    7.6030   17.7390 C   0  0  0  0  0  0  0  0  0  0  0  0
    2.2050    8.1770   16.8080 H   0  0  0  0  0  0  0  0  0  0  0  0
    1.2470    7.0320   17.8070 H   0  0  0  0  0  0  0  0  0  0  0  0
    3.3440    6.6190   17.7260 C   0  0  0  0  0  0  0  0  0  0  0  0
    4.5080    6.9490   17.5000 O   0  0  0  0  0  0  0  0  0  0  0  0
    3.0080    5.2190   17.9970 C   0  0  0  0  0  0  0  0  0  0  0  0
    2.0210    4.8510   18.8350 N   0  0  0  0  0  0  0  0  0  0  0  0
    2.0790    3.5090   18.7670 N   0  0  0  0  0  0  0  0  0  0  0  0
    3.0090    2.9620   17.9650 N   0  0  0  0  0  0  0  0  0  0  0  0
    3.6130    4.0490   17.4650 C   0  0  0  0  0  0  0  0  0  0  0  0
    4.7330    3.9310   16.5050 C   0  0  0  0  0  0  0  0  0  0  0  0
    5.6900    4.1830   16.9720 H   0  0  0  0  0  0  0  0  0  0  0  0
    4.5860    4.6060   15.6560 H   0  0  0  0  0  0  0  0  0  0  0  0
    4.8050    2.9060   16.1250 H   0  0  0  0  0  0  0  0  0  0  0  0
    1.1610    2.6790   19.5210 C   0  0  0  0  0  0  0  0  0  0  0  0
    1.4150    1.6330   19.3170 H   0  0  0  0  0  0  0  0  0  0  0  0
    0.1520    2.8630   19.1360 H   0  0  0  0  0  0  0  0  0  0  0  0
    1.2260    2.9670   21.0100 C   0  0  0  0  0  0  0  0  0  0  0  0
    1.0010    2.0700   21.5960 H   0  0  0  0  0  0  0  0  0  0  0  0
    2.2270    3.3140   21.2870 H   0  0  0  0  0  0  0  0  0  0  0  0
    0.5050    3.7420   21.2940 H   0  0  0  0  0  0  0  0  0  0  0  0
  1 20  1  0  0  0  0
  2 30  1  0  0  0  0
  2  1  1  0  0  0  0
  3  2  2  0  0  0  0
  4  3  1  0  0  0  0
  4  8  2  0  0  0  0
  5  6  1  0  0  0  0
  5  4  1  0  0  0  0
  6  7  2  0  0  0  0
  7  8  1  0  0  0  0
  7 11  1  0  0  0  0
  8  9  1  0  0  0  0
  9  1  1  0  0  0  0
  9 10  2  0  0  0  0
 11 14  1  0  0  0  0
 11 15  1  0  0  0  0
 12 16  1  0  0  0  0
 12 11  1  0  0  0  0
 13  6  1  0  0  0  0
 13 12  1  0  0  0  0
 17 12  1  0  0  0  0
 18 13  1  0  0  0  0
 19 13  1  0  0  0  0
 20 22  1  0  0  0  0
 20 23  1  0  0  0  0
 21 20  1  0  0  0  0
 23 25  1  0  0  0  0
 23 26  1  0  0  0  0
 24 23  1  0  0  0  0
 26 29  1  0  0  0  0
 26 28  1  0  0  0  0
 27 26  1  0  0  0  0
 31 33  1  0  0  0  0
 31 30  1  0  0  0  0
 32 31  1  0  0  0  0
 34 31  1  0  0  0  0
 34 36  1  0  0  0  0
 35 34  2  0  0  0  0
 36 37  2  0  0  0  0
 38 37  1  0  0  0  0
 38 45  1  0  0  0  0
 39 38  1  0  0  0  0
 40 39  2  0  0  0  0
 40 36  1  0  0  0  0
 41 42  1  0  0  0  0
 41 40  1  0  0  0  0
 43 41  1  0  0  0  0
 44 41  1  0  0  0  0
 45 48  1  0  0  0  0
 46 45  1  0  0  0  0
 47 45  1  0  0  0  0
 48 50  1  0  0  0  0
 48 51  1  0  0  0  0
 48 49  1  0  0  0  0
M  END
>  <MODEL>
15

>  <REMARK>
 VINA RESULT:    -6.367      3.705      6.269
 INTER + INTRA:          -9.757
 INTER:                  -9.283
 INTRA:                  -0.474
 UNBOUND:                -0.225
  Name = 
  10 active torsions:
  status: ('A' for Active; 'I' for Inactive)
    1  A    between atoms: C_1  and  C_2
    2  A    between atoms: C_2  and  C_3
    3  A    between atoms: C_3  and  N_4
    4  A    between atoms: C_5  and  S_6
    5  A    between atoms: S_6  and  C_7
    6  A    between atoms: C_7  and  C_8
    7  A    between atoms: C_8  and  C_10
    8  A    between atoms: N_12  and  C_13
    9  A    between atoms: C_13  and  C_14
   10  A    between atoms: C_16  and  C_17
                            x       y       z     vdW  Elec       q    Type
                         _______ _______ _______ _____ _____    ______ ____

>  <TORSDO>
F 10

$$$$
=
 OpenBabel07192307433D

 51 54  0  0  0  0  0  0  0  0999 V2000
   -1.6000   11.6180   18.8450 N   0  0  0  0  0  0  0  0  0  0  0  0
   -0.4340   11.3570   19.5760 C   0  0  0  0  0  0  0  0  0  0  0  0
   -0.3110   11.4940   20.8600 N   0  0  0  0  0  0  0  0  0  0  0  0
   -1.4210   11.9190   21.5030 C   0  0  0  0  0  0  0  0  0  0  0  0
   -1.4350   12.1720   23.2090 S   0  0  0  0  0  0  0  0  0  0  0  0
   -3.0400   12.6380   23.1450 C   0  0  0  0  0  0  0  0  0  0  0  0
   -3.5800   12.6120   21.8890 C   0  0  0  0  0  0  0  0  0  0  0  0
   -2.6420   12.1940   20.9230 C   0  0  0  0  0  0  0  0  0  0  0  0
   -2.7770   12.0210   19.4950 C   0  0  0  0  0  0  0  0  0  0  0  0
   -3.8490   12.2080   18.9260 O   0  0  0  0  0  0  0  0  0  0  0  0
   -5.0020   13.0300   21.9050 C   0  0  0  0  0  0  0  0  0  0  0  0
   -5.1470   13.6490   23.3330 C   0  0  0  0  0  0  0  0  0  0  0  0
   -3.9860   13.0680   24.2000 C   0  0  0  0  0  0  0  0  0  0  0  0
   -5.6600   12.1620   21.7950 H   0  0  0  0  0  0  0  0  0  0  0  0
   -5.2380   13.7660   21.1310 H   0  0  0  0  0  0  0  0  0  0  0  0
   -5.0280   14.7380   23.2620 H   0  0  0  0  0  0  0  0  0  0  0  0
   -6.1310   13.4540   23.7710 H   0  0  0  0  0  0  0  0  0  0  0  0
   -3.5740   13.8280   24.8690 H   0  0  0  0  0  0  0  0  0  0  0  0
   -4.3350   12.2110   24.7850 H   0  0  0  0  0  0  0  0  0  0  0  0
   -1.7150   11.4300   17.3940 C   0  0  0  0  0  0  0  0  0  0  0  0
   -2.4320   12.1570   16.9930 H   0  0  0  0  0  0  0  0  0  0  0  0
   -0.7650   11.6560   16.9020 H   0  0  0  0  0  0  0  0  0  0  0  0
   -2.1830   10.0150   17.0420 C   0  0  0  0  0  0  0  0  0  0  0  0
   -1.3340    9.3240   17.0180 H   0  0  0  0  0  0  0  0  0  0  0  0
   -2.8660    9.6440   17.8160 H   0  0  0  0  0  0  0  0  0  0  0  0
   -2.8920    9.9830   15.6970 C   0  0  0  0  0  0  0  0  0  0  0  0
   -3.9030   10.3920   15.7770 H   0  0  0  0  0  0  0  0  0  0  0  0
   -2.3420   10.5830   14.9650 H   0  0  0  0  0  0  0  0  0  0  0  0
   -2.9630    8.9610   15.3140 H   0  0  0  0  0  0  0  0  0  0  0  0
    0.9790   10.8020   18.6860 S   0  0  0  0  0  0  0  0  0  0  0  0
    1.2380    9.1630   19.4350 C   0  0  0  0  0  0  0  0  0  0  0  0
    0.2640    8.6910   19.6010 H   0  0  0  0  0  0  0  0  0  0  0  0
    1.7660    9.2860   20.3870 H   0  0  0  0  0  0  0  0  0  0  0  0
    2.0670    8.2470   18.5430 C   0  0  0  0  0  0  0  0  0  0  0  0
    2.4030    8.5400   17.3950 O   0  0  0  0  0  0  0  0  0  0  0  0
    2.4560    6.9580   19.1240 C   0  0  0  0  0  0  0  0  0  0  0  0
    1.7820    6.3780   20.1340 N   0  0  0  0  0  0  0  0  0  0  0  0
    2.4830    5.2450   20.3260 N   0  0  0  0  0  0  0  0  0  0  0  0
    3.5500    5.0290   19.5370 N   0  0  0  0  0  0  0  0  0  0  0  0
    3.5440    6.1220   18.7620 C   0  0  0  0  0  0  0  0  0  0  0  0
    4.5680    6.3220   17.7110 C   0  0  0  0  0  0  0  0  0  0  0  0
    4.9620    5.3670   17.3490 H   0  0  0  0  0  0  0  0  0  0  0  0
    5.4080    6.9070   18.0990 H   0  0  0  0  0  0  0  0  0  0  0  0
    4.1390    6.8540   16.8560 H   0  0  0  0  0  0  0  0  0  0  0  0
    2.0930    4.2830   21.3370 C   0  0  0  0  0  0  0  0  0  0  0  0
    1.5290    4.8220   22.1060 H   0  0  0  0  0  0  0  0  0  0  0  0
    3.0070    3.8940   21.7980 H   0  0  0  0  0  0  0  0  0  0  0  0
    1.2630    3.1530   20.7550 C   0  0  0  0  0  0  0  0  0  0  0  0
    0.5160    3.5330   20.0500 H   0  0  0  0  0  0  0  0  0  0  0  0
    1.9060    2.4440   20.2230 H   0  0  0  0  0  0  0  0  0  0  0  0
    0.7320    2.6070   21.5430 H   0  0  0  0  0  0  0  0  0  0  0  0
  1  9  1  0  0  0  0
  1  2  1  0  0  0  0
  2  3  2  0  0  0  0
  3  4  1  0  0  0  0
  4  5  1  0  0  0  0
  6  5  1  0  0  0  0
  6 13  1  0  0  0  0
  7 11  1  0  0  0  0
  7  6  2  0  0  0  0
  8  4  2  0  0  0  0
  8  7  1  0  0  0  0
  9  8  1  0  0  0  0
 10  9  2  0  0  0  0
 11 12  1  0  0  0  0
 12 17  1  0  0  0  0
 12 13  1  0  0  0  0
 13 19  1  0  0  0  0
 13 18  1  0  0  0  0
 14 11  1  0  0  0  0
 15 11  1  0  0  0  0
 16 12  1  0  0  0  0
 20  1  1  0  0  0  0
 21 20  1  0  0  0  0
 22 20  1  0  0  0  0
 23 20  1  0  0  0  0
 23 25  1  0  0  0  0
 24 23  1  0  0  0  0
 26 27  1  0  0  0  0
 26 23  1  0  0  0  0
 28 26  1  0  0  0  0
 29 26  1  0  0  0  0
 30 31  1  0  0  0  0
 30  2  1  0  0  0  0
 31 32  1  0  0  0  0
 31 33  1  0  0  0  0
 34 36  1  0  0  0  0
 34 31  1  0  0  0  0
 35 34  2  0  0  0  0
 36 37  2  0  0  0  0
 37 38  1  0  0  0  0
 38 45  1  0  0  0  0
 39 38  1  0  0  0  0
 40 36  1  0  0  0  0
 40 39  2  0  0  0  0
 41 43  1  0  0  0  0
 41 40  1  0  0  0  0
 42 41  1  0  0  0  0
 44 41  1  0  0  0  0
 45 47  1  0  0  0  0
 45 46  1  0  0  0  0
 48 45  1  0  0  0  0
 48 51  1  0  0  0  0
 49 48  1  0  0  0  0
 50 48  1  0  0  0  0
M  END
>  <MODEL>
16

>  <REMARK>
 VINA RESULT:    -6.364      4.291      7.259
 INTER + INTRA:          -9.752
 INTER:                  -9.413
 INTRA:                  -0.339
 UNBOUND:                -0.225
  Name = 
  10 active torsions:
  status: ('A' for Active; 'I' for Inactive)
    1  A    between atoms: C_1  and  C_2
    2  A    between atoms: C_2  and  C_3
    3  A    between atoms: C_3  and  N_4
    4  A    between atoms: C_5  and  S_6
    5  A    between atoms: S_6  and  C_7
    6  A    between atoms: C_7  and  C_8
    7  A    between atoms: C_8  and  C_10
    8  A    between atoms: N_12  and  C_13
    9  A    between atoms: C_13  and  C_14
   10  A    between atoms: C_16  and  C_17
                            x       y       z     vdW  Elec       q    Type
                         _______ _______ _______ _____ _____    ______ ____

>  <TORSDO>
F 10

$$$$
=
 OpenBabel07192307433D

 51 54  0  0  0  0  0  0  0  0999 V2000
    1.3590    8.2400   20.0150 N   0  0  0  0  0  0  0  0  0  0  0  0
    1.7700    9.0350   18.9370 C   0  0  0  0  0  0  0  0  0  0  0  0
    2.6070    8.6680   18.0160 N   0  0  0  0  0  0  0  0  0  0  0  0
    3.0910    7.4130   18.1420 C   0  0  0  0  0  0  0  0  0  0  0  0
    4.2260    6.7660   17.0170 S   0  0  0  0  0  0  0  0  0  0  0  0
    4.2620    5.3200   17.8570 C   0  0  0  0  0  0  0  0  0  0  0  0
    3.4520    5.2940   18.9580 C   0  0  0  0  0  0  0  0  0  0  0  0
    2.7630    6.5110   19.1330 C   0  0  0  0  0  0  0  0  0  0  0  0
    1.8160    6.9190   20.1450 C   0  0  0  0  0  0  0  0  0  0  0  0
    1.4520    6.1480   21.0290 O   0  0  0  0  0  0  0  0  0  0  0  0
    3.5280    3.9860   19.6520 C   0  0  0  0  0  0  0  0  0  0  0  0
    4.7840    3.3350   18.9890 C   0  0  0  0  0  0  0  0  0  0  0  0
    5.0070    4.0620   17.6250 C   0  0  0  0  0  0  0  0  0  0  0  0
    2.6330    3.3890   19.4470 H   0  0  0  0  0  0  0  0  0  0  0  0
    3.6600    4.0840   20.7330 H   0  0  0  0  0  0  0  0  0  0  0  0
    5.6560    3.5090   19.6330 H   0  0  0  0  0  0  0  0  0  0  0  0
    4.6760    2.2520   18.8690 H   0  0  0  0  0  0  0  0  0  0  0  0
    6.0710    4.2180   17.4300 H   0  0  0  0  0  0  0  0  0  0  0  0
    4.5610    3.4890   16.8070 H   0  0  0  0  0  0  0  0  0  0  0  0
    0.3910    8.6750   21.0290 C   0  0  0  0  0  0  0  0  0  0  0  0
   -0.2480    9.4570   20.6030 H   0  0  0  0  0  0  0  0  0  0  0  0
   -0.2840    7.8550   21.2910 H   0  0  0  0  0  0  0  0  0  0  0  0
    1.0890    9.2210   22.2780 C   0  0  0  0  0  0  0  0  0  0  0  0
    1.8240    8.5010   22.6540 H   0  0  0  0  0  0  0  0  0  0  0  0
    1.6450   10.1330   22.0280 H   0  0  0  0  0  0  0  0  0  0  0  0
    0.0890    9.5340   23.3810 C   0  0  0  0  0  0  0  0  0  0  0  0
   -0.5580   10.3690   23.0970 H   0  0  0  0  0  0  0  0  0  0  0  0
   -0.5470    8.6640   23.5740 H   0  0  0  0  0  0  0  0  0  0  0  0
    0.6000    9.7950   24.3120 H   0  0  0  0  0  0  0  0  0  0  0  0
    1.1030   10.6590   18.8210 S   0  0  0  0  0  0  0  0  0  0  0  0
   -0.5710   10.3020   18.2010 C   0  0  0  0  0  0  0  0  0  0  0  0
   -0.9770    9.4450   18.7480 H   0  0  0  0  0  0  0  0  0  0  0  0
   -0.5130   10.0760   17.1310 H   0  0  0  0  0  0  0  0  0  0  0  0
   -1.5180   11.4810   18.3900 C   0  0  0  0  0  0  0  0  0  0  0  0
   -2.3860   11.7920   17.5730 O   0  0  0  0  0  0  0  0  0  0  0  0
   -1.3450   12.2580   19.6210 C   0  0  0  0  0  0  0  0  0  0  0  0
   -1.7140   11.8020   20.8320 N   0  0  0  0  0  0  0  0  0  0  0  0
   -1.3700   12.8260   21.6350 N   0  0  0  0  0  0  0  0  0  0  0  0
   -0.8100   13.9070   21.0650 N   0  0  0  0  0  0  0  0  0  0  0  0
   -0.7890   13.5560   19.7720 C   0  0  0  0  0  0  0  0  0  0  0  0
   -0.2410   14.4640   18.7390 C   0  0  0  0  0  0  0  0  0  0  0  0
    0.7630   14.1580   18.4290 H   0  0  0  0  0  0  0  0  0  0  0  0
   -0.1760   15.4880   19.1220 H   0  0  0  0  0  0  0  0  0  0  0  0
   -0.8810   14.4640   17.8510 H   0  0  0  0  0  0  0  0  0  0  0  0
   -1.5800   12.7600   23.0670 C   0  0  0  0  0  0  0  0  0  0  0  0
   -1.4920   13.7780   23.4620 H   0  0  0  0  0  0  0  0  0  0  0  0
   -0.7700   12.1600   23.4960 H   0  0  0  0  0  0  0  0  0  0  0  0
   -2.9320   12.1630   23.4160 C   0  0  0  0  0  0  0  0  0  0  0  0
   -3.3680   12.6580   24.2890 H   0  0  0  0  0  0  0  0  0  0  0  0
   -3.6250   12.2750   22.5760 H   0  0  0  0  0  0  0  0  0  0  0  0
   -2.8440   11.0950   23.6450 H   0  0  0  0  0  0  0  0  0  0  0  0
  1  9  1  0  0  0  0
  1 20  1  0  0  0  0
  2  1  1  0  0  0  0
  3  4  1  0  0  0  0
  3  2  2  0  0  0  0
  4  8  2  0  0  0  0
  5  6  1  0  0  0  0
  5  4  1  0  0  0  0
  6  7  2  0  0  0  0
  7  8  1  0  0  0  0
  7 11  1  0  0  0  0
  8  9  1  0  0  0  0
  9 10  2  0  0  0  0
 11 15  1  0  0  0  0
 12 16  1  0  0  0  0
 12 11  1  0  0  0  0
 13  6  1  0  0  0  0
 13 12  1  0  0  0  0
 14 11  1  0  0  0  0
 17 12  1  0  0  0  0
 18 13  1  0  0  0  0
 19 13  1  0  0  0  0
 20 22  1  0  0  0  0
 20 23  1  0  0  0  0
 21 20  1  0  0  0  0
 23 24  1  0  0  0  0
 23 26  1  0  0  0  0
 25 23  1  0  0  0  0
 26 28  1  0  0  0  0
 26 29  1  0  0  0  0
 27 26  1  0  0  0  0
 30  2  1  0  0  0  0
 31 34  1  0  0  0  0
 31 32  1  0  0  0  0
 31 30  1  0  0  0  0
 33 31  1  0  0  0  0
 34 36  1  0  0  0  0
 35 34  2  0  0  0  0
 36 40  1  0  0  0  0
 36 37  2  0  0  0  0
 37 38  1  0  0  0  0
 38 45  1  0  0  0  0
 39 38  1  0  0  0  0
 40 39  2  0  0  0  0
 41 43  1  0  0  0  0
 41 40  1  0  0  0  0
 42 41  1  0  0  0  0
 44 41  1  0  0  0  0
 45 48  1  0  0  0  0
 45 46  1  0  0  0  0
 45 47  1  0  0  0  0
 48 51  1  0  0  0  0
 48 49  1  0  0  0  0
 50 48  1  0  0  0  0
M  END
>  <MODEL>
17

>  <REMARK>
 VINA RESULT:    -6.321      3.834      8.166
 INTER + INTRA:          -9.687
 INTER:                  -8.938
 INTRA:                  -0.749
 UNBOUND:                -0.225
  Name = 
  10 active torsions:
  status: ('A' for Active; 'I' for Inactive)
    1  A    between atoms: C_1  and  C_2
    2  A    between atoms: C_2  and  C_3
    3  A    between atoms: C_3  and  N_4
    4  A    between atoms: C_5  and  S_6
    5  A    between atoms: S_6  and  C_7
    6  A    between atoms: C_7  and  C_8
    7  A    between atoms: C_8  and  C_10
    8  A    between atoms: N_12  and  C_13
    9  A    between atoms: C_13  and  C_14
   10  A    between atoms: C_16  and  C_17
                            x       y       z     vdW  Elec       q    Type
                         _______ _______ _______ _____ _____    ______ ____

>  <TORSDO>
F 10

$$$$
=
 OpenBabel07192307433D

 51 54  0  0  0  0  0  0  0  0999 V2000
    1.5700    8.1360   19.1660 N   0  0  0  0  0  0  0  0  0  0  0  0
    1.7320    7.3800   20.3340 C   0  0  0  0  0  0  0  0  0  0  0  0
    1.2910    7.7160   21.5070 N   0  0  0  0  0  0  0  0  0  0  0  0
    0.6270    8.8910   21.5590 C   0  0  0  0  0  0  0  0  0  0  0  0
   -0.0140    9.5010   23.0400 S   0  0  0  0  0  0  0  0  0  0  0  0
   -0.6070   10.8500   22.2480 C   0  0  0  0  0  0  0  0  0  0  0  0
   -0.3480   10.8690   20.9060 C   0  0  0  0  0  0  0  0  0  0  0  0
    0.3720    9.7290   20.4940 C   0  0  0  0  0  0  0  0  0  0  0  0
    0.8490    9.3400   19.1870 C   0  0  0  0  0  0  0  0  0  0  0  0
    0.6170   10.0220   18.1910 O   0  0  0  0  0  0  0  0  0  0  0  0
   -0.9040   12.0860   20.2670 C   0  0  0  0  0  0  0  0  0  0  0  0
   -1.2470   12.9780   21.5020 C   0  0  0  0  0  0  0  0  0  0  0  0
   -1.3650   12.0250   22.7330 C   0  0  0  0  0  0  0  0  0  0  0  0
   -1.8120   11.8440   19.7050 H   0  0  0  0  0  0  0  0  0  0  0  0
   -0.1890   12.5840   19.6070 H   0  0  0  0  0  0  0  0  0  0  0  0
   -0.4200   13.6800   21.6740 H   0  0  0  0  0  0  0  0  0  0  0  0
   -2.1540   13.5710   21.3470 H   0  0  0  0  0  0  0  0  0  0  0  0
   -0.9340   12.4800   23.6290 H   0  0  0  0  0  0  0  0  0  0  0  0
   -2.4120   11.7650   22.9180 H   0  0  0  0  0  0  0  0  0  0  0  0
    2.0600    7.7170   17.8470 C   0  0  0  0  0  0  0  0  0  0  0  0
    2.1280    6.6230   17.8190 H   0  0  0  0  0  0  0  0  0  0  0  0
    1.3400    7.9850   17.0680 H   0  0  0  0  0  0  0  0  0  0  0  0
    3.4360    8.3140   17.5390 C   0  0  0  0  0  0  0  0  0  0  0  0
    3.3830    8.9740   16.6680 H   0  0  0  0  0  0  0  0  0  0  0  0
    3.7720    8.9330   18.3800 H   0  0  0  0  0  0  0  0  0  0  0  0
    4.4670    7.2260   17.2790 C   0  0  0  0  0  0  0  0  0  0  0  0
    4.0430    6.4230   16.6700 H   0  0  0  0  0  0  0  0  0  0  0  0
    5.3260    7.6390   16.7410 H   0  0  0  0  0  0  0  0  0  0  0  0
    4.8280    6.7950   18.2170 H   0  0  0  0  0  0  0  0  0  0  0  0
    2.6010    5.8560   20.2050 S   0  0  0  0  0  0  0  0  0  0  0  0
    1.2250    4.6650   20.2620 C   0  0  0  0  0  0  0  0  0  0  0  0
    0.2990    5.1810   19.9890 H   0  0  0  0  0  0  0  0  0  0  0  0
    1.1480    4.2600   21.2770 H   0  0  0  0  0  0  0  0  0  0  0  0
    1.4270    3.5040   19.2970 C   0  0  0  0  0  0  0  0  0  0  0  0
    0.5840    2.6290   19.1010 O   0  0  0  0  0  0  0  0  0  0  0  0
    2.7120    3.4670   18.5910 C   0  0  0  0  0  0  0  0  0  0  0  0
    2.8760    3.9480   17.3450 N   0  0  0  0  0  0  0  0  0  0  0  0
    4.1810    3.7070   17.1200 N   0  0  0  0  0  0  0  0  0  0  0  0
    4.8860    3.1150   18.1000 N   0  0  0  0  0  0  0  0  0  0  0  0
    3.9540    2.9550   19.0500 C   0  0  0  0  0  0  0  0  0  0  0  0
    4.2830    2.3270   20.3490 C   0  0  0  0  0  0  0  0  0  0  0  0
    3.6310    1.4720   20.5580 H   0  0  0  0  0  0  0  0  0  0  0  0
    4.1640    3.0460   21.1660 H   0  0  0  0  0  0  0  0  0  0  0  0
    5.3170    1.9680   20.3500 H   0  0  0  0  0  0  0  0  0  0  0  0
    4.8100    4.0860   15.8710 C   0  0  0  0  0  0  0  0  0  0  0  0
    4.4200    5.0700   15.5900 H   0  0  0  0  0  0  0  0  0  0  0  0
    4.4940    3.3670   15.1070 H   0  0  0  0  0  0  0  0  0  0  0  0
    6.3230    4.1180   15.9830 C   0  0  0  0  0  0  0  0  0  0  0  0
    6.6830    5.1340   16.1820 H   0  0  0  0  0  0  0  0  0  0  0  0
    6.6580    3.4710   16.8010 H   0  0  0  0  0  0  0  0  0  0  0  0
    6.7950    3.7710   15.0580 H   0  0  0  0  0  0  0  0  0  0  0  0
  1  9  1  0  0  0  0
  1  2  1  0  0  0  0
  2  3  2  0  0  0  0
  3  4  1  0  0  0  0
  4  5  1  0  0  0  0
  6 13  1  0  0  0  0
  6  5  1  0  0  0  0
  7  6  2  0  0  0  0
  8  7  1  0  0  0  0
  8  4  2  0  0  0  0
  9  8  1  0  0  0  0
 10  9  2  0  0  0  0
 11  7  1  0  0  0  0
 11 12  1  0  0  0  0
 12 16  1  0  0  0  0
 12 13  1  0  0  0  0
 13 19  1  0  0  0  0
 13 18  1  0  0  0  0
 14 11  1  0  0  0  0
 15 11  1  0  0  0  0
 17 12  1  0  0  0  0
 20  1  1  0  0  0  0
 21 20  1  0  0  0  0
 22 20  1  0  0  0  0
 23 20  1  0  0  0  0
 23 25  1  0  0  0  0
 24 23  1  0  0  0  0
 26 23  1  0  0  0  0
 26 29  1  0  0  0  0
 27 26  1  0  0  0  0
 28 26  1  0  0  0  0
 30 31  1  0  0  0  0
 30  2  1  0  0  0  0
 31 33  1  0  0  0  0
 32 31  1  0  0  0  0
 34 31  1  0  0  0  0
 35 34  2  0  0  0  0
 36 40  1  0  0  0  0
 36 34  1  0  0  0  0
 37 36  2  0  0  0  0
 38 37  1  0  0  0  0
 38 39  1  0  0  0  0
 39 40  2  0  0  0  0
 40 41  1  0  0  0  0
 41 44  1  0  0  0  0
 41 42  1  0  0  0  0
 41 43  1  0  0  0  0
 45 48  1  0  0  0  0
 45 38  1  0  0  0  0
 46 45  1  0  0  0  0
 47 45  1  0  0  0  0
 48 49  1  0  0  0  0
 48 50  1  0  0  0  0
 51 48  1  0  0  0  0
M  END
>  <MODEL>
18

>  <REMARK>
 VINA RESULT:    -6.166      3.373      5.107
 INTER + INTRA:          -9.455
 INTER:                  -8.840
 INTRA:                  -0.614
 UNBOUND:                -0.225
  Name = 
  10 active torsions:
  status: ('A' for Active; 'I' for Inactive)
    1  A    between atoms: C_1  and  C_2
    2  A    between atoms: C_2  and  C_3
    3  A    between atoms: C_3  and  N_4
    4  A    between atoms: C_5  and  S_6
    5  A    between atoms: S_6  and  C_7
    6  A    between atoms: C_7  and  C_8
    7  A    between atoms: C_8  and  C_10
    8  A    between atoms: N_12  and  C_13
    9  A    between atoms: C_13  and  C_14
   10  A    between atoms: C_16  and  C_17
                            x       y       z     vdW  Elec       q    Type
                         _______ _______ _______ _____ _____    ______ ____

>  <TORSDO>
F 10

$$$$
=
 OpenBabel07192307433D

 51 54  0  0  0  0  0  0  0  0999 V2000
    2.0310    7.4890   19.6910 N   0  0  0  0  0  0  0  0  0  0  0  0
    2.2900    8.1510   18.4840 C   0  0  0  0  0  0  0  0  0  0  0  0
    1.8960    9.3520   18.1910 N   0  0  0  0  0  0  0  0  0  0  0  0
    1.1880    9.9780   19.1570 C   0  0  0  0  0  0  0  0  0  0  0  0
    0.5720   11.5730   18.9340 S   0  0  0  0  0  0  0  0  0  0  0  0
   -0.0930   11.5500   20.4690 C   0  0  0  0  0  0  0  0  0  0  0  0
    0.1280   10.3890   21.1560 C   0  0  0  0  0  0  0  0  0  0  0  0
    0.8750    9.4640   20.3980 C   0  0  0  0  0  0  0  0  0  0  0  0
    1.3330    8.1340   20.7240 C   0  0  0  0  0  0  0  0  0  0  0  0
    1.1240    7.6360   21.8280 O   0  0  0  0  0  0  0  0  0  0  0  0
   -0.4810   10.4380   22.5070 C   0  0  0  0  0  0  0  0  0  0  0  0
   -1.4100   11.6900   22.4030 C   0  0  0  0  0  0  0  0  0  0  0  0
   -0.8720   12.5590   21.2220 C   0  0  0  0  0  0  0  0  0  0  0  0
    0.2870   10.5920   23.2700 H   0  0  0  0  0  0  0  0  0  0  0  0
   -1.0570    9.5390   22.7460 H   0  0  0  0  0  0  0  0  0  0  0  0
   -2.4290   11.3590   22.1660 H   0  0  0  0  0  0  0  0  0  0  0  0
   -1.4570   12.2500   23.3430 H   0  0  0  0  0  0  0  0  0  0  0  0
   -1.6920   12.9930   20.6450 H   0  0  0  0  0  0  0  0  0  0  0  0
   -0.2210   13.3550   21.5970 H   0  0  0  0  0  0  0  0  0  0  0  0
    2.5110    6.1370   20.0020 C   0  0  0  0  0  0  0  0  0  0  0  0
    3.4740    5.9750   19.5030 H   0  0  0  0  0  0  0  0  0  0  0  0
    2.7160    6.0400   21.0720 H   0  0  0  0  0  0  0  0  0  0  0  0
    1.5190    5.0650   19.5410 C   0  0  0  0  0  0  0  0  0  0  0  0
    0.5920    5.5270   19.1860 H   0  0  0  0  0  0  0  0  0  0  0  0
    1.9370    4.5090   18.6930 H   0  0  0  0  0  0  0  0  0  0  0  0
    1.1940    4.0910   20.6630 C   0  0  0  0  0  0  0  0  0  0  0  0
    1.2980    3.0560   20.3250 H   0  0  0  0  0  0  0  0  0  0  0  0
    1.8760    4.2420   21.5050 H   0  0  0  0  0  0  0  0  0  0  0  0
    0.1710    4.2360   21.0240 H   0  0  0  0  0  0  0  0  0  0  0  0
    3.2210    7.2880   17.2650 S   0  0  0  0  0  0  0  0  0  0  0  0
    4.9180    7.7460   17.7360 C   0  0  0  0  0  0  0  0  0  0  0  0
    4.9410    7.9680   18.8070 H   0  0  0  0  0  0  0  0  0  0  0  0
    5.2210    8.6270   17.1600 H   0  0  0  0  0  0  0  0  0  0  0  0
    5.9150    6.6270   17.4590 C   0  0  0  0  0  0  0  0  0  0  0  0
    7.0970    6.8250   17.1780 O   0  0  0  0  0  0  0  0  0  0  0  0
    5.3900    5.2610   17.5370 C   0  0  0  0  0  0  0  0  0  0  0  0
    5.0680    4.6660   18.7010 N   0  0  0  0  0  0  0  0  0  0  0  0
    4.6410    3.4570   18.2900 N   0  0  0  0  0  0  0  0  0  0  0  0
    4.6510    3.2050   16.9700 N   0  0  0  0  0  0  0  0  0  0  0  0
    5.1300    4.3550   16.4750 C   0  0  0  0  0  0  0  0  0  0  0  0
    5.3180    4.5440   15.0190 C   0  0  0  0  0  0  0  0  0  0  0  0
    4.8060    5.4430   14.6620 H   0  0  0  0  0  0  0  0  0  0  0  0
    4.9180    3.6880   14.4650 H   0  0  0  0  0  0  0  0  0  0  0  0
    6.3820    4.6460   14.7800 H   0  0  0  0  0  0  0  0  0  0  0  0
    4.1700    2.4670   19.2370 C   0  0  0  0  0  0  0  0  0  0  0  0
    3.6010    2.9930   20.0120 H   0  0  0  0  0  0  0  0  0  0  0  0
    5.0480    2.0150   19.7120 H   0  0  0  0  0  0  0  0  0  0  0  0
    3.3150    1.4040   18.5700 C   0  0  0  0  0  0  0  0  0  0  0  0
    3.9020    0.8190   17.8530 H   0  0  0  0  0  0  0  0  0  0  0  0
    2.9080    0.7180   19.3200 H   0  0  0  0  0  0  0  0  0  0  0  0
    2.4770    1.8550   18.0280 H   0  0  0  0  0  0  0  0  0  0  0  0
  1 20  1  0  0  0  0
  1  9  1  0  0  0  0
  2  1  1  0  0  0  0
  3  2  2  0  0  0  0
  3  4  1  0  0  0  0
  4  8  2  0  0  0  0
  5  4  1  0  0  0  0
  5  6  1  0  0  0  0
  6  7  2  0  0  0  0
  6 13  1  0  0  0  0
  7 11  1  0  0  0  0
  8  9  1  0  0  0  0
  8  7  1  0  0  0  0
  9 10  2  0  0  0  0
 11 15  1  0  0  0  0
 11 14  1  0  0  0  0
 12 11  1  0  0  0  0
 12 17  1  0  0  0  0
 13 19  1  0  0  0  0
 13 12  1  0  0  0  0
 16 12  1  0  0  0  0
 18 13  1  0  0  0  0
 20 22  1  0  0  0  0
 21 20  1  0  0  0  0
 23 20  1  0  0  0  0
 23 26  1  0  0  0  0
 24 23  1  0  0  0  0
 25 23  1  0  0  0  0
 26 29  1  0  0  0  0
 26 28  1  0  0  0  0
 27 26  1  0  0  0  0
 30 31  1  0  0  0  0
 30  2  1  0  0  0  0
 31 32  1  0  0  0  0
 33 31  1  0  0  0  0
 34 36  1  0  0  0  0
 34 31  1  0  0  0  0
 35 34  2  0  0  0  0
 36 37  2  0  0  0  0
 38 37  1  0  0  0  0
 38 45  1  0  0  0  0
 39 38  1  0  0  0  0
 40 39  2  0  0  0  0
 40 36  1  0  0  0  0
 41 40  1  0  0  0  0
 42 41  1  0  0  0  0
 43 41  1  0  0  0  0
 44 41  1  0  0  0  0
 45 47  1  0  0  0  0
 45 46  1  0  0  0  0
 48 45  1  0  0  0  0
 48 50  1  0  0  0  0
 49 48  1  0  0  0  0
 51 48  1  0  0  0  0
M  END
>  <MODEL>
19

>  <REMARK>
 VINA RESULT:    -6.154      2.543      4.050
 INTER + INTRA:          -9.438
 INTER:                  -8.574
 INTRA:                  -0.864
 UNBOUND:                -0.225
  Name = 
  10 active torsions:
  status: ('A' for Active; 'I' for Inactive)
    1  A    between atoms: C_1  and  C_2
    2  A    between atoms: C_2  and  C_3
    3  A    between atoms: C_3  and  N_4
    4  A    between atoms: C_5  and  S_6
    5  A    between atoms: S_6  and  C_7
    6  A    between atoms: C_7  and  C_8
    7  A    between atoms: C_8  and  C_10
    8  A    between atoms: N_12  and  C_13
    9  A    between atoms: C_13  and  C_14
   10  A    between atoms: C_16  and  C_17
                            x       y       z     vdW  Elec       q    Type
                         _______ _______ _______ _____ _____    ______ ____

>  <TORSDO>
F 10

$$$$
=
 OpenBabel07192307433D

 51 54  0  0  0  0  0  0  0  0999 V2000
    1.2120    8.2520   20.0740 N   0  0  0  0  0  0  0  0  0  0  0  0
    1.5200    9.0810   18.9880 C   0  0  0  0  0  0  0  0  0  0  0  0
    2.3600    8.7920   18.0420 N   0  0  0  0  0  0  0  0  0  0  0  0
    2.9580    7.5850   18.1520 C   0  0  0  0  0  0  0  0  0  0  0  0
    4.1140    7.0410   16.9940 S   0  0  0  0  0  0  0  0  0  0  0  0
    4.3030    5.6050   17.8290 C   0  0  0  0  0  0  0  0  0  0  0  0
    3.5280    5.5050   18.9510 C   0  0  0  0  0  0  0  0  0  0  0  0
    2.7390    6.6560   19.1490 C   0  0  0  0  0  0  0  0  0  0  0  0
    1.7880    6.9780   20.1870 C   0  0  0  0  0  0  0  0  0  0  0  0
    1.5180    6.1770   21.0790 O   0  0  0  0  0  0  0  0  0  0  0  0
    3.7400    4.2090   19.6390 C   0  0  0  0  0  0  0  0  0  0  0  0
    5.0300    3.6730   18.9390 C   0  0  0  0  0  0  0  0  0  0  0  0
    5.1500    4.4180   17.5720 C   0  0  0  0  0  0  0  0  0  0  0  0
    2.8970    3.5350   19.4560 H   0  0  0  0  0  0  0  0  0  0  0  0
    3.8920    4.3180   20.7160 H   0  0  0  0  0  0  0  0  0  0  0  0
    5.9010    3.9240   19.5590 H   0  0  0  0  0  0  0  0  0  0  0  0
    5.0150    2.5840   18.8190 H   0  0  0  0  0  0  0  0  0  0  0  0
    6.1900    4.6680   17.3480 H   0  0  0  0  0  0  0  0  0  0  0  0
    4.7340    3.8080   16.7640 H   0  0  0  0  0  0  0  0  0  0  0  0
    0.2370    8.5990   21.1160 C   0  0  0  0  0  0  0  0  0  0  0  0
   -0.5050    9.2900   20.6980 H   0  0  0  0  0  0  0  0  0  0  0  0
   -0.3270    7.7140   21.4220 H   0  0  0  0  0  0  0  0  0  0  0  0
    0.9110    9.2550   22.3240 C   0  0  0  0  0  0  0  0  0  0  0  0
    1.6620    8.5860   22.7560 H   0  0  0  0  0  0  0  0  0  0  0  0
    1.4450   10.1600   22.0090 H   0  0  0  0  0  0  0  0  0  0  0  0
   -0.1040    9.6230   23.3950 C   0  0  0  0  0  0  0  0  0  0  0  0
    0.3780   10.1340   24.2330 H   0  0  0  0  0  0  0  0  0  0  0  0
   -0.8640   10.2940   22.9820 H   0  0  0  0  0  0  0  0  0  0  0  0
   -0.6100    8.7320   23.7790 H   0  0  0  0  0  0  0  0  0  0  0  0
    0.7080   10.6390   18.8940 S   0  0  0  0  0  0  0  0  0  0  0  0
   -0.9420   10.1370   18.3130 C   0  0  0  0  0  0  0  0  0  0  0  0
   -1.4490    9.5910   19.1140 H   0  0  0  0  0  0  0  0  0  0  0  0
   -0.8280    9.4950   17.4320 H   0  0  0  0  0  0  0  0  0  0  0  0
   -1.8050   11.3310   17.9260 C   0  0  0  0  0  0  0  0  0  0  0  0
   -1.7390   11.8910   16.8310 O   0  0  0  0  0  0  0  0  0  0  0  0
   -2.7450   11.8060   18.9460 C   0  0  0  0  0  0  0  0  0  0  0  0
   -2.3500   12.2690   20.1470 N   0  0  0  0  0  0  0  0  0  0  0  0
   -3.5230   12.5820   20.7270 N   0  0  0  0  0  0  0  0  0  0  0  0
   -4.6470   12.3680   20.0210 N   0  0  0  0  0  0  0  0  0  0  0  0
   -4.1620   11.8700   18.8760 C   0  0  0  0  0  0  0  0  0  0  0  0
   -5.0610   11.4790   17.7680 C   0  0  0  0  0  0  0  0  0  0  0  0
   -5.8680   12.2070   17.6310 H   0  0  0  0  0  0  0  0  0  0  0  0
   -5.5190   10.5050   17.9680 H   0  0  0  0  0  0  0  0  0  0  0  0
   -4.5040   11.4150   16.8270 H   0  0  0  0  0  0  0  0  0  0  0  0
   -3.5730   13.1450   22.0610 C   0  0  0  0  0  0  0  0  0  0  0  0
   -4.6260   13.3290   22.3040 H   0  0  0  0  0  0  0  0  0  0  0  0
   -3.0580   14.1110   22.0360 H   0  0  0  0  0  0  0  0  0  0  0  0
   -2.9380   12.2260   23.0900 C   0  0  0  0  0  0  0  0  0  0  0  0
   -3.5050   12.2300   24.0260 H   0  0  0  0  0  0  0  0  0  0  0  0
   -2.9050   11.1990   22.7130 H   0  0  0  0  0  0  0  0  0  0  0  0
   -1.9130   12.5390   23.3180 H   0  0  0  0  0  0  0  0  0  0  0  0
  1  9  1  0  0  0  0
  1 20  1  0  0  0  0
  2  1  1  0  0  0  0
  3  4  1  0  0  0  0
  3  2  2  0  0  0  0
  4  8  2  0  0  0  0
  5  6  1  0  0  0  0
  5  4  1  0  0  0  0
  6  7  2  0  0  0  0
  7  8  1  0  0  0  0
  7 11  1  0  0  0  0
  8  9  1  0  0  0  0
  9 10  2  0  0  0  0
 11 15  1  0  0  0  0
 12 16  1  0  0  0  0
 12 11  1  0  0  0  0
 13  6  1  0  0  0  0
 13 12  1  0  0  0  0
 14 11  1  0  0  0  0
 17 12  1  0  0  0  0
 18 13  1  0  0  0  0
 19 13  1  0  0  0  0
 20 22  1  0  0  0  0
 20 23  1  0  0  0  0
 21 20  1  0  0  0  0
 23 24  1  0  0  0  0
 23 26  1  0  0  0  0
 25 23  1  0  0  0  0
 26 29  1  0  0  0  0
 26 27  1  0  0  0  0
 28 26  1  0  0  0  0
 30  2  1  0  0  0  0
 31 30  1  0  0  0  0
 31 32  1  0  0  0  0
 33 31  1  0  0  0  0
 34 31  1  0  0  0  0
 34 36  1  0  0  0  0
 35 34  2  0  0  0  0
 36 37  2  0  0  0  0
 37 38  1  0  0  0  0
 38 45  1  0  0  0  0
 39 38  1  0  0  0  0
 40 36  1  0  0  0  0
 40 39  2  0  0  0  0
 41 43  1  0  0  0  0
 41 40  1  0  0  0  0
 42 41  1  0  0  0  0
 44 41  1  0  0  0  0
 45 46  1  0  0  0  0
 45 48  1  0  0  0  0
 47 45  1  0  0  0  0
 48 51  1  0  0  0  0
 48 49  1  0  0  0  0
 50 48  1  0  0  0  0
M  END
>  <MODEL>
20

>  <REMARK>
 VINA RESULT:    -6.136      4.281      8.716
 INTER + INTRA:          -9.410
 INTER:                  -8.827
 INTRA:                  -0.584
 UNBOUND:                -0.225
  Name = 
  10 active torsions:
  status: ('A' for Active; 'I' for Inactive)
    1  A    between atoms: C_1  and  C_2
    2  A    between atoms: C_2  and  C_3
    3  A    between atoms: C_3  and  N_4
    4  A    between atoms: C_5  and  S_6
    5  A    between atoms: S_6  and  C_7
    6  A    between atoms: C_7  and  C_8
    7  A    between atoms: C_8  and  C_10
    8  A    between atoms: N_12  and  C_13
    9  A    between atoms: C_13  and  C_14
   10  A    between atoms: C_16  and  C_17
                            x       y       z     vdW  Elec       q    Type
                         _______ _______ _______ _____ _____    ______ ____

>  <TORSDO>
F 10

$$$$
=
 OpenBabel07192307433D

 51 54  0  0  0  0  0  0  0  0999 V2000
    0.7570   10.4720   21.0970 N   0  0  0  0  0  0  0  0  0  0  0  0
    0.9250   11.1050   19.8590 C   0  0  0  0  0  0  0  0  0  0  0  0
    1.3720   10.5330   18.7830 N   0  0  0  0  0  0  0  0  0  0  0  0
    1.6830    9.2250   18.9120 C   0  0  0  0  0  0  0  0  0  0  0  0
    2.3050    8.3100   17.5890 S   0  0  0  0  0  0  0  0  0  0  0  0
    2.3890    6.9430   18.5490 C   0  0  0  0  0  0  0  0  0  0  0  0
    1.9640    7.1370   19.8350 C   0  0  0  0  0  0  0  0  0  0  0  0
    1.5500    8.4660   20.0560 C   0  0  0  0  0  0  0  0  0  0  0  0
    1.0340    9.1040   21.2450 C   0  0  0  0  0  0  0  0  0  0  0  0
    0.8530    8.4730   22.2830 O   0  0  0  0  0  0  0  0  0  0  0  0
    2.0600    5.8880   20.6280 C   0  0  0  0  0  0  0  0  0  0  0  0
    2.9390    4.9810   19.7080 C   0  0  0  0  0  0  0  0  0  0  0  0
    2.8330    5.5610   18.2620 C   0  0  0  0  0  0  0  0  0  0  0  0
    1.0680    5.4450   20.7680 H   0  0  0  0  0  0  0  0  0  0  0  0
    2.5330    6.0380   21.6020 H   0  0  0  0  0  0  0  0  0  0  0  0
    3.9840    5.0440   20.0410 H   0  0  0  0  0  0  0  0  0  0  0  0
    2.6420    3.9280   19.7570 H   0  0  0  0  0  0  0  0  0  0  0  0
    3.7940    5.5120   17.7450 H   0  0  0  0  0  0  0  0  0  0  0  0
    2.0760    5.0190   17.6860 H   0  0  0  0  0  0  0  0  0  0  0  0
    0.2260   11.1410   22.2910 C   0  0  0  0  0  0  0  0  0  0  0  0
    0.9110   10.9730   23.1310 H   0  0  0  0  0  0  0  0  0  0  0  0
    0.2010   12.2240   22.1450 H   0  0  0  0  0  0  0  0  0  0  0  0
   -1.1630   10.6130   22.6630 C   0  0  0  0  0  0  0  0  0  0  0  0
   -1.6450   10.1530   21.7940 H   0  0  0  0  0  0  0  0  0  0  0  0
   -1.0730    9.8260   23.4220 H   0  0  0  0  0  0  0  0  0  0  0  0
   -2.0530   11.7230   23.1990 C   0  0  0  0  0  0  0  0  0  0  0  0
   -1.6590   12.1220   24.1390 H   0  0  0  0  0  0  0  0  0  0  0  0
   -2.1080   12.5450   22.4800 H   0  0  0  0  0  0  0  0  0  0  0  0
   -3.0700   11.3590   23.3780 H   0  0  0  0  0  0  0  0  0  0  0  0
    0.5000   12.8090   19.7480 S   0  0  0  0  0  0  0  0  0  0  0  0
   -0.6300   12.7930   18.3210 C   0  0  0  0  0  0  0  0  0  0  0  0
   -0.1420   12.2760   17.4890 H   0  0  0  0  0  0  0  0  0  0  0  0
   -0.8620   13.8260   18.0410 H   0  0  0  0  0  0  0  0  0  0  0  0
   -1.9380   12.0750   18.6300 C   0  0  0  0  0  0  0  0  0  0  0  0
   -2.3970   11.9590   19.7670 O   0  0  0  0  0  0  0  0  0  0  0  0
   -2.6490   11.5060   17.4810 C   0  0  0  0  0  0  0  0  0  0  0  0
   -2.0220   10.8760   16.4710 N   0  0  0  0  0  0  0  0  0  0  0  0
   -3.0490   10.5320   15.6720 N   0  0  0  0  0  0  0  0  0  0  0  0
   -4.2880   10.8770   16.0630 N   0  0  0  0  0  0  0  0  0  0  0  0
   -4.0450   11.5030   17.2230 C   0  0  0  0  0  0  0  0  0  0  0  0
   -5.1470   12.0680   18.0350 C   0  0  0  0  0  0  0  0  0  0  0  0
   -4.7790   12.8180   18.7430 H   0  0  0  0  0  0  0  0  0  0  0  0
   -5.6450   11.2800   18.6090 H   0  0  0  0  0  0  0  0  0  0  0  0
   -5.8880   12.5510   17.3900 H   0  0  0  0  0  0  0  0  0  0  0  0
   -2.8290    9.8020   14.4400 C   0  0  0  0  0  0  0  0  0  0  0  0
   -2.7290    8.7420   14.6970 H   0  0  0  0  0  0  0  0  0  0  0  0
   -1.8760   10.1390   14.0180 H   0  0  0  0  0  0  0  0  0  0  0  0
   -3.9580   10.0110   13.4470 C   0  0  0  0  0  0  0  0  0  0  0  0
   -4.0010    9.1920   12.7200 H   0  0  0  0  0  0  0  0  0  0  0  0
   -4.9200   10.0560   13.9680 H   0  0  0  0  0  0  0  0  0  0  0  0
   -3.8270   10.9450   12.8910 H   0  0  0  0  0  0  0  0  0  0  0  0
  1  9  1  0  0  0  0
  1 20  1  0  0  0  0
  2  1  1  0  0  0  0
  3  4  1  0  0  0  0
  3  2  2  0  0  0  0
  4  8  2  0  0  0  0
  5  6  1  0  0  0  0
  5  4  1  0  0  0  0
  6  7  2  0  0  0  0
  7  8  1  0  0  0  0
  7 11  1  0  0  0  0
  8  9  1  0  0  0  0
  9 10  2  0  0  0  0
 11 14  1  0  0  0  0
 11 15  1  0  0  0  0
 12 17  1  0  0  0  0
 12 16  1  0  0  0  0
 12 11  1  0  0  0  0
 13  6  1  0  0  0  0
 13 12  1  0  0  0  0
 18 13  1  0  0  0  0
 19 13  1  0  0  0  0
 20 23  1  0  0  0  0
 20 21  1  0  0  0  0
 22 20  1  0  0  0  0
 23 26  1  0  0  0  0
 23 25  1  0  0  0  0
 24 23  1  0  0  0  0
 26 29  1  0  0  0  0
 26 27  1  0  0  0  0
 28 26  1  0  0  0  0
 30  2  1  0  0  0  0
 31 34  1  0  0  0  0
 31 30  1  0  0  0  0
 32 31  1  0  0  0  0
 33 31  1  0  0  0  0
 34 35  2  0  0  0  0
 36 34  1  0  0  0  0
 37 36  2  0  0  0  0
 38 39  1  0  0  0  0
 38 37  1  0  0  0  0
 39 40  2  0  0  0  0
 40 36  1  0  0  0  0
 40 41  1  0  0  0  0
 41 43  1  0  0  0  0
 41 42  1  0  0  0  0
 44 41  1  0  0  0  0
 45 46  1  0  0  0  0
 45 38  1  0  0  0  0
 47 45  1  0  0  0  0
 48 50  1  0  0  0  0
 48 45  1  0  0  0  0
 49 48  1  0  0  0  0
 51 48  1  0  0  0  0
M  END
>  <MODEL>
21

>  <REMARK>
 VINA RESULT:    -6.042      4.484      8.910
 INTER + INTRA:          -9.270
 INTER:                  -8.683
 INTRA:                  -0.587
 UNBOUND:                -0.225
  Name = 
  10 active torsions:
  status: ('A' for Active; 'I' for Inactive)
    1  A    between atoms: C_1  and  C_2
    2  A    between atoms: C_2  and  C_3
    3  A    between atoms: C_3  and  N_4
    4  A    between atoms: C_5  and  S_6
    5  A    between atoms: S_6  and  C_7
    6  A    between atoms: C_7  and  C_8
    7  A    between atoms: C_8  and  C_10
    8  A    between atoms: N_12  and  C_13
    9  A    between atoms: C_13  and  C_14
   10  A    between atoms: C_16  and  C_17
                            x       y       z     vdW  Elec       q    Type
                         _______ _______ _______ _____ _____    ______ ____

>  <TORSDO>
F 10

$$$$
=
 OpenBabel07192307433D

 51 54  0  0  0  0  0  0  0  0999 V2000
    1.6040    8.0380   19.9650 N   0  0  0  0  0  0  0  0  0  0  0  0
    1.4690    8.4690   18.6390 C   0  0  0  0  0  0  0  0  0  0  0  0
    0.8250    9.5310   18.2620 N   0  0  0  0  0  0  0  0  0  0  0  0
    0.2610   10.2480   19.2590 C   0  0  0  0  0  0  0  0  0  0  0  0
   -0.6460   11.6790   18.9390 S   0  0  0  0  0  0  0  0  0  0  0  0
   -0.9320   11.8850   20.5740 C   0  0  0  0  0  0  0  0  0  0  0  0
   -0.3720   10.9200   21.3650 C   0  0  0  0  0  0  0  0  0  0  0  0
    0.3270    9.9600   20.6060 C   0  0  0  0  0  0  0  0  0  0  0  0
    1.0620    8.7870   21.0200 C   0  0  0  0  0  0  0  0  0  0  0  0
    1.1930    8.5000   22.2080 O   0  0  0  0  0  0  0  0  0  0  0  0
   -0.6590   11.1650   22.7980 C   0  0  0  0  0  0  0  0  0  0  0  0
   -1.7810   12.2510   22.7280 C   0  0  0  0  0  0  0  0  0  0  0  0
   -1.6770   12.9230   21.3230 C   0  0  0  0  0  0  0  0  0  0  0  0
    0.2270   11.5620   23.3060 H   0  0  0  0  0  0  0  0  0  0  0  0
   -1.0080   10.2710   23.3210 H   0  0  0  0  0  0  0  0  0  0  0  0
   -2.7580   11.7570   22.8150 H   0  0  0  0  0  0  0  0  0  0  0  0
   -1.7060   12.9780   23.5430 H   0  0  0  0  0  0  0  0  0  0  0  0
   -2.6670   13.1300   20.9090 H   0  0  0  0  0  0  0  0  0  0  0  0
   -1.0990   13.8510   21.3820 H   0  0  0  0  0  0  0  0  0  0  0  0
    2.3600    6.8440   20.3630 C   0  0  0  0  0  0  0  0  0  0  0  0
    3.1660    6.6710   19.6390 H   0  0  0  0  0  0  0  0  0  0  0  0
    2.8580    7.0070   21.3220 H   0  0  0  0  0  0  0  0  0  0  0  0
    1.4650    5.6020   20.4230 C   0  0  0  0  0  0  0  0  0  0  0  0
    0.5110    5.8390   20.9060 H   0  0  0  0  0  0  0  0  0  0  0  0
    1.2250    5.2640   19.4080 H   0  0  0  0  0  0  0  0  0  0  0  0
    2.1390    4.4680   21.1800 C   0  0  0  0  0  0  0  0  0  0  0  0
    3.0420    4.8190   21.6890 H   0  0  0  0  0  0  0  0  0  0  0  0
    1.4610    4.0610   21.9360 H   0  0  0  0  0  0  0  0  0  0  0  0
    2.4190    3.6560   20.5020 H   0  0  0  0  0  0  0  0  0  0  0  0
    2.2290    7.4990   17.3840 S   0  0  0  0  0  0  0  0  0  0  0  0
    3.9900    7.7450   17.7730 C   0  0  0  0  0  0  0  0  0  0  0  0
    4.1160    7.7430   18.8600 H   0  0  0  0  0  0  0  0  0  0  0  0
    4.3150    8.7050   17.3560 H   0  0  0  0  0  0  0  0  0  0  0  0
    4.8690    6.6470   17.1870 C   0  0  0  0  0  0  0  0  0  0  0  0
    5.5950    6.8090   16.2060 O   0  0  0  0  0  0  0  0  0  0  0  0
    4.8080    5.3450   17.8580 C   0  0  0  0  0  0  0  0  0  0  0  0
    3.8740    4.4180   17.5760 N   0  0  0  0  0  0  0  0  0  0  0  0
    4.2080    3.4180   18.4120 N   0  0  0  0  0  0  0  0  0  0  0  0
    5.2710    3.6010   19.2130 N   0  0  0  0  0  0  0  0  0  0  0  0
    5.6660    4.8340   18.8680 C   0  0  0  0  0  0  0  0  0  0  0  0
    6.8380    5.4720   19.5090 C   0  0  0  0  0  0  0  0  0  0  0  0
    7.5400    5.8600   18.7640 H   0  0  0  0  0  0  0  0  0  0  0  0
    7.3760    4.7500   20.1320 H   0  0  0  0  0  0  0  0  0  0  0  0
    6.5210    6.3080   20.1400 H   0  0  0  0  0  0  0  0  0  0  0  0
    3.4560    2.1790   18.4370 C   0  0  0  0  0  0  0  0  0  0  0  0
    3.5550    1.7520   19.4410 H   0  0  0  0  0  0  0  0  0  0  0  0
    3.9270    1.4890   17.7280 H   0  0  0  0  0  0  0  0  0  0  0  0
    1.9950    2.3940   18.0850 C   0  0  0  0  0  0  0  0  0  0  0  0
    1.6890    3.4270   18.2830 H   0  0  0  0  0  0  0  0  0  0  0  0
    1.8240    2.1840   17.0250 H   0  0  0  0  0  0  0  0  0  0  0  0
    1.3470    1.7340   18.6730 H   0  0  0  0  0  0  0  0  0  0  0  0
  1 20  1  0  0  0  0
  1  9  1  0  0  0  0
  2  1  1  0  0  0  0
  3  2  2  0  0  0  0
  3  4  1  0  0  0  0
  4  8  2  0  0  0  0
  5  4  1  0  0  0  0
  5  6  1  0  0  0  0
  6 13  1  0  0  0  0
  6  7  2  0  0  0  0
  7 11  1  0  0  0  0
  8  9  1  0  0  0  0
  8  7  1  0  0  0  0
  9 10  2  0  0  0  0
 11 14  1  0  0  0  0
 11 15  1  0  0  0  0
 12 11  1  0  0  0  0
 12 16  1  0  0  0  0
 12 17  1  0  0  0  0
 13 19  1  0  0  0  0
 13 12  1  0  0  0  0
 18 13  1  0  0  0  0
 20 23  1  0  0  0  0
 20 22  1  0  0  0  0
 21 20  1  0  0  0  0
 23 24  1  0  0  0  0
 23 26  1  0  0  0  0
 25 23  1  0  0  0  0
 26 27  1  0  0  0  0
 26 28  1  0  0  0  0
 29 26  1  0  0  0  0
 30 31  1  0  0  0  0
 30  2  1  0  0  0  0
 31 32  1  0  0  0  0
 33 31  1  0  0  0  0
 34 31  1  0  0  0  0
 34 36  1  0  0  0  0
 35 34  2  0  0  0  0
 36 40  1  0  0  0  0
 37 36  2  0  0  0  0
 37 38  1  0  0  0  0
 38 45  1  0  0  0  0
 38 39  1  0  0  0  0
 40 39  2  0  0  0  0
 40 41  1  0  0  0  0
 41 43  1  0  0  0  0
 41 44  1  0  0  0  0
 42 41  1  0  0  0  0
 45 46  1  0  0  0  0
 47 45  1  0  0  0  0
 48 49  1  0  0  0  0
 48 45  1  0  0  0  0
 48 51  1  0  0  0  0
 50 48  1  0  0  0  0
M  END
>  <MODEL>
22

>  <REMARK>
 VINA RESULT:    -6.030      2.743      4.296
 INTER + INTRA:          -9.251
 INTER:                  -8.481
 INTRA:                  -0.770
 UNBOUND:                -0.225
  Name = 
  10 active torsions:
  status: ('A' for Active; 'I' for Inactive)
    1  A    between atoms: C_1  and  C_2
    2  A    between atoms: C_2  and  C_3
    3  A    between atoms: C_3  and  N_4
    4  A    between atoms: C_5  and  S_6
    5  A    between atoms: S_6  and  C_7
    6  A    between atoms: C_7  and  C_8
    7  A    between atoms: C_8  and  C_10
    8  A    between atoms: N_12  and  C_13
    9  A    between atoms: C_13  and  C_14
   10  A    between atoms: C_16  and  C_17
                            x       y       z     vdW  Elec       q    Type
                         _______ _______ _______ _____ _____    ______ ____

>  <TORSDO>
F 10

$$$$
=
 OpenBabel07192307433D

 51 54  0  0  0  0  0  0  0  0999 V2000
   -1.6380   11.7270   18.6930 N   0  0  0  0  0  0  0  0  0  0  0  0
   -0.4420   11.5200   19.3930 C   0  0  0  0  0  0  0  0  0  0  0  0
   -0.2900   11.6720   20.6720 N   0  0  0  0  0  0  0  0  0  0  0  0
   -1.3990   12.0560   21.3430 C   0  0  0  0  0  0  0  0  0  0  0  0
   -1.3760   12.3220   23.0470 S   0  0  0  0  0  0  0  0  0  0  0  0
   -3.0000   12.7220   23.0240 C   0  0  0  0  0  0  0  0  0  0  0  0
   -3.5720   12.6640   21.7830 C   0  0  0  0  0  0  0  0  0  0  0  0
   -2.6450   12.2760   20.7950 C   0  0  0  0  0  0  0  0  0  0  0  0
   -2.8120   12.0860   19.3730 C   0  0  0  0  0  0  0  0  0  0  0  0
   -3.9060   12.2260   18.8320 O   0  0  0  0  0  0  0  0  0  0  0  0
   -5.0100   13.0240   21.8360 C   0  0  0  0  0  0  0  0  0  0  0  0
   -5.1400   13.6480   23.2630 C   0  0  0  0  0  0  0  0  0  0  0  0
   -3.9330   13.1210   24.1020 C   0  0  0  0  0  0  0  0  0  0  0  0
   -5.6340   12.1290   21.7500 H   0  0  0  0  0  0  0  0  0  0  0  0
   -5.2970   13.7430   21.0640 H   0  0  0  0  0  0  0  0  0  0  0  0
   -5.0680   14.7400   23.1810 H   0  0  0  0  0  0  0  0  0  0  0  0
   -6.1030   13.4170   23.7300 H   0  0  0  0  0  0  0  0  0  0  0  0
   -3.5340   13.9030   24.7530 H   0  0  0  0  0  0  0  0  0  0  0  0
   -4.2310   12.2550   24.7020 H   0  0  0  0  0  0  0  0  0  0  0  0
   -1.7840   11.5230   17.2460 C   0  0  0  0  0  0  0  0  0  0  0  0
   -2.4820   12.2690   16.8470 H   0  0  0  0  0  0  0  0  0  0  0  0
   -0.8360   11.7060   16.7350 H   0  0  0  0  0  0  0  0  0  0  0  0
   -2.3100   10.1210   16.9240 C   0  0  0  0  0  0  0  0  0  0  0  0
   -1.5090    9.3800   17.0130 H   0  0  0  0  0  0  0  0  0  0  0  0
   -3.0820    9.8350   17.6480 H   0  0  0  0  0  0  0  0  0  0  0  0
   -2.8950   10.0560   15.5210 C   0  0  0  0  0  0  0  0  0  0  0  0
   -3.9760   10.2180   15.5400 H   0  0  0  0  0  0  0  0  0  0  0  0
   -2.4490   10.8300   14.8890 H   0  0  0  0  0  0  0  0  0  0  0  0
   -2.6990    9.0850   15.0580 H   0  0  0  0  0  0  0  0  0  0  0  0
    0.9670   11.0150   18.4680 S   0  0  0  0  0  0  0  0  0  0  0  0
    0.7000    9.2160   18.3830 C   0  0  0  0  0  0  0  0  0  0  0  0
    0.9550    8.8680   17.3770 H   0  0  0  0  0  0  0  0  0  0  0  0
   -0.3510    9.0020   18.6030 H   0  0  0  0  0  0  0  0  0  0  0  0
    1.5630    8.4580   19.3840 C   0  0  0  0  0  0  0  0  0  0  0  0
    1.5250    8.6550   20.5990 O   0  0  0  0  0  0  0  0  0  0  0  0
    2.4720    7.4550   18.8240 C   0  0  0  0  0  0  0  0  0  0  0  0
    3.3170    7.7170   17.8090 N   0  0  0  0  0  0  0  0  0  0  0  0
    3.9330    6.5330   17.6420 N   0  0  0  0  0  0  0  0  0  0  0  0
    3.5730    5.5200   18.4490 N   0  0  0  0  0  0  0  0  0  0  0  0
    2.6350    6.0990   19.2130 C   0  0  0  0  0  0  0  0  0  0  0  0
    1.9380    5.3420   20.2770 C   0  0  0  0  0  0  0  0  0  0  0  0
    2.3390    4.3270   20.3750 H   0  0  0  0  0  0  0  0  0  0  0  0
    0.8690    5.2590   20.0540 H   0  0  0  0  0  0  0  0  0  0  0  0
    2.0550    5.8430   21.2430 H   0  0  0  0  0  0  0  0  0  0  0  0
    4.9610    6.3580   16.6360 C   0  0  0  0  0  0  0  0  0  0  0  0
    4.7310    7.0350   15.8060 H   0  0  0  0  0  0  0  0  0  0  0  0
    4.8910    5.3300   16.2620 H   0  0  0  0  0  0  0  0  0  0  0  0
    6.3480    6.6330   17.1870 C   0  0  0  0  0  0  0  0  0  0  0  0
    6.3480    6.6200   18.2820 H   0  0  0  0  0  0  0  0  0  0  0  0
    7.0540    5.8730   16.8370 H   0  0  0  0  0  0  0  0  0  0  0  0
    6.7140    7.6130   16.8640 H   0  0  0  0  0  0  0  0  0  0  0  0
  1  9  1  0  0  0  0
  1  2  1  0  0  0  0
  2  3  2  0  0  0  0
  3  4  1  0  0  0  0
  4  5  1  0  0  0  0
  6  5  1  0  0  0  0
  6 13  1  0  0  0  0
  7 11  1  0  0  0  0
  7  6  2  0  0  0  0
  8  4  2  0  0  0  0
  8  7  1  0  0  0  0
  9  8  1  0  0  0  0
 10  9  2  0  0  0  0
 11 12  1  0  0  0  0
 12 17  1  0  0  0  0
 12 13  1  0  0  0  0
 13 19  1  0  0  0  0
 13 18  1  0  0  0  0
 14 11  1  0  0  0  0
 15 11  1  0  0  0  0
 16 12  1  0  0  0  0
 20  1  1  0  0  0  0
 21 20  1  0  0  0  0
 22 20  1  0  0  0  0
 23 24  1  0  0  0  0
 23 20  1  0  0  0  0
 23 25  1  0  0  0  0
 26 27  1  0  0  0  0
 26 23  1  0  0  0  0
 28 26  1  0  0  0  0
 29 26  1  0  0  0  0
 30  2  1  0  0  0  0
 31 30  1  0  0  0  0
 31 33  1  0  0  0  0
 31 34  1  0  0  0  0
 32 31  1  0  0  0  0
 34 35  2  0  0  0  0
 36 40  1  0  0  0  0
 36 34  1  0  0  0  0
 37 36  2  0  0  0  0
 38 37  1  0  0  0  0
 38 39  1  0  0  0  0
 39 40  2  0  0  0  0
 40 41  1  0  0  0  0
 41 42  1  0  0  0  0
 41 44  1  0  0  0  0
 43 41  1  0  0  0  0
 45 48  1  0  0  0  0
 45 38  1  0  0  0  0
 46 45  1  0  0  0  0
 47 45  1  0  0  0  0
 48 49  1  0  0  0  0
 50 48  1  0  0  0  0
 51 48  1  0  0  0  0
M  END
>  <MODEL>
23

>  <REMARK>
 VINA RESULT:    -6.027      4.244      6.960
 INTER + INTRA:          -9.247
 INTER:                  -8.737
 INTRA:                  -0.510
 UNBOUND:                -0.225
  Name = 
  10 active torsions:
  status: ('A' for Active; 'I' for Inactive)
    1  A    between atoms: C_1  and  C_2
    2  A    between atoms: C_2  and  C_3
    3  A    between atoms: C_3  and  N_4
    4  A    between atoms: C_5  and  S_6
    5  A    between atoms: S_6  and  C_7
    6  A    between atoms: C_7  and  C_8
    7  A    between atoms: C_8  and  C_10
    8  A    between atoms: N_12  and  C_13
    9  A    between atoms: C_13  and  C_14
   10  A    between atoms: C_16  and  C_17
                            x       y       z     vdW  Elec       q    Type
                         _______ _______ _______ _____ _____    ______ ____

>  <TORSDO>
F 10

$$$$
=
 OpenBabel07192307433D

 51 54  0  0  0  0  0  0  0  0999 V2000
    0.7440    9.6580   19.2720 N   0  0  0  0  0  0  0  0  0  0  0  0
    1.1140    8.7400   20.2630 C   0  0  0  0  0  0  0  0  0  0  0  0
    0.7170    8.7740   21.4980 N   0  0  0  0  0  0  0  0  0  0  0  0
   -0.1210    9.7890   21.8060 C   0  0  0  0  0  0  0  0  0  0  0  0
   -0.7350    9.9980   23.4040 S   0  0  0  0  0  0  0  0  0  0  0  0
   -1.5960   11.3470   22.9160 C   0  0  0  0  0  0  0  0  0  0  0  0
   -1.4470   11.6550   21.5920 C   0  0  0  0  0  0  0  0  0  0  0  0
   -0.5880   10.7510   20.9350 C   0  0  0  0  0  0  0  0  0  0  0  0
   -0.1570   10.6950   19.5580 C   0  0  0  0  0  0  0  0  0  0  0  0
   -0.5700   11.4980   18.7240 O   0  0  0  0  0  0  0  0  0  0  0  0
   -2.2380   12.8540   21.2260 C   0  0  0  0  0  0  0  0  0  0  0  0
   -2.6240   13.4330   22.6250 C   0  0  0  0  0  0  0  0  0  0  0  0
   -2.4930   12.2650   23.6530 C   0  0  0  0  0  0  0  0  0  0  0  0
   -3.1360   12.5670   20.6700 H   0  0  0  0  0  0  0  0  0  0  0  0
   -1.6650   13.5810   20.6430 H   0  0  0  0  0  0  0  0  0  0  0  0
   -1.9090   14.2230   22.8920 H   0  0  0  0  0  0  0  0  0  0  0  0
   -3.6230   13.8800   22.6290 H   0  0  0  0  0  0  0  0  0  0  0  0
   -2.0730   12.6160   24.5990 H   0  0  0  0  0  0  0  0  0  0  0  0
   -3.4680   11.7990   23.8310 H   0  0  0  0  0  0  0  0  0  0  0  0
    1.1920    9.5780   17.8760 C   0  0  0  0  0  0  0  0  0  0  0  0
    1.2180    8.5260   17.5670 H   0  0  0  0  0  0  0  0  0  0  0  0
    0.4680   10.0600   17.2130 H   0  0  0  0  0  0  0  0  0  0  0  0
    2.5840   10.1900   17.6930 C   0  0  0  0  0  0  0  0  0  0  0  0
    3.2870    9.7690   18.4190 H   0  0  0  0  0  0  0  0  0  0  0  0
    2.9740    9.9410   16.6990 H   0  0  0  0  0  0  0  0  0  0  0  0
    2.5500   11.7030   17.8500 C   0  0  0  0  0  0  0  0  0  0  0  0
    2.9330   12.0030   18.8300 H   0  0  0  0  0  0  0  0  0  0  0  0
    3.1720   12.1770   17.0850 H   0  0  0  0  0  0  0  0  0  0  0  0
    1.5310   12.0860   17.7460 H   0  0  0  0  0  0  0  0  0  0  0  0
    2.2040    7.4370   19.8030 S   0  0  0  0  0  0  0  0  0  0  0  0
    1.5150    6.0530   20.7630 C   0  0  0  0  0  0  0  0  0  0  0  0
    0.5240    5.8070   20.3690 H   0  0  0  0  0  0  0  0  0  0  0  0
    1.4400    6.3520   21.8150 H   0  0  0  0  0  0  0  0  0  0  0  0
    2.3860    4.8050   20.6820 C   0  0  0  0  0  0  0  0  0  0  0  0
    2.3980    3.9280   21.5450 O   0  0  0  0  0  0  0  0  0  0  0  0
    3.2400    4.6910   19.4960 C   0  0  0  0  0  0  0  0  0  0  0  0
    4.5680    4.9090   19.5270 N   0  0  0  0  0  0  0  0  0  0  0  0
    4.9190    4.6920   18.2450 N   0  0  0  0  0  0  0  0  0  0  0  0
    3.9480    4.3530   17.3800 N   0  0  0  0  0  0  0  0  0  0  0  0
    2.8650    4.3500   18.1700 C   0  0  0  0  0  0  0  0  0  0  0  0
    1.5260    4.0200   17.6330 C   0  0  0  0  0  0  0  0  0  0  0  0
    1.0230    3.2650   18.2460 H   0  0  0  0  0  0  0  0  0  0  0  0
    1.6050    3.6270   16.6150 H   0  0  0  0  0  0  0  0  0  0  0  0
    0.8910    4.9120   17.6130 H   0  0  0  0  0  0  0  0  0  0  0  0
    6.2980    4.8050   17.8160 C   0  0  0  0  0  0  0  0  0  0  0  0
    6.3000    5.2880   16.8320 H   0  0  0  0  0  0  0  0  0  0  0  0
    6.6940    3.7910   17.6950 H   0  0  0  0  0  0  0  0  0  0  0  0
    7.1380    5.5940   18.8040 C   0  0  0  0  0  0  0  0  0  0  0  0
    7.3120    5.0200   19.7200 H   0  0  0  0  0  0  0  0  0  0  0  0
    8.1100    5.8400   18.3650 H   0  0  0  0  0  0  0  0  0  0  0  0
    6.6430    6.5300   19.0840 H   0  0  0  0  0  0  0  0  0  0  0  0
  1  9  1  0  0  0  0
  1  2  1  0  0  0  0
  2  3  2  0  0  0  0
  3  4  1  0  0  0  0
  4  5  1  0  0  0  0
  6  5  1  0  0  0  0
  6 13  1  0  0  0  0
  7  6  2  0  0  0  0
  8  7  1  0  0  0  0
  8  4  2  0  0  0  0
  9  8  1  0  0  0  0
 10  9  2  0  0  0  0
 11  7  1  0  0  0  0
 11 12  1  0  0  0  0
 12 17  1  0  0  0  0
 12 16  1  0  0  0  0
 12 13  1  0  0  0  0
 13 19  1  0  0  0  0
 13 18  1  0  0  0  0
 14 11  1  0  0  0  0
 15 11  1  0  0  0  0
 20  1  1  0  0  0  0
 21 20  1  0  0  0  0
 22 20  1  0  0  0  0
 23 26  1  0  0  0  0
 23 20  1  0  0  0  0
 23 24  1  0  0  0  0
 25 23  1  0  0  0  0
 26 27  1  0  0  0  0
 28 26  1  0  0  0  0
 29 26  1  0  0  0  0
 30  2  1  0  0  0  0
 30 31  1  0  0  0  0
 31 33  1  0  0  0  0
 32 31  1  0  0  0  0
 34 31  1  0  0  0  0
 34 35  2  0  0  0  0
 36 37  2  0  0  0  0
 36 34  1  0  0  0  0
 38 37  1  0  0  0  0
 39 40  2  0  0  0  0
 39 38  1  0  0  0  0
 40 36  1  0  0  0  0
 41 40  1  0  0  0  0
 41 42  1  0  0  0  0
 43 41  1  0  0  0  0
 44 41  1  0  0  0  0
 45 38  1  0  0  0  0
 45 48  1  0  0  0  0
 46 45  1  0  0  0  0
 47 45  1  0  0  0  0
 48 51  1  0  0  0  0
 48 49  1  0  0  0  0
 50 48  1  0  0  0  0
M  END
>  <MODEL>
24

>  <REMARK>
 VINA RESULT:    -5.957      2.959      5.717
 INTER + INTRA:          -9.142
 INTER:                  -8.807
 INTRA:                  -0.335
 UNBOUND:                -0.225
  Name = 
  10 active torsions:
  status: ('A' for Active; 'I' for Inactive)
    1  A    between atoms: C_1  and  C_2
    2  A    between atoms: C_2  and  C_3
    3  A    between atoms: C_3  and  N_4
    4  A    between atoms: C_5  and  S_6
    5  A    between atoms: S_6  and  C_7
    6  A    between atoms: C_7  and  C_8
    7  A    between atoms: C_8  and  C_10
    8  A    between atoms: N_12  and  C_13
    9  A    between atoms: C_13  and  C_14
   10  A    between atoms: C_16  and  C_17
                            x       y       z     vdW  Elec       q    Type
                         _______ _______ _______ _____ _____    ______ ____

>  <TORSDO>
F 10

$$$$
=
 OpenBabel07192307433D

 51 54  0  0  0  0  0  0  0  0999 V2000
    1.6170    9.0500   18.8300 N   0  0  0  0  0  0  0  0  0  0  0  0
    1.2250    8.8780   20.1630 C   0  0  0  0  0  0  0  0  0  0  0  0
    1.4020    7.7980   20.8600 N   0  0  0  0  0  0  0  0  0  0  0  0
    2.0200    6.7870   20.2090 C   0  0  0  0  0  0  0  0  0  0  0  0
    2.3230    5.2720   20.9760 S   0  0  0  0  0  0  0  0  0  0  0  0
    3.0460    4.6920   19.5840 C   0  0  0  0  0  0  0  0  0  0  0  0
    3.0760    5.5910   18.5540 C   0  0  0  0  0  0  0  0  0  0  0  0
    2.4790    6.8180   18.9090 C   0  0  0  0  0  0  0  0  0  0  0  0
    2.2960    8.0300   18.1460 C   0  0  0  0  0  0  0  0  0  0  0  0
    2.7210    8.1350   16.9980 O   0  0  0  0  0  0  0  0  0  0  0  0
    3.7340    5.0160   17.3560 C   0  0  0  0  0  0  0  0  0  0  0  0
    3.7920    3.4950   17.7110 C   0  0  0  0  0  0  0  0  0  0  0  0
    3.6640    3.3860   19.2640 C   0  0  0  0  0  0  0  0  0  0  0  0
    4.7440    5.4210   17.2390 H   0  0  0  0  0  0  0  0  0  0  0  0
    3.1650    5.1840   16.4370 H   0  0  0  0  0  0  0  0  0  0  0  0
    2.9350    2.9880   17.2470 H   0  0  0  0  0  0  0  0  0  0  0  0
    4.7010    3.0160   17.3340 H   0  0  0  0  0  0  0  0  0  0  0  0
    3.0460    2.5310   19.5500 H   0  0  0  0  0  0  0  0  0  0  0  0
    4.6530    3.2980   19.7250 H   0  0  0  0  0  0  0  0  0  0  0  0
    1.4240   10.2950   18.0750 C   0  0  0  0  0  0  0  0  0  0  0  0
    1.2260   10.0510   17.0240 H   0  0  0  0  0  0  0  0  0  0  0  0
    0.5340   10.8230   18.4270 H   0  0  0  0  0  0  0  0  0  0  0  0
    2.6570   11.2010   18.1560 C   0  0  0  0  0  0  0  0  0  0  0  0
    3.3090   10.8900   18.9780 H   0  0  0  0  0  0  0  0  0  0  0  0
    3.2480   11.1100   17.2370 H   0  0  0  0  0  0  0  0  0  0  0  0
    2.2630   12.6570   18.3530 C   0  0  0  0  0  0  0  0  0  0  0  0
    1.1860   12.7530   18.5130 H   0  0  0  0  0  0  0  0  0  0  0  0
    2.7730   13.0710   19.2280 H   0  0  0  0  0  0  0  0  0  0  0  0
    2.5380   13.2590   17.4830 H   0  0  0  0  0  0  0  0  0  0  0  0
    0.4300   10.2300   20.9610 S   0  0  0  0  0  0  0  0  0  0  0  0
   -1.2040   10.1940   20.1590 C   0  0  0  0  0  0  0  0  0  0  0  0
   -1.9640    9.9690   20.9140 H   0  0  0  0  0  0  0  0  0  0  0  0
   -1.2020    9.4210   19.3820 H   0  0  0  0  0  0  0  0  0  0  0  0
   -1.5560   11.5260   19.5080 C   0  0  0  0  0  0  0  0  0  0  0  0
   -0.9950   12.5860   19.7850 O   0  0  0  0  0  0  0  0  0  0  0  0
   -2.6280   11.4930   18.5090 C   0  0  0  0  0  0  0  0  0  0  0  0
   -2.4440   11.0480   17.2520 N   0  0  0  0  0  0  0  0  0  0  0  0
   -3.6700   11.1990   16.7170 N   0  0  0  0  0  0  0  0  0  0  0  0
   -4.6380   11.7010   17.5040 N   0  0  0  0  0  0  0  0  0  0  0  0
   -3.9820   11.8940   18.6560 C   0  0  0  0  0  0  0  0  0  0  0  0
   -4.6680   12.4470   19.8450 C   0  0  0  0  0  0  0  0  0  0  0  0
   -5.7300   12.6260   19.6480 H   0  0  0  0  0  0  0  0  0  0  0  0
   -4.2170   13.3990   20.1430 H   0  0  0  0  0  0  0  0  0  0  0  0
   -4.5970   11.7510   20.6870 H   0  0  0  0  0  0  0  0  0  0  0  0
   -3.9420   10.8210   15.3450 C   0  0  0  0  0  0  0  0  0  0  0  0
   -4.0990   11.7420   14.7730 H   0  0  0  0  0  0  0  0  0  0  0  0
   -4.8780   10.2520   15.3350 H   0  0  0  0  0  0  0  0  0  0  0  0
   -2.8120   10.0030   14.7470 C   0  0  0  0  0  0  0  0  0  0  0  0
   -3.1280    8.9710   14.5580 H   0  0  0  0  0  0  0  0  0  0  0  0
   -2.4870   10.4400   13.7970 H   0  0  0  0  0  0  0  0  0  0  0  0
   -1.9490    9.9700   15.4200 H   0  0  0  0  0  0  0  0  0  0  0  0
  1  2  1  0  0  0  0
  2  3  2  0  0  0  0
  2 30  1  0  0  0  0
  4  3  1  0  0  0  0
  4  5  1  0  0  0  0
  6  5  1  0  0  0  0
  7  8  1  0  0  0  0
  7  6  2  0  0  0  0
  8  4  2  0  0  0  0
  9  1  1  0  0  0  0
  9  8  1  0  0  0  0
 10  9  2  0  0  0  0
 11 12  1  0  0  0  0
 11  7  1  0  0  0  0
 12 13  1  0  0  0  0
 13 18  1  0  0  0  0
 13  6  1  0  0  0  0
 13 19  1  0  0  0  0
 14 11  1  0  0  0  0
 15 11  1  0  0  0  0
 16 12  1  0  0  0  0
 17 12  1  0  0  0  0
 20 23  1  0  0  0  0
 20 22  1  0  0  0  0
 20  1  1  0  0  0  0
 21 20  1  0  0  0  0
 23 26  1  0  0  0  0
 23 24  1  0  0  0  0
 25 23  1  0  0  0  0
 26 27  1  0  0  0  0
 26 28  1  0  0  0  0
 29 26  1  0  0  0  0
 31 32  1  0  0  0  0
 31 30  1  0  0  0  0
 33 31  1  0  0  0  0
 34 35  2  0  0  0  0
 34 31  1  0  0  0  0
 36 40  1  0  0  0  0
 36 34  1  0  0  0  0
 37 36  2  0  0  0  0
 38 37  1  0  0  0  0
 38 39  1  0  0  0  0
 39 40  2  0  0  0  0
 40 41  1  0  0  0  0
 41 43  1  0  0  0  0
 41 44  1  0  0  0  0
 42 41  1  0  0  0  0
 45 38  1  0  0  0  0
 46 45  1  0  0  0  0
 47 45  1  0  0  0  0
 48 45  1  0  0  0  0
 48 51  1  0  0  0  0
 49 48  1  0  0  0  0
 50 48  1  0  0  0  0
M  END
>  <MODEL>
25

>  <REMARK>
 VINA RESULT:    -5.876      4.380      8.945
 INTER + INTRA:          -9.021
 INTER:                  -8.391
 INTRA:                  -0.630
 UNBOUND:                -0.225
  Name = 
  10 active torsions:
  status: ('A' for Active; 'I' for Inactive)
    1  A    between atoms: C_1  and  C_2
    2  A    between atoms: C_2  and  C_3
    3  A    between atoms: C_3  and  N_4
    4  A    between atoms: C_5  and  S_6
    5  A    between atoms: S_6  and  C_7
    6  A    between atoms: C_7  and  C_8
    7  A    between atoms: C_8  and  C_10
    8  A    between atoms: N_12  and  C_13
    9  A    between atoms: C_13  and  C_14
   10  A    between atoms: C_16  and  C_17
                            x       y       z     vdW  Elec       q    Type
                         _______ _______ _______ _____ _____    ______ ____

>  <TORSDO>
F 10

$$$$
=
 OpenBabel07192307433D

 51 54  0  0  0  0  0  0  0  0999 V2000
    2.0720    7.3400   20.0220 N   0  0  0  0  0  0  0  0  0  0  0  0
    2.4430    7.8120   18.7560 C   0  0  0  0  0  0  0  0  0  0  0  0
    2.8850    7.0750   17.7850 N   0  0  0  0  0  0  0  0  0  0  0  0
    2.9750    5.7540   18.0580 C   0  0  0  0  0  0  0  0  0  0  0  0
    3.5580    4.6290   16.8880 S   0  0  0  0  0  0  0  0  0  0  0  0
    3.3450    3.3690   17.9680 C   0  0  0  0  0  0  0  0  0  0  0  0
    2.8480    3.7530   19.1830 C   0  0  0  0  0  0  0  0  0  0  0  0
    2.6290    5.1440   19.2450 C   0  0  0  0  0  0  0  0  0  0  0  0
    2.1180    5.9690   20.3160 C   0  0  0  0  0  0  0  0  0  0  0  0
    1.7530    5.4800   21.3820 O   0  0  0  0  0  0  0  0  0  0  0  0
    2.6780    2.5900   20.0870 C   0  0  0  0  0  0  0  0  0  0  0  0
    3.4810    1.4750   19.3420 C   0  0  0  0  0  0  0  0  0  0  0  0
    3.5900    1.9140   17.8480 C   0  0  0  0  0  0  0  0  0  0  0  0
    1.6220    2.3150   20.1650 H   0  0  0  0  0  0  0  0  0  0  0  0
    3.0840    2.7670   21.0870 H   0  0  0  0  0  0  0  0  0  0  0  0
    4.4900    1.4170   19.7710 H   0  0  0  0  0  0  0  0  0  0  0  0
    3.0190    0.4880   19.4530 H   0  0  0  0  0  0  0  0  0  0  0  0
    4.5730    1.6720   17.4360 H   0  0  0  0  0  0  0  0  0  0  0  0
    2.8100    1.4350   17.2480 H   0  0  0  0  0  0  0  0  0  0  0  0
    1.5520    8.1970   21.0940 C   0  0  0  0  0  0  0  0  0  0  0  0
    1.9860    7.8800   22.0500 H   0  0  0  0  0  0  0  0  0  0  0  0
    1.8790    9.2310   20.9520 H   0  0  0  0  0  0  0  0  0  0  0  0
    0.0250    8.1220   21.1870 C   0  0  0  0  0  0  0  0  0  0  0  0
   -0.4320    8.4130   20.2350 H   0  0  0  0  0  0  0  0  0  0  0  0
   -0.2880    7.0880   21.3800 H   0  0  0  0  0  0  0  0  0  0  0  0
   -0.5090    9.0190   22.2920 C   0  0  0  0  0  0  0  0  0  0  0  0
    0.1220    9.9040   22.4170 H   0  0  0  0  0  0  0  0  0  0  0  0
   -1.5210    9.3580   22.0490 H   0  0  0  0  0  0  0  0  0  0  0  0
   -0.5490    8.4860   23.2460 H   0  0  0  0  0  0  0  0  0  0  0  0
    2.3000    9.5400   18.4560 S   0  0  0  0  0  0  0  0  0  0  0  0
    0.5740    9.6520   17.8880 C   0  0  0  0  0  0  0  0  0  0  0  0
    0.0800    8.6910   18.0640 H   0  0  0  0  0  0  0  0  0  0  0  0
    0.5670    9.8920   16.8190 H   0  0  0  0  0  0  0  0  0  0  0  0
   -0.2060   10.7330   18.6270 C   0  0  0  0  0  0  0  0  0  0  0  0
    0.2380   11.3470   19.5960 O   0  0  0  0  0  0  0  0  0  0  0  0
   -1.5530   11.0160   18.1210 C   0  0  0  0  0  0  0  0  0  0  0  0
   -1.9820   10.6090   16.9120 N   0  0  0  0  0  0  0  0  0  0  0  0
   -3.2410   11.0840   16.8860 N   0  0  0  0  0  0  0  0  0  0  0  0
   -3.6760   11.7620   17.9620 N   0  0  0  0  0  0  0  0  0  0  0  0
   -2.6020   11.7260   18.7620 C   0  0  0  0  0  0  0  0  0  0  0  0
   -2.6190   12.3640   20.0980 C   0  0  0  0  0  0  0  0  0  0  0  0
   -2.3220   11.6600   20.8820 H   0  0  0  0  0  0  0  0  0  0  0  0
   -3.6230   12.7290   20.3380 H   0  0  0  0  0  0  0  0  0  0  0  0
   -1.9260   13.2110   20.1270 H   0  0  0  0  0  0  0  0  0  0  0  0
   -4.1040   10.8590   15.7440 C   0  0  0  0  0  0  0  0  0  0  0  0
   -4.4810   11.8340   15.4170 H   0  0  0  0  0  0  0  0  0  0  0  0
   -4.9580   10.2620   16.0830 H   0  0  0  0  0  0  0  0  0  0  0  0
   -3.3760   10.1570   14.6120 C   0  0  0  0  0  0  0  0  0  0  0  0
   -2.5090   10.7380   14.2800 H   0  0  0  0  0  0  0  0  0  0  0  0
   -3.0230    9.1730   14.9380 H   0  0  0  0  0  0  0  0  0  0  0  0
   -4.0340   10.0150   13.7480 H   0  0  0  0  0  0  0  0  0  0  0  0
  1  9  1  0  0  0  0
  1 20  1  0  0  0  0
  2  1  1  0  0  0  0
  3  4  1  0  0  0  0
  3  2  2  0  0  0  0
  4  8  2  0  0  0  0
  5  6  1  0  0  0  0
  5  4  1  0  0  0  0
  6  7  2  0  0  0  0
  7  8  1  0  0  0  0
  7 11  1  0  0  0  0
  8  9  1  0  0  0  0
  9 10  2  0  0  0  0
 11 14  1  0  0  0  0
 11 15  1  0  0  0  0
 12 17  1  0  0  0  0
 12 16  1  0  0  0  0
 12 11  1  0  0  0  0
 13  6  1  0  0  0  0
 13 12  1  0  0  0  0
 18 13  1  0  0  0  0
 19 13  1  0  0  0  0
 20 23  1  0  0  0  0
 20 21  1  0  0  0  0
 22 20  1  0  0  0  0
 23 25  1  0  0  0  0
 23 26  1  0  0  0  0
 24 23  1  0  0  0  0
 26 27  1  0  0  0  0
 26 29  1  0  0  0  0
 28 26  1  0  0  0  0
 30  2  1  0  0  0  0
 31 32  1  0  0  0  0
 31 30  1  0  0  0  0
 31 34  1  0  0  0  0
 33 31  1  0  0  0  0
 34 35  2  0  0  0  0
 36 34  1  0  0  0  0
 36 40  1  0  0  0  0
 37 36  2  0  0  0  0
 38 37  1  0  0  0  0
 38 39  1  0  0  0  0
 39 40  2  0  0  0  0
 40 41  1  0  0  0  0
 41 44  1  0  0  0  0
 41 43  1  0  0  0  0
 41 42  1  0  0  0  0
 45 47  1  0  0  0  0
 45 38  1  0  0  0  0
 46 45  1  0  0  0  0
 48 50  1  0  0  0  0
 48 45  1  0  0  0  0
 49 48  1  0  0  0  0
 51 48  1  0  0  0  0
M  END
>  <MODEL>
26

>  <REMARK>
 VINA RESULT:    -5.867      3.668      8.124
 INTER + INTRA:          -9.008
 INTER:                  -8.519
 INTRA:                  -0.489
 UNBOUND:                -0.225
  Name = 
  10 active torsions:
  status: ('A' for Active; 'I' for Inactive)
    1  A    between atoms: C_1  and  C_2
    2  A    between atoms: C_2  and  C_3
    3  A    between atoms: C_3  and  N_4
    4  A    between atoms: C_5  and  S_6
    5  A    between atoms: S_6  and  C_7
    6  A    between atoms: C_7  and  C_8
    7  A    between atoms: C_8  and  C_10
    8  A    between atoms: N_12  and  C_13
    9  A    between atoms: C_13  and  C_14
   10  A    between atoms: C_16  and  C_17
                            x       y       z     vdW  Elec       q    Type
                         _______ _______ _______ _____ _____    ______ ____

>  <TORSDO>
F 10

$$$$
=
 OpenBabel07192307433D

 51 54  0  0  0  0  0  0  0  0999 V2000
    0.8360   11.4830   19.4540 N   0  0  0  0  0  0  0  0  0  0  0  0
    0.8520   10.4440   18.5150 C   0  0  0  0  0  0  0  0  0  0  0  0
   -0.1940    9.9690   17.9100 N   0  0  0  0  0  0  0  0  0  0  0  0
   -1.3660   10.5560   18.2390 C   0  0  0  0  0  0  0  0  0  0  0  0
   -2.8580   10.0420   17.5430 S   0  0  0  0  0  0  0  0  0  0  0  0
   -3.6870   11.1970   18.4240 C   0  0  0  0  0  0  0  0  0  0  0  0
   -2.8900   11.9660   19.2270 C   0  0  0  0  0  0  0  0  0  0  0  0
   -1.5330   11.5990   19.1250 C   0  0  0  0  0  0  0  0  0  0  0  0
   -0.3630   12.1350   19.7810 C   0  0  0  0  0  0  0  0  0  0  0  0
   -0.4400   13.0910   20.5490 O   0  0  0  0  0  0  0  0  0  0  0  0
   -3.6860   12.9700   19.9730 C   0  0  0  0  0  0  0  0  0  0  0  0
   -5.1470   12.4590   19.7550 C   0  0  0  0  0  0  0  0  0  0  0  0
   -5.1250   11.5430   18.4910 C   0  0  0  0  0  0  0  0  0  0  0  0
   -3.5590   13.9650   19.5350 H   0  0  0  0  0  0  0  0  0  0  0  0
   -3.4360   13.0050   21.0370 H   0  0  0  0  0  0  0  0  0  0  0  0
   -5.4470   11.8590   20.6240 H   0  0  0  0  0  0  0  0  0  0  0  0
   -5.8640   13.2810   19.6610 H   0  0  0  0  0  0  0  0  0  0  0  0
   -5.7750   10.6750   18.6210 H   0  0  0  0  0  0  0  0  0  0  0  0
   -5.4320   12.1060   17.6030 H   0  0  0  0  0  0  0  0  0  0  0  0
    2.0400   12.0150   20.1040 C   0  0  0  0  0  0  0  0  0  0  0  0
    1.8890   12.0210   21.1910 H   0  0  0  0  0  0  0  0  0  0  0  0
    2.8940   11.3540   19.9320 H   0  0  0  0  0  0  0  0  0  0  0  0
    2.3550   13.4380   19.6340 C   0  0  0  0  0  0  0  0  0  0  0  0
    1.4870   14.0910   19.7770 H   0  0  0  0  0  0  0  0  0  0  0  0
    3.1670   13.8610   20.2380 H   0  0  0  0  0  0  0  0  0  0  0  0
    2.7600   13.4620   18.1680 C   0  0  0  0  0  0  0  0  0  0  0  0
    3.7460   13.9190   18.0420 H   0  0  0  0  0  0  0  0  0  0  0  0
    2.8070   12.4430   17.7720 H   0  0  0  0  0  0  0  0  0  0  0  0
    2.0390   14.0260   17.5700 H   0  0  0  0  0  0  0  0  0  0  0  0
    2.4070    9.7220   18.1230 S   0  0  0  0  0  0  0  0  0  0  0  0
    1.9010    8.0320   17.6700 C   0  0  0  0  0  0  0  0  0  0  0  0
    2.2300    7.8270   16.6470 H   0  0  0  0  0  0  0  0  0  0  0  0
    0.8110    7.9580   17.7400 H   0  0  0  0  0  0  0  0  0  0  0  0
    2.5140    6.9820   18.5890 C   0  0  0  0  0  0  0  0  0  0  0  0
    2.4170    7.0140   19.8160 O   0  0  0  0  0  0  0  0  0  0  0  0
    3.2500    5.8990   17.9310 C   0  0  0  0  0  0  0  0  0  0  0  0
    4.4940    6.0530   17.4390 N   0  0  0  0  0  0  0  0  0  0  0  0
    4.7540    4.8280   16.9460 N   0  0  0  0  0  0  0  0  0  0  0  0
    3.8010    3.8880   17.0680 N   0  0  0  0  0  0  0  0  0  0  0  0
    2.8300    4.5630   17.6980 C   0  0  0  0  0  0  0  0  0  0  0  0
    1.5490    3.9110   18.0530 C   0  0  0  0  0  0  0  0  0  0  0  0
    0.6910    4.5040   17.7190 H   0  0  0  0  0  0  0  0  0  0  0  0
    1.4680    3.7860   19.1380 H   0  0  0  0  0  0  0  0  0  0  0  0
    1.4790    2.9250   17.5830 H   0  0  0  0  0  0  0  0  0  0  0  0
    6.0250    4.5270   16.3180 C   0  0  0  0  0  0  0  0  0  0  0  0
    6.2500    3.4730   16.5140 H   0  0  0  0  0  0  0  0  0  0  0  0
    6.7930    5.1340   16.8110 H   0  0  0  0  0  0  0  0  0  0  0  0
    6.0010    4.8040   14.8250 C   0  0  0  0  0  0  0  0  0  0  0  0
    6.9320    4.4780   14.3490 H   0  0  0  0  0  0  0  0  0  0  0  0
    5.1700    4.2710   14.3530 H   0  0  0  0  0  0  0  0  0  0  0  0
    5.8790    5.8740   14.6250 H   0  0  0  0  0  0  0  0  0  0  0  0
  1  9  1  0  0  0  0
  1 20  1  0  0  0  0
  2  1  1  0  0  0  0
  3  4  1  0  0  0  0
  3  2  2  0  0  0  0
  4  8  2  0  0  0  0
  5  4  1  0  0  0  0
  5  6  1  0  0  0  0
  6 13  1  0  0  0  0
  6  7  2  0  0  0  0
  7 11  1  0  0  0  0
  8  7  1  0  0  0  0
  8  9  1  0  0  0  0
  9 10  2  0  0  0  0
 11 15  1  0  0  0  0
 12 11  1  0  0  0  0
 12 16  1  0  0  0  0
 13 18  1  0  0  0  0
 13 12  1  0  0  0  0
 14 11  1  0  0  0  0
 17 12  1  0  0  0  0
 19 13  1  0  0  0  0
 20 21  1  0  0  0  0
 22 20  1  0  0  0  0
 23 24  1  0  0  0  0
 23 20  1  0  0  0  0
 23 25  1  0  0  0  0
 26 23  1  0  0  0  0
 27 26  1  0  0  0  0
 28 26  1  0  0  0  0
 29 26  1  0  0  0  0
 30  2  1  0  0  0  0
 31 33  1  0  0  0  0
 31 30  1  0  0  0  0
 31 34  1  0  0  0  0
 32 31  1  0  0  0  0
 34 35  2  0  0  0  0
 36 34  1  0  0  0  0
 37 36  2  0  0  0  0
 38 39  1  0  0  0  0
 38 37  1  0  0  0  0
 39 40  2  0  0  0  0
 40 36  1  0  0  0  0
 40 41  1  0  0  0  0
 41 43  1  0  0  0  0
 42 41  1  0  0  0  0
 44 41  1  0  0  0  0
 45 46  1  0  0  0  0
 45 47  1  0  0  0  0
 45 38  1  0  0  0  0
 48 45  1  0  0  0  0
 49 48  1  0  0  0  0
 50 48  1  0  0  0  0
 51 48  1  0  0  0  0
M  END
>  <MODEL>
27

>  <REMARK>
 VINA RESULT:    -5.849      3.584      6.413
 INTER + INTRA:          -8.981
 INTER:                  -8.582
 INTRA:                  -0.399
 UNBOUND:                -0.225
  Name = 
  10 active torsions:
  status: ('A' for Active; 'I' for Inactive)
    1  A    between atoms: C_1  and  C_2
    2  A    between atoms: C_2  and  C_3
    3  A    between atoms: C_3  and  N_4
    4  A    between atoms: C_5  and  S_6
    5  A    between atoms: S_6  and  C_7
    6  A    between atoms: C_7  and  C_8
    7  A    between atoms: C_8  and  C_10
    8  A    between atoms: N_12  and  C_13
    9  A    between atoms: C_13  and  C_14
   10  A    between atoms: C_16  and  C_17
                            x       y       z     vdW  Elec       q    Type
                         _______ _______ _______ _____ _____    ______ ____

>  <TORSDO>
F 10

$$$$
=
 OpenBabel07192307433D

 51 54  0  0  0  0  0  0  0  0999 V2000
    2.1480    7.8260   19.4900 N   0  0  0  0  0  0  0  0  0  0  0  0
    1.6450    7.5400   20.7650 C   0  0  0  0  0  0  0  0  0  0  0  0
    1.4570    6.3490   21.2440 N   0  0  0  0  0  0  0  0  0  0  0  0
    1.7910    5.3350   20.4150 C   0  0  0  0  0  0  0  0  0  0  0  0
    1.5930    3.6860   20.8810 S   0  0  0  0  0  0  0  0  0  0  0  0
    2.1970    3.1790   19.4060 C   0  0  0  0  0  0  0  0  0  0  0  0
    2.5500    4.1990   18.5660 C   0  0  0  0  0  0  0  0  0  0  0  0
    2.3160    5.4620   19.1460 C   0  0  0  0  0  0  0  0  0  0  0  0
    2.5400    6.7910   18.6270 C   0  0  0  0  0  0  0  0  0  0  0  0
    3.0440    6.9700   17.5210 O   0  0  0  0  0  0  0  0  0  0  0  0
    3.0810    3.6800   17.2820 C   0  0  0  0  0  0  0  0  0  0  0  0
    2.6720    2.1730   17.3420 C   0  0  0  0  0  0  0  0  0  0  0  0
    2.4260    1.8280   18.8450 C   0  0  0  0  0  0  0  0  0  0  0  0
    4.1700    3.7800   17.2480 H   0  0  0  0  0  0  0  0  0  0  0  0
    2.6420    4.1730   16.4100 H   0  0  0  0  0  0  0  0  0  0  0  0
    1.7340    2.0370   16.7870 H   0  0  0  0  0  0  0  0  0  0  0  0
    3.4220    1.5210   16.8840 H   0  0  0  0  0  0  0  0  0  0  0  0
    1.5690    1.1590   18.9620 H   0  0  0  0  0  0  0  0  0  0  0  0
    3.3170    1.3680   19.2850 H   0  0  0  0  0  0  0  0  0  0  0  0
    2.3720    9.1860   18.9850 C   0  0  0  0  0  0  0  0  0  0  0  0
    1.9950    9.9080   19.7190 H   0  0  0  0  0  0  0  0  0  0  0  0
    3.4430    9.3910   18.8970 H   0  0  0  0  0  0  0  0  0  0  0  0
    1.6660    9.4160   17.6460 C   0  0  0  0  0  0  0  0  0  0  0  0
    2.0120   10.3460   17.1830 H   0  0  0  0  0  0  0  0  0  0  0  0
    1.9160    8.6080   16.9470 H   0  0  0  0  0  0  0  0  0  0  0  0
    0.1560    9.4750   17.8180 C   0  0  0  0  0  0  0  0  0  0  0  0
   -0.1630    8.8850   18.6810 H   0  0  0  0  0  0  0  0  0  0  0  0
   -0.1670   10.5090   17.9770 H   0  0  0  0  0  0  0  0  0  0  0  0
   -0.3560    9.0930   16.9300 H   0  0  0  0  0  0  0  0  0  0  0  0
    1.2320    8.9000   21.8030 S   0  0  0  0  0  0  0  0  0  0  0  0
   -0.4330    9.3090   21.1930 C   0  0  0  0  0  0  0  0  0  0  0  0
   -1.1620    8.6650   21.6940 H   0  0  0  0  0  0  0  0  0  0  0  0
   -0.4650    9.1460   20.1100 H   0  0  0  0  0  0  0  0  0  0  0  0
   -0.8070   10.7600   21.4690 C   0  0  0  0  0  0  0  0  0  0  0  0
   -1.3250   11.1390   22.5200 O   0  0  0  0  0  0  0  0  0  0  0  0
   -0.5210   11.7170   20.3960 C   0  0  0  0  0  0  0  0  0  0  0  0
    0.7030   12.2360   20.1860 N   0  0  0  0  0  0  0  0  0  0  0  0
    0.4910   13.0370   19.1250 N   0  0  0  0  0  0  0  0  0  0  0  0
   -0.7540   13.0910   18.6220 N   0  0  0  0  0  0  0  0  0  0  0  0
   -1.4140   12.2480   19.4290 C   0  0  0  0  0  0  0  0  0  0  0  0
   -2.8580   11.9840   19.2450 C   0  0  0  0  0  0  0  0  0  0  0  0
   -3.1530   12.0770   18.1950 H   0  0  0  0  0  0  0  0  0  0  0  0
   -3.4570   12.6940   19.8250 H   0  0  0  0  0  0  0  0  0  0  0  0
   -3.1060   10.9700   19.5740 H   0  0  0  0  0  0  0  0  0  0  0  0
    1.5700   13.8030   18.5360 C   0  0  0  0  0  0  0  0  0  0  0  0
    1.8540   14.5810   19.2540 H   0  0  0  0  0  0  0  0  0  0  0  0
    1.1780   14.2980   17.6400 H   0  0  0  0  0  0  0  0  0  0  0  0
    2.7620   12.9310   18.1880 C   0  0  0  0  0  0  0  0  0  0  0  0
    2.6580   11.9290   18.6180 H   0  0  0  0  0  0  0  0  0  0  0  0
    2.8540   12.8280   17.1020 H   0  0  0  0  0  0  0  0  0  0  0  0
    3.6930   13.3630   18.5700 H   0  0  0  0  0  0  0  0  0  0  0  0
  1  2  1  0  0  0  0
  2  3  2  0  0  0  0
  2 30  1  0  0  0  0
  4  5  1  0  0  0  0
  4  3  1  0  0  0  0
  6  5  1  0  0  0  0
  7  8  1  0  0  0  0
  7  6  2  0  0  0  0
  8  4  2  0  0  0  0
  9  8  1  0  0  0  0
  9  1  1  0  0  0  0
 10  9  2  0  0  0  0
 11 12  1  0  0  0  0
 11  7  1  0  0  0  0
 12 13  1  0  0  0  0
 13 18  1  0  0  0  0
 13 19  1  0  0  0  0
 13  6  1  0  0  0  0
 14 11  1  0  0  0  0
 15 11  1  0  0  0  0
 16 12  1  0  0  0  0
 17 12  1  0  0  0  0
 20  1  1  0  0  0  0
 20 21  1  0  0  0  0
 22 20  1  0  0  0  0
 23 26  1  0  0  0  0
 23 20  1  0  0  0  0
 24 23  1  0  0  0  0
 25 23  1  0  0  0  0
 26 28  1  0  0  0  0
 26 27  1  0  0  0  0
 29 26  1  0  0  0  0
 31 34  1  0  0  0  0
 31 32  1  0  0  0  0
 31 30  1  0  0  0  0
 33 31  1  0  0  0  0
 34 35  2  0  0  0  0
 36 34  1  0  0  0  0
 37 36  2  0  0  0  0
 38 37  1  0  0  0  0
 39 38  1  0  0  0  0
 39 40  2  0  0  0  0
 40 36  1  0  0  0  0
 41 40  1  0  0  0  0
 41 44  1  0  0  0  0
 41 43  1  0  0  0  0
 42 41  1  0  0  0  0
 45 38  1  0  0  0  0
 45 46  1  0  0  0  0
 47 45  1  0  0  0  0
 48 45  1  0  0  0  0
 48 51  1  0  0  0  0
 48 49  1  0  0  0  0
 50 48  1  0  0  0  0
M  END
>  <MODEL>
28

>  <REMARK>
 VINA RESULT:    -5.829      3.840      7.749
 INTER + INTRA:          -8.951
 INTER:                  -8.315
 INTRA:                  -0.636
 UNBOUND:                -0.225
  Name = 
  10 active torsions:
  status: ('A' for Active; 'I' for Inactive)
    1  A    between atoms: C_1  and  C_2
    2  A    between atoms: C_2  and  C_3
    3  A    between atoms: C_3  and  N_4
    4  A    between atoms: C_5  and  S_6
    5  A    between atoms: S_6  and  C_7
    6  A    between atoms: C_7  and  C_8
    7  A    between atoms: C_8  and  C_10
    8  A    between atoms: N_12  and  C_13
    9  A    between atoms: C_13  and  C_14
   10  A    between atoms: C_16  and  C_17
                            x       y       z     vdW  Elec       q    Type
                         _______ _______ _______ _____ _____    ______ ____

>  <TORSDO>
F 10

$$$$
=
 OpenBabel07192307433D

 51 54  0  0  0  0  0  0  0  0999 V2000
    4.3980    6.3280   17.9140 N   0  0  0  0  0  0  0  0  0  0  0  0
    3.2970    7.1580   18.1600 C   0  0  0  0  0  0  0  0  0  0  0  0
    2.3200    6.8830   18.9690 N   0  0  0  0  0  0  0  0  0  0  0  0
    2.4170    5.6950   19.6060 C   0  0  0  0  0  0  0  0  0  0  0  0
    1.2010    5.1590   20.7060 S   0  0  0  0  0  0  0  0  0  0  0  0
    2.0540    3.7490   20.9900 C   0  0  0  0  0  0  0  0  0  0  0  0
    3.2270    3.6550   20.2930 C   0  0  0  0  0  0  0  0  0  0  0  0
    3.4480    4.7870   19.4820 C   0  0  0  0  0  0  0  0  0  0  0  0
    4.5410    5.1090   18.5940 C   0  0  0  0  0  0  0  0  0  0  0  0
    5.5080    4.3610   18.4720 O   0  0  0  0  0  0  0  0  0  0  0  0
    3.9330    2.3870   20.5940 C   0  0  0  0  0  0  0  0  0  0  0  0
    2.8280    1.5620   21.3290 C   0  0  0  0  0  0  0  0  0  0  0  0
    1.7760    2.5850   21.8620 C   0  0  0  0  0  0  0  0  0  0  0  0
    4.7830    2.5690   21.2600 H   0  0  0  0  0  0  0  0  0  0  0  0
    4.2790    1.8690   19.6950 H   0  0  0  0  0  0  0  0  0  0  0  0
    2.3420    0.8950   20.6050 H   0  0  0  0  0  0  0  0  0  0  0  0
    3.2400    0.9360   22.1280 H   0  0  0  0  0  0  0  0  0  0  0  0
    0.7590    2.1980   21.7560 H   0  0  0  0  0  0  0  0  0  0  0  0
    1.9720    2.8280   22.9110 H   0  0  0  0  0  0  0  0  0  0  0  0
    5.5000    6.6790   17.0100 C   0  0  0  0  0  0  0  0  0  0  0  0
    5.5680    7.7710   16.9330 H   0  0  0  0  0  0  0  0  0  0  0  0
    6.4570    6.3540   17.4280 H   0  0  0  0  0  0  0  0  0  0  0  0
    5.2930    6.0890   15.6110 C   0  0  0  0  0  0  0  0  0  0  0  0
    4.3460    5.5420   15.5620 H   0  0  0  0  0  0  0  0  0  0  0  0
    5.2260    6.8960   14.8710 H   0  0  0  0  0  0  0  0  0  0  0  0
    6.4300    5.1550   15.2290 C   0  0  0  0  0  0  0  0  0  0  0  0
    7.3760    5.6990   15.1560 H   0  0  0  0  0  0  0  0  0  0  0  0
    6.5480    4.3720   15.9850 H   0  0  0  0  0  0  0  0  0  0  0  0
    6.2350    4.6720   14.2670 H   0  0  0  0  0  0  0  0  0  0  0  0
    3.2270    8.6950   17.3070 S   0  0  0  0  0  0  0  0  0  0  0  0
    1.5610    9.2710   17.7630 C   0  0  0  0  0  0  0  0  0  0  0  0
    1.1290    8.5680   18.4820 H   0  0  0  0  0  0  0  0  0  0  0  0
    0.9420    9.3170   16.8600 H   0  0  0  0  0  0  0  0  0  0  0  0
    1.5840   10.6550   18.3990 C   0  0  0  0  0  0  0  0  0  0  0  0
    2.3890   11.5320   18.0860 O   0  0  0  0  0  0  0  0  0  0  0  0
    0.5800   10.9050   19.4370 C   0  0  0  0  0  0  0  0  0  0  0  0
    0.7650   10.5780   20.7300 N   0  0  0  0  0  0  0  0  0  0  0  0
   -0.3880   10.9860   21.2910 N   0  0  0  0  0  0  0  0  0  0  0  0
   -1.3090   11.5490   20.4910 N   0  0  0  0  0  0  0  0  0  0  0  0
   -0.7010   11.5020   19.2970 C   0  0  0  0  0  0  0  0  0  0  0  0
   -1.3590   12.0280   18.0800 C   0  0  0  0  0  0  0  0  0  0  0  0
   -1.5210   13.1090   18.1470 H   0  0  0  0  0  0  0  0  0  0  0  0
   -2.3340   11.5510   17.9330 H   0  0  0  0  0  0  0  0  0  0  0  0
   -0.7410   11.8350   17.1970 H   0  0  0  0  0  0  0  0  0  0  0  0
   -0.6220   10.8390   22.7140 C   0  0  0  0  0  0  0  0  0  0  0  0
   -1.6970   10.9640   22.8870 H   0  0  0  0  0  0  0  0  0  0  0  0
   -0.1010   11.6560   23.2240 H   0  0  0  0  0  0  0  0  0  0  0  0
   -0.1470    9.4940   23.2320 C   0  0  0  0  0  0  0  0  0  0  0  0
    0.9470    9.4550   23.2820 H   0  0  0  0  0  0  0  0  0  0  0  0
   -0.5410    9.3120   24.2360 H   0  0  0  0  0  0  0  0  0  0  0  0
   -0.4810    8.6790   22.5810 H   0  0  0  0  0  0  0  0  0  0  0  0
  1  2  1  0  0  0  0
  1  9  1  0  0  0  0
  2  3  2  0  0  0  0
  3  4  1  0  0  0  0
  4  5  1  0  0  0  0
  5  6  1  0  0  0  0
  6 13  1  0  0  0  0
  7 11  1  0  0  0  0
  7  6  2  0  0  0  0
  8  4  2  0  0  0  0
  8  7  1  0  0  0  0
  9  8  1  0  0  0  0
 10  9  2  0  0  0  0
 11 14  1  0  0  0  0
 11 12  1  0  0  0  0
 12 13  1  0  0  0  0
 12 17  1  0  0  0  0
 13 19  1  0  0  0  0
 15 11  1  0  0  0  0
 16 12  1  0  0  0  0
 18 13  1  0  0  0  0
 20 22  1  0  0  0  0
 20  1  1  0  0  0  0
 21 20  1  0  0  0  0
 23 20  1  0  0  0  0
 24 23  1  0  0  0  0
 25 23  1  0  0  0  0
 26 23  1  0  0  0  0
 26 28  1  0  0  0  0
 27 26  1  0  0  0  0
 29 26  1  0  0  0  0
 30 31  1  0  0  0  0
 30  2  1  0  0  0  0
 31 34  1  0  0  0  0
 31 32  1  0  0  0  0
 33 31  1  0  0  0  0
 34 36  1  0  0  0  0
 35 34  2  0  0  0  0
 36 37  2  0  0  0  0
 37 38  1  0  0  0  0
 38 45  1  0  0  0  0
 39 38  1  0  0  0  0
 40 36  1  0  0  0  0
 40 39  2  0  0  0  0
 41 42  1  0  0  0  0
 41 40  1  0  0  0  0
 43 41  1  0  0  0  0
 44 41  1  0  0  0  0
 45 46  1  0  0  0  0
 45 47  1  0  0  0  0
 45 48  1  0  0  0  0
 48 49  1  0  0  0  0
 48 50  1  0  0  0  0
 51 48  1  0  0  0  0
M  END
>  <MODEL>
29

>  <REMARK>
 VINA RESULT:    -5.798      3.048      7.132
 INTER + INTRA:          -8.905
 INTER:                  -8.147
 INTRA:                  -0.757
 UNBOUND:                -0.225
  Name = 
  10 active torsions:
  status: ('A' for Active; 'I' for Inactive)
    1  A    between atoms: C_1  and  C_2
    2  A    between atoms: C_2  and  C_3
    3  A    between atoms: C_3  and  N_4
    4  A    between atoms: C_5  and  S_6
    5  A    between atoms: S_6  and  C_7
    6  A    between atoms: C_7  and  C_8
    7  A    between atoms: C_8  and  C_10
    8  A    between atoms: N_12  and  C_13
    9  A    between atoms: C_13  and  C_14
   10  A    between atoms: C_16  and  C_17
                            x       y       z     vdW  Elec       q    Type
                         _______ _______ _______ _____ _____    ______ ____

>  <TORSDO>
F 10

$$$$
=
 OpenBabel07192307433D

 51 54  0  0  0  0  0  0  0  0999 V2000
   -1.5070   10.5680   18.1900 N   0  0  0  0  0  0  0  0  0  0  0  0
   -0.1670   10.2260   18.4080 C   0  0  0  0  0  0  0  0  0  0  0  0
    0.6160   10.7900   19.2760 N   0  0  0  0  0  0  0  0  0  0  0  0
    0.0500   11.7750   20.0080 C   0  0  0  0  0  0  0  0  0  0  0  0
    0.9470   12.6440   21.1980 S   0  0  0  0  0  0  0  0  0  0  0  0
   -0.4000   13.5640   21.5670 C   0  0  0  0  0  0  0  0  0  0  0  0
   -1.5100   13.2490   20.8330 C   0  0  0  0  0  0  0  0  0  0  0  0
   -1.2580   12.2050   19.9200 C   0  0  0  0  0  0  0  0  0  0  0  0
   -2.1280   11.5600   18.9650 C   0  0  0  0  0  0  0  0  0  0  0  0
   -3.3130   11.8680   18.8680 O   0  0  0  0  0  0  0  0  0  0  0  0
   -2.6660   14.0960   21.2140 C   0  0  0  0  0  0  0  0  0  0  0  0
   -1.9850   15.2190   22.0600 C   0  0  0  0  0  0  0  0  0  0  0  0
   -0.6130   14.6550   22.5450 C   0  0  0  0  0  0  0  0  0  0  0  0
   -3.3740   13.5290   21.8270 H   0  0  0  0  0  0  0  0  0  0  0  0
   -3.1880   14.5160   20.3490 H   0  0  0  0  0  0  0  0  0  0  0  0
   -1.8050   16.0900   21.4160 H   0  0  0  0  0  0  0  0  0  0  0  0
   -2.6150   15.5510   22.8920 H   0  0  0  0  0  0  0  0  0  0  0  0
    0.1640   15.4230   22.5140 H   0  0  0  0  0  0  0  0  0  0  0  0
   -0.6980   14.2560   23.5610 H   0  0  0  0  0  0  0  0  0  0  0  0
   -2.3750    9.8950   17.2150 C   0  0  0  0  0  0  0  0  0  0  0  0
   -1.9470    8.9150   16.9710 H   0  0  0  0  0  0  0  0  0  0  0  0
   -3.3540    9.6860   17.6540 H   0  0  0  0  0  0  0  0  0  0  0  0
   -2.5220   10.7140   15.9290 C   0  0  0  0  0  0  0  0  0  0  0  0
   -3.0220   11.6660   16.1350 H   0  0  0  0  0  0  0  0  0  0  0  0
   -1.5310   10.9620   15.5280 H   0  0  0  0  0  0  0  0  0  0  0  0
   -3.3100    9.9530   14.8740 C   0  0  0  0  0  0  0  0  0  0  0  0
   -3.0470    8.8920   14.8790 H   0  0  0  0  0  0  0  0  0  0  0  0
   -4.3830   10.0370   15.0700 H   0  0  0  0  0  0  0  0  0  0  0  0
   -3.1150   10.3530   13.8740 H   0  0  0  0  0  0  0  0  0  0  0  0
    0.5150    8.9320   17.4290 S   0  0  0  0  0  0  0  0  0  0  0  0
    2.1740    8.7810   18.1610 C   0  0  0  0  0  0  0  0  0  0  0  0
    2.3910    9.6850   18.7380 H   0  0  0  0  0  0  0  0  0  0  0  0
    2.9080    8.6600   17.3560 H   0  0  0  0  0  0  0  0  0  0  0  0
    2.2850    7.5800   19.0930 C   0  0  0  0  0  0  0  0  0  0  0  0
    2.0760    7.6400   20.3050 O   0  0  0  0  0  0  0  0  0  0  0  0
    2.6680    6.3110   18.4680 C   0  0  0  0  0  0  0  0  0  0  0  0
    1.9260    5.1920   18.5690 N   0  0  0  0  0  0  0  0  0  0  0  0
    2.6490    4.3100   17.8560 N   0  0  0  0  0  0  0  0  0  0  0  0
    3.7930    4.7430   17.2980 N   0  0  0  0  0  0  0  0  0  0  0  0
    3.8170    6.0260   17.6850 C   0  0  0  0  0  0  0  0  0  0  0  0
    4.9260    6.9250   17.2910 C   0  0  0  0  0  0  0  0  0  0  0  0
    5.6560    7.0380   18.1000 H   0  0  0  0  0  0  0  0  0  0  0  0
    4.5450    7.9200   17.0420 H   0  0  0  0  0  0  0  0  0  0  0  0
    5.4510    6.5240   16.4190 H   0  0  0  0  0  0  0  0  0  0  0  0
    2.2030    2.9420   17.6810 C   0  0  0  0  0  0  0  0  0  0  0  0
    3.0750    2.2910   17.8070 H   0  0  0  0  0  0  0  0  0  0  0  0
    1.8490    2.8360   16.6500 H   0  0  0  0  0  0  0  0  0  0  0  0
    1.1080    2.5710   18.6650 C   0  0  0  0  0  0  0  0  0  0  0  0
    1.5300    2.1670   19.5910 H   0  0  0  0  0  0  0  0  0  0  0  0
    0.5100    3.4520   18.9180 H   0  0  0  0  0  0  0  0  0  0  0  0
    0.4390    1.8130   18.2430 H   0  0  0  0  0  0  0  0  0  0  0  0
  1  2  1  0  0  0  0
  1  9  1  0  0  0  0
  2  3  2  0  0  0  0
  3  4  1  0  0  0  0
  4  5  1  0  0  0  0
  5  6  1  0  0  0  0
  6 13  1  0  0  0  0
  7 11  1  0  0  0  0
  7  6  2  0  0  0  0
  8  4  2  0  0  0  0
  8  7  1  0  0  0  0
  9  8  1  0  0  0  0
 10  9  2  0  0  0  0
 11 14  1  0  0  0  0
 11 12  1  0  0  0  0
 12 13  1  0  0  0  0
 12 17  1  0  0  0  0
 13 19  1  0  0  0  0
 15 11  1  0  0  0  0
 16 12  1  0  0  0  0
 18 13  1  0  0  0  0
 20 22  1  0  0  0  0
 20  1  1  0  0  0  0
 21 20  1  0  0  0  0
 23 24  1  0  0  0  0
 23 20  1  0  0  0  0
 25 23  1  0  0  0  0
 26 27  1  0  0  0  0
 26 28  1  0  0  0  0
 26 23  1  0  0  0  0
 29 26  1  0  0  0  0
 30 31  1  0  0  0  0
 30  2  1  0  0  0  0
 31 32  1  0  0  0  0
 31 34  1  0  0  0  0
 33 31  1  0  0  0  0
 34 35  2  0  0  0  0
 36 37  2  0  0  0  0
 36 34  1  0  0  0  0
 38 37  1  0  0  0  0
 39 40  2  0  0  0  0
 39 38  1  0  0  0  0
 40 36  1  0  0  0  0
 41 40  1  0  0  0  0
 41 42  1  0  0  0  0
 43 41  1  0  0  0  0
 44 41  1  0  0  0  0
 45 46  1  0  0  0  0
 45 38  1  0  0  0  0
 45 48  1  0  0  0  0
 47 45  1  0  0  0  0
 48 50  1  0  0  0  0
 48 49  1  0  0  0  0
 51 48  1  0  0  0  0
M  END
>  <MODEL>
30

>  <REMARK>
 VINA RESULT:    -5.780      3.801      6.750
 INTER + INTRA:          -8.878
 INTER:                  -8.343
 INTRA:                  -0.535
 UNBOUND:                -0.225
  Name = 
  10 active torsions:
  status: ('A' for Active; 'I' for Inactive)
    1  A    between atoms: C_1  and  C_2
    2  A    between atoms: C_2  and  C_3
    3  A    between atoms: C_3  and  N_4
    4  A    between atoms: C_5  and  S_6
    5  A    between atoms: S_6  and  C_7
    6  A    between atoms: C_7  and  C_8
    7  A    between atoms: C_8  and  C_10
    8  A    between atoms: N_12  and  C_13
    9  A    between atoms: C_13  and  C_14
   10  A    between atoms: C_16  and  C_17
                            x       y       z     vdW  Elec       q    Type
                         _______ _______ _______ _____ _____    ______ ____

>  <TORSDO>
F 10

$$$$
=
 OpenBabel07192307433D

 51 54  0  0  0  0  0  0  0  0999 V2000
    1.9530    7.6450   19.9970 N   0  0  0  0  0  0  0  0  0  0  0  0
    2.0920    8.0810   18.6730 C   0  0  0  0  0  0  0  0  0  0  0  0
    1.5570    9.1570   18.1820 N   0  0  0  0  0  0  0  0  0  0  0  0
    0.8210    9.8840   19.0520 C   0  0  0  0  0  0  0  0  0  0  0  0
    0.0250   11.3350   18.5680 S   0  0  0  0  0  0  0  0  0  0  0  0
   -0.5750   11.5430   20.1150 C   0  0  0  0  0  0  0  0  0  0  0  0
   -0.2020   10.5660   20.9950 C   0  0  0  0  0  0  0  0  0  0  0  0
    0.6140    9.5920   20.3840 C   0  0  0  0  0  0  0  0  0  0  0  0
    1.2280    8.4030   20.9290 C   0  0  0  0  0  0  0  0  0  0  0  0
    1.1160    8.1110   22.1170 O   0  0  0  0  0  0  0  0  0  0  0  0
   -0.7620   10.8140   22.3450 C   0  0  0  0  0  0  0  0  0  0  0  0
   -1.8260   11.9230   22.0610 C   0  0  0  0  0  0  0  0  0  0  0  0
   -1.4320   12.5950   20.7080 C   0  0  0  0  0  0  0  0  0  0  0  0
    0.0130   11.1910   23.0200 H   0  0  0  0  0  0  0  0  0  0  0  0
   -1.2260    9.9260   22.7830 H   0  0  0  0  0  0  0  0  0  0  0  0
   -2.8110   11.4500   21.9500 H   0  0  0  0  0  0  0  0  0  0  0  0
   -1.8990   12.6470   22.8790 H   0  0  0  0  0  0  0  0  0  0  0  0
   -2.3160   12.8240   20.1080 H   0  0  0  0  0  0  0  0  0  0  0  0
   -0.8590   13.5110   20.8860 H   0  0  0  0  0  0  0  0  0  0  0  0
    2.5910    6.4340   20.5300 C   0  0  0  0  0  0  0  0  0  0  0  0
    3.3390    6.0770   19.8120 H   0  0  0  0  0  0  0  0  0  0  0  0
    3.1470    6.6640   21.4420 H   0  0  0  0  0  0  0  0  0  0  0  0
    1.5690    5.3220   20.7850 C   0  0  0  0  0  0  0  0  0  0  0  0
    0.8560    5.6260   21.5590 H   0  0  0  0  0  0  0  0  0  0  0  0
    0.9820    5.1370   19.8770 H   0  0  0  0  0  0  0  0  0  0  0  0
    2.2490    4.0310   21.2120 C   0  0  0  0  0  0  0  0  0  0  0  0
    2.7980    4.1680   22.1470 H   0  0  0  0  0  0  0  0  0  0  0  0
    1.5040    3.2450   21.3690 H   0  0  0  0  0  0  0  0  0  0  0  0
    2.9500    3.6850   20.4470 H   0  0  0  0  0  0  0  0  0  0  0  0
    3.0650    7.0970   17.5880 S   0  0  0  0  0  0  0  0  0  0  0  0
    2.2170    5.4920   17.7190 C   0  0  0  0  0  0  0  0  0  0  0  0
    1.4550    5.4290   16.9370 H   0  0  0  0  0  0  0  0  0  0  0  0
    1.7520    5.4160   18.7080 H   0  0  0  0  0  0  0  0  0  0  0  0
    3.1750    4.3190   17.5490 C   0  0  0  0  0  0  0  0  0  0  0  0
    2.8030    3.1530   17.4160 O   0  0  0  0  0  0  0  0  0  0  0  0
    4.6040    4.6460   17.5560 C   0  0  0  0  0  0  0  0  0  0  0  0
    5.2640    5.0200   18.6680 N   0  0  0  0  0  0  0  0  0  0  0  0
    6.5130    5.2090   18.2030 N   0  0  0  0  0  0  0  0  0  0  0  0
    6.7330    4.9940   16.8950 N   0  0  0  0  0  0  0  0  0  0  0  0
    5.5160    4.6330   16.4670 C   0  0  0  0  0  0  0  0  0  0  0  0
    5.2720    4.2890   15.0480 C   0  0  0  0  0  0  0  0  0  0  0  0
    4.7590    3.3260   14.9520 H   0  0  0  0  0  0  0  0  0  0  0  0
    6.2170    4.2220   14.5000 H   0  0  0  0  0  0  0  0  0  0  0  0
    4.6460    5.0500   14.5720 H   0  0  0  0  0  0  0  0  0  0  0  0
    7.5880    5.6150   19.0860 C   0  0  0  0  0  0  0  0  0  0  0  0
    8.3580    4.8370   19.0500 H   0  0  0  0  0  0  0  0  0  0  0  0
    7.1880    5.6490   20.1050 H   0  0  0  0  0  0  0  0  0  0  0  0
    8.1670    6.9630   18.6930 C   0  0  0  0  0  0  0  0  0  0  0  0
    8.8370    7.3460   19.4700 H   0  0  0  0  0  0  0  0  0  0  0  0
    8.7380    6.8750   17.7630 H   0  0  0  0  0  0  0  0  0  0  0  0
    7.3750    7.7030   18.5390 H   0  0  0  0  0  0  0  0  0  0  0  0
  1 20  1  0  0  0  0
  1  9  1  0  0  0  0
  2  1  1  0  0  0  0
  3  2  2  0  0  0  0
  3  4  1  0  0  0  0
  4  8  2  0  0  0  0
  5  4  1  0  0  0  0
  5  6  1  0  0  0  0
  6 13  1  0  0  0  0
  6  7  2  0  0  0  0
  7 11  1  0  0  0  0
  8  9  1  0  0  0  0
  8  7  1  0  0  0  0
  9 10  2  0  0  0  0
 11 15  1  0  0  0  0
 11 14  1  0  0  0  0
 12 11  1  0  0  0  0
 12 17  1  0  0  0  0
 13 19  1  0  0  0  0
 13 12  1  0  0  0  0
 16 12  1  0  0  0  0
 18 13  1  0  0  0  0
 20 23  1  0  0  0  0
 20 22  1  0  0  0  0
 21 20  1  0  0  0  0
 23 26  1  0  0  0  0
 23 24  1  0  0  0  0
 25 23  1  0  0  0  0
 26 28  1  0  0  0  0
 26 27  1  0  0  0  0
 29 26  1  0  0  0  0
 30 31  1  0  0  0  0
 30  2  1  0  0  0  0
 31 33  1  0  0  0  0
 32 31  1  0  0  0  0
 34 36  1  0  0  0  0
 34 31  1  0  0  0  0
 35 34  2  0  0  0  0
 36 37  2  0  0  0  0
 38 37  1  0  0  0  0
 38 45  1  0  0  0  0
 39 38  1  0  0  0  0
 40 39  2  0  0  0  0
 40 36  1  0  0  0  0
 41 40  1  0  0  0  0
 42 41  1  0  0  0  0
 43 41  1  0  0  0  0
 44 41  1  0  0  0  0
 45 47  1  0  0  0  0
 46 45  1  0  0  0  0
 48 45  1  0  0  0  0
 48 49  1  0  0  0  0
 50 48  1  0  0  0  0
 51 48  1  0  0  0  0
M  END
>  <MODEL>
31

>  <REMARK>
 VINA RESULT:    -5.773      2.204      3.344
 INTER + INTRA:          -8.866
 INTER:                  -9.253
 INTRA:                   0.387
 UNBOUND:                -0.225
  Name = 
  10 active torsions:
  status: ('A' for Active; 'I' for Inactive)
    1  A    between atoms: C_1  and  C_2
    2  A    between atoms: C_2  and  C_3
    3  A    between atoms: C_3  and  N_4
    4  A    between atoms: C_5  and  S_6
    5  A    between atoms: S_6  and  C_7
    6  A    between atoms: C_7  and  C_8
    7  A    between atoms: C_8  and  C_10
    8  A    between atoms: N_12  and  C_13
    9  A    between atoms: C_13  and  C_14
   10  A    between atoms: C_16  and  C_17
                            x       y       z     vdW  Elec       q    Type
                         _______ _______ _______ _____ _____    ______ ____

>  <TORSDO>
F 10

$$$$
=
 OpenBabel07192307433D

 51 54  0  0  0  0  0  0  0  0999 V2000
    1.4720   11.8890   19.0660 N   0  0  0  0  0  0  0  0  0  0  0  0
    0.9440   11.9460   20.3620 C   0  0  0  0  0  0  0  0  0  0  0  0
    0.7810   10.9260   21.1470 N   0  0  0  0  0  0  0  0  0  0  0  0
    1.1670    9.7360   20.6350 C   0  0  0  0  0  0  0  0  0  0  0  0
    1.0080    8.2720   21.5330 S   0  0  0  0  0  0  0  0  0  0  0  0
    1.6660    7.4020   20.2650 C   0  0  0  0  0  0  0  0  0  0  0  0
    2.0090    8.1640   19.1830 C   0  0  0  0  0  0  0  0  0  0  0  0
    1.7210    9.5290   19.3890 C   0  0  0  0  0  0  0  0  0  0  0  0
    1.9190   10.6720   18.5280 C   0  0  0  0  0  0  0  0  0  0  0  0
    2.4460   10.5590   17.4240 O   0  0  0  0  0  0  0  0  0  0  0  0
    2.5890    7.3330   18.1010 C   0  0  0  0  0  0  0  0  0  0  0  0
    2.2250    5.8860   18.5670 C   0  0  0  0  0  0  0  0  0  0  0  0
    1.9500    5.9590   20.1020 C   0  0  0  0  0  0  0  0  0  0  0  0
    3.6760    7.4600   18.0590 H   0  0  0  0  0  0  0  0  0  0  0  0
    2.1590    7.5510   17.1200 H   0  0  0  0  0  0  0  0  0  0  0  0
    1.3070    5.5690   18.0550 H   0  0  0  0  0  0  0  0  0  0  0  0
    3.0070    5.1620   18.3180 H   0  0  0  0  0  0  0  0  0  0  0  0
    1.1120    5.3160   20.3840 H   0  0  0  0  0  0  0  0  0  0  0  0
    2.8430    5.6700   20.6660 H   0  0  0  0  0  0  0  0  0  0  0  0
    1.6680   13.0660   18.2100 C   0  0  0  0  0  0  0  0  0  0  0  0
    1.5220   12.7760   17.1630 H   0  0  0  0  0  0  0  0  0  0  0  0
    0.9030   13.8200   18.4150 H   0  0  0  0  0  0  0  0  0  0  0  0
    3.0700   13.6590   18.3760 C   0  0  0  0  0  0  0  0  0  0  0  0
    3.3560   13.6770   19.4330 H   0  0  0  0  0  0  0  0  0  0  0  0
    3.8070   13.0270   17.8650 H   0  0  0  0  0  0  0  0  0  0  0  0
    3.1470   15.0690   17.8140 C   0  0  0  0  0  0  0  0  0  0  0  0
    3.8810   15.6690   18.3590 H   0  0  0  0  0  0  0  0  0  0  0  0
    3.4470   15.0420   16.7620 H   0  0  0  0  0  0  0  0  0  0  0  0
    2.1760   15.5700   17.8770 H   0  0  0  0  0  0  0  0  0  0  0  0
    0.4630   13.5220   20.9780 S   0  0  0  0  0  0  0  0  0  0  0  0
   -1.1460   13.7400   20.1540 C   0  0  0  0  0  0  0  0  0  0  0  0
   -0.9840   13.8100   19.0740 H   0  0  0  0  0  0  0  0  0  0  0  0
   -1.6140   14.6580   20.5270 H   0  0  0  0  0  0  0  0  0  0  0  0
   -2.0930   12.5770   20.4220 C   0  0  0  0  0  0  0  0  0  0  0  0
   -2.4120   12.2080   21.5530 O   0  0  0  0  0  0  0  0  0  0  0  0
   -2.6210   11.8890   19.2410 C   0  0  0  0  0  0  0  0  0  0  0  0
   -1.8600   11.1220   18.4380 N   0  0  0  0  0  0  0  0  0  0  0  0
   -2.7500   10.7110   17.5160 N   0  0  0  0  0  0  0  0  0  0  0  0
   -4.0200   11.1350   17.6380 N   0  0  0  0  0  0  0  0  0  0  0  0
   -3.9510   11.8930   18.7410 C   0  0  0  0  0  0  0  0  0  0  0  0
   -5.1470   12.5830   19.2730 C   0  0  0  0  0  0  0  0  0  0  0  0
   -5.5790   13.2640   18.5320 H   0  0  0  0  0  0  0  0  0  0  0  0
   -4.8900   13.1720   20.1600 H   0  0  0  0  0  0  0  0  0  0  0  0
   -5.9170   11.8560   19.5500 H   0  0  0  0  0  0  0  0  0  0  0  0
   -2.3570    9.8280   16.4360 C   0  0  0  0  0  0  0  0  0  0  0  0
   -2.7390    8.8280   16.6700 H   0  0  0  0  0  0  0  0  0  0  0  0
   -1.2620    9.7780   16.4280 H   0  0  0  0  0  0  0  0  0  0  0  0
   -2.8810   10.3040   15.0930 C   0  0  0  0  0  0  0  0  0  0  0  0
   -3.4830    9.5290   14.6070 H   0  0  0  0  0  0  0  0  0  0  0  0
   -3.5070   11.1930   15.2230 H   0  0  0  0  0  0  0  0  0  0  0  0
   -2.0590   10.5620   14.4180 H   0  0  0  0  0  0  0  0  0  0  0  0
  1  2  1  0  0  0  0
  2 30  1  0  0  0  0
  2  3  2  0  0  0  0
  4  3  1  0  0  0  0
  4  5  1  0  0  0  0
  6  5  1  0  0  0  0
  7  8  1  0  0  0  0
  7  6  2  0  0  0  0
  8  4  2  0  0  0  0
  9  1  1  0  0  0  0
  9  8  1  0  0  0  0
 10  9  2  0  0  0  0
 11 12  1  0  0  0  0
 11  7  1  0  0  0  0
 12 13  1  0  0  0  0
 13  6  1  0  0  0  0
 13 18  1  0  0  0  0
 13 19  1  0  0  0  0
 14 11  1  0  0  0  0
 15 11  1  0  0  0  0
 16 12  1  0  0  0  0
 17 12  1  0  0  0  0
 20 23  1  0  0  0  0
 20 22  1  0  0  0  0
 20  1  1  0  0  0  0
 21 20  1  0  0  0  0
 23 24  1  0  0  0  0
 25 23  1  0  0  0  0
 26 29  1  0  0  0  0
 26 27  1  0  0  0  0
 26 23  1  0  0  0  0
 28 26  1  0  0  0  0
 31 34  1  0  0  0  0
 31 33  1  0  0  0  0
 31 30  1  0  0  0  0
 32 31  1  0  0  0  0
 34 35  2  0  0  0  0
 36 34  1  0  0  0  0
 37 36  2  0  0  0  0
 38 39  1  0  0  0  0
 38 37  1  0  0  0  0
 39 40  2  0  0  0  0
 40 36  1  0  0  0  0
 40 41  1  0  0  0  0
 41 44  1  0  0  0  0
 41 43  1  0  0  0  0
 42 41  1  0  0  0  0
 45 46  1  0  0  0  0
 45 38  1  0  0  0  0
 47 45  1  0  0  0  0
 48 50  1  0  0  0  0
 48 45  1  0  0  0  0
 49 48  1  0  0  0  0
 51 48  1  0  0  0  0
M  END
>  <MODEL>
32

>  <REMARK>
 VINA RESULT:    -5.750      4.910      9.380
 INTER + INTRA:          -8.832
 INTER:                  -7.792
 INTRA:                  -1.041
 UNBOUND:                -0.225
  Name = 
  10 active torsions:
  status: ('A' for Active; 'I' for Inactive)
    1  A    between atoms: C_1  and  C_2
    2  A    between atoms: C_2  and  C_3
    3  A    between atoms: C_3  and  N_4
    4  A    between atoms: C_5  and  S_6
    5  A    between atoms: S_6  and  C_7
    6  A    between atoms: C_7  and  C_8
    7  A    between atoms: C_8  and  C_10
    8  A    between atoms: N_12  and  C_13
    9  A    between atoms: C_13  and  C_14
   10  A    between atoms: C_16  and  C_17
                            x       y       z     vdW  Elec       q    Type
                         _______ _______ _______ _____ _____    ______ ____

>  <TORSDO>
F 10

$$$$
=
 OpenBabel07192307433D

 51 54  0  0  0  0  0  0  0  0999 V2000
    1.2930    8.0620   20.0860 N   0  0  0  0  0  0  0  0  0  0  0  0
    1.6290    8.8640   18.9880 C   0  0  0  0  0  0  0  0  0  0  0  0
    2.4600    8.5330   18.0480 N   0  0  0  0  0  0  0  0  0  0  0  0
    3.0190    7.3100   18.1770 C   0  0  0  0  0  0  0  0  0  0  0  0
    4.1580    6.7130   17.0280 S   0  0  0  0  0  0  0  0  0  0  0  0
    4.3010    5.2830   17.8850 C   0  0  0  0  0  0  0  0  0  0  0  0
    3.5220    5.2260   19.0080 C   0  0  0  0  0  0  0  0  0  0  0  0
    2.7700    6.4040   19.1870 C   0  0  0  0  0  0  0  0  0  0  0  0
    1.8290    6.7720   20.2200 C   0  0  0  0  0  0  0  0  0  0  0  0
    1.5330    5.9930   21.1230 O   0  0  0  0  0  0  0  0  0  0  0  0
    3.6920    3.9340   19.7160 C   0  0  0  0  0  0  0  0  0  0  0  0
    4.9660    3.3470   19.0260 C   0  0  0  0  0  0  0  0  0  0  0  0
    5.1100    4.0670   17.6480 C   0  0  0  0  0  0  0  0  0  0  0  0
    2.8290    3.2840   19.5420 H   0  0  0  0  0  0  0  0  0  0  0  0
    3.8470    4.0550   20.7910 H   0  0  0  0  0  0  0  0  0  0  0  0
    5.8440    3.5800   19.6430 H   0  0  0  0  0  0  0  0  0  0  0  0
    4.9170    2.2580   18.9230 H   0  0  0  0  0  0  0  0  0  0  0  0
    6.1580    4.2800   17.4220 H   0  0  0  0  0  0  0  0  0  0  0  0
    4.6750    3.4580   16.8490 H   0  0  0  0  0  0  0  0  0  0  0  0
    0.3300    8.4550   21.1210 C   0  0  0  0  0  0  0  0  0  0  0  0
   -0.4210    9.1210   20.6790 H   0  0  0  0  0  0  0  0  0  0  0  0
   -0.2270    7.5830   21.4780 H   0  0  0  0  0  0  0  0  0  0  0  0
    1.0150    9.1730   22.2880 C   0  0  0  0  0  0  0  0  0  0  0  0
    1.7820    8.5330   22.7350 H   0  0  0  0  0  0  0  0  0  0  0  0
    1.5300   10.0710   21.9240 H   0  0  0  0  0  0  0  0  0  0  0  0
    0.0120    9.5740   23.3580 C   0  0  0  0  0  0  0  0  0  0  0  0
   -0.9100    8.9930   23.2690 H   0  0  0  0  0  0  0  0  0  0  0  0
    0.4290    9.3940   24.3540 H   0  0  0  0  0  0  0  0  0  0  0  0
   -0.2400   10.6350   23.2830 H   0  0  0  0  0  0  0  0  0  0  0  0
    0.8660   10.4450   18.8700 S   0  0  0  0  0  0  0  0  0  0  0  0
   -0.6960   10.0160   18.0390 C   0  0  0  0  0  0  0  0  0  0  0  0
   -1.1510    9.1670   18.5570 H   0  0  0  0  0  0  0  0  0  0  0  0
   -0.4830    9.7550   16.9960 H   0  0  0  0  0  0  0  0  0  0  0  0
   -1.6900   11.1720   18.0490 C   0  0  0  0  0  0  0  0  0  0  0  0
   -2.8090   11.1090   17.5400 O   0  0  0  0  0  0  0  0  0  0  0  0
   -1.2420   12.4020   18.7080 C   0  0  0  0  0  0  0  0  0  0  0  0
   -0.2630   13.1820   18.2160 N   0  0  0  0  0  0  0  0  0  0  0  0
   -0.2020   14.1690   19.1290 N   0  0  0  0  0  0  0  0  0  0  0  0
   -1.0480   14.1080   20.1720 N   0  0  0  0  0  0  0  0  0  0  0  0
   -1.7210   12.9790   19.9140 C   0  0  0  0  0  0  0  0  0  0  0  0
   -2.7890   12.4990   20.8210 C   0  0  0  0  0  0  0  0  0  0  0  0
   -3.0950   11.4770   20.5730 H   0  0  0  0  0  0  0  0  0  0  0  0
   -3.6730   13.1400   20.7490 H   0  0  0  0  0  0  0  0  0  0  0  0
   -2.4400   12.5020   21.8580 H   0  0  0  0  0  0  0  0  0  0  0  0
    0.7330   15.2670   18.9860 C   0  0  0  0  0  0  0  0  0  0  0  0
    0.2510   16.1660   19.3860 H   0  0  0  0  0  0  0  0  0  0  0  0
    0.9030   15.4230   17.9150 H   0  0  0  0  0  0  0  0  0  0  0  0
    2.0430   14.9950   19.7030 C   0  0  0  0  0  0  0  0  0  0  0  0
    2.0180   14.0270   20.2170 H   0  0  0  0  0  0  0  0  0  0  0  0
    2.8720   14.9810   18.9890 H   0  0  0  0  0  0  0  0  0  0  0  0
    2.2500   15.7660   20.4520 H   0  0  0  0  0  0  0  0  0  0  0  0
  1  9  1  0  0  0  0
  1 20  1  0  0  0  0
  2  1  1  0  0  0  0
  3  4  1  0  0  0  0
  3  2  2  0  0  0  0
  4  8  2  0  0  0  0
  5  6  1  0  0  0  0
  5  4  1  0  0  0  0
  6  7  2  0  0  0  0
  7  8  1  0  0  0  0
  7 11  1  0  0  0  0
  8  9  1  0  0  0  0
  9 10  2  0  0  0  0
 11 15  1  0  0  0  0
 12 16  1  0  0  0  0
 12 11  1  0  0  0  0
 13  6  1  0  0  0  0
 13 12  1  0  0  0  0
 14 11  1  0  0  0  0
 17 12  1  0  0  0  0
 18 13  1  0  0  0  0
 19 13  1  0  0  0  0
 20 22  1  0  0  0  0
 20 23  1  0  0  0  0
 21 20  1  0  0  0  0
 23 24  1  0  0  0  0
 23 26  1  0  0  0  0
 25 23  1  0  0  0  0
 26 28  1  0  0  0  0
 27 26  1  0  0  0  0
 29 26  1  0  0  0  0
 30  2  1  0  0  0  0
 31 34  1  0  0  0  0
 31 32  1  0  0  0  0
 31 30  1  0  0  0  0
 33 31  1  0  0  0  0
 34 36  1  0  0  0  0
 35 34  2  0  0  0  0
 36 40  1  0  0  0  0
 37 36  2  0  0  0  0
 37 38  1  0  0  0  0
 38 39  1  0  0  0  0
 40 39  2  0  0  0  0
 40 41  1  0  0  0  0
 41 44  1  0  0  0  0
 42 41  1  0  0  0  0
 43 41  1  0  0  0  0
 45 38  1  0  0  0  0
 45 46  1  0  0  0  0
 45 48  1  0  0  0  0
 47 45  1  0  0  0  0
 48 49  1  0  0  0  0
 48 51  1  0  0  0  0
 50 48  1  0  0  0  0
M  END
>  <MODEL>
33

>  <REMARK>
 VINA RESULT:    -5.710      3.850      7.799
 INTER + INTRA:          -8.773
 INTER:                  -8.547
 INTRA:                  -0.225
 UNBOUND:                -0.225
  Name = 
  10 active torsions:
  status: ('A' for Active; 'I' for Inactive)
    1  A    between atoms: C_1  and  C_2
    2  A    between atoms: C_2  and  C_3
    3  A    between atoms: C_3  and  N_4
    4  A    between atoms: C_5  and  S_6
    5  A    between atoms: S_6  and  C_7
    6  A    between atoms: C_7  and  C_8
    7  A    between atoms: C_8  and  C_10
    8  A    between atoms: N_12  and  C_13
    9  A    between atoms: C_13  and  C_14
   10  A    between atoms: C_16  and  C_17
                            x       y       z     vdW  Elec       q    Type
                         _______ _______ _______ _____ _____    ______ ____

>  <TORSDO>
F 10

$$$$
