=
 OpenBabel07192307433D

 48 50  0  0  0  0  0  0  0  0999 V2000
    1.0620    8.2970   20.9390 C   0  0  0  0  0  0  0  0  0  0  0  0
    0.6760    8.1010   22.0880 O   0  0  0  0  0  0  0  0  0  0  0  0
    1.6300    7.3030   20.1470 N   0  0  0  0  0  0  0  0  0  0  0  0
    1.6640    5.9390   20.6810 C   0  0  0  0  0  0  0  0  0  0  0  0
    1.8880    4.8840   19.5920 C   0  0  0  0  0  0  0  0  0  0  0  0
    3.0830    5.1470   18.7820 N   0  0  0  0  0  0  0  0  0  0  0  0
    3.7470    4.0610   18.2250 C   0  0  0  0  0  0  0  0  0  0  0  0
    3.3930    2.8940   18.3730 O   0  0  0  0  0  0  0  0  0  0  0  0
    3.5380    6.5420   18.7170 C   0  0  0  0  0  0  0  0  0  0  0  0
    2.3960    7.5500   18.9190 C   0  0  0  0  0  0  0  0  0  0  0  0
    0.7320    5.7340   21.2190 H   0  0  0  0  0  0  0  0  0  0  0  0
    2.4830    5.9050   21.4100 H   0  0  0  0  0  0  0  0  0  0  0  0
    1.0390    4.8800   18.8990 H   0  0  0  0  0  0  0  0  0  0  0  0
    1.9490    3.8890   20.0470 H   0  0  0  0  0  0  0  0  0  0  0  0
    4.0350    6.7450   17.7670 H   0  0  0  0  0  0  0  0  0  0  0  0
    4.2840    6.6620   19.5110 H   0  0  0  0  0  0  0  0  0  0  0  0
    2.8050    8.5640   18.9240 H   0  0  0  0  0  0  0  0  0  0  0  0
    1.6880    7.4670   18.0860 H   0  0  0  0  0  0  0  0  0  0  0  0
    4.9780    4.2940   17.4560 C   0  0  0  0  0  0  0  0  0  0  0  0
    4.9240    4.2580   16.0600 C   0  0  0  0  0  0  0  0  0  0  0  0
    6.0810    4.5150   15.3210 C   0  0  0  0  0  0  0  0  0  0  0  0
    7.2790    4.8190   15.9760 C   0  0  0  0  0  0  0  0  0  0  0  0
    7.3210    4.8720   17.3700 C   0  0  0  0  0  0  0  0  0  0  0  0
    6.1650    4.6170   18.1060 C   0  0  0  0  0  0  0  0  0  0  0  0
    6.2260    4.6650   19.4450 F   0  0  0  0  0  0  0  0  0  0  0  0
    3.9870    4.0430   15.5530 H   0  0  0  0  0  0  0  0  0  0  0  0
    6.0470    4.4890   14.2340 H   0  0  0  0  0  0  0  0  0  0  0  0
    8.1760    5.0230   15.3970 H   0  0  0  0  0  0  0  0  0  0  0  0
    8.2430    5.1170   17.8880 H   0  0  0  0  0  0  0  0  0  0  0  0
    0.6090   12.3040   19.3660 C   0  0  0  0  0  0  0  0  0  0  0  0
    1.1460   12.0510   20.6430 C   0  0  0  0  0  0  0  0  0  0  0  0
    1.2860   10.7530   21.1540 C   0  0  0  0  0  0  0  0  0  0  0  0
    0.9130    9.6600   20.3800 C   0  0  0  0  0  0  0  0  0  0  0  0
    0.3660    9.8660   19.1170 C   0  0  0  0  0  0  0  0  0  0  0  0
    0.2320   11.1700   18.6200 C   0  0  0  0  0  0  0  0  0  0  0  0
    1.4690   12.8640   21.2870 H   0  0  0  0  0  0  0  0  0  0  0  0
    1.6870   10.6050   22.1540 H   0  0  0  0  0  0  0  0  0  0  0  0
    0.0320    9.0250   18.5140 H   0  0  0  0  0  0  0  0  0  0  0  0
   -0.1850   11.2720   17.6230 H   0  0  0  0  0  0  0  0  0  0  0  0
    0.4940   13.6020   18.8520 N   0  0  0  0  0  0  0  0  0  0  0  0
    1.7080   14.3280   18.4810 C   0  0  0  0  0  0  0  0  0  0  0  0
    1.5350   14.9620   17.6040 H   0  0  0  0  0  0  0  0  0  0  0  0
    2.0740   14.9380   19.3130 H   0  0  0  0  0  0  0  0  0  0  0  0
    2.5230   13.6380   18.2350 H   0  0  0  0  0  0  0  0  0  0  0  0
   -0.6260   14.4370   19.2880 C   0  0  0  0  0  0  0  0  0  0  0  0
   -0.3370   15.0720   20.1330 H   0  0  0  0  0  0  0  0  0  0  0  0
   -1.4920   13.8270   19.5640 H   0  0  0  0  0  0  0  0  0  0  0  0
   -0.9690   15.0960   18.4820 H   0  0  0  0  0  0  0  0  0  0  0  0
  1  2  2  0  0  0  0
  3  4  1  0  0  0  0
  3  1  1  0  0  0  0
  4 11  1  0  0  0  0
  4 12  1  0  0  0  0
  5 14  1  0  0  0  0
  5  4  1  0  0  0  0
  6  5  1  0  0  0  0
  7  8  2  0  0  0  0
  7  6  1  0  0  0  0
  9  6  1  0  0  0  0
  9 10  1  0  0  0  0
  9 16  1  0  0  0  0
 10 17  1  0  0  0  0
 10  3  1  0  0  0  0
 13  5  1  0  0  0  0
 15  9  1  0  0  0  0
 18 10  1  0  0  0  0
 19 24  1  0  0  0  0
 19  7  1  0  0  0  0
 20 19  2  0  0  0  0
 21 22  2  0  0  0  0
 21 20  1  0  0  0  0
 22 23  1  0  0  0  0
 23 29  1  0  0  0  0
 23 24  2  0  0  0  0
 24 25  1  0  0  0  0
 26 20  1  0  0  0  0
 27 21  1  0  0  0  0
 28 22  1  0  0  0  0
 30 31  1  0  0  0  0
 31 32  2  0  0  0  0
 31 36  1  0  0  0  0
 32 37  1  0  0  0  0
 33  1  1  0  0  0  0
 33 32  1  0  0  0  0
 34 33  2  0  0  0  0
 35 34  1  0  0  0  0
 35 30  2  0  0  0  0
 38 34  1  0  0  0  0
 39 35  1  0  0  0  0
 40 45  1  0  0  0  0
 40 30  1  0  0  0  0
 41 40  1  0  0  0  0
 41 43  1  0  0  0  0
 42 41  1  0  0  0  0
 44 41  1  0  0  0  0
 45 47  1  0  0  0  0
 45 46  1  0  0  0  0
 48 45  1  0  0  0  0
M  END
>  <MODEL>
1

>  <REMARK>
 VINA RESULT:    -6.609      0.000      0.000
 INTER + INTRA:          -8.414
 INTER:                  -8.436
 INTRA:                   0.022
 UNBOUND:                -0.260
  Name = 
  5 active torsions:
  status: ('A' for Active; 'I' for Inactive)
    1  A    between atoms: C_1  and  N_2
    2  A    between atoms: N_2  and  C_3
    3  A    between atoms: N_2  and  C_4
    4  A    between atoms: C_7  and  C_8
    5  A    between atoms: C_14  and  C_16
                            x       y       z     vdW  Elec       q    Type
                         _______ _______ _______ _____ _____    ______ ____

>  <TORSDO>
F 5

$$$$
=
 OpenBabel07192307433D

 48 50  0  0  0  0  0  0  0  0999 V2000
    2.1130    5.4810   20.0070 C   0  0  0  0  0  0  0  0  0  0  0  0
    1.5390    4.5470   20.5600 O   0  0  0  0  0  0  0  0  0  0  0  0
    1.8380    6.8170   20.2870 N   0  0  0  0  0  0  0  0  0  0  0  0
    0.8970    7.1100   21.3710 C   0  0  0  0  0  0  0  0  0  0  0  0
    1.0060    8.5520   21.8760 C   0  0  0  0  0  0  0  0  0  0  0  0
    0.8740    9.5420   20.8020 N   0  0  0  0  0  0  0  0  0  0  0  0
    0.3470   10.7880   21.1220 C   0  0  0  0  0  0  0  0  0  0  0  0
   -0.0150   11.1080   22.2520 O   0  0  0  0  0  0  0  0  0  0  0  0
    1.2140    9.0900   19.4460 C   0  0  0  0  0  0  0  0  0  0  0  0
    2.2410    7.9480   19.4410 C   0  0  0  0  0  0  0  0  0  0  0  0
    1.0600    6.4070   22.1960 H   0  0  0  0  0  0  0  0  0  0  0  0
   -0.1100    6.9270   20.9740 H   0  0  0  0  0  0  0  0  0  0  0  0
    1.9930    8.7140   22.3260 H   0  0  0  0  0  0  0  0  0  0  0  0
    0.2550    8.7310   22.6530 H   0  0  0  0  0  0  0  0  0  0  0  0
    1.5920    9.9180   18.8440 H   0  0  0  0  0  0  0  0  0  0  0  0
    0.2780    8.7510   18.9880 H   0  0  0  0  0  0  0  0  0  0  0  0
    2.4040    7.6130   18.4130 H   0  0  0  0  0  0  0  0  0  0  0  0
    3.1930    8.3140   19.8400 H   0  0  0  0  0  0  0  0  0  0  0  0
    0.1530   11.7780   20.0530 C   0  0  0  0  0  0  0  0  0  0  0  0
    1.1190   12.7700   19.8610 C   0  0  0  0  0  0  0  0  0  0  0  0
    0.9600   13.6920   18.8240 C   0  0  0  0  0  0  0  0  0  0  0  0
   -0.1510   13.6120   17.9780 C   0  0  0  0  0  0  0  0  0  0  0  0
   -1.1020   12.6070   18.1640 C   0  0  0  0  0  0  0  0  0  0  0  0
   -0.9410   11.6870   19.1980 C   0  0  0  0  0  0  0  0  0  0  0  0
   -1.8680   10.7330   19.3660 F   0  0  0  0  0  0  0  0  0  0  0  0
    1.9920   12.8160   20.5060 H   0  0  0  0  0  0  0  0  0  0  0  0
    1.7080   14.4670   18.6680 H   0  0  0  0  0  0  0  0  0  0  0  0
   -0.2690   14.3280   17.1690 H   0  0  0  0  0  0  0  0  0  0  0  0
   -1.9620   12.5300   17.5060 H   0  0  0  0  0  0  0  0  0  0  0  0
    5.0890    4.4860   17.0260 C   0  0  0  0  0  0  0  0  0  0  0  0
    3.7110    4.2940   16.8100 C   0  0  0  0  0  0  0  0  0  0  0  0
    2.7480    4.6110   17.7780 C   0  0  0  0  0  0  0  0  0  0  0  0
    3.1430    5.1600   18.9940 C   0  0  0  0  0  0  0  0  0  0  0  0
    4.4960    5.3540   19.2540 C   0  0  0  0  0  0  0  0  0  0  0  0
    5.4470    5.0320   18.2750 C   0  0  0  0  0  0  0  0  0  0  0  0
    3.3420    3.8830   15.8740 H   0  0  0  0  0  0  0  0  0  0  0  0
    1.6960    4.4280   17.5760 H   0  0  0  0  0  0  0  0  0  0  0  0
    4.8250    5.7450   20.2130 H   0  0  0  0  0  0  0  0  0  0  0  0
    6.4870    5.2190   18.5240 H   0  0  0  0  0  0  0  0  0  0  0  0
    6.0450    4.1900   16.0460 N   0  0  0  0  0  0  0  0  0  0  0  0
    7.4390    4.5630   16.2790 C   0  0  0  0  0  0  0  0  0  0  0  0
    7.7820    5.2920   15.5370 H   0  0  0  0  0  0  0  0  0  0  0  0
    7.5780    4.9680   17.2870 H   0  0  0  0  0  0  0  0  0  0  0  0
    8.0990    3.6900   16.2160 H   0  0  0  0  0  0  0  0  0  0  0  0
    5.6320    4.1640   14.6420 C   0  0  0  0  0  0  0  0  0  0  0  0
    6.3850    3.6690   14.0190 H   0  0  0  0  0  0  0  0  0  0  0  0
    5.4470    5.1750   14.2650 H   0  0  0  0  0  0  0  0  0  0  0  0
    4.6890    3.6210   14.5140 H   0  0  0  0  0  0  0  0  0  0  0  0
  1  3  1  0  0  0  0
  1  2  2  0  0  0  0
  3  4  1  0  0  0  0
  4  5  1  0  0  0  0
  4 11  1  0  0  0  0
  5 13  1  0  0  0  0
  5 14  1  0  0  0  0
  6  7  1  0  0  0  0
  6  5  1  0  0  0  0
  7  8  2  0  0  0  0
  9  6  1  0  0  0  0
 10  9  1  0  0  0  0
 10 18  1  0  0  0  0
 10  3  1  0  0  0  0
 12  4  1  0  0  0  0
 15  9  1  0  0  0  0
 16  9  1  0  0  0  0
 17 10  1  0  0  0  0
 19  7  1  0  0  0  0
 20 19  1  0  0  0  0
 20 26  1  0  0  0  0
 21 20  2  0  0  0  0
 22 23  2  0  0  0  0
 22 21  1  0  0  0  0
 23 24  1  0  0  0  0
 24 25  1  0  0  0  0
 24 19  2  0  0  0  0
 27 21  1  0  0  0  0
 28 22  1  0  0  0  0
 29 23  1  0  0  0  0
 30 35  1  0  0  0  0
 31 30  2  0  0  0  0
 31 32  1  0  0  0  0
 32 33  2  0  0  0  0
 33 34  1  0  0  0  0
 33  1  1  0  0  0  0
 34 38  1  0  0  0  0
 35 39  1  0  0  0  0
 35 34  2  0  0  0  0
 36 31  1  0  0  0  0
 37 32  1  0  0  0  0
 40 41  1  0  0  0  0
 40 30  1  0  0  0  0
 41 43  1  0  0  0  0
 42 41  1  0  0  0  0
 44 41  1  0  0  0  0
 45 40  1  0  0  0  0
 46 45  1  0  0  0  0
 47 45  1  0  0  0  0
 48 45  1  0  0  0  0
M  END
>  <MODEL>
2

>  <REMARK>
 VINA RESULT:    -6.475      2.584      8.334
 INTER + INTRA:          -8.250
 INTER:                  -7.885
 INTRA:                  -0.364
 UNBOUND:                -0.260
  Name = 
  5 active torsions:
  status: ('A' for Active; 'I' for Inactive)
    1  A    between atoms: C_1  and  N_2
    2  A    between atoms: N_2  and  C_3
    3  A    between atoms: N_2  and  C_4
    4  A    between atoms: C_7  and  C_8
    5  A    between atoms: C_14  and  C_16
                            x       y       z     vdW  Elec       q    Type
                         _______ _______ _______ _____ _____    ______ ____

>  <TORSDO>
F 5

$$$$
=
 OpenBabel07192307433D

 48 50  0  0  0  0  0  0  0  0999 V2000
    2.4460    5.2920   19.7380 C   0  0  0  0  0  0  0  0  0  0  0  0
    1.9620    4.3260   20.3240 O   0  0  0  0  0  0  0  0  0  0  0  0
    2.1060    6.6090   20.0330 N   0  0  0  0  0  0  0  0  0  0  0  0
    1.2120    6.8480   21.1690 C   0  0  0  0  0  0  0  0  0  0  0  0
    1.2620    8.2960   21.6670 C   0  0  0  0  0  0  0  0  0  0  0  0
    1.0080    9.2720   20.6010 N   0  0  0  0  0  0  0  0  0  0  0  0
    0.4260   10.4850   20.9510 C   0  0  0  0  0  0  0  0  0  0  0  0
    0.1100   10.7860   22.1000 O   0  0  0  0  0  0  0  0  0  0  0  0
    1.2970    8.8370   19.2280 C   0  0  0  0  0  0  0  0  0  0  0  0
    2.3900    7.7590   19.1650 C   0  0  0  0  0  0  0  0  0  0  0  0
    1.4650    6.1600   21.9840 H   0  0  0  0  0  0  0  0  0  0  0  0
    0.1980    6.6020   20.8310 H   0  0  0  0  0  0  0  0  0  0  0  0
    2.2610    8.5200   22.0590 H   0  0  0  0  0  0  0  0  0  0  0  0
    0.5470    8.4320   22.4850 H   0  0  0  0  0  0  0  0  0  0  0  0
    1.5890    9.6840   18.6060 H   0  0  0  0  0  0  0  0  0  0  0  0
    0.3590    8.4390   18.8260 H   0  0  0  0  0  0  0  0  0  0  0  0
    2.5150    7.4310   18.1290 H   0  0  0  0  0  0  0  0  0  0  0  0
    3.3400    8.1850   19.5090 H   0  0  0  0  0  0  0  0  0  0  0  0
    0.1100   11.4570   19.8940 C   0  0  0  0  0  0  0  0  0  0  0  0
   -1.1100   11.3570   19.2200 C   0  0  0  0  0  0  0  0  0  0  0  0
   -1.4330   12.2970   18.2400 C   0  0  0  0  0  0  0  0  0  0  0  0
   -0.5460   13.3380   17.9470 C   0  0  0  0  0  0  0  0  0  0  0  0
    0.6630   13.4430   18.6380 C   0  0  0  0  0  0  0  0  0  0  0  0
    0.9830   12.5040   19.6160 C   0  0  0  0  0  0  0  0  0  0  0  0
    2.1520   12.6160   20.2640 F   0  0  0  0  0  0  0  0  0  0  0  0
   -1.8070   10.5600   19.4660 H   0  0  0  0  0  0  0  0  0  0  0  0
   -2.3820   12.2270   17.7120 H   0  0  0  0  0  0  0  0  0  0  0  0
   -0.8020   14.0710   17.1870 H   0  0  0  0  0  0  0  0  0  0  0  0
    1.3540   14.2530   18.4240 H   0  0  0  0  0  0  0  0  0  0  0  0
    5.3070    4.4640   16.5980 C   0  0  0  0  0  0  0  0  0  0  0  0
    3.9650    4.0440   16.5260 C   0  0  0  0  0  0  0  0  0  0  0  0
    3.0410    4.3070   17.5460 C   0  0  0  0  0  0  0  0  0  0  0  0
    3.4340    5.0300   18.6680 C   0  0  0  0  0  0  0  0  0  0  0  0
    4.7540    5.4530   18.7850 C   0  0  0  0  0  0  0  0  0  0  0  0
    5.6670    5.1820   17.7560 C   0  0  0  0  0  0  0  0  0  0  0  0
    3.5970    3.4890   15.6680 H   0  0  0  0  0  0  0  0  0  0  0  0
    2.0190    3.9460   17.4580 H   0  0  0  0  0  0  0  0  0  0  0  0
    5.0890    5.9840   19.6720 H   0  0  0  0  0  0  0  0  0  0  0  0
    6.6800    5.5490   17.8920 H   0  0  0  0  0  0  0  0  0  0  0  0
    6.2200    4.2190   15.5650 N   0  0  0  0  0  0  0  0  0  0  0  0
    7.5680    4.7790   15.6620 C   0  0  0  0  0  0  0  0  0  0  0  0
    7.6900    5.3540   16.5860 H   0  0  0  0  0  0  0  0  0  0  0  0
    8.3280    3.9920   15.6130 H   0  0  0  0  0  0  0  0  0  0  0  0
    7.7800    5.4510   14.8220 H   0  0  0  0  0  0  0  0  0  0  0  0
    5.7150    4.0410   14.2030 C   0  0  0  0  0  0  0  0  0  0  0  0
    5.1860    3.0870   14.1010 H   0  0  0  0  0  0  0  0  0  0  0  0
    6.5260    4.0940   13.4690 H   0  0  0  0  0  0  0  0  0  0  0  0
    5.0130    4.8370   13.9310 H   0  0  0  0  0  0  0  0  0  0  0  0
  1  3  1  0  0  0  0
  1  2  2  0  0  0  0
  3  4  1  0  0  0  0
  4  5  1  0  0  0  0
  4 11  1  0  0  0  0
  5 13  1  0  0  0  0
  5 14  1  0  0  0  0
  6  7  1  0  0  0  0
  6  5  1  0  0  0  0
  7  8  2  0  0  0  0
  9  6  1  0  0  0  0
 10  9  1  0  0  0  0
 10 18  1  0  0  0  0
 10  3  1  0  0  0  0
 12  4  1  0  0  0  0
 15  9  1  0  0  0  0
 16  9  1  0  0  0  0
 17 10  1  0  0  0  0
 19  7  1  0  0  0  0
 20 26  1  0  0  0  0
 20 19  2  0  0  0  0
 21 20  1  0  0  0  0
 22 21  2  0  0  0  0
 22 23  1  0  0  0  0
 23 24  2  0  0  0  0
 24 19  1  0  0  0  0
 24 25  1  0  0  0  0
 27 21  1  0  0  0  0
 28 22  1  0  0  0  0
 29 23  1  0  0  0  0
 30 35  1  0  0  0  0
 31 30  2  0  0  0  0
 31 32  1  0  0  0  0
 32 33  2  0  0  0  0
 33 34  1  0  0  0  0
 33  1  1  0  0  0  0
 34 38  1  0  0  0  0
 35 39  1  0  0  0  0
 35 34  2  0  0  0  0
 36 31  1  0  0  0  0
 37 32  1  0  0  0  0
 40 41  1  0  0  0  0
 40 30  1  0  0  0  0
 41 42  1  0  0  0  0
 43 41  1  0  0  0  0
 44 41  1  0  0  0  0
 45 40  1  0  0  0  0
 46 45  1  0  0  0  0
 47 45  1  0  0  0  0
 48 45  1  0  0  0  0
M  END
>  <MODEL>
3

>  <REMARK>
 VINA RESULT:    -6.382      2.395      8.267
 INTER + INTRA:          -8.134
 INTER:                  -7.827
 INTRA:                  -0.307
 UNBOUND:                -0.260
  Name = 
  5 active torsions:
  status: ('A' for Active; 'I' for Inactive)
    1  A    between atoms: C_1  and  N_2
    2  A    between atoms: N_2  and  C_3
    3  A    between atoms: N_2  and  C_4
    4  A    between atoms: C_7  and  C_8
    5  A    between atoms: C_14  and  C_16
                            x       y       z     vdW  Elec       q    Type
                         _______ _______ _______ _____ _____    ______ ____

>  <TORSDO>
F 5

$$$$
=
 OpenBabel07192307433D

 48 50  0  0  0  0  0  0  0  0999 V2000
    1.3670    7.8700   20.6080 C   0  0  0  0  0  0  0  0  0  0  0  0
    1.0090    7.5990   21.7510 O   0  0  0  0  0  0  0  0  0  0  0  0
    1.9050    6.9290   19.7350 N   0  0  0  0  0  0  0  0  0  0  0  0
    1.9410    5.5310   20.1730 C   0  0  0  0  0  0  0  0  0  0  0  0
    2.1270    4.5510   19.0090 C   0  0  0  0  0  0  0  0  0  0  0  0
    3.3030    4.8610   18.1880 N   0  0  0  0  0  0  0  0  0  0  0  0
    3.9430    3.8110   17.5400 C   0  0  0  0  0  0  0  0  0  0  0  0
    3.5830    2.6390   17.6170 O   0  0  0  0  0  0  0  0  0  0  0  0
    3.7690    6.2540   18.2070 C   0  0  0  0  0  0  0  0  0  0  0  0
    2.6420    7.2530   18.5070 C   0  0  0  0  0  0  0  0  0  0  0  0
    1.0220    5.2960   20.7200 H   0  0  0  0  0  0  0  0  0  0  0  0
    2.7780    5.4410   20.8760 H   0  0  0  0  0  0  0  0  0  0  0  0
    1.2610    4.6010   18.3400 H   0  0  0  0  0  0  0  0  0  0  0  0
    2.1910    3.5270   19.3930 H   0  0  0  0  0  0  0  0  0  0  0  0
    4.2430    6.5180   17.2600 H   0  0  0  0  0  0  0  0  0  0  0  0
    4.5360    6.3130   18.9870 H   0  0  0  0  0  0  0  0  0  0  0  0
    3.0600    8.2620   18.5710 H   0  0  0  0  0  0  0  0  0  0  0  0
    1.9120    7.2340   17.6890 H   0  0  0  0  0  0  0  0  0  0  0  0
    5.1550    4.0880   16.7570 C   0  0  0  0  0  0  0  0  0  0  0  0
    5.0800    4.0780   15.3610 C   0  0  0  0  0  0  0  0  0  0  0  0
    6.2190    4.3760   14.6100 C   0  0  0  0  0  0  0  0  0  0  0  0
    7.4200    4.6940   15.2510 C   0  0  0  0  0  0  0  0  0  0  0  0
    7.4830    4.7200   16.6460 C   0  0  0  0  0  0  0  0  0  0  0  0
    6.3460    4.4240   17.3940 C   0  0  0  0  0  0  0  0  0  0  0  0
    6.4270    4.4460   18.7330 F   0  0  0  0  0  0  0  0  0  0  0  0
    4.1400    3.8520   14.8660 H   0  0  0  0  0  0  0  0  0  0  0  0
    6.1680    4.3720   13.5230 H   0  0  0  0  0  0  0  0  0  0  0  0
    8.3020    4.9300   14.6640 H   0  0  0  0  0  0  0  0  0  0  0  0
    8.4080    4.9760   17.1540 H   0  0  0  0  0  0  0  0  0  0  0  0
    0.8860   11.9730   19.3160 C   0  0  0  0  0  0  0  0  0  0  0  0
    1.0130   11.6190   20.6730 C   0  0  0  0  0  0  0  0  0  0  0  0
    1.1620   10.2900   21.0910 C   0  0  0  0  0  0  0  0  0  0  0  0
    1.2160    9.2690   20.1470 C   0  0  0  0  0  0  0  0  0  0  0  0
    1.0810    9.5730   18.7960 C   0  0  0  0  0  0  0  0  0  0  0  0
    0.9330   10.9090   18.3940 C   0  0  0  0  0  0  0  0  0  0  0  0
    0.9940   12.3740   21.4540 H   0  0  0  0  0  0  0  0  0  0  0  0
    1.2370   10.0590   22.1510 H   0  0  0  0  0  0  0  0  0  0  0  0
    1.0810    8.7850   18.0480 H   0  0  0  0  0  0  0  0  0  0  0  0
    0.8490   11.0900   17.3270 H   0  0  0  0  0  0  0  0  0  0  0  0
    0.7610   13.3060   18.9030 N   0  0  0  0  0  0  0  0  0  0  0  0
    1.7720   14.2760   19.3230 C   0  0  0  0  0  0  0  0  0  0  0  0
    2.7170   13.7780   19.5700 H   0  0  0  0  0  0  0  0  0  0  0  0
    1.9430   15.0310   18.5490 H   0  0  0  0  0  0  0  0  0  0  0  0
    1.4470   14.8280   20.2130 H   0  0  0  0  0  0  0  0  0  0  0  0
   -0.5770   13.8540   18.6830 C   0  0  0  0  0  0  0  0  0  0  0  0
   -1.2560   13.5760   19.4970 H   0  0  0  0  0  0  0  0  0  0  0  0
   -0.9910   13.5180   17.7260 H   0  0  0  0  0  0  0  0  0  0  0  0
   -0.5560   14.9480   18.6310 H   0  0  0  0  0  0  0  0  0  0  0  0
  1  2  2  0  0  0  0
  3  4  1  0  0  0  0
  3  1  1  0  0  0  0
  4 11  1  0  0  0  0
  4 12  1  0  0  0  0
  5 14  1  0  0  0  0
  5  4  1  0  0  0  0
  6  9  1  0  0  0  0
  6  5  1  0  0  0  0
  7  8  2  0  0  0  0
  7  6  1  0  0  0  0
  9 10  1  0  0  0  0
  9 16  1  0  0  0  0
 10 17  1  0  0  0  0
 10  3  1  0  0  0  0
 13  5  1  0  0  0  0
 15  9  1  0  0  0  0
 18 10  1  0  0  0  0
 19 24  1  0  0  0  0
 19  7  1  0  0  0  0
 20 19  2  0  0  0  0
 21 22  2  0  0  0  0
 21 20  1  0  0  0  0
 22 23  1  0  0  0  0
 23 29  1  0  0  0  0
 23 24  2  0  0  0  0
 24 25  1  0  0  0  0
 26 20  1  0  0  0  0
 27 21  1  0  0  0  0
 28 22  1  0  0  0  0
 30 31  1  0  0  0  0
 31 32  2  0  0  0  0
 31 36  1  0  0  0  0
 32 37  1  0  0  0  0
 33  1  1  0  0  0  0
 33 32  1  0  0  0  0
 34 33  2  0  0  0  0
 35 34  1  0  0  0  0
 35 30  2  0  0  0  0
 38 34  1  0  0  0  0
 39 35  1  0  0  0  0
 40 30  1  0  0  0  0
 40 41  1  0  0  0  0
 41 42  1  0  0  0  0
 41 44  1  0  0  0  0
 43 41  1  0  0  0  0
 45 40  1  0  0  0  0
 45 46  1  0  0  0  0
 47 45  1  0  0  0  0
 48 45  1  0  0  0  0
M  END
>  <MODEL>
4

>  <REMARK>
 VINA RESULT:    -6.281      0.691      0.693
 INTER + INTRA:          -8.009
 INTER:                  -8.484
 INTRA:                   0.475
 UNBOUND:                -0.260
  Name = 
  5 active torsions:
  status: ('A' for Active; 'I' for Inactive)
    1  A    between atoms: C_1  and  N_2
    2  A    between atoms: N_2  and  C_3
    3  A    between atoms: N_2  and  C_4
    4  A    between atoms: C_7  and  C_8
    5  A    between atoms: C_14  and  C_16
                            x       y       z     vdW  Elec       q    Type
                         _______ _______ _______ _____ _____    ______ ____

>  <TORSDO>
F 5

$$$$
=
 OpenBabel07192307433D

 48 50  0  0  0  0  0  0  0  0999 V2000
    2.6920    5.3090   18.9670 C   0  0  0  0  0  0  0  0  0  0  0  0
    2.2860    4.2710   19.4830 O   0  0  0  0  0  0  0  0  0  0  0  0
    2.3280    6.5750   19.4150 N   0  0  0  0  0  0  0  0  0  0  0  0
    1.5090    6.6640   20.6260 C   0  0  0  0  0  0  0  0  0  0  0  0
    1.5430    8.0570   21.2630 C   0  0  0  0  0  0  0  0  0  0  0  0
    1.1800    9.1220   20.3200 N   0  0  0  0  0  0  0  0  0  0  0  0
    0.5810   10.2690   20.8280 C   0  0  0  0  0  0  0  0  0  0  0  0
    0.3370   10.4420   22.0200 O   0  0  0  0  0  0  0  0  0  0  0  0
    1.3870    8.8350   18.8940 C   0  0  0  0  0  0  0  0  0  0  0  0
    2.5090    7.8160   18.6500 C   0  0  0  0  0  0  0  0  0  0  0  0
    1.8430    5.9110   21.3480 H   0  0  0  0  0  0  0  0  0  0  0  0
    0.4830    6.4100   20.3340 H   0  0  0  0  0  0  0  0  0  0  0  0
    2.5580    8.2830   21.6080 H   0  0  0  0  0  0  0  0  0  0  0  0
    0.8830    8.0820   22.1370 H   0  0  0  0  0  0  0  0  0  0  0  0
    1.6040    9.7510   18.3420 H   0  0  0  0  0  0  0  0  0  0  0  0
    0.4370    8.4400   18.5170 H   0  0  0  0  0  0  0  0  0  0  0  0
    2.5720    7.5960   17.5800 H   0  0  0  0  0  0  0  0  0  0  0  0
    3.4660    8.2450   18.9710 H   0  0  0  0  0  0  0  0  0  0  0  0
    0.1580   11.3250   19.8980 C   0  0  0  0  0  0  0  0  0  0  0  0
   -1.0970   11.2330   19.2890 C   0  0  0  0  0  0  0  0  0  0  0  0
   -1.5210   12.2500   18.4330 C   0  0  0  0  0  0  0  0  0  0  0  0
   -0.7000   13.3580   18.1980 C   0  0  0  0  0  0  0  0  0  0  0  0
    0.5440   13.4530   18.8250 C   0  0  0  0  0  0  0  0  0  0  0  0
    0.9650   12.4370   19.6800 C   0  0  0  0  0  0  0  0  0  0  0  0
    2.1670   12.5420   20.2680 F   0  0  0  0  0  0  0  0  0  0  0  0
   -1.7410   10.3810   19.4910 H   0  0  0  0  0  0  0  0  0  0  0  0
   -2.4970   12.1860   17.9550 H   0  0  0  0  0  0  0  0  0  0  0  0
   -1.0360   14.1510   17.5350 H   0  0  0  0  0  0  0  0  0  0  0  0
    1.1840   14.3140   18.6570 H   0  0  0  0  0  0  0  0  0  0  0  0
    5.3980    4.9140   15.6110 C   0  0  0  0  0  0  0  0  0  0  0  0
    4.6490    3.8300   16.1090 C   0  0  0  0  0  0  0  0  0  0  0  0
    3.7790    3.9570   17.2000 C   0  0  0  0  0  0  0  0  0  0  0  0
    3.6110    5.1950   17.8120 C   0  0  0  0  0  0  0  0  0  0  0  0
    4.3410    6.2900   17.3600 C   0  0  0  0  0  0  0  0  0  0  0  0
    5.2090    6.1460   16.2670 C   0  0  0  0  0  0  0  0  0  0  0  0
    4.7270    2.8420   15.6620 H   0  0  0  0  0  0  0  0  0  0  0  0
    3.2350    3.0880   17.5640 H   0  0  0  0  0  0  0  0  0  0  0  0
    4.2530    7.2550   17.8510 H   0  0  0  0  0  0  0  0  0  0  0  0
    5.7410    7.0370   15.9460 H   0  0  0  0  0  0  0  0  0  0  0  0
    6.2490    4.7860   14.5060 N   0  0  0  0  0  0  0  0  0  0  0  0
    6.0010    3.7140   13.5420 C   0  0  0  0  0  0  0  0  0  0  0  0
    4.9270    3.5470   13.4060 H   0  0  0  0  0  0  0  0  0  0  0  0
    6.4660    3.9360   12.5750 H   0  0  0  0  0  0  0  0  0  0  0  0
    6.4450    2.7690   13.8760 H   0  0  0  0  0  0  0  0  0  0  0  0
    7.6470    5.1950   14.6400 C   0  0  0  0  0  0  0  0  0  0  0  0
    8.3020    4.5650   14.0280 H   0  0  0  0  0  0  0  0  0  0  0  0
    7.9720    5.1590   15.6850 H   0  0  0  0  0  0  0  0  0  0  0  0
    7.7910    6.2320   14.3180 H   0  0  0  0  0  0  0  0  0  0  0  0
  1  3  1  0  0  0  0
  1  2  2  0  0  0  0
  3  4  1  0  0  0  0
  4  5  1  0  0  0  0
  4 11  1  0  0  0  0
  5 13  1  0  0  0  0
  5 14  1  0  0  0  0
  6  7  1  0  0  0  0
  6  5  1  0  0  0  0
  7  8  2  0  0  0  0
  9  6  1  0  0  0  0
 10  9  1  0  0  0  0
 10 18  1  0  0  0  0
 10  3  1  0  0  0  0
 12  4  1  0  0  0  0
 15  9  1  0  0  0  0
 16  9  1  0  0  0  0
 17 10  1  0  0  0  0
 19  7  1  0  0  0  0
 20 26  1  0  0  0  0
 20 19  2  0  0  0  0
 21 20  1  0  0  0  0
 22 21  2  0  0  0  0
 22 23  1  0  0  0  0
 23 24  2  0  0  0  0
 24 19  1  0  0  0  0
 24 25  1  0  0  0  0
 27 21  1  0  0  0  0
 28 22  1  0  0  0  0
 29 23  1  0  0  0  0
 30 31  2  0  0  0  0
 30 35  1  0  0  0  0
 31 32  1  0  0  0  0
 32 37  1  0  0  0  0
 32 33  2  0  0  0  0
 33  1  1  0  0  0  0
 34 33  1  0  0  0  0
 34 38  1  0  0  0  0
 35 34  2  0  0  0  0
 36 31  1  0  0  0  0
 39 35  1  0  0  0  0
 40 45  1  0  0  0  0
 40 30  1  0  0  0  0
 41 44  1  0  0  0  0
 41 40  1  0  0  0  0
 42 41  1  0  0  0  0
 43 41  1  0  0  0  0
 45 47  1  0  0  0  0
 46 45  1  0  0  0  0
 48 45  1  0  0  0  0
M  END
>  <MODEL>
5

>  <REMARK>
 VINA RESULT:    -6.241      2.447      8.315
 INTER + INTRA:          -7.960
 INTER:                  -8.433
 INTRA:                   0.472
 UNBOUND:                -0.260
  Name = 
  5 active torsions:
  status: ('A' for Active; 'I' for Inactive)
    1  A    between atoms: C_1  and  N_2
    2  A    between atoms: N_2  and  C_3
    3  A    between atoms: N_2  and  C_4
    4  A    between atoms: C_7  and  C_8
    5  A    between atoms: C_14  and  C_16
                            x       y       z     vdW  Elec       q    Type
                         _______ _______ _______ _____ _____    ______ ____

>  <TORSDO>
F 5

$$$$
=
 OpenBabel07192307433D

 48 50  0  0  0  0  0  0  0  0999 V2000
    0.8520    8.3450   21.0310 C   0  0  0  0  0  0  0  0  0  0  0  0
    0.3700    8.1720   22.1470 O   0  0  0  0  0  0  0  0  0  0  0  0
    1.4880    7.3380   20.3110 N   0  0  0  0  0  0  0  0  0  0  0  0
    1.4800    5.9850   20.8740 C   0  0  0  0  0  0  0  0  0  0  0  0
    1.7980    4.9080   19.8310 C   0  0  0  0  0  0  0  0  0  0  0  0
    3.0570    5.1600   19.1200 N   0  0  0  0  0  0  0  0  0  0  0  0
    3.7700    4.0650   18.6440 C   0  0  0  0  0  0  0  0  0  0  0  0
    3.4070    2.9000   18.7860 O   0  0  0  0  0  0  0  0  0  0  0  0
    3.5130    6.5560   19.0650 C   0  0  0  0  0  0  0  0  0  0  0  0
    2.3550    7.5620   19.1480 C   0  0  0  0  0  0  0  0  0  0  0  0
    0.5060    5.7870   21.3360 H   0  0  0  0  0  0  0  0  0  0  0  0
    2.2340    5.9690   21.6710 H   0  0  0  0  0  0  0  0  0  0  0  0
    1.0120    4.8870   19.0680 H   0  0  0  0  0  0  0  0  0  0  0  0
    1.8230    3.9240   20.3100 H   0  0  0  0  0  0  0  0  0  0  0  0
    4.0880    6.7410   18.1560 H   0  0  0  0  0  0  0  0  0  0  0  0
    4.1880    6.6950   19.9170 H   0  0  0  0  0  0  0  0  0  0  0  0
    2.7600    8.5780   19.1670 H   0  0  0  0  0  0  0  0  0  0  0  0
    1.7210    7.4600   18.2590 H   0  0  0  0  0  0  0  0  0  0  0  0
    5.0600    4.2890   17.9780 C   0  0  0  0  0  0  0  0  0  0  0  0
    6.1900    4.5600   18.7560 C   0  0  0  0  0  0  0  0  0  0  0  0
    7.4270    4.7370   18.1330 C   0  0  0  0  0  0  0  0  0  0  0  0
    7.5340    4.6310   16.7430 C   0  0  0  0  0  0  0  0  0  0  0  0
    6.4060    4.3410   15.9740 C   0  0  0  0  0  0  0  0  0  0  0  0
    5.1720    4.1630   16.5970 C   0  0  0  0  0  0  0  0  0  0  0  0
    4.0970    3.8930   15.8410 F   0  0  0  0  0  0  0  0  0  0  0  0
    6.1070    4.6200   19.8380 H   0  0  0  0  0  0  0  0  0  0  0  0
    8.3100    4.9470   18.7320 H   0  0  0  0  0  0  0  0  0  0  0  0
    8.4990    4.7640   16.2620 H   0  0  0  0  0  0  0  0  0  0  0  0
    6.4800    4.2460   14.8940 H   0  0  0  0  0  0  0  0  0  0  0  0
    0.5390   12.3190   19.3450 C   0  0  0  0  0  0  0  0  0  0  0  0
    1.1990   12.0660   20.5630 C   0  0  0  0  0  0  0  0  0  0  0  0
    1.2940   10.7800   21.1110 C   0  0  0  0  0  0  0  0  0  0  0  0
    0.7470    9.6950   20.4330 C   0  0  0  0  0  0  0  0  0  0  0  0
    0.0750    9.9030   19.2320 C   0  0  0  0  0  0  0  0  0  0  0  0
   -0.0120   11.1960   18.6960 C   0  0  0  0  0  0  0  0  0  0  0  0
    1.6580   12.8710   21.1300 H   0  0  0  0  0  0  0  0  0  0  0  0
    1.7960   10.6320   22.0640 H   0  0  0  0  0  0  0  0  0  0  0  0
   -0.3920    9.0730   18.7090 H   0  0  0  0  0  0  0  0  0  0  0  0
   -0.5330   11.2980   17.7500 H   0  0  0  0  0  0  0  0  0  0  0  0
    0.4680   13.6030   18.7900 N   0  0  0  0  0  0  0  0  0  0  0  0
    1.7050   14.2690   18.3820 C   0  0  0  0  0  0  0  0  0  0  0  0
    2.3400   13.5950   17.7960 H   0  0  0  0  0  0  0  0  0  0  0  0
    1.4950   15.1750   17.8040 H   0  0  0  0  0  0  0  0  0  0  0  0
    2.2840   14.5980   19.2520 H   0  0  0  0  0  0  0  0  0  0  0  0
   -0.6120   14.4960   19.2120 C   0  0  0  0  0  0  0  0  0  0  0  0
   -0.8870   14.3150   20.2570 H   0  0  0  0  0  0  0  0  0  0  0  0
   -1.4940   14.3810   18.5730 H   0  0  0  0  0  0  0  0  0  0  0  0
   -0.3160   15.5470   19.1270 H   0  0  0  0  0  0  0  0  0  0  0  0
  1  2  2  0  0  0  0
  3  4  1  0  0  0  0
  3  1  1  0  0  0  0
  4 11  1  0  0  0  0
  4 12  1  0  0  0  0
  5 14  1  0  0  0  0
  5  4  1  0  0  0  0
  6  5  1  0  0  0  0
  7  8  2  0  0  0  0
  7  6  1  0  0  0  0
  9  6  1  0  0  0  0
  9 10  1  0  0  0  0
  9 16  1  0  0  0  0
 10 17  1  0  0  0  0
 10  3  1  0  0  0  0
 13  5  1  0  0  0  0
 15  9  1  0  0  0  0
 18 10  1  0  0  0  0
 19  7  1  0  0  0  0
 19 20  1  0  0  0  0
 20 26  1  0  0  0  0
 21 27  1  0  0  0  0
 21 20  2  0  0  0  0
 22 21  1  0  0  0  0
 23 24  1  0  0  0  0
 23 22  2  0  0  0  0
 24 19  2  0  0  0  0
 25 24  1  0  0  0  0
 28 22  1  0  0  0  0
 29 23  1  0  0  0  0
 30 31  1  0  0  0  0
 31 32  2  0  0  0  0
 31 36  1  0  0  0  0
 32 37  1  0  0  0  0
 33  1  1  0  0  0  0
 33 32  1  0  0  0  0
 34 33  2  0  0  0  0
 35 34  1  0  0  0  0
 35 30  2  0  0  0  0
 38 34  1  0  0  0  0
 39 35  1  0  0  0  0
 40 45  1  0  0  0  0
 40 30  1  0  0  0  0
 41 40  1  0  0  0  0
 41 44  1  0  0  0  0
 42 41  1  0  0  0  0
 43 41  1  0  0  0  0
 45 46  1  0  0  0  0
 47 45  1  0  0  0  0
 48 45  1  0  0  0  0
M  END
>  <MODEL>
6

>  <REMARK>
 VINA RESULT:    -6.236      0.923      1.324
 INTER + INTRA:          -7.954
 INTER:                  -7.808
 INTRA:                  -0.146
 UNBOUND:                -0.260
  Name = 
  5 active torsions:
  status: ('A' for Active; 'I' for Inactive)
    1  A    between atoms: C_1  and  N_2
    2  A    between atoms: N_2  and  C_3
    3  A    between atoms: N_2  and  C_4
    4  A    between atoms: C_7  and  C_8
    5  A    between atoms: C_14  and  C_16
                            x       y       z     vdW  Elec       q    Type
                         _______ _______ _______ _____ _____    ______ ____

>  <TORSDO>
F 5

$$$$
=
 OpenBabel07192307433D

 48 50  0  0  0  0  0  0  0  0999 V2000
    0.2070   11.4710   19.0050 C   0  0  0  0  0  0  0  0  0  0  0  0
    0.0450   12.1210   17.9760 O   0  0  0  0  0  0  0  0  0  0  0  0
    0.9200   10.2760   19.0460 N   0  0  0  0  0  0  0  0  0  0  0  0
    1.5960    9.8400   17.8210 C   0  0  0  0  0  0  0  0  0  0  0  0
    2.6820    8.7920   18.0860 C   0  0  0  0  0  0  0  0  0  0  0  0
    2.1820    7.6330   18.8350 N   0  0  0  0  0  0  0  0  0  0  0  0
    2.7980    6.4040   18.6260 C   0  0  0  0  0  0  0  0  0  0  0  0
    3.7350    6.2320   17.8510 O   0  0  0  0  0  0  0  0  0  0  0  0
    0.9930    7.8530   19.6700 C   0  0  0  0  0  0  0  0  0  0  0  0
    0.8640    9.3070   20.1480 C   0  0  0  0  0  0  0  0  0  0  0  0
    2.0280   10.7100   17.3140 H   0  0  0  0  0  0  0  0  0  0  0  0
    0.8240    9.4230   17.1640 H   0  0  0  0  0  0  0  0  0  0  0  0
    3.4810    9.2310   18.6940 H   0  0  0  0  0  0  0  0  0  0  0  0
    3.1250    8.4690   17.1380 H   0  0  0  0  0  0  0  0  0  0  0  0
    0.9970    7.1880   20.5350 H   0  0  0  0  0  0  0  0  0  0  0  0
    0.1270    7.5870   19.0530 H   0  0  0  0  0  0  0  0  0  0  0  0
   -0.0690    9.4230   20.7080 H   0  0  0  0  0  0  0  0  0  0  0  0
    1.7000    9.5450   20.8170 H   0  0  0  0  0  0  0  0  0  0  0  0
    2.2790    5.2180   19.3230 C   0  0  0  0  0  0  0  0  0  0  0  0
    2.5560    5.0530   20.6830 C   0  0  0  0  0  0  0  0  0  0  0  0
    2.0370    3.9480   21.3600 C   0  0  0  0  0  0  0  0  0  0  0  0
    1.2360    3.0230   20.6840 C   0  0  0  0  0  0  0  0  0  0  0  0
    0.9480    3.2040   19.3290 C   0  0  0  0  0  0  0  0  0  0  0  0
    1.4660    4.3080   18.6550 C   0  0  0  0  0  0  0  0  0  0  0  0
    1.1850    4.4620   17.3530 F   0  0  0  0  0  0  0  0  0  0  0  0
    3.1600    5.7860   21.2110 H   0  0  0  0  0  0  0  0  0  0  0  0
    2.2470    3.8130   22.4200 H   0  0  0  0  0  0  0  0  0  0  0  0
    0.8290    2.1670   21.2150 H   0  0  0  0  0  0  0  0  0  0  0  0
    0.3190    2.4970   18.7970 H   0  0  0  0  0  0  0  0  0  0  0  0
   -1.6020   13.0030   22.6270 C   0  0  0  0  0  0  0  0  0  0  0  0
   -2.3290   12.2640   21.6740 C   0  0  0  0  0  0  0  0  0  0  0  0
   -1.7450   11.7740   20.4980 C   0  0  0  0  0  0  0  0  0  0  0  0
   -0.3920   11.9900   20.2560 C   0  0  0  0  0  0  0  0  0  0  0  0
    0.3610   12.7260   21.1650 C   0  0  0  0  0  0  0  0  0  0  0  0
   -0.2390   13.2100   22.3360 C   0  0  0  0  0  0  0  0  0  0  0  0
   -3.3850   12.0500   21.8170 H   0  0  0  0  0  0  0  0  0  0  0  0
   -2.3490   11.2240   19.7800 H   0  0  0  0  0  0  0  0  0  0  0  0
    1.4090   12.9390   20.9720 H   0  0  0  0  0  0  0  0  0  0  0  0
    0.3990   13.7640   23.0180 H   0  0  0  0  0  0  0  0  0  0  0  0
   -2.1860   13.4690   23.8110 N   0  0  0  0  0  0  0  0  0  0  0  0
   -3.5780   13.1260   24.0980 C   0  0  0  0  0  0  0  0  0  0  0  0
   -4.0190   13.8300   24.8120 H   0  0  0  0  0  0  0  0  0  0  0  0
   -4.1780   13.1040   23.1820 H   0  0  0  0  0  0  0  0  0  0  0  0
   -3.6580   12.1210   24.5300 H   0  0  0  0  0  0  0  0  0  0  0  0
   -1.7290   14.7420   24.3710 C   0  0  0  0  0  0  0  0  0  0  0  0
   -0.6380   14.8280   24.3120 H   0  0  0  0  0  0  0  0  0  0  0  0
   -2.0520   14.8570   25.4100 H   0  0  0  0  0  0  0  0  0  0  0  0
   -2.1570   15.5920   23.8290 H   0  0  0  0  0  0  0  0  0  0  0  0
  1  3  1  0  0  0  0
  1 33  1  0  0  0  0
  2  1  2  0  0  0  0
  3 10  1  0  0  0  0
  4  5  1  0  0  0  0
  4  3  1  0  0  0  0
  5 13  1  0  0  0  0
  5  6  1  0  0  0  0
  6  9  1  0  0  0  0
  7  6  1  0  0  0  0
  7 19  1  0  0  0  0
  8  7  2  0  0  0  0
  9 10  1  0  0  0  0
  9 15  1  0  0  0  0
 10 17  1  0  0  0  0
 10 18  1  0  0  0  0
 11  4  1  0  0  0  0
 12  4  1  0  0  0  0
 14  5  1  0  0  0  0
 16  9  1  0  0  0  0
 19 20  1  0  0  0  0
 20 26  1  0  0  0  0
 20 21  2  0  0  0  0
 21 27  1  0  0  0  0
 22 28  1  0  0  0  0
 22 21  1  0  0  0  0
 23 22  2  0  0  0  0
 24 19  2  0  0  0  0
 24 23  1  0  0  0  0
 25 24  1  0  0  0  0
 29 23  1  0  0  0  0
 30 40  1  0  0  0  0
 31 36  1  0  0  0  0
 31 30  2  0  0  0  0
 32 31  1  0  0  0  0
 33 32  2  0  0  0  0
 33 34  1  0  0  0  0
 34 35  2  0  0  0  0
 35 30  1  0  0  0  0
 35 39  1  0  0  0  0
 37 32  1  0  0  0  0
 38 34  1  0  0  0  0
 40 41  1  0  0  0  0
 40 45  1  0  0  0  0
 41 44  1  0  0  0  0
 41 42  1  0  0  0  0
 43 41  1  0  0  0  0
 45 47  1  0  0  0  0
 46 45  1  0  0  0  0
 48 45  1  0  0  0  0
M  END
>  <MODEL>
7

>  <REMARK>
 VINA RESULT:    -6.228      3.093      4.774
 INTER + INTRA:          -7.945
 INTER:                  -7.589
 INTRA:                  -0.355
 UNBOUND:                -0.260
  Name = 
  5 active torsions:
  status: ('A' for Active; 'I' for Inactive)
    1  A    between atoms: C_1  and  N_2
    2  A    between atoms: N_2  and  C_3
    3  A    between atoms: N_2  and  C_4
    4  A    between atoms: C_7  and  C_8
    5  A    between atoms: C_14  and  C_16
                            x       y       z     vdW  Elec       q    Type
                         _______ _______ _______ _____ _____    ______ ____

>  <TORSDO>
F 5

$$$$
=
 OpenBabel07192307433D

 48 50  0  0  0  0  0  0  0  0999 V2000
    3.2910    5.2460   19.3850 C   0  0  0  0  0  0  0  0  0  0  0  0
    3.1660    4.3000   20.1590 O   0  0  0  0  0  0  0  0  0  0  0  0
    2.6700    6.4750   19.5810 N   0  0  0  0  0  0  0  0  0  0  0  0
    1.9230    6.6760   20.8260 C   0  0  0  0  0  0  0  0  0  0  0  0
    1.6700    8.1560   21.1320 C   0  0  0  0  0  0  0  0  0  0  0  0
    1.0170    8.8620   20.0240 N   0  0  0  0  0  0  0  0  0  0  0  0
    0.1990    9.9430   20.3300 C   0  0  0  0  0  0  0  0  0  0  0  0
   -0.0100   10.3410   21.4740 O   0  0  0  0  0  0  0  0  0  0  0  0
    1.2010    8.2930   18.6820 C   0  0  0  0  0  0  0  0  0  0  0  0
    2.5140    7.5070   18.5470 C   0  0  0  0  0  0  0  0  0  0  0  0
    2.4640    6.2060   21.6550 H   0  0  0  0  0  0  0  0  0  0  0  0
    0.9690    6.1480   20.7110 H   0  0  0  0  0  0  0  0  0  0  0  0
    2.6240    8.6670   21.3050 H   0  0  0  0  0  0  0  0  0  0  0  0
    1.0730    8.2480   22.0460 H   0  0  0  0  0  0  0  0  0  0  0  0
    1.1680    9.0750   17.9220 H   0  0  0  0  0  0  0  0  0  0  0  0
    0.3490    7.6270   18.5080 H   0  0  0  0  0  0  0  0  0  0  0  0
    2.5640    7.0560   17.5510 H   0  0  0  0  0  0  0  0  0  0  0  0
    3.3610    8.1930   18.6580 H   0  0  0  0  0  0  0  0  0  0  0  0
   -0.5110   10.6320   19.2430 C   0  0  0  0  0  0  0  0  0  0  0  0
   -1.5770    9.9860   18.6100 C   0  0  0  0  0  0  0  0  0  0  0  0
   -2.2790   10.6480   17.6010 C   0  0  0  0  0  0  0  0  0  0  0  0
   -1.9240   11.9510   17.2370 C   0  0  0  0  0  0  0  0  0  0  0  0
   -0.8700   12.5970   17.8860 C   0  0  0  0  0  0  0  0  0  0  0  0
   -0.1720   11.9360   18.8940 C   0  0  0  0  0  0  0  0  0  0  0  0
    0.8430   12.5690   19.5020 F   0  0  0  0  0  0  0  0  0  0  0  0
   -1.8640    8.9820   18.9100 H   0  0  0  0  0  0  0  0  0  0  0  0
   -3.1110   10.1530   17.1040 H   0  0  0  0  0  0  0  0  0  0  0  0
   -2.4760   12.4650   16.4550 H   0  0  0  0  0  0  0  0  0  0  0  0
   -0.5940   13.6120   17.6190 H   0  0  0  0  0  0  0  0  0  0  0  0
    5.7710    4.6240   15.8930 C   0  0  0  0  0  0  0  0  0  0  0  0
    4.6010    3.8780   16.1300 C   0  0  0  0  0  0  0  0  0  0  0  0
    3.8020    4.0750   17.2640 C   0  0  0  0  0  0  0  0  0  0  0  0
    4.1430    5.0560   18.1900 C   0  0  0  0  0  0  0  0  0  0  0  0
    5.2990    5.8080   18.0010 C   0  0  0  0  0  0  0  0  0  0  0  0
    6.0880    5.5980   16.8610 C   0  0  0  0  0  0  0  0  0  0  0  0
    4.2760    3.1090   15.4350 H   0  0  0  0  0  0  0  0  0  0  0  0
    2.9160    3.4630   17.4170 H   0  0  0  0  0  0  0  0  0  0  0  0
    5.6020    6.5510   18.7340 H   0  0  0  0  0  0  0  0  0  0  0  0
    6.9690    6.2230   16.7560 H   0  0  0  0  0  0  0  0  0  0  0  0
    6.5530    4.4380   14.7460 N   0  0  0  0  0  0  0  0  0  0  0  0
    7.5860    5.4220   14.4250 C   0  0  0  0  0  0  0  0  0  0  0  0
    8.0270    5.8410   15.3360 H   0  0  0  0  0  0  0  0  0  0  0  0
    8.3720    4.9830   13.8010 H   0  0  0  0  0  0  0  0  0  0  0  0
    7.1740    6.2550   13.8430 H   0  0  0  0  0  0  0  0  0  0  0  0
    5.9660    3.7510   13.5950 C   0  0  0  0  0  0  0  0  0  0  0  0
    5.0710    4.2740   13.2380 H   0  0  0  0  0  0  0  0  0  0  0  0
    5.7140    2.7140   13.8390 H   0  0  0  0  0  0  0  0  0  0  0  0
    6.6720    3.6990   12.7590 H   0  0  0  0  0  0  0  0  0  0  0  0
  1  3  1  0  0  0  0
  1  2  2  0  0  0  0
  3  4  1  0  0  0  0
  4  5  1  0  0  0  0
  4 11  1  0  0  0  0
  5 13  1  0  0  0  0
  5 14  1  0  0  0  0
  6  7  1  0  0  0  0
  6  5  1  0  0  0  0
  7  8  2  0  0  0  0
  9  6  1  0  0  0  0
 10 18  1  0  0  0  0
 10  9  1  0  0  0  0
 10  3  1  0  0  0  0
 12  4  1  0  0  0  0
 15  9  1  0  0  0  0
 16  9  1  0  0  0  0
 17 10  1  0  0  0  0
 19  7  1  0  0  0  0
 20 26  1  0  0  0  0
 20 19  2  0  0  0  0
 21 20  1  0  0  0  0
 22 21  2  0  0  0  0
 22 23  1  0  0  0  0
 23 24  2  0  0  0  0
 24 19  1  0  0  0  0
 24 25  1  0  0  0  0
 27 21  1  0  0  0  0
 28 22  1  0  0  0  0
 29 23  1  0  0  0  0
 30 31  2  0  0  0  0
 30 35  1  0  0  0  0
 31 32  1  0  0  0  0
 32 37  1  0  0  0  0
 32 33  2  0  0  0  0
 33  1  1  0  0  0  0
 34 33  1  0  0  0  0
 34 38  1  0  0  0  0
 35 34  2  0  0  0  0
 36 31  1  0  0  0  0
 39 35  1  0  0  0  0
 40 30  1  0  0  0  0
 41 40  1  0  0  0  0
 41 42  1  0  0  0  0
 43 41  1  0  0  0  0
 44 41  1  0  0  0  0
 45 47  1  0  0  0  0
 45 40  1  0  0  0  0
 46 45  1  0  0  0  0
 48 45  1  0  0  0  0
M  END
>  <MODEL>
8

>  <REMARK>
 VINA RESULT:    -5.842      2.636      8.318
 INTER + INTRA:          -7.468
 INTER:                  -7.370
 INTRA:                  -0.098
 UNBOUND:                -0.260
  Name = 
  5 active torsions:
  status: ('A' for Active; 'I' for Inactive)
    1  A    between atoms: C_1  and  N_2
    2  A    between atoms: N_2  and  C_3
    3  A    between atoms: N_2  and  C_4
    4  A    between atoms: C_7  and  C_8
    5  A    between atoms: C_14  and  C_16
                            x       y       z     vdW  Elec       q    Type
                         _______ _______ _______ _____ _____    ______ ____

>  <TORSDO>
F 5

$$$$
=
 OpenBabel07192307433D

 48 50  0  0  0  0  0  0  0  0999 V2000
    2.4870    8.1930   18.4470 C   0  0  0  0  0  0  0  0  0  0  0  0
    3.5370    8.3940   17.8420 O   0  0  0  0  0  0  0  0  0  0  0  0
    1.5560    9.1940   18.7090 N   0  0  0  0  0  0  0  0  0  0  0  0
    1.7980   10.5210   18.1370 C   0  0  0  0  0  0  0  0  0  0  0  0
    0.5380   11.3920   18.1080 C   0  0  0  0  0  0  0  0  0  0  0  0
   -0.1020   11.5100   19.4240 N   0  0  0  0  0  0  0  0  0  0  0  0
   -0.8150   12.6700   19.7020 C   0  0  0  0  0  0  0  0  0  0  0  0
   -0.9400   13.6020   18.9120 O   0  0  0  0  0  0  0  0  0  0  0  0
    0.1590   10.4260   20.3810 C   0  0  0  0  0  0  0  0  0  0  0  0
    0.4710    9.0890   19.6930 C   0  0  0  0  0  0  0  0  0  0  0  0
    2.2060   10.4140   17.1260 H   0  0  0  0  0  0  0  0  0  0  0  0
    2.5690   10.9970   18.7570 H   0  0  0  0  0  0  0  0  0  0  0  0
   -0.2080   10.9440   17.4420 H   0  0  0  0  0  0  0  0  0  0  0  0
    0.7810   12.3840   17.7140 H   0  0  0  0  0  0  0  0  0  0  0  0
   -0.6860   10.2950   21.0590 H   0  0  0  0  0  0  0  0  0  0  0  0
    1.0180   10.7440   20.9830 H   0  0  0  0  0  0  0  0  0  0  0  0
    0.7180    8.3400   20.4520 H   0  0  0  0  0  0  0  0  0  0  0  0
   -0.4160    8.7460   19.1470 H   0  0  0  0  0  0  0  0  0  0  0  0
   -1.4180   12.8360   21.0330 C   0  0  0  0  0  0  0  0  0  0  0  0
   -0.6260   13.3060   22.0840 C   0  0  0  0  0  0  0  0  0  0  0  0
   -1.2000   13.5010   23.3420 C   0  0  0  0  0  0  0  0  0  0  0  0
   -2.5580   13.2390   23.5420 C   0  0  0  0  0  0  0  0  0  0  0  0
   -3.3480   12.7870   22.4820 C   0  0  0  0  0  0  0  0  0  0  0  0
   -2.7740   12.5950   21.2270 C   0  0  0  0  0  0  0  0  0  0  0  0
   -3.5460   12.1530   20.2230 F   0  0  0  0  0  0  0  0  0  0  0  0
    0.4250   13.5300   21.9200 H   0  0  0  0  0  0  0  0  0  0  0  0
   -0.5900   13.8670   24.1660 H   0  0  0  0  0  0  0  0  0  0  0  0
   -3.0030   13.3960   24.5210 H   0  0  0  0  0  0  0  0  0  0  0  0
   -4.4060   12.5910   22.6240 H   0  0  0  0  0  0  0  0  0  0  0  0
    1.6380    4.1590   19.7680 C   0  0  0  0  0  0  0  0  0  0  0  0
    1.8290    4.4850   18.4110 C   0  0  0  0  0  0  0  0  0  0  0  0
    2.0970    5.7920   17.9840 C   0  0  0  0  0  0  0  0  0  0  0  0
    2.2100    6.8170   18.9180 C   0  0  0  0  0  0  0  0  0  0  0  0
    2.0160    6.5420   20.2680 C   0  0  0  0  0  0  0  0  0  0  0  0
    1.7480    5.2280   20.6800 C   0  0  0  0  0  0  0  0  0  0  0  0
    1.7680    3.7230   17.6390 H   0  0  0  0  0  0  0  0  0  0  0  0
    2.2180    6.0020   16.9240 H   0  0  0  0  0  0  0  0  0  0  0  0
    2.0610    7.3370   21.0070 H   0  0  0  0  0  0  0  0  0  0  0  0
    1.6220    5.0680   21.7460 H   0  0  0  0  0  0  0  0  0  0  0  0
    1.3940    2.8470   20.1920 N   0  0  0  0  0  0  0  0  0  0  0  0
    1.5730    2.5130   21.6040 C   0  0  0  0  0  0  0  0  0  0  0  0
    0.7200    2.8560   22.2010 H   0  0  0  0  0  0  0  0  0  0  0  0
    1.7120    1.4350   21.7430 H   0  0  0  0  0  0  0  0  0  0  0  0
    2.4740    2.9850   22.0130 H   0  0  0  0  0  0  0  0  0  0  0  0
    1.6290    1.7470   19.2550 C   0  0  0  0  0  0  0  0  0  0  0  0
    0.9580    1.8160   18.3920 H   0  0  0  0  0  0  0  0  0  0  0  0
    1.5020    0.7760   19.7450 H   0  0  0  0  0  0  0  0  0  0  0  0
    2.6570    1.7600   18.8760 H   0  0  0  0  0  0  0  0  0  0  0  0
  1  3  1  0  0  0  0
  1 33  1  0  0  0  0
  2  1  2  0  0  0  0
  3 10  1  0  0  0  0
  4  3  1  0  0  0  0
  4 12  1  0  0  0  0
  5  4  1  0  0  0  0
  5  6  1  0  0  0  0
  6  7  1  0  0  0  0
  6  9  1  0  0  0  0
  7 19  1  0  0  0  0
  8  7  2  0  0  0  0
  9 16  1  0  0  0  0
  9 15  1  0  0  0  0
 10  9  1  0  0  0  0
 10 17  1  0  0  0  0
 11  4  1  0  0  0  0
 13  5  1  0  0  0  0
 14  5  1  0  0  0  0
 18 10  1  0  0  0  0
 19 24  2  0  0  0  0
 19 20  1  0  0  0  0
 20 21  2  0  0  0  0
 21 22  1  0  0  0  0
 21 27  1  0  0  0  0
 22 28  1  0  0  0  0
 23 29  1  0  0  0  0
 23 22  2  0  0  0  0
 24 23  1  0  0  0  0
 25 24  1  0  0  0  0
 26 20  1  0  0  0  0
 30 40  1  0  0  0  0
 30 35  1  0  0  0  0
 31 30  2  0  0  0  0
 32 31  1  0  0  0  0
 32 33  2  0  0  0  0
 33 34  1  0  0  0  0
 34 35  2  0  0  0  0
 34 38  1  0  0  0  0
 35 39  1  0  0  0  0
 36 31  1  0  0  0  0
 37 32  1  0  0  0  0
 40 41  1  0  0  0  0
 41 43  1  0  0  0  0
 41 44  1  0  0  0  0
 41 42  1  0  0  0  0
 45 47  1  0  0  0  0
 45 40  1  0  0  0  0
 46 45  1  0  0  0  0
 48 45  1  0  0  0  0
M  END
>  <MODEL>
9

>  <REMARK>
 VINA RESULT:    -5.820      3.880      9.419
 INTER + INTRA:          -7.441
 INTER:                  -7.448
 INTRA:                   0.007
 UNBOUND:                -0.260
  Name = 
  5 active torsions:
  status: ('A' for Active; 'I' for Inactive)
    1  A    between atoms: C_1  and  N_2
    2  A    between atoms: N_2  and  C_3
    3  A    between atoms: N_2  and  C_4
    4  A    between atoms: C_7  and  C_8
    5  A    between atoms: C_14  and  C_16
                            x       y       z     vdW  Elec       q    Type
                         _______ _______ _______ _____ _____    ______ ____

>  <TORSDO>
F 5

$$$$
=
 OpenBabel07192307433D

 48 50  0  0  0  0  0  0  0  0999 V2000
   -0.1610   11.9070   19.3800 C   0  0  0  0  0  0  0  0  0  0  0  0
   -0.2100   12.7060   18.4480 O   0  0  0  0  0  0  0  0  0  0  0  0
    0.5800   10.7290   19.3340 N   0  0  0  0  0  0  0  0  0  0  0  0
    1.4230   10.4950   18.1590 C   0  0  0  0  0  0  0  0  0  0  0  0
    2.4980    9.4320   18.4040 C   0  0  0  0  0  0  0  0  0  0  0  0
    1.9440    8.1660   18.8970 N   0  0  0  0  0  0  0  0  0  0  0  0
    2.6210    6.9910   18.5890 C   0  0  0  0  0  0  0  0  0  0  0  0
    3.6550    6.9520   17.9280 O   0  0  0  0  0  0  0  0  0  0  0  0
    0.6510    8.2400   19.5910 C   0  0  0  0  0  0  0  0  0  0  0  0
    0.4140    9.6020   20.2610 C   0  0  0  0  0  0  0  0  0  0  0  0
    1.8870   11.4380   17.8490 H   0  0  0  0  0  0  0  0  0  0  0  0
    0.7550   10.1730   17.3500 H   0  0  0  0  0  0  0  0  0  0  0  0
    3.1980    9.7820   19.1720 H   0  0  0  0  0  0  0  0  0  0  0  0
    3.0700    9.2640   17.4860 H   0  0  0  0  0  0  0  0  0  0  0  0
    0.5650    7.4500   20.3380 H   0  0  0  0  0  0  0  0  0  0  0  0
   -0.1190    8.0610   18.8310 H   0  0  0  0  0  0  0  0  0  0  0  0
   -0.5860    9.6180   20.7030 H   0  0  0  0  0  0  0  0  0  0  0  0
    1.1480    9.7440   21.0620 H   0  0  0  0  0  0  0  0  0  0  0  0
    2.0560    5.7060   19.0240 C   0  0  0  0  0  0  0  0  0  0  0  0
    1.7060    4.7560   18.0610 C   0  0  0  0  0  0  0  0  0  0  0  0
    1.2020    3.5190   18.4670 C   0  0  0  0  0  0  0  0  0  0  0  0
    1.0630    3.2310   19.8280 C   0  0  0  0  0  0  0  0  0  0  0  0
    1.4330    4.1770   20.7860 C   0  0  0  0  0  0  0  0  0  0  0  0
    1.9360    5.4110   20.3790 C   0  0  0  0  0  0  0  0  0  0  0  0
    2.2790    6.3100   21.3120 F   0  0  0  0  0  0  0  0  0  0  0  0
    1.8360    4.9750   17.0040 H   0  0  0  0  0  0  0  0  0  0  0  0
    0.9280    2.7740   17.7230 H   0  0  0  0  0  0  0  0  0  0  0  0
    0.6760    2.2650   20.1410 H   0  0  0  0  0  0  0  0  0  0  0  0
    1.3380    3.9590   21.8450 H   0  0  0  0  0  0  0  0  0  0  0  0
   -2.4590   12.8620   22.9210 C   0  0  0  0  0  0  0  0  0  0  0  0
   -3.0610   12.6400   21.6670 C   0  0  0  0  0  0  0  0  0  0  0  0
   -2.3160   12.3370   20.5200 C   0  0  0  0  0  0  0  0  0  0  0  0
   -0.9320   12.2200   20.6040 C   0  0  0  0  0  0  0  0  0  0  0  0
   -0.2960   12.4440   21.8210 C   0  0  0  0  0  0  0  0  0  0  0  0
   -1.0560   12.7460   22.9600 C   0  0  0  0  0  0  0  0  0  0  0  0
   -4.1390   12.7030   21.5440 H   0  0  0  0  0  0  0  0  0  0  0  0
   -2.8210   12.1930   19.5670 H   0  0  0  0  0  0  0  0  0  0  0  0
    0.7870   12.3960   21.8960 H   0  0  0  0  0  0  0  0  0  0  0  0
   -0.5090   12.8950   23.8850 H   0  0  0  0  0  0  0  0  0  0  0  0
   -3.2120   13.1410   24.0690 N   0  0  0  0  0  0  0  0  0  0  0  0
   -4.3580   12.2910   24.3880 C   0  0  0  0  0  0  0  0  0  0  0  0
   -4.0970   11.2300   24.3070 H   0  0  0  0  0  0  0  0  0  0  0  0
   -4.7400   12.5020   25.3930 H   0  0  0  0  0  0  0  0  0  0  0  0
   -5.1950   12.4800   23.7060 H   0  0  0  0  0  0  0  0  0  0  0  0
   -3.3150   14.5270   24.5260 C   0  0  0  0  0  0  0  0  0  0  0  0
   -2.4090   14.8320   25.0630 H   0  0  0  0  0  0  0  0  0  0  0  0
   -4.1900   14.6680   25.1690 H   0  0  0  0  0  0  0  0  0  0  0  0
   -3.4480   15.2150   23.6840 H   0  0  0  0  0  0  0  0  0  0  0  0
  1 33  1  0  0  0  0
  2  1  2  0  0  0  0
  3  1  1  0  0  0  0
  3 10  1  0  0  0  0
  4  5  1  0  0  0  0
  4  3  1  0  0  0  0
  5  6  1  0  0  0  0
  5 13  1  0  0  0  0
  6  9  1  0  0  0  0
  7  6  1  0  0  0  0
  7 19  1  0  0  0  0
  8  7  2  0  0  0  0
  9 10  1  0  0  0  0
  9 15  1  0  0  0  0
 10 17  1  0  0  0  0
 10 18  1  0  0  0  0
 11  4  1  0  0  0  0
 12  4  1  0  0  0  0
 14  5  1  0  0  0  0
 16  9  1  0  0  0  0
 19 24  1  0  0  0  0
 20 21  1  0  0  0  0
 20 19  2  0  0  0  0
 21 22  2  0  0  0  0
 22 28  1  0  0  0  0
 22 23  1  0  0  0  0
 23 29  1  0  0  0  0
 24 23  2  0  0  0  0
 24 25  1  0  0  0  0
 26 20  1  0  0  0  0
 27 21  1  0  0  0  0
 30 35  1  0  0  0  0
 30 40  1  0  0  0  0
 31 30  2  0  0  0  0
 32 33  2  0  0  0  0
 32 31  1  0  0  0  0
 33 34  1  0  0  0  0
 34 38  1  0  0  0  0
 34 35  2  0  0  0  0
 35 39  1  0  0  0  0
 36 31  1  0  0  0  0
 37 32  1  0  0  0  0
 40 41  1  0  0  0  0
 40 45  1  0  0  0  0
 41 43  1  0  0  0  0
 42 41  1  0  0  0  0
 44 41  1  0  0  0  0
 45 46  1  0  0  0  0
 45 47  1  0  0  0  0
 48 45  1  0  0  0  0
M  END
>  <MODEL>
10

>  <REMARK>
 VINA RESULT:    -5.591      3.328      4.967
 INTER + INTRA:          -7.159
 INTER:                  -7.206
 INTRA:                   0.048
 UNBOUND:                -0.260
  Name = 
  5 active torsions:
  status: ('A' for Active; 'I' for Inactive)
    1  A    between atoms: C_1  and  N_2
    2  A    between atoms: N_2  and  C_3
    3  A    between atoms: N_2  and  C_4
    4  A    between atoms: C_7  and  C_8
    5  A    between atoms: C_14  and  C_16
                            x       y       z     vdW  Elec       q    Type
                         _______ _______ _______ _____ _____    ______ ____

>  <TORSDO>
F 5

$$$$
=
 OpenBabel07192307433D

 48 50  0  0  0  0  0  0  0  0999 V2000
    1.5330   10.4500   18.5940 C   0  0  0  0  0  0  0  0  0  0  0  0
    2.3810   11.0040   17.8980 O   0  0  0  0  0  0  0  0  0  0  0  0
    0.4120   11.1060   19.0940 N   0  0  0  0  0  0  0  0  0  0  0  0
    0.1860   12.4920   18.6760 C   0  0  0  0  0  0  0  0  0  0  0  0
   -1.2550   12.9540   18.9120 C   0  0  0  0  0  0  0  0  0  0  0  0
   -1.6940   12.7600   20.2990 N   0  0  0  0  0  0  0  0  0  0  0  0
   -2.6500   13.6300   20.8100 C   0  0  0  0  0  0  0  0  0  0  0  0
   -3.1480   14.5520   20.1690 O   0  0  0  0  0  0  0  0  0  0  0  0
   -1.0000   11.7180   21.0680 C   0  0  0  0  0  0  0  0  0  0  0  0
   -0.4380   10.5990   20.1790 C   0  0  0  0  0  0  0  0  0  0  0  0
    0.4490   12.6010   17.6180 H   0  0  0  0  0  0  0  0  0  0  0  0
    0.8790   13.1140   19.2550 H   0  0  0  0  0  0  0  0  0  0  0  0
   -1.9400   12.3690   18.2870 H   0  0  0  0  0  0  0  0  0  0  0  0
   -1.3600   14.0060   18.6240 H   0  0  0  0  0  0  0  0  0  0  0  0
   -1.6620   11.2840   21.8190 H   0  0  0  0  0  0  0  0  0  0  0  0
   -0.1810   12.2180   21.5990 H   0  0  0  0  0  0  0  0  0  0  0  0
    0.1200    9.8900   20.7980 H   0  0  0  0  0  0  0  0  0  0  0  0
   -1.2670   10.0620   19.7030 H   0  0  0  0  0  0  0  0  0  0  0  0
   -3.0650   13.4900   22.2130 C   0  0  0  0  0  0  0  0  0  0  0  0
   -2.3190   14.1270   23.2090 C   0  0  0  0  0  0  0  0  0  0  0  0
   -2.7270   14.0300   24.5410 C   0  0  0  0  0  0  0  0  0  0  0  0
   -3.8800   13.3110   24.8710 C   0  0  0  0  0  0  0  0  0  0  0  0
   -4.6310   12.6930   23.8690 C   0  0  0  0  0  0  0  0  0  0  0  0
   -4.2230   12.7920   22.5400 C   0  0  0  0  0  0  0  0  0  0  0  0
   -4.9530   12.1860   21.5920 F   0  0  0  0  0  0  0  0  0  0  0  0
   -1.4360   14.7040   22.9470 H   0  0  0  0  0  0  0  0  0  0  0  0
   -2.1530   14.5240   25.3220 H   0  0  0  0  0  0  0  0  0  0  0  0
   -4.1980   13.2410   25.9080 H   0  0  0  0  0  0  0  0  0  0  0  0
   -5.5340   12.1410   24.1130 H   0  0  0  0  0  0  0  0  0  0  0  0
    2.1170    6.2770   19.5820 C   0  0  0  0  0  0  0  0  0  0  0  0
    1.6870    7.2240   20.5310 C   0  0  0  0  0  0  0  0  0  0  0  0
    1.5050    8.5760   20.2120 C   0  0  0  0  0  0  0  0  0  0  0  0
    1.7240    9.0160   18.9110 C   0  0  0  0  0  0  0  0  0  0  0  0
    2.1620    8.1160   17.9440 C   0  0  0  0  0  0  0  0  0  0  0  0
    2.3400    6.7660   18.2800 C   0  0  0  0  0  0  0  0  0  0  0  0
    1.4860    6.9360   21.5590 H   0  0  0  0  0  0  0  0  0  0  0  0
    1.1910    9.2780   20.9810 H   0  0  0  0  0  0  0  0  0  0  0  0
    2.3760    8.4500   16.9330 H   0  0  0  0  0  0  0  0  0  0  0  0
    2.6660    6.1040   17.4830 H   0  0  0  0  0  0  0  0  0  0  0  0
    2.2740    4.9220   19.9010 N   0  0  0  0  0  0  0  0  0  0  0  0
    3.3050    4.1470   19.2120 C   0  0  0  0  0  0  0  0  0  0  0  0
    2.8740    3.2690   18.7180 H   0  0  0  0  0  0  0  0  0  0  0  0
    3.8390    4.7600   18.4790 H   0  0  0  0  0  0  0  0  0  0  0  0
    4.0690    3.7900   19.9140 H   0  0  0  0  0  0  0  0  0  0  0  0
    1.1050    4.1580   20.3370 C   0  0  0  0  0  0  0  0  0  0  0  0
    0.4130    3.9880   19.5040 H   0  0  0  0  0  0  0  0  0  0  0  0
    0.5810    4.6660   21.1530 H   0  0  0  0  0  0  0  0  0  0  0  0
    1.3940    3.1780   20.7320 H   0  0  0  0  0  0  0  0  0  0  0  0
  1 33  1  0  0  0  0
  1  3  1  0  0  0  0
  2  1  2  0  0  0  0
  3 10  1  0  0  0  0
  4  5  1  0  0  0  0
  4  3  1  0  0  0  0
  4 12  1  0  0  0  0
  5  6  1  0  0  0  0
  6  7  1  0  0  0  0
  6  9  1  0  0  0  0
  7 19  1  0  0  0  0
  8  7  2  0  0  0  0
  9 16  1  0  0  0  0
  9 15  1  0  0  0  0
 10 17  1  0  0  0  0
 10  9  1  0  0  0  0
 11  4  1  0  0  0  0
 13  5  1  0  0  0  0
 14  5  1  0  0  0  0
 18 10  1  0  0  0  0
 19 24  2  0  0  0  0
 19 20  1  0  0  0  0
 20 21  2  0  0  0  0
 21 22  1  0  0  0  0
 21 27  1  0  0  0  0
 22 28  1  0  0  0  0
 23 29  1  0  0  0  0
 23 22  2  0  0  0  0
 24 23  1  0  0  0  0
 25 24  1  0  0  0  0
 26 20  1  0  0  0  0
 30 40  1  0  0  0  0
 30 31  1  0  0  0  0
 31 36  1  0  0  0  0
 32 31  2  0  0  0  0
 32 37  1  0  0  0  0
 33 32  1  0  0  0  0
 34 35  1  0  0  0  0
 34 33  2  0  0  0  0
 35 30  2  0  0  0  0
 38 34  1  0  0  0  0
 39 35  1  0  0  0  0
 40 45  1  0  0  0  0
 41 40  1  0  0  0  0
 41 44  1  0  0  0  0
 42 41  1  0  0  0  0
 43 41  1  0  0  0  0
 45 48  1  0  0  0  0
 45 47  1  0  0  0  0
 46 45  1  0  0  0  0
M  END
>  <MODEL>
11

>  <REMARK>
 VINA RESULT:    -5.464      4.375      9.970
 INTER + INTRA:          -7.002
 INTER:                  -7.310
 INTRA:                   0.309
 UNBOUND:                -0.260
  Name = 
  5 active torsions:
  status: ('A' for Active; 'I' for Inactive)
    1  A    between atoms: C_1  and  N_2
    2  A    between atoms: N_2  and  C_3
    3  A    between atoms: N_2  and  C_4
    4  A    between atoms: C_7  and  C_8
    5  A    between atoms: C_14  and  C_16
                            x       y       z     vdW  Elec       q    Type
                         _______ _______ _______ _____ _____    ______ ____

>  <TORSDO>
F 5

$$$$
=
 OpenBabel07192307433D

 48 50  0  0  0  0  0  0  0  0999 V2000
    3.2910    6.2360   19.1320 C   0  0  0  0  0  0  0  0  0  0  0  0
    3.4850    5.5400   20.1260 O   0  0  0  0  0  0  0  0  0  0  0  0
    2.4320    7.3300   19.1250 N   0  0  0  0  0  0  0  0  0  0  0  0
    1.8190    7.7280   20.3950 C   0  0  0  0  0  0  0  0  0  0  0  0
    1.2710    9.1590   20.3650 C   0  0  0  0  0  0  0  0  0  0  0  0
    0.3400    9.3870   19.2530 N   0  0  0  0  0  0  0  0  0  0  0  0
   -0.6620   10.3360   19.4240 C   0  0  0  0  0  0  0  0  0  0  0  0
   -0.8140   10.9930   20.4510 O   0  0  0  0  0  0  0  0  0  0  0  0
    0.4840    8.5090   18.0840 C   0  0  0  0  0  0  0  0  0  0  0  0
    1.9150    7.9790   17.9130 C   0  0  0  0  0  0  0  0  0  0  0  0
    2.5520    7.6220   21.2030 H   0  0  0  0  0  0  0  0  0  0  0  0
    1.0050    7.0190   20.5900 H   0  0  0  0  0  0  0  0  0  0  0  0
    2.0940    9.8690   20.2290 H   0  0  0  0  0  0  0  0  0  0  0  0
    0.7860    9.3910   21.3190 H   0  0  0  0  0  0  0  0  0  0  0  0
    0.1770    9.0230   17.1720 H   0  0  0  0  0  0  0  0  0  0  0  0
   -0.2070    7.6710   18.2390 H   0  0  0  0  0  0  0  0  0  0  0  0
    1.9450    7.2840   17.0690 H   0  0  0  0  0  0  0  0  0  0  0  0
    2.5880    8.8160   17.6940 H   0  0  0  0  0  0  0  0  0  0  0  0
   -1.6400   10.5430   18.3460 C   0  0  0  0  0  0  0  0  0  0  0  0
   -2.6600    9.6050   18.1640 C   0  0  0  0  0  0  0  0  0  0  0  0
   -3.6140    9.8130   17.1660 C   0  0  0  0  0  0  0  0  0  0  0  0
   -3.5550   10.9580   16.3660 C   0  0  0  0  0  0  0  0  0  0  0  0
   -2.5440   11.9010   16.5660 C   0  0  0  0  0  0  0  0  0  0  0  0
   -1.5930   11.6920   17.5630 C   0  0  0  0  0  0  0  0  0  0  0  0
   -0.6250   12.6040   17.7360 F   0  0  0  0  0  0  0  0  0  0  0  0
   -2.7160    8.7270   18.8020 H   0  0  0  0  0  0  0  0  0  0  0  0
   -4.4120    9.0880   17.0190 H   0  0  0  0  0  0  0  0  0  0  0  0
   -4.3020   11.1190   15.5940 H   0  0  0  0  0  0  0  0  0  0  0  0
   -2.4950   12.7980   15.9570 H   0  0  0  0  0  0  0  0  0  0  0  0
    5.4090    5.1400   15.5200 C   0  0  0  0  0  0  0  0  0  0  0  0
    4.6740    4.2070   16.2760 C   0  0  0  0  0  0  0  0  0  0  0  0
    3.9940    4.5610   17.4490 C   0  0  0  0  0  0  0  0  0  0  0  0
    4.0100    5.8810   17.8870 C   0  0  0  0  0  0  0  0  0  0  0  0
    4.7350    6.8330   17.1770 C   0  0  0  0  0  0  0  0  0  0  0  0
    5.4110    6.4630   16.0050 C   0  0  0  0  0  0  0  0  0  0  0  0
    4.6130    3.1650   15.9750 H   0  0  0  0  0  0  0  0  0  0  0  0
    3.4540    3.8040   18.0130 H   0  0  0  0  0  0  0  0  0  0  0  0
    4.7910    7.8610   17.5260 H   0  0  0  0  0  0  0  0  0  0  0  0
    5.9470    7.2490   15.4820 H   0  0  0  0  0  0  0  0  0  0  0  0
    6.0680    4.7850   14.3360 N   0  0  0  0  0  0  0  0  0  0  0  0
    5.4920    3.7380   13.4910 C   0  0  0  0  0  0  0  0  0  0  0  0
    4.4290    3.9260   13.3010 H   0  0  0  0  0  0  0  0  0  0  0  0
    6.0290    3.6560   12.5410 H   0  0  0  0  0  0  0  0  0  0  0  0
    5.5750    2.7540   13.9670 H   0  0  0  0  0  0  0  0  0  0  0  0
    7.5240    4.9070   14.2730 C   0  0  0  0  0  0  0  0  0  0  0  0
    7.8620    5.0720   13.2440 H   0  0  0  0  0  0  0  0  0  0  0  0
    8.0150    4.0180   14.6840 H   0  0  0  0  0  0  0  0  0  0  0  0
    7.8790    5.7500   14.8760 H   0  0  0  0  0  0  0  0  0  0  0  0
  1  2  2  0  0  0  0
  3  1  1  0  0  0  0
  3  4  1  0  0  0  0
  4 12  1  0  0  0  0
  4 11  1  0  0  0  0
  5  4  1  0  0  0  0
  5 14  1  0  0  0  0
  6  7  1  0  0  0  0
  6  5  1  0  0  0  0
  7  8  2  0  0  0  0
  9 16  1  0  0  0  0
  9  6  1  0  0  0  0
 10  9  1  0  0  0  0
 10  3  1  0  0  0  0
 13  5  1  0  0  0  0
 15  9  1  0  0  0  0
 17 10  1  0  0  0  0
 18 10  1  0  0  0  0
 19  7  1  0  0  0  0
 20 19  1  0  0  0  0
 20 26  1  0  0  0  0
 21 20  2  0  0  0  0
 22 23  2  0  0  0  0
 22 21  1  0  0  0  0
 23 24  1  0  0  0  0
 24 25  1  0  0  0  0
 24 19  2  0  0  0  0
 27 21  1  0  0  0  0
 28 22  1  0  0  0  0
 29 23  1  0  0  0  0
 30 35  2  0  0  0  0
 30 31  1  0  0  0  0
 31 32  2  0  0  0  0
 32 33  1  0  0  0  0
 32 37  1  0  0  0  0
 33  1  1  0  0  0  0
 34 38  1  0  0  0  0
 34 33  2  0  0  0  0
 35 34  1  0  0  0  0
 36 31  1  0  0  0  0
 39 35  1  0  0  0  0
 40 30  1  0  0  0  0
 41 44  1  0  0  0  0
 41 40  1  0  0  0  0
 42 41  1  0  0  0  0
 43 41  1  0  0  0  0
 45 40  1  0  0  0  0
 45 47  1  0  0  0  0
 45 48  1  0  0  0  0
 46 45  1  0  0  0  0
M  END
>  <MODEL>
12

>  <REMARK>
 VINA RESULT:    -5.455      3.221      8.530
 INTER + INTRA:          -6.990
 INTER:                  -6.989
 INTRA:                  -0.002
 UNBOUND:                -0.260
  Name = 
  5 active torsions:
  status: ('A' for Active; 'I' for Inactive)
    1  A    between atoms: C_1  and  N_2
    2  A    between atoms: N_2  and  C_3
    3  A    between atoms: N_2  and  C_4
    4  A    between atoms: C_7  and  C_8
    5  A    between atoms: C_14  and  C_16
                            x       y       z     vdW  Elec       q    Type
                         _______ _______ _______ _____ _____    ______ ____

>  <TORSDO>
F 5

$$$$
=
 OpenBabel07192307433D

 48 50  0  0  0  0  0  0  0  0999 V2000
    0.2490    9.7250   20.0550 C   0  0  0  0  0  0  0  0  0  0  0  0
    0.3280   10.3220   21.1260 O   0  0  0  0  0  0  0  0  0  0  0  0
    1.0520    8.6360   19.7290 N   0  0  0  0  0  0  0  0  0  0  0  0
    1.9530    8.1170   20.7610 C   0  0  0  0  0  0  0  0  0  0  0  0
    2.4410    6.6960   20.4600 C   0  0  0  0  0  0  0  0  0  0  0  0
    3.0570    6.5750   19.1340 N   0  0  0  0  0  0  0  0  0  0  0  0
    4.0450    5.6140   18.9570 C   0  0  0  0  0  0  0  0  0  0  0  0
    4.4330    4.8610   19.8470 O   0  0  0  0  0  0  0  0  0  0  0  0
    2.6460    7.5620   18.1260 C   0  0  0  0  0  0  0  0  0  0  0  0
    1.2310    8.1070   18.3710 C   0  0  0  0  0  0  0  0  0  0  0  0
    1.4490    8.1450   21.7340 H   0  0  0  0  0  0  0  0  0  0  0  0
    2.8070    8.8040   20.8100 H   0  0  0  0  0  0  0  0  0  0  0  0
    1.5920    6.0020   20.4710 H   0  0  0  0  0  0  0  0  0  0  0  0
    3.1430    6.3720   21.2360 H   0  0  0  0  0  0  0  0  0  0  0  0
    2.7010    7.1380   17.1220 H   0  0  0  0  0  0  0  0  0  0  0  0
    3.3740    8.3800   18.1790 H   0  0  0  0  0  0  0  0  0  0  0  0
    1.0080    8.8810   17.6300 H   0  0  0  0  0  0  0  0  0  0  0  0
    0.5040    7.2960   18.2520 H   0  0  0  0  0  0  0  0  0  0  0  0
    4.7160    5.5110   17.6540 C   0  0  0  0  0  0  0  0  0  0  0  0
    5.8410    6.3020   17.4030 C   0  0  0  0  0  0  0  0  0  0  0  0
    6.5060    6.1840   16.1810 C   0  0  0  0  0  0  0  0  0  0  0  0
    6.0550    5.2720   15.2230 C   0  0  0  0  0  0  0  0  0  0  0  0
    4.9430    4.4700   15.4860 C   0  0  0  0  0  0  0  0  0  0  0  0
    4.2810    4.5890   16.7070 C   0  0  0  0  0  0  0  0  0  0  0  0
    3.2090    3.8170   16.9400 F   0  0  0  0  0  0  0  0  0  0  0  0
    6.2020    6.9950   18.1590 H   0  0  0  0  0  0  0  0  0  0  0  0
    7.3830    6.7960   15.9790 H   0  0  0  0  0  0  0  0  0  0  0  0
    6.5780    5.1790   14.2740 H   0  0  0  0  0  0  0  0  0  0  0  0
    4.5910    3.7510   14.7530 H   0  0  0  0  0  0  0  0  0  0  0  0
   -2.6700   11.0470   17.1460 C   0  0  0  0  0  0  0  0  0  0  0  0
   -2.6820    9.7480   17.6900 C   0  0  0  0  0  0  0  0  0  0  0  0
   -1.7330    9.3190   18.6270 C   0  0  0  0  0  0  0  0  0  0  0  0
   -0.7500   10.1990   19.0700 C   0  0  0  0  0  0  0  0  0  0  0  0
   -0.6940   11.4870   18.5480 C   0  0  0  0  0  0  0  0  0  0  0  0
   -1.6510   11.9020   17.6110 C   0  0  0  0  0  0  0  0  0  0  0  0
   -3.4350    9.0230   17.3940 H   0  0  0  0  0  0  0  0  0  0  0  0
   -1.7670    8.3010   19.0070 H   0  0  0  0  0  0  0  0  0  0  0  0
    0.0900   12.1750   18.8530 H   0  0  0  0  0  0  0  0  0  0  0  0
   -1.5700   12.9220   17.2490 H   0  0  0  0  0  0  0  0  0  0  0  0
   -3.6360   11.4770   16.2270 N   0  0  0  0  0  0  0  0  0  0  0  0
   -4.9260   11.9530   16.7250 C   0  0  0  0  0  0  0  0  0  0  0  0
   -5.6630   11.1420   16.7490 H   0  0  0  0  0  0  0  0  0  0  0  0
   -4.8280   12.3930   17.7230 H   0  0  0  0  0  0  0  0  0  0  0  0
   -5.3290   12.7480   16.0870 H   0  0  0  0  0  0  0  0  0  0  0  0
   -3.6660   10.8690   14.8970 C   0  0  0  0  0  0  0  0  0  0  0  0
   -3.7100   11.6350   14.1140 H   0  0  0  0  0  0  0  0  0  0  0  0
   -4.5160   10.1860   14.7920 H   0  0  0  0  0  0  0  0  0  0  0  0
   -2.7720   10.2630   14.7150 H   0  0  0  0  0  0  0  0  0  0  0  0
  1  2  2  0  0  0  0
  3  1  1  0  0  0  0
  3  4  1  0  0  0  0
  4 12  1  0  0  0  0
  4 11  1  0  0  0  0
  5 13  1  0  0  0  0
  5  4  1  0  0  0  0
  5 14  1  0  0  0  0
  6  5  1  0  0  0  0
  7  6  1  0  0  0  0
  7  8  2  0  0  0  0
  9 16  1  0  0  0  0
  9 10  1  0  0  0  0
  9  6  1  0  0  0  0
 10  3  1  0  0  0  0
 15  9  1  0  0  0  0
 17 10  1  0  0  0  0
 18 10  1  0  0  0  0
 19  7  1  0  0  0  0
 20 19  1  0  0  0  0
 20 26  1  0  0  0  0
 21 20  2  0  0  0  0
 22 23  2  0  0  0  0
 22 21  1  0  0  0  0
 23 24  1  0  0  0  0
 24 25  1  0  0  0  0
 24 19  2  0  0  0  0
 27 21  1  0  0  0  0
 28 22  1  0  0  0  0
 29 23  1  0  0  0  0
 30 35  2  0  0  0  0
 30 31  1  0  0  0  0
 31 32  2  0  0  0  0
 32 37  1  0  0  0  0
 32 33  1  0  0  0  0
 33  1  1  0  0  0  0
 34 38  1  0  0  0  0
 34 33  2  0  0  0  0
 35 34  1  0  0  0  0
 36 31  1  0  0  0  0
 39 35  1  0  0  0  0
 40 41  1  0  0  0  0
 40 30  1  0  0  0  0
 41 42  1  0  0  0  0
 41 43  1  0  0  0  0
 44 41  1  0  0  0  0
 45 40  1  0  0  0  0
 46 45  1  0  0  0  0
 47 45  1  0  0  0  0
 48 45  1  0  0  0  0
M  END
>  <MODEL>
13

>  <REMARK>
 VINA RESULT:    -5.403      2.574      3.297
 INTER + INTRA:          -6.926
 INTER:                  -6.710
 INTRA:                  -0.216
 UNBOUND:                -0.260
  Name = 
  5 active torsions:
  status: ('A' for Active; 'I' for Inactive)
    1  A    between atoms: C_1  and  N_2
    2  A    between atoms: N_2  and  C_3
    3  A    between atoms: N_2  and  C_4
    4  A    between atoms: C_7  and  C_8
    5  A    between atoms: C_14  and  C_16
                            x       y       z     vdW  Elec       q    Type
                         _______ _______ _______ _____ _____    ______ ____

>  <TORSDO>
F 5

$$$$
=
 OpenBabel07192307433D

 48 50  0  0  0  0  0  0  0  0999 V2000
    1.5860    6.1630   20.2960 C   0  0  0  0  0  0  0  0  0  0  0  0
    0.8910    5.1800   20.5370 O   0  0  0  0  0  0  0  0  0  0  0  0
    1.2790    7.4430   20.7480 N   0  0  0  0  0  0  0  0  0  0  0  0
    0.1300    7.5950   21.6450 C   0  0  0  0  0  0  0  0  0  0  0  0
    0.1510    8.9200   22.4150 C   0  0  0  0  0  0  0  0  0  0  0  0
    0.2710   10.0870   21.5330 N   0  0  0  0  0  0  0  0  0  0  0  0
   -0.2920   11.2860   21.9560 C   0  0  0  0  0  0  0  0  0  0  0  0
   -0.8850   11.4240   23.0230 O   0  0  0  0  0  0  0  0  0  0  0  0
    0.8890    9.8590   20.2200 C   0  0  0  0  0  0  0  0  0  0  0  0
    1.8740    8.6800   20.2250 C   0  0  0  0  0  0  0  0  0  0  0  0
    0.1000    6.7520   22.3450 H   0  0  0  0  0  0  0  0  0  0  0  0
   -0.7690    7.5390   21.0190 H   0  0  0  0  0  0  0  0  0  0  0  0
    1.0200    8.9470   23.0830 H   0  0  0  0  0  0  0  0  0  0  0  0
   -0.7480    9.0030   23.0350 H   0  0  0  0  0  0  0  0  0  0  0  0
    1.4030   10.7560   19.8720 H   0  0  0  0  0  0  0  0  0  0  0  0
    0.0690    9.6560   19.5230 H   0  0  0  0  0  0  0  0  0  0  0  0
    2.2510    8.5190   19.2110 H   0  0  0  0  0  0  0  0  0  0  0  0
    2.7240    8.9190   20.8750 H   0  0  0  0  0  0  0  0  0  0  0  0
   -0.2340   12.4550   21.0670 C   0  0  0  0  0  0  0  0  0  0  0  0
    0.9370   13.2180   21.0230 C   0  0  0  0  0  0  0  0  0  0  0  0
    1.0130   14.3080   20.1540 C   0  0  0  0  0  0  0  0  0  0  0  0
   -0.0690   14.6240   19.3270 C   0  0  0  0  0  0  0  0  0  0  0  0
   -1.2280   13.8460   19.3620 C   0  0  0  0  0  0  0  0  0  0  0  0
   -1.3020   12.7570   20.2290 C   0  0  0  0  0  0  0  0  0  0  0  0
   -2.4260   12.0250   20.2550 F   0  0  0  0  0  0  0  0  0  0  0  0
    1.7840   12.9570   21.6510 H   0  0  0  0  0  0  0  0  0  0  0  0
    1.9210   14.9070   20.1130 H   0  0  0  0  0  0  0  0  0  0  0  0
   -0.0040   15.4700   18.6490 H   0  0  0  0  0  0  0  0  0  0  0  0
   -2.0700   14.0760   18.7170 H   0  0  0  0  0  0  0  0  0  0  0  0
    5.1910    5.5840   17.9700 C   0  0  0  0  0  0  0  0  0  0  0  0
    4.9720    4.9320   19.1990 C   0  0  0  0  0  0  0  0  0  0  0  0
    3.8080    5.1250   19.9540 C   0  0  0  0  0  0  0  0  0  0  0  0
    2.8070    5.9660   19.4800 C   0  0  0  0  0  0  0  0  0  0  0  0
    2.9870    6.6410   18.2770 C   0  0  0  0  0  0  0  0  0  0  0  0
    4.1580    6.4370   17.5320 C   0  0  0  0  0  0  0  0  0  0  0  0
    5.7120    4.2520   19.6120 H   0  0  0  0  0  0  0  0  0  0  0  0
    3.6900    4.6160   20.9080 H   0  0  0  0  0  0  0  0  0  0  0  0
    2.2320    7.3320   17.9110 H   0  0  0  0  0  0  0  0  0  0  0  0
    4.2390    6.9760   16.5930 H   0  0  0  0  0  0  0  0  0  0  0  0
    6.3460    5.3690   17.2080 N   0  0  0  0  0  0  0  0  0  0  0  0
    7.2570    6.4880   16.9700 C   0  0  0  0  0  0  0  0  0  0  0  0
    8.0560    6.2050   16.2770 H   0  0  0  0  0  0  0  0  0  0  0  0
    6.7200    7.3600   16.5800 H   0  0  0  0  0  0  0  0  0  0  0  0
    7.7290    6.8210   17.9020 H   0  0  0  0  0  0  0  0  0  0  0  0
    6.3200    4.3510   16.1580 C   0  0  0  0  0  0  0  0  0  0  0  0
    6.3570    3.3430   16.5850 H   0  0  0  0  0  0  0  0  0  0  0  0
    7.1500    4.4840   15.4560 H   0  0  0  0  0  0  0  0  0  0  0  0
    5.4060    4.4210   15.5570 H   0  0  0  0  0  0  0  0  0  0  0  0
  1  2  2  0  0  0  0
  1  3  1  0  0  0  0
  3  4  1  0  0  0  0
  4 11  1  0  0  0  0
  4  5  1  0  0  0  0
  5 14  1  0  0  0  0
  5 13  1  0  0  0  0
  6  7  1  0  0  0  0
  6  5  1  0  0  0  0
  7  8  2  0  0  0  0
  9 10  1  0  0  0  0
  9  6  1  0  0  0  0
 10  3  1  0  0  0  0
 10 18  1  0  0  0  0
 12  4  1  0  0  0  0
 15  9  1  0  0  0  0
 16  9  1  0  0  0  0
 17 10  1  0  0  0  0
 19  7  1  0  0  0  0
 20 19  1  0  0  0  0
 20 26  1  0  0  0  0
 21 20  2  0  0  0  0
 22 23  2  0  0  0  0
 22 21  1  0  0  0  0
 23 24  1  0  0  0  0
 24 25  1  0  0  0  0
 24 19  2  0  0  0  0
 27 21  1  0  0  0  0
 28 22  1  0  0  0  0
 29 23  1  0  0  0  0
 30 31  1  0  0  0  0
 31 36  1  0  0  0  0
 31 32  2  0  0  0  0
 32 37  1  0  0  0  0
 33 32  1  0  0  0  0
 33  1  1  0  0  0  0
 34 33  2  0  0  0  0
 35 30  2  0  0  0  0
 35 34  1  0  0  0  0
 38 34  1  0  0  0  0
 39 35  1  0  0  0  0
 40 30  1  0  0  0  0
 41 40  1  0  0  0  0
 41 44  1  0  0  0  0
 42 41  1  0  0  0  0
 43 41  1  0  0  0  0
 45 46  1  0  0  0  0
 45 40  1  0  0  0  0
 47 45  1  0  0  0  0
 48 45  1  0  0  0  0
M  END
>  <MODEL>
14

>  <REMARK>
 VINA RESULT:    -5.227      2.946      8.470
 INTER + INTRA:          -6.710
 INTER:                  -6.732
 INTRA:                   0.022
 UNBOUND:                -0.260
  Name = 
  5 active torsions:
  status: ('A' for Active; 'I' for Inactive)
    1  A    between atoms: C_1  and  N_2
    2  A    between atoms: N_2  and  C_3
    3  A    between atoms: N_2  and  C_4
    4  A    between atoms: C_7  and  C_8
    5  A    between atoms: C_14  and  C_16
                            x       y       z     vdW  Elec       q    Type
                         _______ _______ _______ _____ _____    ______ ____

>  <TORSDO>
F 5

$$$$
=
 OpenBabel07192307433D

 48 50  0  0  0  0  0  0  0  0999 V2000
    1.2910   10.5780   18.5330 C   0  0  0  0  0  0  0  0  0  0  0  0
    1.3750   11.1490   17.4500 O   0  0  0  0  0  0  0  0  0  0  0  0
    1.8630    9.3340   18.7840 N   0  0  0  0  0  0  0  0  0  0  0  0
    2.6940    8.7380   17.7350 C   0  0  0  0  0  0  0  0  0  0  0  0
    3.6070    7.6260   18.2640 C   0  0  0  0  0  0  0  0  0  0  0  0
    2.8720    6.5840   18.9880 N   0  0  0  0  0  0  0  0  0  0  0  0
    3.3880    5.2930   18.9800 C   0  0  0  0  0  0  0  0  0  0  0  0
    4.4230    4.9750   18.3990 O   0  0  0  0  0  0  0  0  0  0  0  0
    1.5840    6.9760   19.5780 C   0  0  0  0  0  0  0  0  0  0  0  0
    1.5210    8.4720   19.9230 C   0  0  0  0  0  0  0  0  0  0  0  0
    3.2920    9.5210   17.2550 H   0  0  0  0  0  0  0  0  0  0  0  0
    2.0090    8.3340   16.9800 H   0  0  0  0  0  0  0  0  0  0  0  0
    4.3290    8.0450   18.9740 H   0  0  0  0  0  0  0  0  0  0  0  0
    4.1730    7.1860   17.4360 H   0  0  0  0  0  0  0  0  0  0  0  0
    1.3720    6.3890   20.4730 H   0  0  0  0  0  0  0  0  0  0  0  0
    0.8160    6.7330   18.8340 H   0  0  0  0  0  0  0  0  0  0  0  0
    0.5220    8.7150   20.2960 H   0  0  0  0  0  0  0  0  0  0  0  0
    2.2480    8.6930   20.7130 H   0  0  0  0  0  0  0  0  0  0  0  0
    2.6410    4.2200   19.6510 C   0  0  0  0  0  0  0  0  0  0  0  0
    2.9190    3.9340   20.9910 C   0  0  0  0  0  0  0  0  0  0  0  0
    2.1880    2.9410   21.6470 C   0  0  0  0  0  0  0  0  0  0  0  0
    1.1790    2.2500   20.9700 C   0  0  0  0  0  0  0  0  0  0  0  0
    0.8940    2.5530   19.6370 C   0  0  0  0  0  0  0  0  0  0  0  0
    1.6230    3.5450   18.9840 C   0  0  0  0  0  0  0  0  0  0  0  0
    1.3410    3.8190   17.7020 F   0  0  0  0  0  0  0  0  0  0  0  0
    3.6880    4.4890   21.5210 H   0  0  0  0  0  0  0  0  0  0  0  0
    2.3970    2.7140   22.6900 H   0  0  0  0  0  0  0  0  0  0  0  0
    0.6090    1.4810   21.4850 H   0  0  0  0  0  0  0  0  0  0  0  0
    0.1060    2.0290   19.1050 H   0  0  0  0  0  0  0  0  0  0  0  0
   -0.9550   12.5620   21.6560 C   0  0  0  0  0  0  0  0  0  0  0  0
   -1.5730   11.7680   20.6700 C   0  0  0  0  0  0  0  0  0  0  0  0
   -0.8450   11.1310   19.6560 C   0  0  0  0  0  0  0  0  0  0  0  0
    0.5400   11.2520   19.6170 C   0  0  0  0  0  0  0  0  0  0  0  0
    1.1890   12.0380   20.5640 C   0  0  0  0  0  0  0  0  0  0  0  0
    0.4470   12.6690   21.5720 C   0  0  0  0  0  0  0  0  0  0  0  0
   -2.6500   11.6240   20.6590 H   0  0  0  0  0  0  0  0  0  0  0  0
   -1.3650   10.5430   18.9030 H   0  0  0  0  0  0  0  0  0  0  0  0
    2.2660   12.1760   20.5240 H   0  0  0  0  0  0  0  0  0  0  0  0
    1.0060   13.2560   22.2940 H   0  0  0  0  0  0  0  0  0  0  0  0
   -1.6860   13.1770   22.6810 N   0  0  0  0  0  0  0  0  0  0  0  0
   -1.0450   14.2210   23.4790 C   0  0  0  0  0  0  0  0  0  0  0  0
   -0.0030   14.3670   23.1740 H   0  0  0  0  0  0  0  0  0  0  0  0
   -1.5890   15.1690   23.4030 H   0  0  0  0  0  0  0  0  0  0  0  0
   -1.0450   13.9630   24.5450 H   0  0  0  0  0  0  0  0  0  0  0  0
   -2.7170   12.4050   23.3750 C   0  0  0  0  0  0  0  0  0  0  0  0
   -3.2430   13.0220   24.1110 H   0  0  0  0  0  0  0  0  0  0  0  0
   -2.2890   11.5260   23.8680 H   0  0  0  0  0  0  0  0  0  0  0  0
   -3.4650   12.0190   22.6730 H   0  0  0  0  0  0  0  0  0  0  0  0
  1  3  1  0  0  0  0
  1 33  1  0  0  0  0
  2  1  2  0  0  0  0
  3 10  1  0  0  0  0
  4  5  1  0  0  0  0
  4  3  1  0  0  0  0
  5 13  1  0  0  0  0
  5  6  1  0  0  0  0
  6  9  1  0  0  0  0
  7  6  1  0  0  0  0
  7 19  1  0  0  0  0
  8  7  2  0  0  0  0
  9 10  1  0  0  0  0
  9 15  1  0  0  0  0
 10 17  1  0  0  0  0
 10 18  1  0  0  0  0
 11  4  1  0  0  0  0
 12  4  1  0  0  0  0
 14  5  1  0  0  0  0
 16  9  1  0  0  0  0
 19 20  1  0  0  0  0
 20 26  1  0  0  0  0
 20 21  2  0  0  0  0
 21 27  1  0  0  0  0
 22 28  1  0  0  0  0
 22 21  1  0  0  0  0
 23 22  2  0  0  0  0
 24 23  1  0  0  0  0
 24 19  2  0  0  0  0
 25 24  1  0  0  0  0
 29 23  1  0  0  0  0
 30 40  1  0  0  0  0
 31 30  2  0  0  0  0
 32 31  1  0  0  0  0
 33 32  2  0  0  0  0
 33 34  1  0  0  0  0
 34 35  2  0  0  0  0
 35 30  1  0  0  0  0
 35 39  1  0  0  0  0
 36 31  1  0  0  0  0
 37 32  1  0  0  0  0
 38 34  1  0  0  0  0
 40 45  1  0  0  0  0
 40 41  1  0  0  0  0
 41 44  1  0  0  0  0
 42 41  1  0  0  0  0
 43 41  1  0  0  0  0
 45 47  1  0  0  0  0
 45 46  1  0  0  0  0
 48 45  1  0  0  0  0
M  END
>  <MODEL>
15

>  <REMARK>
 VINA RESULT:    -5.143      2.887      4.313
 INTER + INTRA:          -6.606
 INTER:                  -6.178
 INTRA:                  -0.428
 UNBOUND:                -0.260
  Name = 
  5 active torsions:
  status: ('A' for Active; 'I' for Inactive)
    1  A    between atoms: C_1  and  N_2
    2  A    between atoms: N_2  and  C_3
    3  A    between atoms: N_2  and  C_4
    4  A    between atoms: C_7  and  C_8
    5  A    between atoms: C_14  and  C_16
                            x       y       z     vdW  Elec       q    Type
                         _______ _______ _______ _____ _____    ______ ____

>  <TORSDO>
F 5

$$$$
=
 OpenBabel07192307433D

 48 50  0  0  0  0  0  0  0  0999 V2000
    1.7000    8.1170   21.0980 C   0  0  0  0  0  0  0  0  0  0  0  0
    2.0280    8.1840   22.2800 O   0  0  0  0  0  0  0  0  0  0  0  0
    0.9900    9.1230   20.4470 N   0  0  0  0  0  0  0  0  0  0  0  0
    0.7240   10.3600   21.1850 C   0  0  0  0  0  0  0  0  0  0  0  0
    0.3490   11.5280   20.2660 C   0  0  0  0  0  0  0  0  0  0  0  0
   -0.7720   11.2120   19.3740 N   0  0  0  0  0  0  0  0  0  0  0  0
   -1.5960   12.2540   18.9650 C   0  0  0  0  0  0  0  0  0  0  0  0
   -1.4410   13.4230   19.3080 O   0  0  0  0  0  0  0  0  0  0  0  0
   -0.9920    9.7910   19.0720 C   0  0  0  0  0  0  0  0  0  0  0  0
    0.2960    8.9590   19.1640 C   0  0  0  0  0  0  0  0  0  0  0  0
    1.6000   10.6210   21.7890 H   0  0  0  0  0  0  0  0  0  0  0  0
   -0.1020   10.1460   21.8750 H   0  0  0  0  0  0  0  0  0  0  0  0
    1.1980   11.7780   19.6190 H   0  0  0  0  0  0  0  0  0  0  0  0
    0.1180   12.4140   20.8680 H   0  0  0  0  0  0  0  0  0  0  0  0
   -1.4320    9.6680   18.0810 H   0  0  0  0  0  0  0  0  0  0  0  0
   -1.7220    9.4280   19.8050 H   0  0  0  0  0  0  0  0  0  0  0  0
    0.0590    7.9040   18.9930 H   0  0  0  0  0  0  0  0  0  0  0  0
    0.9950    9.2850   18.3850 H   0  0  0  0  0  0  0  0  0  0  0  0
   -2.7580   11.9540   18.1160 C   0  0  0  0  0  0  0  0  0  0  0  0
   -2.5490   11.5360   16.7990 C   0  0  0  0  0  0  0  0  0  0  0  0
   -3.6460   11.2150   15.9970 C   0  0  0  0  0  0  0  0  0  0  0  0
   -4.9420   11.2990   16.5150 C   0  0  0  0  0  0  0  0  0  0  0  0
   -5.1430   11.6990   17.8380 C   0  0  0  0  0  0  0  0  0  0  0  0
   -4.0470   12.0190   18.6370 C   0  0  0  0  0  0  0  0  0  0  0  0
   -4.2590   12.4080   19.9020 F   0  0  0  0  0  0  0  0  0  0  0  0
   -1.5390   11.4510   16.4060 H   0  0  0  0  0  0  0  0  0  0  0  0
   -3.4910   10.8880   14.9710 H   0  0  0  0  0  0  0  0  0  0  0  0
   -5.7930   11.0440   15.8900 H   0  0  0  0  0  0  0  0  0  0  0  0
   -6.1450   11.7580   18.2530 H   0  0  0  0  0  0  0  0  0  0  0  0
    2.8050    4.6040   18.8240 C   0  0  0  0  0  0  0  0  0  0  0  0
    3.2330    5.8990   18.4700 C   0  0  0  0  0  0  0  0  0  0  0  0
    2.8690    7.0360   19.2030 C   0  0  0  0  0  0  0  0  0  0  0  0
    2.0790    6.9040   20.3400 C   0  0  0  0  0  0  0  0  0  0  0  0
    1.6230    5.6450   20.7180 C   0  0  0  0  0  0  0  0  0  0  0  0
    1.9960    4.5160   19.9740 C   0  0  0  0  0  0  0  0  0  0  0  0
    3.8640    6.0620   17.6000 H   0  0  0  0  0  0  0  0  0  0  0  0
    3.2070    8.0190   18.8820 H   0  0  0  0  0  0  0  0  0  0  0  0
    0.9730    5.5270   21.5810 H   0  0  0  0  0  0  0  0  0  0  0  0
    1.6250    3.5570   20.3230 H   0  0  0  0  0  0  0  0  0  0  0  0
    3.1910    3.4690   18.1000 N   0  0  0  0  0  0  0  0  0  0  0  0
    4.1780    3.6120   17.0300 C   0  0  0  0  0  0  0  0  0  0  0  0
    4.1410    2.7580   16.3440 H   0  0  0  0  0  0  0  0  0  0  0  0
    4.0260    4.5420   16.4730 H   0  0  0  0  0  0  0  0  0  0  0  0
    5.1950    3.6690   17.4340 H   0  0  0  0  0  0  0  0  0  0  0  0
    2.2250    2.3850   17.9180 C   0  0  0  0  0  0  0  0  0  0  0  0
    1.9630    2.2640   16.8610 H   0  0  0  0  0  0  0  0  0  0  0  0
    1.3170    2.5600   18.5060 H   0  0  0  0  0  0  0  0  0  0  0  0
    2.6280    1.4290   18.2700 H   0  0  0  0  0  0  0  0  0  0  0  0
  1  2  2  0  0  0  0
  3  1  1  0  0  0  0
  3  4  1  0  0  0  0
  4 11  1  0  0  0  0
  4 12  1  0  0  0  0
  5 14  1  0  0  0  0
  5  4  1  0  0  0  0
  6  5  1  0  0  0  0
  7  8  2  0  0  0  0
  7  6  1  0  0  0  0
  9 10  1  0  0  0  0
  9  6  1  0  0  0  0
  9 16  1  0  0  0  0
 10  3  1  0  0  0  0
 13  5  1  0  0  0  0
 15  9  1  0  0  0  0
 17 10  1  0  0  0  0
 18 10  1  0  0  0  0
 19 24  1  0  0  0  0
 19  7  1  0  0  0  0
 20 19  2  0  0  0  0
 21 22  2  0  0  0  0
 21 20  1  0  0  0  0
 22 23  1  0  0  0  0
 23 29  1  0  0  0  0
 23 24  2  0  0  0  0
 24 25  1  0  0  0  0
 26 20  1  0  0  0  0
 27 21  1  0  0  0  0
 28 22  1  0  0  0  0
 30 35  1  0  0  0  0
 31 30  2  0  0  0  0
 31 32  1  0  0  0  0
 32 33  2  0  0  0  0
 33 34  1  0  0  0  0
 33  1  1  0  0  0  0
 34 38  1  0  0  0  0
 35 39  1  0  0  0  0
 35 34  2  0  0  0  0
 36 31  1  0  0  0  0
 37 32  1  0  0  0  0
 40 30  1  0  0  0  0
 41 44  1  0  0  0  0
 41 40  1  0  0  0  0
 42 41  1  0  0  0  0
 43 41  1  0  0  0  0
 45 40  1  0  0  0  0
 45 48  1  0  0  0  0
 45 47  1  0  0  0  0
 46 45  1  0  0  0  0
M  END
>  <MODEL>
16

>  <REMARK>
 VINA RESULT:    -5.051      3.768      8.959
 INTER + INTRA:          -6.492
 INTER:                  -6.466
 INTRA:                  -0.026
 UNBOUND:                -0.260
  Name = 
  5 active torsions:
  status: ('A' for Active; 'I' for Inactive)
    1  A    between atoms: C_1  and  N_2
    2  A    between atoms: N_2  and  C_3
    3  A    between atoms: N_2  and  C_4
    4  A    between atoms: C_7  and  C_8
    5  A    between atoms: C_14  and  C_16
                            x       y       z     vdW  Elec       q    Type
                         _______ _______ _______ _____ _____    ______ ____

>  <TORSDO>
F 5

$$$$
=
 OpenBabel07192307433D

 48 50  0  0  0  0  0  0  0  0999 V2000
    1.8390    8.0960   21.1410 C   0  0  0  0  0  0  0  0  0  0  0  0
    2.2840    8.1860   22.2820 O   0  0  0  0  0  0  0  0  0  0  0  0
    1.1100    9.1100   20.5270 N   0  0  0  0  0  0  0  0  0  0  0  0
    0.9670   10.3810   21.2420 C   0  0  0  0  0  0  0  0  0  0  0  0
    0.5520   11.5340   20.3220 C   0  0  0  0  0  0  0  0  0  0  0  0
   -0.6630   11.2390   19.5550 N   0  0  0  0  0  0  0  0  0  0  0  0
   -1.4810   12.3030   19.1900 C   0  0  0  0  0  0  0  0  0  0  0  0
   -1.2450   13.4750   19.4740 O   0  0  0  0  0  0  0  0  0  0  0  0
   -0.9690    9.8200   19.3270 C   0  0  0  0  0  0  0  0  0  0  0  0
    0.2870    8.9360   19.3230 C   0  0  0  0  0  0  0  0  0  0  0  0
    1.9080   10.6230   21.7480 H   0  0  0  0  0  0  0  0  0  0  0  0
    0.2050   10.2250   22.0150 H   0  0  0  0  0  0  0  0  0  0  0  0
    1.3420   11.7270   19.5870 H   0  0  0  0  0  0  0  0  0  0  0  0
    0.4170   12.4480   20.9110 H   0  0  0  0  0  0  0  0  0  0  0  0
   -1.5090    9.6850   18.3880 H   0  0  0  0  0  0  0  0  0  0  0  0
   -1.6370    9.5130   20.1390 H   0  0  0  0  0  0  0  0  0  0  0  0
   -0.0080    7.8890   19.2140 H   0  0  0  0  0  0  0  0  0  0  0  0
    0.9190    9.2070   18.4690 H   0  0  0  0  0  0  0  0  0  0  0  0
   -2.7320   12.0280   18.4690 C   0  0  0  0  0  0  0  0  0  0  0  0
   -3.9510   12.3030   19.0940 C   0  0  0  0  0  0  0  0  0  0  0  0
   -5.1430   12.0790   18.4020 C   0  0  0  0  0  0  0  0  0  0  0  0
   -5.1130   11.5950   17.0910 C   0  0  0  0  0  0  0  0  0  0  0  0
   -3.8910   11.3400   16.4660 C   0  0  0  0  0  0  0  0  0  0  0  0
   -2.7020   11.5660   17.1570 C   0  0  0  0  0  0  0  0  0  0  0  0
   -1.5370   11.3090   16.5440 F   0  0  0  0  0  0  0  0  0  0  0  0
   -3.9710   12.7000   20.1050 H   0  0  0  0  0  0  0  0  0  0  0  0
   -6.0970   12.2910   18.8810 H   0  0  0  0  0  0  0  0  0  0  0  0
   -6.0430   11.4260   16.5540 H   0  0  0  0  0  0  0  0  0  0  0  0
   -3.8570   10.9740   15.4440 H   0  0  0  0  0  0  0  0  0  0  0  0
    2.5790    4.4690   18.8980 C   0  0  0  0  0  0  0  0  0  0  0  0
    3.1180    5.7140   18.5190 C   0  0  0  0  0  0  0  0  0  0  0  0
    2.8720    6.8890   19.2420 C   0  0  0  0  0  0  0  0  0  0  0  0
    2.0930    6.8440   20.3940 C   0  0  0  0  0  0  0  0  0  0  0  0
    1.5300    5.6360   20.7970 C   0  0  0  0  0  0  0  0  0  0  0  0
    1.7850    4.4690   20.0620 C   0  0  0  0  0  0  0  0  0  0  0  0
    3.7460    5.8080   17.6380 H   0  0  0  0  0  0  0  0  0  0  0  0
    3.2930    7.8330   18.9030 H   0  0  0  0  0  0  0  0  0  0  0  0
    0.8870    5.5900   21.6710 H   0  0  0  0  0  0  0  0  0  0  0  0
    1.3350    3.5530   20.4300 H   0  0  0  0  0  0  0  0  0  0  0  0
    2.8470    3.2940   18.1840 N   0  0  0  0  0  0  0  0  0  0  0  0
    2.3490    2.0210   18.7030 C   0  0  0  0  0  0  0  0  0  0  0  0
    2.9210    1.7030   19.5820 H   0  0  0  0  0  0  0  0  0  0  0  0
    1.2860    2.0840   18.9570 H   0  0  0  0  0  0  0  0  0  0  0  0
    2.4290    1.2270   17.9510 H   0  0  0  0  0  0  0  0  0  0  0  0
    4.0790    3.2110   17.3990 C   0  0  0  0  0  0  0  0  0  0  0  0
    4.2700    2.1810   17.0750 H   0  0  0  0  0  0  0  0  0  0  0  0
    4.9370    3.5840   17.9670 H   0  0  0  0  0  0  0  0  0  0  0  0
    4.0210    3.8340   16.5000 H   0  0  0  0  0  0  0  0  0  0  0  0
  1  2  2  0  0  0  0
  3  1  1  0  0  0  0
  3  4  1  0  0  0  0
  4 11  1  0  0  0  0
  4 12  1  0  0  0  0
  5 14  1  0  0  0  0
  5  4  1  0  0  0  0
  6  5  1  0  0  0  0
  7  8  2  0  0  0  0
  7  6  1  0  0  0  0
  9  6  1  0  0  0  0
  9 16  1  0  0  0  0
 10  9  1  0  0  0  0
 10  3  1  0  0  0  0
 13  5  1  0  0  0  0
 15  9  1  0  0  0  0
 17 10  1  0  0  0  0
 18 10  1  0  0  0  0
 19 20  1  0  0  0  0
 19  7  1  0  0  0  0
 20 26  1  0  0  0  0
 21 27  1  0  0  0  0
 21 20  2  0  0  0  0
 22 21  1  0  0  0  0
 23 22  2  0  0  0  0
 23 24  1  0  0  0  0
 24 19  2  0  0  0  0
 25 24  1  0  0  0  0
 28 22  1  0  0  0  0
 29 23  1  0  0  0  0
 30 35  1  0  0  0  0
 31 30  2  0  0  0  0
 31 32  1  0  0  0  0
 32 33  2  0  0  0  0
 33 34  1  0  0  0  0
 33  1  1  0  0  0  0
 34 38  1  0  0  0  0
 35 39  1  0  0  0  0
 35 34  2  0  0  0  0
 36 31  1  0  0  0  0
 37 32  1  0  0  0  0
 40 41  1  0  0  0  0
 40 30  1  0  0  0  0
 41 43  1  0  0  0  0
 41 42  1  0  0  0  0
 44 41  1  0  0  0  0
 45 47  1  0  0  0  0
 45 40  1  0  0  0  0
 46 45  1  0  0  0  0
 48 45  1  0  0  0  0
M  END
>  <MODEL>
17

>  <REMARK>
 VINA RESULT:    -4.620      3.433      8.991
 INTER + INTRA:          -5.960
 INTER:                  -5.834
 INTRA:                  -0.126
 UNBOUND:                -0.260
  Name = 
  5 active torsions:
  status: ('A' for Active; 'I' for Inactive)
    1  A    between atoms: C_1  and  N_2
    2  A    between atoms: N_2  and  C_3
    3  A    between atoms: N_2  and  C_4
    4  A    between atoms: C_7  and  C_8
    5  A    between atoms: C_14  and  C_16
                            x       y       z     vdW  Elec       q    Type
                         _______ _______ _______ _____ _____    ______ ____

>  <TORSDO>
F 5

$$$$
=
 OpenBabel07192307433D

 48 50  0  0  0  0  0  0  0  0999 V2000
    0.1640    8.5000   21.2320 C   0  0  0  0  0  0  0  0  0  0  0  0
   -0.4000    8.1010   22.2470 O   0  0  0  0  0  0  0  0  0  0  0  0
    0.9700    7.6880   20.4390 N   0  0  0  0  0  0  0  0  0  0  0  0
    1.0530    6.2660   20.7790 C   0  0  0  0  0  0  0  0  0  0  0  0
    1.5830    5.4110   19.6220 C   0  0  0  0  0  0  0  0  0  0  0  0
    2.8700    5.8900   19.1050 N   0  0  0  0  0  0  0  0  0  0  0  0
    3.7370    4.9590   18.5460 C   0  0  0  0  0  0  0  0  0  0  0  0
    3.4900    3.7580   18.4620 O   0  0  0  0  0  0  0  0  0  0  0  0
    3.1770    7.3110   19.3200 C   0  0  0  0  0  0  0  0  0  0  0  0
    1.9160    8.1810   19.4290 C   0  0  0  0  0  0  0  0  0  0  0  0
    0.0670    5.9070   21.0920 H   0  0  0  0  0  0  0  0  0  0  0  0
    1.7250    6.1850   21.6430 H   0  0  0  0  0  0  0  0  0  0  0  0
    0.8800    5.4460   18.7820 H   0  0  0  0  0  0  0  0  0  0  0  0
    1.6670    4.3670   19.9410 H   0  0  0  0  0  0  0  0  0  0  0  0
    3.8130    7.6960   18.5210 H   0  0  0  0  0  0  0  0  0  0  0  0
    3.7490    7.3660   20.2530 H   0  0  0  0  0  0  0  0  0  0  0  0
    2.2060    9.2120   19.6520 H   0  0  0  0  0  0  0  0  0  0  0  0
    1.3840    8.1720   18.4710 H   0  0  0  0  0  0  0  0  0  0  0  0
    5.0550    5.4050   18.0710 C   0  0  0  0  0  0  0  0  0  0  0  0
    5.1550    6.0140   16.8160 C   0  0  0  0  0  0  0  0  0  0  0  0
    6.3960    6.4740   16.3730 C   0  0  0  0  0  0  0  0  0  0  0  0
    7.5260    6.3370   17.1850 C   0  0  0  0  0  0  0  0  0  0  0  0
    7.4160    5.7450   18.4450 C   0  0  0  0  0  0  0  0  0  0  0  0
    6.1750    5.2880   18.8860 C   0  0  0  0  0  0  0  0  0  0  0  0
    6.0890    4.7150   20.0960 F   0  0  0  0  0  0  0  0  0  0  0  0
    4.2710    6.1390   16.1970 H   0  0  0  0  0  0  0  0  0  0  0  0
    6.4820    6.9490   15.3980 H   0  0  0  0  0  0  0  0  0  0  0  0
    8.4900    6.7000   16.8390 H   0  0  0  0  0  0  0  0  0  0  0  0
    8.2850    5.6430   19.0880 H   0  0  0  0  0  0  0  0  0  0  0  0
   -0.4080   12.6560   20.1640 C   0  0  0  0  0  0  0  0  0  0  0  0
    0.1620   12.2630   21.3910 C   0  0  0  0  0  0  0  0  0  0  0  0
    0.3410   10.9180   21.7380 C   0  0  0  0  0  0  0  0  0  0  0  0
   -0.0260    9.9170   20.8450 C   0  0  0  0  0  0  0  0  0  0  0  0
   -0.6060   10.2600   19.6270 C   0  0  0  0  0  0  0  0  0  0  0  0
   -0.7780   11.6110   19.2940 C   0  0  0  0  0  0  0  0  0  0  0  0
    0.4820   13.0010   22.1220 H   0  0  0  0  0  0  0  0  0  0  0  0
    0.7690   10.6590   22.7040 H   0  0  0  0  0  0  0  0  0  0  0  0
   -0.9350    9.4910   18.9340 H   0  0  0  0  0  0  0  0  0  0  0  0
   -1.2200   11.8220   18.3250 H   0  0  0  0  0  0  0  0  0  0  0  0
   -0.5630   14.0030   19.8130 N   0  0  0  0  0  0  0  0  0  0  0  0
   -0.4250   14.3890   18.4090 C   0  0  0  0  0  0  0  0  0  0  0  0
   -0.3700   13.5080   17.7610 H   0  0  0  0  0  0  0  0  0  0  0  0
   -1.2520   15.0320   18.0910 H   0  0  0  0  0  0  0  0  0  0  0  0
    0.4870   14.9770   18.2480 H   0  0  0  0  0  0  0  0  0  0  0  0
   -0.1940   15.0330   20.7840 C   0  0  0  0  0  0  0  0  0  0  0  0
    0.7550   14.7900   21.2750 H   0  0  0  0  0  0  0  0  0  0  0  0
   -0.9770   15.1650   21.5390 H   0  0  0  0  0  0  0  0  0  0  0  0
   -0.0760   16.0100   20.3030 H   0  0  0  0  0  0  0  0  0  0  0  0
  1  2  2  0  0  0  0
  3  4  1  0  0  0  0
  3  1  1  0  0  0  0
  4 11  1  0  0  0  0
  4 12  1  0  0  0  0
  5 14  1  0  0  0  0
  5  4  1  0  0  0  0
  6  9  1  0  0  0  0
  6  5  1  0  0  0  0
  7  6  1  0  0  0  0
  8  7  2  0  0  0  0
  9 10  1  0  0  0  0
  9 16  1  0  0  0  0
 10 17  1  0  0  0  0
 10  3  1  0  0  0  0
 13  5  1  0  0  0  0
 15  9  1  0  0  0  0
 18 10  1  0  0  0  0
 19  7  1  0  0  0  0
 19 24  1  0  0  0  0
 20 19  2  0  0  0  0
 21 20  1  0  0  0  0
 21 22  2  0  0  0  0
 22 23  1  0  0  0  0
 23 24  2  0  0  0  0
 23 29  1  0  0  0  0
 24 25  1  0  0  0  0
 26 20  1  0  0  0  0
 27 21  1  0  0  0  0
 28 22  1  0  0  0  0
 30 31  1  0  0  0  0
 31 32  2  0  0  0  0
 31 36  1  0  0  0  0
 32 37  1  0  0  0  0
 33  1  1  0  0  0  0
 33 32  1  0  0  0  0
 34 33  2  0  0  0  0
 35 34  1  0  0  0  0
 35 30  2  0  0  0  0
 38 34  1  0  0  0  0
 39 35  1  0  0  0  0
 40 30  1  0  0  0  0
 40 45  1  0  0  0  0
 41 40  1  0  0  0  0
 42 41  1  0  0  0  0
 43 41  1  0  0  0  0
 44 41  1  0  0  0  0
 45 46  1  0  0  0  0
 45 47  1  0  0  0  0
 48 45  1  0  0  0  0
M  END
>  <MODEL>
18

>  <REMARK>
 VINA RESULT:    -4.596      1.268      1.301
 INTER + INTRA:          -5.930
 INTER:                  -5.695
 INTRA:                  -0.236
 UNBOUND:                -0.260
  Name = 
  5 active torsions:
  status: ('A' for Active; 'I' for Inactive)
    1  A    between atoms: C_1  and  N_2
    2  A    between atoms: N_2  and  C_3
    3  A    between atoms: N_2  and  C_4
    4  A    between atoms: C_7  and  C_8
    5  A    between atoms: C_14  and  C_16
                            x       y       z     vdW  Elec       q    Type
                         _______ _______ _______ _____ _____    ______ ____

>  <TORSDO>
F 5

$$$$
=
 OpenBabel07192307433D

 48 50  0  0  0  0  0  0  0  0999 V2000
    2.6080    6.3190   19.7970 C   0  0  0  0  0  0  0  0  0  0  0  0
    2.6060    5.8450   20.9300 O   0  0  0  0  0  0  0  0  0  0  0  0
    3.1590    5.6660   18.6990 N   0  0  0  0  0  0  0  0  0  0  0  0
    3.6590    4.3020   18.8930 C   0  0  0  0  0  0  0  0  0  0  0  0
    3.8230    3.5380   17.5750 C   0  0  0  0  0  0  0  0  0  0  0  0
    4.6560    4.2560   16.6030 N   0  0  0  0  0  0  0  0  0  0  0  0
    5.3820    3.5050   15.6850 C   0  0  0  0  0  0  0  0  0  0  0  0
    5.3690    2.2780   15.6420 O   0  0  0  0  0  0  0  0  0  0  0  0
    4.7320    5.7150   16.7520 C   0  0  0  0  0  0  0  0  0  0  0  0
    3.4830    6.3100   17.4190 C   0  0  0  0  0  0  0  0  0  0  0  0
    2.9840    3.7580   19.5630 H   0  0  0  0  0  0  0  0  0  0  0  0
    4.6280    4.3900   19.3990 H   0  0  0  0  0  0  0  0  0  0  0  0
    2.8440    3.4010   17.1010 H   0  0  0  0  0  0  0  0  0  0  0  0
    4.2390    2.5440   17.7710 H   0  0  0  0  0  0  0  0  0  0  0  0
    4.8900    6.1970   15.7860 H   0  0  0  0  0  0  0  0  0  0  0  0
    5.6150    5.9170   17.3700 H   0  0  0  0  0  0  0  0  0  0  0  0
    3.6250    7.3850   17.5610 H   0  0  0  0  0  0  0  0  0  0  0  0
    2.6160    6.1600   16.7650 H   0  0  0  0  0  0  0  0  0  0  0  0
    6.2660    4.1980   14.7370 C   0  0  0  0  0  0  0  0  0  0  0  0
    7.2910    5.0100   15.2320 C   0  0  0  0  0  0  0  0  0  0  0  0
    8.1580    5.6420   14.3380 C   0  0  0  0  0  0  0  0  0  0  0  0
    8.0080    5.4530   12.9610 C   0  0  0  0  0  0  0  0  0  0  0  0
    6.9930    4.6260   12.4750 C   0  0  0  0  0  0  0  0  0  0  0  0
    6.1300    3.9940   13.3680 C   0  0  0  0  0  0  0  0  0  0  0  0
    5.1560    3.2090   12.8820 F   0  0  0  0  0  0  0  0  0  0  0  0
    7.4200    5.1370   16.3030 H   0  0  0  0  0  0  0  0  0  0  0  0
    8.9590    6.2750   14.7160 H   0  0  0  0  0  0  0  0  0  0  0  0
    8.6870    5.9430   12.2690 H   0  0  0  0  0  0  0  0  0  0  0  0
    6.8740    4.4640   11.4070 H   0  0  0  0  0  0  0  0  0  0  0  0
    0.7620   10.1990   19.2690 C   0  0  0  0  0  0  0  0  0  0  0  0
    0.7150    9.5000   20.4910 C   0  0  0  0  0  0  0  0  0  0  0  0
    1.3070    8.2420   20.6590 C   0  0  0  0  0  0  0  0  0  0  0  0
    1.9940    7.6530   19.6030 C   0  0  0  0  0  0  0  0  0  0  0  0
    2.0540    8.3020   18.3740 C   0  0  0  0  0  0  0  0  0  0  0  0
    1.4560    9.5620   18.2210 C   0  0  0  0  0  0  0  0  0  0  0  0
    0.2060    9.9170   21.3560 H   0  0  0  0  0  0  0  0  0  0  0  0
    1.2300    7.7290   21.6150 H   0  0  0  0  0  0  0  0  0  0  0  0
    2.5530    7.8390   17.5260 H   0  0  0  0  0  0  0  0  0  0  0  0
    1.5470   10.0300   17.2460 H   0  0  0  0  0  0  0  0  0  0  0  0
    0.1880   11.4670   19.1140 N   0  0  0  0  0  0  0  0  0  0  0  0
   -1.2320   11.5660   18.7780 C   0  0  0  0  0  0  0  0  0  0  0  0
   -1.6310   10.5960   18.4620 H   0  0  0  0  0  0  0  0  0  0  0  0
   -1.8130   11.9480   19.6240 H   0  0  0  0  0  0  0  0  0  0  0  0
   -1.3970   12.2760   17.9590 H   0  0  0  0  0  0  0  0  0  0  0  0
    1.0230   12.5650   18.6270 C   0  0  0  0  0  0  0  0  0  0  0  0
    1.7890   12.8340   19.3630 H   0  0  0  0  0  0  0  0  0  0  0  0
    0.4190   13.4460   18.3850 H   0  0  0  0  0  0  0  0  0  0  0  0
    1.5390   12.2930   17.6990 H   0  0  0  0  0  0  0  0  0  0  0  0
  1  2  2  0  0  0  0
  3  4  1  0  0  0  0
  3  1  1  0  0  0  0
  4 12  1  0  0  0  0
  4 11  1  0  0  0  0
  5 14  1  0  0  0  0
  5  4  1  0  0  0  0
  6  9  1  0  0  0  0
  6  5  1  0  0  0  0
  7  6  1  0  0  0  0
  8  7  2  0  0  0  0
  9 16  1  0  0  0  0
  9 10  1  0  0  0  0
 10 17  1  0  0  0  0
 10  3  1  0  0  0  0
 13  5  1  0  0  0  0
 15  9  1  0  0  0  0
 18 10  1  0  0  0  0
 19 20  1  0  0  0  0
 19  7  1  0  0  0  0
 20 26  1  0  0  0  0
 21 27  1  0  0  0  0
 21 20  2  0  0  0  0
 22 21  1  0  0  0  0
 23 22  2  0  0  0  0
 23 24  1  0  0  0  0
 24 19  2  0  0  0  0
 25 24  1  0  0  0  0
 28 22  1  0  0  0  0
 29 23  1  0  0  0  0
 30 31  1  0  0  0  0
 31 32  2  0  0  0  0
 31 36  1  0  0  0  0
 32 37  1  0  0  0  0
 33  1  1  0  0  0  0
 33 32  1  0  0  0  0
 34 33  2  0  0  0  0
 35 34  1  0  0  0  0
 35 30  2  0  0  0  0
 38 34  1  0  0  0  0
 39 35  1  0  0  0  0
 40 30  1  0  0  0  0
 41 40  1  0  0  0  0
 41 43  1  0  0  0  0
 42 41  1  0  0  0  0
 44 41  1  0  0  0  0
 45 40  1  0  0  0  0
 45 46  1  0  0  0  0
 47 45  1  0  0  0  0
 48 45  1  0  0  0  0
M  END
>  <MODEL>
19

>  <REMARK>
 VINA RESULT:    -4.343      2.193      3.232
 INTER + INTRA:          -5.619
 INTER:                  -6.711
 INTRA:                   1.092
 UNBOUND:                -0.260
  Name = 
  5 active torsions:
  status: ('A' for Active; 'I' for Inactive)
    1  A    between atoms: C_1  and  N_2
    2  A    between atoms: N_2  and  C_3
    3  A    between atoms: N_2  and  C_4
    4  A    between atoms: C_7  and  C_8
    5  A    between atoms: C_14  and  C_16
                            x       y       z     vdW  Elec       q    Type
                         _______ _______ _______ _____ _____    ______ ____

>  <TORSDO>
F 5

$$$$
=
 OpenBabel07192307433D

 48 50  0  0  0  0  0  0  0  0999 V2000
    6.9940    6.5720   16.5370 C   0  0  0  0  0  0  0  0  0  0  0  0
    7.1150    6.7010   15.3220 O   0  0  0  0  0  0  0  0  0  0  0  0
    6.3030    5.5170   17.1260 N   0  0  0  0  0  0  0  0  0  0  0  0
    5.7950    4.4570   16.2500 C   0  0  0  0  0  0  0  0  0  0  0  0
    5.4610    3.1700   17.0110 C   0  0  0  0  0  0  0  0  0  0  0  0
    4.5380    3.3950   18.1300 N   0  0  0  0  0  0  0  0  0  0  0  0
    3.6920    2.3560   18.4980 C   0  0  0  0  0  0  0  0  0  0  0  0
    3.6700    1.2610   17.9400 O   0  0  0  0  0  0  0  0  0  0  0  0
    4.5160    4.7480   18.7010 C   0  0  0  0  0  0  0  0  0  0  0  0
    5.8480    5.4900   18.5220 C   0  0  0  0  0  0  0  0  0  0  0  0
    6.5300    4.2510   15.4630 H   0  0  0  0  0  0  0  0  0  0  0  0
    4.8940    4.8520   15.7650 H   0  0  0  0  0  0  0  0  0  0  0  0
    6.3740    2.7470   17.4430 H   0  0  0  0  0  0  0  0  0  0  0  0
    5.0460    2.4280   16.3200 H   0  0  0  0  0  0  0  0  0  0  0  0
    4.2590    4.7180   19.7610 H   0  0  0  0  0  0  0  0  0  0  0  0
    3.7160    5.2900   18.1830 H   0  0  0  0  0  0  0  0  0  0  0  0
    5.7500    6.5090   18.9080 H   0  0  0  0  0  0  0  0  0  0  0  0
    6.6290    4.9780   19.0960 H   0  0  0  0  0  0  0  0  0  0  0  0
    2.7210    2.5750   19.5790 C   0  0  0  0  0  0  0  0  0  0  0  0
    3.1300    2.4060   20.9050 C   0  0  0  0  0  0  0  0  0  0  0  0
    2.2240    2.6470   21.9400 C   0  0  0  0  0  0  0  0  0  0  0  0
    0.9220    3.0670   21.6490 C   0  0  0  0  0  0  0  0  0  0  0  0
    0.5260    3.2530   20.3230 C   0  0  0  0  0  0  0  0  0  0  0  0
    1.4320    3.0120   19.2920 C   0  0  0  0  0  0  0  0  0  0  0  0
    1.0310    3.1880   18.0230 F   0  0  0  0  0  0  0  0  0  0  0  0
    4.1490    2.1010   21.1290 H   0  0  0  0  0  0  0  0  0  0  0  0
    2.5350    2.5190   22.9750 H   0  0  0  0  0  0  0  0  0  0  0  0
    0.2210    3.2590   22.4560 H   0  0  0  0  0  0  0  0  0  0  0  0
   -0.4800    3.5880   20.0860 H   0  0  0  0  0  0  0  0  0  0  0  0
    8.8190    9.6040   19.0300 C   0  0  0  0  0  0  0  0  0  0  0  0
    8.0750    9.9220   17.8770 C   0  0  0  0  0  0  0  0  0  0  0  0
    7.4890    8.9390   17.0670 C   0  0  0  0  0  0  0  0  0  0  0  0
    7.6130    7.5960   17.4090 C   0  0  0  0  0  0  0  0  0  0  0  0
    8.3510    7.2370   18.5320 C   0  0  0  0  0  0  0  0  0  0  0  0
    8.9310    8.2320   19.3320 C   0  0  0  0  0  0  0  0  0  0  0  0
    7.9310   10.9540   17.5700 H   0  0  0  0  0  0  0  0  0  0  0  0
    6.9390    9.2290   16.1750 H   0  0  0  0  0  0  0  0  0  0  0  0
    8.4920    6.1910   18.7910 H   0  0  0  0  0  0  0  0  0  0  0  0
    9.4820    7.8960   20.2050 H   0  0  0  0  0  0  0  0  0  0  0  0
    9.3820   10.5910   19.8480 N   0  0  0  0  0  0  0  0  0  0  0  0
    8.9220   10.7130   21.2310 C   0  0  0  0  0  0  0  0  0  0  0  0
    8.7970    9.7270   21.6920 H   0  0  0  0  0  0  0  0  0  0  0  0
    9.6140   11.3160   21.8280 H   0  0  0  0  0  0  0  0  0  0  0  0
    7.9560   11.2280   21.2830 H   0  0  0  0  0  0  0  0  0  0  0  0
    9.8520   11.8340   19.2340 C   0  0  0  0  0  0  0  0  0  0  0  0
   10.0680   12.5920   19.9960 H   0  0  0  0  0  0  0  0  0  0  0  0
    9.1190   12.2250   18.5210 H   0  0  0  0  0  0  0  0  0  0  0  0
   10.7710   11.6720   18.6600 H   0  0  0  0  0  0  0  0  0  0  0  0
  1  3  1  0  0  0  0
  1 33  1  0  0  0  0
  2  1  2  0  0  0  0
  3 10  1  0  0  0  0
  4  5  1  0  0  0  0
  4  3  1  0  0  0  0
  5 13  1  0  0  0  0
  5  6  1  0  0  0  0
  6  7  1  0  0  0  0
  6  9  1  0  0  0  0
  7 19  1  0  0  0  0
  8  7  2  0  0  0  0
  9 15  1  0  0  0  0
 10  9  1  0  0  0  0
 10 17  1  0  0  0  0
 10 18  1  0  0  0  0
 11  4  1  0  0  0  0
 12  4  1  0  0  0  0
 14  5  1  0  0  0  0
 16  9  1  0  0  0  0
 19 20  1  0  0  0  0
 20 26  1  0  0  0  0
 20 21  2  0  0  0  0
 21 27  1  0  0  0  0
 22 21  1  0  0  0  0
 22 28  1  0  0  0  0
 23 22  2  0  0  0  0
 24 19  2  0  0  0  0
 24 23  1  0  0  0  0
 25 24  1  0  0  0  0
 29 23  1  0  0  0  0
 30 35  1  0  0  0  0
 30 40  1  0  0  0  0
 31 30  2  0  0  0  0
 32 33  2  0  0  0  0
 32 31  1  0  0  0  0
 33 34  1  0  0  0  0
 34 38  1  0  0  0  0
 34 35  2  0  0  0  0
 35 39  1  0  0  0  0
 36 31  1  0  0  0  0
 37 32  1  0  0  0  0
 40 41  1  0  0  0  0
 41 44  1  0  0  0  0
 41 42  1  0  0  0  0
 41 43  1  0  0  0  0
 45 40  1  0  0  0  0
 45 46  1  0  0  0  0
 47 45  1  0  0  0  0
 48 45  1  0  0  0  0
M  END
>  <MODEL>
20

>  <REMARK>
 VINA RESULT:    -3.633      5.458      6.949
 INTER + INTRA:          -4.743
 INTER:                  -4.724
 INTRA:                  -0.019
 UNBOUND:                -0.260
  Name = 
  5 active torsions:
  status: ('A' for Active; 'I' for Inactive)
    1  A    between atoms: C_1  and  N_2
    2  A    between atoms: N_2  and  C_3
    3  A    between atoms: N_2  and  C_4
    4  A    between atoms: C_7  and  C_8
    5  A    between atoms: C_14  and  C_16
                            x       y       z     vdW  Elec       q    Type
                         _______ _______ _______ _____ _____    ______ ____

>  <TORSDO>
F 5

$$$$
