=
 OpenBabel07192307433D

 35 36  0  0  0  0  0  0  0  0999 V2000
    1.6810    3.1140   20.5260 C   0  0  0  0  0  0  0  0  0  0  0  0
    0.4690    3.2450   20.3570 O   0  0  0  0  0  0  0  0  0  0  0  0
    2.6110    3.4660   19.5630 N   0  0  0  0  0  0  0  0  0  0  0  0
    2.1450    3.9520   18.2620 C   0  0  0  0  0  0  0  0  0  0  0  0
    3.0780    3.5500   17.1050 C   0  0  0  0  0  0  0  0  0  0  0  0
    4.4760    3.9560   17.3530 N   0  0  0  0  0  0  0  0  0  0  0  0
    4.8540    4.2530   18.7430 C   0  0  0  0  0  0  0  0  0  0  0  0
    4.0630    3.3820   19.7400 C   0  0  0  0  0  0  0  0  0  0  0  0
    2.0920    5.0440   18.3370 H   0  0  0  0  0  0  0  0  0  0  0  0
    1.1310    3.5880   18.0600 H   0  0  0  0  0  0  0  0  0  0  0  0
    3.0470    2.4620   16.9750 H   0  0  0  0  0  0  0  0  0  0  0  0
    2.6880    4.0170   16.1920 H   0  0  0  0  0  0  0  0  0  0  0  0
    4.6640    5.3130   18.9480 H   0  0  0  0  0  0  0  0  0  0  0  0
    5.9190    4.0550   18.9110 H   0  0  0  0  0  0  0  0  0  0  0  0
    4.3260    3.6670   20.7630 H   0  0  0  0  0  0  0  0  0  0  0  0
    4.3340    2.3280   19.6060 H   0  0  0  0  0  0  0  0  0  0  0  0
    5.3260    4.2300   16.2920 C   0  0  0  0  0  0  0  0  0  0  0  0
    6.5470    4.8980   16.4650 C   0  0  0  0  0  0  0  0  0  0  0  0
    7.4120    5.1720   15.3910 C   0  0  0  0  0  0  0  0  0  0  0  0
    7.0750    4.7770   14.1020 C   0  0  0  0  0  0  0  0  0  0  0  0
    5.8710    4.1080   13.9040 C   0  0  0  0  0  0  0  0  0  0  0  0
    5.0150    3.8400   14.9800 C   0  0  0  0  0  0  0  0  0  0  0  0
    6.8520    5.2490   17.4470 H   0  0  0  0  0  0  0  0  0  0  0  0
    8.3340    5.7010   15.6050 H   0  0  0  0  0  0  0  0  0  0  0  0
    5.5930    3.7830   12.9050 H   0  0  0  0  0  0  0  0  0  0  0  0
    4.1020    3.2910   14.7680 H   0  0  0  0  0  0  0  0  0  0  0  0
    7.8170    4.9770   12.9730 O   0  0  0  0  0  0  0  0  0  0  0  0
    7.3290    4.3930   11.7720 C   0  0  0  0  0  0  0  0  0  0  0  0
    6.4920    3.7180   11.9740 H   0  0  0  0  0  0  0  0  0  0  0  0
    8.1300    3.8780   11.2290 H   0  0  0  0  0  0  0  0  0  0  0  0
    6.9600    5.2010   11.1340 H   0  0  0  0  0  0  0  0  0  0  0  0
    2.2150    2.5590   21.8220 C   0  0  0  0  0  0  0  0  0  0  0  0
    2.1630    3.3090   22.6150 H   0  0  0  0  0  0  0  0  0  0  0  0
    3.2660    2.2840   21.6900 H   0  0  0  0  0  0  0  0  0  0  0  0
    1.6540    1.6650   22.1030 H   0  0  0  0  0  0  0  0  0  0  0  0
  1 32  1  0  0  0  0
  2  1  2  0  0  0  0
  3  8  1  0  0  0  0
  3  1  1  0  0  0  0
  4  9  1  0  0  0  0
  4  3  1  0  0  0  0
  5  6  1  0  0  0  0
  5  4  1  0  0  0  0
  6  7  1  0  0  0  0
  7 14  1  0  0  0  0
  7 13  1  0  0  0  0
  7  8  1  0  0  0  0
  8 15  1  0  0  0  0
 10  4  1  0  0  0  0
 11  5  1  0  0  0  0
 12  5  1  0  0  0  0
 16  8  1  0  0  0  0
 17 18  1  0  0  0  0
 17  6  1  0  0  0  0
 18 23  1  0  0  0  0
 19 24  1  0  0  0  0
 19 18  2  0  0  0  0
 20 19  1  0  0  0  0
 21 20  2  0  0  0  0
 21 22  1  0  0  0  0
 22 17  2  0  0  0  0
 25 21  1  0  0  0  0
 26 22  1  0  0  0  0
 27 20  1  0  0  0  0
 28 29  1  0  0  0  0
 28 27  1  0  0  0  0
 30 28  1  0  0  0  0
 31 28  1  0  0  0  0
 32 35  1  0  0  0  0
 32 33  1  0  0  0  0
 34 32  1  0  0  0  0
M  END
>  <MODEL>
1

>  <REMARK>
 VINA RESULT:    -5.620      0.000      0.000
 INTER + INTRA:          -6.798
 INTER:                  -6.580
 INTRA:                  -0.218
 UNBOUND:                -0.192
  Name = 
  4 active torsions:
  status: ('A' for Active; 'I' for Inactive)
    1  A    between atoms: C_1  and  C_2
    2  A    between atoms: N_7  and  C_10
    3  A    between atoms: C_13  and  O_16
    4  A    between atoms: O_16  and  C_17
                            x       y       z     vdW  Elec       q    Type
                         _______ _______ _______ _____ _____    ______ ____

>  <TORSDO>
F 4

$$$$
=
 OpenBabel07192307433D

 35 36  0  0  0  0  0  0  0  0999 V2000
    0.4470    9.4220   20.6870 C   0  0  0  0  0  0  0  0  0  0  0  0
    0.2740   10.5870   20.3340 O   0  0  0  0  0  0  0  0  0  0  0  0
    1.3080    8.5610   20.0290 N   0  0  0  0  0  0  0  0  0  0  0  0
    1.9950    9.0230   18.8200 C   0  0  0  0  0  0  0  0  0  0  0  0
    2.2230    7.8970   17.7940 C   0  0  0  0  0  0  0  0  0  0  0  0
    2.9160    6.7370   18.3880 N   0  0  0  0  0  0  0  0  0  0  0  0
    2.8950    6.6190   19.8540 C   0  0  0  0  0  0  0  0  0  0  0  0
    1.5890    7.1850   20.4460 C   0  0  0  0  0  0  0  0  0  0  0  0
    2.9590    9.4310   19.1460 H   0  0  0  0  0  0  0  0  0  0  0  0
    1.4350    9.8400   18.3510 H   0  0  0  0  0  0  0  0  0  0  0  0
    1.2550    7.5640   17.4010 H   0  0  0  0  0  0  0  0  0  0  0  0
    2.8020    8.3210   16.9650 H   0  0  0  0  0  0  0  0  0  0  0  0
    3.7540    7.1590   20.2700 H   0  0  0  0  0  0  0  0  0  0  0  0
    2.9660    5.5690   20.1640 H   0  0  0  0  0  0  0  0  0  0  0  0
    1.6300    7.1330   21.5380 H   0  0  0  0  0  0  0  0  0  0  0  0
    0.7390    6.5770   20.1140 H   0  0  0  0  0  0  0  0  0  0  0  0
    3.7120    5.9170   17.6010 C   0  0  0  0  0  0  0  0  0  0  0  0
    3.6140    4.5180   17.6420 C   0  0  0  0  0  0  0  0  0  0  0  0
    4.4160    3.6860   16.8420 C   0  0  0  0  0  0  0  0  0  0  0  0
    5.3440    4.2390   15.9670 C   0  0  0  0  0  0  0  0  0  0  0  0
    5.4560    5.6240   15.9040 C   0  0  0  0  0  0  0  0  0  0  0  0
    4.6540    6.4460   16.7060 C   0  0  0  0  0  0  0  0  0  0  0  0
    2.9210    4.0310   18.3230 H   0  0  0  0  0  0  0  0  0  0  0  0
    4.2870    2.6140   16.9370 H   0  0  0  0  0  0  0  0  0  0  0  0
    6.1700    6.0760   15.2200 H   0  0  0  0  0  0  0  0  0  0  0  0
    4.7680    7.5200   16.5930 H   0  0  0  0  0  0  0  0  0  0  0  0
    6.1820    3.5520   15.1350 O   0  0  0  0  0  0  0  0  0  0  0  0
    6.1720    3.9250   13.7630 C   0  0  0  0  0  0  0  0  0  0  0  0
    6.0160    3.0540   13.1190 H   0  0  0  0  0  0  0  0  0  0  0  0
    7.0900    4.4590   13.4910 H   0  0  0  0  0  0  0  0  0  0  0  0
    5.3320    4.6080   13.6090 H   0  0  0  0  0  0  0  0  0  0  0  0
   -0.2830    8.8720   21.8860 C   0  0  0  0  0  0  0  0  0  0  0  0
    0.0240    7.8420   22.0880 H   0  0  0  0  0  0  0  0  0  0  0  0
   -1.3580    8.8670   21.6830 H   0  0  0  0  0  0  0  0  0  0  0  0
   -0.0960    9.5040   22.7580 H   0  0  0  0  0  0  0  0  0  0  0  0
  1 32  1  0  0  0  0
  2  1  2  0  0  0  0
  3  8  1  0  0  0  0
  3  1  1  0  0  0  0
  4  9  1  0  0  0  0
  4  3  1  0  0  0  0
  5  6  1  0  0  0  0
  5  4  1  0  0  0  0
  6  7  1  0  0  0  0
  7 14  1  0  0  0  0
  7 13  1  0  0  0  0
  7  8  1  0  0  0  0
  8 15  1  0  0  0  0
 10  4  1  0  0  0  0
 11  5  1  0  0  0  0
 12  5  1  0  0  0  0
 16  8  1  0  0  0  0
 17 18  1  0  0  0  0
 17  6  1  0  0  0  0
 18 23  1  0  0  0  0
 19 24  1  0  0  0  0
 19 18  2  0  0  0  0
 20 19  1  0  0  0  0
 21 20  2  0  0  0  0
 21 22  1  0  0  0  0
 22 17  2  0  0  0  0
 25 21  1  0  0  0  0
 26 22  1  0  0  0  0
 27 20  1  0  0  0  0
 28 27  1  0  0  0  0
 29 28  1  0  0  0  0
 30 28  1  0  0  0  0
 31 28  1  0  0  0  0
 32 33  1  0  0  0  0
 32 35  1  0  0  0  0
 34 32  1  0  0  0  0
M  END
>  <MODEL>
2

>  <REMARK>
 VINA RESULT:    -5.484      3.938      4.386
 INTER + INTRA:          -6.639
 INTER:                  -6.435
 INTRA:                  -0.204
 UNBOUND:                -0.192
  Name = 
  4 active torsions:
  status: ('A' for Active; 'I' for Inactive)
    1  A    between atoms: C_1  and  C_2
    2  A    between atoms: N_7  and  C_10
    3  A    between atoms: C_13  and  O_16
    4  A    between atoms: O_16  and  C_17
                            x       y       z     vdW  Elec       q    Type
                         _______ _______ _______ _____ _____    ______ ____

>  <TORSDO>
F 4

$$$$
=
 OpenBabel07192307433D

 35 36  0  0  0  0  0  0  0  0999 V2000
   -0.7800   11.2190   22.3660 C   0  0  0  0  0  0  0  0  0  0  0  0
   -1.5060   10.8200   23.2760 O   0  0  0  0  0  0  0  0  0  0  0  0
   -0.0970   10.3610   21.5230 N   0  0  0  0  0  0  0  0  0  0  0  0
   -0.1790    8.9160   21.7540 C   0  0  0  0  0  0  0  0  0  0  0  0
    1.1170    8.1760   21.3760 C   0  0  0  0  0  0  0  0  0  0  0  0
    1.5390    8.4680   19.9920 N   0  0  0  0  0  0  0  0  0  0  0  0
    0.9820    9.6730   19.3590 C   0  0  0  0  0  0  0  0  0  0  0  0
    0.7320   10.7880   20.3930 C   0  0  0  0  0  0  0  0  0  0  0  0
   -1.0110    8.5490   21.1420 H   0  0  0  0  0  0  0  0  0  0  0  0
   -0.4280    8.7110   22.8020 H   0  0  0  0  0  0  0  0  0  0  0  0
    1.9200    8.4770   22.0590 H   0  0  0  0  0  0  0  0  0  0  0  0
    0.9340    7.1030   21.5140 H   0  0  0  0  0  0  0  0  0  0  0  0
    0.0400    9.4130   18.8610 H   0  0  0  0  0  0  0  0  0  0  0  0
    1.6700   10.0740   18.6060 H   0  0  0  0  0  0  0  0  0  0  0  0
    0.2660   11.6470   19.8990 H   0  0  0  0  0  0  0  0  0  0  0  0
    1.6880   11.1220   20.8150 H   0  0  0  0  0  0  0  0  0  0  0  0
    2.2710    7.5360   19.2700 C   0  0  0  0  0  0  0  0  0  0  0  0
    2.9250    7.8640   18.0730 C   0  0  0  0  0  0  0  0  0  0  0  0
    3.6710    6.9220   17.3430 C   0  0  0  0  0  0  0  0  0  0  0  0
    3.7860    5.6140   17.7990 C   0  0  0  0  0  0  0  0  0  0  0  0
    3.1510    5.2650   18.9870 C   0  0  0  0  0  0  0  0  0  0  0  0
    2.4090    6.2100   19.7080 C   0  0  0  0  0  0  0  0  0  0  0  0
    2.8520    8.8660   17.6580 H   0  0  0  0  0  0  0  0  0  0  0  0
    4.1400    7.2510   16.4220 H   0  0  0  0  0  0  0  0  0  0  0  0
    3.2360    4.2500   19.3650 H   0  0  0  0  0  0  0  0  0  0  0  0
    1.9580    5.8860   20.6410 H   0  0  0  0  0  0  0  0  0  0  0  0
    4.4760    4.6030   17.1930 O   0  0  0  0  0  0  0  0  0  0  0  0
    4.0970    3.2750   17.5320 C   0  0  0  0  0  0  0  0  0  0  0  0
    4.2210    2.6000   16.6800 H   0  0  0  0  0  0  0  0  0  0  0  0
    3.0720    3.2430   17.9170 H   0  0  0  0  0  0  0  0  0  0  0  0
    4.7630    2.9310   18.3300 H   0  0  0  0  0  0  0  0  0  0  0  0
   -0.6060   12.6970   22.1220 C   0  0  0  0  0  0  0  0  0  0  0  0
   -1.5190   13.1310   21.7060 H   0  0  0  0  0  0  0  0  0  0  0  0
    0.1980   12.8510   21.3950 H   0  0  0  0  0  0  0  0  0  0  0  0
   -0.3340   13.1990   23.0540 H   0  0  0  0  0  0  0  0  0  0  0  0
  1  2  2  0  0  0  0
  3  4  1  0  0  0  0
  3  1  1  0  0  0  0
  4 10  1  0  0  0  0
  5 12  1  0  0  0  0
  5  4  1  0  0  0  0
  5 11  1  0  0  0  0
  6  5  1  0  0  0  0
  7  6  1  0  0  0  0
  7  8  1  0  0  0  0
  8 16  1  0  0  0  0
  8  3  1  0  0  0  0
  9  4  1  0  0  0  0
 13  7  1  0  0  0  0
 14  7  1  0  0  0  0
 15  8  1  0  0  0  0
 17 22  1  0  0  0  0
 17  6  1  0  0  0  0
 18 17  2  0  0  0  0
 19 20  2  0  0  0  0
 19 18  1  0  0  0  0
 20 21  1  0  0  0  0
 21 25  1  0  0  0  0
 21 22  2  0  0  0  0
 22 26  1  0  0  0  0
 23 18  1  0  0  0  0
 24 19  1  0  0  0  0
 27 28  1  0  0  0  0
 27 20  1  0  0  0  0
 28 30  1  0  0  0  0
 28 31  1  0  0  0  0
 29 28  1  0  0  0  0
 32  1  1  0  0  0  0
 32 35  1  0  0  0  0
 33 32  1  0  0  0  0
 34 32  1  0  0  0  0
M  END
>  <MODEL>
3

>  <REMARK>
 VINA RESULT:    -5.452      5.774      6.818
 INTER + INTRA:          -6.600
 INTER:                  -6.378
 INTRA:                  -0.222
 UNBOUND:                -0.192
  Name = 
  4 active torsions:
  status: ('A' for Active; 'I' for Inactive)
    1  A    between atoms: C_1  and  C_2
    2  A    between atoms: N_7  and  C_10
    3  A    between atoms: C_13  and  O_16
    4  A    between atoms: O_16  and  C_17
                            x       y       z     vdW  Elec       q    Type
                         _______ _______ _______ _____ _____    ______ ____

>  <TORSDO>
F 4

$$$$
=
 OpenBabel07192307433D

 35 36  0  0  0  0  0  0  0  0999 V2000
   -0.7610   11.1610   22.4140 C   0  0  0  0  0  0  0  0  0  0  0  0
   -1.4530   10.7580   23.3480 O   0  0  0  0  0  0  0  0  0  0  0  0
   -0.0830   10.3060   21.5630 N   0  0  0  0  0  0  0  0  0  0  0  0
   -0.1280    8.8640   21.8130 C   0  0  0  0  0  0  0  0  0  0  0  0
    1.1730    8.1460   21.4080 C   0  0  0  0  0  0  0  0  0  0  0  0
    1.5510    8.4300   20.0090 N   0  0  0  0  0  0  0  0  0  0  0  0
    0.9510    9.6140   19.3780 C   0  0  0  0  0  0  0  0  0  0  0  0
    0.7050   10.7370   20.4040 C   0  0  0  0  0  0  0  0  0  0  0  0
   -0.9690    8.4710   21.2280 H   0  0  0  0  0  0  0  0  0  0  0  0
   -0.3440    8.6660   22.8690 H   0  0  0  0  0  0  0  0  0  0  0  0
    1.9870    8.4730   22.0640 H   0  0  0  0  0  0  0  0  0  0  0  0
    1.0160    7.0710   21.5640 H   0  0  0  0  0  0  0  0  0  0  0  0
    0.0010    9.3290   18.9090 H   0  0  0  0  0  0  0  0  0  0  0  0
    1.6090   10.0210   18.6010 H   0  0  0  0  0  0  0  0  0  0  0  0
    0.2080   11.5790   19.9140 H   0  0  0  0  0  0  0  0  0  0  0  0
    1.6650   11.0970   20.7960 H   0  0  0  0  0  0  0  0  0  0  0  0
    2.2820    7.5050   19.2790 C   0  0  0  0  0  0  0  0  0  0  0  0
    2.3840    6.1590   19.6630 C   0  0  0  0  0  0  0  0  0  0  0  0
    3.1210    5.2200   18.9220 C   0  0  0  0  0  0  0  0  0  0  0  0
    3.7780    5.6060   17.7590 C   0  0  0  0  0  0  0  0  0  0  0  0
    3.6870    6.9330   17.3530 C   0  0  0  0  0  0  0  0  0  0  0  0
    2.9520    7.8630   18.0990 C   0  0  0  0  0  0  0  0  0  0  0  0
    1.9090    5.8060   20.5750 H   0  0  0  0  0  0  0  0  0  0  0  0
    3.1590    4.2010   19.2890 H   0  0  0  0  0  0  0  0  0  0  0  0
    4.1870    7.2530   16.4420 H   0  0  0  0  0  0  0  0  0  0  0  0
    2.8960    8.8790   17.7180 H   0  0  0  0  0  0  0  0  0  0  0  0
    4.5240    4.8020   16.9450 O   0  0  0  0  0  0  0  0  0  0  0  0
    5.3330    5.4480   15.9710 C   0  0  0  0  0  0  0  0  0  0  0  0
    5.4710    6.5070   16.2110 H   0  0  0  0  0  0  0  0  0  0  0  0
    4.9170    5.3220   14.9650 H   0  0  0  0  0  0  0  0  0  0  0  0
    6.3180    4.9720   15.9850 H   0  0  0  0  0  0  0  0  0  0  0  0
   -0.6260   12.6390   22.1470 C   0  0  0  0  0  0  0  0  0  0  0  0
   -0.2640   12.8180   21.1320 H   0  0  0  0  0  0  0  0  0  0  0  0
    0.1040   13.0660   22.8420 H   0  0  0  0  0  0  0  0  0  0  0  0
   -1.5870   13.1350   22.3040 H   0  0  0  0  0  0  0  0  0  0  0  0
  1  2  2  0  0  0  0
  3  4  1  0  0  0  0
  3  1  1  0  0  0  0
  4 10  1  0  0  0  0
  5 12  1  0  0  0  0
  5  4  1  0  0  0  0
  5 11  1  0  0  0  0
  6  5  1  0  0  0  0
  7  6  1  0  0  0  0
  7  8  1  0  0  0  0
  8 16  1  0  0  0  0
  8  3  1  0  0  0  0
  9  4  1  0  0  0  0
 13  7  1  0  0  0  0
 14  7  1  0  0  0  0
 15  8  1  0  0  0  0
 17 18  1  0  0  0  0
 17  6  1  0  0  0  0
 18 23  1  0  0  0  0
 19 24  1  0  0  0  0
 19 18  2  0  0  0  0
 20 19  1  0  0  0  0
 21 20  2  0  0  0  0
 21 22  1  0  0  0  0
 22 17  2  0  0  0  0
 25 21  1  0  0  0  0
 26 22  1  0  0  0  0
 27 20  1  0  0  0  0
 28 31  1  0  0  0  0
 28 29  1  0  0  0  0
 28 27  1  0  0  0  0
 30 28  1  0  0  0  0
 32 35  1  0  0  0  0
 32  1  1  0  0  0  0
 32 34  1  0  0  0  0
 33 32  1  0  0  0  0
M  END
>  <MODEL>
4

>  <REMARK>
 VINA RESULT:    -5.418      5.737      6.687
 INTER + INTRA:          -6.561
 INTER:                  -6.338
 INTRA:                  -0.223
 UNBOUND:                -0.192
  Name = 
  4 active torsions:
  status: ('A' for Active; 'I' for Inactive)
    1  A    between atoms: C_1  and  C_2
    2  A    between atoms: N_7  and  C_10
    3  A    between atoms: C_13  and  O_16
    4  A    between atoms: O_16  and  C_17
                            x       y       z     vdW  Elec       q    Type
                         _______ _______ _______ _____ _____    ______ ____

>  <TORSDO>
F 4

$$$$
=
 OpenBabel07192307433D

 35 36  0  0  0  0  0  0  0  0999 V2000
    5.6980    4.1460   15.6250 C   0  0  0  0  0  0  0  0  0  0  0  0
    5.7240    2.9400   15.8680 O   0  0  0  0  0  0  0  0  0  0  0  0
    5.0040    5.0510   16.4070 N   0  0  0  0  0  0  0  0  0  0  0  0
    4.2090    4.5600   17.5350 C   0  0  0  0  0  0  0  0  0  0  0  0
    2.9460    5.4040   17.7890 C   0  0  0  0  0  0  0  0  0  0  0  0
    3.2600    6.8380   17.9470 N   0  0  0  0  0  0  0  0  0  0  0  0
    4.5560    7.3040   17.4320 C   0  0  0  0  0  0  0  0  0  0  0  0
    4.9900    6.5010   16.1900 C   0  0  0  0  0  0  0  0  0  0  0  0
    4.8620    4.5910   18.4150 H   0  0  0  0  0  0  0  0  0  0  0  0
    3.9250    3.5130   17.3750 H   0  0  0  0  0  0  0  0  0  0  0  0
    2.2550    5.2870   16.9460 H   0  0  0  0  0  0  0  0  0  0  0  0
    2.4600    5.0060   18.6890 H   0  0  0  0  0  0  0  0  0  0  0  0
    5.3130    7.2020   18.2200 H   0  0  0  0  0  0  0  0  0  0  0  0
    4.5060    8.3590   17.1370 H   0  0  0  0  0  0  0  0  0  0  0  0
    5.9820    6.8340   15.8670 H   0  0  0  0  0  0  0  0  0  0  0  0
    4.2900    6.6870   15.3660 H   0  0  0  0  0  0  0  0  0  0  0  0
    2.4470    7.6540   18.7210 C   0  0  0  0  0  0  0  0  0  0  0  0
    1.8760    8.8330   18.2200 C   0  0  0  0  0  0  0  0  0  0  0  0
    1.0490    9.6580   19.0010 C   0  0  0  0  0  0  0  0  0  0  0  0
    0.7640    9.3170   20.3180 C   0  0  0  0  0  0  0  0  0  0  0  0
    1.3130    8.1490   20.8370 C   0  0  0  0  0  0  0  0  0  0  0  0
    2.1380    7.3340   20.0510 C   0  0  0  0  0  0  0  0  0  0  0  0
    2.0820    9.1600   17.2030 H   0  0  0  0  0  0  0  0  0  0  0  0
    0.6530   10.5580   18.5440 H   0  0  0  0  0  0  0  0  0  0  0  0
    1.0950    7.8610   21.8620 H   0  0  0  0  0  0  0  0  0  0  0  0
    2.5150    6.4210   20.5030 H   0  0  0  0  0  0  0  0  0  0  0  0
   -0.0210   10.0220   21.1850 O   0  0  0  0  0  0  0  0  0  0  0  0
   -0.1590    9.4960   22.4990 C   0  0  0  0  0  0  0  0  0  0  0  0
   -1.2050    9.2680   22.7250 H   0  0  0  0  0  0  0  0  0  0  0  0
    0.2680   10.1770   23.2450 H   0  0  0  0  0  0  0  0  0  0  0  0
    0.4030    8.5590   22.5440 H   0  0  0  0  0  0  0  0  0  0  0  0
    6.4460    4.7010   14.4390 C   0  0  0  0  0  0  0  0  0  0  0  0
    7.3420    4.1090   14.2340 H   0  0  0  0  0  0  0  0  0  0  0  0
    6.7640    5.7240   14.6590 H   0  0  0  0  0  0  0  0  0  0  0  0
    5.7920    4.7200   13.5630 H   0  0  0  0  0  0  0  0  0  0  0  0
  1  2  2  0  0  0  0
  1  3  1  0  0  0  0
  3  4  1  0  0  0  0
  4  5  1  0  0  0  0
  4  9  1  0  0  0  0
  5  6  1  0  0  0  0
  5 12  1  0  0  0  0
  6 17  1  0  0  0  0
  7  6  1  0  0  0  0
  7 13  1  0  0  0  0
  8  3  1  0  0  0  0
  8  7  1  0  0  0  0
 10  4  1  0  0  0  0
 11  5  1  0  0  0  0
 14  7  1  0  0  0  0
 15  8  1  0  0  0  0
 16  8  1  0  0  0  0
 17 22  1  0  0  0  0
 18 17  2  0  0  0  0
 18 19  1  0  0  0  0
 19 20  2  0  0  0  0
 20 21  1  0  0  0  0
 20 27  1  0  0  0  0
 21 25  1  0  0  0  0
 22 26  1  0  0  0  0
 22 21  2  0  0  0  0
 23 18  1  0  0  0  0
 24 19  1  0  0  0  0
 27 28  1  0  0  0  0
 28 31  1  0  0  0  0
 28 29  1  0  0  0  0
 28 30  1  0  0  0  0
 32 34  1  0  0  0  0
 32  1  1  0  0  0  0
 33 32  1  0  0  0  0
 35 32  1  0  0  0  0
M  END
>  <MODEL>
5

>  <REMARK>
 VINA RESULT:    -5.396      4.150      7.514
 INTER + INTRA:          -6.535
 INTER:                  -6.326
 INTRA:                  -0.209
 UNBOUND:                -0.192
  Name = 
  4 active torsions:
  status: ('A' for Active; 'I' for Inactive)
    1  A    between atoms: C_1  and  C_2
    2  A    between atoms: N_7  and  C_10
    3  A    between atoms: C_13  and  O_16
    4  A    between atoms: O_16  and  C_17
                            x       y       z     vdW  Elec       q    Type
                         _______ _______ _______ _____ _____    ______ ____

>  <TORSDO>
F 4

$$$$
=
 OpenBabel07192307433D

 35 36  0  0  0  0  0  0  0  0999 V2000
    0.7930   11.9440   19.1590 C   0  0  0  0  0  0  0  0  0  0  0  0
   -0.0710   12.3750   19.9210 O   0  0  0  0  0  0  0  0  0  0  0  0
    1.1320   10.6040   19.0950 N   0  0  0  0  0  0  0  0  0  0  0  0
    0.4930    9.6600   20.0150 C   0  0  0  0  0  0  0  0  0  0  0  0
    1.4230    8.5030   20.4250 C   0  0  0  0  0  0  0  0  0  0  0  0
    1.9870    7.8030   19.2550 N   0  0  0  0  0  0  0  0  0  0  0  0
    1.9620    8.5150   17.9680 C   0  0  0  0  0  0  0  0  0  0  0  0
    2.1120   10.0370   18.1640 C   0  0  0  0  0  0  0  0  0  0  0  0
   -0.3880    9.2650   19.4950 H   0  0  0  0  0  0  0  0  0  0  0  0
    0.1380   10.1820   20.9110 H   0  0  0  0  0  0  0  0  0  0  0  0
    2.2480    8.8970   21.0290 H   0  0  0  0  0  0  0  0  0  0  0  0
    0.8370    7.8170   21.0500 H   0  0  0  0  0  0  0  0  0  0  0  0
    1.0160    8.3000   17.4570 H   0  0  0  0  0  0  0  0  0  0  0  0
    2.7850    8.1870   17.3220 H   0  0  0  0  0  0  0  0  0  0  0  0
    2.0330   10.5400   17.1960 H   0  0  0  0  0  0  0  0  0  0  0  0
    3.1020   10.2610   18.5780 H   0  0  0  0  0  0  0  0  0  0  0  0
    2.3380    6.4630   19.3400 C   0  0  0  0  0  0  0  0  0  0  0  0
    1.9520    5.6560   20.4200 C   0  0  0  0  0  0  0  0  0  0  0  0
    2.3030    4.2980   20.5060 C   0  0  0  0  0  0  0  0  0  0  0  0
    3.0540    3.7040   19.4990 C   0  0  0  0  0  0  0  0  0  0  0  0
    3.4450    4.4810   18.4130 C   0  0  0  0  0  0  0  0  0  0  0  0
    3.0910    5.8350   18.3370 C   0  0  0  0  0  0  0  0  0  0  0  0
    1.3820    6.0720   21.2470 H   0  0  0  0  0  0  0  0  0  0  0  0
    1.9730    3.7430   21.3780 H   0  0  0  0  0  0  0  0  0  0  0  0
    4.0250    4.0330   17.6110 H   0  0  0  0  0  0  0  0  0  0  0  0
    3.4030    6.3840   17.4530 H   0  0  0  0  0  0  0  0  0  0  0  0
    3.4620    2.4010   19.4540 O   0  0  0  0  0  0  0  0  0  0  0  0
    3.4330    1.7630   18.1830 C   0  0  0  0  0  0  0  0  0  0  0  0
    4.0720    2.2860   17.4640 H   0  0  0  0  0  0  0  0  0  0  0  0
    2.4070    1.6740   17.8090 H   0  0  0  0  0  0  0  0  0  0  0  0
    3.8310    0.7520   18.3080 H   0  0  0  0  0  0  0  0  0  0  0  0
    1.5290   12.8790   18.2330 C   0  0  0  0  0  0  0  0  0  0  0  0
    2.4090   13.2990   18.7270 H   0  0  0  0  0  0  0  0  0  0  0  0
    0.8710   13.7100   17.9610 H   0  0  0  0  0  0  0  0  0  0  0  0
    1.8180   12.3500   17.3220 H   0  0  0  0  0  0  0  0  0  0  0  0
  1  2  2  0  0  0  0
  3  1  1  0  0  0  0
  3  4  1  0  0  0  0
  4  5  1  0  0  0  0
  4 10  1  0  0  0  0
  5 11  1  0  0  0  0
  5 12  1  0  0  0  0
  6 17  1  0  0  0  0
  6  5  1  0  0  0  0
  7  8  1  0  0  0  0
  7  6  1  0  0  0  0
  8 16  1  0  0  0  0
  8  3  1  0  0  0  0
  9  4  1  0  0  0  0
 13  7  1  0  0  0  0
 14  7  1  0  0  0  0
 15  8  1  0  0  0  0
 17 18  1  0  0  0  0
 18 19  2  0  0  0  0
 18 23  1  0  0  0  0
 19 24  1  0  0  0  0
 20 19  1  0  0  0  0
 21 20  2  0  0  0  0
 22 21  1  0  0  0  0
 22 17  2  0  0  0  0
 25 21  1  0  0  0  0
 26 22  1  0  0  0  0
 27 20  1  0  0  0  0
 28 31  1  0  0  0  0
 28 27  1  0  0  0  0
 29 28  1  0  0  0  0
 30 28  1  0  0  0  0
 32 33  1  0  0  0  0
 32  1  1  0  0  0  0
 34 32  1  0  0  0  0
 35 32  1  0  0  0  0
M  END
>  <MODEL>
6

>  <REMARK>
 VINA RESULT:    -5.384      5.223      7.083
 INTER + INTRA:          -6.521
 INTER:                  -6.302
 INTRA:                  -0.219
 UNBOUND:                -0.192
  Name = 
  4 active torsions:
  status: ('A' for Active; 'I' for Inactive)
    1  A    between atoms: C_1  and  C_2
    2  A    between atoms: N_7  and  C_10
    3  A    between atoms: C_13  and  O_16
    4  A    between atoms: O_16  and  C_17
                            x       y       z     vdW  Elec       q    Type
                         _______ _______ _______ _____ _____    ______ ____

>  <TORSDO>
F 4

$$$$
=
 OpenBabel07192307433D

 35 36  0  0  0  0  0  0  0  0999 V2000
    3.7310    3.3040   18.5790 C   0  0  0  0  0  0  0  0  0  0  0  0
    3.9420    3.1270   17.3800 O   0  0  0  0  0  0  0  0  0  0  0  0
    3.0890    4.4280   19.0670 N   0  0  0  0  0  0  0  0  0  0  0  0
    2.6990    5.4900   18.1350 C   0  0  0  0  0  0  0  0  0  0  0  0
    2.7700    6.8930   18.7650 C   0  0  0  0  0  0  0  0  0  0  0  0
    1.9960    6.9780   20.0190 N   0  0  0  0  0  0  0  0  0  0  0  0
    1.6640    5.7140   20.6920 C   0  0  0  0  0  0  0  0  0  0  0  0
    2.7650    4.6560   20.4780 C   0  0  0  0  0  0  0  0  0  0  0  0
    1.6710    5.2710   17.8250 H   0  0  0  0  0  0  0  0  0  0  0  0
    3.3260    5.4580   17.2360 H   0  0  0  0  0  0  0  0  0  0  0  0
    3.8150    7.1420   18.9810 H   0  0  0  0  0  0  0  0  0  0  0  0
    2.3940    7.6060   18.0200 H   0  0  0  0  0  0  0  0  0  0  0  0
    0.7110    5.3380   20.3010 H   0  0  0  0  0  0  0  0  0  0  0  0
    1.5590    5.8600   21.7730 H   0  0  0  0  0  0  0  0  0  0  0  0
    2.4620    3.7130   20.9420 H   0  0  0  0  0  0  0  0  0  0  0  0
    3.6930    4.9840   20.9620 H   0  0  0  0  0  0  0  0  0  0  0  0
    1.4460    8.1860   20.4240 C   0  0  0  0  0  0  0  0  0  0  0  0
    1.1930    9.2320   19.5240 C   0  0  0  0  0  0  0  0  0  0  0  0
    0.6320   10.4540   19.9320 C   0  0  0  0  0  0  0  0  0  0  0  0
    0.3020   10.6620   21.2660 C   0  0  0  0  0  0  0  0  0  0  0  0
    0.5380    9.6390   22.1780 C   0  0  0  0  0  0  0  0  0  0  0  0
    1.0990    8.4240   21.7620 C   0  0  0  0  0  0  0  0  0  0  0  0
    1.4510    9.1330   18.4730 H   0  0  0  0  0  0  0  0  0  0  0  0
    0.4740   11.2170   19.1770 H   0  0  0  0  0  0  0  0  0  0  0  0
    0.2790    9.7790   23.2240 H   0  0  0  0  0  0  0  0  0  0  0  0
    1.2350    7.6530   22.5150 H   0  0  0  0  0  0  0  0  0  0  0  0
   -0.2480   11.7950   21.7970 O   0  0  0  0  0  0  0  0  0  0  0  0
   -1.1590   11.6210   22.8750 C   0  0  0  0  0  0  0  0  0  0  0  0
   -2.0780   12.1920   22.7110 H   0  0  0  0  0  0  0  0  0  0  0  0
   -0.6940   11.8850   23.8320 H   0  0  0  0  0  0  0  0  0  0  0  0
   -1.4280   10.5620   22.9170 H   0  0  0  0  0  0  0  0  0  0  0  0
    4.1670    2.2740   19.5910 C   0  0  0  0  0  0  0  0  0  0  0  0
    4.6700    1.4380   19.0990 H   0  0  0  0  0  0  0  0  0  0  0  0
    3.2860    1.8790   20.1060 H   0  0  0  0  0  0  0  0  0  0  0  0
    4.8250    2.7360   20.3310 H   0  0  0  0  0  0  0  0  0  0  0  0
  1  3  1  0  0  0  0
  1 32  1  0  0  0  0
  2  1  2  0  0  0  0
  3  8  1  0  0  0  0
  4  5  1  0  0  0  0
  4  3  1  0  0  0  0
  5 11  1  0  0  0  0
  5  6  1  0  0  0  0
  6 17  1  0  0  0  0
  6  7  1  0  0  0  0
  7 14  1  0  0  0  0
  8  7  1  0  0  0  0
  8 15  1  0  0  0  0
  8 16  1  0  0  0  0
  9  4  1  0  0  0  0
 10  4  1  0  0  0  0
 12  5  1  0  0  0  0
 13  7  1  0  0  0  0
 17 22  1  0  0  0  0
 18 19  1  0  0  0  0
 18 17  2  0  0  0  0
 19 20  2  0  0  0  0
 20 27  1  0  0  0  0
 20 21  1  0  0  0  0
 21 25  1  0  0  0  0
 22 21  2  0  0  0  0
 22 26  1  0  0  0  0
 23 18  1  0  0  0  0
 24 19  1  0  0  0  0
 27 28  1  0  0  0  0
 28 31  1  0  0  0  0
 28 30  1  0  0  0  0
 29 28  1  0  0  0  0
 32 34  1  0  0  0  0
 32 35  1  0  0  0  0
 33 32  1  0  0  0  0
M  END
>  <MODEL>
7

>  <REMARK>
 VINA RESULT:    -5.384      5.184      7.956
 INTER + INTRA:          -6.521
 INTER:                  -6.302
 INTRA:                  -0.219
 UNBOUND:                -0.192
  Name = 
  4 active torsions:
  status: ('A' for Active; 'I' for Inactive)
    1  A    between atoms: C_1  and  C_2
    2  A    between atoms: N_7  and  C_10
    3  A    between atoms: C_13  and  O_16
    4  A    between atoms: O_16  and  C_17
                            x       y       z     vdW  Elec       q    Type
                         _______ _______ _______ _____ _____    ______ ____

>  <TORSDO>
F 4

$$$$
=
 OpenBabel07192307433D

 35 36  0  0  0  0  0  0  0  0999 V2000
    0.0110   11.4030   20.0880 C   0  0  0  0  0  0  0  0  0  0  0  0
    0.1120   12.4870   19.5160 O   0  0  0  0  0  0  0  0  0  0  0  0
    0.7410   10.2890   19.7130 N   0  0  0  0  0  0  0  0  0  0  0  0
    1.6240   10.3710   18.5470 C   0  0  0  0  0  0  0  0  0  0  0  0
    1.7200    9.0420   17.7750 C   0  0  0  0  0  0  0  0  0  0  0  0
    2.1030    7.9180   18.6510 N   0  0  0  0  0  0  0  0  0  0  0  0
    1.9140    8.0980   20.0980 C   0  0  0  0  0  0  0  0  0  0  0  0
    0.6970    8.9950   20.4000 C   0  0  0  0  0  0  0  0  0  0  0  0
    2.6130   10.6570   18.9240 H   0  0  0  0  0  0  0  0  0  0  0  0
    1.2890   11.1660   17.8710 H   0  0  0  0  0  0  0  0  0  0  0  0
    0.7490    8.8160   17.3190 H   0  0  0  0  0  0  0  0  0  0  0  0
    2.4520    9.1830   16.9700 H   0  0  0  0  0  0  0  0  0  0  0  0
    2.8180    8.5480   20.5260 H   0  0  0  0  0  0  0  0  0  0  0  0
    1.7410    7.1360   20.5940 H   0  0  0  0  0  0  0  0  0  0  0  0
    0.6180    9.1540   21.4800 H   0  0  0  0  0  0  0  0  0  0  0  0
   -0.2220    8.4960   20.0670 H   0  0  0  0  0  0  0  0  0  0  0  0
    2.7910    6.8290   18.1350 C   0  0  0  0  0  0  0  0  0  0  0  0
    2.2910    5.5210   18.2170 C   0  0  0  0  0  0  0  0  0  0  0  0
    2.9840    4.4180   17.6910 C   0  0  0  0  0  0  0  0  0  0  0  0
    4.2080    4.5980   17.0580 C   0  0  0  0  0  0  0  0  0  0  0  0
    4.7240    5.8860   16.9580 C   0  0  0  0  0  0  0  0  0  0  0  0
    4.0260    6.9800   17.4870 C   0  0  0  0  0  0  0  0  0  0  0  0
    1.3490    5.3190   18.7210 H   0  0  0  0  0  0  0  0  0  0  0  0
    2.5360    3.4370   17.8020 H   0  0  0  0  0  0  0  0  0  0  0  0
    5.6750    6.0480   16.4590 H   0  0  0  0  0  0  0  0  0  0  0  0
    4.4660    7.9640   17.3550 H   0  0  0  0  0  0  0  0  0  0  0  0
    4.9850    3.6200   16.5030 O   0  0  0  0  0  0  0  0  0  0  0  0
    6.0170    4.0430   15.6210 C   0  0  0  0  0  0  0  0  0  0  0  0
    5.7960    5.0280   15.1990 H   0  0  0  0  0  0  0  0  0  0  0  0
    6.1900    3.3030   14.8310 H   0  0  0  0  0  0  0  0  0  0  0  0
    6.9390    4.1290   16.2040 H   0  0  0  0  0  0  0  0  0  0  0  0
   -0.9300   11.2410   21.2560 C   0  0  0  0  0  0  0  0  0  0  0  0
   -1.5400   10.3410   21.1400 H   0  0  0  0  0  0  0  0  0  0  0  0
   -1.6060   12.1000   21.2950 H   0  0  0  0  0  0  0  0  0  0  0  0
   -0.3620   11.2010   22.1880 H   0  0  0  0  0  0  0  0  0  0  0  0
  1 32  1  0  0  0  0
  2  1  2  0  0  0  0
  3  1  1  0  0  0  0
  3  8  1  0  0  0  0
  4  9  1  0  0  0  0
  4  3  1  0  0  0  0
  5  4  1  0  0  0  0
  5  6  1  0  0  0  0
  6  7  1  0  0  0  0
  7  8  1  0  0  0  0
  7 13  1  0  0  0  0
  7 14  1  0  0  0  0
  8 15  1  0  0  0  0
 10  4  1  0  0  0  0
 11  5  1  0  0  0  0
 12  5  1  0  0  0  0
 16  8  1  0  0  0  0
 17 18  1  0  0  0  0
 17  6  1  0  0  0  0
 18 23  1  0  0  0  0
 19 24  1  0  0  0  0
 19 18  2  0  0  0  0
 20 19  1  0  0  0  0
 21 20  2  0  0  0  0
 21 22  1  0  0  0  0
 22 17  2  0  0  0  0
 25 21  1  0  0  0  0
 26 22  1  0  0  0  0
 27 20  1  0  0  0  0
 28 31  1  0  0  0  0
 28 27  1  0  0  0  0
 29 28  1  0  0  0  0
 30 28  1  0  0  0  0
 32 34  1  0  0  0  0
 32 35  1  0  0  0  0
 33 32  1  0  0  0  0
M  END
>  <MODEL>
8

>  <REMARK>
 VINA RESULT:    -5.313      5.222      5.988
 INTER + INTRA:          -6.437
 INTER:                  -6.231
 INTRA:                  -0.206
 UNBOUND:                -0.192
  Name = 
  4 active torsions:
  status: ('A' for Active; 'I' for Inactive)
    1  A    between atoms: C_1  and  C_2
    2  A    between atoms: N_7  and  C_10
    3  A    between atoms: C_13  and  O_16
    4  A    between atoms: O_16  and  C_17
                            x       y       z     vdW  Elec       q    Type
                         _______ _______ _______ _____ _____    ______ ____

>  <TORSDO>
F 4

$$$$
=
 OpenBabel07192307433D

 35 36  0  0  0  0  0  0  0  0999 V2000
    3.7360    3.3150   18.5990 C   0  0  0  0  0  0  0  0  0  0  0  0
    3.9650    3.1210   17.4060 O   0  0  0  0  0  0  0  0  0  0  0  0
    3.0980    4.4510   19.0620 N   0  0  0  0  0  0  0  0  0  0  0  0
    2.7350    5.5050   18.1120 C   0  0  0  0  0  0  0  0  0  0  0  0
    2.8090    6.9160   18.7260 C   0  0  0  0  0  0  0  0  0  0  0  0
    2.0160    7.0240   19.9660 N   0  0  0  0  0  0  0  0  0  0  0  0
    1.6600    5.7710   20.6480 C   0  0  0  0  0  0  0  0  0  0  0  0
    2.7530    4.6990   20.4650 C   0  0  0  0  0  0  0  0  0  0  0  0
    1.7090    5.2930   17.7870 H   0  0  0  0  0  0  0  0  0  0  0  0
    3.3760    5.4560   17.2240 H   0  0  0  0  0  0  0  0  0  0  0  0
    3.8540    7.1570   18.9560 H   0  0  0  0  0  0  0  0  0  0  0  0
    2.4530    7.6230   17.9670 H   0  0  0  0  0  0  0  0  0  0  0  0
    0.7090    5.4000   20.2460 H   0  0  0  0  0  0  0  0  0  0  0  0
    1.5380    5.9310   21.7260 H   0  0  0  0  0  0  0  0  0  0  0  0
    2.4320    3.7650   20.9360 H   0  0  0  0  0  0  0  0  0  0  0  0
    3.6760    5.0240   20.9610 H   0  0  0  0  0  0  0  0  0  0  0  0
    1.4720    8.2420   20.3470 C   0  0  0  0  0  0  0  0  0  0  0  0
    1.1380    8.5280   21.6790 C   0  0  0  0  0  0  0  0  0  0  0  0
    0.5920    9.7630   22.0680 C   0  0  0  0  0  0  0  0  0  0  0  0
    0.3670   10.7570   21.1230 C   0  0  0  0  0  0  0  0  0  0  0  0
    0.6940   10.5000   19.7960 C   0  0  0  0  0  0  0  0  0  0  0  0
    1.2370    9.2660   19.4170 C   0  0  0  0  0  0  0  0  0  0  0  0
    1.2730    7.7800   22.4570 H   0  0  0  0  0  0  0  0  0  0  0  0
    0.3530    9.9040   23.1160 H   0  0  0  0  0  0  0  0  0  0  0  0
    0.5330   11.2680   19.0430 H   0  0  0  0  0  0  0  0  0  0  0  0
    1.4970    9.1340   18.3710 H   0  0  0  0  0  0  0  0  0  0  0  0
   -0.1550   11.9970   21.3610 O   0  0  0  0  0  0  0  0  0  0  0  0
   -0.8930   12.1630   22.5650 C   0  0  0  0  0  0  0  0  0  0  0  0
   -1.9560   12.3220   22.3580 H   0  0  0  0  0  0  0  0  0  0  0  0
   -0.4810   12.9770   23.1720 H   0  0  0  0  0  0  0  0  0  0  0  0
   -0.8010   11.2380   23.1420 H   0  0  0  0  0  0  0  0  0  0  0  0
    4.1450    2.2930   19.6300 C   0  0  0  0  0  0  0  0  0  0  0  0
    4.4430    2.7810   20.5620 H   0  0  0  0  0  0  0  0  0  0  0  0
    5.0060    1.7290   19.2580 H   0  0  0  0  0  0  0  0  0  0  0  0
    3.3230    1.5960   19.8100 H   0  0  0  0  0  0  0  0  0  0  0  0
  1  3  1  0  0  0  0
  1 32  1  0  0  0  0
  2  1  2  0  0  0  0
  3  8  1  0  0  0  0
  4  5  1  0  0  0  0
  4  3  1  0  0  0  0
  5 11  1  0  0  0  0
  5  6  1  0  0  0  0
  6 17  1  0  0  0  0
  6  7  1  0  0  0  0
  7 14  1  0  0  0  0
  8  7  1  0  0  0  0
  8 15  1  0  0  0  0
  8 16  1  0  0  0  0
  9  4  1  0  0  0  0
 10  4  1  0  0  0  0
 12  5  1  0  0  0  0
 13  7  1  0  0  0  0
 17 18  1  0  0  0  0
 18 19  2  0  0  0  0
 18 23  1  0  0  0  0
 19 24  1  0  0  0  0
 20 27  1  0  0  0  0
 20 19  1  0  0  0  0
 21 20  2  0  0  0  0
 22 21  1  0  0  0  0
 22 17  2  0  0  0  0
 25 21  1  0  0  0  0
 26 22  1  0  0  0  0
 27 28  1  0  0  0  0
 28 31  1  0  0  0  0
 28 30  1  0  0  0  0
 29 28  1  0  0  0  0
 32 35  1  0  0  0  0
 32 33  1  0  0  0  0
 34 32  1  0  0  0  0
M  END
>  <MODEL>
9

>  <REMARK>
 VINA RESULT:    -5.306      5.253      7.862
 INTER + INTRA:          -6.429
 INTER:                  -6.222
 INTRA:                  -0.207
 UNBOUND:                -0.192
  Name = 
  4 active torsions:
  status: ('A' for Active; 'I' for Inactive)
    1  A    between atoms: C_1  and  C_2
    2  A    between atoms: N_7  and  C_10
    3  A    between atoms: C_13  and  O_16
    4  A    between atoms: O_16  and  C_17
                            x       y       z     vdW  Elec       q    Type
                         _______ _______ _______ _____ _____    ______ ____

>  <TORSDO>
F 4

$$$$
=
 OpenBabel07192307433D

 35 36  0  0  0  0  0  0  0  0999 V2000
   -0.6530   11.9450   21.7870 C   0  0  0  0  0  0  0  0  0  0  0  0
   -0.5820   13.0150   21.1830 O   0  0  0  0  0  0  0  0  0  0  0  0
    0.0490   10.8190   21.3990 N   0  0  0  0  0  0  0  0  0  0  0  0
    0.8620   10.8670   20.1810 C   0  0  0  0  0  0  0  0  0  0  0  0
    0.9080    9.5190   19.4380 C   0  0  0  0  0  0  0  0  0  0  0  0
    1.3370    8.4150   20.3190 N   0  0  0  0  0  0  0  0  0  0  0  0
    1.2340    8.6320   21.7690 C   0  0  0  0  0  0  0  0  0  0  0  0
    0.0400    9.5420   22.1190 C   0  0  0  0  0  0  0  0  0  0  0  0
    1.8730   11.1570   20.4920 H   0  0  0  0  0  0  0  0  0  0  0  0
    0.4910   11.6470   19.5060 H   0  0  0  0  0  0  0  0  0  0  0  0
   -0.0890    9.2870   19.0460 H   0  0  0  0  0  0  0  0  0  0  0  0
    1.5920    9.6360   18.5890 H   0  0  0  0  0  0  0  0  0  0  0  0
    2.1640    9.0870   22.1320 H   0  0  0  0  0  0  0  0  0  0  0  0
    1.0860    7.6830   22.2990 H   0  0  0  0  0  0  0  0  0  0  0  0
    0.0260    9.7280   23.1970 H   0  0  0  0  0  0  0  0  0  0  0  0
   -0.8980    9.0400   21.8530 H   0  0  0  0  0  0  0  0  0  0  0  0
    1.9900    7.3100   19.7910 C   0  0  0  0  0  0  0  0  0  0  0  0
    2.6850    7.3620   18.5740 C   0  0  0  0  0  0  0  0  0  0  0  0
    3.3500    6.2450   18.0400 C   0  0  0  0  0  0  0  0  0  0  0  0
    3.3410    5.0330   18.7220 C   0  0  0  0  0  0  0  0  0  0  0  0
    2.6630    4.9570   19.9340 C   0  0  0  0  0  0  0  0  0  0  0  0
    2.0020    6.0750   20.4580 C   0  0  0  0  0  0  0  0  0  0  0  0
    2.7070    8.2770   17.9870 H   0  0  0  0  0  0  0  0  0  0  0  0
    3.8570    6.3630   17.0890 H   0  0  0  0  0  0  0  0  0  0  0  0
    2.6510    4.0210   20.4860 H   0  0  0  0  0  0  0  0  0  0  0  0
    1.5130    5.9620   21.4210 H   0  0  0  0  0  0  0  0  0  0  0  0
    3.9430    3.8740   18.3210 O   0  0  0  0  0  0  0  0  0  0  0  0
    4.2670    2.9350   19.3390 C   0  0  0  0  0  0  0  0  0  0  0  0
    5.1150    3.2790   19.9380 H   0  0  0  0  0  0  0  0  0  0  0  0
    4.4580    1.9430   18.9140 H   0  0  0  0  0  0  0  0  0  0  0  0
    3.4020    2.8520   20.0030 H   0  0  0  0  0  0  0  0  0  0  0  0
   -1.5250   11.8180   23.0110 C   0  0  0  0  0  0  0  0  0  0  0  0
   -2.5440   11.5380   22.7340 H   0  0  0  0  0  0  0  0  0  0  0  0
   -1.5710   12.7840   23.5230 H   0  0  0  0  0  0  0  0  0  0  0  0
   -1.0990   11.0810   23.6960 H   0  0  0  0  0  0  0  0  0  0  0  0
  1 32  1  0  0  0  0
  2  1  2  0  0  0  0
  3  1  1  0  0  0  0
  3  8  1  0  0  0  0
  4  9  1  0  0  0  0
  4  3  1  0  0  0  0
  5  4  1  0  0  0  0
  5  6  1  0  0  0  0
  6  7  1  0  0  0  0
  7  8  1  0  0  0  0
  7 13  1  0  0  0  0
  7 14  1  0  0  0  0
  8 15  1  0  0  0  0
 10  4  1  0  0  0  0
 11  5  1  0  0  0  0
 12  5  1  0  0  0  0
 16  8  1  0  0  0  0
 17  6  1  0  0  0  0
 17 22  1  0  0  0  0
 18 17  2  0  0  0  0
 19 18  1  0  0  0  0
 19 20  2  0  0  0  0
 20 21  1  0  0  0  0
 21 22  2  0  0  0  0
 21 25  1  0  0  0  0
 22 26  1  0  0  0  0
 23 18  1  0  0  0  0
 24 19  1  0  0  0  0
 27 20  1  0  0  0  0
 27 28  1  0  0  0  0
 28 29  1  0  0  0  0
 28 31  1  0  0  0  0
 30 28  1  0  0  0  0
 32 34  1  0  0  0  0
 32 35  1  0  0  0  0
 33 32  1  0  0  0  0
M  END
>  <MODEL>
10

>  <REMARK>
 VINA RESULT:    -5.297      5.917      7.314
 INTER + INTRA:          -6.419
 INTER:                  -6.199
 INTRA:                  -0.220
 UNBOUND:                -0.192
  Name = 
  4 active torsions:
  status: ('A' for Active; 'I' for Inactive)
    1  A    between atoms: C_1  and  C_2
    2  A    between atoms: N_7  and  C_10
    3  A    between atoms: C_13  and  O_16
    4  A    between atoms: O_16  and  C_17
                            x       y       z     vdW  Elec       q    Type
                         _______ _______ _______ _____ _____    ______ ____

>  <TORSDO>
F 4

$$$$
=
 OpenBabel07192307433D

 35 36  0  0  0  0  0  0  0  0999 V2000
    3.7750    2.8520   18.8480 C   0  0  0  0  0  0  0  0  0  0  0  0
    3.8480    2.3400   17.7310 O   0  0  0  0  0  0  0  0  0  0  0  0
    3.2010    4.0920   19.0650 N   0  0  0  0  0  0  0  0  0  0  0  0
    2.7190    4.8680   17.9190 C   0  0  0  0  0  0  0  0  0  0  0  0
    2.8720    6.3870   18.1180 C   0  0  0  0  0  0  0  0  0  0  0  0
    2.2450    6.8480   19.3720 N   0  0  0  0  0  0  0  0  0  0  0  0
    1.9800    5.8350   20.4040 C   0  0  0  0  0  0  0  0  0  0  0  0
    3.0400    4.7160   20.3810 C   0  0  0  0  0  0  0  0  0  0  0  0
    1.6600    4.6120   17.7930 H   0  0  0  0  0  0  0  0  0  0  0  0
    3.2410    4.5620   17.0040 H   0  0  0  0  0  0  0  0  0  0  0  0
    3.9370    6.6440   18.1440 H   0  0  0  0  0  0  0  0  0  0  0  0
    2.4210    6.8790   17.2470 H   0  0  0  0  0  0  0  0  0  0  0  0
    0.9850    5.4030   20.2370 H   0  0  0  0  0  0  0  0  0  0  0  0
    1.9980    6.2810   21.4060 H   0  0  0  0  0  0  0  0  0  0  0  0
    2.7830    3.9530   21.1210 H   0  0  0  0  0  0  0  0  0  0  0  0
    4.0200    5.1290   20.6530 H   0  0  0  0  0  0  0  0  0  0  0  0
    1.7550    8.1420   19.4770 C   0  0  0  0  0  0  0  0  0  0  0  0
    1.2320    8.6490   20.6760 C   0  0  0  0  0  0  0  0  0  0  0  0
    0.7400    9.9600   20.7860 C   0  0  0  0  0  0  0  0  0  0  0  0
    0.7620   10.8110   19.6860 C   0  0  0  0  0  0  0  0  0  0  0  0
    1.2800   10.3340   18.4870 C   0  0  0  0  0  0  0  0  0  0  0  0
    1.7680    9.0240   18.3860 C   0  0  0  0  0  0  0  0  0  0  0  0
    1.1700    8.0220   21.5620 H   0  0  0  0  0  0  0  0  0  0  0  0
    0.3440   10.2750   21.7450 H   0  0  0  0  0  0  0  0  0  0  0  0
    1.3140   10.9860   17.6170 H   0  0  0  0  0  0  0  0  0  0  0  0
    2.1840    8.7180   17.4310 H   0  0  0  0  0  0  0  0  0  0  0  0
    0.3190   12.1030   19.6520 O   0  0  0  0  0  0  0  0  0  0  0  0
   -0.4940   12.4730   18.5470 C   0  0  0  0  0  0  0  0  0  0  0  0
   -1.3730   13.0380   18.8750 H   0  0  0  0  0  0  0  0  0  0  0  0
   -0.7850   11.5950   17.9580 H   0  0  0  0  0  0  0  0  0  0  0  0
    0.0990   13.1260   17.9000 H   0  0  0  0  0  0  0  0  0  0  0  0
    4.3130    2.1280   20.0560 C   0  0  0  0  0  0  0  0  0  0  0  0
    4.8790    2.8100   20.6960 H   0  0  0  0  0  0  0  0  0  0  0  0
    4.9930    1.3350   19.7280 H   0  0  0  0  0  0  0  0  0  0  0  0
    3.4910    1.6730   20.6140 H   0  0  0  0  0  0  0  0  0  0  0  0
  1  3  1  0  0  0  0
  1 32  1  0  0  0  0
  2  1  2  0  0  0  0
  3  8  1  0  0  0  0
  4  5  1  0  0  0  0
  4  3  1  0  0  0  0
  5 11  1  0  0  0  0
  5  6  1  0  0  0  0
  6 17  1  0  0  0  0
  6  7  1  0  0  0  0
  7 14  1  0  0  0  0
  8  7  1  0  0  0  0
  8 16  1  0  0  0  0
  8 15  1  0  0  0  0
  9  4  1  0  0  0  0
 10  4  1  0  0  0  0
 12  5  1  0  0  0  0
 13  7  1  0  0  0  0
 17 18  1  0  0  0  0
 18 19  2  0  0  0  0
 18 23  1  0  0  0  0
 19 24  1  0  0  0  0
 20 19  1  0  0  0  0
 21 20  2  0  0  0  0
 22 21  1  0  0  0  0
 22 17  2  0  0  0  0
 25 21  1  0  0  0  0
 26 22  1  0  0  0  0
 27 20  1  0  0  0  0
 28 29  1  0  0  0  0
 28 27  1  0  0  0  0
 30 28  1  0  0  0  0
 31 28  1  0  0  0  0
 32 35  1  0  0  0  0
 32 33  1  0  0  0  0
 34 32  1  0  0  0  0
M  END
>  <MODEL>
11

>  <REMARK>
 VINA RESULT:    -5.274      4.985      7.012
 INTER + INTRA:          -6.391
 INTER:                  -6.175
 INTRA:                  -0.216
 UNBOUND:                -0.192
  Name = 
  4 active torsions:
  status: ('A' for Active; 'I' for Inactive)
    1  A    between atoms: C_1  and  C_2
    2  A    between atoms: N_7  and  C_10
    3  A    between atoms: C_13  and  O_16
    4  A    between atoms: O_16  and  C_17
                            x       y       z     vdW  Elec       q    Type
                         _______ _______ _______ _____ _____    ______ ____

>  <TORSDO>
F 4

$$$$
=
 OpenBabel07192307433D

 35 36  0  0  0  0  0  0  0  0999 V2000
    0.2720   11.9520   19.0070 C   0  0  0  0  0  0  0  0  0  0  0  0
    0.6950   12.8090   18.2330 O   0  0  0  0  0  0  0  0  0  0  0  0
    0.8440   10.6970   19.1170 N   0  0  0  0  0  0  0  0  0  0  0  0
    1.9570   10.3380   18.2350 C   0  0  0  0  0  0  0  0  0  0  0  0
    1.9670    8.8440   17.8630 C   0  0  0  0  0  0  0  0  0  0  0  0
    1.9350    7.9750   19.0560 N   0  0  0  0  0  0  0  0  0  0  0  0
    1.4750    8.5780   20.3150 C   0  0  0  0  0  0  0  0  0  0  0  0
    0.4110    9.6650   20.0640 C   0  0  0  0  0  0  0  0  0  0  0  0
    2.8770   10.5950   18.7720 H   0  0  0  0  0  0  0  0  0  0  0  0
    1.9310   10.9440   17.3220 H   0  0  0  0  0  0  0  0  0  0  0  0
    1.0930    8.6180   17.2410 H   0  0  0  0  0  0  0  0  0  0  0  0
    2.8690    8.6610   17.2660 H   0  0  0  0  0  0  0  0  0  0  0  0
    2.3340    9.0160   20.8390 H   0  0  0  0  0  0  0  0  0  0  0  0
    1.0220    7.8230   20.9690 H   0  0  0  0  0  0  0  0  0  0  0  0
    0.1330   10.1310   21.0140 H   0  0  0  0  0  0  0  0  0  0  0  0
   -0.4910    9.2080   19.6380 H   0  0  0  0  0  0  0  0  0  0  0  0
    2.5020    6.7090   19.0170 C   0  0  0  0  0  0  0  0  0  0  0  0
    3.3490    6.3000   17.9770 C   0  0  0  0  0  0  0  0  0  0  0  0
    3.9280    5.0200   17.9390 C   0  0  0  0  0  0  0  0  0  0  0  0
    3.6750    4.1070   18.9560 C   0  0  0  0  0  0  0  0  0  0  0  0
    2.8420    4.4900   20.0020 C   0  0  0  0  0  0  0  0  0  0  0  0
    2.2690    5.7680   20.0310 C   0  0  0  0  0  0  0  0  0  0  0  0
    3.5650    6.9650   17.1440 H   0  0  0  0  0  0  0  0  0  0  0  0
    4.5650    4.7760   17.0960 H   0  0  0  0  0  0  0  0  0  0  0  0
    2.6390    3.7930   20.8110 H   0  0  0  0  0  0  0  0  0  0  0  0
    1.6490    6.0180   20.8870 H   0  0  0  0  0  0  0  0  0  0  0  0
    4.1690    2.8360   19.0450 O   0  0  0  0  0  0  0  0  0  0  0  0
    3.3950    1.8030   18.4490 C   0  0  0  0  0  0  0  0  0  0  0  0
    3.6600    1.6700   17.3950 H   0  0  0  0  0  0  0  0  0  0  0  0
    2.3230    1.9950   18.5660 H   0  0  0  0  0  0  0  0  0  0  0  0
    3.6260    0.8700   18.9700 H   0  0  0  0  0  0  0  0  0  0  0  0
   -0.9120   12.2430   19.8940 C   0  0  0  0  0  0  0  0  0  0  0  0
   -1.3330   11.3170   20.2950 H   0  0  0  0  0  0  0  0  0  0  0  0
   -1.6910   12.7370   19.3060 H   0  0  0  0  0  0  0  0  0  0  0  0
   -0.6130   12.9100   20.7070 H   0  0  0  0  0  0  0  0  0  0  0  0
  1  3  1  0  0  0  0
  1 32  1  0  0  0  0
  2  1  2  0  0  0  0
  3  8  1  0  0  0  0
  4  9  1  0  0  0  0
  4  3  1  0  0  0  0
  5  4  1  0  0  0  0
  5  6  1  0  0  0  0
  6  7  1  0  0  0  0
  7 13  1  0  0  0  0
  7 14  1  0  0  0  0
  8  7  1  0  0  0  0
  8 15  1  0  0  0  0
 10  4  1  0  0  0  0
 11  5  1  0  0  0  0
 12  5  1  0  0  0  0
 16  8  1  0  0  0  0
 17  6  1  0  0  0  0
 17 22  1  0  0  0  0
 18 17  2  0  0  0  0
 19 18  1  0  0  0  0
 19 20  2  0  0  0  0
 20 27  1  0  0  0  0
 20 21  1  0  0  0  0
 21 22  2  0  0  0  0
 21 25  1  0  0  0  0
 22 26  1  0  0  0  0
 23 18  1  0  0  0  0
 24 19  1  0  0  0  0
 28 30  1  0  0  0  0
 28 31  1  0  0  0  0
 28 27  1  0  0  0  0
 29 28  1  0  0  0  0
 32 33  1  0  0  0  0
 32 35  1  0  0  0  0
 34 32  1  0  0  0  0
M  END
>  <MODEL>
12

>  <REMARK>
 VINA RESULT:    -5.263      5.421      6.937
 INTER + INTRA:          -6.378
 INTER:                  -6.173
 INTRA:                  -0.205
 UNBOUND:                -0.192
  Name = 
  4 active torsions:
  status: ('A' for Active; 'I' for Inactive)
    1  A    between atoms: C_1  and  C_2
    2  A    between atoms: N_7  and  C_10
    3  A    between atoms: C_13  and  O_16
    4  A    between atoms: O_16  and  C_17
                            x       y       z     vdW  Elec       q    Type
                         _______ _______ _______ _____ _____    ______ ____

>  <TORSDO>
F 4

$$$$
=
 OpenBabel07192307433D

 35 36  0  0  0  0  0  0  0  0999 V2000
   -0.6500   11.9380   21.7950 C   0  0  0  0  0  0  0  0  0  0  0  0
   -0.5770   13.0130   21.2010 O   0  0  0  0  0  0  0  0  0  0  0  0
    0.0550   10.8150   21.4000 N   0  0  0  0  0  0  0  0  0  0  0  0
    0.8740   10.8760   20.1870 C   0  0  0  0  0  0  0  0  0  0  0  0
    0.9240    9.5350   19.4310 C   0  0  0  0  0  0  0  0  0  0  0  0
    1.3500    8.4230   20.3030 N   0  0  0  0  0  0  0  0  0  0  0  0
    1.2390    8.6260   21.7560 C   0  0  0  0  0  0  0  0  0  0  0  0
    0.0430    9.5320   22.1080 C   0  0  0  0  0  0  0  0  0  0  0  0
    1.8830   11.1630   20.5050 H   0  0  0  0  0  0  0  0  0  0  0  0
    0.5060   11.6620   19.5170 H   0  0  0  0  0  0  0  0  0  0  0  0
   -0.0710    9.3060   19.0320 H   0  0  0  0  0  0  0  0  0  0  0  0
    1.6130    9.6600   18.5870 H   0  0  0  0  0  0  0  0  0  0  0  0
    2.1670    9.0790   22.1270 H   0  0  0  0  0  0  0  0  0  0  0  0
    1.0900    7.6720   22.2750 H   0  0  0  0  0  0  0  0  0  0  0  0
    0.0230    9.7080   23.1880 H   0  0  0  0  0  0  0  0  0  0  0  0
   -0.8940    9.0320   21.8330 H   0  0  0  0  0  0  0  0  0  0  0  0
    2.0060    7.3230   19.7690 C   0  0  0  0  0  0  0  0  0  0  0  0
    2.0100    6.0730   20.4040 C   0  0  0  0  0  0  0  0  0  0  0  0
    2.6700    4.9570   19.8620 C   0  0  0  0  0  0  0  0  0  0  0  0
    3.3460    5.0630   18.6520 C   0  0  0  0  0  0  0  0  0  0  0  0
    3.3520    6.2910   17.9990 C   0  0  0  0  0  0  0  0  0  0  0  0
    2.6930    7.3990   18.5480 C   0  0  0  0  0  0  0  0  0  0  0  0
    1.5160    5.9370   21.3630 H   0  0  0  0  0  0  0  0  0  0  0  0
    2.6340    4.0270   20.4180 H   0  0  0  0  0  0  0  0  0  0  0  0
    3.8680    6.3920   17.0480 H   0  0  0  0  0  0  0  0  0  0  0  0
    2.7100    8.3230   17.9780 H   0  0  0  0  0  0  0  0  0  0  0  0
    4.0250    4.0640   18.0130 O   0  0  0  0  0  0  0  0  0  0  0  0
    3.5150    2.7450   18.1610 C   0  0  0  0  0  0  0  0  0  0  0  0
    3.9880    2.2320   19.0040 H   0  0  0  0  0  0  0  0  0  0  0  0
    3.6270    2.1720   17.2340 H   0  0  0  0  0  0  0  0  0  0  0  0
    2.4450    2.8230   18.3770 H   0  0  0  0  0  0  0  0  0  0  0  0
   -1.5280   11.7990   23.0140 C   0  0  0  0  0  0  0  0  0  0  0  0
   -2.5690   12.0260   22.7690 H   0  0  0  0  0  0  0  0  0  0  0  0
   -1.2000   12.5100   23.7780 H   0  0  0  0  0  0  0  0  0  0  0  0
   -1.4430   10.7880   23.4200 H   0  0  0  0  0  0  0  0  0  0  0  0
  1 32  1  0  0  0  0
  2  1  2  0  0  0  0
  3  1  1  0  0  0  0
  3  8  1  0  0  0  0
  4  9  1  0  0  0  0
  4  3  1  0  0  0  0
  5  4  1  0  0  0  0
  5  6  1  0  0  0  0
  6  7  1  0  0  0  0
  7  8  1  0  0  0  0
  7 13  1  0  0  0  0
  7 14  1  0  0  0  0
  8 15  1  0  0  0  0
 10  4  1  0  0  0  0
 11  5  1  0  0  0  0
 12  5  1  0  0  0  0
 16  8  1  0  0  0  0
 17  6  1  0  0  0  0
 17 18  1  0  0  0  0
 18 23  1  0  0  0  0
 19 18  2  0  0  0  0
 19 24  1  0  0  0  0
 20 19  1  0  0  0  0
 21 22  1  0  0  0  0
 21 20  2  0  0  0  0
 22 17  2  0  0  0  0
 25 21  1  0  0  0  0
 26 22  1  0  0  0  0
 27 28  1  0  0  0  0
 27 20  1  0  0  0  0
 28 31  1  0  0  0  0
 28 29  1  0  0  0  0
 30 28  1  0  0  0  0
 32 35  1  0  0  0  0
 32 34  1  0  0  0  0
 33 32  1  0  0  0  0
M  END
>  <MODEL>
13

>  <REMARK>
 VINA RESULT:    -5.225      5.935      7.236
 INTER + INTRA:          -6.334
 INTER:                  -6.128
 INTRA:                  -0.206
 UNBOUND:                -0.192
  Name = 
  4 active torsions:
  status: ('A' for Active; 'I' for Inactive)
    1  A    between atoms: C_1  and  C_2
    2  A    between atoms: N_7  and  C_10
    3  A    between atoms: C_13  and  O_16
    4  A    between atoms: O_16  and  C_17
                            x       y       z     vdW  Elec       q    Type
                         _______ _______ _______ _____ _____    ______ ____

>  <TORSDO>
F 4

$$$$
=
 OpenBabel07192307433D

 35 36  0  0  0  0  0  0  0  0999 V2000
    3.4490    2.6320   19.3470 C   0  0  0  0  0  0  0  0  0  0  0  0
    3.6690    2.0690   20.4190 O   0  0  0  0  0  0  0  0  0  0  0  0
    3.1490    3.9790   19.2580 N   0  0  0  0  0  0  0  0  0  0  0  0
    3.0200    4.7660   20.4870 C   0  0  0  0  0  0  0  0  0  0  0  0
    1.9750    5.8910   20.3700 C   0  0  0  0  0  0  0  0  0  0  0  0
    2.2280    6.7640   19.2070 N   0  0  0  0  0  0  0  0  0  0  0  0
    3.0890    6.2310   18.1410 C   0  0  0  0  0  0  0  0  0  0  0  0
    2.9360    4.7040   18.0020 C   0  0  0  0  0  0  0  0  0  0  0  0
    4.0090    5.1940   20.6890 H   0  0  0  0  0  0  0  0  0  0  0  0
    2.7660    4.1150   21.3320 H   0  0  0  0  0  0  0  0  0  0  0  0
    0.9770    5.4500   20.2680 H   0  0  0  0  0  0  0  0  0  0  0  0
    2.0030    6.4630   21.3060 H   0  0  0  0  0  0  0  0  0  0  0  0
    4.1340    6.4780   18.3670 H   0  0  0  0  0  0  0  0  0  0  0  0
    2.8340    6.6740   17.1710 H   0  0  0  0  0  0  0  0  0  0  0  0
    3.6300    4.3340   17.2420 H   0  0  0  0  0  0  0  0  0  0  0  0
    1.9180    4.4630   17.6720 H   0  0  0  0  0  0  0  0  0  0  0  0
    1.8260    8.0920   19.2250 C   0  0  0  0  0  0  0  0  0  0  0  0
    1.9920    8.9390   18.1200 C   0  0  0  0  0  0  0  0  0  0  0  0
    1.5810   10.2830   18.1350 C   0  0  0  0  0  0  0  0  0  0  0  0
    0.9830   10.8190   19.2690 C   0  0  0  0  0  0  0  0  0  0  0  0
    0.8020    9.9980   20.3770 C   0  0  0  0  0  0  0  0  0  0  0  0
    1.2150    8.6600   20.3530 C   0  0  0  0  0  0  0  0  0  0  0  0
    2.4730    8.5790   17.2140 H   0  0  0  0  0  0  0  0  0  0  0  0
    1.7520   10.8750   17.2430 H   0  0  0  0  0  0  0  0  0  0  0  0
    0.3280   10.3960   21.2710 H   0  0  0  0  0  0  0  0  0  0  0  0
    1.0230    8.0610   21.2390 H   0  0  0  0  0  0  0  0  0  0  0  0
    0.5380   12.1020   19.4200 O   0  0  0  0  0  0  0  0  0  0  0  0
   -0.5030   12.5260   18.5490 C   0  0  0  0  0  0  0  0  0  0  0  0
   -0.1170   13.1840   17.7640 H   0  0  0  0  0  0  0  0  0  0  0  0
   -1.3130   13.0090   19.1070 H   0  0  0  0  0  0  0  0  0  0  0  0
   -0.9170   11.6370   18.0650 H   0  0  0  0  0  0  0  0  0  0  0  0
    3.5040    1.8580   18.0540 C   0  0  0  0  0  0  0  0  0  0  0  0
    4.5040    1.9090   17.6150 H   0  0  0  0  0  0  0  0  0  0  0  0
    2.8020    2.2990   17.3390 H   0  0  0  0  0  0  0  0  0  0  0  0
    3.2160    0.8190   18.2290 H   0  0  0  0  0  0  0  0  0  0  0  0
  1  2  2  0  0  0  0
  3  1  1  0  0  0  0
  3  4  1  0  0  0  0
  4  9  1  0  0  0  0
  4 10  1  0  0  0  0
  5  4  1  0  0  0  0
  5 12  1  0  0  0  0
  6 17  1  0  0  0  0
  6  5  1  0  0  0  0
  7 13  1  0  0  0  0
  7  6  1  0  0  0  0
  8  7  1  0  0  0  0
  8  3  1  0  0  0  0
 11  5  1  0  0  0  0
 14  7  1  0  0  0  0
 15  8  1  0  0  0  0
 16  8  1  0  0  0  0
 17 22  1  0  0  0  0
 18 19  1  0  0  0  0
 18 17  2  0  0  0  0
 19 20  2  0  0  0  0
 20 27  1  0  0  0  0
 20 21  1  0  0  0  0
 21 25  1  0  0  0  0
 22 21  2  0  0  0  0
 22 26  1  0  0  0  0
 23 18  1  0  0  0  0
 24 19  1  0  0  0  0
 28 30  1  0  0  0  0
 28 27  1  0  0  0  0
 29 28  1  0  0  0  0
 31 28  1  0  0  0  0
 32 35  1  0  0  0  0
 32  1  1  0  0  0  0
 33 32  1  0  0  0  0
 34 32  1  0  0  0  0
M  END
>  <MODEL>
14

>  <REMARK>
 VINA RESULT:    -5.199      4.913      6.937
 INTER + INTRA:          -6.303
 INTER:                  -6.099
 INTRA:                  -0.204
 UNBOUND:                -0.192
  Name = 
  4 active torsions:
  status: ('A' for Active; 'I' for Inactive)
    1  A    between atoms: C_1  and  C_2
    2  A    between atoms: N_7  and  C_10
    3  A    between atoms: C_13  and  O_16
    4  A    between atoms: O_16  and  C_17
                            x       y       z     vdW  Elec       q    Type
                         _______ _______ _______ _____ _____    ______ ____

>  <TORSDO>
F 4

$$$$
=
 OpenBabel07192307433D

 35 36  0  0  0  0  0  0  0  0999 V2000
    7.6120    4.9070   12.9140 C   0  0  0  0  0  0  0  0  0  0  0  0
    7.2620    4.3380   11.8800 O   0  0  0  0  0  0  0  0  0  0  0  0
    6.9660    4.7210   14.1240 N   0  0  0  0  0  0  0  0  0  0  0  0
    5.7760    3.8680   14.1760 C   0  0  0  0  0  0  0  0  0  0  0  0
    4.7480    4.3400   15.2210 C   0  0  0  0  0  0  0  0  0  0  0  0
    5.3490    4.4940   16.5600 N   0  0  0  0  0  0  0  0  0  0  0  0
    6.8130    4.6140   16.6310 C   0  0  0  0  0  0  0  0  0  0  0  0
    7.3810    5.3310   15.3910 C   0  0  0  0  0  0  0  0  0  0  0  0
    6.1260    2.8590   14.4250 H   0  0  0  0  0  0  0  0  0  0  0  0
    5.3010    3.8160   13.1900 H   0  0  0  0  0  0  0  0  0  0  0  0
    4.3320    5.3060   14.9110 H   0  0  0  0  0  0  0  0  0  0  0  0
    3.9350    3.6040   15.2360 H   0  0  0  0  0  0  0  0  0  0  0  0
    7.2520    3.6110   16.7110 H   0  0  0  0  0  0  0  0  0  0  0  0
    7.1180    5.1930   17.5110 H   0  0  0  0  0  0  0  0  0  0  0  0
    8.4730    5.3520   15.4480 H   0  0  0  0  0  0  0  0  0  0  0  0
    7.0260    6.3680   15.3690 H   0  0  0  0  0  0  0  0  0  0  0  0
    4.5740    4.3330   17.7000 C   0  0  0  0  0  0  0  0  0  0  0  0
    4.0600    3.0860   18.0860 C   0  0  0  0  0  0  0  0  0  0  0  0
    3.2790    2.9210   19.2420 C   0  0  0  0  0  0  0  0  0  0  0  0
    2.9930    4.0110   20.0550 C   0  0  0  0  0  0  0  0  0  0  0  0
    3.4960    5.2580   19.6980 C   0  0  0  0  0  0  0  0  0  0  0  0
    4.2730    5.4140   18.5430 C   0  0  0  0  0  0  0  0  0  0  0  0
    4.2340    2.2030   17.4760 H   0  0  0  0  0  0  0  0  0  0  0  0
    2.9110    1.9260   19.4680 H   0  0  0  0  0  0  0  0  0  0  0  0
    3.2900    6.1220   20.3250 H   0  0  0  0  0  0  0  0  0  0  0  0
    4.6590    6.4060   18.3300 H   0  0  0  0  0  0  0  0  0  0  0  0
    2.2510    3.9930   21.2020 O   0  0  0  0  0  0  0  0  0  0  0  0
    1.6070    2.7690   21.5310 C   0  0  0  0  0  0  0  0  0  0  0  0
    1.0140    2.8680   22.4450 H   0  0  0  0  0  0  0  0  0  0  0  0
    2.3310    1.9510   21.6150 H   0  0  0  0  0  0  0  0  0  0  0  0
    0.9210    2.5240   20.7140 H   0  0  0  0  0  0  0  0  0  0  0  0
    8.7910    5.8460   12.9070 C   0  0  0  0  0  0  0  0  0  0  0  0
    9.5780    5.4740   12.2450 H   0  0  0  0  0  0  0  0  0  0  0  0
    9.2070    5.9110   13.9170 H   0  0  0  0  0  0  0  0  0  0  0  0
    8.4700    6.8440   12.5970 H   0  0  0  0  0  0  0  0  0  0  0  0
  1  3  1  0  0  0  0
  2  1  2  0  0  0  0
  3  4  1  0  0  0  0
  3  8  1  0  0  0  0
  4  9  1  0  0  0  0
  4  5  1  0  0  0  0
  5 12  1  0  0  0  0
  5  6  1  0  0  0  0
  6  7  1  0  0  0  0
  6 17  1  0  0  0  0
  7 13  1  0  0  0  0
  7 14  1  0  0  0  0
  8 15  1  0  0  0  0
  8  7  1  0  0  0  0
 10  4  1  0  0  0  0
 11  5  1  0  0  0  0
 16  8  1  0  0  0  0
 17 18  2  0  0  0  0
 17 22  1  0  0  0  0
 18 19  1  0  0  0  0
 19 24  1  0  0  0  0
 19 20  2  0  0  0  0
 20 27  1  0  0  0  0
 21 20  1  0  0  0  0
 21 25  1  0  0  0  0
 22 21  2  0  0  0  0
 23 18  1  0  0  0  0
 26 22  1  0  0  0  0
 27 28  1  0  0  0  0
 28 30  1  0  0  0  0
 28 29  1  0  0  0  0
 31 28  1  0  0  0  0
 32  1  1  0  0  0  0
 32 34  1  0  0  0  0
 33 32  1  0  0  0  0
 35 32  1  0  0  0  0
M  END
>  <MODEL>
15

>  <REMARK>
 VINA RESULT:    -5.186      1.630      7.157
 INTER + INTRA:          -6.288
 INTER:                  -6.101
 INTRA:                  -0.187
 UNBOUND:                -0.192
  Name = 
  4 active torsions:
  status: ('A' for Active; 'I' for Inactive)
    1  A    between atoms: C_1  and  C_2
    2  A    between atoms: N_7  and  C_10
    3  A    between atoms: C_13  and  O_16
    4  A    between atoms: O_16  and  C_17
                            x       y       z     vdW  Elec       q    Type
                         _______ _______ _______ _____ _____    ______ ____

>  <TORSDO>
F 4

$$$$
=
 OpenBabel07192307433D

 35 36  0  0  0  0  0  0  0  0999 V2000
    3.5750    3.6340   18.4540 C   0  0  0  0  0  0  0  0  0  0  0  0
    3.8790    2.7130   19.2100 O   0  0  0  0  0  0  0  0  0  0  0  0
    3.1010    4.8510   18.9110 N   0  0  0  0  0  0  0  0  0  0  0  0
    2.8840    5.0400   20.3470 C   0  0  0  0  0  0  0  0  0  0  0  0
    1.7000    5.9750   20.6550 C   0  0  0  0  0  0  0  0  0  0  0  0
    1.8240    7.2730   19.9630 N   0  0  0  0  0  0  0  0  0  0  0  0
    2.7370    7.3370   18.8110 C   0  0  0  0  0  0  0  0  0  0  0  0
    2.7820    5.9960   18.0530 C   0  0  0  0  0  0  0  0  0  0  0  0
    3.8110    5.4650   20.7500 H   0  0  0  0  0  0  0  0  0  0  0  0
    2.7270    4.0730   20.8400 H   0  0  0  0  0  0  0  0  0  0  0  0
    0.7670    5.4970   20.3380 H   0  0  0  0  0  0  0  0  0  0  0  0
    1.6640    6.1110   21.7430 H   0  0  0  0  0  0  0  0  0  0  0  0
    3.7430    7.5950   19.1640 H   0  0  0  0  0  0  0  0  0  0  0  0
    2.4150    8.1050   18.0980 H   0  0  0  0  0  0  0  0  0  0  0  0
    3.5100    6.0600   17.2390 H   0  0  0  0  0  0  0  0  0  0  0  0
    1.8010    5.7890   17.6090 H   0  0  0  0  0  0  0  0  0  0  0  0
    1.2530    8.4150   20.5050 C   0  0  0  0  0  0  0  0  0  0  0  0
    0.9320    9.5350   19.7240 C   0  0  0  0  0  0  0  0  0  0  0  0
    0.3490   10.6910   20.2710 C   0  0  0  0  0  0  0  0  0  0  0  0
    0.0650   10.7550   21.6300 C   0  0  0  0  0  0  0  0  0  0  0  0
    0.3690    9.6560   22.4260 C   0  0  0  0  0  0  0  0  0  0  0  0
    0.9510    8.5080   21.8720 C   0  0  0  0  0  0  0  0  0  0  0  0
    1.1520    9.5480   18.6590 H   0  0  0  0  0  0  0  0  0  0  0  0
    0.1390   11.5180   19.6020 H   0  0  0  0  0  0  0  0  0  0  0  0
    0.1470    9.6840   23.4900 H   0  0  0  0  0  0  0  0  0  0  0  0
    1.1400    7.6720   22.5390 H   0  0  0  0  0  0  0  0  0  0  0  0
   -0.4980   11.8100   22.2900 O   0  0  0  0  0  0  0  0  0  0  0  0
   -1.6780   11.5430   23.0370 C   0  0  0  0  0  0  0  0  0  0  0  0
   -2.1430   12.4700   23.3860 H   0  0  0  0  0  0  0  0  0  0  0  0
   -1.4720   10.8650   23.8730 H   0  0  0  0  0  0  0  0  0  0  0  0
   -2.3890   11.0440   22.3720 H   0  0  0  0  0  0  0  0  0  0  0  0
    3.7170    3.4750   16.9610 C   0  0  0  0  0  0  0  0  0  0  0  0
    4.7460    3.2190   16.6950 H   0  0  0  0  0  0  0  0  0  0  0  0
    3.4720    4.4220   16.4720 H   0  0  0  0  0  0  0  0  0  0  0  0
    3.0270    2.7070   16.6020 H   0  0  0  0  0  0  0  0  0  0  0  0
  1  3  1  0  0  0  0
  1  2  2  0  0  0  0
  3  4  1  0  0  0  0
  4  5  1  0  0  0  0
  4  9  1  0  0  0  0
  4 10  1  0  0  0  0
  5 12  1  0  0  0  0
  6 17  1  0  0  0  0
  6  5  1  0  0  0  0
  7 13  1  0  0  0  0
  7  6  1  0  0  0  0
  8  7  1  0  0  0  0
  8  3  1  0  0  0  0
 11  5  1  0  0  0  0
 14  7  1  0  0  0  0
 15  8  1  0  0  0  0
 16  8  1  0  0  0  0
 17 22  1  0  0  0  0
 18 19  1  0  0  0  0
 18 17  2  0  0  0  0
 19 20  2  0  0  0  0
 20 27  1  0  0  0  0
 20 21  1  0  0  0  0
 21 25  1  0  0  0  0
 22 21  2  0  0  0  0
 22 26  1  0  0  0  0
 23 18  1  0  0  0  0
 24 19  1  0  0  0  0
 27 28  1  0  0  0  0
 28 29  1  0  0  0  0
 28 30  1  0  0  0  0
 31 28  1  0  0  0  0
 32  1  1  0  0  0  0
 33 32  1  0  0  0  0
 34 32  1  0  0  0  0
 35 32  1  0  0  0  0
M  END
>  <MODEL>
16

>  <REMARK>
 VINA RESULT:    -5.176      5.338      8.295
 INTER + INTRA:          -6.276
 INTER:                  -6.063
 INTRA:                  -0.213
 UNBOUND:                -0.192
  Name = 
  4 active torsions:
  status: ('A' for Active; 'I' for Inactive)
    1  A    between atoms: C_1  and  C_2
    2  A    between atoms: N_7  and  C_10
    3  A    between atoms: C_13  and  O_16
    4  A    between atoms: O_16  and  C_17
                            x       y       z     vdW  Elec       q    Type
                         _______ _______ _______ _____ _____    ______ ____

>  <TORSDO>
F 4

$$$$
=
 OpenBabel07192307433D

 35 36  0  0  0  0  0  0  0  0999 V2000
    4.9140    4.1030   18.0470 C   0  0  0  0  0  0  0  0  0  0  0  0
    5.2200    3.3030   18.9310 O   0  0  0  0  0  0  0  0  0  0  0  0
    4.1910    5.2550   18.3000 N   0  0  0  0  0  0  0  0  0  0  0  0
    3.7060    5.5110   19.6580 C   0  0  0  0  0  0  0  0  0  0  0  0
    2.3590    6.2580   19.6800 C   0  0  0  0  0  0  0  0  0  0  0  0
    2.4020    7.5040   18.8890 N   0  0  0  0  0  0  0  0  0  0  0  0
    3.4780    7.6320   17.8940 C   0  0  0  0  0  0  0  0  0  0  0  0
    3.8540    6.2640   17.2910 C   0  0  0  0  0  0  0  0  0  0  0  0
    4.4750    6.1130   20.1560 H   0  0  0  0  0  0  0  0  0  0  0  0
    3.6140    4.5710   20.2140 H   0  0  0  0  0  0  0  0  0  0  0  0
    1.5770    5.6090   19.2700 H   0  0  0  0  0  0  0  0  0  0  0  0
    2.1170    6.4660   20.7300 H   0  0  0  0  0  0  0  0  0  0  0  0
    4.3580    8.0790   18.3730 H   0  0  0  0  0  0  0  0  0  0  0  0
    3.1710    8.2800   17.0650 H   0  0  0  0  0  0  0  0  0  0  0  0
    4.6920    6.3870   16.5990 H   0  0  0  0  0  0  0  0  0  0  0  0
    3.0060    5.8650   16.7220 H   0  0  0  0  0  0  0  0  0  0  0  0
    1.5810    8.5720   19.2180 C   0  0  0  0  0  0  0  0  0  0  0  0
    1.1490    8.8080   20.5310 C   0  0  0  0  0  0  0  0  0  0  0  0
    0.3220    9.8930   20.8670 C   0  0  0  0  0  0  0  0  0  0  0  0
   -0.0970   10.7840   19.8850 C   0  0  0  0  0  0  0  0  0  0  0  0
    0.3230   10.5760   18.5750 C   0  0  0  0  0  0  0  0  0  0  0  0
    1.1470    9.4910   18.2500 C   0  0  0  0  0  0  0  0  0  0  0  0
    1.4280    8.1320   21.3350 H   0  0  0  0  0  0  0  0  0  0  0  0
    0.0230   10.0020   21.9030 H   0  0  0  0  0  0  0  0  0  0  0  0
    0.0130   11.2660   17.7940 H   0  0  0  0  0  0  0  0  0  0  0  0
    1.4630    9.3960   17.2150 H   0  0  0  0  0  0  0  0  0  0  0  0
   -0.8970   11.8760   20.0700 O   0  0  0  0  0  0  0  0  0  0  0  0
   -2.1130   11.9110   19.3350 C   0  0  0  0  0  0  0  0  0  0  0  0
   -2.2460   10.9980   18.7460 H   0  0  0  0  0  0  0  0  0  0  0  0
   -2.1660   12.8030   18.7000 H   0  0  0  0  0  0  0  0  0  0  0  0
   -2.9360   11.9660   20.0540 H   0  0  0  0  0  0  0  0  0  0  0  0
    5.3320    3.8580   16.6190 C   0  0  0  0  0  0  0  0  0  0  0  0
    5.8790    2.9160   16.5310 H   0  0  0  0  0  0  0  0  0  0  0  0
    5.9990    4.6630   16.2950 H   0  0  0  0  0  0  0  0  0  0  0  0
    4.4530    3.8520   15.9700 H   0  0  0  0  0  0  0  0  0  0  0  0
  1  3  1  0  0  0  0
  1  2  2  0  0  0  0
  3  4  1  0  0  0  0
  4  5  1  0  0  0  0
  4  9  1  0  0  0  0
  4 10  1  0  0  0  0
  5 12  1  0  0  0  0
  6 17  1  0  0  0  0
  6  5  1  0  0  0  0
  7 13  1  0  0  0  0
  7  6  1  0  0  0  0
  8  7  1  0  0  0  0
  8  3  1  0  0  0  0
 11  5  1  0  0  0  0
 14  7  1  0  0  0  0
 15  8  1  0  0  0  0
 16  8  1  0  0  0  0
 17 18  1  0  0  0  0
 18 19  2  0  0  0  0
 18 23  1  0  0  0  0
 19 24  1  0  0  0  0
 20 27  1  0  0  0  0
 20 19  1  0  0  0  0
 21 20  2  0  0  0  0
 22 21  1  0  0  0  0
 22 17  2  0  0  0  0
 25 21  1  0  0  0  0
 26 22  1  0  0  0  0
 28 31  1  0  0  0  0
 28 27  1  0  0  0  0
 29 28  1  0  0  0  0
 30 28  1  0  0  0  0
 32  1  1  0  0  0  0
 33 32  1  0  0  0  0
 34 32  1  0  0  0  0
 35 32  1  0  0  0  0
M  END
>  <MODEL>
17

>  <REMARK>
 VINA RESULT:    -4.918      5.243      7.714
 INTER + INTRA:          -5.973
 INTER:                  -5.763
 INTRA:                  -0.209
 UNBOUND:                -0.192
  Name = 
  4 active torsions:
  status: ('A' for Active; 'I' for Inactive)
    1  A    between atoms: C_1  and  C_2
    2  A    between atoms: N_7  and  C_10
    3  A    between atoms: C_13  and  O_16
    4  A    between atoms: O_16  and  C_17
                            x       y       z     vdW  Elec       q    Type
                         _______ _______ _______ _____ _____    ______ ____

>  <TORSDO>
F 4

$$$$
=
 OpenBabel07192307433D

 35 36  0  0  0  0  0  0  0  0999 V2000
   -1.3920   12.4510   22.3880 C   0  0  0  0  0  0  0  0  0  0  0  0
   -1.3110   13.6320   22.0540 O   0  0  0  0  0  0  0  0  0  0  0  0
   -0.6060   11.4600   21.8280 N   0  0  0  0  0  0  0  0  0  0  0  0
    0.3170   11.8060   20.7450 C   0  0  0  0  0  0  0  0  0  0  0  0
    0.4930   10.6670   19.7230 C   0  0  0  0  0  0  0  0  0  0  0  0
    0.8850    9.3990   20.3680 N   0  0  0  0  0  0  0  0  0  0  0  0
    0.6330    9.2720   21.8110 C   0  0  0  0  0  0  0  0  0  0  0  0
   -0.6280   10.0510   22.2340 C   0  0  0  0  0  0  0  0  0  0  0  0
    1.2790   12.0370   21.2160 H   0  0  0  0  0  0  0  0  0  0  0  0
   -0.0220   12.7130   20.2300 H   0  0  0  0  0  0  0  0  0  0  0  0
   -0.4500   10.5110   19.1870 H   0  0  0  0  0  0  0  0  0  0  0  0
    1.2510   10.9910   18.9980 H   0  0  0  0  0  0  0  0  0  0  0  0
    1.5030    9.6510   22.3630 H   0  0  0  0  0  0  0  0  0  0  0  0
    0.4780    8.2240   22.0920 H   0  0  0  0  0  0  0  0  0  0  0  0
   -0.7540    9.9830   23.3180 H   0  0  0  0  0  0  0  0  0  0  0  0
   -1.5130    9.6050   21.7650 H   0  0  0  0  0  0  0  0  0  0  0  0
    1.6340    8.4600   19.6730 C   0  0  0  0  0  0  0  0  0  0  0  0
    1.9650    7.2120   20.2220 C   0  0  0  0  0  0  0  0  0  0  0  0
    2.7190    6.2580   19.5180 C   0  0  0  0  0  0  0  0  0  0  0  0
    3.1620    6.5290   18.2280 C   0  0  0  0  0  0  0  0  0  0  0  0
    2.8420    7.7570   17.6590 C   0  0  0  0  0  0  0  0  0  0  0  0
    2.0910    8.7030   18.3690 C   0  0  0  0  0  0  0  0  0  0  0  0
    1.6630    6.9550   21.2340 H   0  0  0  0  0  0  0  0  0  0  0  0
    2.9410    5.3200   20.0140 H   0  0  0  0  0  0  0  0  0  0  0  0
    3.1730    7.9850   16.6490 H   0  0  0  0  0  0  0  0  0  0  0  0
    1.8500    9.6330   17.8620 H   0  0  0  0  0  0  0  0  0  0  0  0
    3.8980    5.6970   17.4330 O   0  0  0  0  0  0  0  0  0  0  0  0
    3.7820    4.3020   17.6840 C   0  0  0  0  0  0  0  0  0  0  0  0
    4.7670    3.8360   17.7870 H   0  0  0  0  0  0  0  0  0  0  0  0
    3.1910    3.8080   16.9040 H   0  0  0  0  0  0  0  0  0  0  0  0
    3.2530    4.1760   18.6330 H   0  0  0  0  0  0  0  0  0  0  0  0
   -2.3710   12.0250   23.4540 C   0  0  0  0  0  0  0  0  0  0  0  0
   -2.7380   11.0140   23.2610 H   0  0  0  0  0  0  0  0  0  0  0  0
   -3.2310   12.7010   23.4440 H   0  0  0  0  0  0  0  0  0  0  0  0
   -1.8970   12.0790   24.4370 H   0  0  0  0  0  0  0  0  0  0  0  0
  1 32  1  0  0  0  0
  2  1  2  0  0  0  0
  3  8  1  0  0  0  0
  3  1  1  0  0  0  0
  4  9  1  0  0  0  0
  4  3  1  0  0  0  0
  5  6  1  0  0  0  0
  5  4  1  0  0  0  0
  6  7  1  0  0  0  0
  7 14  1  0  0  0  0
  7  8  1  0  0  0  0
  7 13  1  0  0  0  0
  8 15  1  0  0  0  0
 10  4  1  0  0  0  0
 11  5  1  0  0  0  0
 12  5  1  0  0  0  0
 16  8  1  0  0  0  0
 17 18  1  0  0  0  0
 17  6  1  0  0  0  0
 18 23  1  0  0  0  0
 19 24  1  0  0  0  0
 19 18  2  0  0  0  0
 20 19  1  0  0  0  0
 21 20  2  0  0  0  0
 21 22  1  0  0  0  0
 22 17  2  0  0  0  0
 25 21  1  0  0  0  0
 26 22  1  0  0  0  0
 27 28  1  0  0  0  0
 27 20  1  0  0  0  0
 28 29  1  0  0  0  0
 28 31  1  0  0  0  0
 30 28  1  0  0  0  0
 32 35  1  0  0  0  0
 33 32  1  0  0  0  0
 34 32  1  0  0  0  0
M  END
>  <MODEL>
18

>  <REMARK>
 VINA RESULT:    -4.850      6.741      7.827
 INTER + INTRA:          -5.893
 INTER:                  -5.685
 INTRA:                  -0.208
 UNBOUND:                -0.192
  Name = 
  4 active torsions:
  status: ('A' for Active; 'I' for Inactive)
    1  A    between atoms: C_1  and  C_2
    2  A    between atoms: N_7  and  C_10
    3  A    between atoms: C_13  and  O_16
    4  A    between atoms: O_16  and  C_17
                            x       y       z     vdW  Elec       q    Type
                         _______ _______ _______ _____ _____    ______ ____

>  <TORSDO>
F 4

$$$$
=
 OpenBabel07192307433D

 35 36  0  0  0  0  0  0  0  0999 V2000
    6.9390    4.8520   16.7680 C   0  0  0  0  0  0  0  0  0  0  0  0
    7.1310    4.7090   15.5610 O   0  0  0  0  0  0  0  0  0  0  0  0
    5.8290    5.5030   17.2750 N   0  0  0  0  0  0  0  0  0  0  0  0
    4.8700    6.1110   16.3490 C   0  0  0  0  0  0  0  0  0  0  0  0
    4.2200    7.3880   16.9140 C   0  0  0  0  0  0  0  0  0  0  0  0
    3.6070    7.1600   18.2370 N   0  0  0  0  0  0  0  0  0  0  0  0
    4.0500    5.9760   18.9890 C   0  0  0  0  0  0  0  0  0  0  0  0
    5.5290    5.6470   18.7030 C   0  0  0  0  0  0  0  0  0  0  0  0
    4.1010    5.3550   16.1550 H   0  0  0  0  0  0  0  0  0  0  0  0
    5.3550    6.3370   15.3920 H   0  0  0  0  0  0  0  0  0  0  0  0
    4.9820    8.1710   17.0110 H   0  0  0  0  0  0  0  0  0  0  0  0
    3.4730    7.7250   16.1850 H   0  0  0  0  0  0  0  0  0  0  0  0
    3.4220    5.1200   18.7130 H   0  0  0  0  0  0  0  0  0  0  0  0
    3.9550    6.1390   20.0690 H   0  0  0  0  0  0  0  0  0  0  0  0
    5.8090    4.7320   19.2320 H   0  0  0  0  0  0  0  0  0  0  0  0
    6.1660    6.4580   19.0760 H   0  0  0  0  0  0  0  0  0  0  0  0
    2.5250    7.9230   18.6500 C   0  0  0  0  0  0  0  0  0  0  0  0
    1.9790    7.8130   19.9380 C   0  0  0  0  0  0  0  0  0  0  0  0
    0.8860    8.5890   20.3590 C   0  0  0  0  0  0  0  0  0  0  0  0
    0.3070    9.5100   19.4940 C   0  0  0  0  0  0  0  0  0  0  0  0
    0.8330    9.6430   18.2130 C   0  0  0  0  0  0  0  0  0  0  0  0
    1.9220    8.8640   17.8010 C   0  0  0  0  0  0  0  0  0  0  0  0
    2.3790    7.0940   20.6490 H   0  0  0  0  0  0  0  0  0  0  0  0
    0.5170    8.4390   21.3680 H   0  0  0  0  0  0  0  0  0  0  0  0
    0.3990   10.3630   17.5250 H   0  0  0  0  0  0  0  0  0  0  0  0
    2.3050    9.0310   16.7990 H   0  0  0  0  0  0  0  0  0  0  0  0
   -0.7540   10.3260   19.7720 O   0  0  0  0  0  0  0  0  0  0  0  0
   -1.5680   10.7150   18.6730 C   0  0  0  0  0  0  0  0  0  0  0  0
   -0.9900   10.7450   17.7440 H   0  0  0  0  0  0  0  0  0  0  0  0
   -2.0590   11.6760   18.8660 H   0  0  0  0  0  0  0  0  0  0  0  0
   -2.3510    9.9600   18.5540 H   0  0  0  0  0  0  0  0  0  0  0  0
    7.9250    4.3020   17.7680 C   0  0  0  0  0  0  0  0  0  0  0  0
    7.5170    4.3520   18.7800 H   0  0  0  0  0  0  0  0  0  0  0  0
    8.8370    4.9070   17.7440 H   0  0  0  0  0  0  0  0  0  0  0  0
    8.1830    3.2730   17.5090 H   0  0  0  0  0  0  0  0  0  0  0  0
  1  3  1  0  0  0  0
  1 32  1  0  0  0  0
  2  1  2  0  0  0  0
  3  8  1  0  0  0  0
  4  5  1  0  0  0  0
  4  3  1  0  0  0  0
  5 11  1  0  0  0  0
  5  6  1  0  0  0  0
  6 17  1  0  0  0  0
  6  7  1  0  0  0  0
  7 14  1  0  0  0  0
  8  7  1  0  0  0  0
  8 16  1  0  0  0  0
  8 15  1  0  0  0  0
  9  4  1  0  0  0  0
 10  4  1  0  0  0  0
 12  5  1  0  0  0  0
 13  7  1  0  0  0  0
 17 18  1  0  0  0  0
 18 19  2  0  0  0  0
 18 23  1  0  0  0  0
 19 24  1  0  0  0  0
 20 27  1  0  0  0  0
 20 19  1  0  0  0  0
 21 20  2  0  0  0  0
 22 21  1  0  0  0  0
 22 17  2  0  0  0  0
 25 21  1  0  0  0  0
 26 22  1  0  0  0  0
 28 30  1  0  0  0  0
 28 27  1  0  0  0  0
 29 28  1  0  0  0  0
 31 28  1  0  0  0  0
 32 33  1  0  0  0  0
 34 32  1  0  0  0  0
 35 32  1  0  0  0  0
M  END
>  <MODEL>
19

>  <REMARK>
 VINA RESULT:    -4.809      4.312      7.352
 INTER + INTRA:          -5.845
 INTER:                  -5.625
 INTRA:                  -0.221
 UNBOUND:                -0.192
  Name = 
  4 active torsions:
  status: ('A' for Active; 'I' for Inactive)
    1  A    between atoms: C_1  and  C_2
    2  A    between atoms: N_7  and  C_10
    3  A    between atoms: C_13  and  O_16
    4  A    between atoms: O_16  and  C_17
                            x       y       z     vdW  Elec       q    Type
                         _______ _______ _______ _____ _____    ______ ____

>  <TORSDO>
F 4

$$$$
=
 OpenBabel07192307433D

 35 36  0  0  0  0  0  0  0  0999 V2000
   -4.1800   14.3630   23.3270 C   0  0  0  0  0  0  0  0  0  0  0  0
   -5.1470   15.1150   23.4440 O   0  0  0  0  0  0  0  0  0  0  0  0
   -3.8620   13.7330   22.1370 N   0  0  0  0  0  0  0  0  0  0  0  0
   -4.7420   13.9060   20.9790 C   0  0  0  0  0  0  0  0  0  0  0  0
   -4.7980   12.6570   20.0790 C   0  0  0  0  0  0  0  0  0  0  0  0
   -3.4540   12.2140   19.6610 N   0  0  0  0  0  0  0  0  0  0  0  0
   -2.3110   12.6930   20.4530 C   0  0  0  0  0  0  0  0  0  0  0  0
   -2.6900   12.8760   21.9360 C   0  0  0  0  0  0  0  0  0  0  0  0
   -4.3490   14.7580   20.4120 H   0  0  0  0  0  0  0  0  0  0  0  0
   -5.7550   14.1690   21.3060 H   0  0  0  0  0  0  0  0  0  0  0  0
   -5.2840   11.8390   20.6230 H   0  0  0  0  0  0  0  0  0  0  0  0
   -5.4190   12.9080   19.2100 H   0  0  0  0  0  0  0  0  0  0  0  0
   -1.9630   13.6490   20.0410 H   0  0  0  0  0  0  0  0  0  0  0  0
   -1.4800   11.9790   20.4150 H   0  0  0  0  0  0  0  0  0  0  0  0
   -1.8360   13.2860   22.4840 H   0  0  0  0  0  0  0  0  0  0  0  0
   -2.9350   11.9030   22.3780 H   0  0  0  0  0  0  0  0  0  0  0  0
   -3.2780   11.5400   18.4620 C   0  0  0  0  0  0  0  0  0  0  0  0
   -2.1350   10.7720   18.1950 C   0  0  0  0  0  0  0  0  0  0  0  0
   -1.9580   10.0850   16.9820 C   0  0  0  0  0  0  0  0  0  0  0  0
   -2.9340   10.1450   15.9940 C   0  0  0  0  0  0  0  0  0  0  0  0
   -4.0800   10.8950   16.2360 C   0  0  0  0  0  0  0  0  0  0  0  0
   -4.2480   11.5780   17.4480 C   0  0  0  0  0  0  0  0  0  0  0  0
   -1.3290   10.7070   18.9220 H   0  0  0  0  0  0  0  0  0  0  0  0
   -1.0420    9.5200   16.8480 H   0  0  0  0  0  0  0  0  0  0  0  0
   -4.8590   10.9480   15.4800 H   0  0  0  0  0  0  0  0  0  0  0  0
   -5.1750   12.1250   17.5900 H   0  0  0  0  0  0  0  0  0  0  0  0
   -2.8920    9.5290   14.7750 O   0  0  0  0  0  0  0  0  0  0  0  0
   -3.7480   10.0470   13.7650 C   0  0  0  0  0  0  0  0  0  0  0  0
   -4.7990    9.8410   13.9940 H   0  0  0  0  0  0  0  0  0  0  0  0
   -3.4740    9.6590   12.7780 H   0  0  0  0  0  0  0  0  0  0  0  0
   -3.6200   11.1330   13.7430 H   0  0  0  0  0  0  0  0  0  0  0  0
   -3.2750   14.0970   24.5040 C   0  0  0  0  0  0  0  0  0  0  0  0
   -2.2270   14.0860   24.1920 H   0  0  0  0  0  0  0  0  0  0  0  0
   -3.5090   13.1140   24.9240 H   0  0  0  0  0  0  0  0  0  0  0  0
   -3.4360   14.8540   25.2760 H   0  0  0  0  0  0  0  0  0  0  0  0
  1  2  2  0  0  0  0
  1 32  1  0  0  0  0
  3  1  1  0  0  0  0
  4 10  1  0  0  0  0
  4  3  1  0  0  0  0
  5 11  1  0  0  0  0
  5  4  1  0  0  0  0
  6  5  1  0  0  0  0
  6  7  1  0  0  0  0
  7  8  1  0  0  0  0
  8  3  1  0  0  0  0
  8 16  1  0  0  0  0
  8 15  1  0  0  0  0
  9  4  1  0  0  0  0
 12  5  1  0  0  0  0
 13  7  1  0  0  0  0
 14  7  1  0  0  0  0
 17  6  1  0  0  0  0
 18 17  1  0  0  0  0
 18 23  1  0  0  0  0
 19 18  2  0  0  0  0
 20 21  2  0  0  0  0
 20 19  1  0  0  0  0
 21 22  1  0  0  0  0
 22 26  1  0  0  0  0
 22 17  2  0  0  0  0
 24 19  1  0  0  0  0
 25 21  1  0  0  0  0
 27 20  1  0  0  0  0
 28 29  1  0  0  0  0
 28 27  1  0  0  0  0
 30 28  1  0  0  0  0
 31 28  1  0  0  0  0
 32 34  1  0  0  0  0
 32 35  1  0  0  0  0
 33 32  1  0  0  0  0
M  END
>  <MODEL>
20

>  <REMARK>
 VINA RESULT:    -4.570     10.626     12.071
 INTER + INTRA:          -5.565
 INTER:                  -5.343
 INTRA:                  -0.222
 UNBOUND:                -0.192
  Name = 
  4 active torsions:
  status: ('A' for Active; 'I' for Inactive)
    1  A    between atoms: C_1  and  C_2
    2  A    between atoms: N_7  and  C_10
    3  A    between atoms: C_13  and  O_16
    4  A    between atoms: O_16  and  C_17
                            x       y       z     vdW  Elec       q    Type
                         _______ _______ _______ _____ _____    ______ ____

>  <TORSDO>
F 4

$$$$
=
 OpenBabel07192307433D

 35 36  0  0  0  0  0  0  0  0999 V2000
    2.3790    7.4010   19.2430 C   0  0  0  0  0  0  0  0  0  0  0  0
    2.7210    6.4260   19.9110 O   0  0  0  0  0  0  0  0  0  0  0  0
    1.6210    8.4350   19.7630 N   0  0  0  0  0  0  0  0  0  0  0  0
    1.1420    8.3460   21.1450 C   0  0  0  0  0  0  0  0  0  0  0  0
   -0.2280    9.0180   21.3470 C   0  0  0  0  0  0  0  0  0  0  0  0
   -0.2350   10.4160   20.8740 N   0  0  0  0  0  0  0  0  0  0  0  0
    0.8250   10.8140   19.9350 C   0  0  0  0  0  0  0  0  0  0  0  0
    1.2400    9.6420   19.0240 C   0  0  0  0  0  0  0  0  0  0  0  0
    1.8960    8.8380   21.7690 H   0  0  0  0  0  0  0  0  0  0  0  0
    1.0880    7.2970   21.4620 H   0  0  0  0  0  0  0  0  0  0  0  0
   -0.9930    8.4580   20.7960 H   0  0  0  0  0  0  0  0  0  0  0  0
   -0.4660    8.9630   22.4170 H   0  0  0  0  0  0  0  0  0  0  0  0
    1.6950   11.1650   20.5030 H   0  0  0  0  0  0  0  0  0  0  0  0
    0.4880   11.6290   19.2840 H   0  0  0  0  0  0  0  0  0  0  0  0
    2.0660    9.9550   18.3790 H   0  0  0  0  0  0  0  0  0  0  0  0
    0.3990    9.3600   18.3780 H   0  0  0  0  0  0  0  0  0  0  0  0
   -1.0870   11.3480   21.4480 C   0  0  0  0  0  0  0  0  0  0  0  0
   -1.6670   12.3890   20.7080 C   0  0  0  0  0  0  0  0  0  0  0  0
   -2.5340   13.3300   21.2870 C   0  0  0  0  0  0  0  0  0  0  0  0
   -2.8520   13.2510   22.6380 C   0  0  0  0  0  0  0  0  0  0  0  0
   -2.2950   12.2250   23.3930 C   0  0  0  0  0  0  0  0  0  0  0  0
   -1.4300   11.2910   22.8070 C   0  0  0  0  0  0  0  0  0  0  0  0
   -1.4370   12.5120   19.6520 H   0  0  0  0  0  0  0  0  0  0  0  0
   -2.9350   14.1110   20.6500 H   0  0  0  0  0  0  0  0  0  0  0  0
   -2.5380   12.1400   24.4500 H   0  0  0  0  0  0  0  0  0  0  0  0
   -1.0480   10.4970   23.4420 H   0  0  0  0  0  0  0  0  0  0  0  0
   -3.6770   14.0940   23.3270 O   0  0  0  0  0  0  0  0  0  0  0  0
   -3.2800   14.4450   24.6460 C   0  0  0  0  0  0  0  0  0  0  0  0
   -2.2020   14.3170   24.7810 H   0  0  0  0  0  0  0  0  0  0  0  0
   -3.8430   13.8740   25.3930 H   0  0  0  0  0  0  0  0  0  0  0  0
   -3.5110   15.5040   24.7940 H   0  0  0  0  0  0  0  0  0  0  0  0
    2.7900    7.5170   17.7960 C   0  0  0  0  0  0  0  0  0  0  0  0
    2.3310    8.3940   17.3320 H   0  0  0  0  0  0  0  0  0  0  0  0
    2.4460    6.6320   17.2520 H   0  0  0  0  0  0  0  0  0  0  0  0
    3.8790    7.5700   17.7220 H   0  0  0  0  0  0  0  0  0  0  0  0
  1  3  1  0  0  0  0
  1  2  2  0  0  0  0
  3  4  1  0  0  0  0
  4  5  1  0  0  0  0
  4 10  1  0  0  0  0
  4  9  1  0  0  0  0
  5 12  1  0  0  0  0
  6  5  1  0  0  0  0
  6 17  1  0  0  0  0
  7 13  1  0  0  0  0
  7  6  1  0  0  0  0
  8  3  1  0  0  0  0
  8  7  1  0  0  0  0
 11  5  1  0  0  0  0
 14  7  1  0  0  0  0
 15  8  1  0  0  0  0
 16  8  1  0  0  0  0
 17 22  1  0  0  0  0
 18 19  1  0  0  0  0
 18 17  2  0  0  0  0
 19 20  2  0  0  0  0
 20 27  1  0  0  0  0
 20 21  1  0  0  0  0
 21 25  1  0  0  0  0
 22 21  2  0  0  0  0
 22 26  1  0  0  0  0
 23 18  1  0  0  0  0
 24 19  1  0  0  0  0
 27 28  1  0  0  0  0
 28 29  1  0  0  0  0
 28 31  1  0  0  0  0
 28 30  1  0  0  0  0
 32  1  1  0  0  0  0
 33 32  1  0  0  0  0
 34 32  1  0  0  0  0
 35 32  1  0  0  0  0
M  END
>  <MODEL>
21

>  <REMARK>
 VINA RESULT:    -4.506      8.382     11.275
 INTER + INTRA:          -5.488
 INTER:                  -5.274
 INTRA:                  -0.214
 UNBOUND:                -0.192
  Name = 
  4 active torsions:
  status: ('A' for Active; 'I' for Inactive)
    1  A    between atoms: C_1  and  C_2
    2  A    between atoms: N_7  and  C_10
    3  A    between atoms: C_13  and  O_16
    4  A    between atoms: O_16  and  C_17
                            x       y       z     vdW  Elec       q    Type
                         _______ _______ _______ _____ _____    ______ ____

>  <TORSDO>
F 4

$$$$
=
 OpenBabel07192307433D

 35 36  0  0  0  0  0  0  0  0999 V2000
    2.5790    7.2490   19.0440 C   0  0  0  0  0  0  0  0  0  0  0  0
    2.9950    6.2940   19.6990 O   0  0  0  0  0  0  0  0  0  0  0  0
    1.7860    8.2420   19.5920 N   0  0  0  0  0  0  0  0  0  0  0  0
    1.3620    8.1290   20.9890 C   0  0  0  0  0  0  0  0  0  0  0  0
   -0.0340    8.7290   21.2410 C   0  0  0  0  0  0  0  0  0  0  0  0
   -0.1320   10.1240   20.7680 N   0  0  0  0  0  0  0  0  0  0  0  0
    0.8710   10.5760   19.7920 C   0  0  0  0  0  0  0  0  0  0  0  0
    1.3150    9.4260   18.8670 C   0  0  0  0  0  0  0  0  0  0  0  0
    2.1100    8.6620   21.5870 H   0  0  0  0  0  0  0  0  0  0  0  0
    1.3740    7.0800   21.3080 H   0  0  0  0  0  0  0  0  0  0  0  0
   -0.7870    8.1280   20.7170 H   0  0  0  0  0  0  0  0  0  0  0  0
   -0.2310    8.6630   22.3180 H   0  0  0  0  0  0  0  0  0  0  0  0
    1.7410   10.9730   20.3300 H   0  0  0  0  0  0  0  0  0  0  0  0
    0.4680   11.3710   19.1540 H   0  0  0  0  0  0  0  0  0  0  0  0
    2.1000    9.7810   18.1930 H   0  0  0  0  0  0  0  0  0  0  0  0
    0.4680    9.0990   18.2510 H   0  0  0  0  0  0  0  0  0  0  0  0
   -1.0120   11.0100   21.3730 C   0  0  0  0  0  0  0  0  0  0  0  0
   -1.2010   11.0450   22.7630 C   0  0  0  0  0  0  0  0  0  0  0  0
   -2.0880   11.9450   23.3780 C   0  0  0  0  0  0  0  0  0  0  0  0
   -2.8140   12.8470   22.6090 C   0  0  0  0  0  0  0  0  0  0  0  0
   -2.6400   12.8370   21.2290 C   0  0  0  0  0  0  0  0  0  0  0  0
   -1.7550   11.9350   20.6250 C   0  0  0  0  0  0  0  0  0  0  0  0
   -0.6750   10.3480   23.4110 H   0  0  0  0  0  0  0  0  0  0  0  0
   -2.1850   11.9040   24.4570 H   0  0  0  0  0  0  0  0  0  0  0  0
   -3.1930   13.5400   20.6110 H   0  0  0  0  0  0  0  0  0  0  0  0
   -1.6420   11.9920   19.5460 H   0  0  0  0  0  0  0  0  0  0  0  0
   -3.7050   13.7730   23.0730 O   0  0  0  0  0  0  0  0  0  0  0  0
   -4.9030   13.2750   23.6540 C   0  0  0  0  0  0  0  0  0  0  0  0
   -5.7850   13.6740   23.1430 H   0  0  0  0  0  0  0  0  0  0  0  0
   -4.9390   13.4850   24.7290 H   0  0  0  0  0  0  0  0  0  0  0  0
   -4.9090   12.1880   23.5280 H   0  0  0  0  0  0  0  0  0  0  0  0
    2.9310    7.3840   17.5840 C   0  0  0  0  0  0  0  0  0  0  0  0
    3.8020    8.0310   17.4540 H   0  0  0  0  0  0  0  0  0  0  0  0
    2.0920    7.8420   17.0510 H   0  0  0  0  0  0  0  0  0  0  0  0
    3.1190    6.3970   17.1540 H   0  0  0  0  0  0  0  0  0  0  0  0
  1  3  1  0  0  0  0
  1  2  2  0  0  0  0
  3  4  1  0  0  0  0
  4  5  1  0  0  0  0
  4 10  1  0  0  0  0
  4  9  1  0  0  0  0
  5 12  1  0  0  0  0
  6  5  1  0  0  0  0
  6 17  1  0  0  0  0
  7 13  1  0  0  0  0
  7  6  1  0  0  0  0
  8  3  1  0  0  0  0
  8  7  1  0  0  0  0
 11  5  1  0  0  0  0
 14  7  1  0  0  0  0
 15  8  1  0  0  0  0
 16  8  1  0  0  0  0
 17 18  1  0  0  0  0
 18 19  2  0  0  0  0
 18 23  1  0  0  0  0
 19 24  1  0  0  0  0
 20 27  1  0  0  0  0
 20 19  1  0  0  0  0
 21 20  2  0  0  0  0
 22 21  1  0  0  0  0
 22 17  2  0  0  0  0
 25 21  1  0  0  0  0
 26 22  1  0  0  0  0
 27 28  1  0  0  0  0
 28 30  1  0  0  0  0
 29 28  1  0  0  0  0
 31 28  1  0  0  0  0
 32  1  1  0  0  0  0
 33 32  1  0  0  0  0
 34 32  1  0  0  0  0
 35 32  1  0  0  0  0
M  END
>  <MODEL>
22

>  <REMARK>
 VINA RESULT:    -4.432      8.077     11.022
 INTER + INTRA:          -5.402
 INTER:                  -5.207
 INTRA:                  -0.196
 UNBOUND:                -0.192
  Name = 
  4 active torsions:
  status: ('A' for Active; 'I' for Inactive)
    1  A    between atoms: C_1  and  C_2
    2  A    between atoms: N_7  and  C_10
    3  A    between atoms: C_13  and  O_16
    4  A    between atoms: O_16  and  C_17
                            x       y       z     vdW  Elec       q    Type
                         _______ _______ _______ _____ _____    ______ ____

>  <TORSDO>
F 4

$$$$
=
 OpenBabel07192307433D

 35 36  0  0  0  0  0  0  0  0999 V2000
   -2.6590   14.4870   23.8900 C   0  0  0  0  0  0  0  0  0  0  0  0
   -1.6180   14.5080   24.5460 O   0  0  0  0  0  0  0  0  0  0  0  0
   -2.7920   13.7580   22.7220 N   0  0  0  0  0  0  0  0  0  0  0  0
   -1.6340   13.0310   22.1960 C   0  0  0  0  0  0  0  0  0  0  0  0
   -1.6140   12.9700   20.6580 C   0  0  0  0  0  0  0  0  0  0  0  0
   -2.8730   12.4290   20.1080 N   0  0  0  0  0  0  0  0  0  0  0  0
   -4.0530   12.4460   20.9860 C   0  0  0  0  0  0  0  0  0  0  0  0
   -4.0280   13.6560   21.9400 C   0  0  0  0  0  0  0  0  0  0  0  0
   -1.6870   12.0170   22.6100 H   0  0  0  0  0  0  0  0  0  0  0  0
   -0.7030   13.4840   22.5580 H   0  0  0  0  0  0  0  0  0  0  0  0
   -1.4610   13.9790   20.2560 H   0  0  0  0  0  0  0  0  0  0  0  0
   -0.7580   12.3500   20.3650 H   0  0  0  0  0  0  0  0  0  0  0  0
   -4.0790   11.5170   21.5690 H   0  0  0  0  0  0  0  0  0  0  0  0
   -4.9770   12.5110   20.4000 H   0  0  0  0  0  0  0  0  0  0  0  0
   -4.8870   13.6080   22.6150 H   0  0  0  0  0  0  0  0  0  0  0  0
   -4.1080   14.5850   21.3620 H   0  0  0  0  0  0  0  0  0  0  0  0
   -2.8780   11.7610   18.8920 C   0  0  0  0  0  0  0  0  0  0  0  0
   -3.9660   11.8230   18.0090 C   0  0  0  0  0  0  0  0  0  0  0  0
   -3.9710   11.1500   16.7750 C   0  0  0  0  0  0  0  0  0  0  0  0
   -2.8720   10.3930   16.3860 C   0  0  0  0  0  0  0  0  0  0  0  0
   -1.7770   10.3210   17.2420 C   0  0  0  0  0  0  0  0  0  0  0  0
   -1.7820   10.9930   18.4710 C   0  0  0  0  0  0  0  0  0  0  0  0
   -4.8610   12.3820   18.2710 H   0  0  0  0  0  0  0  0  0  0  0  0
   -4.8530   11.2400   16.1520 H   0  0  0  0  0  0  0  0  0  0  0  0
   -0.9050    9.7400   16.9520 H   0  0  0  0  0  0  0  0  0  0  0  0
   -0.8880   10.9210   19.0840 H   0  0  0  0  0  0  0  0  0  0  0  0
   -2.7420    9.6930   15.2200 O   0  0  0  0  0  0  0  0  0  0  0  0
   -3.6490   10.0160   14.1740 C   0  0  0  0  0  0  0  0  0  0  0  0
   -3.1520    9.9890   13.1990 H   0  0  0  0  0  0  0  0  0  0  0  0
   -4.1250   10.9870   14.3490 H   0  0  0  0  0  0  0  0  0  0  0  0
   -4.4360    9.2560   14.1680 H   0  0  0  0  0  0  0  0  0  0  0  0
   -3.8650   15.2670   24.3490 C   0  0  0  0  0  0  0  0  0  0  0  0
   -4.7860   14.8150   23.9710 H   0  0  0  0  0  0  0  0  0  0  0  0
   -3.8060   16.2860   23.9560 H   0  0  0  0  0  0  0  0  0  0  0  0
   -3.8840   15.3150   25.4410 H   0  0  0  0  0  0  0  0  0  0  0  0
  1 32  1  0  0  0  0
  1  2  2  0  0  0  0
  3  1  1  0  0  0  0
  4 10  1  0  0  0  0
  4  9  1  0  0  0  0
  4  3  1  0  0  0  0
  5  4  1  0  0  0  0
  6  5  1  0  0  0  0
  6  7  1  0  0  0  0
  7 13  1  0  0  0  0
  7  8  1  0  0  0  0
  8 15  1  0  0  0  0
  8  3  1  0  0  0  0
 11  5  1  0  0  0  0
 12  5  1  0  0  0  0
 14  7  1  0  0  0  0
 16  8  1  0  0  0  0
 17  6  1  0  0  0  0
 18 23  1  0  0  0  0
 18 17  2  0  0  0  0
 19 18  1  0  0  0  0
 20 19  2  0  0  0  0
 20 21  1  0  0  0  0
 21 22  2  0  0  0  0
 22 17  1  0  0  0  0
 22 26  1  0  0  0  0
 24 19  1  0  0  0  0
 25 21  1  0  0  0  0
 27 20  1  0  0  0  0
 28 30  1  0  0  0  0
 28 27  1  0  0  0  0
 29 28  1  0  0  0  0
 31 28  1  0  0  0  0
 32 35  1  0  0  0  0
 33 32  1  0  0  0  0
 34 32  1  0  0  0  0
M  END
>  <MODEL>
23

>  <REMARK>
 VINA RESULT:    -4.231     10.485     12.038
 INTER + INTRA:          -5.166
 INTER:                  -4.961
 INTRA:                  -0.205
 UNBOUND:                -0.192
  Name = 
  4 active torsions:
  status: ('A' for Active; 'I' for Inactive)
    1  A    between atoms: C_1  and  C_2
    2  A    between atoms: N_7  and  C_10
    3  A    between atoms: C_13  and  O_16
    4  A    between atoms: O_16  and  C_17
                            x       y       z     vdW  Elec       q    Type
                         _______ _______ _______ _____ _____    ______ ____

>  <TORSDO>
F 4

$$$$
=
 OpenBabel07192307433D

 35 36  0  0  0  0  0  0  0  0999 V2000
    1.3930    2.4520   19.4430 C   0  0  0  0  0  0  0  0  0  0  0  0
    1.0000    1.6850   18.5650 O   0  0  0  0  0  0  0  0  0  0  0  0
    2.3600    3.4160   19.2150 N   0  0  0  0  0  0  0  0  0  0  0  0
    2.9980    3.4920   17.8980 C   0  0  0  0  0  0  0  0  0  0  0  0
    4.4680    3.9430   17.9710 C   0  0  0  0  0  0  0  0  0  0  0  0
    4.6220    5.2130   18.7090 N   0  0  0  0  0  0  0  0  0  0  0  0
    3.5200    5.6140   19.5960 C   0  0  0  0  0  0  0  0  0  0  0  0
    2.8170    4.3880   20.2120 C   0  0  0  0  0  0  0  0  0  0  0  0
    2.4150    4.2100   17.3100 H   0  0  0  0  0  0  0  0  0  0  0  0
    2.9360    2.5230   17.3880 H   0  0  0  0  0  0  0  0  0  0  0  0
    5.0610    3.1710   18.4760 H   0  0  0  0  0  0  0  0  0  0  0  0
    4.8340    4.0390   16.9410 H   0  0  0  0  0  0  0  0  0  0  0  0
    2.7950    6.2050   19.0220 H   0  0  0  0  0  0  0  0  0  0  0  0
    3.8870    6.2300   20.4250 H   0  0  0  0  0  0  0  0  0  0  0  0
    1.9700    4.7190   20.8190 H   0  0  0  0  0  0  0  0  0  0  0  0
    3.5140    3.8550   20.8710 H   0  0  0  0  0  0  0  0  0  0  0  0
    5.6730    6.0700   18.4180 C   0  0  0  0  0  0  0  0  0  0  0  0
    6.9590    5.8840   18.9460 C   0  0  0  0  0  0  0  0  0  0  0  0
    8.0260    6.7490   18.6480 C   0  0  0  0  0  0  0  0  0  0  0  0
    7.8320    7.8340   17.8000 C   0  0  0  0  0  0  0  0  0  0  0  0
    6.5670    8.0370   17.2580 C   0  0  0  0  0  0  0  0  0  0  0  0
    5.5090    7.1700   17.5620 C   0  0  0  0  0  0  0  0  0  0  0  0
    7.1630    5.0660   19.6320 H   0  0  0  0  0  0  0  0  0  0  0  0
    8.9880    6.5430   19.1030 H   0  0  0  0  0  0  0  0  0  0  0  0
    6.3970    8.8750   16.5870 H   0  0  0  0  0  0  0  0  0  0  0  0
    4.5520    7.3650   17.0880 H   0  0  0  0  0  0  0  0  0  0  0  0
    8.7760    8.7490   17.4270 O   0  0  0  0  0  0  0  0  0  0  0  0
    8.8150    9.9650   18.1610 C   0  0  0  0  0  0  0  0  0  0  0  0
    7.8620   10.1540   18.6640 H   0  0  0  0  0  0  0  0  0  0  0  0
    9.0970   10.8070   17.5180 H   0  0  0  0  0  0  0  0  0  0  0  0
    9.5840    9.8640   18.9330 H   0  0  0  0  0  0  0  0  0  0  0  0
    0.8180    2.3780   20.8350 C   0  0  0  0  0  0  0  0  0  0  0  0
    1.2410    3.1600   21.4710 H   0  0  0  0  0  0  0  0  0  0  0  0
    1.0720    1.4110   21.2790 H   0  0  0  0  0  0  0  0  0  0  0  0
   -0.2700    2.4670   20.7920 H   0  0  0  0  0  0  0  0  0  0  0  0
  1 32  1  0  0  0  0
  2  1  2  0  0  0  0
  3  1  1  0  0  0  0
  3  8  1  0  0  0  0
  4  5  1  0  0  0  0
  4  3  1  0  0  0  0
  5 11  1  0  0  0  0
  5  6  1  0  0  0  0
  6  7  1  0  0  0  0
  7  8  1  0  0  0  0
  7 14  1  0  0  0  0
  8 15  1  0  0  0  0
  8 16  1  0  0  0  0
  9  4  1  0  0  0  0
 10  4  1  0  0  0  0
 12  5  1  0  0  0  0
 13  7  1  0  0  0  0
 17  6  1  0  0  0  0
 17 18  1  0  0  0  0
 18 23  1  0  0  0  0
 19 18  2  0  0  0  0
 19 24  1  0  0  0  0
 20 19  1  0  0  0  0
 21 22  1  0  0  0  0
 21 20  2  0  0  0  0
 22 17  2  0  0  0  0
 25 21  1  0  0  0  0
 26 22  1  0  0  0  0
 27 20  1  0  0  0  0
 27 28  1  0  0  0  0
 28 29  1  0  0  0  0
 28 31  1  0  0  0  0
 30 28  1  0  0  0  0
 32 34  1  0  0  0  0
 32 33  1  0  0  0  0
 35 32  1  0  0  0  0
M  END
>  <MODEL>
24

>  <REMARK>
 VINA RESULT:    -4.155      3.144      3.693
 INTER + INTRA:          -5.076
 INTER:                  -4.901
 INTRA:                  -0.175
 UNBOUND:                -0.192
  Name = 
  4 active torsions:
  status: ('A' for Active; 'I' for Inactive)
    1  A    between atoms: C_1  and  C_2
    2  A    between atoms: N_7  and  C_10
    3  A    between atoms: C_13  and  O_16
    4  A    between atoms: O_16  and  C_17
                            x       y       z     vdW  Elec       q    Type
                         _______ _______ _______ _____ _____    ______ ____

>  <TORSDO>
F 4

$$$$
=
 OpenBabel07192307433D

 35 36  0  0  0  0  0  0  0  0999 V2000
    9.6530   13.6980   19.3530 C   0  0  0  0  0  0  0  0  0  0  0  0
    9.7210   14.5140   18.4350 O   0  0  0  0  0  0  0  0  0  0  0  0
    9.4030   12.3540   19.1410 N   0  0  0  0  0  0  0  0  0  0  0  0
    9.1390   11.8810   17.7800 C   0  0  0  0  0  0  0  0  0  0  0  0
    8.1470   10.7040   17.7370 C   0  0  0  0  0  0  0  0  0  0  0  0
    8.5680    9.5920   18.6110 N   0  0  0  0  0  0  0  0  0  0  0  0
    9.5440    9.8990   19.6680 C   0  0  0  0  0  0  0  0  0  0  0  0
    9.3700   11.3360   20.1960 C   0  0  0  0  0  0  0  0  0  0  0  0
   10.1050   11.5710   17.3640 H   0  0  0  0  0  0  0  0  0  0  0  0
    8.7630   12.7020   17.1570 H   0  0  0  0  0  0  0  0  0  0  0  0
    7.1590   11.0500   18.0610 H   0  0  0  0  0  0  0  0  0  0  0  0
    8.0710   10.3770   16.6920 H   0  0  0  0  0  0  0  0  0  0  0  0
   10.5580    9.7740   19.2670 H   0  0  0  0  0  0  0  0  0  0  0  0
    9.4260    9.2210   20.5210 H   0  0  0  0  0  0  0  0  0  0  0  0
   10.1450   11.5500   20.9380 H   0  0  0  0  0  0  0  0  0  0  0  0
    8.3960   11.4320   20.6920 H   0  0  0  0  0  0  0  0  0  0  0  0
    8.2030    8.2870   18.3130 C   0  0  0  0  0  0  0  0  0  0  0  0
    8.4310    7.2250   19.2000 C   0  0  0  0  0  0  0  0  0  0  0  0
    8.0570    5.9030   18.9010 C   0  0  0  0  0  0  0  0  0  0  0  0
    7.4330    5.6080   17.6950 C   0  0  0  0  0  0  0  0  0  0  0  0
    7.1890    6.6450   16.8000 C   0  0  0  0  0  0  0  0  0  0  0  0
    7.5670    7.9590   17.1060 C   0  0  0  0  0  0  0  0  0  0  0  0
    8.9360    7.3930   20.1480 H   0  0  0  0  0  0  0  0  0  0  0  0
    8.2760    5.1360   19.6350 H   0  0  0  0  0  0  0  0  0  0  0  0
    6.6940    6.4370   15.8550 H   0  0  0  0  0  0  0  0  0  0  0  0
    7.3260    8.7300   16.3800 H   0  0  0  0  0  0  0  0  0  0  0  0
    7.0170    4.3750   17.2790 O   0  0  0  0  0  0  0  0  0  0  0  0
    6.4190    4.3010   15.9910 C   0  0  0  0  0  0  0  0  0  0  0  0
    5.3990    4.6970   16.0050 H   0  0  0  0  0  0  0  0  0  0  0  0
    6.4410    3.2760   15.6030 H   0  0  0  0  0  0  0  0  0  0  0  0
    7.0080    4.9260   15.3130 H   0  0  0  0  0  0  0  0  0  0  0  0
    9.8530   14.1380   20.7820 C   0  0  0  0  0  0  0  0  0  0  0  0
   10.1970   15.1740   20.8230 H   0  0  0  0  0  0  0  0  0  0  0  0
   10.6200   13.5120   21.2480 H   0  0  0  0  0  0  0  0  0  0  0  0
    8.9210   14.0210   21.3400 H   0  0  0  0  0  0  0  0  0  0  0  0
  1 32  1  0  0  0  0
  2  1  2  0  0  0  0
  3  1  1  0  0  0  0
  3  8  1  0  0  0  0
  4  3  1  0  0  0  0
  5  4  1  0  0  0  0
  5 11  1  0  0  0  0
  5  6  1  0  0  0  0
  6  7  1  0  0  0  0
  7  8  1  0  0  0  0
  7 14  1  0  0  0  0
  8 16  1  0  0  0  0
  8 15  1  0  0  0  0
  9  4  1  0  0  0  0
 10  4  1  0  0  0  0
 12  5  1  0  0  0  0
 13  7  1  0  0  0  0
 17  6  1  0  0  0  0
 17 18  1  0  0  0  0
 18 23  1  0  0  0  0
 19 18  2  0  0  0  0
 19 24  1  0  0  0  0
 20 19  1  0  0  0  0
 21 22  1  0  0  0  0
 21 20  2  0  0  0  0
 22 17  2  0  0  0  0
 25 21  1  0  0  0  0
 26 22  1  0  0  0  0
 27 20  1  0  0  0  0
 28 29  1  0  0  0  0
 28 27  1  0  0  0  0
 30 28  1  0  0  0  0
 31 28  1  0  0  0  0
 32 33  1  0  0  0  0
 32 34  1  0  0  0  0
 32 35  1  0  0  0  0
M  END
>  <MODEL>
25

>  <REMARK>
 VINA RESULT:    -4.119      6.683      8.585
 INTER + INTRA:          -5.034
 INTER:                  -4.810
 INTRA:                  -0.224
 UNBOUND:                -0.192
  Name = 
  4 active torsions:
  status: ('A' for Active; 'I' for Inactive)
    1  A    between atoms: C_1  and  C_2
    2  A    between atoms: N_7  and  C_10
    3  A    between atoms: C_13  and  O_16
    4  A    between atoms: O_16  and  C_17
                            x       y       z     vdW  Elec       q    Type
                         _______ _______ _______ _____ _____    ______ ____

>  <TORSDO>
F 4

$$$$
=
 OpenBabel07192307433D

 35 36  0  0  0  0  0  0  0  0999 V2000
    2.7680    5.5010   19.1240 C   0  0  0  0  0  0  0  0  0  0  0  0
    2.9030    4.8830   20.1800 O   0  0  0  0  0  0  0  0  0  0  0  0
    2.3750    6.8270   19.0790 N   0  0  0  0  0  0  0  0  0  0  0  0
    2.0380    7.5160   20.3280 C   0  0  0  0  0  0  0  0  0  0  0  0
    0.9290    8.5680   20.1500 C   0  0  0  0  0  0  0  0  0  0  0  0
    1.2480    9.5350   19.0800 N   0  0  0  0  0  0  0  0  0  0  0  0
    2.2690    9.1400   18.0990 C   0  0  0  0  0  0  0  0  0  0  0  0
    2.2550    7.6180   17.8520 C   0  0  0  0  0  0  0  0  0  0  0  0
    2.9590    7.9980   20.6760 H   0  0  0  0  0  0  0  0  0  0  0  0
    1.7390    6.7910   21.0940 H   0  0  0  0  0  0  0  0  0  0  0  0
   -0.0120    8.0650   19.8980 H   0  0  0  0  0  0  0  0  0  0  0  0
    0.8000    9.0760   21.1140 H   0  0  0  0  0  0  0  0  0  0  0  0
    3.2570    9.4440   18.4670 H   0  0  0  0  0  0  0  0  0  0  0  0
    2.0960    9.6290   17.1330 H   0  0  0  0  0  0  0  0  0  0  0  0
    3.0620    7.3520   17.1620 H   0  0  0  0  0  0  0  0  0  0  0  0
    1.3060    7.3290   17.3850 H   0  0  0  0  0  0  0  0  0  0  0  0
    0.7430   10.8260   19.1280 C   0  0  0  0  0  0  0  0  0  0  0  0
   -0.5580   11.1050   19.5740 C   0  0  0  0  0  0  0  0  0  0  0  0
   -1.0690   12.4130   19.6270 C   0  0  0  0  0  0  0  0  0  0  0  0
   -0.2810   13.4890   19.2350 C   0  0  0  0  0  0  0  0  0  0  0  0
    1.0140   13.2400   18.7950 C   0  0  0  0  0  0  0  0  0  0  0  0
    1.5150   11.9320   18.7440 C   0  0  0  0  0  0  0  0  0  0  0  0
   -1.2250   10.3000   19.8720 H   0  0  0  0  0  0  0  0  0  0  0  0
   -2.0880   12.5450   19.9750 H   0  0  0  0  0  0  0  0  0  0  0  0
    1.6490   14.0690   18.4920 H   0  0  0  0  0  0  0  0  0  0  0  0
    2.5430   11.8030   18.4160 H   0  0  0  0  0  0  0  0  0  0  0  0
   -0.6490   14.8050   19.2370 O   0  0  0  0  0  0  0  0  0  0  0  0
   -1.3740   15.2670   20.3700 C   0  0  0  0  0  0  0  0  0  0  0  0
   -1.7080   14.4310   20.9930 H   0  0  0  0  0  0  0  0  0  0  0  0
   -2.2190   15.8970   20.0680 H   0  0  0  0  0  0  0  0  0  0  0  0
   -0.6980   15.8810   20.9710 H   0  0  0  0  0  0  0  0  0  0  0  0
    3.0380    4.8240   17.8040 C   0  0  0  0  0  0  0  0  0  0  0  0
    3.5520    3.8710   17.9550 H   0  0  0  0  0  0  0  0  0  0  0  0
    3.6880    5.4620   17.1980 H   0  0  0  0  0  0  0  0  0  0  0  0
    2.0990    4.6710   17.2660 H   0  0  0  0  0  0  0  0  0  0  0  0
  1  2  2  0  0  0  0
  3  1  1  0  0  0  0
  3  4  1  0  0  0  0
  4  9  1  0  0  0  0
  4 10  1  0  0  0  0
  5  4  1  0  0  0  0
  5 12  1  0  0  0  0
  6 17  1  0  0  0  0
  6  5  1  0  0  0  0
  7 13  1  0  0  0  0
  7  6  1  0  0  0  0
  8  7  1  0  0  0  0
  8  3  1  0  0  0  0
 11  5  1  0  0  0  0
 14  7  1  0  0  0  0
 15  8  1  0  0  0  0
 16  8  1  0  0  0  0
 17 18  1  0  0  0  0
 18 19  2  0  0  0  0
 18 23  1  0  0  0  0
 19 24  1  0  0  0  0
 20 27  1  0  0  0  0
 20 19  1  0  0  0  0
 21 20  2  0  0  0  0
 22 21  1  0  0  0  0
 22 17  2  0  0  0  0
 25 21  1  0  0  0  0
 26 22  1  0  0  0  0
 27 28  1  0  0  0  0
 28 31  1  0  0  0  0
 28 29  1  0  0  0  0
 30 28  1  0  0  0  0
 32 33  1  0  0  0  0
 32  1  1  0  0  0  0
 34 32  1  0  0  0  0
 35 32  1  0  0  0  0
M  END
>  <MODEL>
26

>  <REMARK>
 VINA RESULT:    -4.082      7.167      8.995
 INTER + INTRA:          -4.991
 INTER:                  -4.802
 INTRA:                  -0.188
 UNBOUND:                -0.192
  Name = 
  4 active torsions:
  status: ('A' for Active; 'I' for Inactive)
    1  A    between atoms: C_1  and  C_2
    2  A    between atoms: N_7  and  C_10
    3  A    between atoms: C_13  and  O_16
    4  A    between atoms: O_16  and  C_17
                            x       y       z     vdW  Elec       q    Type
                         _______ _______ _______ _____ _____    ______ ____

>  <TORSDO>
F 4

$$$$
=
 OpenBabel07192307433D

 35 36  0  0  0  0  0  0  0  0999 V2000
   -3.2430   14.4980   21.7790 C   0  0  0  0  0  0  0  0  0  0  0  0
   -3.6360   15.2470   20.8850 O   0  0  0  0  0  0  0  0  0  0  0  0
   -2.3390   13.4750   21.5530 N   0  0  0  0  0  0  0  0  0  0  0  0
   -1.8770   13.2180   20.1870 C   0  0  0  0  0  0  0  0  0  0  0  0
   -1.5950   11.7280   19.9210 C   0  0  0  0  0  0  0  0  0  0  0  0
   -0.6640   11.1540   20.9120 N   0  0  0  0  0  0  0  0  0  0  0  0
   -0.4980   11.8810   22.1790 C   0  0  0  0  0  0  0  0  0  0  0  0
   -1.7990   12.5960   22.5940 C   0  0  0  0  0  0  0  0  0  0  0  0
   -0.9580   13.8010   20.0530 H   0  0  0  0  0  0  0  0  0  0  0  0
   -2.6090   13.5900   19.4600 H   0  0  0  0  0  0  0  0  0  0  0  0
   -2.5360   11.1680   19.9590 H   0  0  0  0  0  0  0  0  0  0  0  0
   -1.1880   11.6470   18.9050 H   0  0  0  0  0  0  0  0  0  0  0  0
    0.3080   12.6180   22.0670 H   0  0  0  0  0  0  0  0  0  0  0  0
   -0.2270   11.1970   22.9920 H   0  0  0  0  0  0  0  0  0  0  0  0
   -1.6250   13.1720   23.5070 H   0  0  0  0  0  0  0  0  0  0  0  0
   -2.5760   11.8530   22.8100 H   0  0  0  0  0  0  0  0  0  0  0  0
    0.1540   10.0870   20.5710 C   0  0  0  0  0  0  0  0  0  0  0  0
    0.3180    8.9720   21.4060 C   0  0  0  0  0  0  0  0  0  0  0  0
    1.1430    7.8880   21.0600 C   0  0  0  0  0  0  0  0  0  0  0  0
    1.8310    7.8900   19.8520 C   0  0  0  0  0  0  0  0  0  0  0  0
    1.6810    8.9820   19.0020 C   0  0  0  0  0  0  0  0  0  0  0  0
    0.8570   10.0580   19.3570 C   0  0  0  0  0  0  0  0  0  0  0  0
   -0.1790    8.9260   22.3720 H   0  0  0  0  0  0  0  0  0  0  0  0
    1.2240    7.0670   21.7630 H   0  0  0  0  0  0  0  0  0  0  0  0
    2.2040    8.9990   18.0490 H   0  0  0  0  0  0  0  0  0  0  0  0
    0.7590   10.8700   18.6410 H   0  0  0  0  0  0  0  0  0  0  0  0
    2.6610    6.9080   19.3910 O   0  0  0  0  0  0  0  0  0  0  0  0
    2.9490    6.9130   17.9980 C   0  0  0  0  0  0  0  0  0  0  0  0
    3.6390    7.7220   17.7410 H   0  0  0  0  0  0  0  0  0  0  0  0
    2.0300    6.9730   17.4040 H   0  0  0  0  0  0  0  0  0  0  0  0
    3.4400    5.9660   17.7560 H   0  0  0  0  0  0  0  0  0  0  0  0
   -3.7340   14.6740   23.1940 C   0  0  0  0  0  0  0  0  0  0  0  0
   -4.8190   14.8040   23.2130 H   0  0  0  0  0  0  0  0  0  0  0  0
   -3.2830   15.5740   23.6230 H   0  0  0  0  0  0  0  0  0  0  0  0
   -3.4410   13.8140   23.7990 H   0  0  0  0  0  0  0  0  0  0  0  0
  1 32  1  0  0  0  0
  2  1  2  0  0  0  0
  3  1  1  0  0  0  0
  3  8  1  0  0  0  0
  4  3  1  0  0  0  0
  5 11  1  0  0  0  0
  5  4  1  0  0  0  0
  5  6  1  0  0  0  0
  6  7  1  0  0  0  0
  7  8  1  0  0  0  0
  7 14  1  0  0  0  0
  8 16  1  0  0  0  0
  8 15  1  0  0  0  0
  9  4  1  0  0  0  0
 10  4  1  0  0  0  0
 12  5  1  0  0  0  0
 13  7  1  0  0  0  0
 17  6  1  0  0  0  0
 17 18  1  0  0  0  0
 18 23  1  0  0  0  0
 19 18  2  0  0  0  0
 19 24  1  0  0  0  0
 20 19  1  0  0  0  0
 21 22  1  0  0  0  0
 21 20  2  0  0  0  0
 22 17  2  0  0  0  0
 25 21  1  0  0  0  0
 26 22  1  0  0  0  0
 27 20  1  0  0  0  0
 28 27  1  0  0  0  0
 29 28  1  0  0  0  0
 30 28  1  0  0  0  0
 31 28  1  0  0  0  0
 32 33  1  0  0  0  0
 32 34  1  0  0  0  0
 32 35  1  0  0  0  0
M  END
>  <MODEL>
27

>  <REMARK>
 VINA RESULT:    -4.028      8.670     10.102
 INTER + INTRA:          -4.927
 INTER:                  -4.714
 INTRA:                  -0.213
 UNBOUND:                -0.192
  Name = 
  4 active torsions:
  status: ('A' for Active; 'I' for Inactive)
    1  A    between atoms: C_1  and  C_2
    2  A    between atoms: N_7  and  C_10
    3  A    between atoms: C_13  and  O_16
    4  A    between atoms: O_16  and  C_17
                            x       y       z     vdW  Elec       q    Type
                         _______ _______ _______ _____ _____    ______ ____

>  <TORSDO>
F 4

$$$$
=
 OpenBabel07192307433D

 35 36  0  0  0  0  0  0  0  0999 V2000
    6.9640    4.3900   13.5840 C   0  0  0  0  0  0  0  0  0  0  0  0
    6.8830    3.2560   13.1120 O   0  0  0  0  0  0  0  0  0  0  0  0
    6.2730    4.7770   14.7190 N   0  0  0  0  0  0  0  0  0  0  0  0
    5.3540    3.8300   15.3550 C   0  0  0  0  0  0  0  0  0  0  0  0
    4.1380    4.5190   16.0010 C   0  0  0  0  0  0  0  0  0  0  0  0
    4.5390    5.5820   16.9440 N   0  0  0  0  0  0  0  0  0  0  0  0
    5.9040    6.1150   16.8160 C   0  0  0  0  0  0  0  0  0  0  0  0
    6.3810    6.0950   15.3500 C   0  0  0  0  0  0  0  0  0  0  0  0
    5.9320    3.2990   16.1200 H   0  0  0  0  0  0  0  0  0  0  0  0
    5.0110    3.0840   14.6280 H   0  0  0  0  0  0  0  0  0  0  0  0
    3.5130    4.9630   15.2180 H   0  0  0  0  0  0  0  0  0  0  0  0
    3.5520    3.7420   16.5090 H   0  0  0  0  0  0  0  0  0  0  0  0
    6.5830    5.5140   17.4330 H   0  0  0  0  0  0  0  0  0  0  0  0
    5.9530    7.1540   17.1610 H   0  0  0  0  0  0  0  0  0  0  0  0
    7.4170    6.4440   15.2980 H   0  0  0  0  0  0  0  0  0  0  0  0
    5.7670    6.7790   14.7520 H   0  0  0  0  0  0  0  0  0  0  0  0
    3.7250    5.9120   18.0170 C   0  0  0  0  0  0  0  0  0  0  0  0
    3.4530    5.0080   19.0560 C   0  0  0  0  0  0  0  0  0  0  0  0
    2.6330    5.3420   20.1470 C   0  0  0  0  0  0  0  0  0  0  0  0
    2.0590    6.6060   20.2300 C   0  0  0  0  0  0  0  0  0  0  0  0
    2.3170    7.5220   19.2160 C   0  0  0  0  0  0  0  0  0  0  0  0
    3.1360    7.1800   18.1320 C   0  0  0  0  0  0  0  0  0  0  0  0
    3.8570    3.9990   19.0320 H   0  0  0  0  0  0  0  0  0  0  0  0
    2.4640    4.5860   20.9050 H   0  0  0  0  0  0  0  0  0  0  0  0
    1.8850    8.5180   19.2670 H   0  0  0  0  0  0  0  0  0  0  0  0
    3.3220    7.9460   17.3850 H   0  0  0  0  0  0  0  0  0  0  0  0
    1.2470    7.0620   21.2290 O   0  0  0  0  0  0  0  0  0  0  0  0
    1.1920    8.4700   21.4190 C   0  0  0  0  0  0  0  0  0  0  0  0
    0.2770    8.8910   20.9910 H   0  0  0  0  0  0  0  0  0  0  0  0
    2.0830    8.9590   21.0080 H   0  0  0  0  0  0  0  0  0  0  0  0
    1.1750    8.6620   22.4960 H   0  0  0  0  0  0  0  0  0  0  0  0
    7.8450    5.4260   12.9350 C   0  0  0  0  0  0  0  0  0  0  0  0
    8.7160    4.9580   12.4710 H   0  0  0  0  0  0  0  0  0  0  0  0
    8.2070    6.1220   13.6980 H   0  0  0  0  0  0  0  0  0  0  0  0
    7.2730    5.9890   12.1930 H   0  0  0  0  0  0  0  0  0  0  0  0
  1  3  1  0  0  0  0
  2  1  2  0  0  0  0
  3  8  1  0  0  0  0
  3  4  1  0  0  0  0
  4  5  1  0  0  0  0
  4  9  1  0  0  0  0
  5 12  1  0  0  0  0
  5  6  1  0  0  0  0
  6 17  1  0  0  0  0
  7  6  1  0  0  0  0
  7 14  1  0  0  0  0
  7 13  1  0  0  0  0
  8  7  1  0  0  0  0
 10  4  1  0  0  0  0
 11  5  1  0  0  0  0
 15  8  1  0  0  0  0
 16  8  1  0  0  0  0
 17 22  2  0  0  0  0
 17 18  1  0  0  0  0
 18 19  2  0  0  0  0
 19 20  1  0  0  0  0
 19 24  1  0  0  0  0
 20 27  1  0  0  0  0
 21 25  1  0  0  0  0
 21 20  2  0  0  0  0
 22 21  1  0  0  0  0
 23 18  1  0  0  0  0
 26 22  1  0  0  0  0
 27 28  1  0  0  0  0
 28 31  1  0  0  0  0
 29 28  1  0  0  0  0
 30 28  1  0  0  0  0
 32  1  1  0  0  0  0
 32 34  1  0  0  0  0
 33 32  1  0  0  0  0
 35 32  1  0  0  0  0
M  END
>  <MODEL>
28

>  <REMARK>
 VINA RESULT:    -3.872      2.664      7.155
 INTER + INTRA:          -4.744
 INTER:                  -4.543
 INTRA:                  -0.201
 UNBOUND:                -0.192
  Name = 
  4 active torsions:
  status: ('A' for Active; 'I' for Inactive)
    1  A    between atoms: C_1  and  C_2
    2  A    between atoms: N_7  and  C_10
    3  A    between atoms: C_13  and  O_16
    4  A    between atoms: O_16  and  C_17
                            x       y       z     vdW  Elec       q    Type
                         _______ _______ _______ _____ _____    ______ ____

>  <TORSDO>
F 4

$$$$
=
 OpenBabel07192307433D

 35 36  0  0  0  0  0  0  0  0999 V2000
    3.3180    5.0680   18.6710 C   0  0  0  0  0  0  0  0  0  0  0  0
    3.5160    4.6170   17.5440 O   0  0  0  0  0  0  0  0  0  0  0  0
    2.6720    6.2720   18.8920 N   0  0  0  0  0  0  0  0  0  0  0  0
    2.2630    7.0850   17.7440 C   0  0  0  0  0  0  0  0  0  0  0  0
    2.3290    8.5970   18.0280 C   0  0  0  0  0  0  0  0  0  0  0  0
    1.5700    8.9680   19.2380 N   0  0  0  0  0  0  0  0  0  0  0  0
    1.2570    7.8930   20.1920 C   0  0  0  0  0  0  0  0  0  0  0  0
    2.3630    6.8210   20.2160 C   0  0  0  0  0  0  0  0  0  0  0  0
    1.2320    6.7940   17.5070 H   0  0  0  0  0  0  0  0  0  0  0  0
    2.8790    6.8470   16.8690 H   0  0  0  0  0  0  0  0  0  0  0  0
    3.3750    8.8950   18.1660 H   0  0  0  0  0  0  0  0  0  0  0  0
    1.9380    9.1140   17.1430 H   0  0  0  0  0  0  0  0  0  0  0  0
    0.3020    7.4310   19.9120 H   0  0  0  0  0  0  0  0  0  0  0  0
    1.1630    8.2880   21.2110 H   0  0  0  0  0  0  0  0  0  0  0  0
    2.0730    6.0100   20.8910 H   0  0  0  0  0  0  0  0  0  0  0  0
    3.2940    7.2580   20.5970 H   0  0  0  0  0  0  0  0  0  0  0  0
    1.0150   10.2340   19.3580 C   0  0  0  0  0  0  0  0  0  0  0  0
    1.5300   11.3440   18.6720 C   0  0  0  0  0  0  0  0  0  0  0  0
    0.9660   12.6260   18.7890 C   0  0  0  0  0  0  0  0  0  0  0  0
   -0.1440   12.8320   19.6000 C   0  0  0  0  0  0  0  0  0  0  0  0
   -0.6770   11.7460   20.2860 C   0  0  0  0  0  0  0  0  0  0  0  0
   -0.1080   10.4720   20.1650 C   0  0  0  0  0  0  0  0  0  0  0  0
    2.4090   11.2460   18.0410 H   0  0  0  0  0  0  0  0  0  0  0  0
    1.4270   13.4350   18.2340 H   0  0  0  0  0  0  0  0  0  0  0  0
   -1.5500   11.8840   20.9190 H   0  0  0  0  0  0  0  0  0  0  0  0
   -0.5840    9.6580   20.7040 H   0  0  0  0  0  0  0  0  0  0  0  0
   -0.7900   14.0190   19.8030 O   0  0  0  0  0  0  0  0  0  0  0  0
   -0.2770   15.1540   19.1170 C   0  0  0  0  0  0  0  0  0  0  0  0
   -1.0850   15.7460   18.6760 H   0  0  0  0  0  0  0  0  0  0  0  0
    0.4570   14.8590   18.3580 H   0  0  0  0  0  0  0  0  0  0  0  0
    0.2360   15.7830   19.8490 H   0  0  0  0  0  0  0  0  0  0  0  0
    3.7750    4.3050   19.8890 C   0  0  0  0  0  0  0  0  0  0  0  0
    4.3400    3.4160   19.5990 H   0  0  0  0  0  0  0  0  0  0  0  0
    2.9000    3.9740   20.4570 H   0  0  0  0  0  0  0  0  0  0  0  0
    4.3800    4.9530   20.5280 H   0  0  0  0  0  0  0  0  0  0  0  0
  1  3  1  0  0  0  0
  1 32  1  0  0  0  0
  2  1  2  0  0  0  0
  3  8  1  0  0  0  0
  4  5  1  0  0  0  0
  4  3  1  0  0  0  0
  5 11  1  0  0  0  0
  5  6  1  0  0  0  0
  6 17  1  0  0  0  0
  6  7  1  0  0  0  0
  7  8  1  0  0  0  0
  7 14  1  0  0  0  0
  8 16  1  0  0  0  0
  8 15  1  0  0  0  0
  9  4  1  0  0  0  0
 10  4  1  0  0  0  0
 12  5  1  0  0  0  0
 13  7  1  0  0  0  0
 17 22  1  0  0  0  0
 18 19  1  0  0  0  0
 18 17  2  0  0  0  0
 19 20  2  0  0  0  0
 20 27  1  0  0  0  0
 20 21  1  0  0  0  0
 21 25  1  0  0  0  0
 22 21  2  0  0  0  0
 22 26  1  0  0  0  0
 23 18  1  0  0  0  0
 24 19  1  0  0  0  0
 28 27  1  0  0  0  0
 28 31  1  0  0  0  0
 29 28  1  0  0  0  0
 30 28  1  0  0  0  0
 32 34  1  0  0  0  0
 32 35  1  0  0  0  0
 33 32  1  0  0  0  0
M  END
>  <MODEL>
29

>  <REMARK>
 VINA RESULT:    -3.742      6.689      8.487
 INTER + INTRA:          -4.591
 INTER:                  -4.392
 INTRA:                  -0.199
 UNBOUND:                -0.192
  Name = 
  4 active torsions:
  status: ('A' for Active; 'I' for Inactive)
    1  A    between atoms: C_1  and  C_2
    2  A    between atoms: N_7  and  C_10
    3  A    between atoms: C_13  and  O_16
    4  A    between atoms: O_16  and  C_17
                            x       y       z     vdW  Elec       q    Type
                         _______ _______ _______ _____ _____    ______ ____

>  <TORSDO>
F 4

$$$$
=
 OpenBabel07192307433D

 35 36  0  0  0  0  0  0  0  0999 V2000
   -3.2080   10.9090   18.1640 C   0  0  0  0  0  0  0  0  0  0  0  0
   -4.2510   11.4770   18.4850 O   0  0  0  0  0  0  0  0  0  0  0  0
   -1.9570   11.4110   18.4760 N   0  0  0  0  0  0  0  0  0  0  0  0
   -1.8540   12.7030   19.1580 C   0  0  0  0  0  0  0  0  0  0  0  0
   -0.6000   13.4980   18.7500 C   0  0  0  0  0  0  0  0  0  0  0  0
    0.6360   12.7090   18.9210 N   0  0  0  0  0  0  0  0  0  0  0  0
    0.4950   11.2480   19.0120 C   0  0  0  0  0  0  0  0  0  0  0  0
   -0.6900   10.7420   18.1660 C   0  0  0  0  0  0  0  0  0  0  0  0
   -1.8270   12.4880   20.2330 H   0  0  0  0  0  0  0  0  0  0  0  0
   -2.7500   13.3070   18.9690 H   0  0  0  0  0  0  0  0  0  0  0  0
   -0.6840   13.7930   17.6980 H   0  0  0  0  0  0  0  0  0  0  0  0
   -0.5750   14.4080   19.3610 H   0  0  0  0  0  0  0  0  0  0  0  0
    0.3440   10.9670   20.0620 H   0  0  0  0  0  0  0  0  0  0  0  0
    1.3960   10.7430   18.6470 H   0  0  0  0  0  0  0  0  0  0  0  0
   -0.8020    9.6620   18.3000 H   0  0  0  0  0  0  0  0  0  0  0  0
   -0.4910   10.9290   17.1030 H   0  0  0  0  0  0  0  0  0  0  0  0
    1.8430   13.3430   19.1800 C   0  0  0  0  0  0  0  0  0  0  0  0
    2.6680   13.8270   18.1540 C   0  0  0  0  0  0  0  0  0  0  0  0
    3.8880   14.4740   18.4150 C   0  0  0  0  0  0  0  0  0  0  0  0
    4.3170   14.6580   19.7240 C   0  0  0  0  0  0  0  0  0  0  0  0
    3.5140   14.1920   20.7600 C   0  0  0  0  0  0  0  0  0  0  0  0
    2.3000   13.5470   20.4900 C   0  0  0  0  0  0  0  0  0  0  0  0
    2.3930   13.6920   17.1110 H   0  0  0  0  0  0  0  0  0  0  0  0
    4.4740   14.8120   17.5670 H   0  0  0  0  0  0  0  0  0  0  0  0
    3.8280   14.3330   21.7910 H   0  0  0  0  0  0  0  0  0  0  0  0
    1.7040   13.2290   21.3410 H   0  0  0  0  0  0  0  0  0  0  0  0
    5.4750   15.2670   20.1190 O   0  0  0  0  0  0  0  0  0  0  0  0
    6.6120   15.0850   19.2850 C   0  0  0  0  0  0  0  0  0  0  0  0
    7.5360   15.3310   19.8180 H   0  0  0  0  0  0  0  0  0  0  0  0
    6.5220   15.6660   18.3610 H   0  0  0  0  0  0  0  0  0  0  0  0
    6.6580   14.0270   19.0100 H   0  0  0  0  0  0  0  0  0  0  0  0
   -3.2510    9.6080   17.4040 C   0  0  0  0  0  0  0  0  0  0  0  0
   -4.2560    9.4160   17.0200 H   0  0  0  0  0  0  0  0  0  0  0  0
   -2.9890    8.7870   18.0790 H   0  0  0  0  0  0  0  0  0  0  0  0
   -2.5270    9.6300   16.5860 H   0  0  0  0  0  0  0  0  0  0  0  0
  1  3  1  0  0  0  0
  1  2  2  0  0  0  0
  3  4  1  0  0  0  0
  4  9  1  0  0  0  0
  5  6  1  0  0  0  0
  5  4  1  0  0  0  0
  5 12  1  0  0  0  0
  6  7  1  0  0  0  0
  6 17  1  0  0  0  0
  7 13  1  0  0  0  0
  8 15  1  0  0  0  0
  8  3  1  0  0  0  0
  8  7  1  0  0  0  0
 10  4  1  0  0  0  0
 11  5  1  0  0  0  0
 14  7  1  0  0  0  0
 16  8  1  0  0  0  0
 17 22  1  0  0  0  0
 18 19  1  0  0  0  0
 18 17  2  0  0  0  0
 19 20  2  0  0  0  0
 20 27  1  0  0  0  0
 20 21  1  0  0  0  0
 21 25  1  0  0  0  0
 22 21  2  0  0  0  0
 22 26  1  0  0  0  0
 23 18  1  0  0  0  0
 24 19  1  0  0  0  0
 28 29  1  0  0  0  0
 28 27  1  0  0  0  0
 30 28  1  0  0  0  0
 31 28  1  0  0  0  0
 32 34  1  0  0  0  0
 32  1  1  0  0  0  0
 33 32  1  0  0  0  0
 35 32  1  0  0  0  0
M  END
>  <MODEL>
30

>  <REMARK>
 VINA RESULT:    -3.738      9.650     10.526
 INTER + INTRA:          -4.586
 INTER:                  -4.409
 INTRA:                  -0.177
 UNBOUND:                -0.192
  Name = 
  4 active torsions:
  status: ('A' for Active; 'I' for Inactive)
    1  A    between atoms: C_1  and  C_2
    2  A    between atoms: N_7  and  C_10
    3  A    between atoms: C_13  and  O_16
    4  A    between atoms: O_16  and  C_17
                            x       y       z     vdW  Elec       q    Type
                         _______ _______ _______ _____ _____    ______ ____

>  <TORSDO>
F 4

$$$$
=
 OpenBabel07192307433D

 35 36  0  0  0  0  0  0  0  0999 V2000
   -3.7650   11.0480   16.5670 C   0  0  0  0  0  0  0  0  0  0  0  0
   -4.8590   10.6450   16.1730 O   0  0  0  0  0  0  0  0  0  0  0  0
   -3.5530   11.4900   17.8610 N   0  0  0  0  0  0  0  0  0  0  0  0
   -4.6840   11.5500   18.7910 C   0  0  0  0  0  0  0  0  0  0  0  0
   -4.5700   12.7100   19.7980 C   0  0  0  0  0  0  0  0  0  0  0  0
   -3.2860   12.6870   20.5260 N   0  0  0  0  0  0  0  0  0  0  0  0
   -2.1880   11.9090   19.9310 C   0  0  0  0  0  0  0  0  0  0  0  0
   -2.2570   11.9240   18.3910 C   0  0  0  0  0  0  0  0  0  0  0  0
   -4.7010   10.5930   19.3240 H   0  0  0  0  0  0  0  0  0  0  0  0
   -5.6280   11.6340   18.2390 H   0  0  0  0  0  0  0  0  0  0  0  0
   -4.6530   13.6640   19.2640 H   0  0  0  0  0  0  0  0  0  0  0  0
   -5.4170   12.6280   20.4900 H   0  0  0  0  0  0  0  0  0  0  0  0
   -2.2440   10.8750   20.2930 H   0  0  0  0  0  0  0  0  0  0  0  0
   -1.2140   12.3220   20.2180 H   0  0  0  0  0  0  0  0  0  0  0  0
   -1.4630   11.2920   17.9830 H   0  0  0  0  0  0  0  0  0  0  0  0
   -2.0950   12.9440   18.0230 H   0  0  0  0  0  0  0  0  0  0  0  0
   -3.1950   13.2150   21.8050 C   0  0  0  0  0  0  0  0  0  0  0  0
   -3.8050   12.6040   22.9120 C   0  0  0  0  0  0  0  0  0  0  0  0
   -3.7100   13.1350   24.2090 C   0  0  0  0  0  0  0  0  0  0  0  0
   -2.9910   14.3030   24.4370 C   0  0  0  0  0  0  0  0  0  0  0  0
   -2.3720   14.9250   23.3580 C   0  0  0  0  0  0  0  0  0  0  0  0
   -2.4730   14.3890   22.0670 C   0  0  0  0  0  0  0  0  0  0  0  0
   -4.3980   11.7020   22.7890 H   0  0  0  0  0  0  0  0  0  0  0  0
   -4.2170   12.6090   25.0110 H   0  0  0  0  0  0  0  0  0  0  0  0
   -1.7980   15.8340   23.5170 H   0  0  0  0  0  0  0  0  0  0  0  0
   -1.9460   14.9040   21.2700 H   0  0  0  0  0  0  0  0  0  0  0  0
   -2.8170   14.9250   25.6410 O   0  0  0  0  0  0  0  0  0  0  0  0
   -1.4840   15.2650   26.0010 C   0  0  0  0  0  0  0  0  0  0  0  0
   -1.4550   15.7740   26.9690 H   0  0  0  0  0  0  0  0  0  0  0  0
   -1.0060   15.8690   25.2210 H   0  0  0  0  0  0  0  0  0  0  0  0
   -0.9170   14.3350   26.0970 H   0  0  0  0  0  0  0  0  0  0  0  0
   -2.5790   11.0690   15.6360 C   0  0  0  0  0  0  0  0  0  0  0  0
   -2.6270   10.2360   14.9300 H   0  0  0  0  0  0  0  0  0  0  0  0
   -1.6600   10.9610   16.2200 H   0  0  0  0  0  0  0  0  0  0  0  0
   -2.5420   12.0220   15.1020 H   0  0  0  0  0  0  0  0  0  0  0  0
  1  3  1  0  0  0  0
  2  1  2  0  0  0  0
  3  8  1  0  0  0  0
  3  4  1  0  0  0  0
  4  9  1  0  0  0  0
  4  5  1  0  0  0  0
  5 12  1  0  0  0  0
  5  6  1  0  0  0  0
  6 17  1  0  0  0  0
  7 14  1  0  0  0  0
  7 13  1  0  0  0  0
  7  6  1  0  0  0  0
  8  7  1  0  0  0  0
 10  4  1  0  0  0  0
 11  5  1  0  0  0  0
 15  8  1  0  0  0  0
 16  8  1  0  0  0  0
 17 22  2  0  0  0  0
 17 18  1  0  0  0  0
 18 19  2  0  0  0  0
 19 20  1  0  0  0  0
 19 24  1  0  0  0  0
 20 27  1  0  0  0  0
 21 25  1  0  0  0  0
 21 20  2  0  0  0  0
 22 21  1  0  0  0  0
 23 18  1  0  0  0  0
 26 22  1  0  0  0  0
 27 28  1  0  0  0  0
 28 31  1  0  0  0  0
 28 29  1  0  0  0  0
 30 28  1  0  0  0  0
 32 34  1  0  0  0  0
 32  1  1  0  0  0  0
 33 32  1  0  0  0  0
 35 32  1  0  0  0  0
M  END
>  <MODEL>
31

>  <REMARK>
 VINA RESULT:    -3.495     11.169     13.915
 INTER + INTRA:          -4.301
 INTER:                  -4.108
 INTRA:                  -0.192
 UNBOUND:                -0.192
  Name = 
  4 active torsions:
  status: ('A' for Active; 'I' for Inactive)
    1  A    between atoms: C_1  and  C_2
    2  A    between atoms: N_7  and  C_10
    3  A    between atoms: C_13  and  O_16
    4  A    between atoms: O_16  and  C_17
                            x       y       z     vdW  Elec       q    Type
                         _______ _______ _______ _____ _____    ______ ____

>  <TORSDO>
F 4

$$$$
