=
 OpenBabel07192307433D

 43 47  0  0  0  0  0  0  0  0999 V2000
    0.6930   11.2740   18.1370 N   0  0  0  0  0  0  0  0  0  0  0  0
    1.0980   10.0730   18.6210 C   0  0  0  0  0  0  0  0  0  0  0  0
    1.7700    9.2180   17.8990 N   0  0  0  0  0  0  0  0  0  0  0  0
    1.9830    8.1460   18.6930 N   0  0  0  0  0  0  0  0  0  0  0  0
    2.6170    6.9640   18.4790 C   0  0  0  0  0  0  0  0  0  0  0  0
    2.4870    6.2740   19.6790 C   0  0  0  0  0  0  0  0  0  0  0  0
    1.7990    7.0350   20.6180 N   0  0  0  0  0  0  0  0  0  0  0  0
    1.5240    8.1290   19.9660 C   0  0  0  0  0  0  0  0  0  0  0  0
    0.7130    9.5950   20.3040 S   0  0  0  0  0  0  0  0  0  0  0  0
    1.0380   11.5070   17.2090 H   0  0  0  0  0  0  0  0  0  0  0  0
    3.0850    6.7210   17.5380 H   0  0  0  0  0  0  0  0  0  0  0  0
    2.9890    4.9080   20.0150 C   0  0  0  0  0  0  0  0  0  0  0  0
    2.8830    3.9240   18.8420 C   0  0  0  0  0  0  0  0  0  0  0  0
    2.5740    2.5830   19.4950 C   0  0  0  0  0  0  0  0  0  0  0  0
    1.6270    2.9680   20.6190 C   0  0  0  0  0  0  0  0  0  0  0  0
    2.2280    4.2510   21.1820 C   0  0  0  0  0  0  0  0  0  0  0  0
    4.0470    4.9880   20.3050 H   0  0  0  0  0  0  0  0  0  0  0  0
    3.8060    3.8870   18.2540 H   0  0  0  0  0  0  0  0  0  0  0  0
    2.0690    4.1930   18.1560 H   0  0  0  0  0  0  0  0  0  0  0  0
    3.4900    2.1360   19.9000 H   0  0  0  0  0  0  0  0  0  0  0  0
    2.1240    1.8740   18.7960 H   0  0  0  0  0  0  0  0  0  0  0  0
    0.6260    3.1680   20.2190 H   0  0  0  0  0  0  0  0  0  0  0  0
    1.5400    2.1820   21.3770 H   0  0  0  0  0  0  0  0  0  0  0  0
    2.9430    3.9980   21.9780 H   0  0  0  0  0  0  0  0  0  0  0  0
    1.4580    4.8900   21.6300 H   0  0  0  0  0  0  0  0  0  0  0  0
    0.2290   12.4110   18.9080 C   0  0  0  0  0  0  0  0  0  0  0  0
    0.7930   12.4610   19.8470 H   0  0  0  0  0  0  0  0  0  0  0  0
    0.4290   13.3330   18.3450 H   0  0  0  0  0  0  0  0  0  0  0  0
   -3.0200   10.9980   16.4910 C   0  0  0  0  0  0  0  0  0  0  0  0
   -4.3940   11.0700   17.0770 C   0  0  0  0  0  0  0  0  0  0  0  0
   -4.5190   11.5730   18.3110 C   0  0  0  0  0  0  0  0  0  0  0  0
   -3.3650   12.0000   18.9960 C   0  0  0  0  0  0  0  0  0  0  0  0
   -3.1730   12.5120   20.1930 N   0  0  0  0  0  0  0  0  0  0  0  0
   -1.8220   12.7390   20.3400 N   0  0  0  0  0  0  0  0  0  0  0  0
   -1.2220   12.3660   19.2220 C   0  0  0  0  0  0  0  0  0  0  0  0
   -2.1570   11.8840   18.3410 N   0  0  0  0  0  0  0  0  0  0  0  0
   -1.9330   11.3870   17.0880 N   0  0  0  0  0  0  0  0  0  0  0  0
   -5.2400   10.7190   16.5020 H   0  0  0  0  0  0  0  0  0  0  0  0
   -5.4830   11.6550   18.8030 H   0  0  0  0  0  0  0  0  0  0  0  0
   -2.8940   10.4230   15.1010 C   0  0  0  0  0  0  0  0  0  0  0  0
   -3.6980    9.7030   14.9320 H   0  0  0  0  0  0  0  0  0  0  0  0
   -2.9810   11.2320   14.3690 H   0  0  0  0  0  0  0  0  0  0  0  0
   -1.9350    9.9180   14.9590 H   0  0  0  0  0  0  0  0  0  0  0  0
  1  2  1  0  0  0  0
  1 26  1  0  0  0  0
  2  9  1  0  0  0  0
  3  2  2  0  0  0  0
  3  4  1  0  0  0  0
  4  8  1  0  0  0  0
  5  4  1  0  0  0  0
  5  6  2  0  0  0  0
  6 12  1  0  0  0  0
  6  7  1  0  0  0  0
  8  9  1  0  0  0  0
  8  7  2  0  0  0  0
 10  1  1  0  0  0  0
 11  5  1  0  0  0  0
 12 17  1  0  0  0  0
 12 16  1  0  0  0  0
 13 14  1  0  0  0  0
 13 12  1  0  0  0  0
 14 20  1  0  0  0  0
 14 15  1  0  0  0  0
 15 16  1  0  0  0  0
 15 23  1  0  0  0  0
 16 25  1  0  0  0  0
 16 24  1  0  0  0  0
 18 13  1  0  0  0  0
 19 13  1  0  0  0  0
 21 14  1  0  0  0  0
 22 15  1  0  0  0  0
 26 35  1  0  0  0  0
 26 27  1  0  0  0  0
 28 26  1  0  0  0  0
 29 30  1  0  0  0  0
 29 37  2  0  0  0  0
 30 31  2  0  0  0  0
 31 39  1  0  0  0  0
 31 32  1  0  0  0  0
 32 33  2  0  0  0  0
 33 34  1  0  0  0  0
 35 34  2  0  0  0  0
 36 32  1  0  0  0  0
 36 35  1  0  0  0  0
 37 36  1  0  0  0  0
 38 30  1  0  0  0  0
 40 29  1  0  0  0  0
 41 40  1  0  0  0  0
 42 40  1  0  0  0  0
 43 40  1  0  0  0  0
M  END
>  <MODEL>
1

>  <REMARK>
 VINA RESULT:    -7.773      0.000      0.000
 INTER + INTRA:          -9.945
 INTER:                  -9.334
 INTRA:                  -0.611
 UNBOUND:                -0.582
  Name = 
  4 active torsions:
  status: ('A' for Active; 'I' for Inactive)
    1  A    between atoms: C_1  and  C_2
    2  A    between atoms: C_8  and  C_9
    3  A    between atoms: C_9  and  N_10
    4  A    between atoms: C_15  and  C_16
                            x       y       z     vdW  Elec       q    Type
                         _______ _______ _______ _____ _____    ______ ____

>  <TORSDO>
F 4

$$$$
=
 OpenBabel07192307433D

 43 47  0  0  0  0  0  0  0  0999 V2000
    0.5840   10.5120   19.9460 N   0  0  0  0  0  0  0  0  0  0  0  0
    1.1940    9.3570   19.5780 C   0  0  0  0  0  0  0  0  0  0  0  0
    1.3290    8.3460   20.3930 N   0  0  0  0  0  0  0  0  0  0  0  0
    1.9890    7.3940   19.6980 N   0  0  0  0  0  0  0  0  0  0  0  0
    2.4050    6.1440   20.0330 C   0  0  0  0  0  0  0  0  0  0  0  0
    3.0360    5.6670   18.8900 C   0  0  0  0  0  0  0  0  0  0  0  0
    2.9880    6.6070   17.8660 N   0  0  0  0  0  0  0  0  0  0  0  0
    2.3600    7.6090   18.4160 C   0  0  0  0  0  0  0  0  0  0  0  0
    1.8640    9.1690   17.9280 S   0  0  0  0  0  0  0  0  0  0  0  0
    0.1460   10.4980   20.8640 H   0  0  0  0  0  0  0  0  0  0  0  0
    2.2270    5.7170   21.0080 H   0  0  0  0  0  0  0  0  0  0  0  0
    3.6950    4.3430   18.6860 C   0  0  0  0  0  0  0  0  0  0  0  0
    3.2080    3.6170   17.4240 C   0  0  0  0  0  0  0  0  0  0  0  0
    3.2320    2.1410   17.7990 C   0  0  0  0  0  0  0  0  0  0  0  0
    2.7540    2.1530   19.2410 C   0  0  0  0  0  0  0  0  0  0  0  0
    3.4580    3.3610   19.8500 C   0  0  0  0  0  0  0  0  0  0  0  0
    4.7790    4.5040   18.5960 H   0  0  0  0  0  0  0  0  0  0  0  0
    3.8460    3.8280   16.5590 H   0  0  0  0  0  0  0  0  0  0  0  0
    2.1850    3.9090   17.1550 H   0  0  0  0  0  0  0  0  0  0  0  0
    4.2540    1.7480   17.7360 H   0  0  0  0  0  0  0  0  0  0  0  0
    2.5900    1.5370   17.1530 H   0  0  0  0  0  0  0  0  0  0  0  0
    1.6680    2.2940   19.2790 H   0  0  0  0  0  0  0  0  0  0  0  0
    2.9960    1.2230   19.7670 H   0  0  0  0  0  0  0  0  0  0  0  0
    4.4290    3.0490   20.2580 H   0  0  0  0  0  0  0  0  0  0  0  0
    2.8800    3.7840   20.6800 H   0  0  0  0  0  0  0  0  0  0  0  0
    0.1030   11.5600   19.0680 C   0  0  0  0  0  0  0  0  0  0  0  0
    0.6550   12.4840   19.2790 H   0  0  0  0  0  0  0  0  0  0  0  0
    0.3050   11.2780   18.0260 H   0  0  0  0  0  0  0  0  0  0  0  0
   -3.0570   10.7900   16.2730 C   0  0  0  0  0  0  0  0  0  0  0  0
   -4.4450   11.1660   16.6850 C   0  0  0  0  0  0  0  0  0  0  0  0
   -4.6080   11.7180   17.8930 C   0  0  0  0  0  0  0  0  0  0  0  0
   -3.4800   11.9140   18.7140 C   0  0  0  0  0  0  0  0  0  0  0  0
   -3.3300   12.4080   19.9240 N   0  0  0  0  0  0  0  0  0  0  0  0
   -1.9890   12.3510   20.2360 N   0  0  0  0  0  0  0  0  0  0  0  0
   -1.3520   11.8290   19.2020 C   0  0  0  0  0  0  0  0  0  0  0  0
   -2.2540   11.5290   18.2130 N   0  0  0  0  0  0  0  0  0  0  0  0
   -1.9920   10.9600   16.9990 N   0  0  0  0  0  0  0  0  0  0  0  0
   -5.2710   10.9840   16.0100 H   0  0  0  0  0  0  0  0  0  0  0  0
   -5.5850   12.0150   18.2620 H   0  0  0  0  0  0  0  0  0  0  0  0
   -2.8900   10.1630   14.9100 C   0  0  0  0  0  0  0  0  0  0  0  0
   -3.8440    9.7380   14.5870 H   0  0  0  0  0  0  0  0  0  0  0  0
   -2.5810   10.9320   14.1960 H   0  0  0  0  0  0  0  0  0  0  0  0
   -2.1390    9.3690   14.9220 H   0  0  0  0  0  0  0  0  0  0  0  0
  1 10  1  0  0  0  0
  2  1  1  0  0  0  0
  2  3  2  0  0  0  0
  4  5  1  0  0  0  0
  4  3  1  0  0  0  0
  5 11  1  0  0  0  0
  6  5  2  0  0  0  0
  7  8  2  0  0  0  0
  7  6  1  0  0  0  0
  8  4  1  0  0  0  0
  9  8  1  0  0  0  0
  9  2  1  0  0  0  0
 12  6  1  0  0  0  0
 12 16  1  0  0  0  0
 13 14  1  0  0  0  0
 13 12  1  0  0  0  0
 14 15  1  0  0  0  0
 15 22  1  0  0  0  0
 15 23  1  0  0  0  0
 15 16  1  0  0  0  0
 16 24  1  0  0  0  0
 16 25  1  0  0  0  0
 17 12  1  0  0  0  0
 18 13  1  0  0  0  0
 19 13  1  0  0  0  0
 20 14  1  0  0  0  0
 21 14  1  0  0  0  0
 26 35  1  0  0  0  0
 26 27  1  0  0  0  0
 26  1  1  0  0  0  0
 28 26  1  0  0  0  0
 29 30  1  0  0  0  0
 29 37  2  0  0  0  0
 30 31  2  0  0  0  0
 31 39  1  0  0  0  0
 31 32  1  0  0  0  0
 32 33  2  0  0  0  0
 33 34  1  0  0  0  0
 35 34  2  0  0  0  0
 36 32  1  0  0  0  0
 36 35  1  0  0  0  0
 37 36  1  0  0  0  0
 38 30  1  0  0  0  0
 40 43  1  0  0  0  0
 40 29  1  0  0  0  0
 41 40  1  0  0  0  0
 42 40  1  0  0  0  0
M  END
>  <MODEL>
2

>  <REMARK>
 VINA RESULT:    -7.678      1.222      1.507
 INTER + INTRA:          -9.831
 INTER:                  -9.343
 INTRA:                  -0.488
 UNBOUND:                -0.582
  Name = 
  4 active torsions:
  status: ('A' for Active; 'I' for Inactive)
    1  A    between atoms: C_1  and  C_2
    2  A    between atoms: C_8  and  C_9
    3  A    between atoms: C_9  and  N_10
    4  A    between atoms: C_15  and  C_16
                            x       y       z     vdW  Elec       q    Type
                         _______ _______ _______ _____ _____    ______ ____

>  <TORSDO>
F 4

$$$$
=
 OpenBabel07192307433D

 43 47  0  0  0  0  0  0  0  0999 V2000
    2.6650    6.9650   19.0050 N   0  0  0  0  0  0  0  0  0  0  0  0
    1.9650    8.0430   19.4410 C   0  0  0  0  0  0  0  0  0  0  0  0
    1.5670    8.1660   20.6790 N   0  0  0  0  0  0  0  0  0  0  0  0
    0.8970    9.3370   20.7390 N   0  0  0  0  0  0  0  0  0  0  0  0
    0.2660    9.9740   21.7600 C   0  0  0  0  0  0  0  0  0  0  0  0
   -0.2420   11.1350   21.1870 C   0  0  0  0  0  0  0  0  0  0  0  0
    0.0930   11.2120   19.8390 N   0  0  0  0  0  0  0  0  0  0  0  0
    0.7620   10.1110   19.6390 C   0  0  0  0  0  0  0  0  0  0  0  0
    1.5380    9.3660   18.3120 S   0  0  0  0  0  0  0  0  0  0  0  0
    2.9500    6.3110   19.7300 H   0  0  0  0  0  0  0  0  0  0  0  0
    0.2310    9.5710   22.7600 H   0  0  0  0  0  0  0  0  0  0  0  0
   -1.0380   12.2140   21.8440 C   0  0  0  0  0  0  0  0  0  0  0  0
   -1.7710   11.7360   23.1060 C   0  0  0  0  0  0  0  0  0  0  0  0
   -3.0720   12.5270   23.1140 C   0  0  0  0  0  0  0  0  0  0  0  0
   -3.4510   12.5650   21.6440 C   0  0  0  0  0  0  0  0  0  0  0  0
   -2.1260   12.8090   20.9300 C   0  0  0  0  0  0  0  0  0  0  0  0
   -0.3540   13.0270   22.1280 H   0  0  0  0  0  0  0  0  0  0  0  0
   -1.1810   11.9120   24.0120 H   0  0  0  0  0  0  0  0  0  0  0  0
   -1.9950   10.6620   23.0650 H   0  0  0  0  0  0  0  0  0  0  0  0
   -2.8990   13.5410   23.4940 H   0  0  0  0  0  0  0  0  0  0  0  0
   -3.8420   12.0550   23.7300 H   0  0  0  0  0  0  0  0  0  0  0  0
   -3.8700   11.6000   21.3350 H   0  0  0  0  0  0  0  0  0  0  0  0
   -4.1910   13.3430   21.4250 H   0  0  0  0  0  0  0  0  0  0  0  0
   -1.9590   13.8910   20.8340 H   0  0  0  0  0  0  0  0  0  0  0  0
   -2.1350   12.3920   19.9160 H   0  0  0  0  0  0  0  0  0  0  0  0
    3.4160    6.8570   17.7700 C   0  0  0  0  0  0  0  0  0  0  0  0
    2.8040    7.2410   16.9450 H   0  0  0  0  0  0  0  0  0  0  0  0
    4.3170    7.4800   17.8400 H   0  0  0  0  0  0  0  0  0  0  0  0
    1.9700    3.1510   19.3740 C   0  0  0  0  0  0  0  0  0  0  0  0
    2.5840    1.8910   18.8520 C   0  0  0  0  0  0  0  0  0  0  0  0
    3.5420    2.0030   17.9250 C   0  0  0  0  0  0  0  0  0  0  0  0
    3.9210    3.2850   17.4840 C   0  0  0  0  0  0  0  0  0  0  0  0
    4.8000    3.7030   16.5980 N   0  0  0  0  0  0  0  0  0  0  0  0
    4.7440    5.0790   16.5700 N   0  0  0  0  0  0  0  0  0  0  0  0
    3.8370    5.4690   17.4480 C   0  0  0  0  0  0  0  0  0  0  0  0
    3.2810    4.3680   18.0490 N   0  0  0  0  0  0  0  0  0  0  0  0
    2.2960    4.3510   18.9970 N   0  0  0  0  0  0  0  0  0  0  0  0
    2.2430    0.9350   19.2280 H   0  0  0  0  0  0  0  0  0  0  0  0
    4.0320    1.1340   17.4980 H   0  0  0  0  0  0  0  0  0  0  0  0
    0.8860    3.0090   20.4150 C   0  0  0  0  0  0  0  0  0  0  0  0
    1.3410    2.7950   21.3850 H   0  0  0  0  0  0  0  0  0  0  0  0
    0.3280    3.9480   20.4820 H   0  0  0  0  0  0  0  0  0  0  0  0
    0.1930    2.2020   20.1670 H   0  0  0  0  0  0  0  0  0  0  0  0
  1  2  1  0  0  0  0
  1 10  1  0  0  0  0
  2  3  2  0  0  0  0
  3  4  1  0  0  0  0
  4  5  1  0  0  0  0
  5 11  1  0  0  0  0
  6  5  2  0  0  0  0
  6 12  1  0  0  0  0
  7  6  1  0  0  0  0
  8  7  2  0  0  0  0
  8  4  1  0  0  0  0
  9  2  1  0  0  0  0
  9  8  1  0  0  0  0
 12 17  1  0  0  0  0
 12 13  1  0  0  0  0
 13 14  1  0  0  0  0
 13 18  1  0  0  0  0
 14 20  1  0  0  0  0
 14 21  1  0  0  0  0
 15 14  1  0  0  0  0
 16 15  1  0  0  0  0
 16 12  1  0  0  0  0
 19 13  1  0  0  0  0
 22 15  1  0  0  0  0
 23 15  1  0  0  0  0
 24 16  1  0  0  0  0
 25 16  1  0  0  0  0
 26 28  1  0  0  0  0
 26  1  1  0  0  0  0
 27 26  1  0  0  0  0
 29 40  1  0  0  0  0
 30 38  1  0  0  0  0
 30 29  1  0  0  0  0
 31 30  2  0  0  0  0
 32 31  1  0  0  0  0
 32 36  1  0  0  0  0
 33 32  2  0  0  0  0
 34 33  1  0  0  0  0
 34 35  2  0  0  0  0
 35 26  1  0  0  0  0
 35 36  1  0  0  0  0
 36 37  1  0  0  0  0
 37 29  2  0  0  0  0
 39 31  1  0  0  0  0
 40 42  1  0  0  0  0
 40 41  1  0  0  0  0
 43 40  1  0  0  0  0
M  END
>  <MODEL>
3

>  <REMARK>
 VINA RESULT:    -7.501      2.715      8.543
 INTER + INTRA:          -9.618
 INTER:                  -9.321
 INTRA:                  -0.297
 UNBOUND:                -0.582
  Name = 
  4 active torsions:
  status: ('A' for Active; 'I' for Inactive)
    1  A    between atoms: C_1  and  C_2
    2  A    between atoms: C_8  and  C_9
    3  A    between atoms: C_9  and  N_10
    4  A    between atoms: C_15  and  C_16
                            x       y       z     vdW  Elec       q    Type
                         _______ _______ _______ _____ _____    ______ ____

>  <TORSDO>
F 4

$$$$
=
 OpenBabel07192307433D

 43 47  0  0  0  0  0  0  0  0999 V2000
    1.6000    7.6090   20.9790 N   0  0  0  0  0  0  0  0  0  0  0  0
    0.8300    8.7100   21.1680 C   0  0  0  0  0  0  0  0  0  0  0  0
    0.4260    9.0880   22.3510 N   0  0  0  0  0  0  0  0  0  0  0  0
   -0.3200   10.1950   22.1540 N   0  0  0  0  0  0  0  0  0  0  0  0
   -0.9910   11.0070   23.0120 C   0  0  0  0  0  0  0  0  0  0  0  0
   -1.5750   11.9710   22.1970 C   0  0  0  0  0  0  0  0  0  0  0  0
   -1.2470   11.7600   20.8630 N   0  0  0  0  0  0  0  0  0  0  0  0
   -0.5070   10.6870   20.9080 C   0  0  0  0  0  0  0  0  0  0  0  0
    0.3160    9.7100   19.7740 S   0  0  0  0  0  0  0  0  0  0  0  0
    1.9280    7.1580   21.8290 H   0  0  0  0  0  0  0  0  0  0  0  0
   -0.9990   10.8420   24.0780 H   0  0  0  0  0  0  0  0  0  0  0  0
   -2.4410   13.1180   22.6040 C   0  0  0  0  0  0  0  0  0  0  0  0
   -1.8470   13.9400   23.7570 C   0  0  0  0  0  0  0  0  0  0  0  0
   -3.0560   14.3930   24.5640 C   0  0  0  0  0  0  0  0  0  0  0  0
   -3.9680   13.1790   24.5150 C   0  0  0  0  0  0  0  0  0  0  0  0
   -3.8410   12.6850   23.0780 C   0  0  0  0  0  0  0  0  0  0  0  0
   -2.5690   13.7820   21.7360 H   0  0  0  0  0  0  0  0  0  0  0  0
   -1.2580   14.7890   23.3930 H   0  0  0  0  0  0  0  0  0  0  0  0
   -1.1890   13.3340   24.3920 H   0  0  0  0  0  0  0  0  0  0  0  0
   -3.5350   15.2540   24.0830 H   0  0  0  0  0  0  0  0  0  0  0  0
   -2.7920   14.6740   25.5870 H   0  0  0  0  0  0  0  0  0  0  0  0
   -3.6110   12.4090   25.2080 H   0  0  0  0  0  0  0  0  0  0  0  0
   -5.0020   13.4240   24.7800 H   0  0  0  0  0  0  0  0  0  0  0  0
   -4.5990   13.1800   22.4540 H   0  0  0  0  0  0  0  0  0  0  0  0
   -4.0220   11.6050   23.0090 H   0  0  0  0  0  0  0  0  0  0  0  0
    2.3550    7.2690   19.7890 C   0  0  0  0  0  0  0  0  0  0  0  0
    1.8300    7.6580   18.9090 H   0  0  0  0  0  0  0  0  0  0  0  0
    3.3390    7.7560   19.8360 H   0  0  0  0  0  0  0  0  0  0  0  0
    4.6110    5.2070   16.7810 C   0  0  0  0  0  0  0  0  0  0  0  0
    4.6550    3.7140   16.8580 C   0  0  0  0  0  0  0  0  0  0  0  0
    3.9870    3.1220   17.8560 C   0  0  0  0  0  0  0  0  0  0  0  0
    3.2860    3.9220   18.7790 C   0  0  0  0  0  0  0  0  0  0  0  0
    2.5670    3.6380   19.8430 N   0  0  0  0  0  0  0  0  0  0  0  0
    2.1180    4.8270   20.3750 N   0  0  0  0  0  0  0  0  0  0  0  0
    2.5680    5.8090   19.6140 C   0  0  0  0  0  0  0  0  0  0  0  0
    3.3210    5.2880   18.5920 N   0  0  0  0  0  0  0  0  0  0  0  0
    3.9720    5.9780   17.6090 N   0  0  0  0  0  0  0  0  0  0  0  0
    5.2170    3.1560   16.1210 H   0  0  0  0  0  0  0  0  0  0  0  0
    3.9740    2.0440   17.9770 H   0  0  0  0  0  0  0  0  0  0  0  0
    5.3750    5.8610   15.6540 C   0  0  0  0  0  0  0  0  0  0  0  0
    5.6030    5.1140   14.8900 H   0  0  0  0  0  0  0  0  0  0  0  0
    4.7570    6.6470   15.2110 H   0  0  0  0  0  0  0  0  0  0  0  0
    6.3110    6.3010   16.0050 H   0  0  0  0  0  0  0  0  0  0  0  0
  1  2  1  0  0  0  0
  1 10  1  0  0  0  0
  2  3  2  0  0  0  0
  4  3  1  0  0  0  0
  4  5  1  0  0  0  0
  5 11  1  0  0  0  0
  6 12  1  0  0  0  0
  6  5  2  0  0  0  0
  7  8  2  0  0  0  0
  7  6  1  0  0  0  0
  8  4  1  0  0  0  0
  9  8  1  0  0  0  0
  9  2  1  0  0  0  0
 12 16  1  0  0  0  0
 12 13  1  0  0  0  0
 13 19  1  0  0  0  0
 13 14  1  0  0  0  0
 14 21  1  0  0  0  0
 15 14  1  0  0  0  0
 15 23  1  0  0  0  0
 15 22  1  0  0  0  0
 16 15  1  0  0  0  0
 17 12  1  0  0  0  0
 18 13  1  0  0  0  0
 20 14  1  0  0  0  0
 24 16  1  0  0  0  0
 25 16  1  0  0  0  0
 26 28  1  0  0  0  0
 26  1  1  0  0  0  0
 27 26  1  0  0  0  0
 29 30  1  0  0  0  0
 29 37  2  0  0  0  0
 30 31  2  0  0  0  0
 31 39  1  0  0  0  0
 31 32  1  0  0  0  0
 32 33  2  0  0  0  0
 33 34  1  0  0  0  0
 35 26  1  0  0  0  0
 35 34  2  0  0  0  0
 36 32  1  0  0  0  0
 36 35  1  0  0  0  0
 37 36  1  0  0  0  0
 38 30  1  0  0  0  0
 40 43  1  0  0  0  0
 40 29  1  0  0  0  0
 41 40  1  0  0  0  0
 42 40  1  0  0  0  0
M  END
>  <MODEL>
4

>  <REMARK>
 VINA RESULT:    -7.496      3.188      8.765
 INTER + INTRA:          -9.612
 INTER:                  -9.225
 INTRA:                  -0.387
 UNBOUND:                -0.582
  Name = 
  4 active torsions:
  status: ('A' for Active; 'I' for Inactive)
    1  A    between atoms: C_1  and  C_2
    2  A    between atoms: C_8  and  C_9
    3  A    between atoms: C_9  and  N_10
    4  A    between atoms: C_15  and  C_16
                            x       y       z     vdW  Elec       q    Type
                         _______ _______ _______ _____ _____    ______ ____

>  <TORSDO>
F 4

$$$$
=
 OpenBabel07192307433D

 43 47  0  0  0  0  0  0  0  0999 V2000
    1.9830    7.7290   19.4790 N   0  0  0  0  0  0  0  0  0  0  0  0
    1.2420    8.6660   20.1230 C   0  0  0  0  0  0  0  0  0  0  0  0
    1.0330    8.6300   21.4110 N   0  0  0  0  0  0  0  0  0  0  0  0
    0.2510    9.6950   21.6910 N   0  0  0  0  0  0  0  0  0  0  0  0
   -0.2800   10.1560   22.8540 C   0  0  0  0  0  0  0  0  0  0  0  0
   -1.0010   11.2860   22.4850 C   0  0  0  0  0  0  0  0  0  0  0  0
   -0.8950   11.5210   21.1190 N   0  0  0  0  0  0  0  0  0  0  0  0
   -0.1440   10.5370   20.7090 C   0  0  0  0  0  0  0  0  0  0  0  0
    0.4930   10.0140   19.2130 S   0  0  0  0  0  0  0  0  0  0  0  0
    2.4520    7.0580   20.0830 H   0  0  0  0  0  0  0  0  0  0  0  0
   -0.1100    9.6680   23.8010 H   0  0  0  0  0  0  0  0  0  0  0  0
   -1.8020   12.1930   23.3610 C   0  0  0  0  0  0  0  0  0  0  0  0
   -3.2760   12.2870   22.9400 C   0  0  0  0  0  0  0  0  0  0  0  0
   -3.6710   13.7240   23.2560 C   0  0  0  0  0  0  0  0  0  0  0  0
   -2.4280   14.5070   22.8700 C   0  0  0  0  0  0  0  0  0  0  0  0
   -1.2790   13.6410   23.3770 C   0  0  0  0  0  0  0  0  0  0  0  0
   -1.7610   11.8080   24.3910 H   0  0  0  0  0  0  0  0  0  0  0  0
   -3.9010   11.5650   23.4760 H   0  0  0  0  0  0  0  0  0  0  0  0
   -3.4060   12.0990   21.8670 H   0  0  0  0  0  0  0  0  0  0  0  0
   -3.8800   13.8350   24.3260 H   0  0  0  0  0  0  0  0  0  0  0  0
   -4.5550   14.0440   22.6970 H   0  0  0  0  0  0  0  0  0  0  0  0
   -2.3670   14.6090   21.7810 H   0  0  0  0  0  0  0  0  0  0  0  0
   -2.4160   15.5110   23.3080 H   0  0  0  0  0  0  0  0  0  0  0  0
   -1.0400   13.9240   24.4120 H   0  0  0  0  0  0  0  0  0  0  0  0
   -0.3710   13.7950   22.7820 H   0  0  0  0  0  0  0  0  0  0  0  0
    2.5370    7.8250   18.1430 C   0  0  0  0  0  0  0  0  0  0  0  0
    1.7170    7.8150   17.4150 H   0  0  0  0  0  0  0  0  0  0  0  0
    3.0670    8.7810   18.0410 H   0  0  0  0  0  0  0  0  0  0  0  0
    1.9750    3.5820   18.4210 C   0  0  0  0  0  0  0  0  0  0  0  0
    3.1180    2.7100   18.0070 C   0  0  0  0  0  0  0  0  0  0  0  0
    4.2370    3.3080   17.5820 C   0  0  0  0  0  0  0  0  0  0  0  0
    4.2860    4.7150   17.5400 C   0  0  0  0  0  0  0  0  0  0  0  0
    5.2170    5.5670   17.1670 N   0  0  0  0  0  0  0  0  0  0  0  0
    4.7130    6.8380   17.3320 N   0  0  0  0  0  0  0  0  0  0  0  0
    3.4860    6.7300   17.8110 C   0  0  0  0  0  0  0  0  0  0  0  0
    3.1650    5.4040   17.9540 N   0  0  0  0  0  0  0  0  0  0  0  0
    1.9840    4.8820   18.4010 N   0  0  0  0  0  0  0  0  0  0  0  0
    3.0150    1.6340   18.0570 H   0  0  0  0  0  0  0  0  0  0  0  0
    5.1060    2.7420   17.2640 H   0  0  0  0  0  0  0  0  0  0  0  0
    0.7180    2.8920   18.8910 C   0  0  0  0  0  0  0  0  0  0  0  0
    0.9830    2.0840   19.5770 H   0  0  0  0  0  0  0  0  0  0  0  0
    0.0880    3.6150   19.4180 H   0  0  0  0  0  0  0  0  0  0  0  0
    0.1520    2.4720   18.0560 H   0  0  0  0  0  0  0  0  0  0  0  0
  1 10  1  0  0  0  0
  1  2  1  0  0  0  0
  2  3  2  0  0  0  0
  3  4  1  0  0  0  0
  4  5  1  0  0  0  0
  5 11  1  0  0  0  0
  6  5  2  0  0  0  0
  6 12  1  0  0  0  0
  7  6  1  0  0  0  0
  8  7  2  0  0  0  0
  8  4  1  0  0  0  0
  9  2  1  0  0  0  0
  9  8  1  0  0  0  0
 12 16  1  0  0  0  0
 12 17  1  0  0  0  0
 13 14  1  0  0  0  0
 13 12  1  0  0  0  0
 13 18  1  0  0  0  0
 14 20  1  0  0  0  0
 15 14  1  0  0  0  0
 15 23  1  0  0  0  0
 15 16  1  0  0  0  0
 16 24  1  0  0  0  0
 19 13  1  0  0  0  0
 21 14  1  0  0  0  0
 22 15  1  0  0  0  0
 25 16  1  0  0  0  0
 26  1  1  0  0  0  0
 27 26  1  0  0  0  0
 28 26  1  0  0  0  0
 29 40  1  0  0  0  0
 30 38  1  0  0  0  0
 30 29  1  0  0  0  0
 31 30  2  0  0  0  0
 32 31  1  0  0  0  0
 32 36  1  0  0  0  0
 33 34  1  0  0  0  0
 33 32  2  0  0  0  0
 34 35  2  0  0  0  0
 35 36  1  0  0  0  0
 35 26  1  0  0  0  0
 36 37  1  0  0  0  0
 37 29  2  0  0  0  0
 39 31  1  0  0  0  0
 40 42  1  0  0  0  0
 40 41  1  0  0  0  0
 43 40  1  0  0  0  0
M  END
>  <MODEL>
5

>  <REMARK>
 VINA RESULT:    -7.493      3.082      8.484
 INTER + INTRA:          -9.608
 INTER:                  -8.950
 INTRA:                  -0.658
 UNBOUND:                -0.582
  Name = 
  4 active torsions:
  status: ('A' for Active; 'I' for Inactive)
    1  A    between atoms: C_1  and  C_2
    2  A    between atoms: C_8  and  C_9
    3  A    between atoms: C_9  and  N_10
    4  A    between atoms: C_15  and  C_16
                            x       y       z     vdW  Elec       q    Type
                         _______ _______ _______ _____ _____    ______ ____

>  <TORSDO>
F 4

$$$$
=
 OpenBabel07192307433D

 43 47  0  0  0  0  0  0  0  0999 V2000
    2.5970    7.2520   17.9460 N   0  0  0  0  0  0  0  0  0  0  0  0
    1.9520    8.0680   18.8180 C   0  0  0  0  0  0  0  0  0  0  0  0
    1.4960    9.2410   18.4730 N   0  0  0  0  0  0  0  0  0  0  0  0
    0.9370    9.7650   19.5850 N   0  0  0  0  0  0  0  0  0  0  0  0
    0.3160   10.9500   19.8230 C   0  0  0  0  0  0  0  0  0  0  0  0
   -0.0280   10.9020   21.1690 C   0  0  0  0  0  0  0  0  0  0  0  0
    0.3620    9.6950   21.7390 N   0  0  0  0  0  0  0  0  0  0  0  0
    0.9330    9.0720   20.7470 C   0  0  0  0  0  0  0  0  0  0  0  0
    1.7010    7.5630   20.5180 S   0  0  0  0  0  0  0  0  0  0  0  0
    2.6090    7.5720   16.9800 H   0  0  0  0  0  0  0  0  0  0  0  0
    0.1760   11.6940   19.0540 H   0  0  0  0  0  0  0  0  0  0  0  0
   -0.7270   11.9440   21.9790 C   0  0  0  0  0  0  0  0  0  0  0  0
   -1.5190   11.3590   23.1570 C   0  0  0  0  0  0  0  0  0  0  0  0
   -2.7390   12.2610   23.2820 C   0  0  0  0  0  0  0  0  0  0  0  0
   -3.0930   12.5500   21.8330 C   0  0  0  0  0  0  0  0  0  0  0  0
   -1.7410   12.7680   21.1630 C   0  0  0  0  0  0  0  0  0  0  0  0
    0.0270   12.6370   22.3790 H   0  0  0  0  0  0  0  0  0  0  0  0
   -0.9280   11.3430   24.0790 H   0  0  0  0  0  0  0  0  0  0  0  0
   -1.8440   10.3290   22.9580 H   0  0  0  0  0  0  0  0  0  0  0  0
   -2.4770   13.1880   23.8060 H   0  0  0  0  0  0  0  0  0  0  0  0
   -3.5590   11.7800   23.8220 H   0  0  0  0  0  0  0  0  0  0  0  0
   -3.5970   11.6860   21.3860 H   0  0  0  0  0  0  0  0  0  0  0  0
   -3.7520   13.4200   21.7310 H   0  0  0  0  0  0  0  0  0  0  0  0
   -1.4710   13.8320   21.2260 H   0  0  0  0  0  0  0  0  0  0  0  0
   -1.7760   12.5070   20.0980 H   0  0  0  0  0  0  0  0  0  0  0  0
    2.8660    5.8380   18.1130 C   0  0  0  0  0  0  0  0  0  0  0  0
    2.2560    5.4530   18.9390 H   0  0  0  0  0  0  0  0  0  0  0  0
    2.5690    5.3050   17.2000 H   0  0  0  0  0  0  0  0  0  0  0  0
    5.9130    4.5160   15.4000 C   0  0  0  0  0  0  0  0  0  0  0  0
    7.2810    4.2880   15.9630 C   0  0  0  0  0  0  0  0  0  0  0  0
    7.4610    4.5070   17.2710 C   0  0  0  0  0  0  0  0  0  0  0  0
    6.3710    4.9420   18.0480 C   0  0  0  0  0  0  0  0  0  0  0  0
    6.2450    5.2450   19.3220 N   0  0  0  0  0  0  0  0  0  0  0  0
    4.9370    5.6210   19.5360 N   0  0  0  0  0  0  0  0  0  0  0  0
    4.2930    5.5300   18.3860 C   0  0  0  0  0  0  0  0  0  0  0  0
    5.1600    5.1100   17.4090 N   0  0  0  0  0  0  0  0  0  0  0  0
    4.8820    4.9120   16.0860 N   0  0  0  0  0  0  0  0  0  0  0  0
    8.0790    3.9590   15.3100 H   0  0  0  0  0  0  0  0  0  0  0  0
    8.4250    4.3650   17.7490 H   0  0  0  0  0  0  0  0  0  0  0  0
    5.7270    4.2710   13.9230 C   0  0  0  0  0  0  0  0  0  0  0  0
    6.5590    4.7190   13.3730 H   0  0  0  0  0  0  0  0  0  0  0  0
    5.7150    3.1930   13.7360 H   0  0  0  0  0  0  0  0  0  0  0  0
    4.7920    4.7050   13.5580 H   0  0  0  0  0  0  0  0  0  0  0  0
  1 26  1  0  0  0  0
  1  2  1  0  0  0  0
  2  9  1  0  0  0  0
  3  2  2  0  0  0  0
  3  4  1  0  0  0  0
  4  5  1  0  0  0  0
  4  8  1  0  0  0  0
  5  6  2  0  0  0  0
  6  7  1  0  0  0  0
  6 12  1  0  0  0  0
  8  7  2  0  0  0  0
  9  8  1  0  0  0  0
 10  1  1  0  0  0  0
 11  5  1  0  0  0  0
 12 17  1  0  0  0  0
 12 13  1  0  0  0  0
 13 14  1  0  0  0  0
 13 18  1  0  0  0  0
 14 20  1  0  0  0  0
 14 21  1  0  0  0  0
 15 14  1  0  0  0  0
 16 24  1  0  0  0  0
 16 15  1  0  0  0  0
 16 12  1  0  0  0  0
 19 13  1  0  0  0  0
 22 15  1  0  0  0  0
 23 15  1  0  0  0  0
 25 16  1  0  0  0  0
 26 35  1  0  0  0  0
 26 27  1  0  0  0  0
 28 26  1  0  0  0  0
 29 30  1  0  0  0  0
 29 37  2  0  0  0  0
 30 31  2  0  0  0  0
 31 39  1  0  0  0  0
 31 32  1  0  0  0  0
 32 33  2  0  0  0  0
 33 34  1  0  0  0  0
 35 34  2  0  0  0  0
 36 32  1  0  0  0  0
 36 35  1  0  0  0  0
 37 36  1  0  0  0  0
 38 30  1  0  0  0  0
 40 29  1  0  0  0  0
 41 40  1  0  0  0  0
 42 40  1  0  0  0  0
 43 40  1  0  0  0  0
M  END
>  <MODEL>
6

>  <REMARK>
 VINA RESULT:    -7.444      3.468      8.759
 INTER + INTRA:          -9.549
 INTER:                  -9.050
 INTRA:                  -0.499
 UNBOUND:                -0.582
  Name = 
  4 active torsions:
  status: ('A' for Active; 'I' for Inactive)
    1  A    between atoms: C_1  and  C_2
    2  A    between atoms: C_8  and  C_9
    3  A    between atoms: C_9  and  N_10
    4  A    between atoms: C_15  and  C_16
                            x       y       z     vdW  Elec       q    Type
                         _______ _______ _______ _____ _____    ______ ____

>  <TORSDO>
F 4

$$$$
=
 OpenBabel07192307433D

 43 47  0  0  0  0  0  0  0  0999 V2000
    2.4190    7.4920   18.8000 N   0  0  0  0  0  0  0  0  0  0  0  0
    1.6110    8.3980   19.4080 C   0  0  0  0  0  0  0  0  0  0  0  0
    1.1050    9.4220   18.7760 N   0  0  0  0  0  0  0  0  0  0  0  0
    0.3780   10.1010   19.6890 N   0  0  0  0  0  0  0  0  0  0  0  0
   -0.3600   11.2380   19.6040 C   0  0  0  0  0  0  0  0  0  0  0  0
   -0.8550   11.4320   20.8890 C   0  0  0  0  0  0  0  0  0  0  0  0
   -0.4390   10.4150   21.7400 N   0  0  0  0  0  0  0  0  0  0  0  0
    0.2940    9.6640   20.9660 C   0  0  0  0  0  0  0  0  0  0  0  0
    1.2040    8.2290   21.1440 S   0  0  0  0  0  0  0  0  0  0  0  0
    2.5180    7.6070   17.7940 H   0  0  0  0  0  0  0  0  0  0  0  0
   -0.4680   11.7900   18.6830 H   0  0  0  0  0  0  0  0  0  0  0  0
   -1.7270   12.5390   21.3820 C   0  0  0  0  0  0  0  0  0  0  0  0
   -2.3990   12.2220   22.7260 C   0  0  0  0  0  0  0  0  0  0  0  0
   -3.7600   12.8990   22.6410 C   0  0  0  0  0  0  0  0  0  0  0  0
   -4.1630   12.6620   21.1960 C   0  0  0  0  0  0  0  0  0  0  0  0
   -2.8730   12.8870   20.4140 C   0  0  0  0  0  0  0  0  0  0  0  0
   -1.1080   13.4390   21.5100 H   0  0  0  0  0  0  0  0  0  0  0  0
   -1.8120   12.5910   23.5740 H   0  0  0  0  0  0  0  0  0  0  0  0
   -2.5350   11.1420   22.8680 H   0  0  0  0  0  0  0  0  0  0  0  0
   -3.6660   13.9720   22.8430 H   0  0  0  0  0  0  0  0  0  0  0  0
   -4.4790   12.4770   23.3480 H   0  0  0  0  0  0  0  0  0  0  0  0
   -4.5060   11.6300   21.0620 H   0  0  0  0  0  0  0  0  0  0  0  0
   -4.9670   13.3330   20.8730 H   0  0  0  0  0  0  0  0  0  0  0  0
   -2.7970   13.9480   20.1360 H   0  0  0  0  0  0  0  0  0  0  0  0
   -2.8640   12.3080   19.4830 H   0  0  0  0  0  0  0  0  0  0  0  0
    2.7790    6.1780   19.2930 C   0  0  0  0  0  0  0  0  0  0  0  0
    3.5340    6.2860   20.0810 H   0  0  0  0  0  0  0  0  0  0  0  0
    1.8940    5.7050   19.7370 H   0  0  0  0  0  0  0  0  0  0  0  0
    6.5310    6.3490   17.2220 C   0  0  0  0  0  0  0  0  0  0  0  0
    6.8030    5.2870   16.2050 C   0  0  0  0  0  0  0  0  0  0  0  0
    5.8600    4.3580   16.0070 C   0  0  0  0  0  0  0  0  0  0  0  0
    4.6710    4.4190   16.7590 C   0  0  0  0  0  0  0  0  0  0  0  0
    3.5960    3.6620   16.7950 N   0  0  0  0  0  0  0  0  0  0  0  0
    2.7390    4.1950   17.7340 N   0  0  0  0  0  0  0  0  0  0  0  0
    3.3110    5.2720   18.2420 C   0  0  0  0  0  0  0  0  0  0  0  0
    4.5410    5.4540   17.6610 N   0  0  0  0  0  0  0  0  0  0  0  0
    5.4460    6.4420   17.9310 N   0  0  0  0  0  0  0  0  0  0  0  0
    7.7400    5.2910   15.6640 H   0  0  0  0  0  0  0  0  0  0  0  0
    5.9870    3.5550   15.2880 H   0  0  0  0  0  0  0  0  0  0  0  0
    7.6070    7.3860   17.4390 C   0  0  0  0  0  0  0  0  0  0  0  0
    8.5620    6.8850   17.6170 H   0  0  0  0  0  0  0  0  0  0  0  0
    7.6920    8.0080   16.5430 H   0  0  0  0  0  0  0  0  0  0  0  0
    7.3810    8.0270   18.2950 H   0  0  0  0  0  0  0  0  0  0  0  0
  1 26  1  0  0  0  0
  1  2  1  0  0  0  0
  2  9  1  0  0  0  0
  3  2  2  0  0  0  0
  3  4  1  0  0  0  0
  4  8  1  0  0  0  0
  5  4  1  0  0  0  0
  5  6  2  0  0  0  0
  6 12  1  0  0  0  0
  6  7  1  0  0  0  0
  8  9  1  0  0  0  0
  8  7  2  0  0  0  0
 10  1  1  0  0  0  0
 11  5  1  0  0  0  0
 12 17  1  0  0  0  0
 12 13  1  0  0  0  0
 13 19  1  0  0  0  0
 13 18  1  0  0  0  0
 14 13  1  0  0  0  0
 14 20  1  0  0  0  0
 14 21  1  0  0  0  0
 15 14  1  0  0  0  0
 16 15  1  0  0  0  0
 16 12  1  0  0  0  0
 22 15  1  0  0  0  0
 23 15  1  0  0  0  0
 24 16  1  0  0  0  0
 25 16  1  0  0  0  0
 26 28  1  0  0  0  0
 26 27  1  0  0  0  0
 29 40  1  0  0  0  0
 29 37  2  0  0  0  0
 30 29  1  0  0  0  0
 31 30  2  0  0  0  0
 31 32  1  0  0  0  0
 32 33  2  0  0  0  0
 32 36  1  0  0  0  0
 33 34  1  0  0  0  0
 34 35  2  0  0  0  0
 35 26  1  0  0  0  0
 36 37  1  0  0  0  0
 36 35  1  0  0  0  0
 38 30  1  0  0  0  0
 39 31  1  0  0  0  0
 40 41  1  0  0  0  0
 40 43  1  0  0  0  0
 42 40  1  0  0  0  0
M  END
>  <MODEL>
7

>  <REMARK>
 VINA RESULT:    -7.320      3.097      8.747
 INTER + INTRA:          -9.399
 INTER:                  -8.827
 INTRA:                  -0.573
 UNBOUND:                -0.582
  Name = 
  4 active torsions:
  status: ('A' for Active; 'I' for Inactive)
    1  A    between atoms: C_1  and  C_2
    2  A    between atoms: C_8  and  C_9
    3  A    between atoms: C_9  and  N_10
    4  A    between atoms: C_15  and  C_16
                            x       y       z     vdW  Elec       q    Type
                         _______ _______ _______ _____ _____    ______ ____

>  <TORSDO>
F 4

$$$$
=
 OpenBabel07192307433D

 43 47  0  0  0  0  0  0  0  0999 V2000
    5.8040    4.2020   18.1580 N   0  0  0  0  0  0  0  0  0  0  0  0
    6.3980    5.4200   18.0800 C   0  0  0  0  0  0  0  0  0  0  0  0
    7.4630    5.7260   18.7710 N   0  0  0  0  0  0  0  0  0  0  0  0
    7.7570    7.0050   18.4550 N   0  0  0  0  0  0  0  0  0  0  0  0
    8.7450    7.8420   18.8660 C   0  0  0  0  0  0  0  0  0  0  0  0
    8.5020    9.0320   18.1870 C   0  0  0  0  0  0  0  0  0  0  0  0
    7.3910    8.9140   17.3590 N   0  0  0  0  0  0  0  0  0  0  0  0
    6.9950    7.6900   17.5720 C   0  0  0  0  0  0  0  0  0  0  0  0
    5.7270    6.6910   17.0110 S   0  0  0  0  0  0  0  0  0  0  0  0
    6.3060    3.5100   18.7100 H   0  0  0  0  0  0  0  0  0  0  0  0
    9.5030    7.5400   19.5720 H   0  0  0  0  0  0  0  0  0  0  0  0
    9.2730   10.3080   18.2620 C   0  0  0  0  0  0  0  0  0  0  0  0
    9.6620   10.6920   19.6970 C   0  0  0  0  0  0  0  0  0  0  0  0
    9.5980   12.2140   19.7150 C   0  0  0  0  0  0  0  0  0  0  0  0
    8.3840   12.5100   18.8530 C   0  0  0  0  0  0  0  0  0  0  0  0
    8.5020   11.5180   17.7010 C   0  0  0  0  0  0  0  0  0  0  0  0
   10.1950   10.1930   17.6740 H   0  0  0  0  0  0  0  0  0  0  0  0
   10.6580   10.3230   19.9640 H   0  0  0  0  0  0  0  0  0  0  0  0
    8.9550   10.2880   20.4330 H   0  0  0  0  0  0  0  0  0  0  0  0
   10.5040   12.6380   19.2640 H   0  0  0  0  0  0  0  0  0  0  0  0
    9.4980   12.6140   20.7280 H   0  0  0  0  0  0  0  0  0  0  0  0
    7.4630   12.3200   19.4170 H   0  0  0  0  0  0  0  0  0  0  0  0
    8.3630   13.5490   18.5060 H   0  0  0  0  0  0  0  0  0  0  0  0
    9.0900   11.9710   16.8900 H   0  0  0  0  0  0  0  0  0  0  0  0
    7.5190   11.2670   17.2860 H   0  0  0  0  0  0  0  0  0  0  0  0
    4.8340    3.6470   17.2360 C   0  0  0  0  0  0  0  0  0  0  0  0
    4.4880    4.4380   16.5610 H   0  0  0  0  0  0  0  0  0  0  0  0
    5.3190    2.8720   16.6270 H   0  0  0  0  0  0  0  0  0  0  0  0
    2.0240    5.4530   19.9250 C   0  0  0  0  0  0  0  0  0  0  0  0
    0.9190    4.5890   20.4460 C   0  0  0  0  0  0  0  0  0  0  0  0
    0.8830    3.3130   20.0430 C   0  0  0  0  0  0  0  0  0  0  0  0
    1.8710    2.8490   19.1530 C   0  0  0  0  0  0  0  0  0  0  0  0
    2.0850    1.6820   18.5850 N   0  0  0  0  0  0  0  0  0  0  0  0
    3.2070    1.8010   17.7930 N   0  0  0  0  0  0  0  0  0  0  0  0
    3.6550    3.0390   17.9060 C   0  0  0  0  0  0  0  0  0  0  0  0
    2.8380    3.7460   18.7520 N   0  0  0  0  0  0  0  0  0  0  0  0
    2.9550    5.0600   19.1090 N   0  0  0  0  0  0  0  0  0  0  0  0
    0.1860    5.0080   21.1230 H   0  0  0  0  0  0  0  0  0  0  0  0
    0.1110    2.6280   20.3760 H   0  0  0  0  0  0  0  0  0  0  0  0
    2.0480    6.8910   20.3840 C   0  0  0  0  0  0  0  0  0  0  0  0
    3.0790    7.2530   20.3850 H   0  0  0  0  0  0  0  0  0  0  0  0
    1.4570    7.4980   19.6930 H   0  0  0  0  0  0  0  0  0  0  0  0
    1.6370    6.9990   21.3910 H   0  0  0  0  0  0  0  0  0  0  0  0
  1 10  1  0  0  0  0
  2  1  1  0  0  0  0
  2  3  2  0  0  0  0
  4  3  1  0  0  0  0
  4  5  1  0  0  0  0
  5 11  1  0  0  0  0
  6 12  1  0  0  0  0
  6  5  2  0  0  0  0
  7  8  2  0  0  0  0
  7  6  1  0  0  0  0
  8  4  1  0  0  0  0
  9  8  1  0  0  0  0
  9  2  1  0  0  0  0
 12 13  1  0  0  0  0
 13 14  1  0  0  0  0
 13 18  1  0  0  0  0
 13 19  1  0  0  0  0
 14 21  1  0  0  0  0
 15 22  1  0  0  0  0
 15 14  1  0  0  0  0
 16 12  1  0  0  0  0
 16 15  1  0  0  0  0
 17 12  1  0  0  0  0
 20 14  1  0  0  0  0
 23 15  1  0  0  0  0
 24 16  1  0  0  0  0
 25 16  1  0  0  0  0
 26 35  1  0  0  0  0
 26  1  1  0  0  0  0
 27 26  1  0  0  0  0
 28 26  1  0  0  0  0
 29 40  1  0  0  0  0
 29 30  1  0  0  0  0
 30 38  1  0  0  0  0
 31 39  1  0  0  0  0
 31 30  2  0  0  0  0
 32 31  1  0  0  0  0
 33 32  2  0  0  0  0
 34 35  2  0  0  0  0
 34 33  1  0  0  0  0
 35 36  1  0  0  0  0
 36 37  1  0  0  0  0
 36 32  1  0  0  0  0
 37 29  2  0  0  0  0
 40 41  1  0  0  0  0
 40 43  1  0  0  0  0
 42 40  1  0  0  0  0
M  END
>  <MODEL>
8

>  <REMARK>
 VINA RESULT:    -7.280      5.906      9.087
 INTER + INTRA:          -9.352
 INTER:                  -8.577
 INTRA:                  -0.775
 UNBOUND:                -0.582
  Name = 
  4 active torsions:
  status: ('A' for Active; 'I' for Inactive)
    1  A    between atoms: C_1  and  C_2
    2  A    between atoms: C_8  and  C_9
    3  A    between atoms: C_9  and  N_10
    4  A    between atoms: C_15  and  C_16
                            x       y       z     vdW  Elec       q    Type
                         _______ _______ _______ _____ _____    ______ ____

>  <TORSDO>
F 4

$$$$
=
 OpenBabel07192307433D

 43 47  0  0  0  0  0  0  0  0999 V2000
    2.8780    6.8900   19.9820 N   0  0  0  0  0  0  0  0  0  0  0  0
    2.0390    7.9250   19.7230 C   0  0  0  0  0  0  0  0  0  0  0  0
    1.2260    8.4090   20.6230 N   0  0  0  0  0  0  0  0  0  0  0  0
    0.5460    9.4030   20.0120 N   0  0  0  0  0  0  0  0  0  0  0  0
   -0.4230   10.2480   20.4520 C   0  0  0  0  0  0  0  0  0  0  0  0
   -0.7270   11.0370   19.3470 C   0  0  0  0  0  0  0  0  0  0  0  0
    0.0610   10.6890   18.2560 N   0  0  0  0  0  0  0  0  0  0  0  0
    0.7880    9.7100   18.7170 C   0  0  0  0  0  0  0  0  0  0  0  0
    2.0040    8.6810   18.1000 S   0  0  0  0  0  0  0  0  0  0  0  0
    2.9050    6.5860   20.9530 H   0  0  0  0  0  0  0  0  0  0  0  0
   -0.7990   10.2220   21.4620 H   0  0  0  0  0  0  0  0  0  0  0  0
   -1.7340   12.1360   19.2500 C   0  0  0  0  0  0  0  0  0  0  0  0
   -2.4470   12.4170   20.5800 C   0  0  0  0  0  0  0  0  0  0  0  0
   -3.8630   12.8080   20.1790 C   0  0  0  0  0  0  0  0  0  0  0  0
   -4.1550   11.8700   19.0210 C   0  0  0  0  0  0  0  0  0  0  0  0
   -2.8520   11.8470   18.2300 C   0  0  0  0  0  0  0  0  0  0  0  0
   -1.2170   13.0540   18.9330 H   0  0  0  0  0  0  0  0  0  0  0  0
   -1.9510   13.2100   21.1500 H   0  0  0  0  0  0  0  0  0  0  0  0
   -2.4810   11.5260   21.2210 H   0  0  0  0  0  0  0  0  0  0  0  0
   -3.8890   13.8530   19.8440 H   0  0  0  0  0  0  0  0  0  0  0  0
   -4.5750   12.6920   21.0000 H   0  0  0  0  0  0  0  0  0  0  0  0
   -4.3830   10.8660   19.3950 H   0  0  0  0  0  0  0  0  0  0  0  0
   -5.0030   12.2080   18.4150 H   0  0  0  0  0  0  0  0  0  0  0  0
   -2.8670   12.6500   17.4800 H   0  0  0  0  0  0  0  0  0  0  0  0
   -2.7290   10.9010   17.6890 H   0  0  0  0  0  0  0  0  0  0  0  0
    4.0200    6.4760   19.1910 C   0  0  0  0  0  0  0  0  0  0  0  0
    4.3070    7.2960   18.5220 H   0  0  0  0  0  0  0  0  0  0  0  0
    4.8670    6.2750   19.8600 H   0  0  0  0  0  0  0  0  0  0  0  0
    1.9790    2.8650   20.2810 C   0  0  0  0  0  0  0  0  0  0  0  0
    1.8760    1.7950   19.2410 C   0  0  0  0  0  0  0  0  0  0  0  0
    2.4280    2.0320   18.0460 C   0  0  0  0  0  0  0  0  0  0  0  0
    3.0690    3.2660   17.8210 C   0  0  0  0  0  0  0  0  0  0  0  0
    3.6770    3.7800   16.7740 N   0  0  0  0  0  0  0  0  0  0  0  0
    4.1160    5.0390   17.1210 N   0  0  0  0  0  0  0  0  0  0  0  0
    3.7720    5.2580   18.3770 C   0  0  0  0  0  0  0  0  0  0  0  0
    3.1000    4.1660   18.8650 N   0  0  0  0  0  0  0  0  0  0  0  0
    2.5660    4.0130   20.1130 N   0  0  0  0  0  0  0  0  0  0  0  0
    1.3640    0.8700   19.4750 H   0  0  0  0  0  0  0  0  0  0  0  0
    2.3910    1.3040   17.2420 H   0  0  0  0  0  0  0  0  0  0  0  0
    1.3460    2.5860   21.6220 C   0  0  0  0  0  0  0  0  0  0  0  0
    1.1070    3.5320   22.1140 H   0  0  0  0  0  0  0  0  0  0  0  0
    0.4220    2.0190   21.4720 H   0  0  0  0  0  0  0  0  0  0  0  0
    2.0120    2.0120   22.2700 H   0  0  0  0  0  0  0  0  0  0  0  0
  1 10  1  0  0  0  0
  2  1  1  0  0  0  0
  2  3  2  0  0  0  0
  4  5  1  0  0  0  0
  4  3  1  0  0  0  0
  5 11  1  0  0  0  0
  6  5  2  0  0  0  0
  7  8  2  0  0  0  0
  7  6  1  0  0  0  0
  8  4  1  0  0  0  0
  9  8  1  0  0  0  0
  9  2  1  0  0  0  0
 12  6  1  0  0  0  0
 12 13  1  0  0  0  0
 13 18  1  0  0  0  0
 13 19  1  0  0  0  0
 14 13  1  0  0  0  0
 14 21  1  0  0  0  0
 15 22  1  0  0  0  0
 15 14  1  0  0  0  0
 16 15  1  0  0  0  0
 16 12  1  0  0  0  0
 17 12  1  0  0  0  0
 20 14  1  0  0  0  0
 23 15  1  0  0  0  0
 24 16  1  0  0  0  0
 25 16  1  0  0  0  0
 26 28  1  0  0  0  0
 26  1  1  0  0  0  0
 27 26  1  0  0  0  0
 29 40  1  0  0  0  0
 30 38  1  0  0  0  0
 30 29  1  0  0  0  0
 31 30  2  0  0  0  0
 32 31  1  0  0  0  0
 32 36  1  0  0  0  0
 33 34  1  0  0  0  0
 33 32  2  0  0  0  0
 34 35  2  0  0  0  0
 35 36  1  0  0  0  0
 35 26  1  0  0  0  0
 36 37  1  0  0  0  0
 37 29  2  0  0  0  0
 39 31  1  0  0  0  0
 40 41  1  0  0  0  0
 40 43  1  0  0  0  0
 42 40  1  0  0  0  0
M  END
>  <MODEL>
9

>  <REMARK>
 VINA RESULT:    -7.277      2.101      8.542
 INTER + INTRA:          -9.349
 INTER:                  -8.634
 INTRA:                  -0.715
 UNBOUND:                -0.582
  Name = 
  4 active torsions:
  status: ('A' for Active; 'I' for Inactive)
    1  A    between atoms: C_1  and  C_2
    2  A    between atoms: C_8  and  C_9
    3  A    between atoms: C_9  and  N_10
    4  A    between atoms: C_15  and  C_16
                            x       y       z     vdW  Elec       q    Type
                         _______ _______ _______ _____ _____    ______ ____

>  <TORSDO>
F 4

$$$$
=
 OpenBabel07192307433D

 43 47  0  0  0  0  0  0  0  0999 V2000
    0.4810    9.8420   19.7760 N   0  0  0  0  0  0  0  0  0  0  0  0
    1.3650    8.9350   19.2880 C   0  0  0  0  0  0  0  0  0  0  0  0
    1.6130    7.8040   19.8910 N   0  0  0  0  0  0  0  0  0  0  0  0
    2.5410    7.1760   19.1370 N   0  0  0  0  0  0  0  0  0  0  0  0
    3.1710    5.9800   19.2750 C   0  0  0  0  0  0  0  0  0  0  0  0
    4.0250    5.9060   18.1800 C   0  0  0  0  0  0  0  0  0  0  0  0
    3.9030    7.0340   17.3770 N   0  0  0  0  0  0  0  0  0  0  0  0
    3.0120    7.7480   18.0050 C   0  0  0  0  0  0  0  0  0  0  0  0
    2.2570    9.2620   17.7690 S   0  0  0  0  0  0  0  0  0  0  0  0
   -0.0530    9.5350   20.5850 H   0  0  0  0  0  0  0  0  0  0  0  0
    2.9700    5.3130   20.0990 H   0  0  0  0  0  0  0  0  0  0  0  0
    4.9720    4.8070   17.8250 C   0  0  0  0  0  0  0  0  0  0  0  0
    6.3950    5.3090   17.5390 C   0  0  0  0  0  0  0  0  0  0  0  0
    6.9130    4.3850   16.4450 C   0  0  0  0  0  0  0  0  0  0  0  0
    5.6880    4.1790   15.5710 C   0  0  0  0  0  0  0  0  0  0  0  0
    4.5470    4.0210   16.5710 C   0  0  0  0  0  0  0  0  0  0  0  0
    5.0170    4.1010   18.6670 H   0  0  0  0  0  0  0  0  0  0  0  0
    7.0270    5.2770   18.4330 H   0  0  0  0  0  0  0  0  0  0  0  0
    6.3960    6.3450   17.1750 H   0  0  0  0  0  0  0  0  0  0  0  0
    7.2430    3.4320   16.8760 H   0  0  0  0  0  0  0  0  0  0  0  0
    7.7500    4.8210   15.8940 H   0  0  0  0  0  0  0  0  0  0  0  0
    5.5160    5.0630   14.9450 H   0  0  0  0  0  0  0  0  0  0  0  0
    5.7870    3.3090   14.9130 H   0  0  0  0  0  0  0  0  0  0  0  0
    4.4390    2.9590   16.8340 H   0  0  0  0  0  0  0  0  0  0  0  0
    3.5920    4.3460   16.1420 H   0  0  0  0  0  0  0  0  0  0  0  0
   -0.1020   10.9600   19.0620 C   0  0  0  0  0  0  0  0  0  0  0  0
   -0.3010   11.7730   19.7710 H   0  0  0  0  0  0  0  0  0  0  0  0
    0.6190   11.3300   18.3210 H   0  0  0  0  0  0  0  0  0  0  0  0
   -4.0570   12.4880   19.7080 C   0  0  0  0  0  0  0  0  0  0  0  0
   -5.1470   11.9650   18.8290 C   0  0  0  0  0  0  0  0  0  0  0  0
   -4.8190   11.0550   17.9040 C   0  0  0  0  0  0  0  0  0  0  0  0
   -3.4770   10.6400   17.7980 C   0  0  0  0  0  0  0  0  0  0  0  0
   -2.8630    9.7940   17.0000 N   0  0  0  0  0  0  0  0  0  0  0  0
   -1.5290    9.7860   17.3450 N   0  0  0  0  0  0  0  0  0  0  0  0
   -1.3630   10.6240   18.3530 C   0  0  0  0  0  0  0  0  0  0  0  0
   -2.5680   11.1970   18.6740 N   0  0  0  0  0  0  0  0  0  0  0  0
   -2.8100   12.1270   19.6450 N   0  0  0  0  0  0  0  0  0  0  0  0
   -6.1580   12.3280   18.9560 H   0  0  0  0  0  0  0  0  0  0  0  0
   -5.5550   10.6310   17.2280 H   0  0  0  0  0  0  0  0  0  0  0  0
   -4.4410   13.5180   20.7420 C   0  0  0  0  0  0  0  0  0  0  0  0
   -3.5390   13.8990   21.2280 H   0  0  0  0  0  0  0  0  0  0  0  0
   -4.9570   14.3470   20.2490 H   0  0  0  0  0  0  0  0  0  0  0  0
   -5.0980   13.0960   21.5060 H   0  0  0  0  0  0  0  0  0  0  0  0
  1 10  1  0  0  0  0
  2  1  1  0  0  0  0
  2  3  2  0  0  0  0
  4  5  1  0  0  0  0
  4  3  1  0  0  0  0
  5 11  1  0  0  0  0
  6  5  2  0  0  0  0
  7  8  2  0  0  0  0
  7  6  1  0  0  0  0
  8  4  1  0  0  0  0
  9  8  1  0  0  0  0
  9  2  1  0  0  0  0
 12  6  1  0  0  0  0
 12 17  1  0  0  0  0
 13 12  1  0  0  0  0
 13 18  1  0  0  0  0
 14 20  1  0  0  0  0
 14 13  1  0  0  0  0
 15 14  1  0  0  0  0
 15 16  1  0  0  0  0
 16 24  1  0  0  0  0
 16 12  1  0  0  0  0
 19 13  1  0  0  0  0
 21 14  1  0  0  0  0
 22 15  1  0  0  0  0
 23 15  1  0  0  0  0
 25 16  1  0  0  0  0
 26 27  1  0  0  0  0
 26  1  1  0  0  0  0
 28 26  1  0  0  0  0
 29 40  1  0  0  0  0
 30 38  1  0  0  0  0
 30 29  1  0  0  0  0
 31 30  2  0  0  0  0
 32 31  1  0  0  0  0
 32 36  1  0  0  0  0
 33 34  1  0  0  0  0
 33 32  2  0  0  0  0
 34 35  2  0  0  0  0
 35 36  1  0  0  0  0
 35 26  1  0  0  0  0
 36 37  1  0  0  0  0
 37 29  2  0  0  0  0
 39 31  1  0  0  0  0
 40 41  1  0  0  0  0
 40 43  1  0  0  0  0
 42 40  1  0  0  0  0
M  END
>  <MODEL>
10

>  <REMARK>
 VINA RESULT:    -7.204      2.228      3.422
 INTER + INTRA:          -9.260
 INTER:                  -8.745
 INTRA:                  -0.515
 UNBOUND:                -0.582
  Name = 
  4 active torsions:
  status: ('A' for Active; 'I' for Inactive)
    1  A    between atoms: C_1  and  C_2
    2  A    between atoms: C_8  and  C_9
    3  A    between atoms: C_9  and  N_10
    4  A    between atoms: C_15  and  C_16
                            x       y       z     vdW  Elec       q    Type
                         _______ _______ _______ _____ _____    ______ ____

>  <TORSDO>
F 4

$$$$
=
 OpenBabel07192307433D

 43 47  0  0  0  0  0  0  0  0999 V2000
    1.6310    8.5150   19.3800 N   0  0  0  0  0  0  0  0  0  0  0  0
    0.8410    9.3630   20.0870 C   0  0  0  0  0  0  0  0  0  0  0  0
    0.1080   10.2790   19.5140 N   0  0  0  0  0  0  0  0  0  0  0  0
   -0.5200   10.9330   20.5150 N   0  0  0  0  0  0  0  0  0  0  0  0
   -1.3950   11.9720   20.5180 C   0  0  0  0  0  0  0  0  0  0  0  0
   -1.6720   12.1940   21.8620 C   0  0  0  0  0  0  0  0  0  0  0  0
   -0.9880   11.2890   22.6660 N   0  0  0  0  0  0  0  0  0  0  0  0
   -0.3200   10.5750   21.8040 C   0  0  0  0  0  0  0  0  0  0  0  0
    0.7750    9.2660   21.8740 S   0  0  0  0  0  0  0  0  0  0  0  0
    1.5330    8.5730   18.3690 H   0  0  0  0  0  0  0  0  0  0  0  0
   -1.7330   12.4460   19.6090 H   0  0  0  0  0  0  0  0  0  0  0  0
   -2.5700   13.2280   22.4590 C   0  0  0  0  0  0  0  0  0  0  0  0
   -1.9560   13.9220   23.6840 C   0  0  0  0  0  0  0  0  0  0  0  0
   -3.1420   14.1960   24.5990 C   0  0  0  0  0  0  0  0  0  0  0  0
   -3.9940   12.9510   24.4290 C   0  0  0  0  0  0  0  0  0  0  0  0
   -3.9190   12.6580   22.9340 C   0  0  0  0  0  0  0  0  0  0  0  0
   -2.7760   13.9920   21.6950 H   0  0  0  0  0  0  0  0  0  0  0  0
   -1.4300   14.8420   23.4110 H   0  0  0  0  0  0  0  0  0  0  0  0
   -1.2360   13.2740   24.2010 H   0  0  0  0  0  0  0  0  0  0  0  0
   -3.6870   15.0860   24.2610 H   0  0  0  0  0  0  0  0  0  0  0  0
   -2.8380   14.3540   25.6380 H   0  0  0  0  0  0  0  0  0  0  0  0
   -3.5640   12.1170   24.9950 H   0  0  0  0  0  0  0  0  0  0  0  0
   -5.0240   13.1010   24.7720 H   0  0  0  0  0  0  0  0  0  0  0  0
   -4.7330   13.1890   22.4190 H   0  0  0  0  0  0  0  0  0  0  0  0
   -4.0510   11.5890   22.7290 H   0  0  0  0  0  0  0  0  0  0  0  0
    2.2320    7.2850   19.8560 C   0  0  0  0  0  0  0  0  0  0  0  0
    2.9110    7.5170   20.6850 H   0  0  0  0  0  0  0  0  0  0  0  0
    1.4440    6.6250   20.2410 H   0  0  0  0  0  0  0  0  0  0  0  0
    1.7730    3.2260   18.5520 C   0  0  0  0  0  0  0  0  0  0  0  0
    2.6800    2.7480   17.4620 C   0  0  0  0  0  0  0  0  0  0  0  0
    3.5740    3.6150   16.9710 C   0  0  0  0  0  0  0  0  0  0  0  0
    3.6160    4.9230   17.4910 C   0  0  0  0  0  0  0  0  0  0  0  0
    4.3560    5.9730   17.2100 N   0  0  0  0  0  0  0  0  0  0  0  0
    3.9560    7.0000   18.0370 N   0  0  0  0  0  0  0  0  0  0  0  0
    2.9860    6.5470   18.8100 C   0  0  0  0  0  0  0  0  0  0  0  0
    2.7280    5.2360   18.4990 N   0  0  0  0  0  0  0  0  0  0  0  0
    1.7850    4.4220   19.0610 N   0  0  0  0  0  0  0  0  0  0  0  0
    2.5930    1.7320   17.1010 H   0  0  0  0  0  0  0  0  0  0  0  0
    4.2630    3.3410   16.1790 H   0  0  0  0  0  0  0  0  0  0  0  0
    0.7660    2.2390   19.0910 C   0  0  0  0  0  0  0  0  0  0  0  0
    0.7160    2.3320   20.1790 H   0  0  0  0  0  0  0  0  0  0  0  0
   -0.2180    2.4630   18.6680 H   0  0  0  0  0  0  0  0  0  0  0  0
    1.0350    1.2110   18.8390 H   0  0  0  0  0  0  0  0  0  0  0  0
  1 26  1  0  0  0  0
  1  2  1  0  0  0  0
  2  9  1  0  0  0  0
  3  2  2  0  0  0  0
  3  4  1  0  0  0  0
  4  5  1  0  0  0  0
  4  8  1  0  0  0  0
  5  6  2  0  0  0  0
  6 12  1  0  0  0  0
  6  7  1  0  0  0  0
  8  9  1  0  0  0  0
  8  7  2  0  0  0  0
 10  1  1  0  0  0  0
 11  5  1  0  0  0  0
 12 16  1  0  0  0  0
 12 13  1  0  0  0  0
 13 19  1  0  0  0  0
 13 14  1  0  0  0  0
 14 21  1  0  0  0  0
 15 14  1  0  0  0  0
 15 23  1  0  0  0  0
 15 22  1  0  0  0  0
 16 15  1  0  0  0  0
 17 12  1  0  0  0  0
 18 13  1  0  0  0  0
 20 14  1  0  0  0  0
 24 16  1  0  0  0  0
 25 16  1  0  0  0  0
 26 28  1  0  0  0  0
 26 27  1  0  0  0  0
 29 37  2  0  0  0  0
 29 40  1  0  0  0  0
 30 29  1  0  0  0  0
 31 30  2  0  0  0  0
 31 32  1  0  0  0  0
 32 36  1  0  0  0  0
 33 32  2  0  0  0  0
 33 34  1  0  0  0  0
 34 35  2  0  0  0  0
 35 26  1  0  0  0  0
 36 35  1  0  0  0  0
 36 37  1  0  0  0  0
 38 30  1  0  0  0  0
 39 31  1  0  0  0  0
 40 41  1  0  0  0  0
 42 40  1  0  0  0  0
 43 40  1  0  0  0  0
M  END
>  <MODEL>
11

>  <REMARK>
 VINA RESULT:    -7.199      2.926      8.534
 INTER + INTRA:          -9.254
 INTER:                  -8.861
 INTRA:                  -0.393
 UNBOUND:                -0.582
  Name = 
  4 active torsions:
  status: ('A' for Active; 'I' for Inactive)
    1  A    between atoms: C_1  and  C_2
    2  A    between atoms: C_8  and  C_9
    3  A    between atoms: C_9  and  N_10
    4  A    between atoms: C_15  and  C_16
                            x       y       z     vdW  Elec       q    Type
                         _______ _______ _______ _____ _____    ______ ____

>  <TORSDO>
F 4

$$$$
=
 OpenBabel07192307433D

 43 47  0  0  0  0  0  0  0  0999 V2000
    0.6320   10.2070   20.0380 N   0  0  0  0  0  0  0  0  0  0  0  0
    1.2460    9.0340   19.7400 C   0  0  0  0  0  0  0  0  0  0  0  0
    1.3340    8.0520   20.5950 N   0  0  0  0  0  0  0  0  0  0  0  0
    2.0140    7.0690   19.9650 N   0  0  0  0  0  0  0  0  0  0  0  0
    2.4010    5.8290   20.3630 C   0  0  0  0  0  0  0  0  0  0  0  0
    3.0780    5.3050   19.2660 C   0  0  0  0  0  0  0  0  0  0  0  0
    3.0850    6.2080   18.2090 N   0  0  0  0  0  0  0  0  0  0  0  0
    2.4440    7.2350   18.6940 C   0  0  0  0  0  0  0  0  0  0  0  0
    1.9860    8.7810   18.1290 S   0  0  0  0  0  0  0  0  0  0  0  0
    0.1540   10.2300   20.9360 H   0  0  0  0  0  0  0  0  0  0  0  0
    2.1760    5.4390   21.3430 H   0  0  0  0  0  0  0  0  0  0  0  0
    3.7310    3.9680   19.1400 C   0  0  0  0  0  0  0  0  0  0  0  0
    3.7180    3.4270   17.7040 C   0  0  0  0  0  0  0  0  0  0  0  0
    3.5660    1.9200   17.8650 C   0  0  0  0  0  0  0  0  0  0  0  0
    2.5960    1.8030   19.0290 C   0  0  0  0  0  0  0  0  0  0  0  0
    3.0610    2.8810   20.0020 C   0  0  0  0  0  0  0  0  0  0  0  0
    4.7770    4.0600   19.4660 H   0  0  0  0  0  0  0  0  0  0  0  0
    4.6330    3.6880   17.1600 H   0  0  0  0  0  0  0  0  0  0  0  0
    2.8710    3.8200   17.1270 H   0  0  0  0  0  0  0  0  0  0  0  0
    4.5310    1.4650   18.1210 H   0  0  0  0  0  0  0  0  0  0  0  0
    3.1880    1.4400   16.9590 H   0  0  0  0  0  0  0  0  0  0  0  0
    1.5750    2.0170   18.6930 H   0  0  0  0  0  0  0  0  0  0  0  0
    2.6050    0.8050   19.4790 H   0  0  0  0  0  0  0  0  0  0  0  0
    3.8090    2.4560   20.6860 H   0  0  0  0  0  0  0  0  0  0  0  0
    2.2310    3.2480   20.6180 H   0  0  0  0  0  0  0  0  0  0  0  0
    0.2020   11.2270   19.1030 C   0  0  0  0  0  0  0  0  0  0  0  0
    0.1310   12.1870   19.6280 H   0  0  0  0  0  0  0  0  0  0  0  0
    0.9570   11.3310   18.3120 H   0  0  0  0  0  0  0  0  0  0  0  0
   -3.6950   12.7060   20.1100 C   0  0  0  0  0  0  0  0  0  0  0  0
   -4.8440   12.2380   19.2740 C   0  0  0  0  0  0  0  0  0  0  0  0
   -4.5820   11.3890   18.2730 C   0  0  0  0  0  0  0  0  0  0  0  0
   -3.2510   10.9840   18.0510 C   0  0  0  0  0  0  0  0  0  0  0  0
   -2.6950   10.1900   17.1620 N   0  0  0  0  0  0  0  0  0  0  0  0
   -1.3410   10.1610   17.4150 N   0  0  0  0  0  0  0  0  0  0  0  0
   -1.1050   10.9340   18.4610 C   0  0  0  0  0  0  0  0  0  0  0  0
   -2.2840   11.4840   18.8970 N   0  0  0  0  0  0  0  0  0  0  0  0
   -2.4570   12.3510   19.9400 N   0  0  0  0  0  0  0  0  0  0  0  0
   -5.8440   12.5920   19.4920 H   0  0  0  0  0  0  0  0  0  0  0  0
   -5.3630   11.0080   17.6240 H   0  0  0  0  0  0  0  0  0  0  0  0
   -4.0060   13.6680   21.2300 C   0  0  0  0  0  0  0  0  0  0  0  0
   -3.8530   14.6930   20.8810 H   0  0  0  0  0  0  0  0  0  0  0  0
   -5.0510   13.5460   21.5290 H   0  0  0  0  0  0  0  0  0  0  0  0
   -3.3660   13.4950   22.0990 H   0  0  0  0  0  0  0  0  0  0  0  0
  1 10  1  0  0  0  0
  2  1  1  0  0  0  0
  2  3  2  0  0  0  0
  4  5  1  0  0  0  0
  4  3  1  0  0  0  0
  5 11  1  0  0  0  0
  6  5  2  0  0  0  0
  7  8  2  0  0  0  0
  7  6  1  0  0  0  0
  8  4  1  0  0  0  0
  9  8  1  0  0  0  0
  9  2  1  0  0  0  0
 12  6  1  0  0  0  0
 12 17  1  0  0  0  0
 12 16  1  0  0  0  0
 13 14  1  0  0  0  0
 13 12  1  0  0  0  0
 14 20  1  0  0  0  0
 14 15  1  0  0  0  0
 15 23  1  0  0  0  0
 15 16  1  0  0  0  0
 16 25  1  0  0  0  0
 16 24  1  0  0  0  0
 18 13  1  0  0  0  0
 19 13  1  0  0  0  0
 21 14  1  0  0  0  0
 22 15  1  0  0  0  0
 26 27  1  0  0  0  0
 26  1  1  0  0  0  0
 28 26  1  0  0  0  0
 29 40  1  0  0  0  0
 30 38  1  0  0  0  0
 30 29  1  0  0  0  0
 31 30  2  0  0  0  0
 32 31  1  0  0  0  0
 32 36  1  0  0  0  0
 33 34  1  0  0  0  0
 33 32  2  0  0  0  0
 34 35  2  0  0  0  0
 35 36  1  0  0  0  0
 35 26  1  0  0  0  0
 36 37  1  0  0  0  0
 37 29  2  0  0  0  0
 39 31  1  0  0  0  0
 40 42  1  0  0  0  0
 40 43  1  0  0  0  0
 41 40  1  0  0  0  0
M  END
>  <MODEL>
12

>  <REMARK>
 VINA RESULT:    -7.156      1.506      2.677
 INTER + INTRA:          -9.202
 INTER:                  -8.702
 INTRA:                  -0.501
 UNBOUND:                -0.582
  Name = 
  4 active torsions:
  status: ('A' for Active; 'I' for Inactive)
    1  A    between atoms: C_1  and  C_2
    2  A    between atoms: C_8  and  C_9
    3  A    between atoms: C_9  and  N_10
    4  A    between atoms: C_15  and  C_16
                            x       y       z     vdW  Elec       q    Type
                         _______ _______ _______ _____ _____    ______ ____

>  <TORSDO>
F 4

$$$$
=
 OpenBabel07192307433D

 43 47  0  0  0  0  0  0  0  0999 V2000
    1.8190    7.6200   19.9320 N   0  0  0  0  0  0  0  0  0  0  0  0
    1.0680    8.6040   20.4880 C   0  0  0  0  0  0  0  0  0  0  0  0
    0.7580    8.6160   21.7570 N   0  0  0  0  0  0  0  0  0  0  0  0
    0.0000    9.7180   21.9440 N   0  0  0  0  0  0  0  0  0  0  0  0
   -0.6020   10.2340   23.0480 C   0  0  0  0  0  0  0  0  0  0  0  0
   -1.2460   11.3800   22.5920 C   0  0  0  0  0  0  0  0  0  0  0  0
   -1.0230   11.5680   21.2320 N   0  0  0  0  0  0  0  0  0  0  0  0
   -0.2830   10.5440   20.9110 C   0  0  0  0  0  0  0  0  0  0  0  0
    0.4480    9.9510   19.4850 S   0  0  0  0  0  0  0  0  0  0  0  0
    2.2120    6.9500   20.5890 H   0  0  0  0  0  0  0  0  0  0  0  0
   -0.5260    9.7690   24.0180 H   0  0  0  0  0  0  0  0  0  0  0  0
   -2.0750   12.3430   23.3760 C   0  0  0  0  0  0  0  0  0  0  0  0
   -3.4770   12.5480   22.7840 C   0  0  0  0  0  0  0  0  0  0  0  0
   -3.7990   14.0100   23.0650 C   0  0  0  0  0  0  0  0  0  0  0  0
   -2.4640   14.6980   22.8380 C   0  0  0  0  0  0  0  0  0  0  0  0
   -1.4510   13.7470   23.4680 C   0  0  0  0  0  0  0  0  0  0  0  0
   -2.1860   11.9540   24.3990 H   0  0  0  0  0  0  0  0  0  0  0  0
   -4.2140   11.8750   23.2340 H   0  0  0  0  0  0  0  0  0  0  0  0
   -3.4920   12.3720   21.7000 H   0  0  0  0  0  0  0  0  0  0  0  0
   -4.1250   14.1360   24.1040 H   0  0  0  0  0  0  0  0  0  0  0  0
   -4.5830   14.3970   22.4090 H   0  0  0  0  0  0  0  0  0  0  0  0
   -2.2660   14.7970   21.7650 H   0  0  0  0  0  0  0  0  0  0  0  0
   -2.4290   15.6980   23.2850 H   0  0  0  0  0  0  0  0  0  0  0  0
   -1.3160   14.0100   24.5270 H   0  0  0  0  0  0  0  0  0  0  0  0
   -0.4690   13.8330   22.9870 H   0  0  0  0  0  0  0  0  0  0  0  0
    2.4790    7.6530   18.6420 C   0  0  0  0  0  0  0  0  0  0  0  0
    1.8130    8.1290   17.9120 H   0  0  0  0  0  0  0  0  0  0  0  0
    3.3870    8.2650   18.7180 H   0  0  0  0  0  0  0  0  0  0  0  0
    6.3180    6.2590   17.3340 C   0  0  0  0  0  0  0  0  0  0  0  0
    6.4120    4.8380   16.8750 C   0  0  0  0  0  0  0  0  0  0  0  0
    5.2960    4.1000   16.9000 C   0  0  0  0  0  0  0  0  0  0  0  0
    4.0990    4.6850   17.3560 C   0  0  0  0  0  0  0  0  0  0  0  0
    2.8770    4.2210   17.5030 N   0  0  0  0  0  0  0  0  0  0  0  0
    2.0980    5.2430   18.0000 N   0  0  0  0  0  0  0  0  0  0  0  0
    2.8650    6.3110   18.1350 C   0  0  0  0  0  0  0  0  0  0  0  0
    4.1450    6.0070   17.7460 N   0  0  0  0  0  0  0  0  0  0  0  0
    5.2320    6.8350   17.7560 N   0  0  0  0  0  0  0  0  0  0  0  0
    7.3640    4.4460   16.5420 H   0  0  0  0  0  0  0  0  0  0  0  0
    5.2880    3.0620   16.5840 H   0  0  0  0  0  0  0  0  0  0  0  0
    7.5860    7.0770   17.3070 C   0  0  0  0  0  0  0  0  0  0  0  0
    7.5540    7.7660   16.4590 H   0  0  0  0  0  0  0  0  0  0  0  0
    7.6610    7.6540   18.2330 H   0  0  0  0  0  0  0  0  0  0  0  0
    8.4710    6.4440   17.2100 H   0  0  0  0  0  0  0  0  0  0  0  0
  1  2  1  0  0  0  0
  1 10  1  0  0  0  0
  2  3  2  0  0  0  0
  3  4  1  0  0  0  0
  4  5  1  0  0  0  0
  5 11  1  0  0  0  0
  6  5  2  0  0  0  0
  6 12  1  0  0  0  0
  7  6  1  0  0  0  0
  8  7  2  0  0  0  0
  8  4  1  0  0  0  0
  9  2  1  0  0  0  0
  9  8  1  0  0  0  0
 12 16  1  0  0  0  0
 12 17  1  0  0  0  0
 13 14  1  0  0  0  0
 13 18  1  0  0  0  0
 13 12  1  0  0  0  0
 14 20  1  0  0  0  0
 15 14  1  0  0  0  0
 15 23  1  0  0  0  0
 15 16  1  0  0  0  0
 16 24  1  0  0  0  0
 19 13  1  0  0  0  0
 21 14  1  0  0  0  0
 22 15  1  0  0  0  0
 25 16  1  0  0  0  0
 26 28  1  0  0  0  0
 26  1  1  0  0  0  0
 27 26  1  0  0  0  0
 29 37  2  0  0  0  0
 30 31  2  0  0  0  0
 30 29  1  0  0  0  0
 31 32  1  0  0  0  0
 32 33  2  0  0  0  0
 32 36  1  0  0  0  0
 33 34  1  0  0  0  0
 34 35  2  0  0  0  0
 35 26  1  0  0  0  0
 36 37  1  0  0  0  0
 36 35  1  0  0  0  0
 38 30  1  0  0  0  0
 39 31  1  0  0  0  0
 40 29  1  0  0  0  0
 40 42  1  0  0  0  0
 41 40  1  0  0  0  0
 43 40  1  0  0  0  0
M  END
>  <MODEL>
13

>  <REMARK>
 VINA RESULT:    -7.148      3.330      8.806
 INTER + INTRA:          -9.193
 INTER:                  -8.796
 INTRA:                  -0.397
 UNBOUND:                -0.582
  Name = 
  4 active torsions:
  status: ('A' for Active; 'I' for Inactive)
    1  A    between atoms: C_1  and  C_2
    2  A    between atoms: C_8  and  C_9
    3  A    between atoms: C_9  and  N_10
    4  A    between atoms: C_15  and  C_16
                            x       y       z     vdW  Elec       q    Type
                         _______ _______ _______ _____ _____    ______ ____

>  <TORSDO>
F 4

$$$$
=
 OpenBabel07192307433D

 43 47  0  0  0  0  0  0  0  0999 V2000
    1.3130    8.4530   19.8960 N   0  0  0  0  0  0  0  0  0  0  0  0
    2.2070    7.6190   19.3080 C   0  0  0  0  0  0  0  0  0  0  0  0
    2.9360    7.9810   18.2860 N   0  0  0  0  0  0  0  0  0  0  0  0
    3.6850    6.9050   17.9630 N   0  0  0  0  0  0  0  0  0  0  0  0
    4.6120    6.6980   16.9920 C   0  0  0  0  0  0  0  0  0  0  0  0
    5.0180    5.3800   17.1710 C   0  0  0  0  0  0  0  0  0  0  0  0
    4.3600    4.7990   18.2490 N   0  0  0  0  0  0  0  0  0  0  0  0
    3.5800    5.7550   18.6680 C   0  0  0  0  0  0  0  0  0  0  0  0
    2.4250    5.9470   19.9120 S   0  0  0  0  0  0  0  0  0  0  0  0
    1.3240    9.4110   19.5550 H   0  0  0  0  0  0  0  0  0  0  0  0
    4.8940    7.4660   16.2890 H   0  0  0  0  0  0  0  0  0  0  0  0
    6.0210    4.6100   16.3760 C   0  0  0  0  0  0  0  0  0  0  0  0
    6.9410    5.5080   15.5370 C   0  0  0  0  0  0  0  0  0  0  0  0
    7.2100    4.7040   14.2730 C   0  0  0  0  0  0  0  0  0  0  0  0
    5.8680    4.0480   13.9990 C   0  0  0  0  0  0  0  0  0  0  0  0
    5.3800    3.6250   15.3800 C   0  0  0  0  0  0  0  0  0  0  0  0
    6.6440    4.0290   17.0710 H   0  0  0  0  0  0  0  0  0  0  0  0
    7.8670    5.7540   16.0690 H   0  0  0  0  0  0  0  0  0  0  0  0
    6.4540    6.4560   15.2720 H   0  0  0  0  0  0  0  0  0  0  0  0
    7.9790    3.9440   14.4600 H   0  0  0  0  0  0  0  0  0  0  0  0
    7.5430    5.3330   13.4430 H   0  0  0  0  0  0  0  0  0  0  0  0
    5.1730    4.7750   13.5630 H   0  0  0  0  0  0  0  0  0  0  0  0
    5.9510    3.2010   13.3090 H   0  0  0  0  0  0  0  0  0  0  0  0
    5.7410    2.6100   15.5980 H   0  0  0  0  0  0  0  0  0  0  0  0
    4.2840    3.5930   15.4250 H   0  0  0  0  0  0  0  0  0  0  0  0
    0.6900    8.2840   21.1940 C   0  0  0  0  0  0  0  0  0  0  0  0
   -0.0570    7.4830   21.1310 H   0  0  0  0  0  0  0  0  0  0  0  0
    1.4520    7.9780   21.9220 H   0  0  0  0  0  0  0  0  0  0  0  0
   -1.5590   11.2340   19.0410 C   0  0  0  0  0  0  0  0  0  0  0  0
   -2.1180   12.3790   19.8260 C   0  0  0  0  0  0  0  0  0  0  0  0
   -1.8780   12.4080   21.1420 C   0  0  0  0  0  0  0  0  0  0  0  0
   -1.1230   11.3710   21.7230 C   0  0  0  0  0  0  0  0  0  0  0  0
   -0.7430   11.1250   22.9580 N   0  0  0  0  0  0  0  0  0  0  0  0
   -0.0210    9.9520   22.9490 N   0  0  0  0  0  0  0  0  0  0  0  0
    0.0300    9.5140   21.7030 C   0  0  0  0  0  0  0  0  0  0  0  0
   -0.6600   10.3760   20.8880 N   0  0  0  0  0  0  0  0  0  0  0  0
   -0.8550   10.2630   19.5400 N   0  0  0  0  0  0  0  0  0  0  0  0
   -2.6960   13.1420   19.3210 H   0  0  0  0  0  0  0  0  0  0  0  0
   -2.2520   13.2050   21.7770 H   0  0  0  0  0  0  0  0  0  0  0  0
   -1.8440   11.2120   17.5590 C   0  0  0  0  0  0  0  0  0  0  0  0
   -1.7330   10.1910   17.1850 H   0  0  0  0  0  0  0  0  0  0  0  0
   -2.8710   11.5450   17.3860 H   0  0  0  0  0  0  0  0  0  0  0  0
   -1.1620   11.8640   17.0080 H   0  0  0  0  0  0  0  0  0  0  0  0
  1 26  1  0  0  0  0
  2  1  1  0  0  0  0
  2  9  1  0  0  0  0
  3  2  2  0  0  0  0
  4  3  1  0  0  0  0
  4  8  1  0  0  0  0
  5  6  2  0  0  0  0
  5  4  1  0  0  0  0
  6  7  1  0  0  0  0
  7  8  2  0  0  0  0
  8  9  1  0  0  0  0
 10  1  1  0  0  0  0
 11  5  1  0  0  0  0
 12 17  1  0  0  0  0
 12  6  1  0  0  0  0
 13 18  1  0  0  0  0
 13 12  1  0  0  0  0
 14 20  1  0  0  0  0
 14 13  1  0  0  0  0
 15 14  1  0  0  0  0
 15 16  1  0  0  0  0
 16 25  1  0  0  0  0
 16 24  1  0  0  0  0
 16 12  1  0  0  0  0
 19 13  1  0  0  0  0
 21 14  1  0  0  0  0
 22 15  1  0  0  0  0
 23 15  1  0  0  0  0
 26 35  1  0  0  0  0
 26 28  1  0  0  0  0
 27 26  1  0  0  0  0
 29 37  2  0  0  0  0
 29 30  1  0  0  0  0
 30 31  2  0  0  0  0
 31 32  1  0  0  0  0
 31 39  1  0  0  0  0
 32 33  2  0  0  0  0
 34 33  1  0  0  0  0
 35 34  2  0  0  0  0
 36 35  1  0  0  0  0
 36 32  1  0  0  0  0
 37 36  1  0  0  0  0
 38 30  1  0  0  0  0
 40 29  1  0  0  0  0
 41 40  1  0  0  0  0
 42 40  1  0  0  0  0
 43 40  1  0  0  0  0
M  END
>  <MODEL>
14

>  <REMARK>
 VINA RESULT:    -7.132      3.250      4.267
 INTER + INTRA:          -9.173
 INTER:                  -8.606
 INTRA:                  -0.566
 UNBOUND:                -0.582
  Name = 
  4 active torsions:
  status: ('A' for Active; 'I' for Inactive)
    1  A    between atoms: C_1  and  C_2
    2  A    between atoms: C_8  and  C_9
    3  A    between atoms: C_9  and  N_10
    4  A    between atoms: C_15  and  C_16
                            x       y       z     vdW  Elec       q    Type
                         _______ _______ _______ _____ _____    ______ ____

>  <TORSDO>
F 4

$$$$
=
 OpenBabel07192307433D

 43 47  0  0  0  0  0  0  0  0999 V2000
    0.3330   11.2220   20.1310 N   0  0  0  0  0  0  0  0  0  0  0  0
    0.8890   10.0370   19.7720 C   0  0  0  0  0  0  0  0  0  0  0  0
    1.0330    9.0480   20.6120 N   0  0  0  0  0  0  0  0  0  0  0  0
    1.6280    8.0540   19.9170 N   0  0  0  0  0  0  0  0  0  0  0  0
    2.0220    6.8030   20.2720 C   0  0  0  0  0  0  0  0  0  0  0  0
    2.5810    6.2710   19.1150 C   0  0  0  0  0  0  0  0  0  0  0  0
    2.5110    7.1790   18.0650 N   0  0  0  0  0  0  0  0  0  0  0  0
    1.9410    8.2170   18.6120 C   0  0  0  0  0  0  0  0  0  0  0  0
    1.4690    9.7770   18.0980 S   0  0  0  0  0  0  0  0  0  0  0  0
   -0.0590   11.2500   21.0690 H   0  0  0  0  0  0  0  0  0  0  0  0
    1.8800    6.4130   21.2680 H   0  0  0  0  0  0  0  0  0  0  0  0
    3.1880    4.9200   18.9240 C   0  0  0  0  0  0  0  0  0  0  0  0
    4.3290    4.9140   17.8960 C   0  0  0  0  0  0  0  0  0  0  0  0
    4.2170    3.5580   17.2110 C   0  0  0  0  0  0  0  0  0  0  0  0
    2.7150    3.3610   17.0990 C   0  0  0  0  0  0  0  0  0  0  0  0
    2.1790    3.8640   18.4350 C   0  0  0  0  0  0  0  0  0  0  0  0
    3.5910    4.5800   19.8890 H   0  0  0  0  0  0  0  0  0  0  0  0
    5.3070    5.0520   18.3690 H   0  0  0  0  0  0  0  0  0  0  0  0
    4.2100    5.7110   17.1510 H   0  0  0  0  0  0  0  0  0  0  0  0
    4.6630    2.7760   17.8380 H   0  0  0  0  0  0  0  0  0  0  0  0
    4.7130    3.5420   16.2370 H   0  0  0  0  0  0  0  0  0  0  0  0
    2.3130    3.9690   16.2810 H   0  0  0  0  0  0  0  0  0  0  0  0
    2.4460    2.3150   16.9100 H   0  0  0  0  0  0  0  0  0  0  0  0
    2.1550    3.0330   19.1530 H   0  0  0  0  0  0  0  0  0  0  0  0
    1.1530    4.2380   18.3380 H   0  0  0  0  0  0  0  0  0  0  0  0
   -0.1590   12.2570   19.2430 C   0  0  0  0  0  0  0  0  0  0  0  0
   -0.1390   13.2190   19.7700 H   0  0  0  0  0  0  0  0  0  0  0  0
    0.5090   12.3340   18.3750 H   0  0  0  0  0  0  0  0  0  0  0  0
   -3.8970   12.7610   21.2850 C   0  0  0  0  0  0  0  0  0  0  0  0
   -5.1430   12.4380   20.5240 C   0  0  0  0  0  0  0  0  0  0  0  0
   -5.0110   12.0110   19.2620 C   0  0  0  0  0  0  0  0  0  0  0  0
   -3.7190   11.8920   18.7130 C   0  0  0  0  0  0  0  0  0  0  0  0
   -3.2820   11.5210   17.5290 N   0  0  0  0  0  0  0  0  0  0  0  0
   -1.9070   11.6010   17.5460 N   0  0  0  0  0  0  0  0  0  0  0  0
   -1.5380   12.0120   18.7470 C   0  0  0  0  0  0  0  0  0  0  0  0
   -2.6510   12.2170   19.5220 N   0  0  0  0  0  0  0  0  0  0  0  0
   -2.6890   12.6590   20.8150 N   0  0  0  0  0  0  0  0  0  0  0  0
   -6.1080   12.5560   21.0010 H   0  0  0  0  0  0  0  0  0  0  0  0
   -5.8690   11.7590   18.6480 H   0  0  0  0  0  0  0  0  0  0  0  0
   -4.0630   13.2470   22.7040 C   0  0  0  0  0  0  0  0  0  0  0  0
   -3.1210   13.1210   23.2430 H   0  0  0  0  0  0  0  0  0  0  0  0
   -4.3270   14.3090   22.6910 H   0  0  0  0  0  0  0  0  0  0  0  0
   -4.8450   12.6940   23.2300 H   0  0  0  0  0  0  0  0  0  0  0  0
  1 10  1  0  0  0  0
  2  1  1  0  0  0  0
  2  3  2  0  0  0  0
  4  5  1  0  0  0  0
  4  3  1  0  0  0  0
  5 11  1  0  0  0  0
  6  5  2  0  0  0  0
  7  8  2  0  0  0  0
  7  6  1  0  0  0  0
  8  4  1  0  0  0  0
  9  8  1  0  0  0  0
  9  2  1  0  0  0  0
 12  6  1  0  0  0  0
 12 17  1  0  0  0  0
 13 18  1  0  0  0  0
 13 12  1  0  0  0  0
 14 20  1  0  0  0  0
 14 13  1  0  0  0  0
 15 14  1  0  0  0  0
 15 16  1  0  0  0  0
 16 12  1  0  0  0  0
 16 24  1  0  0  0  0
 19 13  1  0  0  0  0
 21 14  1  0  0  0  0
 22 15  1  0  0  0  0
 23 15  1  0  0  0  0
 25 16  1  0  0  0  0
 26 27  1  0  0  0  0
 26  1  1  0  0  0  0
 28 26  1  0  0  0  0
 29 40  1  0  0  0  0
 30 38  1  0  0  0  0
 30 29  1  0  0  0  0
 31 30  2  0  0  0  0
 32 31  1  0  0  0  0
 32 36  1  0  0  0  0
 33 34  1  0  0  0  0
 33 32  2  0  0  0  0
 34 35  2  0  0  0  0
 35 26  1  0  0  0  0
 35 36  1  0  0  0  0
 36 37  1  0  0  0  0
 37 29  2  0  0  0  0
 39 31  1  0  0  0  0
 40 43  1  0  0  0  0
 40 41  1  0  0  0  0
 42 40  1  0  0  0  0
M  END
>  <MODEL>
15

>  <REMARK>
 VINA RESULT:    -7.003      1.669      2.930
 INTER + INTRA:          -9.018
 INTER:                  -8.317
 INTRA:                  -0.701
 UNBOUND:                -0.582
  Name = 
  4 active torsions:
  status: ('A' for Active; 'I' for Inactive)
    1  A    between atoms: C_1  and  C_2
    2  A    between atoms: C_8  and  C_9
    3  A    between atoms: C_9  and  N_10
    4  A    between atoms: C_15  and  C_16
                            x       y       z     vdW  Elec       q    Type
                         _______ _______ _______ _____ _____    ______ ____

>  <TORSDO>
F 4

$$$$
=
 OpenBabel07192307433D

 43 47  0  0  0  0  0  0  0  0999 V2000
    2.8170    4.0910   19.5440 N   0  0  0  0  0  0  0  0  0  0  0  0
    2.4450    5.3940   19.6190 C   0  0  0  0  0  0  0  0  0  0  0  0
    1.9590    5.9220   20.7100 N   0  0  0  0  0  0  0  0  0  0  0  0
    1.6910    7.2120   20.4120 N   0  0  0  0  0  0  0  0  0  0  0  0
    1.1740    8.2300   21.1490 C   0  0  0  0  0  0  0  0  0  0  0  0
    1.1320    9.3100   20.2740 C   0  0  0  0  0  0  0  0  0  0  0  0
    1.6350    8.9580   19.0260 N   0  0  0  0  0  0  0  0  0  0  0  0
    1.9410    7.7000   19.1750 C   0  0  0  0  0  0  0  0  0  0  0  0
    2.5980    6.4670   18.1920 S   0  0  0  0  0  0  0  0  0  0  0  0
    2.7900    3.5820   20.4230 H   0  0  0  0  0  0  0  0  0  0  0  0
    0.8920    8.1090   22.1830 H   0  0  0  0  0  0  0  0  0  0  0  0
    0.6430   10.6950   20.5440 C   0  0  0  0  0  0  0  0  0  0  0  0
   -0.3920   10.7560   21.6760 C   0  0  0  0  0  0  0  0  0  0  0  0
   -1.3450   11.8690   21.2610 C   0  0  0  0  0  0  0  0  0  0  0  0
   -1.4590   11.6710   19.7590 C   0  0  0  0  0  0  0  0  0  0  0  0
   -0.0330   11.3490   19.3240 C   0  0  0  0  0  0  0  0  0  0  0  0
    1.5040   11.3180   20.8270 H   0  0  0  0  0  0  0  0  0  0  0  0
    0.0750   10.9600   22.6460 H   0  0  0  0  0  0  0  0  0  0  0  0
   -0.9470    9.8140   21.7720 H   0  0  0  0  0  0  0  0  0  0  0  0
   -0.9100   12.8490   21.4890 H   0  0  0  0  0  0  0  0  0  0  0  0
   -2.3130   11.7960   21.7650 H   0  0  0  0  0  0  0  0  0  0  0  0
   -2.1180   10.8250   19.5370 H   0  0  0  0  0  0  0  0  0  0  0  0
   -1.8580   12.5570   19.2520 H   0  0  0  0  0  0  0  0  0  0  0  0
    0.4930   12.2830   19.0820 H   0  0  0  0  0  0  0  0  0  0  0  0
   -0.0220   10.7280   18.4200 H   0  0  0  0  0  0  0  0  0  0  0  0
    3.6390    3.4790   18.5190 C   0  0  0  0  0  0  0  0  0  0  0  0
    3.8080    2.4270   18.7780 H   0  0  0  0  0  0  0  0  0  0  0  0
    3.1030    3.5090   17.5620 H   0  0  0  0  0  0  0  0  0  0  0  0
    5.8120    4.2140   14.8950 C   0  0  0  0  0  0  0  0  0  0  0  0
    7.1260    4.9170   15.0140 C   0  0  0  0  0  0  0  0  0  0  0  0
    7.5380    5.2670   16.2390 C   0  0  0  0  0  0  0  0  0  0  0  0
    6.7230    4.9650   17.3460 C   0  0  0  0  0  0  0  0  0  0  0  0
    6.8490    5.1870   18.6370 N   0  0  0  0  0  0  0  0  0  0  0  0
    5.7330    4.6750   19.2620 N   0  0  0  0  0  0  0  0  0  0  0  0
    4.9550    4.1430   18.3350 C   0  0  0  0  0  0  0  0  0  0  0  0
    5.5350    4.3080   17.1020 N   0  0  0  0  0  0  0  0  0  0  0  0
    5.0350    3.9140   15.8930 N   0  0  0  0  0  0  0  0  0  0  0  0
    7.7040    5.1260   14.1230 H   0  0  0  0  0  0  0  0  0  0  0  0
    8.4790    5.7810   16.4030 H   0  0  0  0  0  0  0  0  0  0  0  0
    5.3580    3.8320   13.5080 C   0  0  0  0  0  0  0  0  0  0  0  0
    5.6740    2.8080   13.2920 H   0  0  0  0  0  0  0  0  0  0  0  0
    4.2660    3.8860   13.4590 H   0  0  0  0  0  0  0  0  0  0  0  0
    5.7790    4.4960   12.7490 H   0  0  0  0  0  0  0  0  0  0  0  0
  1  2  1  0  0  0  0
  1 10  1  0  0  0  0
  2  3  2  0  0  0  0
  4  3  1  0  0  0  0
  4  5  1  0  0  0  0
  5 11  1  0  0  0  0
  6 12  1  0  0  0  0
  6  5  2  0  0  0  0
  7  8  2  0  0  0  0
  7  6  1  0  0  0  0
  8  4  1  0  0  0  0
  9  8  1  0  0  0  0
  9  2  1  0  0  0  0
 12 17  1  0  0  0  0
 12 13  1  0  0  0  0
 13 19  1  0  0  0  0
 13 18  1  0  0  0  0
 14 20  1  0  0  0  0
 14 13  1  0  0  0  0
 14 21  1  0  0  0  0
 15 14  1  0  0  0  0
 16 15  1  0  0  0  0
 16 12  1  0  0  0  0
 22 15  1  0  0  0  0
 23 15  1  0  0  0  0
 24 16  1  0  0  0  0
 25 16  1  0  0  0  0
 26 27  1  0  0  0  0
 26  1  1  0  0  0  0
 28 26  1  0  0  0  0
 29 30  1  0  0  0  0
 29 37  2  0  0  0  0
 30 31  2  0  0  0  0
 31 39  1  0  0  0  0
 31 32  1  0  0  0  0
 32 33  2  0  0  0  0
 33 34  1  0  0  0  0
 35 26  1  0  0  0  0
 35 34  2  0  0  0  0
 36 32  1  0  0  0  0
 36 35  1  0  0  0  0
 37 36  1  0  0  0  0
 38 30  1  0  0  0  0
 40 29  1  0  0  0  0
 41 40  1  0  0  0  0
 42 40  1  0  0  0  0
 43 40  1  0  0  0  0
M  END
>  <MODEL>
16

>  <REMARK>
 VINA RESULT:    -6.993      3.592      8.872
 INTER + INTRA:          -9.006
 INTER:                  -8.765
 INTRA:                  -0.242
 UNBOUND:                -0.582
  Name = 
  4 active torsions:
  status: ('A' for Active; 'I' for Inactive)
    1  A    between atoms: C_1  and  C_2
    2  A    between atoms: C_8  and  C_9
    3  A    between atoms: C_9  and  N_10
    4  A    between atoms: C_15  and  C_16
                            x       y       z     vdW  Elec       q    Type
                         _______ _______ _______ _____ _____    ______ ____

>  <TORSDO>
F 4

$$$$
=
 OpenBabel07192307433D

 43 47  0  0  0  0  0  0  0  0999 V2000
    0.7140    8.9470   20.5130 N   0  0  0  0  0  0  0  0  0  0  0  0
    1.6000    8.2190   19.7870 C   0  0  0  0  0  0  0  0  0  0  0  0
    2.1170    7.1040   20.2270 N   0  0  0  0  0  0  0  0  0  0  0  0
    2.9540    6.6740   19.2580 N   0  0  0  0  0  0  0  0  0  0  0  0
    3.7580    5.5830   19.1650 C   0  0  0  0  0  0  0  0  0  0  0  0
    4.3780    5.7080   17.9270 C   0  0  0  0  0  0  0  0  0  0  0  0
    3.9410    6.8510   17.2660 N   0  0  0  0  0  0  0  0  0  0  0  0
    3.1040    7.3800   18.1140 C   0  0  0  0  0  0  0  0  0  0  0  0
    2.1150    8.7720   18.1630 S   0  0  0  0  0  0  0  0  0  0  0  0
    0.4010    8.5120   21.3780 H   0  0  0  0  0  0  0  0  0  0  0  0
    3.8210    4.8430   19.9480 H   0  0  0  0  0  0  0  0  0  0  0  0
    5.3770    4.7920   17.3010 C   0  0  0  0  0  0  0  0  0  0  0  0
    6.6200    5.5270   16.7770 C   0  0  0  0  0  0  0  0  0  0  0  0
    7.0240    4.7520   15.5300 C   0  0  0  0  0  0  0  0  0  0  0  0
    5.6850    4.3980   14.9060 C   0  0  0  0  0  0  0  0  0  0  0  0
    4.8160    4.0120   16.0970 C   0  0  0  0  0  0  0  0  0  0  0  0
    5.7000    4.0620   18.0560 H   0  0  0  0  0  0  0  0  0  0  0  0
    7.4240    5.5510   17.5210 H   0  0  0  0  0  0  0  0  0  0  0  0
    6.3950    6.5660   16.5050 H   0  0  0  0  0  0  0  0  0  0  0  0
    7.5720    3.8430   15.8070 H   0  0  0  0  0  0  0  0  0  0  0  0
    7.6540    5.3420   14.8600 H   0  0  0  0  0  0  0  0  0  0  0  0
    5.2600    5.2730   14.4010 H   0  0  0  0  0  0  0  0  0  0  0  0
    5.7690    3.5890   14.1720 H   0  0  0  0  0  0  0  0  0  0  0  0
    4.9210    2.9350   16.2900 H   0  0  0  0  0  0  0  0  0  0  0  0
    3.7550    4.2020   15.8960 H   0  0  0  0  0  0  0  0  0  0  0  0
   -0.1490   10.0040   20.0270 C   0  0  0  0  0  0  0  0  0  0  0  0
   -0.1620    9.9800   18.9300 H   0  0  0  0  0  0  0  0  0  0  0  0
   -1.1730    9.8240   20.3790 H   0  0  0  0  0  0  0  0  0  0  0  0
   -1.9970   12.5780   22.9170 C   0  0  0  0  0  0  0  0  0  0  0  0
   -1.3510   13.9040   23.1680 C   0  0  0  0  0  0  0  0  0  0  0  0
   -0.2450   14.2000   22.4740 C   0  0  0  0  0  0  0  0  0  0  0  0
    0.2570   13.2590   21.5550 C   0  0  0  0  0  0  0  0  0  0  0  0
    1.3030   13.2590   20.7570 N   0  0  0  0  0  0  0  0  0  0  0  0
    1.3110   12.0610   20.0770 N   0  0  0  0  0  0  0  0  0  0  0  0
    0.2620   11.3610   20.4710 C   0  0  0  0  0  0  0  0  0  0  0  0
   -0.4360   12.0750   21.4120 N   0  0  0  0  0  0  0  0  0  0  0  0
   -1.5670   11.6870   22.0740 N   0  0  0  0  0  0  0  0  0  0  0  0
   -1.7830   14.5810   23.8940 H   0  0  0  0  0  0  0  0  0  0  0  0
    0.2790   15.1400   22.6040 H   0  0  0  0  0  0  0  0  0  0  0  0
   -3.2390   12.2560   23.7120 C   0  0  0  0  0  0  0  0  0  0  0  0
   -3.1600   12.7050   24.7050 H   0  0  0  0  0  0  0  0  0  0  0  0
   -4.1110   12.6740   23.2000 H   0  0  0  0  0  0  0  0  0  0  0  0
   -3.3770   11.1780   23.8240 H   0  0  0  0  0  0  0  0  0  0  0  0
  1 10  1  0  0  0  0
  2  3  2  0  0  0  0
  2  1  1  0  0  0  0
  4  3  1  0  0  0  0
  5  4  1  0  0  0  0
  5 11  1  0  0  0  0
  6  5  2  0  0  0  0
  7  6  1  0  0  0  0
  7  8  2  0  0  0  0
  8  9  1  0  0  0  0
  8  4  1  0  0  0  0
  9  2  1  0  0  0  0
 12  6  1  0  0  0  0
 12 17  1  0  0  0  0
 13 12  1  0  0  0  0
 13 18  1  0  0  0  0
 14 20  1  0  0  0  0
 14 13  1  0  0  0  0
 15 14  1  0  0  0  0
 15 16  1  0  0  0  0
 16 24  1  0  0  0  0
 16 12  1  0  0  0  0
 19 13  1  0  0  0  0
 21 14  1  0  0  0  0
 22 15  1  0  0  0  0
 23 15  1  0  0  0  0
 25 16  1  0  0  0  0
 26 28  1  0  0  0  0
 26 35  1  0  0  0  0
 26  1  1  0  0  0  0
 27 26  1  0  0  0  0
 29 30  1  0  0  0  0
 29 40  1  0  0  0  0
 30 38  1  0  0  0  0
 31 39  1  0  0  0  0
 31 30  2  0  0  0  0
 32 31  1  0  0  0  0
 33 32  2  0  0  0  0
 34 35  2  0  0  0  0
 34 33  1  0  0  0  0
 35 36  1  0  0  0  0
 36 32  1  0  0  0  0
 36 37  1  0  0  0  0
 37 29  2  0  0  0  0
 40 43  1  0  0  0  0
 40 41  1  0  0  0  0
 42 40  1  0  0  0  0
M  END
>  <MODEL>
17

>  <REMARK>
 VINA RESULT:    -6.981      3.099      4.686
 INTER + INTRA:          -8.992
 INTER:                  -8.476
 INTRA:                  -0.516
 UNBOUND:                -0.582
  Name = 
  4 active torsions:
  status: ('A' for Active; 'I' for Inactive)
    1  A    between atoms: C_1  and  C_2
    2  A    between atoms: C_8  and  C_9
    3  A    between atoms: C_9  and  N_10
    4  A    between atoms: C_15  and  C_16
                            x       y       z     vdW  Elec       q    Type
                         _______ _______ _______ _____ _____    ______ ____

>  <TORSDO>
F 4

$$$$
=
 OpenBabel07192307433D

 43 47  0  0  0  0  0  0  0  0999 V2000
    0.6740   10.1010   19.0510 N   0  0  0  0  0  0  0  0  0  0  0  0
    1.5120    9.0430   18.9090 C   0  0  0  0  0  0  0  0  0  0  0  0
    2.2460    8.8680   17.8430 N   0  0  0  0  0  0  0  0  0  0  0  0
    2.9280    7.7210   18.0450 N   0  0  0  0  0  0  0  0  0  0  0  0
    3.8300    7.0500   17.2810 C   0  0  0  0  0  0  0  0  0  0  0  0
    4.1620    5.9290   18.0350 C   0  0  0  0  0  0  0  0  0  0  0  0
    3.4870    5.9290   19.2500 N   0  0  0  0  0  0  0  0  0  0  0  0
    2.7680    7.0150   19.1880 C   0  0  0  0  0  0  0  0  0  0  0  0
    1.6430    7.8080   20.2000 S   0  0  0  0  0  0  0  0  0  0  0  0
    0.7350   10.8040   18.3180 H   0  0  0  0  0  0  0  0  0  0  0  0
    4.1450    7.4050   16.3130 H   0  0  0  0  0  0  0  0  0  0  0  0
    5.1090    4.8300   17.6820 C   0  0  0  0  0  0  0  0  0  0  0  0
    6.5820    5.2270   17.8530 C   0  0  0  0  0  0  0  0  0  0  0  0
    7.3080    4.4870   16.7370 C   0  0  0  0  0  0  0  0  0  0  0  0
    6.3320    4.5880   15.5770 C   0  0  0  0  0  0  0  0  0  0  0  0
    4.9710    4.3550   16.2230 C   0  0  0  0  0  0  0  0  0  0  0  0
    4.9040    3.9700   18.3370 H   0  0  0  0  0  0  0  0  0  0  0  0
    6.9670    4.9530   18.8410 H   0  0  0  0  0  0  0  0  0  0  0  0
    6.7290    6.3080   17.7320 H   0  0  0  0  0  0  0  0  0  0  0  0
    7.4680    3.4390   17.0150 H   0  0  0  0  0  0  0  0  0  0  0  0
    8.2780    4.9340   16.5040 H   0  0  0  0  0  0  0  0  0  0  0  0
    6.3700    5.5900   15.1350 H   0  0  0  0  0  0  0  0  0  0  0  0
    6.5480    3.8590   14.7870 H   0  0  0  0  0  0  0  0  0  0  0  0
    4.7450    3.2800   16.2160 H   0  0  0  0  0  0  0  0  0  0  0  0
    4.1720    4.8560   15.6630 H   0  0  0  0  0  0  0  0  0  0  0  0
    0.0600   10.5660   20.2790 C   0  0  0  0  0  0  0  0  0  0  0  0
   -0.1360    9.7050   20.9290 H   0  0  0  0  0  0  0  0  0  0  0  0
    0.7600   11.2300   20.8030 H   0  0  0  0  0  0  0  0  0  0  0  0
   -2.6930   10.3260   16.9990 C   0  0  0  0  0  0  0  0  0  0  0  0
   -3.9080   11.1960   17.0580 C   0  0  0  0  0  0  0  0  0  0  0  0
   -4.0550   11.9910   18.1240 C   0  0  0  0  0  0  0  0  0  0  0  0
   -3.0720   11.9690   19.1330 C   0  0  0  0  0  0  0  0  0  0  0  0
   -2.9490   12.6100   20.2760 N   0  0  0  0  0  0  0  0  0  0  0  0
   -1.7790   12.1890   20.8690 N   0  0  0  0  0  0  0  0  0  0  0  0
   -1.2110   11.3050   20.0670 C   0  0  0  0  0  0  0  0  0  0  0  0
   -1.9960   11.1260   18.9560 N   0  0  0  0  0  0  0  0  0  0  0  0
   -1.7630   10.2820   17.9060 N   0  0  0  0  0  0  0  0  0  0  0  0
   -4.6300   11.1620   16.2520 H   0  0  0  0  0  0  0  0  0  0  0  0
   -4.9110   12.6470   18.2380 H   0  0  0  0  0  0  0  0  0  0  0  0
   -2.5450    9.4310   15.7930 C   0  0  0  0  0  0  0  0  0  0  0  0
   -3.2930    9.7040   15.0440 H   0  0  0  0  0  0  0  0  0  0  0  0
   -1.5470    9.5660   15.3650 H   0  0  0  0  0  0  0  0  0  0  0  0
   -2.6780    8.3780   16.0540 H   0  0  0  0  0  0  0  0  0  0  0  0
  1 26  1  0  0  0  0
  2  1  1  0  0  0  0
  2  9  1  0  0  0  0
  3  4  1  0  0  0  0
  3  2  2  0  0  0  0
  4  8  1  0  0  0  0
  5  6  2  0  0  0  0
  5  4  1  0  0  0  0
  6  7  1  0  0  0  0
  8  7  2  0  0  0  0
  8  9  1  0  0  0  0
 10  1  1  0  0  0  0
 11  5  1  0  0  0  0
 12 13  1  0  0  0  0
 12  6  1  0  0  0  0
 12 17  1  0  0  0  0
 13 18  1  0  0  0  0
 14 20  1  0  0  0  0
 14 13  1  0  0  0  0
 15 16  1  0  0  0  0
 15 14  1  0  0  0  0
 16 12  1  0  0  0  0
 19 13  1  0  0  0  0
 21 14  1  0  0  0  0
 22 15  1  0  0  0  0
 23 15  1  0  0  0  0
 24 16  1  0  0  0  0
 25 16  1  0  0  0  0
 26 28  1  0  0  0  0
 26 27  1  0  0  0  0
 29 30  1  0  0  0  0
 29 37  2  0  0  0  0
 30 31  2  0  0  0  0
 31 39  1  0  0  0  0
 31 32  1  0  0  0  0
 32 33  2  0  0  0  0
 33 34  1  0  0  0  0
 35 26  1  0  0  0  0
 35 34  2  0  0  0  0
 36 32  1  0  0  0  0
 36 35  1  0  0  0  0
 37 36  1  0  0  0  0
 38 30  1  0  0  0  0
 40 43  1  0  0  0  0
 40 29  1  0  0  0  0
 41 40  1  0  0  0  0
 42 40  1  0  0  0  0
M  END
>  <MODEL>
18

>  <REMARK>
 VINA RESULT:    -6.939      2.166      2.709
 INTER + INTRA:          -8.940
 INTER:                  -8.520
 INTRA:                  -0.420
 UNBOUND:                -0.582
  Name = 
  4 active torsions:
  status: ('A' for Active; 'I' for Inactive)
    1  A    between atoms: C_1  and  C_2
    2  A    between atoms: C_8  and  C_9
    3  A    between atoms: C_9  and  N_10
    4  A    between atoms: C_15  and  C_16
                            x       y       z     vdW  Elec       q    Type
                         _______ _______ _______ _____ _____    ______ ____

>  <TORSDO>
F 4

$$$$
=
 OpenBabel07192307433D

 43 47  0  0  0  0  0  0  0  0999 V2000
    1.9740    7.9720   19.5220 N   0  0  0  0  0  0  0  0  0  0  0  0
    1.1630    8.8570   20.1560 C   0  0  0  0  0  0  0  0  0  0  0  0
    0.3220    9.6220   19.5140 N   0  0  0  0  0  0  0  0  0  0  0  0
   -0.2930   10.3700   20.4550 N   0  0  0  0  0  0  0  0  0  0  0  0
   -1.2490   11.3320   20.3740 C   0  0  0  0  0  0  0  0  0  0  0  0
   -1.4570   11.7320   21.6900 C   0  0  0  0  0  0  0  0  0  0  0  0
   -0.6510   11.0080   22.5620 N   0  0  0  0  0  0  0  0  0  0  0  0
    0.0180   10.2240   21.7640 C   0  0  0  0  0  0  0  0  0  0  0  0
    1.2190    9.0220   21.9390 S   0  0  0  0  0  0  0  0  0  0  0  0
    1.8080    7.8720   18.5230 H   0  0  0  0  0  0  0  0  0  0  0  0
   -1.6820   11.6390   19.4350 H   0  0  0  0  0  0  0  0  0  0  0  0
   -2.3970   12.7750   22.1970 C   0  0  0  0  0  0  0  0  0  0  0  0
   -3.1220   12.3550   23.4840 C   0  0  0  0  0  0  0  0  0  0  0  0
   -4.5040   12.9830   23.3660 C   0  0  0  0  0  0  0  0  0  0  0  0
   -4.8240   12.8150   21.8900 C   0  0  0  0  0  0  0  0  0  0  0  0
   -3.5070   13.1330   21.1920 C   0  0  0  0  0  0  0  0  0  0  0  0
   -1.8220   13.6890   22.4060 H   0  0  0  0  0  0  0  0  0  0  0  0
   -2.5940   12.6980   24.3810 H   0  0  0  0  0  0  0  0  0  0  0  0
   -3.2200   11.2640   23.5590 H   0  0  0  0  0  0  0  0  0  0  0  0
   -4.4640   14.0460   23.6320 H   0  0  0  0  0  0  0  0  0  0  0  0
   -5.2400   12.4940   24.0100 H   0  0  0  0  0  0  0  0  0  0  0  0
   -5.1170   11.7790   21.6820 H   0  0  0  0  0  0  0  0  0  0  0  0
   -5.6380   13.4720   21.5630 H   0  0  0  0  0  0  0  0  0  0  0  0
   -3.4600   14.2110   20.9770 H   0  0  0  0  0  0  0  0  0  0  0  0
   -3.4270   12.6090   20.2310 H   0  0  0  0  0  0  0  0  0  0  0  0
    2.7030    6.8740   20.1230 C   0  0  0  0  0  0  0  0  0  0  0  0
    3.7190    6.8510   19.7100 H   0  0  0  0  0  0  0  0  0  0  0  0
    2.7830    7.0440   21.2040 H   0  0  0  0  0  0  0  0  0  0  0  0
    3.7210    3.8170   17.2910 C   0  0  0  0  0  0  0  0  0  0  0  0
    2.9000    2.5670   17.3070 C   0  0  0  0  0  0  0  0  0  0  0  0
    1.9040    2.4860   18.1970 C   0  0  0  0  0  0  0  0  0  0  0  0
    1.6800    3.5660   19.0720 C   0  0  0  0  0  0  0  0  0  0  0  0
    0.8090    3.7690   20.0370 N   0  0  0  0  0  0  0  0  0  0  0  0
    1.0560    5.0160   20.5690 N   0  0  0  0  0  0  0  0  0  0  0  0
    2.0690    5.5480   19.9070 C   0  0  0  0  0  0  0  0  0  0  0  0
    2.5050    4.6650   18.9520 N   0  0  0  0  0  0  0  0  0  0  0  0
    3.5410    4.8360   18.0780 N   0  0  0  0  0  0  0  0  0  0  0  0
    3.1280    1.7690   16.6110 H   0  0  0  0  0  0  0  0  0  0  0  0
    1.2680    1.6100   18.2690 H   0  0  0  0  0  0  0  0  0  0  0  0
    4.8440    3.8910   16.2860 C   0  0  0  0  0  0  0  0  0  0  0  0
    5.7760    4.1360   16.8020 H   0  0  0  0  0  0  0  0  0  0  0  0
    4.9520    2.9190   15.7970 H   0  0  0  0  0  0  0  0  0  0  0  0
    4.6540    4.6520   15.5250 H   0  0  0  0  0  0  0  0  0  0  0  0
  1 26  1  0  0  0  0
  1  2  1  0  0  0  0
  2  9  1  0  0  0  0
  3  2  2  0  0  0  0
  3  4  1  0  0  0  0
  4  8  1  0  0  0  0
  5  4  1  0  0  0  0
  5  6  2  0  0  0  0
  6 12  1  0  0  0  0
  6  7  1  0  0  0  0
  8  9  1  0  0  0  0
  8  7  2  0  0  0  0
 10  1  1  0  0  0  0
 11  5  1  0  0  0  0
 12 17  1  0  0  0  0
 12 13  1  0  0  0  0
 13 19  1  0  0  0  0
 13 18  1  0  0  0  0
 14 13  1  0  0  0  0
 14 20  1  0  0  0  0
 14 21  1  0  0  0  0
 15 14  1  0  0  0  0
 16 15  1  0  0  0  0
 16 12  1  0  0  0  0
 22 15  1  0  0  0  0
 23 15  1  0  0  0  0
 24 16  1  0  0  0  0
 25 16  1  0  0  0  0
 26 28  1  0  0  0  0
 27 26  1  0  0  0  0
 29 30  1  0  0  0  0
 29 37  2  0  0  0  0
 30 31  2  0  0  0  0
 31 39  1  0  0  0  0
 31 32  1  0  0  0  0
 32 33  2  0  0  0  0
 33 34  1  0  0  0  0
 35 26  1  0  0  0  0
 35 34  2  0  0  0  0
 36 32  1  0  0  0  0
 36 35  1  0  0  0  0
 37 36  1  0  0  0  0
 38 30  1  0  0  0  0
 40 41  1  0  0  0  0
 40 29  1  0  0  0  0
 42 40  1  0  0  0  0
 43 40  1  0  0  0  0
M  END
>  <MODEL>
19

>  <REMARK>
 VINA RESULT:    -6.917      2.655      8.399
 INTER + INTRA:          -8.914
 INTER:                  -8.429
 INTRA:                  -0.486
 UNBOUND:                -0.582
  Name = 
  4 active torsions:
  status: ('A' for Active; 'I' for Inactive)
    1  A    between atoms: C_1  and  C_2
    2  A    between atoms: C_8  and  C_9
    3  A    between atoms: C_9  and  N_10
    4  A    between atoms: C_15  and  C_16
                            x       y       z     vdW  Elec       q    Type
                         _______ _______ _______ _____ _____    ______ ____

>  <TORSDO>
F 4

$$$$
=
 OpenBabel07192307433D

 43 47  0  0  0  0  0  0  0  0999 V2000
    0.5700    9.8880   19.9510 N   0  0  0  0  0  0  0  0  0  0  0  0
    1.4120    8.9530   19.4430 C   0  0  0  0  0  0  0  0  0  0  0  0
    1.7370    7.8720   20.0990 N   0  0  0  0  0  0  0  0  0  0  0  0
    2.5920    7.1960   19.3020 N   0  0  0  0  0  0  0  0  0  0  0  0
    3.2510    6.0180   19.4630 C   0  0  0  0  0  0  0  0  0  0  0  0
    3.9890    5.8670   18.2940 C   0  0  0  0  0  0  0  0  0  0  0  0
    3.7670    6.9300   17.4250 N   0  0  0  0  0  0  0  0  0  0  0  0
    2.9350    7.6840   18.0880 C   0  0  0  0  0  0  0  0  0  0  0  0
    2.1380    9.1700   17.8200 S   0  0  0  0  0  0  0  0  0  0  0  0
    0.1270    9.6390   20.8320 H   0  0  0  0  0  0  0  0  0  0  0  0
    3.1460    5.4130   20.3500 H   0  0  0  0  0  0  0  0  0  0  0  0
    4.9100    4.7510   17.9250 C   0  0  0  0  0  0  0  0  0  0  0  0
    6.3870    5.1710   17.9140 C   0  0  0  0  0  0  0  0  0  0  0  0
    7.0070    4.3570   16.7860 C   0  0  0  0  0  0  0  0  0  0  0  0
    5.9160    4.3650   15.7280 C   0  0  0  0  0  0  0  0  0  0  0  0
    4.6320    4.1710   16.5260 C   0  0  0  0  0  0  0  0  0  0  0  0
    4.7860    3.9410   18.6580 H   0  0  0  0  0  0  0  0  0  0  0  0
    6.8750    4.9730   18.8750 H   0  0  0  0  0  0  0  0  0  0  0  0
    6.5060    6.2410   17.7020 H   0  0  0  0  0  0  0  0  0  0  0  0
    7.2100    3.3330   17.1210 H   0  0  0  0  0  0  0  0  0  0  0  0
    7.9410    4.7930   16.4240 H   0  0  0  0  0  0  0  0  0  0  0  0
    5.8940    5.3330   15.2140 H   0  0  0  0  0  0  0  0  0  0  0  0
    6.0610    3.5820   14.9750 H   0  0  0  0  0  0  0  0  0  0  0  0
    4.4220    3.0960   16.6200 H   0  0  0  0  0  0  0  0  0  0  0  0
    3.7720    4.6240   16.0170 H   0  0  0  0  0  0  0  0  0  0  0  0
   -0.1000   10.9450   19.2200 C   0  0  0  0  0  0  0  0  0  0  0  0
    0.6460   11.6750   18.8830 H   0  0  0  0  0  0  0  0  0  0  0  0
   -0.5790   10.5190   18.3280 H   0  0  0  0  0  0  0  0  0  0  0  0
   -4.1880   11.7510   18.2060 C   0  0  0  0  0  0  0  0  0  0  0  0
   -5.0130   12.4870   19.2130 C   0  0  0  0  0  0  0  0  0  0  0  0
   -4.4230   12.8470   20.3600 C   0  0  0  0  0  0  0  0  0  0  0  0
   -3.0690   12.5160   20.5650 C   0  0  0  0  0  0  0  0  0  0  0  0
   -2.2410   12.7170   21.5670 N   0  0  0  0  0  0  0  0  0  0  0  0
   -1.0250   12.1680   21.2230 N   0  0  0  0  0  0  0  0  0  0  0  0
   -1.1400   11.6520   20.0120 C   0  0  0  0  0  0  0  0  0  0  0  0
   -2.4190   11.8400   19.5530 N   0  0  0  0  0  0  0  0  0  0  0  0
   -2.9370   11.4330   18.3560 N   0  0  0  0  0  0  0  0  0  0  0  0
   -6.0510   12.7060   18.9980 H   0  0  0  0  0  0  0  0  0  0  0  0
   -4.9570   13.3800   21.1380 H   0  0  0  0  0  0  0  0  0  0  0  0
   -4.8700   11.3470   16.9210 C   0  0  0  0  0  0  0  0  0  0  0  0
   -5.9060   11.6940   16.9360 H   0  0  0  0  0  0  0  0  0  0  0  0
   -4.3500   11.8120   16.0780 H   0  0  0  0  0  0  0  0  0  0  0  0
   -4.8640   10.2630   16.7870 H   0  0  0  0  0  0  0  0  0  0  0  0
  1 10  1  0  0  0  0
  2  1  1  0  0  0  0
  2  3  2  0  0  0  0
  4  5  1  0  0  0  0
  4  3  1  0  0  0  0
  5 11  1  0  0  0  0
  6  5  2  0  0  0  0
  7  8  2  0  0  0  0
  7  6  1  0  0  0  0
  8  4  1  0  0  0  0
  9  8  1  0  0  0  0
  9  2  1  0  0  0  0
 12  6  1  0  0  0  0
 12 17  1  0  0  0  0
 13 12  1  0  0  0  0
 13 18  1  0  0  0  0
 14 20  1  0  0  0  0
 14 13  1  0  0  0  0
 15 16  1  0  0  0  0
 15 14  1  0  0  0  0
 16 24  1  0  0  0  0
 16 12  1  0  0  0  0
 19 13  1  0  0  0  0
 21 14  1  0  0  0  0
 22 15  1  0  0  0  0
 23 15  1  0  0  0  0
 25 16  1  0  0  0  0
 26  1  1  0  0  0  0
 26 35  1  0  0  0  0
 27 26  1  0  0  0  0
 28 26  1  0  0  0  0
 29 37  2  0  0  0  0
 29 30  1  0  0  0  0
 30 31  2  0  0  0  0
 31 32  1  0  0  0  0
 31 39  1  0  0  0  0
 32 33  2  0  0  0  0
 34 33  1  0  0  0  0
 35 34  2  0  0  0  0
 36 35  1  0  0  0  0
 36 32  1  0  0  0  0
 37 36  1  0  0  0  0
 38 30  1  0  0  0  0
 40 41  1  0  0  0  0
 40 29  1  0  0  0  0
 42 40  1  0  0  0  0
 43 40  1  0  0  0  0
M  END
>  <MODEL>
20

>  <REMARK>
 VINA RESULT:    -6.906      2.149      2.937
 INTER + INTRA:          -8.902
 INTER:                  -8.512
 INTRA:                  -0.390
 UNBOUND:                -0.582
  Name = 
  4 active torsions:
  status: ('A' for Active; 'I' for Inactive)
    1  A    between atoms: C_1  and  C_2
    2  A    between atoms: C_8  and  C_9
    3  A    between atoms: C_9  and  N_10
    4  A    between atoms: C_15  and  C_16
                            x       y       z     vdW  Elec       q    Type
                         _______ _______ _______ _____ _____    ______ ____

>  <TORSDO>
F 4

$$$$
=
 OpenBabel07192307433D

 43 47  0  0  0  0  0  0  0  0999 V2000
    1.2600   10.4870   18.1860 N   0  0  0  0  0  0  0  0  0  0  0  0
    1.6560    9.2350   18.5290 C   0  0  0  0  0  0  0  0  0  0  0  0
    2.3460    8.4730   17.7230 N   0  0  0  0  0  0  0  0  0  0  0  0
    2.5420    7.3130   18.3850 N   0  0  0  0  0  0  0  0  0  0  0  0
    3.1830    6.1640   18.0420 C   0  0  0  0  0  0  0  0  0  0  0  0
    3.0260    5.3330   19.1460 C   0  0  0  0  0  0  0  0  0  0  0  0
    2.3160    5.9750   20.1550 N   0  0  0  0  0  0  0  0  0  0  0  0
    2.0540    7.1410   19.6350 C   0  0  0  0  0  0  0  0  0  0  0  0
    1.2340    8.5550   20.1310 S   0  0  0  0  0  0  0  0  0  0  0  0
    1.6260   10.8300   17.3010 H   0  0  0  0  0  0  0  0  0  0  0  0
    3.6730    6.0380   17.0900 H   0  0  0  0  0  0  0  0  0  0  0  0
    3.5230    3.9360   19.3240 C   0  0  0  0  0  0  0  0  0  0  0  0
    3.8490    3.2410   17.9950 C   0  0  0  0  0  0  0  0  0  0  0  0
    3.4780    1.7820   18.2260 C   0  0  0  0  0  0  0  0  0  0  0  0
    2.2140    1.8860   19.0630 C   0  0  0  0  0  0  0  0  0  0  0  0
    2.5130    3.0190   20.0390 C   0  0  0  0  0  0  0  0  0  0  0  0
    4.4390    3.9680   19.9320 H   0  0  0  0  0  0  0  0  0  0  0  0
    4.9040    3.3540   17.7220 H   0  0  0  0  0  0  0  0  0  0  0  0
    3.2510    3.6440   17.1670 H   0  0  0  0  0  0  0  0  0  0  0  0
    4.2700    1.2720   18.7870 H   0  0  0  0  0  0  0  0  0  0  0  0
    3.3150    1.2410   17.2910 H   0  0  0  0  0  0  0  0  0  0  0  0
    1.3610    2.1530   18.4290 H   0  0  0  0  0  0  0  0  0  0  0  0
    1.9770    0.9470   19.5760 H   0  0  0  0  0  0  0  0  0  0  0  0
    2.9830    2.6060   20.9430 H   0  0  0  0  0  0  0  0  0  0  0  0
    1.5940    3.5260   20.3550 H   0  0  0  0  0  0  0  0  0  0  0  0
    0.7770   11.5210   19.0780 C   0  0  0  0  0  0  0  0  0  0  0  0
    1.0720   11.2750   20.1050 H   0  0  0  0  0  0  0  0  0  0  0  0
    1.2500   12.4760   18.8130 H   0  0  0  0  0  0  0  0  0  0  0  0
   -1.8280   13.1860   22.0510 C   0  0  0  0  0  0  0  0  0  0  0  0
   -3.2860   13.2530   21.7260 C   0  0  0  0  0  0  0  0  0  0  0  0
   -3.6820   12.7870   20.5350 C   0  0  0  0  0  0  0  0  0  0  0  0
   -2.7170   12.2670   19.6500 C   0  0  0  0  0  0  0  0  0  0  0  0
   -2.7960   11.7620   18.4380 N   0  0  0  0  0  0  0  0  0  0  0  0
   -1.5220   11.4130   18.0450 N   0  0  0  0  0  0  0  0  0  0  0  0
   -0.6970   11.7070   19.0340 C   0  0  0  0  0  0  0  0  0  0  0  0
   -1.4050   12.2570   20.0730 N   0  0  0  0  0  0  0  0  0  0  0  0
   -0.9100   12.7090   21.2640 N   0  0  0  0  0  0  0  0  0  0  0  0
   -3.9770   13.6700   22.4470 H   0  0  0  0  0  0  0  0  0  0  0  0
   -4.7220   12.8040   20.2280 H   0  0  0  0  0  0  0  0  0  0  0  0
   -1.3970   13.7210   23.3950 C   0  0  0  0  0  0  0  0  0  0  0  0
   -0.7930   12.9680   23.9080 H   0  0  0  0  0  0  0  0  0  0  0  0
   -0.7940   14.6210   23.2460 H   0  0  0  0  0  0  0  0  0  0  0  0
   -2.2560   13.9690   24.0230 H   0  0  0  0  0  0  0  0  0  0  0  0
  1  2  1  0  0  0  0
  1 26  1  0  0  0  0
  2  9  1  0  0  0  0
  3  4  1  0  0  0  0
  3  2  2  0  0  0  0
  4  8  1  0  0  0  0
  5  4  1  0  0  0  0
  5  6  2  0  0  0  0
  6 12  1  0  0  0  0
  6  7  1  0  0  0  0
  8  9  1  0  0  0  0
  8  7  2  0  0  0  0
 10  1  1  0  0  0  0
 11  5  1  0  0  0  0
 12 17  1  0  0  0  0
 12 16  1  0  0  0  0
 13 14  1  0  0  0  0
 13 12  1  0  0  0  0
 14 20  1  0  0  0  0
 14 15  1  0  0  0  0
 15 23  1  0  0  0  0
 15 16  1  0  0  0  0
 16 25  1  0  0  0  0
 16 24  1  0  0  0  0
 18 13  1  0  0  0  0
 19 13  1  0  0  0  0
 21 14  1  0  0  0  0
 22 15  1  0  0  0  0
 26 27  1  0  0  0  0
 28 26  1  0  0  0  0
 29 40  1  0  0  0  0
 30 29  1  0  0  0  0
 30 38  1  0  0  0  0
 31 30  2  0  0  0  0
 32 36  1  0  0  0  0
 32 31  1  0  0  0  0
 33 32  2  0  0  0  0
 34 33  1  0  0  0  0
 34 35  2  0  0  0  0
 35 26  1  0  0  0  0
 35 36  1  0  0  0  0
 36 37  1  0  0  0  0
 37 29  2  0  0  0  0
 39 31  1  0  0  0  0
 40 41  1  0  0  0  0
 40 43  1  0  0  0  0
 42 40  1  0  0  0  0
M  END
>  <MODEL>
21

>  <REMARK>
 VINA RESULT:    -6.869      1.727      2.940
 INTER + INTRA:          -8.856
 INTER:                  -8.400
 INTRA:                  -0.456
 UNBOUND:                -0.582
  Name = 
  4 active torsions:
  status: ('A' for Active; 'I' for Inactive)
    1  A    between atoms: C_1  and  C_2
    2  A    between atoms: C_8  and  C_9
    3  A    between atoms: C_9  and  N_10
    4  A    between atoms: C_15  and  C_16
                            x       y       z     vdW  Elec       q    Type
                         _______ _______ _______ _____ _____    ______ ____

>  <TORSDO>
F 4

$$$$
=
 OpenBabel07192307433D

 43 47  0  0  0  0  0  0  0  0999 V2000
    2.3250    6.9820   20.0590 N   0  0  0  0  0  0  0  0  0  0  0  0
    1.5800    8.1160   20.0510 C   0  0  0  0  0  0  0  0  0  0  0  0
    1.5950    8.9570   19.0520 N   0  0  0  0  0  0  0  0  0  0  0  0
    0.7570    9.9590   19.3960 N   0  0  0  0  0  0  0  0  0  0  0  0
    0.3860   11.0980   18.7550 C   0  0  0  0  0  0  0  0  0  0  0  0
   -0.4940   11.7220   19.6330 C   0  0  0  0  0  0  0  0  0  0  0  0
   -0.6710   10.9630   20.7840 N   0  0  0  0  0  0  0  0  0  0  0  0
    0.1050    9.9350   20.5810 C   0  0  0  0  0  0  0  0  0  0  0  0
    0.5270    8.5210   21.4420 S   0  0  0  0  0  0  0  0  0  0  0  0
    2.8160    6.7800   19.1910 H   0  0  0  0  0  0  0  0  0  0  0  0
    0.7590   11.3590   17.7770 H   0  0  0  0  0  0  0  0  0  0  0  0
   -1.2080   13.0210   19.4510 C   0  0  0  0  0  0  0  0  0  0  0  0
   -0.3210   14.2410   19.7400 C   0  0  0  0  0  0  0  0  0  0  0  0
   -1.2670   15.2650   20.3520 C   0  0  0  0  0  0  0  0  0  0  0  0
   -2.1730   14.4090   21.2200 C   0  0  0  0  0  0  0  0  0  0  0  0
   -2.4370   13.1730   20.3670 C   0  0  0  0  0  0  0  0  0  0  0  0
   -1.5540   13.0850   18.4090 H   0  0  0  0  0  0  0  0  0  0  0  0
    0.1600   14.6210   18.8320 H   0  0  0  0  0  0  0  0  0  0  0  0
    0.4760   14.0040   20.4570 H   0  0  0  0  0  0  0  0  0  0  0  0
   -1.8470   15.7650   19.5660 H   0  0  0  0  0  0  0  0  0  0  0  0
   -0.7380   16.0280   20.9280 H   0  0  0  0  0  0  0  0  0  0  0  0
   -1.6530   14.1230   22.1420 H   0  0  0  0  0  0  0  0  0  0  0  0
   -3.0970   14.9280   21.4970 H   0  0  0  0  0  0  0  0  0  0  0  0
   -3.3270   13.3440   19.7460 H   0  0  0  0  0  0  0  0  0  0  0  0
   -2.6420   12.2930   20.9900 H   0  0  0  0  0  0  0  0  0  0  0  0
    2.1640    5.8410   20.9380 C   0  0  0  0  0  0  0  0  0  0  0  0
    3.0850    5.7050   21.5190 H   0  0  0  0  0  0  0  0  0  0  0  0
    1.3480    6.0430   21.6440 H   0  0  0  0  0  0  0  0  0  0  0  0
    4.3570    3.9090   17.7990 C   0  0  0  0  0  0  0  0  0  0  0  0
    3.8050    2.6250   17.2670 C   0  0  0  0  0  0  0  0  0  0  0  0
    2.6660    2.1660   17.8010 C   0  0  0  0  0  0  0  0  0  0  0  0
    2.0490    2.9030   18.8310 C   0  0  0  0  0  0  0  0  0  0  0  0
    0.9600    2.7060   19.5410 N   0  0  0  0  0  0  0  0  0  0  0  0
    0.8400    3.7570   20.4240 N   0  0  0  0  0  0  0  0  0  0  0  0
    1.8570    4.5760   20.2230 C   0  0  0  0  0  0  0  0  0  0  0  0
    2.6580    4.0750   19.2270 N   0  0  0  0  0  0  0  0  0  0  0  0
    3.8140    4.6190   18.7430 N   0  0  0  0  0  0  0  0  0  0  0  0
    4.3310    2.1030   16.4780 H   0  0  0  0  0  0  0  0  0  0  0  0
    2.2080    1.2420   17.4680 H   0  0  0  0  0  0  0  0  0  0  0  0
    5.6450    4.4100   17.1920 C   0  0  0  0  0  0  0  0  0  0  0  0
    6.2270    4.9310   17.9560 H   0  0  0  0  0  0  0  0  0  0  0  0
    6.2220    3.5570   16.8220 H   0  0  0  0  0  0  0  0  0  0  0  0
    5.4580    5.0970   16.3630 H   0  0  0  0  0  0  0  0  0  0  0  0
  1 26  1  0  0  0  0
  2  1  1  0  0  0  0
  2  9  1  0  0  0  0
  3  4  1  0  0  0  0
  3  2  2  0  0  0  0
  4  8  1  0  0  0  0
  5  4  1  0  0  0  0
  5  6  2  0  0  0  0
  6  7  1  0  0  0  0
  8  7  2  0  0  0  0
  8  9  1  0  0  0  0
 10  1  1  0  0  0  0
 11  5  1  0  0  0  0
 12  6  1  0  0  0  0
 12 13  1  0  0  0  0
 12 16  1  0  0  0  0
 13 14  1  0  0  0  0
 13 19  1  0  0  0  0
 14 21  1  0  0  0  0
 14 15  1  0  0  0  0
 15 23  1  0  0  0  0
 15 22  1  0  0  0  0
 16 25  1  0  0  0  0
 16 15  1  0  0  0  0
 17 12  1  0  0  0  0
 18 13  1  0  0  0  0
 20 14  1  0  0  0  0
 24 16  1  0  0  0  0
 26 27  1  0  0  0  0
 26 28  1  0  0  0  0
 29 37  2  0  0  0  0
 30 29  1  0  0  0  0
 30 31  2  0  0  0  0
 31 32  1  0  0  0  0
 32 36  1  0  0  0  0
 32 33  2  0  0  0  0
 33 34  1  0  0  0  0
 35 34  2  0  0  0  0
 35 26  1  0  0  0  0
 36 35  1  0  0  0  0
 37 36  1  0  0  0  0
 38 30  1  0  0  0  0
 39 31  1  0  0  0  0
 40 29  1  0  0  0  0
 40 41  1  0  0  0  0
 42 40  1  0  0  0  0
 43 40  1  0  0  0  0
M  END
>  <MODEL>
22

>  <REMARK>
 VINA RESULT:    -6.847      2.361      8.612
 INTER + INTRA:          -8.830
 INTER:                  -8.158
 INTRA:                  -0.671
 UNBOUND:                -0.582
  Name = 
  4 active torsions:
  status: ('A' for Active; 'I' for Inactive)
    1  A    between atoms: C_1  and  C_2
    2  A    between atoms: C_8  and  C_9
    3  A    between atoms: C_9  and  N_10
    4  A    between atoms: C_15  and  C_16
                            x       y       z     vdW  Elec       q    Type
                         _______ _______ _______ _____ _____    ______ ____

>  <TORSDO>
F 4

$$$$
=
 OpenBabel07192307433D

 43 47  0  0  0  0  0  0  0  0999 V2000
    1.7030    7.3810   21.0210 N   0  0  0  0  0  0  0  0  0  0  0  0
    0.9690    8.5100   21.1870 C   0  0  0  0  0  0  0  0  0  0  0  0
    0.3580    8.7900   22.3060 N   0  0  0  0  0  0  0  0  0  0  0  0
   -0.2750    9.9650   22.1010 N   0  0  0  0  0  0  0  0  0  0  0  0
   -1.0610   10.7310   22.9030 C   0  0  0  0  0  0  0  0  0  0  0  0
   -1.4200   11.8150   22.1100 C   0  0  0  0  0  0  0  0  0  0  0  0
   -0.8440   11.7210   20.8480 N   0  0  0  0  0  0  0  0  0  0  0  0
   -0.1850   10.5980   20.9090 C   0  0  0  0  0  0  0  0  0  0  0  0
    0.7950    9.6860   19.8470 S   0  0  0  0  0  0  0  0  0  0  0  0
    1.8310    6.8200   21.8600 H   0  0  0  0  0  0  0  0  0  0  0  0
   -1.2890   10.4550   23.9210 H   0  0  0  0  0  0  0  0  0  0  0  0
   -2.2880   12.9750   22.4750 C   0  0  0  0  0  0  0  0  0  0  0  0
   -1.7710   13.7530   23.6930 C   0  0  0  0  0  0  0  0  0  0  0  0
   -3.0300   14.2180   24.4110 C   0  0  0  0  0  0  0  0  0  0  0  0
   -3.9640   13.0300   24.2570 C   0  0  0  0  0  0  0  0  0  0  0  0
   -3.7320   12.5670   22.8230 C   0  0  0  0  0  0  0  0  0  0  0  0
   -2.3280   13.6620   21.6170 H   0  0  0  0  0  0  0  0  0  0  0  0
   -1.1340   14.5950   23.4010 H   0  0  0  0  0  0  0  0  0  0  0  0
   -1.1810   13.1140   24.3640 H   0  0  0  0  0  0  0  0  0  0  0  0
   -3.4480   15.1030   23.9150 H   0  0  0  0  0  0  0  0  0  0  0  0
   -2.8440   14.4670   25.4590 H   0  0  0  0  0  0  0  0  0  0  0  0
   -3.6830   12.2340   24.9570 H   0  0  0  0  0  0  0  0  0  0  0  0
   -5.0100   13.2950   24.4440 H   0  0  0  0  0  0  0  0  0  0  0  0
   -4.4240   13.0960   22.1530 H   0  0  0  0  0  0  0  0  0  0  0  0
   -3.9320   11.4940   22.7110 H   0  0  0  0  0  0  0  0  0  0  0  0
    2.6610    7.1130   19.9670 C   0  0  0  0  0  0  0  0  0  0  0  0
    2.8110    8.0260   19.3790 H   0  0  0  0  0  0  0  0  0  0  0  0
    3.6240    6.8400   20.4180 H   0  0  0  0  0  0  0  0  0  0  0  0
    1.6200    3.0580   20.9020 C   0  0  0  0  0  0  0  0  0  0  0  0
    1.2370    2.1680   19.7630 C   0  0  0  0  0  0  0  0  0  0  0  0
    1.2470    2.6920   18.5310 C   0  0  0  0  0  0  0  0  0  0  0  0
    1.6090    4.0430   18.3660 C   0  0  0  0  0  0  0  0  0  0  0  0
    1.6970    4.8230   17.3100 N   0  0  0  0  0  0  0  0  0  0  0  0
    2.0970    6.0690   17.7410 N   0  0  0  0  0  0  0  0  0  0  0  0
    2.2500    6.0160   19.0520 C   0  0  0  0  0  0  0  0  0  0  0  0
    1.9470    4.7550   19.4980 N   0  0  0  0  0  0  0  0  0  0  0  0
    1.9650    4.3070   20.7890 N   0  0  0  0  0  0  0  0  0  0  0  0
    0.9630    1.1390   19.9570 H   0  0  0  0  0  0  0  0  0  0  0  0
    0.9790    2.1090   17.6570 H   0  0  0  0  0  0  0  0  0  0  0  0
    1.5980    2.4550   22.2850 C   0  0  0  0  0  0  0  0  0  0  0  0
    0.9580    1.5690   22.2830 H   0  0  0  0  0  0  0  0  0  0  0  0
    2.6140    2.1610   22.5650 H   0  0  0  0  0  0  0  0  0  0  0  0
    1.2170    3.1620   23.0260 H   0  0  0  0  0  0  0  0  0  0  0  0
  1  2  1  0  0  0  0
  1 10  1  0  0  0  0
  2  3  2  0  0  0  0
  4  3  1  0  0  0  0
  4  5  1  0  0  0  0
  5 11  1  0  0  0  0
  6 12  1  0  0  0  0
  6  5  2  0  0  0  0
  7  8  2  0  0  0  0
  7  6  1  0  0  0  0
  8  4  1  0  0  0  0
  9  8  1  0  0  0  0
  9  2  1  0  0  0  0
 12 16  1  0  0  0  0
 12 13  1  0  0  0  0
 13 19  1  0  0  0  0
 13 14  1  0  0  0  0
 14 21  1  0  0  0  0
 15 14  1  0  0  0  0
 15 23  1  0  0  0  0
 15 22  1  0  0  0  0
 16 15  1  0  0  0  0
 17 12  1  0  0  0  0
 18 13  1  0  0  0  0
 20 14  1  0  0  0  0
 24 16  1  0  0  0  0
 25 16  1  0  0  0  0
 26 28  1  0  0  0  0
 26  1  1  0  0  0  0
 27 26  1  0  0  0  0
 29 40  1  0  0  0  0
 30 38  1  0  0  0  0
 30 29  1  0  0  0  0
 31 30  2  0  0  0  0
 32 31  1  0  0  0  0
 32 36  1  0  0  0  0
 33 34  1  0  0  0  0
 33 32  2  0  0  0  0
 34 35  2  0  0  0  0
 35 36  1  0  0  0  0
 35 26  1  0  0  0  0
 36 37  1  0  0  0  0
 37 29  2  0  0  0  0
 39 31  1  0  0  0  0
 40 42  1  0  0  0  0
 40 43  1  0  0  0  0
 41 40  1  0  0  0  0
M  END
>  <MODEL>
23

>  <REMARK>
 VINA RESULT:    -6.842      3.026      8.601
 INTER + INTRA:          -8.824
 INTER:                  -8.131
 INTRA:                  -0.693
 UNBOUND:                -0.582
  Name = 
  4 active torsions:
  status: ('A' for Active; 'I' for Inactive)
    1  A    between atoms: C_1  and  C_2
    2  A    between atoms: C_8  and  C_9
    3  A    between atoms: C_9  and  N_10
    4  A    between atoms: C_15  and  C_16
                            x       y       z     vdW  Elec       q    Type
                         _______ _______ _______ _____ _____    ______ ____

>  <TORSDO>
F 4

$$$$
=
 OpenBabel07192307433D

 43 47  0  0  0  0  0  0  0  0999 V2000
   -0.1030   10.6800   20.5960 N   0  0  0  0  0  0  0  0  0  0  0  0
    0.6790    9.6570   20.1680 C   0  0  0  0  0  0  0  0  0  0  0  0
    1.2400    9.6500   18.9890 N   0  0  0  0  0  0  0  0  0  0  0  0
    1.9180    8.4850   18.9060 N   0  0  0  0  0  0  0  0  0  0  0  0
    2.6780    7.9400   17.9210 C   0  0  0  0  0  0  0  0  0  0  0  0
    3.0940    6.7170   18.4350 C   0  0  0  0  0  0  0  0  0  0  0  0
    2.6090    6.5280   19.7240 N   0  0  0  0  0  0  0  0  0  0  0  0
    1.9140    7.6110   19.9380 C   0  0  0  0  0  0  0  0  0  0  0  0
    0.9730    8.2370   21.2190 S   0  0  0  0  0  0  0  0  0  0  0  0
   -0.1360   11.4880   19.9790 H   0  0  0  0  0  0  0  0  0  0  0  0
    2.8530    8.4420   16.9810 H   0  0  0  0  0  0  0  0  0  0  0  0
    3.9500    5.6850   17.7770 C   0  0  0  0  0  0  0  0  0  0  0  0
    3.1830    4.4030   17.4250 C   0  0  0  0  0  0  0  0  0  0  0  0
    4.1980    3.2850   17.6190 C   0  0  0  0  0  0  0  0  0  0  0  0
    4.9600    3.7340   18.8540 C   0  0  0  0  0  0  0  0  0  0  0  0
    5.1370    5.2350   18.6490 C   0  0  0  0  0  0  0  0  0  0  0  0
    4.3560    6.1120   16.8480 H   0  0  0  0  0  0  0  0  0  0  0  0
    2.7940    4.4270   16.4010 H   0  0  0  0  0  0  0  0  0  0  0  0
    2.3280    4.2420   18.0950 H   0  0  0  0  0  0  0  0  0  0  0  0
    4.8690    3.2240   16.7540 H   0  0  0  0  0  0  0  0  0  0  0  0
    3.7230    2.3100   17.7550 H   0  0  0  0  0  0  0  0  0  0  0  0
    4.3650    3.5480   19.7550 H   0  0  0  0  0  0  0  0  0  0  0  0
    5.9180    3.2140   18.9640 H   0  0  0  0  0  0  0  0  0  0  0  0
    6.0730    5.4190   18.1020 H   0  0  0  0  0  0  0  0  0  0  0  0
    5.2140    5.7630   19.6070 H   0  0  0  0  0  0  0  0  0  0  0  0
   -0.5150   10.9490   21.9590 C   0  0  0  0  0  0  0  0  0  0  0  0
   -1.4770   10.4570   22.1460 H   0  0  0  0  0  0  0  0  0  0  0  0
    0.2230   10.5190   22.6500 H   0  0  0  0  0  0  0  0  0  0  0  0
   -3.5940   12.9700   24.1560 C   0  0  0  0  0  0  0  0  0  0  0  0
   -3.4640   14.4520   24.3150 C   0  0  0  0  0  0  0  0  0  0  0  0
   -2.4020   15.0480   23.7600 C   0  0  0  0  0  0  0  0  0  0  0  0
   -1.4630   14.2610   23.0650 C   0  0  0  0  0  0  0  0  0  0  0  0
   -0.3410   14.5510   22.4410 N   0  0  0  0  0  0  0  0  0  0  0  0
    0.1760   13.3760   21.9420 N   0  0  0  0  0  0  0  0  0  0  0  0
   -0.6500   12.3960   22.2670 C   0  0  0  0  0  0  0  0  0  0  0  0
   -1.7020   12.9050   22.9860 N   0  0  0  0  0  0  0  0  0  0  0  0
   -2.7530   12.2120   23.5180 N   0  0  0  0  0  0  0  0  0  0  0  0
   -4.2180   14.9990   24.8660 H   0  0  0  0  0  0  0  0  0  0  0  0
   -2.2400   16.1180   23.8350 H   0  0  0  0  0  0  0  0  0  0  0  0
   -4.7940   12.3120   24.7920 C   0  0  0  0  0  0  0  0  0  0  0  0
   -4.8330   11.2620   24.4920 H   0  0  0  0  0  0  0  0  0  0  0  0
   -4.7000   12.3690   25.8800 H   0  0  0  0  0  0  0  0  0  0  0  0
   -5.7260   12.7970   24.4910 H   0  0  0  0  0  0  0  0  0  0  0  0
  1 26  1  0  0  0  0
  2  1  1  0  0  0  0
  2  9  1  0  0  0  0
  3  2  2  0  0  0  0
  4  3  1  0  0  0  0
  4  8  1  0  0  0  0
  5  6  2  0  0  0  0
  5  4  1  0  0  0  0
  6  7  1  0  0  0  0
  7  8  2  0  0  0  0
  8  9  1  0  0  0  0
 10  1  1  0  0  0  0
 11  5  1  0  0  0  0
 12  6  1  0  0  0  0
 12 16  1  0  0  0  0
 13 14  1  0  0  0  0
 13 12  1  0  0  0  0
 13 19  1  0  0  0  0
 14 21  1  0  0  0  0
 14 15  1  0  0  0  0
 15 23  1  0  0  0  0
 15 22  1  0  0  0  0
 16 15  1  0  0  0  0
 16 25  1  0  0  0  0
 17 12  1  0  0  0  0
 18 13  1  0  0  0  0
 20 14  1  0  0  0  0
 24 16  1  0  0  0  0
 26 27  1  0  0  0  0
 26 35  1  0  0  0  0
 26 28  1  0  0  0  0
 29 30  1  0  0  0  0
 29 40  1  0  0  0  0
 30 38  1  0  0  0  0
 31 39  1  0  0  0  0
 31 30  2  0  0  0  0
 32 31  1  0  0  0  0
 33 32  2  0  0  0  0
 34 35  2  0  0  0  0
 34 33  1  0  0  0  0
 35 36  1  0  0  0  0
 36 32  1  0  0  0  0
 36 37  1  0  0  0  0
 37 29  2  0  0  0  0
 40 42  1  0  0  0  0
 41 40  1  0  0  0  0
 43 40  1  0  0  0  0
M  END
>  <MODEL>
24

>  <REMARK>
 VINA RESULT:    -6.810      3.310      4.371
 INTER + INTRA:          -8.785
 INTER:                  -8.388
 INTRA:                  -0.397
 UNBOUND:                -0.582
  Name = 
  4 active torsions:
  status: ('A' for Active; 'I' for Inactive)
    1  A    between atoms: C_1  and  C_2
    2  A    between atoms: C_8  and  C_9
    3  A    between atoms: C_9  and  N_10
    4  A    between atoms: C_15  and  C_16
                            x       y       z     vdW  Elec       q    Type
                         _______ _______ _______ _____ _____    ______ ____

>  <TORSDO>
F 4

$$$$
=
 OpenBabel07192307433D

 43 47  0  0  0  0  0  0  0  0999 V2000
    0.8210   10.0610   20.3890 N   0  0  0  0  0  0  0  0  0  0  0  0
    1.4100    8.9760   19.8250 C   0  0  0  0  0  0  0  0  0  0  0  0
    1.5980    7.8620   20.4790 N   0  0  0  0  0  0  0  0  0  0  0  0
    2.2150    7.0240   19.6180 N   0  0  0  0  0  0  0  0  0  0  0  0
    2.6540    5.7450   19.7470 C   0  0  0  0  0  0  0  0  0  0  0  0
    3.2150    5.4410   18.5110 C   0  0  0  0  0  0  0  0  0  0  0  0
    3.1010    6.5150   17.6350 N   0  0  0  0  0  0  0  0  0  0  0  0
    2.5060    7.4220   18.3580 C   0  0  0  0  0  0  0  0  0  0  0  0
    1.9760    9.0300   18.1270 S   0  0  0  0  0  0  0  0  0  0  0  0
    0.4410    9.9120   21.3210 H   0  0  0  0  0  0  0  0  0  0  0  0
    2.5390    5.1830   20.6600 H   0  0  0  0  0  0  0  0  0  0  0  0
    3.8630    4.1650   18.0830 C   0  0  0  0  0  0  0  0  0  0  0  0
    2.8550    3.1090   17.6070 C   0  0  0  0  0  0  0  0  0  0  0  0
    3.4570    1.7820   18.0480 C   0  0  0  0  0  0  0  0  0  0  0  0
    4.0490    2.1160   19.4060 C   0  0  0  0  0  0  0  0  0  0  0  0
    4.6760    3.4910   19.2040 C   0  0  0  0  0  0  0  0  0  0  0  0
    4.5500    4.3860   17.2530 H   0  0  0  0  0  0  0  0  0  0  0  0
    2.7030    3.1480   16.5230 H   0  0  0  0  0  0  0  0  0  0  0  0
    1.8730    3.2410   18.0800 H   0  0  0  0  0  0  0  0  0  0  0  0
    4.2440    1.4700   17.3510 H   0  0  0  0  0  0  0  0  0  0  0  0
    2.7100    0.9850   18.1040 H   0  0  0  0  0  0  0  0  0  0  0  0
    3.2570    2.1740   20.1610 H   0  0  0  0  0  0  0  0  0  0  0  0
    4.7810    1.3700   19.7360 H   0  0  0  0  0  0  0  0  0  0  0  0
    5.7160    3.3710   18.8680 H   0  0  0  0  0  0  0  0  0  0  0  0
    4.7030    4.0600   20.1410 H   0  0  0  0  0  0  0  0  0  0  0  0
    0.2840   11.2160   19.6990 C   0  0  0  0  0  0  0  0  0  0  0  0
    0.7590   11.2970   18.7130 H   0  0  0  0  0  0  0  0  0  0  0  0
   -0.7940   11.0740   19.5420 H   0  0  0  0  0  0  0  0  0  0  0  0
   -1.9540   12.8190   22.9880 C   0  0  0  0  0  0  0  0  0  0  0  0
   -1.5180   14.1410   23.5350 C   0  0  0  0  0  0  0  0  0  0  0  0
   -0.4650   14.7360   22.9620 C   0  0  0  0  0  0  0  0  0  0  0  0
    0.1810   14.0960   21.8870 C   0  0  0  0  0  0  0  0  0  0  0  0
    1.2210   14.4190   21.1490 N   0  0  0  0  0  0  0  0  0  0  0  0
    1.4150   13.4070   20.2340 N   0  0  0  0  0  0  0  0  0  0  0  0
    0.4810   12.4940   20.4320 C   0  0  0  0  0  0  0  0  0  0  0  0
   -0.3230   12.8810   21.4740 N   0  0  0  0  0  0  0  0  0  0  0  0
   -1.3880   12.2000   21.9950 N   0  0  0  0  0  0  0  0  0  0  0  0
   -2.0540   14.5780   24.3680 H   0  0  0  0  0  0  0  0  0  0  0  0
   -0.0910   15.6950   23.3060 H   0  0  0  0  0  0  0  0  0  0  0  0
   -3.1390   12.1570   23.6480 C   0  0  0  0  0  0  0  0  0  0  0  0
   -4.0310   12.7670   23.4850 H   0  0  0  0  0  0  0  0  0  0  0  0
   -3.2940   11.1710   23.2010 H   0  0  0  0  0  0  0  0  0  0  0  0
   -2.9860   12.0380   24.7230 H   0  0  0  0  0  0  0  0  0  0  0  0
  1 10  1  0  0  0  0
  2  1  1  0  0  0  0
  2  3  2  0  0  0  0
  4  5  1  0  0  0  0
  4  3  1  0  0  0  0
  5 11  1  0  0  0  0
  6  5  2  0  0  0  0
  7  8  2  0  0  0  0
  7  6  1  0  0  0  0
  8  4  1  0  0  0  0
  9  8  1  0  0  0  0
  9  2  1  0  0  0  0
 12  6  1  0  0  0  0
 12 16  1  0  0  0  0
 13 14  1  0  0  0  0
 13 19  1  0  0  0  0
 13 12  1  0  0  0  0
 14 21  1  0  0  0  0
 14 15  1  0  0  0  0
 15 23  1  0  0  0  0
 15 22  1  0  0  0  0
 16 15  1  0  0  0  0
 16 25  1  0  0  0  0
 17 12  1  0  0  0  0
 18 13  1  0  0  0  0
 20 14  1  0  0  0  0
 24 16  1  0  0  0  0
 26  1  1  0  0  0  0
 26 35  1  0  0  0  0
 27 26  1  0  0  0  0
 28 26  1  0  0  0  0
 29 30  1  0  0  0  0
 29 40  1  0  0  0  0
 30 38  1  0  0  0  0
 31 39  1  0  0  0  0
 31 30  2  0  0  0  0
 32 31  1  0  0  0  0
 33 32  2  0  0  0  0
 34 35  2  0  0  0  0
 34 33  1  0  0  0  0
 35 36  1  0  0  0  0
 36 32  1  0  0  0  0
 36 37  1  0  0  0  0
 37 29  2  0  0  0  0
 40 43  1  0  0  0  0
 41 40  1  0  0  0  0
 42 40  1  0  0  0  0
M  END
>  <MODEL>
25

>  <REMARK>
 VINA RESULT:    -6.785      2.944      4.062
 INTER + INTRA:          -8.755
 INTER:                  -8.235
 INTRA:                  -0.520
 UNBOUND:                -0.582
  Name = 
  4 active torsions:
  status: ('A' for Active; 'I' for Inactive)
    1  A    between atoms: C_1  and  C_2
    2  A    between atoms: C_8  and  C_9
    3  A    between atoms: C_9  and  N_10
    4  A    between atoms: C_15  and  C_16
                            x       y       z     vdW  Elec       q    Type
                         _______ _______ _______ _____ _____    ______ ____

>  <TORSDO>
F 4

$$$$
=
 OpenBabel07192307433D

 43 47  0  0  0  0  0  0  0  0999 V2000
    0.7220    8.9060   20.4890 N   0  0  0  0  0  0  0  0  0  0  0  0
    1.6090    8.1760   19.7650 C   0  0  0  0  0  0  0  0  0  0  0  0
    2.1490    7.0780   20.2210 N   0  0  0  0  0  0  0  0  0  0  0  0
    2.9780    6.6410   19.2500 N   0  0  0  0  0  0  0  0  0  0  0  0
    3.7970    5.5590   19.1690 C   0  0  0  0  0  0  0  0  0  0  0  0
    4.3980    5.6680   17.9190 C   0  0  0  0  0  0  0  0  0  0  0  0
    3.9350    6.7900   17.2410 N   0  0  0  0  0  0  0  0  0  0  0  0
    3.1020    7.3240   18.0890 C   0  0  0  0  0  0  0  0  0  0  0  0
    2.0930    8.7020   18.1230 S   0  0  0  0  0  0  0  0  0  0  0  0
    0.4280    8.4850   21.3670 H   0  0  0  0  0  0  0  0  0  0  0  0
    3.8820    4.8370   19.9660 H   0  0  0  0  0  0  0  0  0  0  0  0
    5.4020    4.7540   17.2980 C   0  0  0  0  0  0  0  0  0  0  0  0
    6.6430    5.4910   16.7750 C   0  0  0  0  0  0  0  0  0  0  0  0
    7.0530    4.7130   15.5310 C   0  0  0  0  0  0  0  0  0  0  0  0
    5.7170    4.3520   14.9050 C   0  0  0  0  0  0  0  0  0  0  0  0
    4.8470    3.9670   16.0970 C   0  0  0  0  0  0  0  0  0  0  0  0
    5.7270    4.0270   18.0570 H   0  0  0  0  0  0  0  0  0  0  0  0
    7.4460    5.5210   17.5190 H   0  0  0  0  0  0  0  0  0  0  0  0
    6.4140    6.5290   16.4980 H   0  0  0  0  0  0  0  0  0  0  0  0
    7.6030    3.8070   15.8130 H   0  0  0  0  0  0  0  0  0  0  0  0
    7.6810    5.3030   14.8590 H   0  0  0  0  0  0  0  0  0  0  0  0
    5.2890    5.2240   14.3960 H   0  0  0  0  0  0  0  0  0  0  0  0
    5.8050    3.5400   14.1750 H   0  0  0  0  0  0  0  0  0  0  0  0
    4.9550    2.8900   16.2930 H   0  0  0  0  0  0  0  0  0  0  0  0
    3.7850    4.1520   15.8930 H   0  0  0  0  0  0  0  0  0  0  0  0
   -0.1630    9.9400   19.9930 C   0  0  0  0  0  0  0  0  0  0  0  0
    0.1270   10.1980   18.9660 H   0  0  0  0  0  0  0  0  0  0  0  0
   -1.1900    9.5520   19.9650 H   0  0  0  0  0  0  0  0  0  0  0  0
    2.1440   13.5190   19.4800 C   0  0  0  0  0  0  0  0  0  0  0  0
    1.9350   14.6180   20.4730 C   0  0  0  0  0  0  0  0  0  0  0  0
    1.0480   14.4120   21.4540 C   0  0  0  0  0  0  0  0  0  0  0  0
    0.3560   13.1870   21.5040 C   0  0  0  0  0  0  0  0  0  0  0  0
   -0.5600   12.7100   22.3180 N   0  0  0  0  0  0  0  0  0  0  0  0
   -0.8890   11.4440   21.8830 N   0  0  0  0  0  0  0  0  0  0  0  0
   -0.1570   11.1770   20.8160 C   0  0  0  0  0  0  0  0  0  0  0  0
    0.6440   12.2530   20.5300 N   0  0  0  0  0  0  0  0  0  0  0  0
    1.5290   12.3740   19.4960 N   0  0  0  0  0  0  0  0  0  0  0  0
    2.4940   15.5400   20.3760 H   0  0  0  0  0  0  0  0  0  0  0  0
    0.8420   15.1640   22.2090 H   0  0  0  0  0  0  0  0  0  0  0  0
    3.1420   13.7690   18.3760 C   0  0  0  0  0  0  0  0  0  0  0  0
    3.3870   14.8330   18.3430 H   0  0  0  0  0  0  0  0  0  0  0  0
    4.0530   13.1990   18.5810 H   0  0  0  0  0  0  0  0  0  0  0  0
    2.7480   13.4690   17.4020 H   0  0  0  0  0  0  0  0  0  0  0  0
  1 10  1  0  0  0  0
  2  3  2  0  0  0  0
  2  1  1  0  0  0  0
  4  3  1  0  0  0  0
  5  4  1  0  0  0  0
  5 11  1  0  0  0  0
  6  5  2  0  0  0  0
  7  6  1  0  0  0  0
  7  8  2  0  0  0  0
  8  9  1  0  0  0  0
  8  4  1  0  0  0  0
  9  2  1  0  0  0  0
 12  6  1  0  0  0  0
 12 17  1  0  0  0  0
 13 12  1  0  0  0  0
 13 18  1  0  0  0  0
 14 20  1  0  0  0  0
 14 13  1  0  0  0  0
 15 14  1  0  0  0  0
 15 16  1  0  0  0  0
 16 24  1  0  0  0  0
 16 12  1  0  0  0  0
 19 13  1  0  0  0  0
 21 14  1  0  0  0  0
 22 15  1  0  0  0  0
 23 15  1  0  0  0  0
 25 16  1  0  0  0  0
 26  1  1  0  0  0  0
 26 35  1  0  0  0  0
 27 26  1  0  0  0  0
 28 26  1  0  0  0  0
 29 37  2  0  0  0  0
 29 30  1  0  0  0  0
 30 31  2  0  0  0  0
 31 32  1  0  0  0  0
 31 39  1  0  0  0  0
 32 33  2  0  0  0  0
 34 33  1  0  0  0  0
 35 34  2  0  0  0  0
 36 35  1  0  0  0  0
 36 32  1  0  0  0  0
 37 36  1  0  0  0  0
 38 30  1  0  0  0  0
 40 42  1  0  0  0  0
 40 29  1  0  0  0  0
 41 40  1  0  0  0  0
 43 40  1  0  0  0  0
M  END
>  <MODEL>
26

>  <REMARK>
 VINA RESULT:    -6.774      3.115      4.582
 INTER + INTRA:          -8.742
 INTER:                  -8.198
 INTRA:                  -0.544
 UNBOUND:                -0.582
  Name = 
  4 active torsions:
  status: ('A' for Active; 'I' for Inactive)
    1  A    between atoms: C_1  and  C_2
    2  A    between atoms: C_8  and  C_9
    3  A    between atoms: C_9  and  N_10
    4  A    between atoms: C_15  and  C_16
                            x       y       z     vdW  Elec       q    Type
                         _______ _______ _______ _____ _____    ______ ____

>  <TORSDO>
F 4

$$$$
=
 OpenBabel07192307433D

 43 47  0  0  0  0  0  0  0  0999 V2000
    0.6730    9.9270   18.9770 N   0  0  0  0  0  0  0  0  0  0  0  0
    1.5470    8.8930   18.8910 C   0  0  0  0  0  0  0  0  0  0  0  0
    2.3300    8.7200   17.8610 N   0  0  0  0  0  0  0  0  0  0  0  0
    3.0370    7.5980   18.1140 N   0  0  0  0  0  0  0  0  0  0  0  0
    3.9890    6.9400   17.4020 C   0  0  0  0  0  0  0  0  0  0  0  0
    4.3230    5.8450   18.1920 C   0  0  0  0  0  0  0  0  0  0  0  0
    3.5960    5.8480   19.3780 N   0  0  0  0  0  0  0  0  0  0  0  0
    2.8490    6.9100   19.2630 C   0  0  0  0  0  0  0  0  0  0  0  0
    1.6600    7.6870   20.2110 S   0  0  0  0  0  0  0  0  0  0  0  0
    0.7440   10.6180   18.2330 H   0  0  0  0  0  0  0  0  0  0  0  0
    4.3350    7.2860   16.4400 H   0  0  0  0  0  0  0  0  0  0  0  0
    5.3150    4.7680   17.9000 C   0  0  0  0  0  0  0  0  0  0  0  0
    6.7340    5.1130   18.3750 C   0  0  0  0  0  0  0  0  0  0  0  0
    7.6490    4.4790   17.3370 C   0  0  0  0  0  0  0  0  0  0  0  0
    6.9000    4.7200   16.0370 C   0  0  0  0  0  0  0  0  0  0  0  0
    5.4440    4.4500   16.3990 C   0  0  0  0  0  0  0  0  0  0  0  0
    4.9930    3.8500   18.4130 H   0  0  0  0  0  0  0  0  0  0  0  0
    6.9320    4.7300   19.3820 H   0  0  0  0  0  0  0  0  0  0  0  0
    6.9030    6.1980   18.3990 H   0  0  0  0  0  0  0  0  0  0  0  0
    7.7540    3.4040   17.5270 H   0  0  0  0  0  0  0  0  0  0  0  0
    8.6460    4.9260   17.3320 H   0  0  0  0  0  0  0  0  0  0  0  0
    7.0200    5.7620   15.7180 H   0  0  0  0  0  0  0  0  0  0  0  0
    7.2540    4.0730   15.2270 H   0  0  0  0  0  0  0  0  0  0  0  0
    5.2200    3.3860   16.2380 H   0  0  0  0  0  0  0  0  0  0  0  0
    4.7610    5.0240   15.7600 H   0  0  0  0  0  0  0  0  0  0  0  0
   -0.0060   10.3970   20.1680 C   0  0  0  0  0  0  0  0  0  0  0  0
   -0.8280    9.7110   20.4040 H   0  0  0  0  0  0  0  0  0  0  0  0
    0.6970   10.3830   21.0120 H   0  0  0  0  0  0  0  0  0  0  0  0
    1.9500   13.9660   18.8160 C   0  0  0  0  0  0  0  0  0  0  0  0
    1.1410   15.2230   18.7880 C   0  0  0  0  0  0  0  0  0  0  0  0
   -0.1350   15.1530   19.1880 C   0  0  0  0  0  0  0  0  0  0  0  0
   -0.6520   13.9120   19.6070 C   0  0  0  0  0  0  0  0  0  0  0  0
   -1.8390   13.5360   20.0320 N   0  0  0  0  0  0  0  0  0  0  0  0
   -1.7790   12.1860   20.3010 N   0  0  0  0  0  0  0  0  0  0  0  0
   -0.5510   11.7730   20.0410 C   0  0  0  0  0  0  0  0  0  0  0  0
    0.2010   12.8290   19.5910 N   0  0  0  0  0  0  0  0  0  0  0  0
    1.5100   12.8050   19.2010 N   0  0  0  0  0  0  0  0  0  0  0  0
    1.5960   16.1450   18.4490 H   0  0  0  0  0  0  0  0  0  0  0  0
   -0.7830   16.0230   19.1930 H   0  0  0  0  0  0  0  0  0  0  0  0
    3.3850   14.0600   18.3560 C   0  0  0  0  0  0  0  0  0  0  0  0
    4.0440   13.6950   19.1480 H   0  0  0  0  0  0  0  0  0  0  0  0
    3.5180   13.4380   17.4660 H   0  0  0  0  0  0  0  0  0  0  0  0
    3.6630   15.0880   18.1150 H   0  0  0  0  0  0  0  0  0  0  0  0
  1 26  1  0  0  0  0
  2  1  1  0  0  0  0
  2  9  1  0  0  0  0
  3  4  1  0  0  0  0
  3  2  2  0  0  0  0
  4  8  1  0  0  0  0
  5  4  1  0  0  0  0
  5  6  2  0  0  0  0
  6  7  1  0  0  0  0
  8  7  2  0  0  0  0
  8  9  1  0  0  0  0
 10  1  1  0  0  0  0
 11  5  1  0  0  0  0
 12  6  1  0  0  0  0
 12 13  1  0  0  0  0
 12 17  1  0  0  0  0
 13 19  1  0  0  0  0
 13 18  1  0  0  0  0
 14 20  1  0  0  0  0
 14 13  1  0  0  0  0
 15 16  1  0  0  0  0
 15 14  1  0  0  0  0
 16 12  1  0  0  0  0
 21 14  1  0  0  0  0
 22 15  1  0  0  0  0
 23 15  1  0  0  0  0
 24 16  1  0  0  0  0
 25 16  1  0  0  0  0
 26 27  1  0  0  0  0
 26 28  1  0  0  0  0
 29 37  2  0  0  0  0
 30 29  1  0  0  0  0
 30 31  2  0  0  0  0
 31 39  1  0  0  0  0
 31 32  1  0  0  0  0
 32 33  2  0  0  0  0
 33 34  1  0  0  0  0
 35 26  1  0  0  0  0
 35 34  2  0  0  0  0
 36 32  1  0  0  0  0
 36 35  1  0  0  0  0
 37 36  1  0  0  0  0
 38 30  1  0  0  0  0
 40 29  1  0  0  0  0
 40 41  1  0  0  0  0
 42 40  1  0  0  0  0
 43 40  1  0  0  0  0
M  END
>  <MODEL>
27

>  <REMARK>
 VINA RESULT:    -6.766      2.824      4.045
 INTER + INTRA:          -8.732
 INTER:                  -8.057
 INTRA:                  -0.675
 UNBOUND:                -0.582
  Name = 
  4 active torsions:
  status: ('A' for Active; 'I' for Inactive)
    1  A    between atoms: C_1  and  C_2
    2  A    between atoms: C_8  and  C_9
    3  A    between atoms: C_9  and  N_10
    4  A    between atoms: C_15  and  C_16
                            x       y       z     vdW  Elec       q    Type
                         _______ _______ _______ _____ _____    ______ ____

>  <TORSDO>
F 4

$$$$
=
 OpenBabel07192307433D

 43 47  0  0  0  0  0  0  0  0999 V2000
    5.0190    5.2790   16.4060 N   0  0  0  0  0  0  0  0  0  0  0  0
    5.9300    6.0980   16.9910 C   0  0  0  0  0  0  0  0  0  0  0  0
    6.0600    7.3540   16.6550 N   0  0  0  0  0  0  0  0  0  0  0  0
    7.0580    7.8420   17.4220 N   0  0  0  0  0  0  0  0  0  0  0  0
    7.6250    9.0740   17.5040 C   0  0  0  0  0  0  0  0  0  0  0  0
    8.6130    8.9410   18.4740 C   0  0  0  0  0  0  0  0  0  0  0  0
    8.6330    7.6500   18.9890 N   0  0  0  0  0  0  0  0  0  0  0  0
    7.6910    7.0500   18.3170 C   0  0  0  0  0  0  0  0  0  0  0  0
    7.0230    5.4780   18.2670 S   0  0  0  0  0  0  0  0  0  0  0  0
    4.3740    5.7350   15.7650 H   0  0  0  0  0  0  0  0  0  0  0  0
    7.2970    9.9040   16.8970 H   0  0  0  0  0  0  0  0  0  0  0  0
    9.5620    9.9820   18.9700 C   0  0  0  0  0  0  0  0  0  0  0  0
    9.1510   10.5740   20.3260 C   0  0  0  0  0  0  0  0  0  0  0  0
    9.5870   12.0310   20.2540 C   0  0  0  0  0  0  0  0  0  0  0  0
    9.2700   12.4060   18.8160 C   0  0  0  0  0  0  0  0  0  0  0  0
    9.7010   11.1820   18.0150 C   0  0  0  0  0  0  0  0  0  0  0  0
   10.5550    9.5220   19.0810 H   0  0  0  0  0  0  0  0  0  0  0  0
    9.6230   10.0480   21.1620 H   0  0  0  0  0  0  0  0  0  0  0  0
    8.0650   10.5240   20.4790 H   0  0  0  0  0  0  0  0  0  0  0  0
   10.6630   12.1170   20.4450 H   0  0  0  0  0  0  0  0  0  0  0  0
    9.0570   12.6600   20.9740 H   0  0  0  0  0  0  0  0  0  0  0  0
    8.1930   12.5710   18.6960 H   0  0  0  0  0  0  0  0  0  0  0  0
    9.7910   13.3160   18.4980 H   0  0  0  0  0  0  0  0  0  0  0  0
   10.7560   11.2890   17.7270 H   0  0  0  0  0  0  0  0  0  0  0  0
    9.1220   11.0860   17.0890 H   0  0  0  0  0  0  0  0  0  0  0  0
    4.5710    3.9890   16.8920 C   0  0  0  0  0  0  0  0  0  0  0  0
    4.2650    3.3720   16.0380 H   0  0  0  0  0  0  0  0  0  0  0  0
    5.4080    3.4820   17.3900 H   0  0  0  0  0  0  0  0  0  0  0  0
    4.1300    2.1020   20.7180 C   0  0  0  0  0  0  0  0  0  0  0  0
    2.8710    2.3760   21.4770 C   0  0  0  0  0  0  0  0  0  0  0  0
    1.9670    3.1860   20.9130 C   0  0  0  0  0  0  0  0  0  0  0  0
    2.2410    3.7420   19.6490 C   0  0  0  0  0  0  0  0  0  0  0  0
    1.5700    4.5610   18.8670 N   0  0  0  0  0  0  0  0  0  0  0  0
    2.3280    4.7750   17.7370 N   0  0  0  0  0  0  0  0  0  0  0  0
    3.4410    4.0730   17.8530 C   0  0  0  0  0  0  0  0  0  0  0  0
    3.4370    3.4050   19.0510 N   0  0  0  0  0  0  0  0  0  0  0  0
    4.4160    2.5900   19.5480 N   0  0  0  0  0  0  0  0  0  0  0  0
    2.7230    1.9220   22.4490 H   0  0  0  0  0  0  0  0  0  0  0  0
    1.0310    3.4320   21.4050 H   0  0  0  0  0  0  0  0  0  0  0  0
    5.1420    1.1910   21.3690 C   0  0  0  0  0  0  0  0  0  0  0  0
    4.7270    0.7930   22.2980 H   0  0  0  0  0  0  0  0  0  0  0  0
    5.3650    0.3610   20.6930 H   0  0  0  0  0  0  0  0  0  0  0  0
    6.0710    1.7200   21.5980 H   0  0  0  0  0  0  0  0  0  0  0  0
  1 26  1  0  0  0  0
  1  2  1  0  0  0  0
  2  9  1  0  0  0  0
  3  2  2  0  0  0  0
  3  4  1  0  0  0  0
  4  5  1  0  0  0  0
  4  8  1  0  0  0  0
  5  6  2  0  0  0  0
  6 12  1  0  0  0  0
  6  7  1  0  0  0  0
  8  7  2  0  0  0  0
  9  8  1  0  0  0  0
 10  1  1  0  0  0  0
 11  5  1  0  0  0  0
 12 17  1  0  0  0  0
 12 13  1  0  0  0  0
 13 19  1  0  0  0  0
 13 18  1  0  0  0  0
 14 13  1  0  0  0  0
 14 20  1  0  0  0  0
 14 21  1  0  0  0  0
 15 14  1  0  0  0  0
 16 15  1  0  0  0  0
 16 12  1  0  0  0  0
 22 15  1  0  0  0  0
 23 15  1  0  0  0  0
 24 16  1  0  0  0  0
 25 16  1  0  0  0  0
 26 28  1  0  0  0  0
 26 35  1  0  0  0  0
 27 26  1  0  0  0  0
 29 40  1  0  0  0  0
 29 30  1  0  0  0  0
 30 38  1  0  0  0  0
 31 39  1  0  0  0  0
 31 30  2  0  0  0  0
 32 31  1  0  0  0  0
 33 32  2  0  0  0  0
 34 35  2  0  0  0  0
 34 33  1  0  0  0  0
 35 36  1  0  0  0  0
 36 37  1  0  0  0  0
 36 32  1  0  0  0  0
 37 29  2  0  0  0  0
 40 43  1  0  0  0  0
 40 41  1  0  0  0  0
 42 40  1  0  0  0  0
M  END
>  <MODEL>
28

>  <REMARK>
 VINA RESULT:    -6.702      6.856      9.448
 INTER + INTRA:          -8.655
 INTER:                  -8.073
 INTRA:                  -0.582
 UNBOUND:                -0.582
  Name = 
  4 active torsions:
  status: ('A' for Active; 'I' for Inactive)
    1  A    between atoms: C_1  and  C_2
    2  A    between atoms: C_8  and  C_9
    3  A    between atoms: C_9  and  N_10
    4  A    between atoms: C_15  and  C_16
                            x       y       z     vdW  Elec       q    Type
                         _______ _______ _______ _____ _____    ______ ____

>  <TORSDO>
F 4

$$$$
=
 OpenBabel07192307433D

 43 47  0  0  0  0  0  0  0  0999 V2000
    0.1610   12.0900   21.1660 N   0  0  0  0  0  0  0  0  0  0  0  0
    0.6220   10.9050   20.6910 C   0  0  0  0  0  0  0  0  0  0  0  0
    0.7940    9.8620   21.4580 N   0  0  0  0  0  0  0  0  0  0  0  0
    1.2720    8.8870   20.6560 N   0  0  0  0  0  0  0  0  0  0  0  0
    1.6340    7.6000   20.9030 C   0  0  0  0  0  0  0  0  0  0  0  0
    2.0580    7.1140   19.6700 C   0  0  0  0  0  0  0  0  0  0  0  0
    1.9370    8.0860   18.6840 N   0  0  0  0  0  0  0  0  0  0  0  0
    1.4720    9.1130   19.3380 C   0  0  0  0  0  0  0  0  0  0  0  0
    1.0330   10.7200   18.9580 S   0  0  0  0  0  0  0  0  0  0  0  0
   -0.1410   12.0800   22.1370 H   0  0  0  0  0  0  0  0  0  0  0  0
    1.5650    7.1580   21.8840 H   0  0  0  0  0  0  0  0  0  0  0  0
    2.5770    5.7510   19.3480 C   0  0  0  0  0  0  0  0  0  0  0  0
    2.0310    5.1980   18.0240 C   0  0  0  0  0  0  0  0  0  0  0  0
    1.8970    3.7000   18.2630 C   0  0  0  0  0  0  0  0  0  0  0  0
    1.4070    3.6310   19.6990 C   0  0  0  0  0  0  0  0  0  0  0  0
    2.2260    4.6990   20.4170 C   0  0  0  0  0  0  0  0  0  0  0  0
    3.6730    5.8050   19.2740 H   0  0  0  0  0  0  0  0  0  0  0  0
    2.6960    5.4180   17.1830 H   0  0  0  0  0  0  0  0  0  0  0  0
    1.0460    5.6190   17.7820 H   0  0  0  0  0  0  0  0  0  0  0  0
    2.8730    3.2090   18.1650 H   0  0  0  0  0  0  0  0  0  0  0  0
    1.2020    3.2270   17.5640 H   0  0  0  0  0  0  0  0  0  0  0  0
    0.3410    3.8810   19.7490 H   0  0  0  0  0  0  0  0  0  0  0  0
    1.5450    2.6370   20.1390 H   0  0  0  0  0  0  0  0  0  0  0  0
    3.1560    4.2510   20.7960 H   0  0  0  0  0  0  0  0  0  0  0  0
    1.6860    5.1030   21.2820 H   0  0  0  0  0  0  0  0  0  0  0  0
   -0.3580   13.1970   20.3880 C   0  0  0  0  0  0  0  0  0  0  0  0
    0.1770   14.1130   20.6670 H   0  0  0  0  0  0  0  0  0  0  0  0
   -0.1690   13.0080   19.3230 H   0  0  0  0  0  0  0  0  0  0  0  0
   -3.6500   11.2870   18.4120 C   0  0  0  0  0  0  0  0  0  0  0  0
   -5.0280   11.7160   18.8040 C   0  0  0  0  0  0  0  0  0  0  0  0
   -5.1430   12.6660   19.7400 C   0  0  0  0  0  0  0  0  0  0  0  0
   -3.9750   13.2090   20.3090 C   0  0  0  0  0  0  0  0  0  0  0  0
   -3.7730   14.1220   21.2350 N   0  0  0  0  0  0  0  0  0  0  0  0
   -2.4120   14.2530   21.4030 N   0  0  0  0  0  0  0  0  0  0  0  0
   -1.8160   13.4210   20.5670 C   0  0  0  0  0  0  0  0  0  0  0  0
   -2.7640   12.7300   19.8560 N   0  0  0  0  0  0  0  0  0  0  0  0
   -2.5500   11.7670   18.9100 N   0  0  0  0  0  0  0  0  0  0  0  0
   -5.8870   11.2540   18.3320 H   0  0  0  0  0  0  0  0  0  0  0  0
   -6.1090   13.0260   20.0760 H   0  0  0  0  0  0  0  0  0  0  0  0
   -3.5370   10.2100   17.3600 C   0  0  0  0  0  0  0  0  0  0  0  0
   -2.9750    9.3650   17.7660 H   0  0  0  0  0  0  0  0  0  0  0  0
   -4.5400    9.8720   17.0840 H   0  0  0  0  0  0  0  0  0  0  0  0
   -3.0260   10.5740   16.4650 H   0  0  0  0  0  0  0  0  0  0  0  0
  1 10  1  0  0  0  0
  2  1  1  0  0  0  0
  2  3  2  0  0  0  0
  4  5  1  0  0  0  0
  4  3  1  0  0  0  0
  5 11  1  0  0  0  0
  6  5  2  0  0  0  0
  7  8  2  0  0  0  0
  7  6  1  0  0  0  0
  8  4  1  0  0  0  0
  9  8  1  0  0  0  0
  9  2  1  0  0  0  0
 12  6  1  0  0  0  0
 12 16  1  0  0  0  0
 13 14  1  0  0  0  0
 13 12  1  0  0  0  0
 14 15  1  0  0  0  0
 15 22  1  0  0  0  0
 15 23  1  0  0  0  0
 15 16  1  0  0  0  0
 16 24  1  0  0  0  0
 16 25  1  0  0  0  0
 17 12  1  0  0  0  0
 18 13  1  0  0  0  0
 19 13  1  0  0  0  0
 20 14  1  0  0  0  0
 21 14  1  0  0  0  0
 26 35  1  0  0  0  0
 26 27  1  0  0  0  0
 26  1  1  0  0  0  0
 28 26  1  0  0  0  0
 29 30  1  0  0  0  0
 29 37  2  0  0  0  0
 30 31  2  0  0  0  0
 31 39  1  0  0  0  0
 31 32  1  0  0  0  0
 32 33  2  0  0  0  0
 33 34  1  0  0  0  0
 35 34  2  0  0  0  0
 36 32  1  0  0  0  0
 36 35  1  0  0  0  0
 37 36  1  0  0  0  0
 38 30  1  0  0  0  0
 40 41  1  0  0  0  0
 40 29  1  0  0  0  0
 42 40  1  0  0  0  0
 43 40  1  0  0  0  0
M  END
>  <MODEL>
29

>  <REMARK>
 VINA RESULT:    -6.669      1.574      2.036
 INTER + INTRA:          -8.616
 INTER:                  -7.950
 INTRA:                  -0.666
 UNBOUND:                -0.582
  Name = 
  4 active torsions:
  status: ('A' for Active; 'I' for Inactive)
    1  A    between atoms: C_1  and  C_2
    2  A    between atoms: C_8  and  C_9
    3  A    between atoms: C_9  and  N_10
    4  A    between atoms: C_15  and  C_16
                            x       y       z     vdW  Elec       q    Type
                         _______ _______ _______ _____ _____    ______ ____

>  <TORSDO>
F 4

$$$$
=
 OpenBabel07192307433D

 43 47  0  0  0  0  0  0  0  0999 V2000
    1.1270    9.1780   17.6290 N   0  0  0  0  0  0  0  0  0  0  0  0
    0.2910   10.0230   18.2840 C   0  0  0  0  0  0  0  0  0  0  0  0
   -0.9660   10.1590   17.9550 N   0  0  0  0  0  0  0  0  0  0  0  0
   -1.4730   11.0820   18.8000 N   0  0  0  0  0  0  0  0  0  0  0  0
   -2.7150   11.6200   18.9240 C   0  0  0  0  0  0  0  0  0  0  0  0
   -2.6020   12.5250   19.9730 C   0  0  0  0  0  0  0  0  0  0  0  0
   -1.3130   12.5230   20.4940 N   0  0  0  0  0  0  0  0  0  0  0  0
   -0.6950   11.6510   19.7480 C   0  0  0  0  0  0  0  0  0  0  0  0
    0.8880   11.0150   19.6500 S   0  0  0  0  0  0  0  0  0  0  0  0
    0.6840    8.5810   16.9340 H   0  0  0  0  0  0  0  0  0  0  0  0
   -3.5370   11.3300   18.2870 H   0  0  0  0  0  0  0  0  0  0  0  0
   -3.6600   13.4120   20.5420 C   0  0  0  0  0  0  0  0  0  0  0  0
   -3.1540   14.2840   21.7000 C   0  0  0  0  0  0  0  0  0  0  0  0
   -4.3450   14.3960   22.6420 C   0  0  0  0  0  0  0  0  0  0  0  0
   -4.9560   13.0060   22.5770 C   0  0  0  0  0  0  0  0  0  0  0  0
   -4.8680   12.6370   21.1000 C   0  0  0  0  0  0  0  0  0  0  0  0
   -4.0240   14.0750   19.7430 H   0  0  0  0  0  0  0  0  0  0  0  0
   -2.8150   15.2670   21.3540 H   0  0  0  0  0  0  0  0  0  0  0  0
   -2.3130   13.8150   22.2270 H   0  0  0  0  0  0  0  0  0  0  0  0
   -5.0550   15.1460   22.2720 H   0  0  0  0  0  0  0  0  0  0  0  0
   -4.0490   14.6730   23.6570 H   0  0  0  0  0  0  0  0  0  0  0  0
   -4.3640   12.3040   23.1740 H   0  0  0  0  0  0  0  0  0  0  0  0
   -5.9870   12.9870   22.9490 H   0  0  0  0  0  0  0  0  0  0  0  0
   -5.7780   12.9750   20.5850 H   0  0  0  0  0  0  0  0  0  0  0  0
   -4.8040   11.5510   20.9630 H   0  0  0  0  0  0  0  0  0  0  0  0
    2.4230    8.7120   18.0820 C   0  0  0  0  0  0  0  0  0  0  0  0
    3.0530    8.5030   17.2090 H   0  0  0  0  0  0  0  0  0  0  0  0
    2.9080    9.5070   18.6640 H   0  0  0  0  0  0  0  0  0  0  0  0
    4.1500    4.8470   17.3950 C   0  0  0  0  0  0  0  0  0  0  0  0
    3.9200    3.7980   18.4360 C   0  0  0  0  0  0  0  0  0  0  0  0
    3.1900    4.1320   19.5070 C   0  0  0  0  0  0  0  0  0  0  0  0
    2.6830    5.4420   19.6080 C   0  0  0  0  0  0  0  0  0  0  0  0
    1.9620    6.0540   20.5220 N   0  0  0  0  0  0  0  0  0  0  0  0
    1.7600    7.3490   20.0990 N   0  0  0  0  0  0  0  0  0  0  0  0
    2.3560    7.4930   18.9280 C   0  0  0  0  0  0  0  0  0  0  0  0
    2.9620    6.3130   18.5760 N   0  0  0  0  0  0  0  0  0  0  0  0
    3.6940    6.0630   17.4490 N   0  0  0  0  0  0  0  0  0  0  0  0
    4.3430    2.8110   18.3030 H   0  0  0  0  0  0  0  0  0  0  0  0
    2.9840    3.4250   20.3040 H   0  0  0  0  0  0  0  0  0  0  0  0
    4.9790    4.4570   16.1960 C   0  0  0  0  0  0  0  0  0  0  0  0
    5.2940    3.4160   16.2960 H   0  0  0  0  0  0  0  0  0  0  0  0
    4.3730    4.5610   15.2910 H   0  0  0  0  0  0  0  0  0  0  0  0
    5.8690    5.0850   16.1010 H   0  0  0  0  0  0  0  0  0  0  0  0
  1 26  1  0  0  0  0
  1  2  1  0  0  0  0
  2  9  1  0  0  0  0
  3  2  2  0  0  0  0
  3  4  1  0  0  0  0
  4  5  1  0  0  0  0
  4  8  1  0  0  0  0
  5  6  2  0  0  0  0
  6  7  1  0  0  0  0
  6 12  1  0  0  0  0
  8  7  2  0  0  0  0
  9  8  1  0  0  0  0
 10  1  1  0  0  0  0
 11  5  1  0  0  0  0
 12 16  1  0  0  0  0
 12 13  1  0  0  0  0
 13 19  1  0  0  0  0
 13 14  1  0  0  0  0
 14 21  1  0  0  0  0
 15 14  1  0  0  0  0
 15 23  1  0  0  0  0
 15 22  1  0  0  0  0
 16 15  1  0  0  0  0
 17 12  1  0  0  0  0
 18 13  1  0  0  0  0
 20 14  1  0  0  0  0
 24 16  1  0  0  0  0
 25 16  1  0  0  0  0
 26 28  1  0  0  0  0
 26 35  1  0  0  0  0
 27 26  1  0  0  0  0
 29 37  2  0  0  0  0
 29 30  1  0  0  0  0
 30 31  2  0  0  0  0
 31 32  1  0  0  0  0
 31 39  1  0  0  0  0
 32 33  2  0  0  0  0
 34 33  1  0  0  0  0
 35 34  2  0  0  0  0
 36 35  1  0  0  0  0
 36 32  1  0  0  0  0
 37 36  1  0  0  0  0
 38 30  1  0  0  0  0
 40 41  1  0  0  0  0
 40 29  1  0  0  0  0
 42 40  1  0  0  0  0
 43 40  1  0  0  0  0
M  END
>  <MODEL>
30

>  <REMARK>
 VINA RESULT:    -6.596      2.092      8.334
 INTER + INTRA:          -8.528
 INTER:                  -8.044
 INTRA:                  -0.484
 UNBOUND:                -0.582
  Name = 
  4 active torsions:
  status: ('A' for Active; 'I' for Inactive)
    1  A    between atoms: C_1  and  C_2
    2  A    between atoms: C_8  and  C_9
    3  A    between atoms: C_9  and  N_10
    4  A    between atoms: C_15  and  C_16
                            x       y       z     vdW  Elec       q    Type
                         _______ _______ _______ _____ _____    ______ ____

>  <TORSDO>
F 4

$$$$
=
 OpenBabel07192307433D

 43 47  0  0  0  0  0  0  0  0999 V2000
    1.8230    5.9270   20.9590 N   0  0  0  0  0  0  0  0  0  0  0  0
    1.6050    7.1490   20.4100 C   0  0  0  0  0  0  0  0  0  0  0  0
    0.7740    8.0120   20.9300 N   0  0  0  0  0  0  0  0  0  0  0  0
    0.8020    9.0910   20.1170 N   0  0  0  0  0  0  0  0  0  0  0  0
    0.1460   10.2800   20.1580 C   0  0  0  0  0  0  0  0  0  0  0  0
    0.5940   10.9650   19.0340 C   0  0  0  0  0  0  0  0  0  0  0  0
    1.5250   10.2110   18.3290 N   0  0  0  0  0  0  0  0  0  0  0  0
    1.5960    9.1090   19.0230 C   0  0  0  0  0  0  0  0  0  0  0  0
    2.4560    7.6370   18.9120 S   0  0  0  0  0  0  0  0  0  0  0  0
    1.3770    5.7710   21.8600 H   0  0  0  0  0  0  0  0  0  0  0  0
   -0.5510   10.5290   20.9430 H   0  0  0  0  0  0  0  0  0  0  0  0
    0.1980   12.3280   18.5680 C   0  0  0  0  0  0  0  0  0  0  0  0
    1.3520   13.3400   18.6220 C   0  0  0  0  0  0  0  0  0  0  0  0
    0.6850   14.6600   18.9840 C   0  0  0  0  0  0  0  0  0  0  0  0
   -0.3750   14.2370   19.9870 C   0  0  0  0  0  0  0  0  0  0  0  0
   -0.9400   12.9480   19.4010 C   0  0  0  0  0  0  0  0  0  0  0  0
   -0.1480   12.2530   17.5270 H   0  0  0  0  0  0  0  0  0  0  0  0
    1.8870   13.4010   17.6680 H   0  0  0  0  0  0  0  0  0  0  0  0
    2.0880   13.0780   19.3940 H   0  0  0  0  0  0  0  0  0  0  0  0
    0.2190   15.1070   18.0980 H   0  0  0  0  0  0  0  0  0  0  0  0
    1.3910   15.3820   19.4040 H   0  0  0  0  0  0  0  0  0  0  0  0
    0.0850   14.0360   20.9610 H   0  0  0  0  0  0  0  0  0  0  0  0
   -1.1460   15.0030   20.1260 H   0  0  0  0  0  0  0  0  0  0  0  0
   -1.7800   13.1890   18.7350 H   0  0  0  0  0  0  0  0  0  0  0  0
   -1.3290   12.2890   20.1860 H   0  0  0  0  0  0  0  0  0  0  0  0
    2.9210    5.0260   20.6690 C   0  0  0  0  0  0  0  0  0  0  0  0
    3.8680    5.5360   20.8810 H   0  0  0  0  0  0  0  0  0  0  0  0
    2.8540    4.1520   21.3300 H   0  0  0  0  0  0  0  0  0  0  0  0
    6.2060    4.8450   17.9180 C   0  0  0  0  0  0  0  0  0  0  0  0
    5.9280    4.3000   16.5520 C   0  0  0  0  0  0  0  0  0  0  0  0
    4.6770    3.9100   16.2790 C   0  0  0  0  0  0  0  0  0  0  0  0
    3.6920    4.0230   17.2790 C   0  0  0  0  0  0  0  0  0  0  0  0
    2.4120    3.7190   17.3120 N   0  0  0  0  0  0  0  0  0  0  0  0
    1.9370    4.0420   18.5640 N   0  0  0  0  0  0  0  0  0  0  0  0
    2.9400    4.5440   19.2640 C   0  0  0  0  0  0  0  0  0  0  0  0
    4.0770    4.5480   18.4950 N   0  0  0  0  0  0  0  0  0  0  0  0
    5.3230    4.9700   18.8630 N   0  0  0  0  0  0  0  0  0  0  0  0
    6.7310    4.2330   15.8300 H   0  0  0  0  0  0  0  0  0  0  0  0
    4.4010    3.5030   15.3120 H   0  0  0  0  0  0  0  0  0  0  0  0
    7.6220    5.2740   18.2130 C   0  0  0  0  0  0  0  0  0  0  0  0
    7.6060    6.1640   18.8470 H   0  0  0  0  0  0  0  0  0  0  0  0
    8.1390    4.4680   18.7420 H   0  0  0  0  0  0  0  0  0  0  0  0
    8.1710    5.5060   17.2970 H   0  0  0  0  0  0  0  0  0  0  0  0
  1 10  1  0  0  0  0
  2  3  2  0  0  0  0
  2  1  1  0  0  0  0
  4  5  1  0  0  0  0
  4  3  1  0  0  0  0
  5 11  1  0  0  0  0
  6  5  2  0  0  0  0
  7  8  2  0  0  0  0
  7  6  1  0  0  0  0
  8  4  1  0  0  0  0
  9  8  1  0  0  0  0
  9  2  1  0  0  0  0
 12 13  1  0  0  0  0
 12  6  1  0  0  0  0
 12 16  1  0  0  0  0
 13 14  1  0  0  0  0
 13 19  1  0  0  0  0
 14 21  1  0  0  0  0
 14 15  1  0  0  0  0
 15 23  1  0  0  0  0
 15 22  1  0  0  0  0
 16 15  1  0  0  0  0
 16 25  1  0  0  0  0
 17 12  1  0  0  0  0
 18 13  1  0  0  0  0
 20 14  1  0  0  0  0
 24 16  1  0  0  0  0
 26 27  1  0  0  0  0
 26  1  1  0  0  0  0
 26 28  1  0  0  0  0
 29 40  1  0  0  0  0
 29 37  2  0  0  0  0
 30 29  1  0  0  0  0
 31 30  2  0  0  0  0
 31 32  1  0  0  0  0
 32 33  2  0  0  0  0
 32 36  1  0  0  0  0
 33 34  1  0  0  0  0
 34 35  2  0  0  0  0
 35 26  1  0  0  0  0
 36 37  1  0  0  0  0
 36 35  1  0  0  0  0
 38 30  1  0  0  0  0
 39 31  1  0  0  0  0
 40 42  1  0  0  0  0
 40 41  1  0  0  0  0
 43 40  1  0  0  0  0
M  END
>  <MODEL>
31

>  <REMARK>
 VINA RESULT:    -6.448      2.857      8.706
 INTER + INTRA:          -8.350
 INTER:                  -8.260
 INTRA:                  -0.089
 UNBOUND:                -0.582
  Name = 
  4 active torsions:
  status: ('A' for Active; 'I' for Inactive)
    1  A    between atoms: C_1  and  C_2
    2  A    between atoms: C_8  and  C_9
    3  A    between atoms: C_9  and  N_10
    4  A    between atoms: C_15  and  C_16
                            x       y       z     vdW  Elec       q    Type
                         _______ _______ _______ _____ _____    ______ ____

>  <TORSDO>
F 4

$$$$
